=
 OpenBabel10272414273D

 43 47  0  0  1  0  0  0  0  0999 V2000
  191.3220  176.0840  147.0280 C   0  0  1  0  0  3  0  0  0  0  0  0
  187.1300  177.7610  144.4870 C   0  0  0  0  0  0  0  0  0  0  0  0
  187.9080  178.3050  141.8450 C   0  0  0  0  0  0  0  0  0  0  0  0
  189.0310  176.8740  146.4460 C   0  0  1  0  0  3  0  0  0  0  0  0
  191.8630  176.6940  145.7350 C   0  0  0  0  0  2  0  0  0  0  0  0
  192.4030  176.1020  148.0880 C   0  0  0  0  0  1  0  0  0  0  0  0
  189.5760  177.5420  145.1790 C   0  0  1  0  0  3  0  0  0  0  0  0
  190.1060  176.8640  147.5260 C   0  0  0  0  0  2  0  0  0  0  0  0
  190.7730  176.7390  144.6650 C   0  0  0  0  0  2  0  0  0  0  0  0
  188.8750  178.0430  142.8140 C   0  0  0  0  0  3  0  0  0  0  0  0
  188.5020  177.7340  144.1300 C   0  0  0  0  0  0  0  0  0  0  0  0
  186.6860  177.4280  145.8930 C   0  0  0  0  0  2  0  0  0  0  0  0
  186.1570  178.0230  143.5040 C   0  0  0  0  0  0  0  0  0  0  0  0
  186.5570  178.2950  142.1890 C   0  0  0  0  0  3  0  0  0  0  0  0
  187.7970  177.6180  146.9200 C   0  0  0  0  0  2  0  0  0  0  0  0
  188.3210  178.6680  140.4630 C   0  0  0  0  0  2  0  0  0  0  0  0
  187.9180  177.6120  139.5460 N   0  0  0  0  0  2  0  0  0  0  0  0
  189.0360  177.3330  138.6560 C   0  0  1  0  0  3  0  0  0  0  0  0
  189.4950  178.5150  138.0710 O   0  0  0  0  0  1  0  0  0  0  0  0
  190.1700  176.6460  139.4180 C   0  0  0  0  0  2  0  0  0  0  0  0
  191.5120  176.7260  138.6940 C   0  0  0  0  0  2  0  0  0  0  0  0
  191.4930  175.9250  137.4800 N   0  0  0  0  0  0  0  0  0  0  0  0
  193.1640  174.2820  136.9710 C   0  0  2  0  0  3  0  0  0  0  0  0
  190.9960  174.6580  137.8410 N   0  0  0  0  0  2  0  0  0  0  0  0
  192.8840  175.7560  137.0660 C   0  0  1  0  0  3  0  0  0  0  0  0
  193.0990  176.3980  135.7090 C   0  0  0  0  0  1  0  0  0  0  0  0
  191.8070  173.6680  137.1540 C   0  0  0  0  0  2  0  0  0  0  0  0
  194.0160  173.9070  138.0470 O   0  0  0  0  0  0  0  0  0  0  0  0
  195.3940  174.1330  138.0290 C   0  0  0  0  0  0  0  0  0  0  0  0
  197.5690  174.6420  138.7650 C   0  0  0  0  0  0  0  0  0  0  0  0
  197.8240  174.4150  137.0120 S   0  0  0  0  0  0  0  0  0  0  0  0
  198.4650  175.0140  139.5040 O   0  0  0  0  0  0  0  0  0  0  0  0
  196.0620  174.1370  136.8840 C   0  0  0  0  0  3  0  0  0  0  0  0
  196.1950  174.3830  139.2630 C   0  0  0  0  0  2  0  0  0  0  0  0
  184.7650  178.0280  143.8610 N   0  0  0  0  0  2  0  0  0  0  0  0
  183.9940  179.2060  144.2550 C   0  0  2  0  0  3  0  0  0  0  0  0
  183.6840  179.1440  145.6140 O   0  0  0  0  0  1  0  0  0  0  0  0
  182.7170  179.3340  143.4370 C   0  0  0  0  0  2  0  0  0  0  0  0
  182.8970  178.7320  142.1270 N   0  0  0  0  0  2  0  0  0  0  0  0
  181.5880  178.7180  141.4900 C   0  0  0  0  0  2  0  0  0  0  0  0
  181.8360  179.1680  139.0320 C   0  0  0  0  0  1  0  0  0  0  0  0
  181.6520  178.1020  140.0940 C   0  0  0  0  0  3  0  0  0  0  0  0
  182.7560  177.0650  139.9920 C   0  0  0  0  0  1  0  0  0  0  0  0
  1  8  1  0  0  0  0
  1  6  1  1  0  0  0
  2 12  1  0  0  0  0
  3 14  2  0  0  0  0
  3 10  1  0  0  0  0
  4 15  1  1  0  0  0
  4  8  1  0  0  0  0
  5  1  1  0  0  0  0
  7  9  1  6  0  0  0
  7  4  1  0  0  0  0
  9  5  1  0  0  0  0
 10 11  2  0  0  0  0
 11  2  1  0  0  0  0
 11  7  1  0  0  0  0
 12 15  1  0  0  0  0
 13 35  1  0  0  0  0
 13  2  2  0  0  0  0
 14 13  1  0  0  0  0
 16  3  1  0  0  0  0
 17 16  1  0  0  0  0
 18 19  1  1  0  0  0
 18 20  1  0  0  0  0
 18 17  1  0  0  0  0
 21 20  1  0  0  0  0
 22 24  1  0  0  0  0
 22 21  1  0  0  0  0
 23 25  1  0  0  0  0
 23 27  1  0  0  0  0
 23 28  1  1  0  0  0
 25 26  1  6  0  0  0
 25 22  1  0  0  0  0
 27 24  1  0  0  0  0
 29 28  1  0  0  0  0
 29 34  1  0  0  0  0
 30 34  1  0  0  0  0
 30 32  2  0  0  0  0
 31 30  1  0  0  0  0
 33 31  1  0  0  0  0
 33 29  2  0  0  0  0
 35 36  1  0  0  0  0
 36 37  1  1  0  0  0
 38 36  1  0  0  0  0
 39 38  1  0  0  0  0
 40 39  1  0  0  0  0
 41 42  1  0  0  0  0
 42 40  1  0  0  0  0
 43 42  1  0  0  0  0
M  END
>  <MODEL>
1

>  <REMARK>
 VINA RESULT:      -8.8      0.000      0.000
  Name = 
  14 active torsions:
  status: ('A' for Active; 'I' for Inactive)
    1  A    between atoms: C_1  and  C_9
    2  A    between atoms: C_1  and  N_35
    3  A    between atoms: C_2  and  N_6
    4  A    between atoms: C_2  and  C_13
    5  A    between atoms: C_3  and  N_4
    6  A    between atoms: C_3  and  C_7
    7  A    between atoms: N_6  and  C_12
    8  A    between atoms: C_7  and  C_12
    9  A    between atoms: C_9  and  N_32
   10  A    between atoms: C_10  and  O_14
   11  A    between atoms: C_11  and  O_14
   12  A    between atoms: C_25  and  N_32
   13  A    between atoms: C_25  and  C_37
   14  A    between atoms: C_34  and  N_35
                            x       y       z     vdW  Elec       q    Type
                         _______ _______ _______ _____ _____    ______ ____

>  <TORSDO>
F 14

$$$$
=
 OpenBabel10272414273D

 43 47  0  0  1  0  0  0  0  0999 V2000
  191.1850  176.1820  146.9130 C   0  0  1  0  0  3  0  0  0  0  0  0
  187.0480  177.7710  144.2290 C   0  0  0  0  0  0  0  0  0  0  0  0
  187.8750  178.2000  141.5810 C   0  0  0  0  0  0  0  0  0  0  0  0
  188.9090  176.9580  146.2580 C   0  0  1  0  0  3  0  0  0  0  0  0
  191.7520  176.7340  145.6050 C   0  0  0  0  0  2  0  0  0  0  0  0
  192.2470  176.2390  147.9910 C   0  0  0  0  0  1  0  0  0  0  0  0
  189.4800  177.5700  144.9740 C   0  0  1  0  0  3  0  0  0  0  0  0
  189.9650  176.9880  147.3560 C   0  0  0  0  0  2  0  0  0  0  0  0
  190.6820  176.7400  144.5150 C   0  0  0  0  0  2  0  0  0  0  0  0
  188.8230  177.9750  142.5780 C   0  0  0  0  0  3  0  0  0  0  0  0
  188.4260  177.7220  143.8990 C   0  0  0  0  0  0  0  0  0  0  0  0
  186.5780  177.5000  145.6400 C   0  0  0  0  0  2  0  0  0  0  0  0
  186.0940  177.9960  143.2190 C   0  0  0  0  0  0  0  0  0  0  0  0
  186.5180  178.2110  141.9010 C   0  0  0  0  0  3  0  0  0  0  0  0
  187.6710  177.7270  146.6780 C   0  0  0  0  0  2  0  0  0  0  0  0
  188.3140  178.5030  140.1930 C   0  0  0  0  0  2  0  0  0  0  0  0
  187.7170  177.5420  139.2780 N   0  0  0  0  0  2  0  0  0  0  0  0
  187.0480  178.2810  138.2170 C   0  0  1  0  0  3  0  0  0  0  0  0
  187.9630  179.0880  137.5370 O   0  0  0  0  0  1  0  0  0  0  0  0
  186.3630  177.3220  137.2430 C   0  0  0  0  0  2  0  0  0  0  0  0
  186.9350  175.9070  137.2950 C   0  0  0  0  0  2  0  0  0  0  0  0
  187.5030  175.5320  136.0090 N   0  0  0  0  0  0  0  0  0  0  0  0
  189.7140  174.6340  135.7690 C   0  0  2  0  0  3  0  0  0  0  0  0
  187.4080  174.1290  135.9220 N   0  0  0  0  0  2  0  0  0  0  0  0
  188.9220  175.8790  136.0590 C   0  0  1  0  0  3  0  0  0  0  0  0
  189.2310  176.9280  135.0100 C   0  0  0  0  0  1  0  0  0  0  0  0
  188.6580  173.6490  135.3620 C   0  0  0  0  0  2  0  0  0  0  0  0
  190.3440  174.2020  136.9690 O   0  0  0  0  0  0  0  0  0  0  0  0
  191.5780  174.7000  137.3920 C   0  0  0  0  0  0  0  0  0  0  0  0
  193.1860  176.1180  138.3590 C   0  0  0  0  0  0  0  0  0  0  0  0
  194.2080  174.8140  137.6940 S   0  0  0  0  0  0  0  0  0  0  0  0
  193.6650  177.1140  138.8740 O   0  0  0  0  0  0  0  0  0  0  0  0
  192.7030  174.0800  137.0640 C   0  0  0  0  0  3  0  0  0  0  0  0
  191.7200  175.9330  138.2190 C   0  0  0  0  0  2  0  0  0  0  0  0
  184.6960  178.0230  143.5510 N   0  0  0  0  0  2  0  0  0  0  0  0
  183.8870  179.2290  143.7220 C   0  0  2  0  0  3  0  0  0  0  0  0
  183.6090  179.4330  145.0740 O   0  0  0  0  0  1  0  0  0  0  0  0
  182.5890  179.1430  142.9320 C   0  0  0  0  0  2  0  0  0  0  0  0
  182.8380  178.5880  141.6130 N   0  0  0  0  0  2  0  0  0  0  0  0
  181.6790  178.9160  140.7960 C   0  0  0  0  0  2  0  0  0  0  0  0
  182.2650  176.6710  139.8350 C   0  0  0  0  0  1  0  0  0  0  0  0
  181.1640  177.6940  140.0390 C   0  0  0  0  0  3  0  0  0  0  0  0
  179.9830  177.0560  140.7480 C   0  0  0  0  0  1  0  0  0  0  0  0
  1  8  1  0  0  0  0
  1  6  1  1  0  0  0
  2 12  1  0  0  0  0
  3 14  2  0  0  0  0
  3 10  1  0  0  0  0
  4 15  1  1  0  0  0
  4  8  1  0  0  0  0
  5  1  1  0  0  0  0
  7  9  1  6  0  0  0
  7  4  1  0  0  0  0
  9  5  1  0  0  0  0
 10 11  2  0  0  0  0
 11  2  1  0  0  0  0
 11  7  1  0  0  0  0
 12 15  1  0  0  0  0
 13 35  1  0  0  0  0
 13  2  2  0  0  0  0
 14 13  1  0  0  0  0
 16  3  1  0  0  0  0
 17 16  1  0  0  0  0
 18 19  1  6  0  0  0
 18 17  1  0  0  0  0
 20 21  1  0  0  0  0
 20 18  1  0  0  0  0
 22 25  1  0  0  0  0
 22 21  1  0  0  0  0
 23 25  1  0  0  0  0
 23 28  1  1  0  0  0
 24 22  1  0  0  0  0
 25 26  1  6  0  0  0
 27 23  1  0  0  0  0
 27 24  1  0  0  0  0
 28 29  1  0  0  0  0
 29 34  1  0  0  0  0
 30 32  2  0  0  0  0
 31 30  1  0  0  0  0
 33 29  2  0  0  0  0
 33 31  1  0  0  0  0
 34 30  1  0  0  0  0
 35 36  1  0  0  0  0
 36 37  1  1  0  0  0
 38 36  1  0  0  0  0
 39 38  1  0  0  0  0
 40 39  1  0  0  0  0
 41 42  1  0  0  0  0
 42 43  1  0  0  0  0
 42 40  1  0  0  0  0
M  END
>  <MODEL>
2

>  <REMARK>
 VINA RESULT:      -8.7      1.994      2.607
  Name = 
  14 active torsions:
  status: ('A' for Active; 'I' for Inactive)
    1  A    between atoms: C_1  and  C_9
    2  A    between atoms: C_1  and  N_35
    3  A    between atoms: C_2  and  N_6
    4  A    between atoms: C_2  and  C_13
    5  A    between atoms: C_3  and  N_4
    6  A    between atoms: C_3  and  C_7
    7  A    between atoms: N_6  and  C_12
    8  A    between atoms: C_7  and  C_12
    9  A    between atoms: C_9  and  N_32
   10  A    between atoms: C_10  and  O_14
   11  A    between atoms: C_11  and  O_14
   12  A    between atoms: C_25  and  N_32
   13  A    between atoms: C_25  and  C_37
   14  A    between atoms: C_34  and  N_35
                            x       y       z     vdW  Elec       q    Type
                         _______ _______ _______ _____ _____    ______ ____

>  <TORSDO>
F 14

$$$$
=
 OpenBabel10272414273D

 43 47  0  0  1  0  0  0  0  0999 V2000
  181.6490  179.4590  142.6960 C   0  0  1  0  0  3  0  0  0  0  0  0
  186.1260  178.2880  145.0260 C   0  0  0  0  0  0  0  0  0  0  0  0
  187.9200  177.4550  143.0340 C   0  0  0  0  0  0  0  0  0  0  0  0
  183.4180  178.9970  144.3890 C   0  0  1  0  0  3  0  0  0  0  0  0
  182.4500  178.6880  141.6460 C   0  0  0  0  0  2  0  0  0  0  0  0
  180.1700  179.3440  142.3920 C   0  0  0  0  0  1  0  0  0  0  0  0
  184.1960  178.1700  143.3610 C   0  0  1  0  0  3  0  0  0  0  0  0
  181.9260  178.9120  144.0960 C   0  0  0  0  0  2  0  0  0  0  0  0
  183.9430  178.7410  141.9630 C   0  0  0  0  0  2  0  0  0  0  0  0
  186.5710  177.6270  142.7270 C   0  0  0  0  0  3  0  0  0  0  0  0
  185.6690  178.0780  143.7000 C   0  0  0  0  0  0  0  0  0  0  0  0
  185.1860  178.7780  146.1030 C   0  0  0  0  0  2  0  0  0  0  0  0
  187.4900  178.1160  145.3310 C   0  0  0  0  0  0  0  0  0  0  0  0
  188.3750  177.6970  144.3290 C   0  0  0  0  0  3  0  0  0  0  0  0
  183.7240  178.4870  145.7850 C   0  0  0  0  0  2  0  0  0  0  0  0
  188.8580  176.9410  142.0000 C   0  0  0  0  0  2  0  0  0  0  0  0
  189.1930  178.0150  141.0770 N   0  0  0  0  0  2  0  0  0  0  0  0
  188.7840  177.6080  139.7400 C   0  0  1  0  0  3  0  0  0  0  0  0
  187.7870  178.4580  139.2580 O   0  0  0  0  0  1  0  0  0  0  0  0
  189.9820  177.6070  138.7890 C   0  0  0  0  0  2  0  0  0  0  0  0
  190.5770  176.2180  138.5750 C   0  0  0  0  0  2  0  0  0  0  0  0
  190.4080  175.7890  137.1950 N   0  0  0  0  0  0  0  0  0  0  0  0
  188.2620  175.3630  136.2130 C   0  0  2  0  0  3  0  0  0  0  0  0
  190.0180  176.9290  136.4650 N   0  0  0  0  0  2  0  0  0  0  0  0
  189.2900  174.8480  137.1820 C   0  0  1  0  0  3  0  0  0  0  0  0
  189.7710  173.4840  136.7270 C   0  0  0  0  0  1  0  0  0  0  0  0
  188.9650  176.5150  135.5560 C   0  0  0  0  0  2  0  0  0  0  0  0
  187.1380  175.8350  136.9450 O   0  0  0  0  0  0  0  0  0  0  0  0
  185.9830  175.0700  137.1250 C   0  0  0  0  0  0  0  0  0  0  0  0
  184.5760  173.2040  137.3880 C   0  0  0  0  0  0  0  0  0  0  0  0
  183.4000  174.5480  137.3980 S   0  0  0  0  0  0  0  0  0  0  0  0
  184.2210  172.0380  137.4120 O   0  0  0  0  0  0  0  0  0  0  0  0
  184.7890  175.6440  137.1330 C   0  0  0  0  0  3  0  0  0  0  0  0
  186.0070  173.5910  137.3160 C   0  0  0  0  0  2  0  0  0  0  0  0
  187.9570  178.3500  146.6690 N   0  0  0  0  0  2  0  0  0  0  0  0
  188.1100  177.3310  147.7060 C   0  0  2  0  0  3  0  0  0  0  0  0
  188.2310  177.9350  148.9580 O   0  0  0  0  0  1  0  0  0  0  0  0
  189.3170  176.4440  147.4380 C   0  0  0  0  0  2  0  0  0  0  0  0
  190.4800  177.2570  147.1270 N   0  0  0  0  0  2  0  0  0  0  0  0
  191.4940  176.3520  146.6030 C   0  0  0  0  0  2  0  0  0  0  0  0
  191.5350  175.7320  144.1700 C   0  0  0  0  0  1  0  0  0  0  0  0
  191.9420  176.7650  145.2030 C   0  0  0  0  0  3  0  0  0  0  0  0
  191.3950  178.1290  144.8220 C   0  0  0  0  0  1  0  0  0  0  0  0
  1  6  1  6  0  0  0
  1  8  1  0  0  0  0
  2 13  1  0  0  0  0
  2 12  1  0  0  0  0
  3 14  1  0  0  0  0
  4  8  1  6  0  0  0
  4 15  1  0  0  0  0
  5  9  1  0  0  0  0
  5  1  1  0  0  0  0
  7  9  1  6  0  0  0
  7 11  1  0  0  0  0
  7  4  1  0  0  0  0
 10  3  2  0  0  0  0
 10 11  1  0  0  0  0
 11  2  2  0  0  0  0
 13 35  1  0  0  0  0
 14 13  2  0  0  0  0
 15 12  1  0  0  0  0
 16  3  1  0  0  0  0
 17 16  1  0  0  0  0
 18 19  1  6  0  0  0
 18 17  1  0  0  0  0
 20 18  1  0  0  0  0
 21 20  1  0  0  0  0
 22 21  1  0  0  0  0
 23 28  1  1  0  0  0
 23 25  1  0  0  0  0
 24 22  1  0  0  0  0
 25 26  1  6  0  0  0
 25 22  1  0  0  0  0
 27 23  1  0  0  0  0
 27 24  1  0  0  0  0
 28 29  1  0  0  0  0
 29 33  2  0  0  0  0
 29 34  1  0  0  0  0
 30 31  1  0  0  0  0
 30 32  2  0  0  0  0
 33 31  1  0  0  0  0
 34 30  1  0  0  0  0
 35 36  1  0  0  0  0
 36 37  1  1  0  0  0
 38 36  1  0  0  0  0
 39 38  1  0  0  0  0
 40 39  1  0  0  0  0
 41 42  1  0  0  0  0
 42 40  1  0  0  0  0
 43 42  1  0  0  0  0
M  END
>  <MODEL>
3

>  <REMARK>
 VINA RESULT:      -8.6      4.100      7.637
  Name = 
  14 active torsions:
  status: ('A' for Active; 'I' for Inactive)
    1  A    between atoms: C_1  and  C_9
    2  A    between atoms: C_1  and  N_35
    3  A    between atoms: C_2  and  N_6
    4  A    between atoms: C_2  and  C_13
    5  A    between atoms: C_3  and  N_4
    6  A    between atoms: C_3  and  C_7
    7  A    between atoms: N_6  and  C_12
    8  A    between atoms: C_7  and  C_12
    9  A    between atoms: C_9  and  N_32
   10  A    between atoms: C_10  and  O_14
   11  A    between atoms: C_11  and  O_14
   12  A    between atoms: C_25  and  N_32
   13  A    between atoms: C_25  and  C_37
   14  A    between atoms: C_34  and  N_35
                            x       y       z     vdW  Elec       q    Type
                         _______ _______ _______ _____ _____    ______ ____

>  <TORSDO>
F 14

$$$$
=
 OpenBabel10272414273D

 43 47  0  0  1  0  0  0  0  0999 V2000
  188.3350  177.2160  146.7190 C   0  0  1  0  0  3  0  0  0  0  0  0
  184.3230  178.6370  143.7640 C   0  0  0  0  0  0  0  0  0  0  0  0
  185.1750  178.5570  141.0900 C   0  0  0  0  0  0  0  0  0  0  0  0
  186.1220  178.0380  145.9190 C   0  0  1  0  0  3  0  0  0  0  0  0
  188.9390  177.4990  145.3430 C   0  0  0  0  0  2  0  0  0  0  0  0
  189.3990  177.3730  147.7830 C   0  0  0  0  0  1  0  0  0  0  0  0
  186.7340  178.3840  144.5580 C   0  0  1  0  0  3  0  0  0  0  0  0
  187.1790  178.1730  147.0080 C   0  0  0  0  0  2  0  0  0  0  0  0
  187.8700  177.4020  144.2560 C   0  0  0  0  0  2  0  0  0  0  0  0
  186.1060  178.4310  142.1210 C   0  0  0  0  0  3  0  0  0  0  0  0
  185.6930  178.4320  143.4600 C   0  0  0  0  0  0  0  0  0  0  0  0
  183.8360  178.6400  145.1950 C   0  0  0  0  0  2  0  0  0  0  0  0
  183.3860  178.7600  142.7200 C   0  0  0  0  0  0  0  0  0  0  0  0
  183.8240  178.7210  141.3890 C   0  0  0  0  0  3  0  0  0  0  0  0
  184.9460  178.9560  146.1920 C   0  0  0  0  0  2  0  0  0  0  0  0
  185.6340  178.5900  139.6760 C   0  0  0  0  0  2  0  0  0  0  0  0
  187.0880  178.5760  139.6390 N   0  0  0  0  0  2  0  0  0  0  0  0
  187.5040  178.1450  138.3120 C   0  0  1  0  0  3  0  0  0  0  0  0
  188.1560  179.1860  137.6470 O   0  0  0  0  0  1  0  0  0  0  0  0
  188.4200  176.9240  138.4070 C   0  0  0  0  0  2  0  0  0  0  0  0
  189.7740  177.1370  137.7350 C   0  0  0  0  0  2  0  0  0  0  0  0
  189.9570  176.2040  136.6340 N   0  0  0  0  0  0  0  0  0  0  0  0
  188.1270  175.2270  135.4300 C   0  0  2  0  0  3  0  0  0  0  0  0
  189.7610  176.9380  135.4480 N   0  0  0  0  0  2  0  0  0  0  0  0
  188.8800  175.2210  136.7320 C   0  0  1  0  0  3  0  0  0  0  0  0
  189.4620  173.8420  136.9710 C   0  0  0  0  0  1  0  0  0  0  0  0
  188.9710  176.1080  134.5570 C   0  0  0  0  0  2  0  0  0  0  0  0
  186.8550  175.8260  135.6390 O   0  0  0  0  0  0  0  0  0  0  0  0
  185.7970  175.1500  136.2520 C   0  0  0  0  0  0  0  0  0  0  0  0
  183.9320  174.7220  137.6190 C   0  0  0  0  0  0  0  0  0  0  0  0
  184.2160  173.1200  136.8840 S   0  0  0  0  0  0  0  0  0  0  0  0
  183.0840  174.8950  138.4780 O   0  0  0  0  0  0  0  0  0  0  0  0
  185.6250  173.8500  136.0580 C   0  0  0  0  0  3  0  0  0  0  0  0
  184.8100  175.8210  137.1460 C   0  0  0  0  0  2  0  0  0  0  0  0
  181.9950  178.9460  143.0270 N   0  0  0  0  0  2  0  0  0  0  0  0
  180.9830  179.4610  142.1060 C   0  0  2  0  0  3  0  0  0  0  0  0
  180.1310  180.3420  142.7730 O   0  0  0  0  0  1  0  0  0  0  0  0
  180.1770  178.3320  141.4800 C   0  0  0  0  0  2  0  0  0  0  0  0
  180.4980  178.2070  140.0690 N   0  0  0  0  0  2  0  0  0  0  0  0
  180.2870  179.5200  139.4760 C   0  0  0  0  0  2  0  0  0  0  0  0
  182.0080  181.0490  138.4700 C   0  0  0  0  0  1  0  0  0  0  0  0
  181.2300  179.7580  138.2980 C   0  0  0  0  0  3  0  0  0  0  0  0
  182.1840  178.5940  138.1030 C   0  0  0  0  0  1  0  0  0  0  0  0
  1  8  1  0  0  0  0
  1  6  1  1  0  0  0
  2 12  1  0  0  0  0
  3 14  2  0  0  0  0
  3 10  1  0  0  0  0
  4 15  1  1  0  0  0
  4  8  1  0  0  0  0
  5  1  1  0  0  0  0
  7  9  1  6  0  0  0
  7  4  1  0  0  0  0
  9  5  1  0  0  0  0
 10 11  2  0  0  0  0
 11  2  1  0  0  0  0
 11  7  1  0  0  0  0
 12 15  1  0  0  0  0
 13 35  1  0  0  0  0
 13  2  2  0  0  0  0
 14 13  1  0  0  0  0
 16  3  1  0  0  0  0
 17 16  1  0  0  0  0
 18 19  1  1  0  0  0
 18 20  1  0  0  0  0
 18 17  1  0  0  0  0
 21 20  1  0  0  0  0
 22 25  1  0  0  0  0
 22 21  1  0  0  0  0
 23 28  1  1  0  0  0
 23 25  1  0  0  0  0
 24 22  1  0  0  0  0
 25 26  1  6  0  0  0
 27 23  1  0  0  0  0
 27 24  1  0  0  0  0
 28 29  1  0  0  0  0
 29 34  1  0  0  0  0
 30 32  2  0  0  0  0
 31 30  1  0  0  0  0
 33 29  2  0  0  0  0
 33 31  1  0  0  0  0
 34 30  1  0  0  0  0
 36 37  1  1  0  0  0
 36 35  1  0  0  0  0
 38 36  1  0  0  0  0
 39 38  1  0  0  0  0
 40 39  1  0  0  0  0
 42 41  1  0  0  0  0
 42 40  1  0  0  0  0
 43 42  1  0  0  0  0
M  END
>  <MODEL>
4

>  <REMARK>
 VINA RESULT:      -8.6      4.137      5.647
  Name = 
  14 active torsions:
  status: ('A' for Active; 'I' for Inactive)
    1  A    between atoms: C_1  and  C_9
    2  A    between atoms: C_1  and  N_35
    3  A    between atoms: C_2  and  N_6
    4  A    between atoms: C_2  and  C_13
    5  A    between atoms: C_3  and  N_4
    6  A    between atoms: C_3  and  C_7
    7  A    between atoms: N_6  and  C_12
    8  A    between atoms: C_7  and  C_12
    9  A    between atoms: C_9  and  N_32
   10  A    between atoms: C_10  and  O_14
   11  A    between atoms: C_11  and  O_14
   12  A    between atoms: C_25  and  N_32
   13  A    between atoms: C_25  and  C_37
   14  A    between atoms: C_34  and  N_35
                            x       y       z     vdW  Elec       q    Type
                         _______ _______ _______ _____ _____    ______ ____

>  <TORSDO>
F 14

$$$$
=
 OpenBabel10272414273D

 43 47  0  0  1  0  0  0  0  0999 V2000
  191.3070  176.0900  147.0030 C   0  0  1  0  0  3  0  0  0  0  0  0
  187.1150  177.7790  144.4710 C   0  0  0  0  0  0  0  0  0  0  0  0
  187.8570  178.1970  141.7960 C   0  0  0  0  0  0  0  0  0  0  0  0
  189.0280  176.9190  146.4300 C   0  0  1  0  0  3  0  0  0  0  0  0
  191.8400  176.6330  145.6770 C   0  0  0  0  0  2  0  0  0  0  0  0
  192.4080  176.1200  148.0420 C   0  0  0  0  0  1  0  0  0  0  0  0
  189.5660  177.5210  145.1280 C   0  0  1  0  0  3  0  0  0  0  0  0
  190.1220  176.9220  147.4900 C   0  0  0  0  0  2  0  0  0  0  0  0
  190.7320  176.6660  144.6250 C   0  0  0  0  0  2  0  0  0  0  0  0
  188.8340  177.9480  142.7580 C   0  0  0  0  0  3  0  0  0  0  0  0
  188.4790  177.7010  144.0910 C   0  0  0  0  0  0  0  0  0  0  0  0
  186.6890  177.5150  145.8970 C   0  0  0  0  0  2  0  0  0  0  0  0
  186.1300  178.0290  143.4960 C   0  0  0  0  0  0  0  0  0  0  0  0
  186.5130  178.2380  142.1640 C   0  0  0  0  0  3  0  0  0  0  0  0
  187.8230  177.7150  146.8960 C   0  0  0  0  0  2  0  0  0  0  0  0
  188.2530  178.4940  140.3940 C   0  0  0  0  0  2  0  0  0  0  0  0
  188.5710  177.2500  139.7090 N   0  0  0  0  0  2  0  0  0  0  0  0
  189.9650  177.3050  139.2920 C   0  0  1  0  0  3  0  0  0  0  0  0
  190.6490  176.1730  139.7400 O   0  0  0  0  0  1  0  0  0  0  0  0
  190.0660  177.4160  137.7700 C   0  0  0  0  0  2  0  0  0  0  0  0
  188.7140  177.6260  137.0940 C   0  0  0  0  0  2  0  0  0  0  0  0
  188.6110  176.8260  135.8830 N   0  0  0  0  0  0  0  0  0  0  0  0
  186.8430  175.2490  135.5050 C   0  0  2  0  0  3  0  0  0  0  0  0
  187.6310  177.4390  135.0780 N   0  0  0  0  0  2  0  0  0  0  0  0
  188.1000  175.5170  136.2870 C   0  0  1  0  0  3  0  0  0  0  0  0
  189.1260  174.4460  135.9740 C   0  0  0  0  0  1  0  0  0  0  0  0
  186.8130  176.3790  134.5180 C   0  0  0  0  0  2  0  0  0  0  0  0
  185.7290  175.3410  136.3830 O   0  0  0  0  0  0  0  0  0  0  0  0
  184.6990  174.3980  136.3930 C   0  0  0  0  0  0  0  0  0  0  0  0
  183.4810  172.4470  136.8860 C   0  0  0  0  0  0  0  0  0  0  0  0
  182.3870  173.2780  135.7450 S   0  0  0  0  0  0  0  0  0  0  0  0
  183.2400  171.3300  137.3110 O   0  0  0  0  0  0  0  0  0  0  0  0
  183.6390  174.5490  135.6120 C   0  0  0  0  0  3  0  0  0  0  0  0
  184.7150  173.1830  137.2590 C   0  0  0  0  0  2  0  0  0  0  0  0
  184.7460  178.0870  143.8770 N   0  0  0  0  0  2  0  0  0  0  0  0
  184.0210  179.2960  144.2610 C   0  0  2  0  0  3  0  0  0  0  0  0
  183.6260  179.2150  145.5970 O   0  0  0  0  0  1  0  0  0  0  0  0
  182.8060  179.5210  143.3730 C   0  0  0  0  0  2  0  0  0  0  0  0
  182.6260  178.3950  142.4730 N   0  0  0  0  0  2  0  0  0  0  0  0
  181.8910  178.8950  141.3200 C   0  0  0  0  0  2  0  0  0  0  0  0
  183.8320  179.3260  139.7840 C   0  0  0  0  0  1  0  0  0  0  0  0
  182.5750  178.5080  140.0100 C   0  0  0  0  0  3  0  0  0  0  0  0
  182.9010  177.0260  139.9690 C   0  0  0  0  0  1  0  0  0  0  0  0
  1  8  1  0  0  0  0
  1  6  1  1  0  0  0
  2 12  1  0  0  0  0
  3 14  2  0  0  0  0
  3 10  1  0  0  0  0
  4 15  1  1  0  0  0
  4  8  1  0  0  0  0
  5  1  1  0  0  0  0
  7  9  1  6  0  0  0
  7  4  1  0  0  0  0
  9  5  1  0  0  0  0
 10 11  2  0  0  0  0
 11  2  1  0  0  0  0
 11  7  1  0  0  0  0
 12 15  1  0  0  0  0
 13 35  1  0  0  0  0
 13  2  2  0  0  0  0
 14 13  1  0  0  0  0
 16  3  1  0  0  0  0
 17 16  1  0  0  0  0
 18 17  1  0  0  0  0
 18 19  1  6  0  0  0
 20 18  1  0  0  0  0
 21 20  1  0  0  0  0
 22 25  1  0  0  0  0
 22 21  1  0  0  0  0
 23 25  1  0  0  0  0
 23 28  1  1  0  0  0
 24 22  1  0  0  0  0
 25 26  1  6  0  0  0
 27 24  1  0  0  0  0
 27 23  1  0  0  0  0
 28 29  1  0  0  0  0
 29 34  1  0  0  0  0
 30 34  1  0  0  0  0
 30 32  2  0  0  0  0
 31 30  1  0  0  0  0
 33 31  1  0  0  0  0
 33 29  2  0  0  0  0
 35 36  1  0  0  0  0
 36 37  1  1  0  0  0
 38 36  1  0  0  0  0
 39 38  1  0  0  0  0
 40 39  1  0  0  0  0
 41 42  1  0  0  0  0
 42 40  1  0  0  0  0
 43 42  1  0  0  0  0
M  END
>  <MODEL>
5

>  <REMARK>
 VINA RESULT:      -8.6      3.794      5.662
  Name = 
  14 active torsions:
  status: ('A' for Active; 'I' for Inactive)
    1  A    between atoms: C_1  and  C_9
    2  A    between atoms: C_1  and  N_35
    3  A    between atoms: C_2  and  N_6
    4  A    between atoms: C_2  and  C_13
    5  A    between atoms: C_3  and  N_4
    6  A    between atoms: C_3  and  C_7
    7  A    between atoms: N_6  and  C_12
    8  A    between atoms: C_7  and  C_12
    9  A    between atoms: C_9  and  N_32
   10  A    between atoms: C_10  and  O_14
   11  A    between atoms: C_11  and  O_14
   12  A    between atoms: C_25  and  N_32
   13  A    between atoms: C_25  and  C_37
   14  A    between atoms: C_34  and  N_35
                            x       y       z     vdW  Elec       q    Type
                         _______ _______ _______ _____ _____    ______ ____

>  <TORSDO>
F 14

$$$$
=
 OpenBabel10272414273D

 43 47  0  0  1  0  0  0  0  0999 V2000
  183.5750  179.1670  143.7630 C   0  0  1  0  0  3  0  0  0  0  0  0
  188.5320  177.8130  143.0980 C   0  0  0  0  0  0  0  0  0  0  0  0
  189.1130  178.0580  140.3620 C   0  0  0  0  0  0  0  0  0  0  0  0
  185.8990  178.3370  144.1140 C   0  0  1  0  0  3  0  0  0  0  0  0
  183.7320  178.9720  142.2540 C   0  0  0  0  0  2  0  0  0  0  0  0
  182.1240  178.9770  144.1510 C   0  0  0  0  0  1  0  0  0  0  0  0
  186.0420  178.0800  142.6100 C   0  0  1  0  0  3  0  0  0  0  0  0
  184.4430  178.1690  144.5290 C   0  0  0  0  0  2  0  0  0  0  0  0
  185.1980  179.1030  141.8450 C   0  0  0  0  0  2  0  0  0  0  0  0
  187.7940  178.1500  140.8040 C   0  0  0  0  0  3  0  0  0  0  0  0
  187.4900  178.0660  142.1700 C   0  0  0  0  0  0  0  0  0  0  0  0
  188.2480  177.7210  144.5800 C   0  0  0  0  0  2  0  0  0  0  0  0
  189.8630  177.7250  142.6480 C   0  0  0  0  0  0  0  0  0  0  0  0
  190.1410  177.8460  141.2800 C   0  0  0  0  0  3  0  0  0  0  0  0
  186.7920  177.3780  144.8780 C   0  0  0  0  0  2  0  0  0  0  0  0
  189.4150  178.1120  138.9070 C   0  0  0  0  0  2  0  0  0  0  0  0
  188.3900  178.8920  138.2310 N   0  0  0  0  0  2  0  0  0  0  0  0
  188.4520  178.5870  136.8080 C   0  0  1  0  0  3  0  0  0  0  0  0
  189.5440  177.7580  136.5380 O   0  0  0  0  0  1  0  0  0  0  0  0
  187.1560  177.9200  136.3450 C   0  0  0  0  0  2  0  0  0  0  0  0
  187.2900  176.4100  136.1670 C   0  0  0  0  0  2  0  0  0  0  0  0
  186.0030  175.8100  135.8500 N   0  0  0  0  0  0  0  0  0  0  0  0
  184.0620  176.0720  137.2330 C   0  0  2  0  0  3  0  0  0  0  0  0
  185.2040  176.8360  135.3070 N   0  0  0  0  0  2  0  0  0  0  0  0
  185.4040  175.4040  137.1190 C   0  0  1  0  0  3  0  0  0  0  0  0
  185.2210  173.8990  137.1430 C   0  0  0  0  0  1  0  0  0  0  0  0
  183.8780  176.6930  135.8800 C   0  0  0  0  0  2  0  0  0  0  0  0
  184.1380  177.0870  138.2270 O   0  0  0  0  0  0  0  0  0  0  0  0
  183.0040  177.6900  138.7740 C   0  0  0  0  0  0  0  0  0  0  0  0
  181.4490  179.3430  139.3920 C   0  0  0  0  0  0  0  0  0  0  0  0
  180.7320  177.8810  140.1240 S   0  0  0  0  0  0  0  0  0  0  0  0
  180.9730  180.4520  139.5690 O   0  0  0  0  0  0  0  0  0  0  0  0
  182.1530  176.9860  139.5060 C   0  0  0  0  0  3  0  0  0  0  0  0
  182.6760  179.1330  138.5830 C   0  0  0  0  0  2  0  0  0  0  0  0
  190.9220  177.4900  143.5910 N   0  0  0  0  0  2  0  0  0  0  0  0
  191.5600  176.2000  143.8480 C   0  0  2  0  0  3  0  0  0  0  0  0
  190.8090  175.1710  143.2800 O   0  0  0  0  0  1  0  0  0  0  0  0
  191.7350  175.9540  145.3390 C   0  0  0  0  0  2  0  0  0  0  0  0
  191.5530  177.1920  146.0780 N   0  0  0  0  0  2  0  0  0  0  0  0
  190.9950  176.8270  147.3730 C   0  0  0  0  0  2  0  0  0  0  0  0
  188.5870  176.3280  147.8840 C   0  0  0  0  0  1  0  0  0  0  0  0
  189.5980  177.4130  147.5640 C   0  0  0  0  0  3  0  0  0  0  0  0
  189.5830  178.4780  148.6460 C   0  0  0  0  0  1  0  0  0  0  0  0
  1  6  1  1  0  0  0
  1  8  1  0  0  0  0
  2 12  1  0  0  0  0
  3 10  2  0  0  0  0
  3 14  1  0  0  0  0
  4  8  1  1  0  0  0
  4 15  1  0  0  0  0
  5  1  1  0  0  0  0
  7  9  1  6  0  0  0
  7  4  1  0  0  0  0
  9  5  1  0  0  0  0
 10 11  1  0  0  0  0
 11  7  1  0  0  0  0
 11  2  2  0  0  0  0
 12 15  1  0  0  0  0
 13  2  1  0  0  0  0
 13 35  1  0  0  0  0
 14 13  2  0  0  0  0
 16  3  1  0  0  0  0
 17 16  1  0  0  0  0
 18 19  1  1  0  0  0
 18 17  1  0  0  0  0
 20 18  1  0  0  0  0
 21 20  1  0  0  0  0
 22 21  1  0  0  0  0
 22 25  1  0  0  0  0
 23 28  1  1  0  0  0
 24 22  1  0  0  0  0
 24 27  1  0  0  0  0
 25 26  1  6  0  0  0
 25 23  1  0  0  0  0
 27 23  1  0  0  0  0
 28 29  1  0  0  0  0
 29 33  2  0  0  0  0
 30 32  2  0  0  0  0
 30 31  1  0  0  0  0
 33 31  1  0  0  0  0
 34 29  1  0  0  0  0
 34 30  1  0  0  0  0
 35 36  1  0  0  0  0
 36 37  1  1  0  0  0
 36 38  1  0  0  0  0
 38 39  1  0  0  0  0
 39 40  1  0  0  0  0
 40 42  1  0  0  0  0
 42 41  1  0  0  0  0
 42 43  1  0  0  0  0
M  END
>  <MODEL>
6

>  <REMARK>
 VINA RESULT:      -8.5      4.762      8.872
  Name = 
  14 active torsions:
  status: ('A' for Active; 'I' for Inactive)
    1  A    between atoms: C_1  and  C_9
    2  A    between atoms: C_1  and  N_35
    3  A    between atoms: C_2  and  N_6
    4  A    between atoms: C_2  and  C_13
    5  A    between atoms: C_3  and  N_4
    6  A    between atoms: C_3  and  C_7
    7  A    between atoms: N_6  and  C_12
    8  A    between atoms: C_7  and  C_12
    9  A    between atoms: C_9  and  N_32
   10  A    between atoms: C_10  and  O_14
   11  A    between atoms: C_11  and  O_14
   12  A    between atoms: C_25  and  N_32
   13  A    between atoms: C_25  and  C_37
   14  A    between atoms: C_34  and  N_35
                            x       y       z     vdW  Elec       q    Type
                         _______ _______ _______ _____ _____    ______ ____

>  <TORSDO>
F 14

$$$$
=
 OpenBabel10272414273D

 43 47  0  0  1  0  0  0  0  0999 V2000
  188.5900  177.1450  146.5460 C   0  0  1  0  0  3  0  0  0  0  0  0
  184.4250  178.5550  143.8060 C   0  0  0  0  0  0  0  0  0  0  0  0
  185.1840  178.6470  141.1050 C   0  0  0  0  0  0  0  0  0  0  0  0
  186.3210  177.9180  145.8660 C   0  0  1  0  0  3  0  0  0  0  0  0
  189.1340  177.5220  145.1680 C   0  0  0  0  0  2  0  0  0  0  0  0
  189.6850  177.2890  147.5810 C   0  0  0  0  0  1  0  0  0  0  0  0
  186.8710  178.3580  144.5050 C   0  0  1  0  0  3  0  0  0  0  0  0
  187.4090  178.0390  146.9240 C   0  0  0  0  0  2  0  0  0  0  0  0
  188.0320  177.4390  144.1130 C   0  0  0  0  0  2  0  0  0  0  0  0
  186.1540  178.5050  142.0960 C   0  0  0  0  0  3  0  0  0  0  0  0
  185.7900  178.4210  143.4470 C   0  0  0  0  0  0  0  0  0  0  0  0
  183.9890  178.4650  145.2510 C   0  0  0  0  0  2  0  0  0  0  0  0
  183.4470  178.6950  142.8020 C   0  0  0  0  0  0  0  0  0  0  0  0
  183.8390  178.7420  141.4580 C   0  0  0  0  0  3  0  0  0  0  0  0
  185.1210  178.7730  146.2260 C   0  0  0  0  0  2  0  0  0  0  0  0
  185.5900  178.7710  139.6800 C   0  0  0  0  0  2  0  0  0  0  0  0
  187.0420  178.7410  139.5880 N   0  0  0  0  0  2  0  0  0  0  0  0
  187.4060  177.9370  138.4300 C   0  0  1  0  0  3  0  0  0  0  0  0
  187.7500  178.7610  137.3560 O   0  0  0  0  0  1  0  0  0  0  0  0
  188.5650  177.0000  138.7700 C   0  0  0  0  0  2  0  0  0  0  0  0
  189.7520  177.1470  137.8210 C   0  0  0  0  0  2  0  0  0  0  0  0
  189.8440  176.0050  136.9260 N   0  0  0  0  0  0  0  0  0  0  0  0
  191.9320  175.1140  136.1530 C   0  0  2  0  0  3  0  0  0  0  0  0
  190.1770  174.8930  137.7240 N   0  0  0  0  0  2  0  0  0  0  0  0
  190.9700  176.2620  136.0300 C   0  0  1  0  0  3  0  0  0  0  0  0
  190.4780  176.3550  134.5990 C   0  0  0  0  0  1  0  0  0  0  0  0
  191.1790  174.1310  137.0000 C   0  0  0  0  0  2  0  0  0  0  0  0
  193.0930  175.5600  136.8440 O   0  0  0  0  0  0  0  0  0  0  0  0
  194.3250  175.7320  136.2100 C   0  0  0  0  0  0  0  0  0  0  0  0
  196.6260  175.5730  135.7510 C   0  0  0  0  0  0  0  0  0  0  0  0
  196.0710  176.6490  134.4390 S   0  0  0  0  0  0  0  0  0  0  0  0
  197.8070  175.3140  135.9160 O   0  0  0  0  0  0  0  0  0  0  0  0
  194.4400  176.5430  135.1670 C   0  0  0  0  0  3  0  0  0  0  0  0
  195.5710  175.0390  136.6480 C   0  0  0  0  0  2  0  0  0  0  0  0
  182.0620  178.8090  143.1660 N   0  0  0  0  0  2  0  0  0  0  0  0
  181.0060  179.3680  142.3240 C   0  0  2  0  0  3  0  0  0  0  0  0
  180.3760  180.4240  142.9820 O   0  0  0  0  0  1  0  0  0  0  0  0
  179.9820  178.3090  141.9410 C   0  0  0  0  0  2  0  0  0  0  0  0
  180.0490  178.0360  140.5160 N   0  0  0  0  0  2  0  0  0  0  0  0
  180.2600  176.6020  140.3750 C   0  0  0  0  0  2  0  0  0  0  0  0
  181.0360  177.3560  138.1090 C   0  0  0  0  0  1  0  0  0  0  0  0
  181.1480  176.2830  139.1750 C   0  0  0  0  0  3  0  0  0  0  0  0
  182.5990  176.1040  139.5860 C   0  0  0  0  0  1  0  0  0  0  0  0
  1  8  1  0  0  0  0
  1  6  1  1  0  0  0
  2 12  1  0  0  0  0
  3 14  2  0  0  0  0
  3 10  1  0  0  0  0
  4 15  1  1  0  0  0
  4  8  1  0  0  0  0
  5  1  1  0  0  0  0
  7  9  1  6  0  0  0
  7  4  1  0  0  0  0
  9  5  1  0  0  0  0
 10 11  2  0  0  0  0
 11  2  1  0  0  0  0
 11  7  1  0  0  0  0
 12 15  1  0  0  0  0
 13 35  1  0  0  0  0
 13  2  2  0  0  0  0
 14 13  1  0  0  0  0
 16  3  1  0  0  0  0
 17 16  1  0  0  0  0
 18 19  1  6  0  0  0
 18 20  1  0  0  0  0
 18 17  1  0  0  0  0
 21 20  1  0  0  0  0
 22 24  1  0  0  0  0
 22 21  1  0  0  0  0
 23 28  1  1  0  0  0
 23 27  1  0  0  0  0
 25 26  1  6  0  0  0
 25 23  1  0  0  0  0
 25 22  1  0  0  0  0
 27 24  1  0  0  0  0
 29 34  1  0  0  0  0
 29 28  1  0  0  0  0
 30 32  2  0  0  0  0
 30 34  1  0  0  0  0
 31 33  1  0  0  0  0
 31 30  1  0  0  0  0
 33 29  2  0  0  0  0
 36 37  1  1  0  0  0
 36 35  1  0  0  0  0
 38 36  1  0  0  0  0
 39 38  1  0  0  0  0
 40 39  1  0  0  0  0
 41 42  1  0  0  0  0
 42 43  1  0  0  0  0
 42 40  1  0  0  0  0
M  END
>  <MODEL>
7

>  <REMARK>
 VINA RESULT:      -8.3      1.934      2.739
  Name = 
  14 active torsions:
  status: ('A' for Active; 'I' for Inactive)
    1  A    between atoms: C_1  and  C_9
    2  A    between atoms: C_1  and  N_35
    3  A    between atoms: C_2  and  N_6
    4  A    between atoms: C_2  and  C_13
    5  A    between atoms: C_3  and  N_4
    6  A    between atoms: C_3  and  C_7
    7  A    between atoms: N_6  and  C_12
    8  A    between atoms: C_7  and  C_12
    9  A    between atoms: C_9  and  N_32
   10  A    between atoms: C_10  and  O_14
   11  A    between atoms: C_11  and  O_14
   12  A    between atoms: C_25  and  N_32
   13  A    between atoms: C_25  and  C_37
   14  A    between atoms: C_34  and  N_35
                            x       y       z     vdW  Elec       q    Type
                         _______ _______ _______ _____ _____    ______ ____

>  <TORSDO>
F 14

$$$$
=
 OpenBabel10272414273D

 43 47  0  0  1  0  0  0  0  0999 V2000
  187.8930  178.0600  147.4050 C   0  0  1  0  0  3  0  0  0  0  0  0
  188.3790  177.7820  142.2550 C   0  0  0  0  0  0  0  0  0  0  0  0
  185.9370  178.5930  141.1330 C   0  0  0  0  0  0  0  0  0  0  0  0
  188.7330  177.6280  145.0990 C   0  0  1  0  0  3  0  0  0  0  0  0
  186.4650  178.1580  146.8690 C   0  0  0  0  0  2  0  0  0  0  0  0
  187.8660  177.5410  148.8280 C   0  0  0  0  0  1  0  0  0  0  0  0
  187.2980  177.6620  144.5630 C   0  0  1  0  0  3  0  0  0  0  0  0
  188.7330  177.1240  146.5370 C   0  0  0  0  0  2  0  0  0  0  0  0
  186.4680  178.6260  145.4150 C   0  0  0  0  0  2  0  0  0  0  0  0
  186.0300  178.3620  142.5040 C   0  0  0  0  0  3  0  0  0  0  0  0
  187.2500  177.9920  143.0860 C   0  0  0  0  0  0  0  0  0  0  0  0
  189.7150  177.3870  142.8430 C   0  0  0  0  0  2  0  0  0  0  0  0
  188.2820  178.0190  140.8700 C   0  0  0  0  0  0  0  0  0  0  0  0
  187.0580  178.4210  140.3210 C   0  0  0  0  0  3  0  0  0  0  0  0
  189.5830  176.7340  144.2150 C   0  0  0  0  0  2  0  0  0  0  0  0
  184.6270  178.9490  140.5260 C   0  0  0  0  0  2  0  0  0  0  0  0
  183.5540  178.5290  141.4140 N   0  0  0  0  0  2  0  0  0  0  0  0
  182.4480  178.0520  140.5960 C   0  0  1  0  0  3  0  0  0  0  0  0
  182.0240  179.0550  139.7220 O   0  0  0  0  0  1  0  0  0  0  0  0
  182.8610  176.8070  139.8090 C   0  0  0  0  0  2  0  0  0  0  0  0
  181.7310  175.7910  139.6610 C   0  0  0  0  0  2  0  0  0  0  0  0
  181.1070  175.8990  138.3510 N   0  0  0  0  0  0  0  0  0  0  0  0
  181.7040  174.4960  136.4990 C   0  0  2  0  0  3  0  0  0  0  0  0
  180.1690  174.8520  138.2640 N   0  0  0  0  0  2  0  0  0  0  0  0
  182.1540  175.6410  137.3650 C   0  0  1  0  0  3  0  0  0  0  0  0
  182.3630  176.8710  136.5030 C   0  0  0  0  0  1  0  0  0  0  0  0
  180.2840  174.2830  136.9330 C   0  0  0  0  0  2  0  0  0  0  0  0
  182.4850  173.3500  136.8140 O   0  0  0  0  0  0  0  0  0  0  0  0
  183.8710  173.3160  136.6470 C   0  0  0  0  0  0  0  0  0  0  0  0
  185.9820  173.3040  135.6090 C   0  0  0  0  0  0  0  0  0  0  0  0
  186.4240  173.1240  137.3300 S   0  0  0  0  0  0  0  0  0  0  0  0
  186.8160  173.2510  134.7210 O   0  0  0  0  0  0  0  0  0  0  0  0
  184.6710  173.1210  137.6860 C   0  0  0  0  0  3  0  0  0  0  0  0
  184.5370  173.4890  135.3230 C   0  0  0  0  0  2  0  0  0  0  0  0
  189.4330  177.8270  140.0310 N   0  0  0  0  0  2  0  0  0  0  0  0
  189.5140  176.9060  138.8990 C   0  0  2  0  0  3  0  0  0  0  0  0
  190.5600  176.0030  139.0900 O   0  0  0  0  0  1  0  0  0  0  0  0
  189.7060  177.6530  137.5870 C   0  0  0  0  0  2  0  0  0  0  0  0
  189.2170  176.8530  136.4770 N   0  0  0  0  0  2  0  0  0  0  0  0
  188.1480  177.6180  135.8510 C   0  0  0  0  0  2  0  0  0  0  0  0
  185.9420  177.4970  137.0450 C   0  0  0  0  0  1  0  0  0  0  0  0
  186.8080  176.8940  135.9550 C   0  0  0  0  0  3  0  0  0  0  0  0
  186.0640  176.9030  134.6320 C   0  0  0  0  0  1  0  0  0  0  0  0
  1  6  1  1  0  0  0
  2 12  1  0  0  0  0
  2 11  1  0  0  0  0
  3 10  1  0  0  0  0
  4 15  1  6  0  0  0
  4  8  1  0  0  0  0
  5  1  1  0  0  0  0
  7  4  1  0  0  0  0
  7  9  1  1  0  0  0
  8  1  1  0  0  0  0
  9  5  1  0  0  0  0
 10 11  2  0  0  0  0
 11  7  1  0  0  0  0
 12 15  1  0  0  0  0
 13  2  2  0  0  0  0
 14 13  1  0  0  0  0
 14  3  2  0  0  0  0
 16  3  1  0  0  0  0
 16 17  1  0  0  0  0
 18 19  1  6  0  0  0
 18 17  1  0  0  0  0
 20 18  1  0  0  0  0
 21 20  1  0  0  0  0
 22 21  1  0  0  0  0
 23 28  1  1  0  0  0
 23 27  1  0  0  0  0
 23 25  1  0  0  0  0
 24 22  1  0  0  0  0
 25 26  1  6  0  0  0
 25 22  1  0  0  0  0
 27 24  1  0  0  0  0
 29 28  1  0  0  0  0
 29 33  2  0  0  0  0
 30 31  1  0  0  0  0
 31 33  1  0  0  0  0
 32 30  2  0  0  0  0
 34 30  1  0  0  0  0
 34 29  1  0  0  0  0
 35 13  1  0  0  0  0
 36 37  1  1  0  0  0
 36 35  1  0  0  0  0
 38 36  1  0  0  0  0
 39 38  1  0  0  0  0
 40 42  1  0  0  0  0
 40 39  1  0  0  0  0
 42 41  1  0  0  0  0
 43 42  1  0  0  0  0
M  END
>  <MODEL>
8

>  <REMARK>
 VINA RESULT:      -8.1      3.893      7.966
  Name = 
  14 active torsions:
  status: ('A' for Active; 'I' for Inactive)
    1  A    between atoms: C_1  and  C_9
    2  A    between atoms: C_1  and  N_35
    3  A    between atoms: C_2  and  N_6
    4  A    between atoms: C_2  and  C_13
    5  A    between atoms: C_3  and  N_4
    6  A    between atoms: C_3  and  C_7
    7  A    between atoms: N_6  and  C_12
    8  A    between atoms: C_7  and  C_12
    9  A    between atoms: C_9  and  N_32
   10  A    between atoms: C_10  and  O_14
   11  A    between atoms: C_11  and  O_14
   12  A    between atoms: C_25  and  N_32
   13  A    between atoms: C_25  and  C_37
   14  A    between atoms: C_34  and  N_35
                            x       y       z     vdW  Elec       q    Type
                         _______ _______ _______ _____ _____    ______ ____

>  <TORSDO>
F 14

$$$$
=
 OpenBabel10272414273D

 43 47  0  0  1  0  0  0  0  0999 V2000
  185.2320  178.1490  145.6530 C   0  0  1  0  0  3  0  0  0  0  0  0
  182.8260  178.5890  141.0860 C   0  0  0  0  0  0  0  0  0  0  0  0
  184.7850  178.4270  139.0820 C   0  0  0  0  0  0  0  0  0  0  0  0
  183.5290  178.5010  143.8670 C   0  0  1  0  0  3  0  0  0  0  0  0
  186.3490  178.4130  144.6430 C   0  0  0  0  0  2  0  0  0  0  0  0
  185.6830  178.5810  147.0320 C   0  0  0  0  0  1  0  0  0  0  0  0
  184.6400  178.8290  142.8630 C   0  0  1  0  0  3  0  0  0  0  0  0
  183.9650  178.9120  145.2680 C   0  0  0  0  0  2  0  0  0  0  0  0
  185.8980  178.0370  143.2320 C   0  0  0  0  0  2  0  0  0  0  0  0
  185.1650  178.5550  140.4170 C   0  0  0  0  0  3  0  0  0  0  0  0
  184.2000  178.6000  141.4330 C   0  0  0  0  0  0  0  0  0  0  0  0
  181.7550  178.6320  142.1510 C   0  0  0  0  0  2  0  0  0  0  0  0
  182.4460  178.4570  139.7360 C   0  0  0  0  0  0  0  0  0  0  0  0
  183.4330  178.3790  138.7450 C   0  0  0  0  0  3  0  0  0  0  0  0
  182.2560  179.2220  143.4660 C   0  0  0  0  0  2  0  0  0  0  0  0
  185.8190  178.4170  138.0130 C   0  0  0  0  0  2  0  0  0  0  0  0
  187.1060  178.0630  138.5910 N   0  0  0  0  0  2  0  0  0  0  0  0
  187.5770  176.8480  137.9400 C   0  0  1  0  0  3  0  0  0  0  0  0
  187.2950  176.8900  136.5730 O   0  0  0  0  0  1  0  0  0  0  0  0
  189.0780  176.6650  138.1650 C   0  0  0  0  0  2  0  0  0  0  0  0
  189.4400  176.4300  139.6290 C   0  0  0  0  0  2  0  0  0  0  0  0
  190.0710  177.6080  140.2020 N   0  0  0  0  0  0  0  0  0  0  0  0
  190.5850  177.8110  142.5360 C   0  0  2  0  0  3  0  0  0  0  0  0
  191.4300  177.2870  140.3890 N   0  0  0  0  0  2  0  0  0  0  0  0
  189.4750  177.8040  141.5220 C   0  0  1  0  0  3  0  0  0  0  0  0
  188.7460  179.1330  141.5650 C   0  0  0  0  0  1  0  0  0  0  0  0
  191.8200  177.8140  141.6840 C   0  0  0  0  0  2  0  0  0  0  0  0
  190.5220  176.6090  143.2940 O   0  0  0  0  0  0  0  0  0  0  0  0
  190.5730  176.5970  144.6900 C   0  0  0  0  0  0  0  0  0  0  0  0
  191.3620  176.2550  146.8790 C   0  0  0  0  0  0  0  0  0  0  0  0
  189.7310  176.9140  147.1820 S   0  0  0  0  0  0  0  0  0  0  0  0
  192.0750  175.8570  147.7840 O   0  0  0  0  0  0  0  0  0  0  0  0
  189.5170  176.9540  145.4060 C   0  0  0  0  0  3  0  0  0  0  0  0
  191.7850  176.1890  145.4570 C   0  0  0  0  0  2  0  0  0  0  0  0
  181.0530  178.4240  139.3860 N   0  0  0  0  0  2  0  0  0  0  0  0
  180.3000  177.2290  139.0090 C   0  0  2  0  0  3  0  0  0  0  0  0
  180.7320  176.1340  139.7570 O   0  0  0  0  0  1  0  0  0  0  0  0
  180.4390  176.9310  137.5230 C   0  0  0  0  0  2  0  0  0  0  0  0
  180.5140  175.4980  137.3030 N   0  0  0  0  0  2  0  0  0  0  0  0
  181.7380  175.2540  136.5520 C   0  0  0  0  0  2  0  0  0  0  0  0
  182.8270  173.0150  136.8800 C   0  0  0  0  0  1  0  0  0  0  0  0
  182.7440  174.4480  137.3700 C   0  0  0  0  0  3  0  0  0  0  0  0
  184.1210  175.0880  137.3490 C   0  0  0  0  0  1  0  0  0  0  0  0
  1  6  1  1  0  0  0
  2 11  1  0  0  0  0
  2 12  1  0  0  0  0
  3 10  1  0  0  0  0
  4 15  1  6  0  0  0
  4  8  1  0  0  0  0
  5  1  1  0  0  0  0
  7  9  1  1  0  0  0
  7  4  1  0  0  0  0
  8  1  1  0  0  0  0
  9  5  1  0  0  0  0
 10 11  2  0  0  0  0
 11  7  1  0  0  0  0
 12 15  1  0  0  0  0
 13  2  2  0  0  0  0
 14  3  2  0  0  0  0
 14 13  1  0  0  0  0
 16 17  1  0  0  0  0
 16  3  1  0  0  0  0
 18 19  1  6  0  0  0
 18 20  1  0  0  0  0
 18 17  1  0  0  0  0
 20 21  1  0  0  0  0
 21 22  1  0  0  0  0
 22 24  1  0  0  0  0
 22 25  1  0  0  0  0
 23 28  1  1  0  0  0
 24 27  1  0  0  0  0
 25 26  1  6  0  0  0
 25 23  1  0  0  0  0
 27 23  1  0  0  0  0
 28 29  1  0  0  0  0
 29 33  2  0  0  0  0
 29 34  1  0  0  0  0
 30 31  1  0  0  0  0
 30 32  2  0  0  0  0
 33 31  1  0  0  0  0
 34 30  1  0  0  0  0
 35 13  1  0  0  0  0
 36 35  1  0  0  0  0
 36 37  1  1  0  0  0
 38 36  1  0  0  0  0
 39 38  1  0  0  0  0
 40 39  1  0  0  0  0
 40 42  1  0  0  0  0
 41 42  1  0  0  0  0
 43 42  1  0  0  0  0
M  END
>  <MODEL>
9

>  <REMARK>
 VINA RESULT:      -8.0      4.136      6.431
  Name = 
  14 active torsions:
  status: ('A' for Active; 'I' for Inactive)
    1  A    between atoms: C_1  and  C_9
    2  A    between atoms: C_1  and  N_35
    3  A    between atoms: C_2  and  N_6
    4  A    between atoms: C_2  and  C_13
    5  A    between atoms: C_3  and  N_4
    6  A    between atoms: C_3  and  C_7
    7  A    between atoms: N_6  and  C_12
    8  A    between atoms: C_7  and  C_12
    9  A    between atoms: C_9  and  N_32
   10  A    between atoms: C_10  and  O_14
   11  A    between atoms: C_11  and  O_14
   12  A    between atoms: C_25  and  N_32
   13  A    between atoms: C_25  and  C_37
   14  A    between atoms: C_34  and  N_35
                            x       y       z     vdW  Elec       q    Type
                         _______ _______ _______ _____ _____    ______ ____

>  <TORSDO>
F 14

$$$$
