=
 OpenBabel10262423533D

 34 39  0  0  1  0  0  0  0  0999 V2000
  186.9530  177.9930  145.3720 C   0  0  0  0  0  0  0  0  0  0  0  0
  188.6650  177.1060  143.8770 C   0  0  0  0  0  0  0  0  0  0  0  0
  186.4890  178.1590  142.9070 C   0  0  0  0  0  0  0  0  0  0  0  0
  185.9190  178.5430  140.5370 C   0  0  0  0  0  0  0  0  0  0  0  0
  188.9830  177.0500  146.2850 C   0  0  0  0  0  3  0  0  0  0  0  0
  189.4260  176.7660  145.0000 C   0  0  0  0  0  3  0  0  0  0  0  0
  188.2880  178.3810  141.2830 N   0  0  0  0  0  0  0  0  0  0  0  0
  187.4080  177.7690  144.0400 C   0  0  0  0  0  0  0  0  0  0  0  0
  189.0590  177.1930  141.4230 C   0  0  0  0  0  0  0  0  0  0  0  0
  186.3140  178.3820  139.2140 O   0  0  0  0  0  1  0  0  0  0  0  0
  187.7440  177.6460  146.4680 C   0  0  0  0  0  3  0  0  0  0  0  0
  185.0170  178.3600  143.2590 C   0  0  2  0  0  3  0  0  0  0  0  0
  185.5610  178.4510  145.6840 C   0  0  0  0  0  2  0  0  0  0  0  0
  189.2390  176.6370  142.6090 C   0  0  0  0  0  3  0  0  0  0  0  0
  184.6490  178.8260  140.7930 C   0  0  0  0  0  3  0  0  0  0  0  0
  184.1920  179.0910  142.1890 C   0  0  1  0  0  3  0  0  0  0  0  0
  188.7630  179.4120  140.4600 N   0  0  0  0  0  1  0  0  0  0  0  0
  186.9020  178.3550  141.6290 C   0  0  0  0  0  0  0  0  0  0  0  0
  184.9280  179.1950  144.5270 C   0  0  0  0  0  2  0  0  0  0  0  0
  180.6970  178.7670  143.6640 C   0  0  0  0  0  0  0  0  0  0  0  0
  179.9820  178.3020  142.5560 C   0  0  0  0  0  3  0  0  0  0  0  0
  182.7260  178.8210  142.3310 C   0  0  0  0  0  0  0  0  0  0  0  0
  180.6360  178.0960  141.3380 C   0  0  0  0  0  3  0  0  0  0  0  0
  182.0670  179.0260  143.5530 C   0  0  0  0  0  3  0  0  0  0  0  0
  182.0060  178.3550  141.2260 C   0  0  0  0  0  3  0  0  0  0  0  0
  180.0640  178.9660  144.8440 F   0  0  0  0  0  0  0  0  0  0  0  0
  189.7850  176.6220  140.2460 C   0  0  0  0  0  2  0  0  0  0  0  0
  189.1400  177.7840  137.5790 C   0  0  0  0  0  1  0  0  0  0  0  0
  190.5930  177.6530  139.5880 N   0  0  0  0  0  0  0  0  0  0  0  0
  190.5330  177.5130  138.1210 C   0  0  1  0  0  3  0  0  0  0  0  0
  192.2270  175.6450  138.4740 C   0  0  0  0  0  2  0  0  0  0  0  0
  192.9450  176.7920  139.1720 C   0  0  0  0  0  2  0  0  0  0  0  0
  191.9760  177.5520  140.0950 C   0  0  0  0  0  2  0  0  0  0  0  0
  191.0720  176.1640  137.6160 C   0  0  0  0  0  2  0  0  0  0  0  0
  1 13  1  0  0  0  0
  1 11  1  0  0  0  0
  2  8  1  0  0  0  0
  2  6  2  0  0  0  0
  3 12  1  0  0  0  0
  3  8  1  0  0  0  0
  4 15  2  0  0  0  0
  4 18  1  0  0  0  0
  5 11  2  0  0  0  0
  6  5  1  0  0  0  0
  7  9  1  0  0  0  0
  7 18  1  0  0  0  0
  8  1  2  0  0  0  0
  9 14  2  0  0  0  0
 10  4  1  0  0  0  0
 12 19  1  1  0  0  0
 14  2  1  0  0  0  0
 15 16  1  0  0  0  0
 16 22  1  6  0  0  0
 16 12  1  0  0  0  0
 17  7  1  0  0  0  0
 18  3  2  0  0  0  0
 19 13  1  0  0  0  0
 20 26  1  0  0  0  0
 21 20  2  0  0  0  0
 22 24  2  0  0  0  0
 23 21  1  0  0  0  0
 24 20  1  0  0  0  0
 25 23  2  0  0  0  0
 25 22  1  0  0  0  0
 27  9  1  0  0  0  0
 29 33  1  0  0  0  0
 29 27  1  0  0  0  0
 30 28  1  1  0  0  0
 30 29  1  0  0  0  0
 31 32  1  0  0  0  0
 32 33  1  0  0  0  0
 34 30  1  0  0  0  0
 34 31  1  0  0  0  0
M  END
>  <MODEL>
1

>  <REMARK>
 VINA RESULT:     -10.6      0.000      0.000
  Name = 
  3 active torsions:
  status: ('A' for Active; 'I' for Inactive)
    1  A    between atoms: C_3  and  N_13
    2  A    between atoms: C_3  and  C_17
    3  A    between atoms: C_12  and  C_28
                            x       y       z     vdW  Elec       q    Type
                         _______ _______ _______ _____ _____    ______ ____

>  <TORSDO>
F 3

$$$$
=
 OpenBabel10262423533D

 34 39  0  0  1  0  0  0  0  0999 V2000
  183.7690  178.7820  144.3110 C   0  0  0  0  0  0  0  0  0  0  0  0
  186.0930  178.0440  144.3710 C   0  0  0  0  0  0  0  0  0  0  0  0
  184.9120  178.4840  142.0920 C   0  0  0  0  0  0  0  0  0  0  0  0
  185.8980  178.3890  139.8320 C   0  0  0  0  0  0  0  0  0  0  0  0
  184.8630  178.4110  146.4340 C   0  0  0  0  0  3  0  0  0  0  0  0
  186.0210  178.0340  145.7680 C   0  0  0  0  0  3  0  0  0  0  0  0
  187.3090  178.8170  141.8380 N   0  0  0  0  0  0  0  0  0  0  0  0
  184.9620  178.4590  143.6010 C   0  0  0  0  0  0  0  0  0  0  0  0
  187.9090  177.8420  142.6830 C   0  0  0  0  0  0  0  0  0  0  0  0
  187.0340  178.1160  139.0790 O   0  0  0  0  0  1  0  0  0  0  0  0
  183.7370  178.7670  145.7060 C   0  0  0  0  0  3  0  0  0  0  0  0
  183.5270  178.4370  141.4530 C   0  0  2  0  0  3  0  0  0  0  0  0
  182.4530  178.9940  143.6260 C   0  0  0  0  0  2  0  0  0  0  0  0
  187.3560  177.5160  143.8400 C   0  0  0  0  0  3  0  0  0  0  0  0
  184.7250  178.4480  139.2180 C   0  0  0  0  0  3  0  0  0  0  0  0
  183.4890  178.8210  139.9660 C   0  0  1  0  0  3  0  0  0  0  0  0
  188.1190  179.7880  141.2330 N   0  0  0  0  0  1  0  0  0  0  0  0
  186.0100  178.5670  141.2990 C   0  0  0  0  0  0  0  0  0  0  0  0
  182.6190  179.4150  142.1820 C   0  0  0  0  0  2  0  0  0  0  0  0
  180.6710  176.5030  138.8770 C   0  0  0  0  0  0  0  0  0  0  0  0
  179.9820  177.3240  137.9800 C   0  0  0  0  0  3  0  0  0  0  0  0
  182.2690  178.2860  139.2810 C   0  0  0  0  0  0  0  0  0  0  0  0
  180.4340  178.6240  137.7320 C   0  0  0  0  0  3  0  0  0  0  0  0
  181.8130  176.9820  139.5270 C   0  0  0  0  0  3  0  0  0  0  0  0
  181.5760  179.1040  138.3810 C   0  0  0  0  0  3  0  0  0  0  0  0
  180.2340  175.2440  139.1170 F   0  0  0  0  0  0  0  0  0  0  0  0
  189.2420  177.2590  142.3350 C   0  0  0  0  0  2  0  0  0  0  0  0
  191.9330  177.3450  141.0580 C   0  0  0  0  0  1  0  0  0  0  0  0
  190.3230  178.1480  142.7700 N   0  0  0  0  0  0  0  0  0  0  0  0
  191.6400  177.5270  142.5380 C   0  0  1  0  0  3  0  0  0  0  0  0
  191.1280  176.2230  144.6640 C   0  0  0  0  0  2  0  0  0  0  0  0
  190.9570  177.6460  145.1760 C   0  0  0  0  0  2  0  0  0  0  0  0
  190.1110  178.4750  144.1950 C   0  0  0  0  0  2  0  0  0  0  0  0
  191.8360  176.2100  143.3090 C   0  0  0  0  0  2  0  0  0  0  0  0
  1 11  1  0  0  0  0
  2  6  2  0  0  0  0
  3  8  1  0  0  0  0
  4 18  1  0  0  0  0
  6  5  1  0  0  0  0
  7  9  1  0  0  0  0
  8  1  2  0  0  0  0
  8  2  1  0  0  0  0
  9 14  2  0  0  0  0
 10  4  1  0  0  0  0
 11  5  2  0  0  0  0
 12  3  1  0  0  0  0
 12 19  1  1  0  0  0
 13  1  1  0  0  0  0
 14  2  1  0  0  0  0
 15  4  2  0  0  0  0
 15 16  1  0  0  0  0
 16 22  1  6  0  0  0
 16 12  1  0  0  0  0
 17  7  1  0  0  0  0
 18  7  1  0  0  0  0
 18  3  2  0  0  0  0
 19 13  1  0  0  0  0
 20 26  1  0  0  0  0
 20 24  1  0  0  0  0
 21 20  2  0  0  0  0
 22 24  2  0  0  0  0
 23 21  1  0  0  0  0
 23 25  2  0  0  0  0
 25 22  1  0  0  0  0
 27  9  1  0  0  0  0
 27 29  1  0  0  0  0
 29 33  1  0  0  0  0
 30 28  1  6  0  0  0
 30 29  1  0  0  0  0
 30 34  1  0  0  0  0
 31 32  1  0  0  0  0
 33 32  1  0  0  0  0
 34 31  1  0  0  0  0
M  END
>  <MODEL>
2

>  <REMARK>
 VINA RESULT:      -9.7      2.209      3.729
  Name = 
  3 active torsions:
  status: ('A' for Active; 'I' for Inactive)
    1  A    between atoms: C_3  and  N_13
    2  A    between atoms: C_3  and  C_17
    3  A    between atoms: C_12  and  C_28
                            x       y       z     vdW  Elec       q    Type
                         _______ _______ _______ _____ _____    ______ ____

>  <TORSDO>
F 3

$$$$
=
 OpenBabel10262423533D

 34 39  0  0  1  0  0  0  0  0999 V2000
  192.6130  176.5200  138.0850 C   0  0  0  0  0  0  0  0  0  0  0  0
  190.6960  176.2590  136.6000 C   0  0  0  0  0  0  0  0  0  0  0  0
  190.3830  177.2490  138.9880 C   0  0  0  0  0  0  0  0  0  0  0  0
  188.3190  178.1490  139.9970 C   0  0  0  0  0  0  0  0  0  0  0  0
  192.9230  175.6320  135.8580 C   0  0  0  0  0  3  0  0  0  0  0  0
  191.5580  175.7410  135.6280 C   0  0  0  0  0  3  0  0  0  0  0  0
  188.6300  178.0950  137.5280 N   0  0  0  0  0  0  0  0  0  0  0  0
  191.2180  176.7000  137.8560 C   0  0  0  0  0  0  0  0  0  0  0  0
  188.3260  177.0150  136.6530 C   0  0  0  0  0  0  0  0  0  0  0  0
  186.9580  178.3790  139.8300 O   0  0  0  0  0  1  0  0  0  0  0  0
  193.4430  176.0050  137.0880 C   0  0  0  0  0  3  0  0  0  0  0  0
  190.9930  177.1720  140.3860 C   0  0  2  0  0  3  0  0  0  0  0  0
  193.2420  176.7100  139.4320 C   0  0  0  0  0  2  0  0  0  0  0  0
  189.2770  176.2010  136.2230 C   0  0  0  0  0  3  0  0  0  0  0  0
  188.8290  178.2000  141.2190 C   0  0  0  0  0  3  0  0  0  0  0  0
  190.2960  178.0440  141.4420 C   0  0  1  0  0  3  0  0  0  0  0  0
  188.0560  179.3510  137.2880 N   0  0  0  0  0  1  0  0  0  0  0  0
  189.1600  177.8120  138.8240 C   0  0  0  0  0  0  0  0  0  0  0  0
  192.4380  177.6390  140.3150 C   0  0  0  0  0  2  0  0  0  0  0  0
  191.5780  175.9780  144.3720 C   0  0  0  0  0  0  0  0  0  0  0  0
  191.0820  176.7120  145.4540 C   0  0  0  0  0  3  0  0  0  0  0  0
  190.5780  177.5680  142.8340 C   0  0  0  0  0  0  0  0  0  0  0  0
  190.3350  177.8720  145.2270 C   0  0  0  0  0  3  0  0  0  0  0  0
  191.3260  176.4040  143.0640 C   0  0  0  0  0  3  0  0  0  0  0  0
  190.0830  178.2990  143.9200 C   0  0  0  0  0  3  0  0  0  0  0  0
  192.3010  174.8540  144.5910 F   0  0  0  0  0  0  0  0  0  0  0  0
  186.9440  176.8550  136.1040 C   0  0  0  0  0  2  0  0  0  0  0  0
  186.5100  174.0350  136.9640 C   0  0  0  0  0  1  0  0  0  0  0  0
  186.0110  176.4590  137.1630 N   0  0  0  0  0  0  0  0  0  0  0  0
  185.4500  175.1210  136.8980 C   0  0  1  0  0  3  0  0  0  0  0  0
  183.9250  176.3510  135.2710 C   0  0  0  0  0  2  0  0  0  0  0  0
  183.6430  177.1340  136.5450 C   0  0  0  0  0  2  0  0  0  0  0  0
  184.9570  177.4890  137.2630 C   0  0  0  0  0  2  0  0  0  0  0  0
  184.6570  175.0440  135.5830 C   0  0  0  0  0  2  0  0  0  0  0  0
  1 13  1  0  0  0  0
  2  8  2  0  0  0  0
  3 12  1  0  0  0  0
  4 15  2  0  0  0  0
  5 11  1  0  0  0  0
  6  5  2  0  0  0  0
  6  2  1  0  0  0  0
  7 18  1  0  0  0  0
  8  1  1  0  0  0  0
  8  3  1  0  0  0  0
  9  7  1  0  0  0  0
 10  4  1  0  0  0  0
 11  1  2  0  0  0  0
 12 19  1  6  0  0  0
 12 16  1  0  0  0  0
 13 19  1  0  0  0  0
 14  2  1  0  0  0  0
 14  9  2  0  0  0  0
 15 16  1  0  0  0  0
 16 22  1  1  0  0  0
 17  7  1  0  0  0  0
 18  3  2  0  0  0  0
 18  4  1  0  0  0  0
 20 26  1  0  0  0  0
 20 21  1  0  0  0  0
 22 24  1  0  0  0  0
 22 25  2  0  0  0  0
 23 21  2  0  0  0  0
 24 20  2  0  0  0  0
 25 23  1  0  0  0  0
 27  9  1  0  0  0  0
 27 29  1  0  0  0  0
 29 33  1  0  0  0  0
 30 28  1  6  0  0  0
 30 29  1  0  0  0  0
 31 34  1  0  0  0  0
 31 32  1  0  0  0  0
 32 33  1  0  0  0  0
 34 30  1  0  0  0  0
M  END
>  <MODEL>
3

>  <REMARK>
 VINA RESULT:      -9.7      4.284      7.884
  Name = 
  3 active torsions:
  status: ('A' for Active; 'I' for Inactive)
    1  A    between atoms: C_3  and  N_13
    2  A    between atoms: C_3  and  C_17
    3  A    between atoms: C_12  and  C_28
                            x       y       z     vdW  Elec       q    Type
                         _______ _______ _______ _____ _____    ______ ____

>  <TORSDO>
F 3

$$$$
=
 OpenBabel10262423533D

 34 39  0  0  1  0  0  0  0  0999 V2000
  188.3900  177.4980  143.9710 C   0  0  0  0  0  0  0  0  0  0  0  0
  189.6050  176.7800  141.9820 C   0  0  0  0  0  0  0  0  0  0  0  0
  187.3270  178.0220  141.7540 C   0  0  0  0  0  0  0  0  0  0  0  0
  186.1990  178.7510  139.6840 C   0  0  0  0  0  0  0  0  0  0  0  0
  190.5200  176.3770  144.1960 C   0  0  0  0  0  3  0  0  0  0  0  0
  190.6030  176.2640  142.8150 C   0  0  0  0  0  3  0  0  0  0  0  0
  188.6650  178.4170  139.7600 N   0  0  0  0  0  0  0  0  0  0  0  0
  188.4770  177.4510  142.5490 C   0  0  0  0  0  0  0  0  0  0  0  0
  189.3680  177.1990  139.5410 C   0  0  0  0  0  0  0  0  0  0  0  0
  186.2340  178.7660  138.2940 O   0  0  0  0  0  1  0  0  0  0  0  0
  189.4090  176.9780  144.7700 C   0  0  0  0  0  3  0  0  0  0  0  0
  186.0090  178.2150  142.5000 C   0  0  2  0  0  3  0  0  0  0  0  0
  187.1550  177.9490  144.6910 C   0  0  0  0  0  2  0  0  0  0  0  0
  189.8070  176.4770  140.5590 C   0  0  0  0  0  3  0  0  0  0  0  0
  185.0580  179.0330  140.2960 C   0  0  0  0  0  3  0  0  0  0  0  0
  184.9890  179.1130  141.7850 C   0  0  1  0  0  3  0  0  0  0  0  0
  188.9820  179.5380  138.9810 N   0  0  0  0  0  1  0  0  0  0  0  0
  187.4140  178.3830  140.4490 C   0  0  0  0  0  0  0  0  0  0  0  0
  186.2990  178.8660  143.8440 C   0  0  0  0  0  2  0  0  0  0  0  0
  181.2750  178.2770  141.8500 C   0  0  0  0  0  0  0  0  0  0  0  0
  180.9930  178.4190  143.2120 C   0  0  0  0  0  3  0  0  0  0  0  0
  183.5920  178.8680  142.2680 C   0  0  0  0  0  0  0  0  0  0  0  0
  182.0080  178.7840  144.1020 C   0  0  0  0  0  3  0  0  0  0  0  0
  182.5710  178.5020  141.3770 C   0  0  0  0  0  3  0  0  0  0  0  0
  183.3050  179.0090  143.6300 C   0  0  0  0  0  3  0  0  0  0  0  0
  180.2920  177.9240  140.9880 F   0  0  0  0  0  0  0  0  0  0  0  0
  189.7320  176.7780  138.1530 C   0  0  0  0  0  2  0  0  0  0  0  0
  191.2310  174.3320  137.3460 C   0  0  0  0  0  1  0  0  0  0  0  0
  189.0920  175.5030  137.8160 N   0  0  0  0  0  0  0  0  0  0  0  0
  189.8790  174.7690  136.8070 C   0  0  1  0  0  3  0  0  0  0  0  0
  188.7930  176.3690  135.1510 C   0  0  0  0  0  2  0  0  0  0  0  0
  187.5530  175.7940  135.8190 C   0  0  0  0  0  2  0  0  0  0  0  0
  187.7200  175.7810  137.3480 C   0  0  0  0  0  2  0  0  0  0  0  0
  190.0300  175.5320  135.4810 C   0  0  0  0  0  2  0  0  0  0  0  0
  1 13  1  0  0  0  0
  1 11  1  0  0  0  0
  2  8  1  0  0  0  0
  2  6  2  0  0  0  0
  3 12  1  0  0  0  0
  3  8  1  0  0  0  0
  4 15  2  0  0  0  0
  4 18  1  0  0  0  0
  5 11  2  0  0  0  0
  6  5  1  0  0  0  0
  7 18  1  0  0  0  0
  8  1  2  0  0  0  0
  9  7  1  0  0  0  0
  9 14  2  0  0  0  0
 10  4  1  0  0  0  0
 12 19  1  1  0  0  0
 14  2  1  0  0  0  0
 15 16  1  0  0  0  0
 16 22  1  1  0  0  0
 16 12  1  0  0  0  0
 17  7  1  0  0  0  0
 18  3  2  0  0  0  0
 19 13  1  0  0  0  0
 20 21  1  0  0  0  0
 21 23  2  0  0  0  0
 22 25  2  0  0  0  0
 24 20  2  0  0  0  0
 24 22  1  0  0  0  0
 25 23  1  0  0  0  0
 26 20  1  0  0  0  0
 27  9  1  0  0  0  0
 29 27  1  0  0  0  0
 30 28  1  1  0  0  0
 30 29  1  0  0  0  0
 31 34  1  0  0  0  0
 31 32  1  0  0  0  0
 32 33  1  0  0  0  0
 33 29  1  0  0  0  0
 34 30  1  0  0  0  0
M  END
>  <MODEL>
4

>  <REMARK>
 VINA RESULT:      -9.5      1.596      2.683
  Name = 
  3 active torsions:
  status: ('A' for Active; 'I' for Inactive)
    1  A    between atoms: C_3  and  N_13
    2  A    between atoms: C_3  and  C_17
    3  A    between atoms: C_12  and  C_28
                            x       y       z     vdW  Elec       q    Type
                         _______ _______ _______ _____ _____    ______ ____

>  <TORSDO>
F 3

$$$$
=
 OpenBabel10262423533D

 34 39  0  0  1  0  0  0  0  0999 V2000
  188.7120  177.6540  137.0080 C   0  0  0  0  0  0  0  0  0  0  0  0
  186.3020  177.4510  136.7000 C   0  0  0  0  0  0  0  0  0  0  0  0
  187.2860  178.0040  139.0470 C   0  0  0  0  0  0  0  0  0  0  0  0
  186.0550  178.5220  141.1230 C   0  0  0  0  0  0  0  0  0  0  0  0
  187.8110  177.1750  134.8160 C   0  0  0  0  0  3  0  0  0  0  0  0
  186.5270  177.1850  135.3460 C   0  0  0  0  0  3  0  0  0  0  0  0
  185.0290  178.9000  138.8860 N   0  0  0  0  0  0  0  0  0  0  0  0
  187.4040  177.7310  137.5670 C   0  0  0  0  0  0  0  0  0  0  0  0
  184.3110  177.9520  138.1050 C   0  0  0  0  0  0  0  0  0  0  0  0
  184.8080  178.6410  141.7260 O   0  0  0  0  0  1  0  0  0  0  0  0
  188.8990  177.3920  135.6500 C   0  0  0  0  0  3  0  0  0  0  0  0
  188.5360  177.7610  139.8890 C   0  0  2  0  0  3  0  0  0  0  0  0
  189.9540  177.6830  137.8480 C   0  0  0  0  0  2  0  0  0  0  0  0
  184.8950  177.3170  137.1030 C   0  0  0  0  0  3  0  0  0  0  0  0
  187.1290  178.4230  141.8930 C   0  0  0  0  0  3  0  0  0  0  0  0
  188.4960  178.3780  141.2960 C   0  0  1  0  0  3  0  0  0  0  0  0
  184.4160  180.1160  139.2190 N   0  0  0  0  0  1  0  0  0  0  0  0
  186.1580  178.4640  139.6450 C   0  0  0  0  0  0  0  0  0  0  0  0
  189.7320  178.3730  139.1760 C   0  0  0  0  0  2  0  0  0  0  0  0
  191.1810  177.8240  143.9380 C   0  0  0  0  0  0  0  0  0  0  0  0
  191.2590  176.4280  143.9520 C   0  0  0  0  0  3  0  0  0  0  0  0
  189.4630  177.7110  142.2260 C   0  0  0  0  0  0  0  0  0  0  0  0
  190.4400  175.6740  143.1040 C   0  0  0  0  0  3  0  0  0  0  0  0
  190.2860  178.4660  143.0770 C   0  0  0  0  0  3  0  0  0  0  0  0
  189.5450  176.3150  142.2430 C   0  0  0  0  0  3  0  0  0  0  0  0
  191.9730  178.5540  144.7580 F   0  0  0  0  0  0  0  0  0  0  0  0
  182.8450  177.7490  138.3260 C   0  0  0  0  0  2  0  0  0  0  0  0
  181.6080  176.5490  135.8950 C   0  0  0  0  0  1  0  0  0  0  0  0
  182.4970  176.3300  138.2030 N   0  0  0  0  0  0  0  0  0  0  0  0
  181.3200  176.1510  137.3330 C   0  0  1  0  0  3  0  0  0  0  0  0
  179.9950  176.8530  139.3900 C   0  0  0  0  0  2  0  0  0  0  0  0
  180.7880  175.6900  139.9680 C   0  0  0  0  0  2  0  0  0  0  0  0
  182.2670  175.7890  139.5580 C   0  0  0  0  0  2  0  0  0  0  0  0
  180.0590  176.8530  137.8620 C   0  0  0  0  0  2  0  0  0  0  0  0
  1  8  1  0  0  0  0
  1 13  1  0  0  0  0
  2 14  1  0  0  0  0
  2  8  2  0  0  0  0
  3 18  2  0  0  0  0
  3 12  1  0  0  0  0
  4 10  1  0  0  0  0
  4 15  2  0  0  0  0
  5  6  2  0  0  0  0
  5 11  1  0  0  0  0
  6  2  1  0  0  0  0
  7 17  1  0  0  0  0
  7 18  1  0  0  0  0
  8  3  1  0  0  0  0
  9 27  1  0  0  0  0
  9  7  1  0  0  0  0
 11  1  2  0  0  0  0
 12 19  1  6  0  0  0
 12 16  1  0  0  0  0
 13 19  1  0  0  0  0
 14  9  2  0  0  0  0
 16 15  1  0  0  0  0
 16 22  1  1  0  0  0
 18  4  1  0  0  0  0
 20 21  1  0  0  0  0
 20 26  1  0  0  0  0
 22 25  2  0  0  0  0
 22 24  1  0  0  0  0
 23 21  2  0  0  0  0
 24 20  2  0  0  0  0
 25 23  1  0  0  0  0
 29 27  1  0  0  0  0
 29 33  1  0  0  0  0
 30 28  1  6  0  0  0
 30 34  1  0  0  0  0
 30 29  1  0  0  0  0
 31 32  1  0  0  0  0
 33 32  1  0  0  0  0
 34 31  1  0  0  0  0
M  END
>  <MODEL>
5

>  <REMARK>
 VINA RESULT:      -9.4      3.585      8.261
  Name = 
  3 active torsions:
  status: ('A' for Active; 'I' for Inactive)
    1  A    between atoms: C_3  and  N_13
    2  A    between atoms: C_3  and  C_17
    3  A    between atoms: C_12  and  C_28
                            x       y       z     vdW  Elec       q    Type
                         _______ _______ _______ _____ _____    ______ ____

>  <TORSDO>
F 3

$$$$
=
 OpenBabel10262423533D

 34 39  0  0  1  0  0  0  0  0999 V2000
  188.4210  178.2370  139.3240 C   0  0  0  0  0  0  0  0  0  0  0  0
  186.5380  177.7460  137.8540 C   0  0  0  0  0  0  0  0  0  0  0  0
  186.1280  178.4160  140.3370 C   0  0  0  0  0  0  0  0  0  0  0  0
  183.9670  178.7860  141.4700 C   0  0  0  0  0  0  0  0  0  0  0  0
  188.8150  177.6500  137.0120 C   0  0  0  0  0  3  0  0  0  0  0  0
  187.4470  177.5070  136.8190 C   0  0  0  0  0  3  0  0  0  0  0  0
  184.1900  179.0350  139.0030 N   0  0  0  0  0  0  0  0  0  0  0  0
  187.0110  178.1570  139.1400 C   0  0  0  0  0  0  0  0  0  0  0  0
  184.0700  178.0070  138.0270 C   0  0  0  0  0  0  0  0  0  0  0  0
  182.5820  178.7560  141.3520 O   0  0  0  0  0  1  0  0  0  0  0  0
  189.2980  177.9970  138.2650 C   0  0  0  0  0  3  0  0  0  0  0  0
  186.7930  178.3260  141.7080 C   0  0  2  0  0  3  0  0  0  0  0  0
  189.0520  178.4150  140.6720 C   0  0  0  0  0  2  0  0  0  0  0  0
  185.1450  177.4450  137.4990 C   0  0  0  0  0  3  0  0  0  0  0  0
  184.5030  178.8180  142.6820 C   0  0  0  0  0  3  0  0  0  0  0  0
  185.9800  178.9360  142.8610 C   0  0  1  0  0  3  0  0  0  0  0  0
  183.3720  180.1700  138.9040 N   0  0  0  0  0  1  0  0  0  0  0  0
  184.8130  178.7390  140.2540 C   0  0  0  0  0  0  0  0  0  0  0  0
  188.1150  179.0760  141.6610 C   0  0  0  0  0  2  0  0  0  0  0  0
  188.0130  177.2500  145.6040 C   0  0  0  0  0  0  0  0  0  0  0  0
  187.1520  177.3880  146.6970 C   0  0  0  0  0  3  0  0  0  0  0  0
  186.4010  178.3920  144.1920 C   0  0  0  0  0  0  0  0  0  0  0  0
  185.9180  178.0270  146.5400 C   0  0  0  0  0  3  0  0  0  0  0  0
  187.6390  177.7500  144.3530 C   0  0  0  0  0  3  0  0  0  0  0  0
  185.5430  178.5270  145.2890 C   0  0  0  0  0  3  0  0  0  0  0  0
  189.2080  176.6320  145.7560 F   0  0  0  0  0  0  0  0  0  0  0  0
  182.7260  177.6300  137.4900 C   0  0  0  0  0  2  0  0  0  0  0  0
  181.3900  175.8790  135.4820 C   0  0  0  0  0  1  0  0  0  0  0  0
  182.4710  176.2010  137.6950 N   0  0  0  0  0  0  0  0  0  0  0  0
  181.2450  175.7790  136.9910 C   0  0  1  0  0  3  0  0  0  0  0  0
  180.0390  176.8300  138.9720 C   0  0  0  0  0  2  0  0  0  0  0  0
  180.9560  175.8590  139.7030 C   0  0  0  0  0  2  0  0  0  0  0  0
  182.3870  175.9480  139.1470 C   0  0  0  0  0  2  0  0  0  0  0  0
  179.9820  176.5100  137.4770 C   0  0  0  0  0  2  0  0  0  0  0  0
  1 13  1  0  0  0  0
  2  8  2  0  0  0  0
  3 12  1  0  0  0  0
  4 15  2  0  0  0  0
  5 11  1  0  0  0  0
  6  5  2  0  0  0  0
  6  2  1  0  0  0  0
  7 18  1  0  0  0  0
  8  1  1  0  0  0  0
  8  3  1  0  0  0  0
  9  7  1  0  0  0  0
 10  4  1  0  0  0  0
 11  1  2  0  0  0  0
 12 19  1  6  0  0  0
 12 16  1  0  0  0  0
 13 19  1  0  0  0  0
 14  2  1  0  0  0  0
 14  9  2  0  0  0  0
 15 16  1  0  0  0  0
 16 22  1  1  0  0  0
 17  7  1  0  0  0  0
 18  3  2  0  0  0  0
 18  4  1  0  0  0  0
 20 26  1  0  0  0  0
 20 21  1  0  0  0  0
 22 24  1  0  0  0  0
 22 25  2  0  0  0  0
 23 21  2  0  0  0  0
 24 20  2  0  0  0  0
 25 23  1  0  0  0  0
 27 29  1  0  0  0  0
 27  9  1  0  0  0  0
 29 33  1  0  0  0  0
 30 28  1  6  0  0  0
 30 34  1  0  0  0  0
 30 29  1  0  0  0  0
 31 32  1  0  0  0  0
 33 32  1  0  0  0  0
 34 31  1  0  0  0  0
M  END
>  <MODEL>
6

>  <REMARK>
 VINA RESULT:      -9.3      3.369      7.129
  Name = 
  3 active torsions:
  status: ('A' for Active; 'I' for Inactive)
    1  A    between atoms: C_3  and  N_13
    2  A    between atoms: C_3  and  C_17
    3  A    between atoms: C_12  and  C_28
                            x       y       z     vdW  Elec       q    Type
                         _______ _______ _______ _____ _____    ______ ____

>  <TORSDO>
F 3

$$$$
=
 OpenBabel10262423533D

 34 39  0  0  1  0  0  0  0  0999 V2000
  184.9910  178.7660  142.1930 C   0  0  0  0  0  0  0  0  0  0  0  0
  186.3980  177.8960  143.9860 C   0  0  0  0  0  0  0  0  0  0  0  0
  187.3060  178.0280  141.5490 C   0  0  0  0  0  0  0  0  0  0  0  0
  189.5790  177.4950  140.7480 C   0  0  0  0  0  0  0  0  0  0  0  0
  184.1470  178.6810  144.4570 C   0  0  0  0  0  3  0  0  0  0  0  0
  185.3460  178.1230  144.8800 C   0  0  0  0  0  3  0  0  0  0  0  0
  189.1660  178.1560  143.1120 N   0  0  0  0  0  0  0  0  0  0  0  0
  186.2540  178.2510  142.6080 C   0  0  0  0  0  0  0  0  0  0  0  0
  188.8040  177.2980  144.1880 C   0  0  0  0  0  0  0  0  0  0  0  0
  190.8420  177.0260  141.0890 O   0  0  0  0  0  1  0  0  0  0  0  0
  183.9670  178.9850  143.1160 C   0  0  0  0  0  3  0  0  0  0  0  0
  186.8190  177.9670  140.1030 C   0  0  2  0  0  3  0  0  0  0  0  0
  184.6270  178.9470  140.7510 C   0  0  0  0  0  2  0  0  0  0  0  0
  187.5460  177.2050  144.5870 C   0  0  0  0  0  3  0  0  0  0  0  0
  189.2340  177.5280  139.4680 C   0  0  0  0  0  3  0  0  0  0  0  0
  187.9240  178.1010  139.0440 C   0  0  1  0  0  3  0  0  0  0  0  0
  190.3100  178.9570  143.2340 N   0  0  0  0  0  1  0  0  0  0  0  0
  188.6320  177.9060  141.8120 C   0  0  0  0  0  0  0  0  0  0  0  0
  185.8450  179.1110  139.8670 C   0  0  0  0  0  2  0  0  0  0  0  0
  186.8510  177.8400  135.4000 C   0  0  0  0  0  0  0  0  0  0  0  0
  186.7090  176.4560  135.2610 C   0  0  0  0  0  3  0  0  0  0  0  0
  187.5000  177.5410  137.7200 C   0  0  0  0  0  0  0  0  0  0  0  0
  186.9620  175.6150  136.3500 C   0  0  0  0  0  3  0  0  0  0  0  0
  187.2450  178.3830  136.6270 C   0  0  0  0  0  3  0  0  0  0  0  0
  187.3560  176.1570  137.5770 C   0  0  0  0  0  3  0  0  0  0  0  0
  186.6060  178.6550  134.3460 F   0  0  0  0  0  0  0  0  0  0  0  0
  189.8590  176.5780  144.9670 C   0  0  0  0  0  2  0  0  0  0  0  0
  192.2040  175.8430  146.6520 C   0  0  0  0  0  1  0  0  0  0  0  0
  190.4450  177.4620  145.9780 N   0  0  0  0  0  0  0  0  0  0  0  0
  191.0160  176.6810  147.0930 C   0  0  1  0  0  3  0  0  0  0  0  0
  188.6010  176.4960  147.8770 C   0  0  0  0  0  2  0  0  0  0  0  0
  188.7300  178.0080  147.7690 C   0  0  0  0  0  2  0  0  0  0  0  0
  189.4010  178.3980  146.4400 C   0  0  0  0  0  2  0  0  0  0  0  0
  189.9740  175.8240  147.8300 C   0  0  0  0  0  2  0  0  0  0  0  0
  1  8  2  0  0  0  0
  1 11  1  0  0  0  0
  2 14  1  0  0  0  0
  2  6  2  0  0  0  0
  3 18  2  0  0  0  0
  3  8  1  0  0  0  0
  4 10  1  0  0  0  0
  4 18  1  0  0  0  0
  5  6  1  0  0  0  0
  7 17  1  0  0  0  0
  7  9  1  0  0  0  0
  8  2  1  0  0  0  0
  9 14  2  0  0  0  0
  9 27  1  0  0  0  0
 11  5  2  0  0  0  0
 12 19  1  6  0  0  0
 12  3  1  0  0  0  0
 13  1  1  0  0  0  0
 15  4  2  0  0  0  0
 16 22  1  6  0  0  0
 16 15  1  0  0  0  0
 16 12  1  0  0  0  0
 18  7  1  0  0  0  0
 19 13  1  0  0  0  0
 20 24  1  0  0  0  0
 21 20  2  0  0  0  0
 21 23  1  0  0  0  0
 23 25  2  0  0  0  0
 24 22  2  0  0  0  0
 25 22  1  0  0  0  0
 26 20  1  0  0  0  0
 27 29  1  0  0  0  0
 29 33  1  0  0  0  0
 29 30  1  0  0  0  0
 30 28  1  6  0  0  0
 30 34  1  0  0  0  0
 32 31  1  0  0  0  0
 33 32  1  0  0  0  0
 34 31  1  0  0  0  0
M  END
>  <MODEL>
7

>  <REMARK>
 VINA RESULT:      -9.2      3.109      6.586
  Name = 
  3 active torsions:
  status: ('A' for Active; 'I' for Inactive)
    1  A    between atoms: C_3  and  N_13
    2  A    between atoms: C_3  and  C_17
    3  A    between atoms: C_12  and  C_28
                            x       y       z     vdW  Elec       q    Type
                         _______ _______ _______ _____ _____    ______ ____

>  <TORSDO>
F 3

$$$$
=
 OpenBabel10262423533D

 34 39  0  0  1  0  0  0  0  0999 V2000
  192.1290  177.2540  140.3750 C   0  0  0  0  0  0  0  0  0  0  0  0
  191.0430  176.7350  138.2540 C   0  0  0  0  0  0  0  0  0  0  0  0
  189.6560  177.6890  140.2420 C   0  0  0  0  0  0  0  0  0  0  0  0
  187.2700  178.3170  140.2610 C   0  0  0  0  0  0  0  0  0  0  0  0
  193.4340  176.4020  138.5280 C   0  0  0  0  0  3  0  0  0  0  0  0
  192.2840  176.3300  137.7530 C   0  0  0  0  0  3  0  0  0  0  0  0
  188.5790  178.2900  138.1440 N   0  0  0  0  0  0  0  0  0  0  0  0
  190.9430  177.2480  139.5850 C   0  0  0  0  0  0  0  0  0  0  0  0
  188.7930  177.1740  137.2870 C   0  0  0  0  0  0  0  0  0  0  0  0
  186.0830  178.3650  139.5380 O   0  0  0  0  0  1  0  0  0  0  0  0
  193.3510  176.8470  139.8390 C   0  0  0  0  0  3  0  0  0  0  0  0
  189.6370  177.7010  141.7680 C   0  0  2  0  0  3  0  0  0  0  0  0
  192.1170  177.5320  141.8480 C   0  0  0  0  0  2  0  0  0  0  0  0
  189.9250  176.4900  137.3330 C   0  0  0  0  0  3  0  0  0  0  0  0
  187.2190  178.4410  141.5800 C   0  0  0  0  0  3  0  0  0  0  0  0
  188.4700  178.4800  142.3920 C   0  0  1  0  0  3  0  0  0  0  0  0
  188.0130  179.4580  137.6160 N   0  0  0  0  0  1  0  0  0  0  0  0
  188.5540  178.0860  139.5570 C   0  0  0  0  0  0  0  0  0  0  0  0
  190.9170  178.3530  142.2680 C   0  0  0  0  0  2  0  0  0  0  0  0
  188.9820  177.2880  145.9720 C   0  0  0  0  0  0  0  0  0  0  0  0
  187.6630  177.2600  146.4360 C   0  0  0  0  0  3  0  0  0  0  0  0
  188.2030  178.0530  143.8030 C   0  0  0  0  0  0  0  0  0  0  0  0
  186.6150  177.6290  145.5860 C   0  0  0  0  0  3  0  0  0  0  0  0
  189.2520  177.6820  144.6580 C   0  0  0  0  0  3  0  0  0  0  0  0
  186.8850  178.0240  144.2720 C   0  0  0  0  0  3  0  0  0  0  0  0
  189.9960  176.9300  146.7950 F   0  0  0  0  0  0  0  0  0  0  0  0
  187.7910  176.8310  136.2310 C   0  0  0  0  0  2  0  0  0  0  0  0
  187.5850  173.8600  136.3140 C   0  0  0  0  0  1  0  0  0  0  0  0
  186.6560  176.1080  136.8120 N   0  0  0  0  0  0  0  0  0  0  0  0
  186.4330  174.8290  136.1120 C   0  0  1  0  0  3  0  0  0  0  0  0
  185.3020  176.2730  134.3460 C   0  0  0  0  0  2  0  0  0  0  0  0
  184.5160  176.6960  135.5790 C   0  0  0  0  0  2  0  0  0  0  0  0
  185.4680  176.9830  136.7530 C   0  0  0  0  0  2  0  0  0  0  0  0
  186.1070  175.0010  134.6190 C   0  0  0  0  0  2  0  0  0  0  0  0
  1 13  1  0  0  0  0
  2  8  1  0  0  0  0
  3 12  1  0  0  0  0
  4 15  2  0  0  0  0
  5 11  2  0  0  0  0
  6  2  2  0  0  0  0
  6  5  1  0  0  0  0
  7 18  1  0  0  0  0
  8  3  1  0  0  0  0
  8  1  2  0  0  0  0
  9 14  2  0  0  0  0
  9  7  1  0  0  0  0
 10  4  1  0  0  0  0
 11  1  1  0  0  0  0
 12 19  1  1  0  0  0
 12 16  1  0  0  0  0
 13 19  1  0  0  0  0
 14  2  1  0  0  0  0
 15 16  1  0  0  0  0
 16 22  1  1  0  0  0
 17  7  1  0  0  0  0
 18  3  2  0  0  0  0
 18  4  1  0  0  0  0
 20 21  1  0  0  0  0
 20 26  1  0  0  0  0
 22 25  2  0  0  0  0
 22 24  1  0  0  0  0
 23 21  2  0  0  0  0
 24 20  2  0  0  0  0
 25 23  1  0  0  0  0
 27 29  1  0  0  0  0
 27  9  1  0  0  0  0
 30 28  1  6  0  0  0
 30 29  1  0  0  0  0
 31 34  1  0  0  0  0
 31 32  1  0  0  0  0
 32 33  1  0  0  0  0
 33 29  1  0  0  0  0
 34 30  1  0  0  0  0
M  END
>  <MODEL>
8

>  <REMARK>
 VINA RESULT:      -9.1      3.344      6.288
  Name = 
  3 active torsions:
  status: ('A' for Active; 'I' for Inactive)
    1  A    between atoms: C_3  and  N_13
    2  A    between atoms: C_3  and  C_17
    3  A    between atoms: C_12  and  C_28
                            x       y       z     vdW  Elec       q    Type
                         _______ _______ _______ _____ _____    ______ ____

>  <TORSDO>
F 3

$$$$
=
 OpenBabel10262423533D

 34 39  0  0  1  0  0  0  0  0999 V2000
  184.0450  178.8740  141.8660 C   0  0  0  0  0  0  0  0  0  0  0  0
  185.5830  178.1060  143.5950 C   0  0  0  0  0  0  0  0  0  0  0  0
  186.3540  178.2320  141.1110 C   0  0  0  0  0  0  0  0  0  0  0  0
  188.6040  177.7880  140.1980 C   0  0  0  0  0  0  0  0  0  0  0  0
  183.3260  178.7950  144.1720 C   0  0  0  0  0  3  0  0  0  0  0  0
  184.5710  178.3020  144.5400 C   0  0  0  0  0  3  0  0  0  0  0  0
  188.2860  178.4760  142.5700 N   0  0  0  0  0  0  0  0  0  0  0  0
  185.3500  178.4270  142.2210 C   0  0  0  0  0  0  0  0  0  0  0  0
  188.0220  177.6230  143.6780 C   0  0  0  0  0  0  0  0  0  0  0  0
  189.9040  177.3840  140.4790 O   0  0  0  0  0  1  0  0  0  0  0  0
  183.0610  179.0640  142.8380 C   0  0  0  0  0  3  0  0  0  0  0  0
  185.7940  178.1200  139.6950 C   0  0  2  0  0  3  0  0  0  0  0  0
  183.5960  179.0100  140.4420 C   0  0  0  0  0  2  0  0  0  0  0  0
  186.7930  177.4800  144.1450 C   0  0  0  0  0  3  0  0  0  0  0  0
  188.1910  177.7790  138.9390 C   0  0  0  0  0  3  0  0  0  0  0  0
  186.8340  178.2830  138.5750 C   0  0  1  0  0  3  0  0  0  0  0  0
  189.3960  179.3310  142.6160 N   0  0  0  0  0  1  0  0  0  0  0  0
  187.6960  178.1760  141.3040 C   0  0  0  0  0  0  0  0  0  0  0  0
  184.7570  179.2130  139.4920 C   0  0  0  0  0  2  0  0  0  0  0  0
  185.0210  176.0750  136.0590 C   0  0  0  0  0  0  0  0  0  0  0  0
  185.5210  176.5760  134.8540 C   0  0  0  0  0  3  0  0  0  0  0  0
  186.3680  177.6790  137.2860 C   0  0  0  0  0  0  0  0  0  0  0  0
  186.4430  177.6280  134.8630 C   0  0  0  0  0  3  0  0  0  0  0  0
  185.4430  176.6230  137.2740 C   0  0  0  0  0  3  0  0  0  0  0  0
  186.8660  178.1770  136.0780 C   0  0  0  0  0  3  0  0  0  0  0  0
  184.1280  175.0560  136.0510 F   0  0  0  0  0  0  0  0  0  0  0  0
  189.1490  176.9690  144.4120 C   0  0  0  0  0  2  0  0  0  0  0  0
  191.9100  177.8860  143.7680 C   0  0  0  0  0  1  0  0  0  0  0  0
  189.8880  177.9530  145.2070 N   0  0  0  0  0  0  0  0  0  0  0  0
  191.3380  177.6870  145.1610 C   0  0  1  0  0  3  0  0  0  0  0  0
  190.8150  175.8880  146.8850 C   0  0  0  0  0  2  0  0  0  0  0  0
  190.2130  177.1020  147.5760 C   0  0  0  0  0  2  0  0  0  0  0  0
  189.3660  177.9210  146.5880 C   0  0  0  0  0  2  0  0  0  0  0  0
  191.7210  176.3100  145.7270 C   0  0  0  0  0  2  0  0  0  0  0  0
  1  8  2  0  0  0  0
  1 11  1  0  0  0  0
  2 14  1  0  0  0  0
  2  6  2  0  0  0  0
  3 18  2  0  0  0  0
  3  8  1  0  0  0  0
  4 10  1  0  0  0  0
  4 18  1  0  0  0  0
  5  6  1  0  0  0  0
  7 17  1  0  0  0  0
  7  9  1  0  0  0  0
  8  2  1  0  0  0  0
  9 14  2  0  0  0  0
  9 27  1  0  0  0  0
 11  5  2  0  0  0  0
 12 19  1  6  0  0  0
 12  3  1  0  0  0  0
 13  1  1  0  0  0  0
 15  4  2  0  0  0  0
 16 22  1  6  0  0  0
 16 15  1  0  0  0  0
 16 12  1  0  0  0  0
 18  7  1  0  0  0  0
 19 13  1  0  0  0  0
 20 24  1  0  0  0  0
 21 23  1  0  0  0  0
 21 20  2  0  0  0  0
 23 25  2  0  0  0  0
 24 22  2  0  0  0  0
 25 22  1  0  0  0  0
 26 20  1  0  0  0  0
 27 29  1  0  0  0  0
 29 33  1  0  0  0  0
 30 28  1  6  0  0  0
 30 29  1  0  0  0  0
 30 34  1  0  0  0  0
 31 32  1  0  0  0  0
 33 32  1  0  0  0  0
 34 31  1  0  0  0  0
M  END
>  <MODEL>
9

>  <REMARK>
 VINA RESULT:      -9.0      2.908      5.994
  Name = 
  3 active torsions:
  status: ('A' for Active; 'I' for Inactive)
    1  A    between atoms: C_3  and  N_13
    2  A    between atoms: C_3  and  C_17
    3  A    between atoms: C_12  and  C_28
                            x       y       z     vdW  Elec       q    Type
                         _______ _______ _______ _____ _____    ______ ____

>  <TORSDO>
F 3

$$$$
