=
 OpenBabel10272413313D

 32 36  0  0  1  0  0  0  0  0999 V2000
  189.0460  177.0840  142.2890 C   0  0  0  0  0  0  0  0  0  0  0  0
  191.2340  176.9460  146.5590 C   0  0  0  0  0  3  0  0  0  0  0  0
  190.0140  177.0280  147.1550 N   0  0  0  0  0  0  0  0  0  0  0  0
  190.6270  176.9730  140.8660 N   0  0  0  0  0  0  0  0  0  0  0  0
  191.2210  176.9340  142.0880 C   0  0  0  0  0  3  0  0  0  0  0  0
  191.3400  176.9350  145.1670 C   0  0  0  0  0  3  0  0  0  0  0  0
  190.1980  177.0070  143.0100 C   0  0  0  0  0  0  0  0  0  0  0  0
  190.1760  177.0120  144.4000 C   0  0  0  0  0  0  0  0  0  0  0  0
  187.7320  177.1780  144.2360 C   0  0  0  0  0  0  0  0  0  0  0  0
  188.8630  177.1040  146.4320 C   0  0  0  0  0  3  0  0  0  0  0  0
  188.9090  177.1000  145.0320 C   0  0  0  0  0  0  0  0  0  0  0  0
  189.3030  177.0640  140.9740 N   0  0  0  0  0  0  0  0  0  0  0  0
  187.8250  177.1690  142.8700 N   0  0  0  0  0  0  0  0  0  0  0  0
  191.1850  176.5250  137.1980 C   0  0  0  0  0  3  0  0  0  0  0  0
  190.5670  176.8470  138.3390 C   0  0  0  0  0  3  0  0  0  0  0  0
  193.4000  176.9600  138.2640 C   0  0  0  0  0  2  0  0  0  0  0  0
  191.3230  176.9240  139.6100 C   0  0  0  0  0  0  0  0  0  0  0  0
  192.6640  176.9330  139.5760 C   0  0  0  0  0  3  0  0  0  0  0  0
  192.6420  176.1520  137.2040 C   0  0  2  0  0  3  0  0  0  0  0  0
  193.1990  176.3740  135.9140 O   0  0  0  0  0  0  0  0  0  0  0  0
  194.5760  176.3890  135.6870 C   0  0  0  0  0  0  0  0  0  0  0  0
  195.2570  175.3320  135.7770 O   0  0  0  0  0  0  0  0  0  0  0  0
  195.2160  177.6100  135.3370 N   0  0  0  0  0  1  0  0  0  0  0  0
  186.3780  177.2780  144.8660 C   0  0  0  0  0  2  0  0  0  0  0  0
  184.6910  178.9020  143.8210 C   0  0  1  0  0  3  0  0  0  0  0  0
  185.1380  179.0090  146.0770 C   0  0  0  0  0  0  0  0  0  0  0  0
  183.7470  179.0690  145.8840 N   0  0  0  0  0  2  0  0  0  0  0  0
  183.4140  178.8180  144.5470 N   0  0  0  0  0  2  0  0  0  0  0  0
  185.6860  179.2040  147.1940 O   0  0  0  0  0  0  0  0  0  0  0  0
  185.8520  178.7160  144.8260 C   0  0  1  0  0  3  0  0  0  0  0  0
  184.6960  177.9850  142.6340 C   0  0  0  0  0  3  0  0  0  0  0  0
  184.0810  178.3320  141.5060 C   0  0  0  0  0  2  0  0  0  0  0  0
  1 13  1  0  0  0  0
  1  7  1  0  0  0  0
  2  3  1  0  0  0  0
  4 12  1  0  0  0  0
  4  5  1  0  0  0  0
  5  7  2  0  0  0  0
  6  2  2  0  0  0  0
  7  8  1  0  0  0  0
  8 11  2  0  0  0  0
  8  6  1  0  0  0  0
  9 24  1  0  0  0  0
  9 11  1  0  0  0  0
 10  3  2  0  0  0  0
 11 10  1  0  0  0  0
 12  1  2  0  0  0  0
 13  9  2  0  0  0  0
 14 19  1  0  0  0  0
 14 15  2  0  0  0  0
 15 17  1  0  0  0  0
 16 18  1  0  0  0  0
 17  4  1  0  0  0  0
 18 17  2  0  0  0  0
 19 20  1  6  0  0  0
 19 16  1  0  0  0  0
 21 22  2  0  0  0  0
 21 20  1  0  0  0  0
 23 21  1  0  0  0  0
 25 31  1  6  0  0  0
 25 28  1  0  0  0  0
 25 30  1  0  0  0  0
 26 29  2  0  0  0  0
 27 26  1  0  0  0  0
 28 27  1  0  0  0  0
 30 24  1  1  0  0  0
 30 26  1  0  0  0  0
 32 31  2  0  0  0  0
M  END
>  <MODEL>
1

>  <REMARK>
 VINA RESULT:      -9.5      0.000      0.000
  Name = 
  6 active torsions:
  status: ('A' for Active; 'I' for Inactive)
    1  A    between atoms: C_1  and  O_10
    2  A    between atoms: C_6  and  C_7
    3  A    between atoms: N_8  and  C_21
    4  A    between atoms: O_10  and  C_24
    5  A    between atoms: C_16  and  C_27
    6  A    between atoms: C_27  and  C_32
                            x       y       z     vdW  Elec       q    Type
                         _______ _______ _______ _____ _____    ______ ____

>  <TORSDO>
F 6

$$$$
=
 OpenBabel10272413313D

 32 36  0  0  1  0  0  0  0  0999 V2000
  185.5400  178.1980  142.4750 C   0  0  0  0  0  0  0  0  0  0  0  0
  181.0290  179.0620  143.8720 C   0  0  0  0  0  3  0  0  0  0  0  0
  180.6600  179.0940  142.5630 N   0  0  0  0  0  0  0  0  0  0  0  0
  186.6470  178.0400  144.2880 N   0  0  0  0  0  0  0  0  0  0  0  0
  185.3620  178.2840  144.6560 C   0  0  0  0  0  3  0  0  0  0  0  0
  182.3600  178.8260  144.2250 C   0  0  0  0  0  3  0  0  0  0  0  0
  184.6440  178.3880  143.4830 C   0  0  0  0  0  0  0  0  0  0  0  0
  183.3010  178.6280  143.2140 C   0  0  0  0  0  0  0  0  0  0  0  0
  183.8780  178.4620  140.8330 C   0  0  0  0  0  0  0  0  0  0  0  0
  181.5580  178.9030  141.5580 C   0  0  0  0  0  3  0  0  0  0  0  0
  182.9060  178.6660  141.8520 C   0  0  0  0  0  0  0  0  0  0  0  0
  186.7690  177.9850  142.9640 N   0  0  0  0  0  0  0  0  0  0  0  0
  185.1850  178.2310  141.1680 N   0  0  0  0  0  0  0  0  0  0  0  0
  190.1550  177.5240  145.4700 C   0  0  0  0  0  3  0  0  0  0  0  0
  189.1410  177.9540  144.7120 C   0  0  0  0  0  3  0  0  0  0  0  0
  188.6580  177.4890  147.4680 C   0  0  0  0  0  2  0  0  0  0  0  0
  187.7440  177.8630  145.1980 C   0  0  0  0  0  0  0  0  0  0  0  0
  187.5170  177.5990  146.4930 C   0  0  0  0  0  3  0  0  0  0  0  0
  189.8850  176.8620  146.7930 C   0  0  2  0  0  3  0  0  0  0  0  0
  191.0280  176.9790  147.6300 O   0  0  0  0  0  0  0  0  0  0  0  0
  192.0920  176.0760  147.5740 C   0  0  0  0  0  0  0  0  0  0  0  0
  192.2100  175.2750  146.6070 O   0  0  0  0  0  0  0  0  0  0  0  0
  193.0620  176.0710  148.6140 N   0  0  0  0  0  1  0  0  0  0  0  0
  183.5010  178.5010  139.3850 C   0  0  0  0  0  2  0  0  0  0  0  0
  182.7060  176.4780  138.0260 C   0  0  1  0  0  3  0  0  0  0  0  0
  184.6680  177.5410  137.4580 C   0  0  0  0  0  0  0  0  0  0  0  0
  183.9180  177.3110  136.2910 N   0  0  0  0  0  2  0  0  0  0  0  0
  182.6360  176.8400  136.6020 N   0  0  0  0  0  2  0  0  0  0  0  0
  185.8540  177.9630  137.4400 O   0  0  0  0  0  0  0  0  0  0  0  0
  183.9060  177.2090  138.6710 C   0  0  1  0  0  3  0  0  0  0  0  0
  181.3790  176.6760  138.6960 C   0  0  0  0  0  3  0  0  0  0  0  0
  180.9300  175.7930  139.5850 C   0  0  0  0  0  2  0  0  0  0  0  0
  1 12  2  0  0  0  0
  1  7  1  0  0  0  0
  2  6  1  0  0  0  0
  3  2  2  0  0  0  0
  4  5  1  0  0  0  0
  4 17  1  0  0  0  0
  7  5  2  0  0  0  0
  8  7  1  0  0  0  0
  8  6  2  0  0  0  0
  9 13  2  0  0  0  0
  9 11  1  0  0  0  0
 10 11  2  0  0  0  0
 10  3  1  0  0  0  0
 11  8  1  0  0  0  0
 12  4  1  0  0  0  0
 13  1  1  0  0  0  0
 14 19  1  0  0  0  0
 15 17  1  0  0  0  0
 15 14  2  0  0  0  0
 17 18  2  0  0  0  0
 18 16  1  0  0  0  0
 19 16  1  0  0  0  0
 19 20  1  1  0  0  0
 21 20  1  0  0  0  0
 21 23  1  0  0  0  0
 22 21  2  0  0  0  0
 24  9  1  0  0  0  0
 25 30  1  0  0  0  0
 25 31  1  1  0  0  0
 26 30  1  0  0  0  0
 27 28  1  0  0  0  0
 27 26  1  0  0  0  0
 28 25  1  0  0  0  0
 29 26  2  0  0  0  0
 30 24  1  6  0  0  0
 31 32  2  0  0  0  0
M  END
>  <MODEL>
2

>  <REMARK>
 VINA RESULT:      -8.9      5.023      8.320
  Name = 
  6 active torsions:
  status: ('A' for Active; 'I' for Inactive)
    1  A    between atoms: C_1  and  O_10
    2  A    between atoms: C_6  and  C_7
    3  A    between atoms: N_8  and  C_21
    4  A    between atoms: O_10  and  C_24
    5  A    between atoms: C_16  and  C_27
    6  A    between atoms: C_27  and  C_32
                            x       y       z     vdW  Elec       q    Type
                         _______ _______ _______ _____ _____    ______ ____

>  <TORSDO>
F 6

$$$$
=
 OpenBabel10272413313D

 32 36  0  0  1  0  0  0  0  0999 V2000
  186.7990  178.2850  141.8040 C   0  0  0  0  0  0  0  0  0  0  0  0
  182.0630  178.8250  142.3810 C   0  0  0  0  0  3  0  0  0  0  0  0
  181.9430  178.9530  141.0310 N   0  0  0  0  0  0  0  0  0  0  0  0
  187.5580  178.0210  143.7770 N   0  0  0  0  0  0  0  0  0  0  0  0
  186.2140  178.1760  143.9110 C   0  0  0  0  0  3  0  0  0  0  0  0
  183.3170  178.6190  142.9600 C   0  0  0  0  0  3  0  0  0  0  0  0
  185.7210  178.3480  142.6350 C   0  0  0  0  0  0  0  0  0  0  0  0
  184.4400  178.5500  142.1340 C   0  0  0  0  0  0  0  0  0  0  0  0
  185.4580  178.6150  139.9000 C   0  0  0  0  0  0  0  0  0  0  0  0
  183.0210  178.8900  140.2030 C   0  0  0  0  0  3  0  0  0  0  0  0
  184.3030  178.6880  140.7290 C   0  0  0  0  0  0  0  0  0  0  0  0
  187.9260  178.0860  142.4990 N   0  0  0  0  0  0  0  0  0  0  0  0
  186.6920  178.4140  140.4590 N   0  0  0  0  0  0  0  0  0  0  0  0
  190.7980  177.4470  145.5480 C   0  0  0  0  0  3  0  0  0  0  0  0
  189.9370  177.9020  144.6320 C   0  0  0  0  0  3  0  0  0  0  0  0
  188.9710  177.3880  147.2490 C   0  0  0  0  0  2  0  0  0  0  0  0
  188.4760  177.8150  144.8620 C   0  0  0  0  0  0  0  0  0  0  0  0
  188.0210  177.5290  146.0900 C   0  0  0  0  0  3  0  0  0  0  0  0
  190.2940  176.7630  146.7890 C   0  0  2  0  0  3  0  0  0  0  0  0
  191.2720  176.8520  147.8170 O   0  0  0  0  0  0  0  0  0  0  0  0
  192.3830  176.0080  147.8670 C   0  0  0  0  0  0  0  0  0  0  0  0
  192.5630  175.1230  146.9870 O   0  0  0  0  0  0  0  0  0  0  0  0
  193.3300  176.1580  148.9180 N   0  0  0  0  0  1  0  0  0  0  0  0
  185.3540  178.7620  138.4150 C   0  0  0  0  0  2  0  0  0  0  0  0
  185.5370  176.8590  136.7070 C   0  0  1  0  0  3  0  0  0  0  0  0
  187.1270  178.5230  136.7420 C   0  0  0  0  0  0  0  0  0  0  0  0
  186.7400  178.2900  135.4120 N   0  0  0  0  0  2  0  0  0  0  0  0
  185.6420  177.4230  135.3520 N   0  0  0  0  0  2  0  0  0  0  0  0
  188.0940  179.2660  137.0560 O   0  0  0  0  0  0  0  0  0  0  0  0
  186.2860  177.7830  137.6940 C   0  0  1  0  0  3  0  0  0  0  0  0
  184.1100  176.5480  137.0510 C   0  0  0  0  0  3  0  0  0  0  0  0
  183.7940  175.4130  137.6690 C   0  0  0  0  0  2  0  0  0  0  0  0
  1 12  2  0  0  0  0
  1  7  1  0  0  0  0
  2  6  1  0  0  0  0
  3  2  2  0  0  0  0
  4  5  1  0  0  0  0
  4 17  1  0  0  0  0
  7  5  2  0  0  0  0
  8  7  1  0  0  0  0
  8  6  2  0  0  0  0
  9 13  2  0  0  0  0
  9 11  1  0  0  0  0
 10 11  2  0  0  0  0
 10  3  1  0  0  0  0
 11  8  1  0  0  0  0
 12  4  1  0  0  0  0
 13  1  1  0  0  0  0
 14 19  1  0  0  0  0
 15 17  1  0  0  0  0
 15 14  2  0  0  0  0
 17 18  2  0  0  0  0
 18 16  1  0  0  0  0
 19 16  1  0  0  0  0
 19 20  1  1  0  0  0
 20 21  1  0  0  0  0
 21 23  1  0  0  0  0
 22 21  2  0  0  0  0
 24  9  1  0  0  0  0
 25 31  1  1  0  0  0
 25 30  1  0  0  0  0
 26 29  2  0  0  0  0
 26 30  1  0  0  0  0
 27 26  1  0  0  0  0
 28 27  1  0  0  0  0
 28 25  1  0  0  0  0
 30 24  1  6  0  0  0
 31 32  2  0  0  0  0
M  END
>  <MODEL>
3

>  <REMARK>
 VINA RESULT:      -8.6      4.180      8.315
  Name = 
  6 active torsions:
  status: ('A' for Active; 'I' for Inactive)
    1  A    between atoms: C_1  and  O_10
    2  A    between atoms: C_6  and  C_7
    3  A    between atoms: N_8  and  C_21
    4  A    between atoms: O_10  and  C_24
    5  A    between atoms: C_16  and  C_27
    6  A    between atoms: C_27  and  C_32
                            x       y       z     vdW  Elec       q    Type
                         _______ _______ _______ _____ _____    ______ ____

>  <TORSDO>
F 6

$$$$
=
 OpenBabel10272413313D

 32 36  0  0  1  0  0  0  0  0999 V2000
  189.4090  176.8820  141.6520 C   0  0  0  0  0  0  0  0  0  0  0  0
  185.2140  179.1640  141.1620 C   0  0  0  0  0  3  0  0  0  0  0  0
  184.9660  178.9310  142.4790 N   0  0  0  0  0  0  0  0  0  0  0  0
  190.2980  176.9610  139.7180 N   0  0  0  0  0  0  0  0  0  0  0  0
  189.1060  177.6030  139.6070 C   0  0  0  0  0  3  0  0  0  0  0  0
  186.4020  178.7180  140.5770 C   0  0  0  0  0  3  0  0  0  0  0  0
  188.5280  177.5520  140.8580 C   0  0  0  0  0  0  0  0  0  0  0  0
  187.3250  178.0280  141.3660 C   0  0  0  0  0  0  0  0  0  0  0  0
  188.0050  177.0830  143.5270 C   0  0  0  0  0  0  0  0  0  0  0  0
  185.8490  178.2610  143.2700 C   0  0  0  0  0  3  0  0  0  0  0  0
  187.0540  177.7880  142.7370 C   0  0  0  0  0  0  0  0  0  0  0  0
  190.4950  176.5170  140.9570 N   0  0  0  0  0  0  0  0  0  0  0  0
  189.1720  176.6400  142.9640 N   0  0  0  0  0  0  0  0  0  0  0  0
  191.5830  176.1520  136.3030 C   0  0  0  0  0  3  0  0  0  0  0  0
  190.7570  176.5960  137.2550 C   0  0  0  0  0  3  0  0  0  0  0  0
  193.5460  176.6310  137.7690 C   0  0  0  0  0  2  0  0  0  0  0  0
  191.2360  176.7750  138.6460 C   0  0  0  0  0  0  0  0  0  0  0  0
  192.5540  176.7470  138.8940 C   0  0  0  0  0  3  0  0  0  0  0  0
  192.9890  175.7440  136.6480 C   0  0  2  0  0  3  0  0  0  0  0  0
  193.8100  175.8290  135.4900 O   0  0  0  0  0  0  0  0  0  0  0  0
  195.0880  176.3900  135.5180 C   0  0  0  0  0  0  0  0  0  0  0  0
  196.0800  175.7190  135.9130 O   0  0  0  0  0  0  0  0  0  0  0  0
  195.2740  177.7310  135.0850 N   0  0  0  0  0  1  0  0  0  0  0  0
  187.7530  176.8050  144.9760 C   0  0  0  0  0  2  0  0  0  0  0  0
  187.6930  178.1690  147.1460 C   0  0  1  0  0  3  0  0  0  0  0  0
  189.6510  177.1520  146.4850 C   0  0  0  0  0  0  0  0  0  0  0  0
  189.4480  176.9050  147.8540 N   0  0  0  0  0  2  0  0  0  0  0  0
  188.1800  177.3400  148.2600 N   0  0  0  0  0  2  0  0  0  0  0  0
  190.7160  176.8540  145.8840 O   0  0  0  0  0  0  0  0  0  0  0  0
  188.4880  177.8080  145.8700 C   0  0  1  0  0  3  0  0  0  0  0  0
  186.2000  178.0950  147.0340 C   0  0  0  0  0  3  0  0  0  0  0  0
  185.4880  179.1760  146.7260 C   0  0  0  0  0  2  0  0  0  0  0  0
  1 13  1  0  0  0  0
  2  3  1  0  0  0  0
  3 10  2  0  0  0  0
  4 12  1  0  0  0  0
  5  4  1  0  0  0  0
  5  7  2  0  0  0  0
  6  2  2  0  0  0  0
  6  8  1  0  0  0  0
  7  8  1  0  0  0  0
  7  1  1  0  0  0  0
  8 11  2  0  0  0  0
  9 24  1  0  0  0  0
 11 10  1  0  0  0  0
 11  9  1  0  0  0  0
 12  1  2  0  0  0  0
 13  9  2  0  0  0  0
 14 19  1  0  0  0  0
 14 15  2  0  0  0  0
 15 17  1  0  0  0  0
 16 18  1  0  0  0  0
 17 18  2  0  0  0  0
 17  4  1  0  0  0  0
 19 20  1  6  0  0  0
 19 16  1  0  0  0  0
 20 21  1  0  0  0  0
 21 22  2  0  0  0  0
 23 21  1  0  0  0  0
 25 31  1  6  0  0  0
 25 28  1  0  0  0  0
 26 27  1  0  0  0  0
 27 28  1  0  0  0  0
 29 26  2  0  0  0  0
 30 24  1  6  0  0  0
 30 26  1  0  0  0  0
 30 25  1  0  0  0  0
 32 31  2  0  0  0  0
M  END
>  <MODEL>
4

>  <REMARK>
 VINA RESULT:      -8.4      1.721      3.830
  Name = 
  6 active torsions:
  status: ('A' for Active; 'I' for Inactive)
    1  A    between atoms: C_1  and  O_10
    2  A    between atoms: C_6  and  C_7
    3  A    between atoms: N_8  and  C_21
    4  A    between atoms: O_10  and  C_24
    5  A    between atoms: C_16  and  C_27
    6  A    between atoms: C_27  and  C_32
                            x       y       z     vdW  Elec       q    Type
                         _______ _______ _______ _____ _____    ______ ____

>  <TORSDO>
F 6

$$$$
=
 OpenBabel10272413313D

 32 36  0  0  1  0  0  0  0  0999 V2000
  185.5360  178.0370  142.3610 C   0  0  0  0  0  0  0  0  0  0  0  0
  185.0310  178.6440  147.0960 C   0  0  0  0  0  3  0  0  0  0  0  0
  186.2610  178.0890  147.2700 N   0  0  0  0  0  0  0  0  0  0  0  0
  183.7360  178.8080  141.5210 N   0  0  0  0  0  0  0  0  0  0  0  0
  183.6200  178.9690  142.8660 C   0  0  0  0  0  3  0  0  0  0  0  0
  184.4970  178.7910  145.8140 C   0  0  0  0  0  3  0  0  0  0  0  0
  184.7840  178.4690  143.4110 C   0  0  0  0  0  0  0  0  0  0  0  0
  185.2450  178.3580  144.7180 C   0  0  0  0  0  0  0  0  0  0  0  0
  187.2750  177.3410  143.7820 C   0  0  0  0  0  0  0  0  0  0  0  0
  187.0110  177.6590  146.2180 C   0  0  0  0  0  3  0  0  0  0  0  0
  186.5260  177.7780  144.9100 C   0  0  0  0  0  0  0  0  0  0  0  0
  184.8980  178.2410  141.2010 N   0  0  0  0  0  0  0  0  0  0  0  0
  186.7610  177.4800  142.5210 N   0  0  0  0  0  0  0  0  0  0  0  0
  182.2590  180.3580  138.4590 C   0  0  0  0  0  3  0  0  0  0  0  0
  183.1510  179.7460  139.2450 C   0  0  0  0  0  3  0  0  0  0  0  0
  180.3930  179.3910  139.8070 C   0  0  0  0  0  2  0  0  0  0  0  0
  182.7440  179.1920  140.5570 C   0  0  0  0  0  0  0  0  0  0  0  0
  181.4390  179.0650  140.8390 C   0  0  0  0  0  3  0  0  0  0  0  0
  180.8470  180.5670  138.9330 C   0  0  2  0  0  3  0  0  0  0  0  0
  179.9830  180.7200  137.8130 O   0  0  0  0  0  0  0  0  0  0  0  0
  180.1960  181.6880  136.8300 C   0  0  0  0  0  0  0  0  0  0  0  0
  180.4360  181.3560  135.6380 O   0  0  0  0  0  0  0  0  0  0  0  0
  180.1290  183.0650  137.1770 N   0  0  0  0  0  1  0  0  0  0  0  0
  188.6270  176.7190  143.9460 C   0  0  0  0  0  2  0  0  0  0  0  0
  190.9430  177.5420  144.6730 C   0  0  1  0  0  3  0  0  0  0  0  0
  190.4000  177.4760  142.4360 C   0  0  0  0  0  0  0  0  0  0  0  0
  191.6820  176.9280  142.6120 N   0  0  0  0  0  2  0  0  0  0  0  0
  191.9810  176.7720  143.9710 N   0  0  0  0  0  2  0  0  0  0  0  0
  189.9050  177.7170  141.3040 O   0  0  0  0  0  0  0  0  0  0  0  0
  189.7400  177.7460  143.7220 C   0  0  1  0  0  3  0  0  0  0  0  0
  190.6300  176.9320  146.0070 C   0  0  0  0  0  3  0  0  0  0  0  0
  191.6080  176.5320  146.8160 C   0  0  0  0  0  2  0  0  0  0  0  0
  1 13  1  0  0  0  0
  1  7  1  0  0  0  0
  2  3  1  0  0  0  0
  4  5  1  0  0  0  0
  5  7  2  0  0  0  0
  6  2  2  0  0  0  0
  7  8  1  0  0  0  0
  8 11  2  0  0  0  0
  8  6  1  0  0  0  0
  9 24  1  0  0  0  0
  9 11  1  0  0  0  0
 10  3  2  0  0  0  0
 11 10  1  0  0  0  0
 12  4  1  0  0  0  0
 12  1  2  0  0  0  0
 13  9  2  0  0  0  0
 14 19  1  0  0  0  0
 14 15  2  0  0  0  0
 15 17  1  0  0  0  0
 16 18  1  0  0  0  0
 17 18  2  0  0  0  0
 17  4  1  0  0  0  0
 19 20  1  6  0  0  0
 19 16  1  0  0  0  0
 21 23  1  0  0  0  0
 21 20  1  0  0  0  0
 22 21  2  0  0  0  0
 25 31  1  1  0  0  0
 26 27  1  0  0  0  0
 26 30  1  0  0  0  0
 27 28  1  0  0  0  0
 28 25  1  0  0  0  0
 29 26  2  0  0  0  0
 30 24  1  1  0  0  0
 30 25  1  0  0  0  0
 31 32  2  0  0  0  0
M  END
>  <MODEL>
5

>  <REMARK>
 VINA RESULT:      -8.4      4.325      8.734
  Name = 
  6 active torsions:
  status: ('A' for Active; 'I' for Inactive)
    1  A    between atoms: C_1  and  O_10
    2  A    between atoms: C_6  and  C_7
    3  A    between atoms: N_8  and  C_21
    4  A    between atoms: O_10  and  C_24
    5  A    between atoms: C_16  and  C_27
    6  A    between atoms: C_27  and  C_32
                            x       y       z     vdW  Elec       q    Type
                         _______ _______ _______ _____ _____    ______ ____

>  <TORSDO>
F 6

$$$$
=
 OpenBabel10272413313D

 32 36  0  0  1  0  0  0  0  0999 V2000
  190.1210  176.9360  140.0220 C   0  0  0  0  0  0  0  0  0  0  0  0
  187.7500  178.0360  135.9950 C   0  0  0  0  0  3  0  0  0  0  0  0
  188.8200  177.5950  135.2790 N   0  0  0  0  0  0  0  0  0  0  0  0
  188.7880  177.4670  141.5970 N   0  0  0  0  0  0  0  0  0  0  0  0
  188.1390  177.7680  140.4410 C   0  0  0  0  0  3  0  0  0  0  0  0
  187.7710  177.9960  137.3910 C   0  0  0  0  0  3  0  0  0  0  0  0
  189.0010  177.4260  139.4210 C   0  0  0  0  0  0  0  0  0  0  0  0
  188.9040  177.4990  138.0360 C   0  0  0  0  0  0  0  0  0  0  0  0
  191.1630  176.5400  137.9520 C   0  0  0  0  0  0  0  0  0  0  0  0
  189.9370  177.1050  135.8820 C   0  0  0  0  0  3  0  0  0  0  0  0
  190.0150  177.0430  137.2790 C   0  0  0  0  0  0  0  0  0  0  0  0
  189.9950  176.9600  141.3550 N   0  0  0  0  0  0  0  0  0  0  0  0
  191.1930  176.4970  139.3200 N   0  0  0  0  0  0  0  0  0  0  0  0
  188.6830  177.6610  145.3270 C   0  0  0  0  0  3  0  0  0  0  0  0
  189.1630  177.7550  144.0830 C   0  0  0  0  0  3  0  0  0  0  0  0
  186.3680  178.0420  144.4730 C   0  0  0  0  0  2  0  0  0  0  0  0
  188.2560  177.6650  142.9160 C   0  0  0  0  0  0  0  0  0  0  0  0
  186.9310  177.7570  143.1070 C   0  0  0  0  0  3  0  0  0  0  0  0
  187.2250  177.3770  145.5580 C   0  0  2  0  0  3  0  0  0  0  0  0
  186.8440  177.8400  146.8470 O   0  0  0  0  0  0  0  0  0  0  0  0
  185.8210  178.7710  147.0360 C   0  0  0  0  0  0  0  0  0  0  0  0
  186.0720  179.9270  147.4710 O   0  0  0  0  0  0  0  0  0  0  0  0
  184.4810  178.4140  146.7210 N   0  0  0  0  0  1  0  0  0  0  0  0
  192.3570  176.0560  137.1890 C   0  0  0  0  0  2  0  0  0  0  0  0
  192.6880  173.5630  136.6900 C   0  0  1  0  0  3  0  0  0  0  0  0
  194.3110  174.7290  137.8350 C   0  0  0  0  0  0  0  0  0  0  0  0
  194.9250  173.9480  136.8410 N   0  0  0  0  0  2  0  0  0  0  0  0
  193.9700  173.3680  135.9960 N   0  0  0  0  0  2  0  0  0  0  0  0
  194.9580  175.3500  138.7190 O   0  0  0  0  0  0  0  0  0  0  0  0
  192.8450  174.7060  137.7210 C   0  0  1  0  0  3  0  0  0  0  0  0
  191.5630  173.7130  135.7090 C   0  0  0  0  0  3  0  0  0  0  0  0
  190.3650  173.1950  135.9680 C   0  0  0  0  0  2  0  0  0  0  0  0
  1 12  2  0  0  0  0
  2  6  1  0  0  0  0
  3 10  1  0  0  0  0
  3  2  2  0  0  0  0
  4 17  1  0  0  0  0
  5  4  1  0  0  0  0
  6  8  2  0  0  0  0
  7  1  1  0  0  0  0
  7  5  2  0  0  0  0
  8  7  1  0  0  0  0
  9 13  2  0  0  0  0
 10 11  2  0  0  0  0
 11  9  1  0  0  0  0
 11  8  1  0  0  0  0
 12  4  1  0  0  0  0
 13  1  1  0  0  0  0
 14 19  1  0  0  0  0
 15 14  2  0  0  0  0
 16 19  1  0  0  0  0
 17 18  2  0  0  0  0
 17 15  1  0  0  0  0
 18 16  1  0  0  0  0
 19 20  1  1  0  0  0
 20 21  1  0  0  0  0
 21 22  2  0  0  0  0
 23 21  1  0  0  0  0
 24  9  1  0  0  0  0
 25 31  1  6  0  0  0
 25 30  1  0  0  0  0
 26 29  2  0  0  0  0
 27 26  1  0  0  0  0
 28 25  1  0  0  0  0
 28 27  1  0  0  0  0
 30 24  1  6  0  0  0
 30 26  1  0  0  0  0
 31 32  2  0  0  0  0
M  END
>  <MODEL>
6

>  <REMARK>
 VINA RESULT:      -8.2      2.357     10.085
  Name = 
  6 active torsions:
  status: ('A' for Active; 'I' for Inactive)
    1  A    between atoms: C_1  and  O_10
    2  A    between atoms: C_6  and  C_7
    3  A    between atoms: N_8  and  C_21
    4  A    between atoms: O_10  and  C_24
    5  A    between atoms: C_16  and  C_27
    6  A    between atoms: C_27  and  C_32
                            x       y       z     vdW  Elec       q    Type
                         _______ _______ _______ _____ _____    ______ ____

>  <TORSDO>
F 6

$$$$
=
 OpenBabel10272413313D

 32 36  0  0  1  0  0  0  0  0999 V2000
  188.3950  177.9000  140.1710 C   0  0  0  0  0  0  0  0  0  0  0  0
  188.8340  176.8720  144.8400 C   0  0  0  0  0  3  0  0  0  0  0  0
  187.6280  177.4640  145.0540 N   0  0  0  0  0  0  0  0  0  0  0  0
  190.1660  177.1250  139.2770 N   0  0  0  0  0  0  0  0  0  0  0  0
  190.2650  176.8460  140.6030 C   0  0  0  0  0  3  0  0  0  0  0  0
  189.3710  176.8110  143.5520 C   0  0  0  0  0  3  0  0  0  0  0  0
  189.1190  177.3480  141.1830 C   0  0  0  0  0  0  0  0  0  0  0  0
  188.6520  177.3680  142.4930 C   0  0  0  0  0  0  0  0  0  0  0  0
  186.6760  178.5490  141.6380 C   0  0  0  0  0  0  0  0  0  0  0  0
  186.9060  178.0140  144.0400 C   0  0  0  0  0  3  0  0  0  0  0  0
  187.3960  177.9850  142.7280 C   0  0  0  0  0  0  0  0  0  0  0  0
  189.0330  177.7670  139.0010 N   0  0  0  0  0  0  0  0  0  0  0  0
  187.1940  178.4950  140.3720 N   0  0  0  0  0  0  0  0  0  0  0  0
  191.5850  175.9740  136.0170 C   0  0  0  0  0  3  0  0  0  0  0  0
  190.7470  176.5560  136.8790 C   0  0  0  0  0  3  0  0  0  0  0  0
  193.4870  176.3630  137.5880 C   0  0  0  0  0  2  0  0  0  0  0  0
  191.1490  176.7810  138.2880 C   0  0  0  0  0  0  0  0  0  0  0  0
  192.4390  176.6460  138.6300 C   0  0  0  0  0  3  0  0  0  0  0  0
  192.9190  175.4600  136.4850 C   0  0  2  0  0  3  0  0  0  0  0  0
  193.8190  175.3900  135.3860 O   0  0  0  0  0  0  0  0  0  0  0  0
  194.7930  176.3620  135.1540 C   0  0  0  0  0  0  0  0  0  0  0  0
  194.5270  177.3970  134.4850 O   0  0  0  0  0  0  0  0  0  0  0  0
  196.0990  176.1870  135.6890 N   0  0  0  0  0  1  0  0  0  0  0  0
  185.3510  179.2140  141.8480 C   0  0  0  0  0  2  0  0  0  0  0  0
  183.0870  178.5920  142.8770 C   0  0  1  0  0  3  0  0  0  0  0  0
  183.4700  178.2180  140.6370 C   0  0  0  0  0  0  0  0  0  0  0  0
  182.2070  178.8150  140.7910 N   0  0  0  0  0  2  0  0  0  0  0  0
  182.0070  179.2350  142.1120 N   0  0  0  0  0  2  0  0  0  0  0  0
  183.8830  177.7550  139.5410 O   0  0  0  0  0  0  0  0  0  0  0  0
  184.2180  178.1860  141.9030 C   0  0  1  0  0  3  0  0  0  0  0  0
  183.4980  179.4390  144.0440 C   0  0  0  0  0  3  0  0  0  0  0  0
  183.6620  178.9000  145.2490 C   0  0  0  0  0  2  0  0  0  0  0  0
  1 13  1  0  0  0  0
  1  7  1  0  0  0  0
  2  3  1  0  0  0  0
  4  5  1  0  0  0  0
  5  7  2  0  0  0  0
  6  2  2  0  0  0  0
  7  8  1  0  0  0  0
  8 11  2  0  0  0  0
  8  6  1  0  0  0  0
  9 24  1  0  0  0  0
  9 11  1  0  0  0  0
 10  3  2  0  0  0  0
 11 10  1  0  0  0  0
 12  4  1  0  0  0  0
 12  1  2  0  0  0  0
 13  9  2  0  0  0  0
 14 19  1  0  0  0  0
 14 15  2  0  0  0  0
 15 17  1  0  0  0  0
 16 18  1  0  0  0  0
 17 18  2  0  0  0  0
 17  4  1  0  0  0  0
 19 20  1  6  0  0  0
 19 16  1  0  0  0  0
 21 20  1  0  0  0  0
 21 23  1  0  0  0  0
 22 21  2  0  0  0  0
 25 31  1  1  0  0  0
 26 27  1  0  0  0  0
 26 30  1  0  0  0  0
 27 28  1  0  0  0  0
 28 25  1  0  0  0  0
 29 26  2  0  0  0  0
 30 24  1  6  0  0  0
 30 25  1  0  0  0  0
 31 32  2  0  0  0  0
M  END
>  <MODEL>
7

>  <REMARK>
 VINA RESULT:      -8.1      2.219      3.019
  Name = 
  6 active torsions:
  status: ('A' for Active; 'I' for Inactive)
    1  A    between atoms: C_1  and  O_10
    2  A    between atoms: C_6  and  C_7
    3  A    between atoms: N_8  and  C_21
    4  A    between atoms: O_10  and  C_24
    5  A    between atoms: C_16  and  C_27
    6  A    between atoms: C_27  and  C_32
                            x       y       z     vdW  Elec       q    Type
                         _______ _______ _______ _____ _____    ______ ____

>  <TORSDO>
F 6

$$$$
=
 OpenBabel10272413313D

 32 36  0  0  1  0  0  0  0  0999 V2000
  188.0060  178.1990  140.5570 C   0  0  0  0  0  0  0  0  0  0  0  0
  183.8920  178.4640  138.0960 C   0  0  0  0  0  3  0  0  0  0  0  0
  183.2870  178.9470  139.2150 N   0  0  0  0  0  0  0  0  0  0  0  0
  189.4240  177.4400  139.1610 N   0  0  0  0  0  0  0  0  0  0  0  0
  188.2460  177.5260  138.4880 C   0  0  0  0  0  3  0  0  0  0  0  0
  185.2500  178.1400  138.1130 C   0  0  0  0  0  3  0  0  0  0  0  0
  187.3270  178.0160  139.3910 C   0  0  0  0  0  0  0  0  0  0  0  0
  185.9730  178.3160  139.2940 C   0  0  0  0  0  0  0  0  0  0  0  0
  186.0820  178.9920  141.6520 C   0  0  0  0  0  0  0  0  0  0  0  0
  183.9680  179.1290  140.3800 C   0  0  0  0  0  3  0  0  0  0  0  0
  185.3310  178.8180  140.4560 C   0  0  0  0  0  0  0  0  0  0  0  0
  189.2910  177.8460  140.4220 N   0  0  0  0  0  0  0  0  0  0  0  0
  187.4140  178.6760  141.6790 N   0  0  0  0  0  0  0  0  0  0  0  0
  191.7670  175.7830  136.7670 C   0  0  0  0  0  3  0  0  0  0  0  0
  190.7080  176.4700  137.2070 C   0  0  0  0  0  3  0  0  0  0  0  0
  193.0970  176.5530  138.7350 C   0  0  0  0  0  2  0  0  0  0  0  0
  190.6610  176.9710  138.6010 C   0  0  0  0  0  0  0  0  0  0  0  0
  191.7820  176.9690  139.3370 C   0  0  0  0  0  3  0  0  0  0  0  0
  192.8890  175.4340  137.7060 C   0  0  2  0  0  3  0  0  0  0  0  0
  194.0820  175.2100  136.9660 O   0  0  0  0  0  0  0  0  0  0  0  0
  195.2100  174.6110  137.5290 C   0  0  0  0  0  0  0  0  0  0  0  0
  196.3670  175.0360  137.2640 O   0  0  0  0  0  0  0  0  0  0  0  0
  195.0500  173.5170  138.4220 N   0  0  0  0  0  1  0  0  0  0  0  0
  185.4390  179.5130  142.8990 C   0  0  0  0  0  2  0  0  0  0  0  0
  185.3090  178.0590  145.0070 C   0  0  1  0  0  3  0  0  0  0  0  0
  183.3820  178.9230  144.0900 C   0  0  0  0  0  0  0  0  0  0  0  0
  183.3550  179.1220  145.4820 N   0  0  0  0  0  2  0  0  0  0  0  0
  184.5850  178.7850  146.0610 N   0  0  0  0  0  2  0  0  0  0  0  0
  182.3930  179.1500  143.3450 O   0  0  0  0  0  0  0  0  0  0  0  0
  184.6810  178.4050  143.6370 C   0  0  1  0  0  3  0  0  0  0  0  0
  186.7890  178.2740  145.1250 C   0  0  0  0  0  3  0  0  0  0  0  0
  187.6410  177.2860  144.8630 C   0  0  0  0  0  2  0  0  0  0  0  0
  1 13  1  0  0  0  0
  2  6  2  0  0  0  0
  2  3  1  0  0  0  0
  3 10  2  0  0  0  0
  4 12  1  0  0  0  0
  5  4  1  0  0  0  0
  5  7  2  0  0  0  0
  6  8  1  0  0  0  0
  7  1  1  0  0  0  0
  8  7  1  0  0  0  0
  8 11  2  0  0  0  0
  9 13  2  0  0  0  0
  9 24  1  0  0  0  0
 10 11  1  0  0  0  0
 11  9  1  0  0  0  0
 12  1  2  0  0  0  0
 14 15  2  0  0  0  0
 14 19  1  0  0  0  0
 15 17  1  0  0  0  0
 16 18  1  0  0  0  0
 17  4  1  0  0  0  0
 17 18  2  0  0  0  0
 19 20  1  6  0  0  0
 19 16  1  0  0  0  0
 20 21  1  0  0  0  0
 21 23  1  0  0  0  0
 22 21  2  0  0  0  0
 25 31  1  6  0  0  0
 25 28  1  0  0  0  0
 26 27  1  0  0  0  0
 27 28  1  0  0  0  0
 29 26  2  0  0  0  0
 30 24  1  1  0  0  0
 30 26  1  0  0  0  0
 30 25  1  0  0  0  0
 32 31  2  0  0  0  0
M  END
>  <MODEL>
8

>  <REMARK>
 VINA RESULT:      -8.1      2.395      4.611
  Name = 
  6 active torsions:
  status: ('A' for Active; 'I' for Inactive)
    1  A    between atoms: C_1  and  O_10
    2  A    between atoms: C_6  and  C_7
    3  A    between atoms: N_8  and  C_21
    4  A    between atoms: O_10  and  C_24
    5  A    between atoms: C_16  and  C_27
    6  A    between atoms: C_27  and  C_32
                            x       y       z     vdW  Elec       q    Type
                         _______ _______ _______ _____ _____    ______ ____

>  <TORSDO>
F 6

$$$$
=
 OpenBabel10272413313D

 32 36  0  0  1  0  0  0  0  0999 V2000
  190.2210  176.9160  139.9150 C   0  0  0  0  0  0  0  0  0  0  0  0
  187.6010  178.0860  136.0660 C   0  0  0  0  0  3  0  0  0  0  0  0
  188.6170  177.6440  135.2760 N   0  0  0  0  0  0  0  0  0  0  0  0
  189.0000  177.4400  141.5800 N   0  0  0  0  0  0  0  0  0  0  0  0
  188.2800  177.7610  140.4740 C   0  0  0  0  0  3  0  0  0  0  0  0
  187.7130  178.0290  137.4570 C   0  0  0  0  0  3  0  0  0  0  0  0
  189.0690  177.4230  139.3950 C   0  0  0  0  0  0  0  0  0  0  0  0
  188.8820  177.5140  138.0200 C   0  0  0  0  0  0  0  0  0  0  0  0
  191.1210  176.5360  137.7760 C   0  0  0  0  0  0  0  0  0  0  0  0
  189.7670  177.1370  135.7990 C   0  0  0  0  0  3  0  0  0  0  0  0
  189.9360  177.0580  137.1870 C   0  0  0  0  0  0  0  0  0  0  0  0
  190.1840  176.9250  141.2540 N   0  0  0  0  0  0  0  0  0  0  0  0
  191.2410  176.4760  139.1390 N   0  0  0  0  0  0  0  0  0  0  0  0
  189.1590  177.6540  145.3080 C   0  0  0  0  0  3  0  0  0  0  0  0
  189.5440  177.7570  144.0320 C   0  0  0  0  0  3  0  0  0  0  0  0
  186.7760  177.9430  144.6230 C   0  0  0  0  0  2  0  0  0  0  0  0
  188.5580  177.6270  142.9340 C   0  0  0  0  0  0  0  0  0  0  0  0
  187.2480  177.6710  143.2200 C   0  0  0  0  0  3  0  0  0  0  0  0
  187.7330  177.3170  145.6450 C   0  0  2  0  0  3  0  0  0  0  0  0
  187.4290  177.7740  146.9570 O   0  0  0  0  0  0  0  0  0  0  0  0
  188.1970  177.4210  148.0680 C   0  0  0  0  0  0  0  0  0  0  0  0
  188.2260  176.2300  148.4830 O   0  0  0  0  0  0  0  0  0  0  0  0
  188.9670  178.4150  148.7330 N   0  0  0  0  0  1  0  0  0  0  0  0
  192.2570  176.0510  136.9310 C   0  0  0  0  0  2  0  0  0  0  0  0
  192.6660  173.5790  136.3870 C   0  0  1  0  0  3  0  0  0  0  0  0
  194.2560  174.7770  137.5450 C   0  0  0  0  0  0  0  0  0  0  0  0
  194.8900  174.0330  136.5340 N   0  0  0  0  0  2  0  0  0  0  0  0
  193.9500  173.4370  135.6840 N   0  0  0  0  0  2  0  0  0  0  0  0
  194.8880  175.4030  138.4360 O   0  0  0  0  0  0  0  0  0  0  0  0
  192.7910  174.7080  137.4360 C   0  0  1  0  0  3  0  0  0  0  0  0
  191.5310  173.7090  135.4150 C   0  0  0  0  0  3  0  0  0  0  0  0
  190.3350  173.1980  135.6960 C   0  0  0  0  0  2  0  0  0  0  0  0
  1 12  2  0  0  0  0
  2  6  1  0  0  0  0
  3 10  1  0  0  0  0
  3  2  2  0  0  0  0
  4 17  1  0  0  0  0
  5  4  1  0  0  0  0
  6  8  2  0  0  0  0
  7  1  1  0  0  0  0
  7  5  2  0  0  0  0
  8  7  1  0  0  0  0
  9 13  2  0  0  0  0
 10 11  2  0  0  0  0
 11  9  1  0  0  0  0
 11  8  1  0  0  0  0
 12  4  1  0  0  0  0
 13  1  1  0  0  0  0
 14 19  1  0  0  0  0
 15 14  2  0  0  0  0
 16 19  1  0  0  0  0
 17 18  2  0  0  0  0
 17 15  1  0  0  0  0
 18 16  1  0  0  0  0
 19 20  1  1  0  0  0
 20 21  1  0  0  0  0
 21 22  2  0  0  0  0
 21 23  1  0  0  0  0
 24  9  1  0  0  0  0
 25 31  1  6  0  0  0
 25 30  1  0  0  0  0
 26 29  2  0  0  0  0
 27 26  1  0  0  0  0
 28 25  1  0  0  0  0
 28 27  1  0  0  0  0
 30 24  1  6  0  0  0
 30 26  1  0  0  0  0
 31 32  2  0  0  0  0
M  END
>  <MODEL>
9

>  <REMARK>
 VINA RESULT:      -7.9      2.512      9.997
  Name = 
  6 active torsions:
  status: ('A' for Active; 'I' for Inactive)
    1  A    between atoms: C_1  and  O_10
    2  A    between atoms: C_6  and  C_7
    3  A    between atoms: N_8  and  C_21
    4  A    between atoms: O_10  and  C_24
    5  A    between atoms: C_16  and  C_27
    6  A    between atoms: C_27  and  C_32
                            x       y       z     vdW  Elec       q    Type
                         _______ _______ _______ _____ _____    ______ ____

>  <TORSDO>
F 6

$$$$
