=
 OpenBabel10272401313D

 55 60  0  0  1  0  0  0  0  0999 V2000
  188.9770  178.0160  140.6620 C   0  0  0  0  0  2  0  0  0  0  0  0
  189.4430  176.6710  138.0900 C   0  0  2  0  0  3  0  0  0  0  0  0
  190.2710  176.3410  139.3280 C   0  0  0  0  0  2  0  0  0  0  0  0
  188.1500  178.3630  139.4270 C   0  0  0  0  0  2  0  0  0  0  0  0
  190.3730  177.5650  140.2390 C   0  0  2  0  0  3  0  0  0  0  0  0
  188.0470  177.1520  138.5040 C   0  0  0  0  0  2  0  0  0  0  0  0
  189.3380  175.4260  137.2230 C   0  0  0  0  0  2  0  0  0  0  0  0
  191.4230  174.7090  135.9930 N   0  0  0  0  0  2  0  0  0  0  0  0
  190.2490  175.5240  136.0480 C   0  0  0  0  0  0  0  0  0  0  0  0
  189.9640  176.3020  135.1000 O   0  0  0  0  0  0  0  0  0  0  0  0
  192.2800  174.6470  134.8180 C   0  0  0  0  0  2  0  0  0  0  0  0
  193.5190  173.8070  135.0970 C   0  0  2  0  0  3  0  0  0  0  0  0
  194.1850  171.6400  134.3470 O   0  0  0  0  0  0  0  0  0  0  0  0
  193.2370  172.3820  134.7280 C   0  0  0  0  0  0  0  0  0  0  0  0
  191.9380  171.8890  134.7260 O   0  0  0  0  0  1  0  0  0  0  0  0
  193.8900  173.9200  136.5120 N   0  0  0  0  0  2  0  0  0  0  0  0
  195.8450  174.8310  135.3510 C   0  0  1  0  0  3  0  0  0  0  0  0
  195.9930  172.7430  137.6910 F   0  0  0  0  0  0  0  0  0  0  0  0
  195.0870  174.7540  136.6960 C   0  0  2  0  0  0  0  0  0  0  0  0
  199.7450  174.7110  135.5550 C   0  0  0  0  0  3  0  0  0  0  0  0
  195.9060  174.6040  138.9830 F   0  0  0  0  0  0  0  0  0  0  0  0
  196.0870  174.1280  137.6950 C   0  0  0  0  0  0  0  0  0  0  0  0
  195.8180  176.1240  134.8090 O   0  0  0  0  0  1  0  0  0  0  0  0
  199.8500  174.1440  136.7760 C   0  0  0  0  0  3  0  0  0  0  0  0
  198.6450  173.7660  137.6090 C   0  0  0  0  0  2  0  0  0  0  0  0
  197.2700  174.3820  135.6580 C   0  0  2  0  0  3  0  0  0  0  0  0
  197.4270  174.5600  137.1460 C   0  0  1  0  0  3  0  0  0  0  0  0
  198.4140  175.1010  134.9440 C   0  0  0  0  0  2  0  0  0  0  0  0
  194.7290  176.0480  137.1150 O   0  0  0  0  0  1  0  0  0  0  0  0
  191.1930  177.2280  141.4710 C   0  0  0  0  0  2  0  0  0  0  0  0
  190.4470  176.2320  142.3400 C   0  0  0  0  0  2  0  0  0  0  0  0
  190.4370  176.7210  143.7710 C   0  0  0  0  0  2  0  0  0  0  0  0
  189.2030  176.2900  144.4210 N   0  0  0  0  0  2  0  0  0  0  0  0
  187.5830  176.8010  146.1300 C   0  0  0  0  0  2  0  0  0  0  0  0
  189.5450  177.6380  147.3020 C   0  0  1  0  0  3  0  0  0  0  0  0
  188.5090  177.3970  145.1000 C   0  0  1  0  0  0  0  0  0  0  0  0
  189.4480  178.2740  145.9210 C   0  0  0  0  0  2  0  0  0  0  0  0
  188.4100  176.6300  147.3900 C   0  0  0  0  0  2  0  0  0  0  0  0
  190.8700  176.9530  147.5100 C   0  0  0  0  0  0  0  0  0  0  0  0
  191.0260  175.6180  147.1550 O   0  0  0  0  0  0  0  0  0  0  0  0
  191.8360  177.5700  148.0330 O   0  0  0  0  0  1  0  0  0  0  0  0
  187.6540  178.2120  144.1250 C   0  0  0  0  0  2  0  0  0  0  0  0
  186.3830  177.4880  143.6760 C   0  0  0  0  0  2  0  0  0  0  0  0
  185.2840  178.4640  143.2460 C   0  0  1  0  0  3  0  0  0  0  0  0
  183.4080  179.2200  144.6980 C   0  0  0  0  0  2  0  0  0  0  0  0
  184.8820  179.4020  144.3800 C   0  0  0  0  0  3  0  0  0  0  0  0
  184.4550  178.5790  145.5740 C   0  0  0  0  0  2  0  0  0  0  0  0
  185.6960  179.2660  142.0220 C   0  0  0  0  0  2  0  0  0  0  0  0
  184.6320  179.1390  140.9470 C   0  0  0  0  0  2  0  0  0  0  0  0
  183.7730  177.9240  141.2460 C   0  0  0  0  0  2  0  0  0  0  0  0
  183.4700  177.0250  138.8640 C   0  0  0  0  0  2  0  0  0  0  0  0
  182.8540  177.6050  140.0730 C   0  0  1  0  0  0  0  0  0  0  0  0
  182.7600  176.2310  139.7930 O   0  0  0  0  0  0  0  0  0  0  0  0
  181.5170  178.3120  139.9240 C   0  0  0  0  0  2  0  0  0  0  0  0
  180.9860  178.7360  141.2800 C   0  0  0  0  0  1  0  0  0  0  0  0
  2  7  1  6  0  0  0
  2  6  1  0  0  0  0
  2  3  1  0  0  0  0
  3  5  1  0  0  0  0
  4  1  1  0  0  0  0
  5  1  1  0  0  0  0
  5 30  1  1  0  0  0
  6  4  1  0  0  0  0
  8  9  1  0  0  0  0
  9  7  1  0  0  0  0
 10  9  2  0  0  0  0
 11  8  1  0  0  0  0
 12 11  1  1  0  0  0
 12 16  1  0  0  0  0
 13 14  2  0  0  0  0
 14 12  1  0  0  0  0
 15 14  1  0  0  0  0
 16 19  1  0  0  0  0
 17 23  1  1  0  0  0
 17 26  1  0  0  0  0
 17 19  1  0  0  0  0
 18 22  1  0  0  0  0
 19 29  1  1  0  0  0
 19 22  1  0  0  0  0
 20 24  2  0  0  0  0
 22 21  1  0  0  0  0
 24 25  1  0  0  0  0
 26 28  1  6  0  0  0
 26 27  1  0  0  0  0
 27 25  1  1  0  0  0
 27 22  1  0  0  0  0
 28 20  1  0  0  0  0
 30 31  1  0  0  0  0
 31 32  1  0  0  0  0
 32 33  1  0  0  0  0
 33 36  1  0  0  0  0
 34 38  1  0  0  0  0
 35 38  1  0  0  0  0
 35 39  1  6  0  0  0
 36 42  1  6  0  0  0
 36 37  1  0  0  0  0
 36 34  1  0  0  0  0
 37 35  1  0  0  0  0
 39 41  1  0  0  0  0
 40 39  2  0  0  0  0
 43 42  1  0  0  0  0
 44 48  1  6  0  0  0
 44 43  1  0  0  0  0
 44 46  1  0  0  0  0
 45 47  1  0  0  0  0
 46 45  1  0  0  0  0
 46 47  1  0  0  0  0
 49 50  1  0  0  0  0
 49 48  1  0  0  0  0
 51 53  1  0  0  0  0
 51 52  1  0  0  0  0
 52 54  1  6  0  0  0
 52 50  1  0  0  0  0
 53 52  1  0  0  0  0
 54 55  1  0  0  0  0
M  END
>  <MODEL>
1

>  <REMARK>
 VINA RESULT:      -6.8      0.000      0.000
  Name = 
  22 active torsions:
  status: ('A' for Active; 'I' for Inactive)
    1  A    between atoms: C_2  and  C_28
    2  A    between atoms: C_2  and  C_44
    3  A    between atoms: C_5  and  C_19
    4  A    between atoms: C_6  and  N_46
    5  A    between atoms: C_8  and  CA_22
    6  A    between atoms: C_8  and  N_35
    7  A    between atoms: C_10  and  C_32
    8  A    between atoms: C_15  and  C_17
    9  A    between atoms: C_16  and  C_17
   10  A    between atoms: C_16  and  C_26
   11  A    between atoms: C_17  and  C_36
   12  A    between atoms: C_19  and  C_45
   13  A    between atoms: C_20  and  CA_22
   14  A    between atoms: CA_22  and  N_46
   15  A    between atoms: C_26  and  C_45
   16  A    between atoms: C_27  and  C_54
   17  A    between atoms: C_28  and  C_33
   18  A    between atoms: C_33  and  N_49
   19  A    between atoms: C_34  and  N_49
   20  A    between atoms: C_34  and  C_52
   21  A    between atoms: C_36  and  C_52
   22  A    between atoms: C_43  and  C_54
                            x       y       z     vdW  Elec       q    Type
                         _______ _______ _______ _____ _____    ______ ____

>  <TORSDO>
F 22

$$$$
=
 OpenBabel10272401313D

 55 60  0  0  1  0  0  0  0  0999 V2000
  191.4200  175.6230  142.9220 C   0  0  0  0  0  2  0  0  0  0  0  0
  191.4190  177.5180  145.1700 C   0  0  2  0  0  3  0  0  0  0  0  0
  190.8650  177.8980  143.8010 C   0  0  0  0  0  2  0  0  0  0  0  0
  191.9880  175.2340  144.2850 C   0  0  0  0  0  2  0  0  0  0  0  0
  191.5920  177.1240  142.7010 C   0  0  2  0  0  3  0  0  0  0  0  0
  191.2770  176.0070  145.3920 C   0  0  0  0  0  2  0  0  0  0  0  0
  190.6540  178.2830  146.2380 C   0  0  0  0  0  2  0  0  0  0  0  0
  188.2730  178.0410  145.4350 N   0  0  0  0  0  2  0  0  0  0  0  0
  189.2800  177.7310  146.4010 C   0  0  0  0  0  0  0  0  0  0  0  0
  189.0240  176.9730  147.3740 O   0  0  0  0  0  0  0  0  0  0  0  0
  186.9540  177.4250  145.4520 C   0  0  0  0  0  2  0  0  0  0  0  0
  185.8690  178.4680  145.2190 C   0  0  2  0  0  3  0  0  0  0  0  0
  185.9020  179.7520  147.2320 O   0  0  0  0  0  1  0  0  0  0  0  0
  185.2990  178.8840  146.5410 C   0  0  0  0  0  0  0  0  0  0  0  0
  184.1590  178.2740  147.0510 O   0  0  0  0  0  0  0  0  0  0  0  0
  184.8260  177.9170  144.3470 N   0  0  0  0  0  2  0  0  0  0  0  0
  182.9140  178.5470  142.9510 C   0  0  1  0  0  3  0  0  0  0  0  0
  185.6850  177.5900  141.8260 F   0  0  0  0  0  0  0  0  0  0  0  0
  184.3590  178.9070  143.3650 C   0  0  2  0  0  0  0  0  0  0  0  0
  182.0220  179.0330  139.1790 C   0  0  0  0  0  3  0  0  0  0  0  0
  186.2200  179.7820  142.0620 F   0  0  0  0  0  0  0  0  0  0  0  0
  185.1830  178.8650  142.0570 C   0  0  0  0  0  0  0  0  0  0  0  0
  181.9900  179.5050  143.3920 O   0  0  0  0  0  1  0  0  0  0  0  0
  183.2800  179.0140  138.6860 C   0  0  0  0  0  3  0  0  0  0  0  0
  184.4990  178.8400  139.5640 C   0  0  0  0  0  2  0  0  0  0  0  0
  182.9360  178.4470  141.4290 C   0  0  2  0  0  3  0  0  0  0  0  0
  184.1590  179.2180  141.0030 C   0  0  1  0  0  3  0  0  0  0  0  0
  181.7220  178.9710  140.6620 C   0  0  0  0  0  2  0  0  0  0  0  0
  184.3880  180.2010  143.9140 O   0  0  0  0  0  1  0  0  0  0  0  0
  191.0320  177.5040  141.3410 C   0  0  0  0  0  2  0  0  0  0  0  0
  192.0830  177.2990  140.2670 C   0  0  0  0  0  2  0  0  0  0  0  0
  191.5420  176.3710  139.2030 C   0  0  0  0  0  2  0  0  0  0  0  0
  192.3250  176.5270  137.9810 N   0  0  0  0  0  2  0  0  0  0  0  0
  192.9440  175.6990  135.8030 C   0  0  0  0  0  2  0  0  0  0  0  0
  194.0710  173.9890  137.1180 C   0  0  1  0  0  3  0  0  0  0  0  0
  192.0980  175.4300  137.0240 C   0  0  1  0  0  0  0  0  0  0  0  0
  192.6080  174.0850  137.5290 C   0  0  0  0  0  2  0  0  0  0  0  0
  194.3000  175.0840  136.0890 C   0  0  0  0  0  2  0  0  0  0  0  0
  194.9950  174.1730  138.2930 C   0  0  0  0  0  0  0  0  0  0  0  0
  195.5160  173.0640  138.9490 O   0  0  0  0  0  1  0  0  0  0  0  0
  195.2790  175.3270  138.7100 O   0  0  0  0  0  0  0  0  0  0  0  0
  190.6370  175.3680  136.5710 C   0  0  0  0  0  2  0  0  0  0  0  0
  189.9370  174.0600  136.9430 C   0  0  0  0  0  2  0  0  0  0  0  0
  188.6520  173.8430  136.1380 C   0  0  1  0  0  3  0  0  0  0  0  0
  186.7770  172.2670  135.6930 C   0  0  0  0  0  2  0  0  0  0  0  0
  187.8020  172.7170  136.7190 C   0  0  0  0  0  3  0  0  0  0  0  0
  188.0310  171.4590  135.9140 C   0  0  0  0  0  2  0  0  0  0  0  0
  187.8340  175.1200  136.0350 C   0  0  0  0  0  2  0  0  0  0  0  0
  187.4950  175.6230  137.4260 C   0  0  0  0  0  2  0  0  0  0  0  0
  186.7150  176.9190  137.3040 C   0  0  0  0  0  2  0  0  0  0  0  0
  187.8760  178.7840  135.9820 C   0  0  0  0  0  2  0  0  0  0  0  0
  187.6530  178.1190  137.2810 C   0  0  1  0  0  0  0  0  0  0  0  0
  187.0100  179.3270  136.9580 O   0  0  0  0  0  0  0  0  0  0  0  0
  188.7030  178.3010  138.3660 C   0  0  0  0  0  2  0  0  0  0  0  0
  188.0690  178.2000  139.7400 C   0  0  0  0  0  1  0  0  0  0  0  0
  1  4  1  0  0  0  0
  2  6  1  0  0  0  0
  2  7  1  1  0  0  0
  3  2  1  0  0  0  0
  4  6  1  0  0  0  0
  5 30  1  6  0  0  0
  5  1  1  0  0  0  0
  5  3  1  0  0  0  0
  7  9  1  0  0  0  0
  8 11  1  0  0  0  0
  8  9  1  0  0  0  0
  9 10  2  0  0  0  0
 12 11  1  1  0  0  0
 12 14  1  0  0  0  0
 14 15  2  0  0  0  0
 14 13  1  0  0  0  0
 16 12  1  0  0  0  0
 17 19  1  0  0  0  0
 17 23  1  6  0  0  0
 18 22  1  0  0  0  0
 19 29  1  1  0  0  0
 19 16  1  0  0  0  0
 20 28  1  0  0  0  0
 22 21  1  0  0  0  0
 22 19  1  0  0  0  0
 24 20  2  0  0  0  0
 24 25  1  0  0  0  0
 26 28  1  6  0  0  0
 26 17  1  0  0  0  0
 27 25  1  6  0  0  0
 27 26  1  0  0  0  0
 27 22  1  0  0  0  0
 31 30  1  0  0  0  0
 32 31  1  0  0  0  0
 33 32  1  0  0  0  0
 34 38  1  0  0  0  0
 34 36  1  0  0  0  0
 35 37  1  0  0  0  0
 35 39  1  1  0  0  0
 36 42  1  6  0  0  0
 36 37  1  0  0  0  0
 36 33  1  0  0  0  0
 38 35  1  0  0  0  0
 39 41  2  0  0  0  0
 39 40  1  0  0  0  0
 42 43  1  0  0  0  0
 44 48  1  1  0  0  0
 44 46  1  0  0  0  0
 44 43  1  0  0  0  0
 45 47  1  0  0  0  0
 45 46  1  0  0  0  0
 47 46  1  0  0  0  0
 48 49  1  0  0  0  0
 50 49  1  0  0  0  0
 51 53  1  0  0  0  0
 51 52  1  0  0  0  0
 52 50  1  1  0  0  0
 52 54  1  0  0  0  0
 53 52  1  0  0  0  0
 54 55  1  0  0  0  0
M  END
>  <MODEL>
2

>  <REMARK>
 VINA RESULT:      -6.4      3.369     11.202
  Name = 
  22 active torsions:
  status: ('A' for Active; 'I' for Inactive)
    1  A    between atoms: C_2  and  C_28
    2  A    between atoms: C_2  and  C_44
    3  A    between atoms: C_5  and  C_19
    4  A    between atoms: C_6  and  N_46
    5  A    between atoms: C_8  and  CA_22
    6  A    between atoms: C_8  and  N_35
    7  A    between atoms: C_10  and  C_32
    8  A    between atoms: C_15  and  C_17
    9  A    between atoms: C_16  and  C_17
   10  A    between atoms: C_16  and  C_26
   11  A    between atoms: C_17  and  C_36
   12  A    between atoms: C_19  and  C_45
   13  A    between atoms: C_20  and  CA_22
   14  A    between atoms: CA_22  and  N_46
   15  A    between atoms: C_26  and  C_45
   16  A    between atoms: C_27  and  C_54
   17  A    between atoms: C_28  and  C_33
   18  A    between atoms: C_33  and  N_49
   19  A    between atoms: C_34  and  N_49
   20  A    between atoms: C_34  and  C_52
   21  A    between atoms: C_36  and  C_52
   22  A    between atoms: C_43  and  C_54
                            x       y       z     vdW  Elec       q    Type
                         _______ _______ _______ _____ _____    ______ ____

>  <TORSDO>
F 22

$$$$
=
 OpenBabel10272401313D

 55 60  0  0  1  0  0  0  0  0999 V2000
  184.7430  178.5440  139.5830 C   0  0  0  0  0  2  0  0  0  0  0  0
  184.1810  178.8200  142.4550 C   0  0  2  0  0  3  0  0  0  0  0  0
  183.1570  178.2280  141.4910 C   0  0  0  0  0  2  0  0  0  0  0  0
  185.7710  179.1490  140.5350 C   0  0  0  0  0  2  0  0  0  0  0  0
  183.3340  178.8290  140.0960 C   0  0  2  0  0  3  0  0  0  0  0  0
  185.6010  178.5650  141.9340 C   0  0  0  0  0  2  0  0  0  0  0  0
  183.9950  178.1800  143.8210 C   0  0  0  0  0  2  0  0  0  0  0  0
  185.7490  178.0470  145.6330 N   0  0  0  0  0  2  0  0  0  0  0  0
  184.8660  178.8390  144.8350 C   0  0  0  0  0  0  0  0  0  0  0  0
  184.8390  180.0920  144.9610 O   0  0  0  0  0  0  0  0  0  0  0  0
  186.7270  178.6320  146.5380 C   0  0  0  0  0  2  0  0  0  0  0  0
  187.9810  177.7710  146.6070 C   0  0  2  0  0  3  0  0  0  0  0  0
  187.6140  177.3620  148.9310 O   0  0  0  0  0  1  0  0  0  0  0  0
  188.4390  177.6870  148.0320 C   0  0  0  0  0  0  0  0  0  0  0  0
  189.7360  178.0370  148.3870 O   0  0  0  0  0  0  0  0  0  0  0  0
  189.0270  178.3440  145.7530 N   0  0  0  0  0  2  0  0  0  0  0  0
  190.8600  177.8970  144.1910 C   0  0  1  0  0  3  0  0  0  0  0  0
  187.8740  178.3500  143.3300 F   0  0  0  0  0  0  0  0  0  0  0  0
  189.5370  177.3620  144.7850 C   0  0  2  0  0  0  0  0  0  0  0  0
  191.4240  177.2620  140.3780 C   0  0  0  0  0  3  0  0  0  0  0  0
  187.7090  176.1280  143.7550 F   0  0  0  0  0  0  0  0  0  0  0  0
  188.5870  177.1840  143.5780 C   0  0  0  0  0  0  0  0  0  0  0  0
  191.9600  177.1200  144.5810 O   0  0  0  0  0  1  0  0  0  0  0  0
  190.1350  177.0600  140.0300 C   0  0  0  0  0  3  0  0  0  0  0  0
  189.0000  177.1200  141.0270 C   0  0  0  0  0  2  0  0  0  0  0  0
  190.6670  177.8760  142.6770 C   0  0  2  0  0  3  0  0  0  0  0  0
  189.5400  176.9060  142.4380 C   0  0  1  0  0  3  0  0  0  0  0  0
  191.8620  177.4790  141.8120 C   0  0  0  0  0  2  0  0  0  0  0  0
  189.7630  176.1220  145.4100 O   0  0  0  0  0  1  0  0  0  0  0  0
  182.3150  178.2310  139.1410 C   0  0  0  0  0  2  0  0  0  0  0  0
  182.3100  176.7190  139.2610 C   0  0  0  0  0  2  0  0  0  0  0  0
  182.6440  176.1060  137.9200 C   0  0  0  0  0  2  0  0  0  0  0  0
  183.2630  174.8010  138.1250 N   0  0  0  0  0  2  0  0  0  0  0  0
  184.9150  173.1800  137.4510 C   0  0  0  0  0  2  0  0  0  0  0  0
  183.7750  173.3710  135.3090 C   0  0  1  0  0  3  0  0  0  0  0  0
  184.4670  174.6130  137.2990 C   0  0  1  0  0  0  0  0  0  0  0  0
  184.1920  174.7490  135.8050 C   0  0  0  0  0  2  0  0  0  0  0  0
  184.1530  172.3890  136.4060 C   0  0  0  0  0  2  0  0  0  0  0  0
  182.2970  173.3010  135.0300 C   0  0  0  0  0  0  0  0  0  0  0  0
  181.5220  174.4530  135.0950 O   0  0  0  0  0  1  0  0  0  0  0  0
  181.7450  172.1990  134.7670 O   0  0  0  0  0  0  0  0  0  0  0  0
  185.6180  175.5100  137.7640 C   0  0  0  0  0  2  0  0  0  0  0  0
  186.1350  176.4540  136.6760 C   0  0  0  0  0  2  0  0  0  0  0  0
  187.5740  176.1280  136.2650 C   0  0  1  0  0  3  0  0  0  0  0  0
  188.7040  178.1450  135.3400 C   0  0  0  0  0  2  0  0  0  0  0  0
  188.5270  177.2790  136.5750 C   0  0  0  0  0  3  0  0  0  0  0  0
  187.7800  178.5870  136.4480 C   0  0  0  0  0  2  0  0  0  0  0  0
  188.0670  174.8480  136.9180 C   0  0  0  0  0  2  0  0  0  0  0  0
  188.7240  173.9630  135.8750 C   0  0  0  0  0  2  0  0  0  0  0  0
  189.7580  173.0850  136.5560 C   0  0  0  0  0  2  0  0  0  0  0  0
  191.3340  172.7080  134.5690 C   0  0  0  0  0  2  0  0  0  0  0  0
  191.1310  173.2670  135.9200 C   0  0  1  0  0  0  0  0  0  0  0  0
  191.1140  174.0890  134.7790 O   0  0  0  0  0  0  0  0  0  0  0  0
  192.3570  173.5100  136.7840 C   0  0  0  0  0  2  0  0  0  0  0  0
  192.1760  174.7600  137.6230 C   0  0  0  0  0  1  0  0  0  0  0  0
  1  5  1  0  0  0  0
  1  4  1  0  0  0  0
  2  7  1  1  0  0  0
  3  2  1  0  0  0  0
  4  6  1  0  0  0  0
  5 30  1  6  0  0  0
  5  3  1  0  0  0  0
  6  2  1  0  0  0  0
  7  9  1  0  0  0  0
  8 11  1  0  0  0  0
  9 10  2  0  0  0  0
  9  8  1  0  0  0  0
 12 11  1  1  0  0  0
 12 14  1  0  0  0  0
 14 15  2  0  0  0  0
 14 13  1  0  0  0  0
 16 12  1  0  0  0  0
 17 23  1  6  0  0  0
 17 19  1  0  0  0  0
 18 22  1  0  0  0  0
 19 29  1  1  0  0  0
 19 16  1  0  0  0  0
 20 28  1  0  0  0  0
 22 21  1  0  0  0  0
 22 19  1  0  0  0  0
 24 20  2  0  0  0  0
 24 25  1  0  0  0  0
 26 28  1  6  0  0  0
 26 17  1  0  0  0  0
 27 25  1  6  0  0  0
 27 26  1  0  0  0  0
 27 22  1  0  0  0  0
 30 31  1  0  0  0  0
 32 33  1  0  0  0  0
 32 31  1  0  0  0  0
 35 39  1  1  0  0  0
 35 37  1  0  0  0  0
 35 38  1  0  0  0  0
 36 34  1  0  0  0  0
 36 42  1  1  0  0  0
 36 33  1  0  0  0  0
 37 36  1  0  0  0  0
 38 34  1  0  0  0  0
 39 40  1  0  0  0  0
 41 39  2  0  0  0  0
 43 42  1  0  0  0  0
 44 46  1  0  0  0  0
 44 43  1  1  0  0  0
 44 48  1  0  0  0  0
 45 47  1  0  0  0  0
 45 46  1  0  0  0  0
 47 46  1  0  0  0  0
 49 50  1  0  0  0  0
 49 48  1  0  0  0  0
 51 53  1  0  0  0  0
 51 52  1  0  0  0  0
 52 50  1  1  0  0  0
 52 54  1  0  0  0  0
 53 52  1  0  0  0  0
 54 55  1  0  0  0  0
M  END
>  <MODEL>
3

>  <REMARK>
 VINA RESULT:      -6.2      4.004     10.736
  Name = 
  22 active torsions:
  status: ('A' for Active; 'I' for Inactive)
    1  A    between atoms: C_2  and  C_28
    2  A    between atoms: C_2  and  C_44
    3  A    between atoms: C_5  and  C_19
    4  A    between atoms: C_6  and  N_46
    5  A    between atoms: C_8  and  CA_22
    6  A    between atoms: C_8  and  N_35
    7  A    between atoms: C_10  and  C_32
    8  A    between atoms: C_15  and  C_17
    9  A    between atoms: C_16  and  C_17
   10  A    between atoms: C_16  and  C_26
   11  A    between atoms: C_17  and  C_36
   12  A    between atoms: C_19  and  C_45
   13  A    between atoms: C_20  and  CA_22
   14  A    between atoms: CA_22  and  N_46
   15  A    between atoms: C_26  and  C_45
   16  A    between atoms: C_27  and  C_54
   17  A    between atoms: C_28  and  C_33
   18  A    between atoms: C_33  and  N_49
   19  A    between atoms: C_34  and  N_49
   20  A    between atoms: C_34  and  C_52
   21  A    between atoms: C_36  and  C_52
   22  A    between atoms: C_43  and  C_54
                            x       y       z     vdW  Elec       q    Type
                         _______ _______ _______ _____ _____    ______ ____

>  <TORSDO>
F 22

$$$$
=
 OpenBabel10272401313D

 55 60  0  0  1  0  0  0  0  0999 V2000
  191.0220  176.0760  137.0710 C   0  0  0  0  0  2  0  0  0  0  0  0
  190.4650  177.6290  139.5040 C   0  0  2  0  0  3  0  0  0  0  0  0
  189.4040  177.4140  138.4300 C   0  0  0  0  0  2  0  0  0  0  0  0
  192.0960  176.2940  138.1330 C   0  0  0  0  0  2  0  0  0  0  0  0
  190.0610  177.2620  137.0580 C   0  0  2  0  0  3  0  0  0  0  0  0
  191.4530  176.4560  139.5070 C   0  0  0  0  0  2  0  0  0  0  0  0
  189.7790  177.7460  140.8560 C   0  0  0  0  0  2  0  0  0  0  0  0
  191.3860  177.3140  142.7550 N   0  0  0  0  0  2  0  0  0  0  0  0
  190.4000  176.8200  141.8440 C   0  0  0  0  0  0  0  0  0  0  0  0
  190.0330  175.6160  141.8890 O   0  0  0  0  0  0  0  0  0  0  0  0
  191.9300  176.5070  143.8370 C   0  0  0  0  0  2  0  0  0  0  0  0
  191.2390  176.8330  145.1540 C   0  0  2  0  0  3  0  0  0  0  0  0
  192.3610  174.9360  146.0740 O   0  0  0  0  0  0  0  0  0  0  0  0
  191.9400  176.1110  146.2660 C   0  0  0  0  0  0  0  0  0  0  0  0
  192.0620  176.6860  147.5240 O   0  0  0  0  0  1  0  0  0  0  0  0
  189.8250  176.4470  145.0860 N   0  0  0  0  0  2  0  0  0  0  0  0
  188.1820  177.4600  146.5940 C   0  0  1  0  0  3  0  0  0  0  0  0
  187.5170  176.3840  143.7190 F   0  0  0  0  0  0  0  0  0  0  0  0
  188.9370  177.6060  145.2530 C   0  0  2  0  0  0  0  0  0  0  0  0
  184.4310  178.5540  146.5960 C   0  0  0  0  0  3  0  0  0  0  0  0
  188.2010  178.4530  143.0930 F   0  0  0  0  0  0  0  0  0  0  0  0
  187.8370  177.6590  144.1670 C   0  0  0  0  0  0  0  0  0  0  0  0
  188.5670  178.4400  147.5200 O   0  0  0  0  0  1  0  0  0  0  0  0
  184.2130  178.4720  145.2660 C   0  0  0  0  0  3  0  0  0  0  0  0
  185.2840  178.0510  144.2860 C   0  0  0  0  0  2  0  0  0  0  0  0
  186.7010  177.5710  146.2440 C   0  0  2  0  0  3  0  0  0  0  0  0
  186.6630  178.2600  144.9050 C   0  0  1  0  0  3  0  0  0  0  0  0
  185.7920  178.3200  147.2190 C   0  0  0  0  0  2  0  0  0  0  0  0
  189.6770  178.8020  145.2510 O   0  0  0  0  0  1  0  0  0  0  0  0
  188.9990  177.0440  135.9950 C   0  0  0  0  0  2  0  0  0  0  0  0
  187.8100  176.3090  136.5860 C   0  0  0  0  0  2  0  0  0  0  0  0
  187.7000  174.9390  135.9570 C   0  0  0  0  0  2  0  0  0  0  0  0
  186.4410  174.8430  135.2250 N   0  0  0  0  0  2  0  0  0  0  0  0
  184.3020  173.7370  135.1210 C   0  0  0  0  0  2  0  0  0  0  0  0
  185.5800  171.8600  135.9970 C   0  0  1  0  0  3  0  0  0  0  0  0
  185.3520  174.2940  136.0500 C   0  0  1  0  0  0  0  0  0  0  0  0
  185.7810  173.0870  136.8770 C   0  0  0  0  0  2  0  0  0  0  0  0
  184.7160  172.3070  134.8290 C   0  0  0  0  0  2  0  0  0  0  0  0
  186.8890  171.3090  135.4980 C   0  0  0  0  0  0  0  0  0  0  0  0
  186.9230  170.5290  134.3480 O   0  0  0  0  0  0  0  0  0  0  0  0
  187.9580  171.5220  136.1310 O   0  0  0  0  0  1  0  0  0  0  0  0
  184.6860  175.3780  136.9030 C   0  0  0  0  0  2  0  0  0  0  0  0
  183.8260  176.3500  136.0930 C   0  0  0  0  0  2  0  0  0  0  0  0
  182.5640  176.7730  136.8490 C   0  0  1  0  0  3  0  0  0  0  0  0
  180.1570  176.2740  136.4520 C   0  0  0  0  0  2  0  0  0  0  0  0
  181.5010  175.6790  136.8360 C   0  0  0  0  0  3  0  0  0  0  0  0
  180.9710  175.5220  135.4290 C   0  0  0  0  0  2  0  0  0  0  0  0
  182.8790  177.1830  138.2790 C   0  0  0  0  0  2  0  0  0  0  0  0
  182.4880  178.6330  138.4930 C   0  0  0  0  0  2  0  0  0  0  0  0
  183.6720  179.3820  139.0770 C   0  0  0  0  0  2  0  0  0  0  0  0
  182.9110  178.8830  141.4740 C   0  0  0  0  0  2  0  0  0  0  0  0
  183.9990  178.8760  140.4760 C   0  0  1  0  0  0  0  0  0  0  0  0
  183.3140  177.6970  140.8190 O   0  0  0  0  0  0  0  0  0  0  0  0
  185.4320  178.8740  140.9830 C   0  0  0  0  0  2  0  0  0  0  0  0
  186.3930  178.5510  139.8550 C   0  0  0  0  0  1  0  0  0  0  0  0
  1  4  1  0  0  0  0
  2  6  1  0  0  0  0
  2  7  1  1  0  0  0
  3  2  1  0  0  0  0
  4  6  1  0  0  0  0
  5 30  1  6  0  0  0
  5  1  1  0  0  0  0
  5  3  1  0  0  0  0
  7  9  1  0  0  0  0
  8 11  1  0  0  0  0
  9 10  2  0  0  0  0
  9  8  1  0  0  0  0
 12 11  1  6  0  0  0
 12 14  1  0  0  0  0
 13 14  2  0  0  0  0
 14 15  1  0  0  0  0
 16 12  1  0  0  0  0
 16 19  1  0  0  0  0
 17 23  1  1  0  0  0
 18 22  1  0  0  0  0
 19 29  1  6  0  0  0
 19 17  1  0  0  0  0
 20 28  1  0  0  0  0
 21 22  1  0  0  0  0
 22 27  1  0  0  0  0
 22 19  1  0  0  0  0
 24 20  2  0  0  0  0
 25 24  1  0  0  0  0
 26 17  1  0  0  0  0
 26 28  1  1  0  0  0
 27 25  1  6  0  0  0
 27 26  1  0  0  0  0
 30 31  1  0  0  0  0
 32 31  1  0  0  0  0
 33 32  1  0  0  0  0
 33 36  1  0  0  0  0
 34 36  1  0  0  0  0
 35 39  1  6  0  0  0
 35 37  1  0  0  0  0
 36 37  1  0  0  0  0
 36 42  1  1  0  0  0
 38 34  1  0  0  0  0
 38 35  1  0  0  0  0
 39 41  1  0  0  0  0
 40 39  2  0  0  0  0
 43 42  1  0  0  0  0
 44 43  1  1  0  0  0
 44 48  1  0  0  0  0
 45 46  1  0  0  0  0
 46 44  1  0  0  0  0
 47 45  1  0  0  0  0
 47 46  1  0  0  0  0
 48 49  1  0  0  0  0
 49 50  1  0  0  0  0
 52 50  1  6  0  0  0
 52 53  1  0  0  0  0
 52 54  1  0  0  0  0
 52 51  1  0  0  0  0
 53 51  1  0  0  0  0
 55 54  1  0  0  0  0
M  END
>  <MODEL>
4

>  <REMARK>
 VINA RESULT:      -6.2      4.218     10.287
  Name = 
  22 active torsions:
  status: ('A' for Active; 'I' for Inactive)
    1  A    between atoms: C_2  and  C_28
    2  A    between atoms: C_2  and  C_44
    3  A    between atoms: C_5  and  C_19
    4  A    between atoms: C_6  and  N_46
    5  A    between atoms: C_8  and  CA_22
    6  A    between atoms: C_8  and  N_35
    7  A    between atoms: C_10  and  C_32
    8  A    between atoms: C_15  and  C_17
    9  A    between atoms: C_16  and  C_17
   10  A    between atoms: C_16  and  C_26
   11  A    between atoms: C_17  and  C_36
   12  A    between atoms: C_19  and  C_45
   13  A    between atoms: C_20  and  CA_22
   14  A    between atoms: CA_22  and  N_46
   15  A    between atoms: C_26  and  C_45
   16  A    between atoms: C_27  and  C_54
   17  A    between atoms: C_28  and  C_33
   18  A    between atoms: C_33  and  N_49
   19  A    between atoms: C_34  and  N_49
   20  A    between atoms: C_34  and  C_52
   21  A    between atoms: C_36  and  C_52
   22  A    between atoms: C_43  and  C_54
                            x       y       z     vdW  Elec       q    Type
                         _______ _______ _______ _____ _____    ______ ____

>  <TORSDO>
F 22

$$$$
=
 OpenBabel10272401313D

 55 60  0  0  1  0  0  0  0  0999 V2000
  186.3500  174.2190  137.2300 C   0  0  0  0  0  2  0  0  0  0  0  0
  188.5160  174.4820  135.2600 C   0  0  2  0  0  3  0  0  0  0  0  0
  187.8470  175.7030  135.8820 C   0  0  0  0  0  2  0  0  0  0  0  0
  187.0040  172.9900  136.6050 C   0  0  0  0  0  2  0  0  0  0  0  0
  186.3960  175.3850  136.2450 C   0  0  2  0  0  3  0  0  0  0  0  0
  188.4510  173.2960  136.2300 C   0  0  0  0  0  2  0  0  0  0  0  0
  189.9620  174.8240  134.9400 C   0  0  0  0  0  2  0  0  0  0  0  0
  191.6880  174.2830  136.7010 N   0  0  0  0  0  2  0  0  0  0  0  0
  190.7060  175.1820  136.1800 C   0  0  0  0  0  0  0  0  0  0  0  0
  190.4850  176.2850  136.7450 O   0  0  0  0  0  0  0  0  0  0  0  0
  192.5510  174.6260  137.8220 C   0  0  0  0  0  2  0  0  0  0  0  0
  194.0180  174.5160  137.4280 C   0  0  2  0  0  3  0  0  0  0  0  0
  194.2550  176.7550  136.6310 O   0  0  0  0  0  1  0  0  0  0  0  0
  194.3130  175.5240  136.3580 C   0  0  0  0  0  0  0  0  0  0  0  0
  194.5730  175.1230  135.0530 O   0  0  0  0  0  0  0  0  0  0  0  0
  194.3100  173.1560  136.9630 N   0  0  0  0  0  2  0  0  0  0  0  0
  196.7490  173.1720  137.1860 C   0  0  1  0  0  3  0  0  0  0  0  0
  195.0820  170.7080  136.1800 F   0  0  0  0  0  0  0  0  0  0  0  0
  195.4290  172.5570  137.7040 C   0  0  2  0  0  0  0  0  0  0  0  0
  199.7800  170.7310  136.8450 C   0  0  0  0  0  3  0  0  0  0  0  0
  194.8930  170.2870  138.4000 F   0  0  0  0  0  0  0  0  0  0  0  0
  195.5550  171.0380  137.4440 C   0  0  0  0  0  0  0  0  0  0  0  0
  197.3740  173.9640  138.1600 O   0  0  0  0  0  1  0  0  0  0  0  0
  199.0830  169.5750  136.7970 C   0  0  0  0  0  3  0  0  0  0  0  0
  197.5740  169.5260  136.8740 C   0  0  0  0  0  2  0  0  0  0  0  0
  197.6220  171.9880  136.7810 C   0  0  2  0  0  3  0  0  0  0  0  0
  197.0470  170.8060  137.5170 C   0  0  1  0  0  3  0  0  0  0  0  0
  199.1210  172.0760  137.0680 C   0  0  0  0  0  2  0  0  0  0  0  0
  195.2980  172.8020  139.0830 O   0  0  0  0  0  1  0  0  0  0  0  0
  185.7380  176.6030  136.8690 C   0  0  0  0  0  2  0  0  0  0  0  0
  186.7910  177.5200  137.4640 C   0  0  0  0  0  2  0  0  0  0  0  0
  186.1790  178.3310  138.5820 C   0  0  0  0  0  2  0  0  0  0  0  0
  184.7350  178.1180  138.6010 N   0  0  0  0  0  2  0  0  0  0  0  0
  183.1680  179.6060  139.6680 C   0  0  0  0  0  2  0  0  0  0  0  0
  181.8580  177.5670  139.8870 C   0  0  1  0  0  3  0  0  0  0  0  0
  184.1310  178.4680  139.8970 C   0  0  1  0  0  0  0  0  0  0  0  0
  183.2520  177.3590  140.4640 C   0  0  0  0  0  2  0  0  0  0  0  0
  181.8440  178.9670  139.2950 C   0  0  0  0  0  2  0  0  0  0  0  0
  181.5340  176.5480  138.8260 C   0  0  0  0  0  0  0  0  0  0  0  0
  180.2110  176.3050  138.4760 O   0  0  0  0  0  1  0  0  0  0  0  0
  182.4510  175.8870  138.2700 O   0  0  0  0  0  0  0  0  0  0  0  0
  185.1840  178.9480  140.9010 C   0  0  0  0  0  2  0  0  0  0  0  0
  184.6810  178.9790  142.3460 C   0  0  0  0  0  2  0  0  0  0  0  0
  185.7700  178.5760  143.3450 C   0  0  1  0  0  3  0  0  0  0  0  0
  185.3870  179.1180  145.7440 C   0  0  0  0  0  2  0  0  0  0  0  0
  185.1770  178.0760  144.6590 C   0  0  0  0  0  3  0  0  0  0  0  0
  184.0450  178.9890  145.0690 C   0  0  0  0  0  2  0  0  0  0  0  0
  186.7080  177.5330  142.7600 C   0  0  0  0  0  2  0  0  0  0  0  0
  187.8610  177.2900  143.7160 C   0  0  0  0  0  2  0  0  0  0  0  0
  189.0200  176.6850  142.9450 C   0  0  0  0  0  2  0  0  0  0  0  0
  191.3600  175.9290  143.6720 C   0  0  0  0  0  2  0  0  0  0  0  0
  190.3480  177.0030  143.6210 C   0  0  1  0  0  0  0  0  0  0  0  0
  191.4430  176.9880  142.7390 O   0  0  0  0  0  0  0  0  0  0  0  0
  190.4490  178.1270  144.6390 C   0  0  0  0  0  2  0  0  0  0  0  0
  191.0190  179.3760  143.9960 C   0  0  0  0  0  1  0  0  0  0  0  0
  2  7  1  1  0  0  0
  2  3  1  0  0  0  0
  2  6  1  0  0  0  0
  3  5  1  0  0  0  0
  4  1  1  0  0  0  0
  5 30  1  1  0  0  0
  5  1  1  0  0  0  0
  6  4  1  0  0  0  0
  7  9  1  0  0  0  0
  8 11  1  0  0  0  0
  9  8  1  0  0  0  0
  9 10  2  0  0  0  0
 12 11  1  6  0  0  0
 14 13  1  0  0  0  0
 14 12  1  0  0  0  0
 15 14  2  0  0  0  0
 16 12  1  0  0  0  0
 16 19  1  0  0  0  0
 17 19  1  0  0  0  0
 17 23  1  1  0  0  0
 18 22  1  0  0  0  0
 19 29  1  1  0  0  0
 20 28  1  0  0  0  0
 22 27  1  0  0  0  0
 22 19  1  0  0  0  0
 22 21  1  0  0  0  0
 24 20  2  0  0  0  0
 24 25  1  0  0  0  0
 26 28  1  1  0  0  0
 26 17  1  0  0  0  0
 26 27  1  0  0  0  0
 27 25  1  6  0  0  0
 30 31  1  0  0  0  0
 31 32  1  0  0  0  0
 32 33  1  0  0  0  0
 33 36  1  0  0  0  0
 34 36  1  0  0  0  0
 35 39  1  6  0  0  0
 35 37  1  0  0  0  0
 36 37  1  0  0  0  0
 36 42  1  1  0  0  0
 38 34  1  0  0  0  0
 38 35  1  0  0  0  0
 40 39  1  0  0  0  0
 41 39  2  0  0  0  0
 42 43  1  0  0  0  0
 44 43  1  6  0  0  0
 44 46  1  0  0  0  0
 46 47  1  0  0  0  0
 46 45  1  0  0  0  0
 47 45  1  0  0  0  0
 48 44  1  0  0  0  0
 48 49  1  0  0  0  0
 50 49  1  0  0  0  0
 52 50  1  6  0  0  0
 52 51  1  0  0  0  0
 52 54  1  0  0  0  0
 53 52  1  0  0  0  0
 53 51  1  0  0  0  0
 55 54  1  0  0  0  0
M  END
>  <MODEL>
5

>  <REMARK>
 VINA RESULT:      -6.2      2.531      6.204
  Name = 
  22 active torsions:
  status: ('A' for Active; 'I' for Inactive)
    1  A    between atoms: C_2  and  C_28
    2  A    between atoms: C_2  and  C_44
    3  A    between atoms: C_5  and  C_19
    4  A    between atoms: C_6  and  N_46
    5  A    between atoms: C_8  and  CA_22
    6  A    between atoms: C_8  and  N_35
    7  A    between atoms: C_10  and  C_32
    8  A    between atoms: C_15  and  C_17
    9  A    between atoms: C_16  and  C_17
   10  A    between atoms: C_16  and  C_26
   11  A    between atoms: C_17  and  C_36
   12  A    between atoms: C_19  and  C_45
   13  A    between atoms: C_20  and  CA_22
   14  A    between atoms: CA_22  and  N_46
   15  A    between atoms: C_26  and  C_45
   16  A    between atoms: C_27  and  C_54
   17  A    between atoms: C_28  and  C_33
   18  A    between atoms: C_33  and  N_49
   19  A    between atoms: C_34  and  N_49
   20  A    between atoms: C_34  and  C_52
   21  A    between atoms: C_36  and  C_52
   22  A    between atoms: C_43  and  C_54
                            x       y       z     vdW  Elec       q    Type
                         _______ _______ _______ _____ _____    ______ ____

>  <TORSDO>
F 22

$$$$
=
 OpenBabel10272401313D

 55 60  0  0  1  0  0  0  0  0999 V2000
  188.9410  178.2730  139.6390 C   0  0  0  0  0  2  0  0  0  0  0  0
  190.6490  176.5000  138.0320 C   0  0  2  0  0  3  0  0  0  0  0  0
  190.5780  176.3830  139.5510 C   0  0  0  0  0  2  0  0  0  0  0  0
  189.0130  178.4070  138.1210 C   0  0  0  0  0  2  0  0  0  0  0  0
  190.2700  177.7460  140.1740 C   0  0  2  0  0  3  0  0  0  0  0  0
  189.3280  177.0560  137.4860 C   0  0  0  0  0  2  0  0  0  0  0  0
  190.9270  175.1250  137.4460 C   0  0  0  0  0  2  0  0  0  0  0  0
  192.8680  176.1140  136.1690 N   0  0  0  0  0  2  0  0  0  0  0  0
  191.7400  175.2360  136.2020 C   0  0  0  0  0  0  0  0  0  0  0  0
  191.4430  174.5360  135.1980 O   0  0  0  0  0  0  0  0  0  0  0  0
  193.7870  176.1680  135.0430 C   0  0  0  0  0  2  0  0  0  0  0  0
  195.2290  176.0390  135.5160 C   0  0  2  0  0  3  0  0  0  0  0  0
  197.1740  176.7880  134.3510 O   0  0  0  0  0  0  0  0  0  0  0  0
  196.0580  177.0980  134.8520 C   0  0  0  0  0  0  0  0  0  0  0  0
  195.6500  178.4260  134.8500 O   0  0  0  0  0  1  0  0  0  0  0  0
  195.7400  174.7000  135.2040 N   0  0  0  0  0  2  0  0  0  0  0  0
  197.3080  173.0480  136.1060 C   0  0  1  0  0  3  0  0  0  0  0  0
  194.2200  172.5680  135.7900 F   0  0  0  0  0  0  0  0  0  0  0  0
  196.0990  173.9580  136.4220 C   0  0  2  0  0  0  0  0  0  0  0  0
  197.2710  169.4960  137.7310 C   0  0  0  0  0  3  0  0  0  0  0  0
  194.1410  173.5810  137.8180 F   0  0  0  0  0  0  0  0  0  0  0  0
  194.9720  173.0010  136.8750 C   0  0  0  0  0  0  0  0  0  0  0  0
  198.4610  173.4550  136.7910 O   0  0  0  0  0  1  0  0  0  0  0  0
  195.9450  169.4150  137.9730 C   0  0  0  0  0  3  0  0  0  0  0  0
  194.9800  170.5240  137.6160 C   0  0  0  0  0  2  0  0  0  0  0  0
  196.8800  171.6420  136.5130 C   0  0  2  0  0  3  0  0  0  0  0  0
  195.7360  171.8420  137.4730 C   0  0  1  0  0  3  0  0  0  0  0  0
  197.9270  170.7380  137.1630 C   0  0  0  0  0  2  0  0  0  0  0  0
  196.4290  174.8440  137.4630 O   0  0  0  0  0  1  0  0  0  0  0  0
  190.1960  177.6200  141.6850 C   0  0  0  0  0  2  0  0  0  0  0  0
  190.0770  176.1610  142.0840 C   0  0  0  0  0  2  0  0  0  0  0  0
  188.8860  175.9840  142.9980 C   0  0  0  0  0  2  0  0  0  0  0  0
  188.9080  177.0180  144.0280 N   0  0  0  0  0  2  0  0  0  0  0  0
  186.6680  176.5150  144.7610 C   0  0  0  0  0  2  0  0  0  0  0  0
  187.3290  177.8540  146.6820 C   0  0  1  0  0  3  0  0  0  0  0  0
  187.5800  177.6090  144.2620 C   0  0  1  0  0  0  0  0  0  0  0  0
  187.5720  178.6300  145.3940 C   0  0  0  0  0  2  0  0  0  0  0  0
  186.8450  176.4740  146.2660 C   0  0  0  0  0  2  0  0  0  0  0  0
  188.5810  177.7410  147.5110 C   0  0  0  0  0  0  0  0  0  0  0  0
  188.9540  178.7840  148.3520 O   0  0  0  0  0  1  0  0  0  0  0  0
  189.3150  176.7210  147.4300 O   0  0  0  0  0  0  0  0  0  0  0  0
  186.9720  178.1640  142.9700 C   0  0  0  0  0  2  0  0  0  0  0  0
  185.8530  179.1800  143.2100 C   0  0  0  0  0  2  0  0  0  0  0  0
  184.4960  178.6720  142.7130 C   0  0  1  0  0  3  0  0  0  0  0  0
  182.4270  178.3970  144.0700 C   0  0  0  0  0  2  0  0  0  0  0  0
  183.3370  179.4020  143.3850 C   0  0  0  0  0  3  0  0  0  0  0  0
  183.4200  179.1930  144.8790 C   0  0  0  0  0  2  0  0  0  0  0  0
  184.3790  178.7780  141.2010 C   0  0  0  0  0  2  0  0  0  0  0  0
  183.3470  177.7850  140.6990 C   0  0  0  0  0  2  0  0  0  0  0  0
  182.5770  178.4130  139.5510 C   0  0  0  0  0  2  0  0  0  0  0  0
  181.5930  177.1690  137.5370 C   0  0  0  0  0  2  0  0  0  0  0  0
  182.7930  177.6340  138.2600 C   0  0  1  0  0  0  0  0  0  0  0  0
  182.3240  178.3040  137.1170 O   0  0  0  0  0  0  0  0  0  0  0  0
  184.1050  176.9120  138.0030 C   0  0  0  0  0  2  0  0  0  0  0  0
  185.1830  177.8980  137.5960 C   0  0  0  0  0  1  0  0  0  0  0  0
  1  5  1  0  0  0  0
  2  7  1  6  0  0  0
  2  3  1  0  0  0  0
  3  5  1  0  0  0  0
  4  1  1  0  0  0  0
  5 30  1  1  0  0  0
  6  2  1  0  0  0  0
  6  4  1  0  0  0  0
  8  9  1  0  0  0  0
  9  7  1  0  0  0  0
 10  9  2  0  0  0  0
 11  8  1  0  0  0  0
 12 11  1  6  0  0  0
 13 14  2  0  0  0  0
 14 12  1  0  0  0  0
 15 14  1  0  0  0  0
 16 12  1  0  0  0  0
 16 19  1  0  0  0  0
 17 19  1  0  0  0  0
 17 26  1  0  0  0  0
 17 23  1  1  0  0  0
 18 22  1  0  0  0  0
 19 22  1  0  0  0  0
 19 29  1  1  0  0  0
 20 24  2  0  0  0  0
 22 27  1  0  0  0  0
 22 21  1  0  0  0  0
 25 24  1  0  0  0  0
 26 28  1  1  0  0  0
 26 27  1  0  0  0  0
 27 25  1  6  0  0  0
 28 20  1  0  0  0  0
 30 31  1  0  0  0  0
 31 32  1  0  0  0  0
 32 33  1  0  0  0  0
 33 36  1  0  0  0  0
 34 38  1  0  0  0  0
 35 39  1  6  0  0  0
 36 42  1  6  0  0  0
 36 34  1  0  0  0  0
 36 37  1  0  0  0  0
 37 35  1  0  0  0  0
 38 35  1  0  0  0  0
 39 40  1  0  0  0  0
 41 39  2  0  0  0  0
 42 43  1  0  0  0  0
 44 48  1  6  0  0  0
 44 43  1  0  0  0  0
 44 46  1  0  0  0  0
 45 47  1  0  0  0  0
 46 45  1  0  0  0  0
 46 47  1  0  0  0  0
 49 48  1  0  0  0  0
 50 49  1  0  0  0  0
 51 52  1  0  0  0  0
 52 54  1  6  0  0  0
 52 50  1  0  0  0  0
 53 51  1  0  0  0  0
 53 52  1  0  0  0  0
 55 54  1  0  0  0  0
M  END
>  <MODEL>
6

>  <REMARK>
 VINA RESULT:      -6.0      2.025      2.995
  Name = 
  22 active torsions:
  status: ('A' for Active; 'I' for Inactive)
    1  A    between atoms: C_2  and  C_28
    2  A    between atoms: C_2  and  C_44
    3  A    between atoms: C_5  and  C_19
    4  A    between atoms: C_6  and  N_46
    5  A    between atoms: C_8  and  CA_22
    6  A    between atoms: C_8  and  N_35
    7  A    between atoms: C_10  and  C_32
    8  A    between atoms: C_15  and  C_17
    9  A    between atoms: C_16  and  C_17
   10  A    between atoms: C_16  and  C_26
   11  A    between atoms: C_17  and  C_36
   12  A    between atoms: C_19  and  C_45
   13  A    between atoms: C_20  and  CA_22
   14  A    between atoms: CA_22  and  N_46
   15  A    between atoms: C_26  and  C_45
   16  A    between atoms: C_27  and  C_54
   17  A    between atoms: C_28  and  C_33
   18  A    between atoms: C_33  and  N_49
   19  A    between atoms: C_34  and  N_49
   20  A    between atoms: C_34  and  C_52
   21  A    between atoms: C_36  and  C_52
   22  A    between atoms: C_43  and  C_54
                            x       y       z     vdW  Elec       q    Type
                         _______ _______ _______ _____ _____    ______ ____

>  <TORSDO>
F 22

$$$$
=
 OpenBabel10272401313D

 55 60  0  0  1  0  0  0  0  0999 V2000
  189.8900  177.7390  139.0950 C   0  0  0  0  0  2  0  0  0  0  0  0
  190.1830  177.5360  142.0130 C   0  0  2  0  0  3  0  0  0  0  0  0
  191.3780  177.3930  141.0760 C   0  0  0  0  0  2  0  0  0  0  0  0
  188.6850  177.8720  140.0210 C   0  0  0  0  0  2  0  0  0  0  0  0
  190.9310  176.8200  139.7300 C   0  0  2  0  0  3  0  0  0  0  0  0
  189.1180  178.4350  141.3720 C   0  0  0  0  0  2  0  0  0  0  0  0
  190.6580  178.1350  143.3270 C   0  0  0  0  0  2  0  0  0  0  0  0
  188.3110  177.9420  144.2360 N   0  0  0  0  0  2  0  0  0  0  0  0
  189.7190  177.7930  144.4320 C   0  0  0  0  0  0  0  0  0  0  0  0
  190.1710  177.3500  145.5210 O   0  0  0  0  0  0  0  0  0  0  0  0
  187.3300  177.4960  145.2150 C   0  0  0  0  0  2  0  0  0  0  0  0
  186.1470  178.4530  145.2690 C   0  0  2  0  0  3  0  0  0  0  0  0
  184.5310  178.7350  147.0040 O   0  0  0  0  0  0  0  0  0  0  0  0
  185.7540  178.6650  146.7000 C   0  0  0  0  0  0  0  0  0  0  0  0
  186.7170  178.8620  147.6830 O   0  0  0  0  0  1  0  0  0  0  0  0
  185.0280  177.9100  144.4920 N   0  0  0  0  0  2  0  0  0  0  0  0
  183.1500  178.4100  143.0020 C   0  0  1  0  0  3  0  0  0  0  0  0
  186.0400  177.6740  142.0180 F   0  0  0  0  0  0  0  0  0  0  0  0
  184.5410  178.8720  143.4940 C   0  0  2  0  0  0  0  0  0  0  0  0
  182.4220  178.8690  139.1910 C   0  0  0  0  0  3  0  0  0  0  0  0
  186.3960  179.8960  142.2970 F   0  0  0  0  0  0  0  0  0  0  0  0
  185.4320  178.9050  142.2310 C   0  0  0  0  0  0  0  0  0  0  0  0
  182.1350  179.2920  143.4000 O   0  0  0  0  0  1  0  0  0  0  0  0
  183.7010  178.9490  138.7660 C   0  0  0  0  0  3  0  0  0  0  0  0
  184.8830  178.8560  139.7050 C   0  0  0  0  0  2  0  0  0  0  0  0
  183.2590  178.3290  141.4820 C   0  0  2  0  0  3  0  0  0  0  0  0
  184.4410  179.1920  141.1260 C   0  0  1  0  0  3  0  0  0  0  0  0
  182.0500  178.7690  140.6570 C   0  0  0  0  0  2  0  0  0  0  0  0
  184.4440  180.1590  144.0520 O   0  0  0  0  0  1  0  0  0  0  0  0
  192.1250  176.6860  138.8020 C   0  0  0  0  0  2  0  0  0  0  0  0
  192.0990  175.3360  138.1090 C   0  0  0  0  0  2  0  0  0  0  0  0
  193.3860  175.1390  137.3410 C   0  0  0  0  0  2  0  0  0  0  0  0
  193.7470  173.7250  137.3530 N   0  0  0  0  0  2  0  0  0  0  0  0
  195.1310  173.6590  135.3820 C   0  0  0  0  0  2  0  0  0  0  0  0
  195.5060  171.3640  136.1020 C   0  0  1  0  0  3  0  0  0  0  0  0
  193.8480  173.1590  135.9980 C   0  0  1  0  0  0  0  0  0  0  0  0
  194.0120  171.6430  135.9970 C   0  0  0  0  0  2  0  0  0  0  0  0
  196.2090  172.6790  135.8030 C   0  0  0  0  0  2  0  0  0  0  0  0
  195.8870  170.8670  137.4720 C   0  0  0  0  0  0  0  0  0  0  0  0
  197.0800  170.1770  137.6540 O   0  0  0  0  0  0  0  0  0  0  0  0
  195.1190  171.0440  138.4550 O   0  0  0  0  0  1  0  0  0  0  0  0
  192.6940  173.6210  135.1030 C   0  0  0  0  0  2  0  0  0  0  0  0
  191.3710  172.9100  135.3960 C   0  0  0  0  0  2  0  0  0  0  0  0
  190.1940  173.8860  135.4630 C   0  0  1  0  0  3  0  0  0  0  0  0
  189.5240  176.1860  134.7830 C   0  0  0  0  0  2  0  0  0  0  0  0
  190.2550  174.9270  134.3490 C   0  0  0  0  0  3  0  0  0  0  0  0
  191.0300  176.1280  134.8380 C   0  0  0  0  0  2  0  0  0  0  0  0
  188.8600  173.1570  135.4290 C   0  0  0  0  0  2  0  0  0  0  0  0
  187.8960  173.8110  136.4030 C   0  0  0  0  0  2  0  0  0  0  0  0
  186.4790  173.6230  135.8920 C   0  0  0  0  0  2  0  0  0  0  0  0
  186.1420  175.6580  134.3690 C   0  0  0  0  0  2  0  0  0  0  0  0
  185.8120  174.9680  135.6320 C   0  0  1  0  0  0  0  0  0  0  0  0
  184.9290  174.9520  134.5380 O   0  0  0  0  0  0  0  0  0  0  0  0
  185.2820  175.8050  136.7850 C   0  0  0  0  0  2  0  0  0  0  0  0
  184.0150  175.1900  137.3470 C   0  0  0  0  0  1  0  0  0  0  0  0
  1  5  1  0  0  0  0
  1  4  1  0  0  0  0
  2  7  1  1  0  0  0
  3  2  1  0  0  0  0
  4  6  1  0  0  0  0
  5 30  1  6  0  0  0
  5  3  1  0  0  0  0
  6  2  1  0  0  0  0
  7  9  1  0  0  0  0
  8  9  1  0  0  0  0
  8 11  1  0  0  0  0
  9 10  2  0  0  0  0
 12 11  1  1  0  0  0
 12 14  1  0  0  0  0
 14 13  2  0  0  0  0
 14 15  1  0  0  0  0
 16 12  1  0  0  0  0
 17 23  1  6  0  0  0
 17 19  1  0  0  0  0
 18 22  1  0  0  0  0
 19 29  1  1  0  0  0
 19 16  1  0  0  0  0
 20 28  1  0  0  0  0
 22 21  1  0  0  0  0
 22 19  1  0  0  0  0
 24 20  2  0  0  0  0
 24 25  1  0  0  0  0
 26 28  1  6  0  0  0
 26 17  1  0  0  0  0
 27 25  1  6  0  0  0
 27 26  1  0  0  0  0
 27 22  1  0  0  0  0
 31 30  1  0  0  0  0
 32 33  1  0  0  0  0
 32 31  1  0  0  0  0
 34 38  1  0  0  0  0
 34 36  1  0  0  0  0
 35 39  1  1  0  0  0
 36 42  1  6  0  0  0
 36 33  1  0  0  0  0
 37 36  1  0  0  0  0
 37 35  1  0  0  0  0
 38 35  1  0  0  0  0
 39 40  2  0  0  0  0
 39 41  1  0  0  0  0
 42 43  1  0  0  0  0
 44 43  1  6  0  0  0
 45 47  1  0  0  0  0
 46 45  1  0  0  0  0
 46 47  1  0  0  0  0
 46 44  1  0  0  0  0
 48 44  1  0  0  0  0
 48 49  1  0  0  0  0
 50 49  1  0  0  0  0
 51 53  1  0  0  0  0
 51 52  1  0  0  0  0
 52 50  1  1  0  0  0
 52 54  1  0  0  0  0
 53 52  1  0  0  0  0
 54 55  1  0  0  0  0
M  END
>  <MODEL>
7

>  <REMARK>
 VINA RESULT:      -5.5      3.427     11.435
  Name = 
  22 active torsions:
  status: ('A' for Active; 'I' for Inactive)
    1  A    between atoms: C_2  and  C_28
    2  A    between atoms: C_2  and  C_44
    3  A    between atoms: C_5  and  C_19
    4  A    between atoms: C_6  and  N_46
    5  A    between atoms: C_8  and  CA_22
    6  A    between atoms: C_8  and  N_35
    7  A    between atoms: C_10  and  C_32
    8  A    between atoms: C_15  and  C_17
    9  A    between atoms: C_16  and  C_17
   10  A    between atoms: C_16  and  C_26
   11  A    between atoms: C_17  and  C_36
   12  A    between atoms: C_19  and  C_45
   13  A    between atoms: C_20  and  CA_22
   14  A    between atoms: CA_22  and  N_46
   15  A    between atoms: C_26  and  C_45
   16  A    between atoms: C_27  and  C_54
   17  A    between atoms: C_28  and  C_33
   18  A    between atoms: C_33  and  N_49
   19  A    between atoms: C_34  and  N_49
   20  A    between atoms: C_34  and  C_52
   21  A    between atoms: C_36  and  C_52
   22  A    between atoms: C_43  and  C_54
                            x       y       z     vdW  Elec       q    Type
                         _______ _______ _______ _____ _____    ______ ____

>  <TORSDO>
F 22

$$$$
=
 OpenBabel10272401313D

 55 60  0  0  1  0  0  0  0  0999 V2000
  183.6870  175.5940  138.0010 C   0  0  0  0  0  2  0  0  0  0  0  0
  185.5900  175.0960  135.8160 C   0  0  2  0  0  3  0  0  0  0  0  0
  185.4770  176.4620  136.4830 C   0  0  0  0  0  2  0  0  0  0  0  0
  183.7840  174.2250  137.3330 C   0  0  0  0  0  2  0  0  0  0  0  0
  184.0530  176.6840  136.9970 C   0  0  2  0  0  3  0  0  0  0  0  0
  185.1970  173.9930  136.8070 C   0  0  0  0  0  2  0  0  0  0  0  0
  187.0220  174.8970  135.3450 C   0  0  0  0  0  2  0  0  0  0  0  0
  189.2910  174.3280  136.2960 N   0  0  0  0  0  2  0  0  0  0  0  0
  187.9460  174.7660  136.5070 C   0  0  0  0  0  0  0  0  0  0  0  0
  187.5440  175.0670  137.6620 O   0  0  0  0  0  0  0  0  0  0  0  0
  190.2860  174.3130  137.3580 C   0  0  0  0  0  2  0  0  0  0  0  0
  191.4440  175.2450  137.0260 C   0  0  2  0  0  3  0  0  0  0  0  0
  190.2300  177.2700  136.6690 O   0  0  0  0  0  1  0  0  0  0  0  0
  190.9410  176.3600  136.1600 C   0  0  0  0  0  0  0  0  0  0  0  0
  191.1810  176.3640  134.7910 O   0  0  0  0  0  0  0  0  0  0  0  0
  192.5110  174.4970  136.3530 N   0  0  0  0  0  2  0  0  0  0  0  0
  194.5680  175.7030  135.7920 C   0  0  1  0  0  3  0  0  0  0  0  0
  194.4020  172.5970  136.2270 F   0  0  0  0  0  0  0  0  0  0  0  0
  193.8390  174.8630  136.8660 C   0  0  2  0  0  0  0  0  0  0  0  0
  198.3900  175.0170  135.3590 C   0  0  0  0  0  3  0  0  0  0  0  0
  194.6730  173.1710  138.4040 F   0  0  0  0  0  0  0  0  0  0  0  0
  194.7370  173.6260  137.0980 C   0  0  0  0  0  0  0  0  0  0  0  0
  194.7550  177.0300  136.2040 O   0  0  0  0  0  1  0  0  0  0  0  0
  198.4220  173.7870  135.9150 C   0  0  0  0  0  3  0  0  0  0  0  0
  197.1890  173.1060  136.4670 C   0  0  0  0  0  2  0  0  0  0  0  0
  195.8990  174.9960  135.5530 C   0  0  2  0  0  3  0  0  0  0  0  0
  196.1190  174.1480  136.7780 C   0  0  1  0  0  3  0  0  0  0  0  0
  197.1340  175.8640  135.3160 C   0  0  0  0  0  2  0  0  0  0  0  0
  193.7240  175.6070  138.0540 O   0  0  0  0  0  1  0  0  0  0  0  0
  183.9490  178.0440  137.6650 C   0  0  0  0  0  2  0  0  0  0  0  0
  185.3220  178.5200  138.1010 C   0  0  0  0  0  2  0  0  0  0  0  0
  185.2810  178.9040  139.5630 C   0  0  0  0  0  2  0  0  0  0  0  0
  183.8930  179.0770  139.9790 N   0  0  0  0  0  2  0  0  0  0  0  0
  182.6830  179.2520  142.0560 C   0  0  0  0  0  2  0  0  0  0  0  0
  181.3050  177.5240  141.0380 C   0  0  1  0  0  3  0  0  0  0  0  0
  183.5910  178.3700  141.2350 C   0  0  1  0  0  0  0  0  0  0  0  0
  182.7690  177.1040  141.0220 C   0  0  0  0  0  2  0  0  0  0  0  0
  181.2690  178.9320  141.6090 C   0  0  0  0  0  2  0  0  0  0  0  0
  180.7020  177.5030  139.6580 C   0  0  0  0  0  0  0  0  0  0  0  0
  180.7090  178.6550  138.8790 O   0  0  0  0  0  0  0  0  0  0  0  0
  180.1630  176.4570  139.2090 O   0  0  0  0  0  1  0  0  0  0  0  0
  184.8550  178.1130  142.0590 C   0  0  0  0  0  2  0  0  0  0  0  0
  184.6830  178.4090  143.5500 C   0  0  0  0  0  2  0  0  0  0  0  0
  185.9870  178.2200  144.3310 C   0  0  1  0  0  3  0  0  0  0  0  0
  185.9760  179.0910  146.6640 C   0  0  0  0  0  2  0  0  0  0  0  0
  185.7270  177.8710  145.7940 C   0  0  0  0  0  3  0  0  0  0  0  0
  184.5670  178.6960  146.3000 C   0  0  0  0  0  2  0  0  0  0  0  0
  186.8750  177.1670  143.6900 C   0  0  0  0  0  2  0  0  0  0  0  0
  188.2380  177.1730  144.3580 C   0  0  0  0  0  2  0  0  0  0  0  0
  189.1930  176.3250  143.5360 C   0  0  0  0  0  2  0  0  0  0  0  0
  191.2990  177.1820  142.3530 C   0  0  0  0  0  2  0  0  0  0  0  0
  190.6140  176.8680  143.6210 C   0  0  1  0  0  0  0  0  0  0  0  0
  190.7350  178.1920  143.1650 O   0  0  0  0  0  0  0  0  0  0  0  0
  191.4700  176.6040  144.8490 C   0  0  0  0  0  2  0  0  0  0  0  0
  190.7410  177.0340  146.1070 C   0  0  0  0  0  1  0  0  0  0  0  0
  2  7  1  1  0  0  0
  2  3  1  0  0  0  0
  2  6  1  0  0  0  0
  3  5  1  0  0  0  0
  4  1  1  0  0  0  0
  5 30  1  1  0  0  0
  5  1  1  0  0  0  0
  6  4  1  0  0  0  0
  7  9  1  0  0  0  0
  8  9  1  0  0  0  0
  8 11  1  0  0  0  0
  9 10  2  0  0  0  0
 12 11  1  6  0  0  0
 14 13  1  0  0  0  0
 14 12  1  0  0  0  0
 15 14  2  0  0  0  0
 16 19  1  0  0  0  0
 16 12  1  0  0  0  0
 17 23  1  1  0  0  0
 17 19  1  0  0  0  0
 18 22  1  0  0  0  0
 19 22  1  0  0  0  0
 19 29  1  1  0  0  0
 20 24  2  0  0  0  0
 22 21  1  0  0  0  0
 24 25  1  0  0  0  0
 26 28  1  1  0  0  0
 26 17  1  0  0  0  0
 26 27  1  0  0  0  0
 27 25  1  6  0  0  0
 27 22  1  0  0  0  0
 28 20  1  0  0  0  0
 30 31  1  0  0  0  0
 31 32  1  0  0  0  0
 32 33  1  0  0  0  0
 33 36  1  0  0  0  0
 35 39  1  6  0  0  0
 35 38  1  0  0  0  0
 36 34  1  0  0  0  0
 36 42  1  1  0  0  0
 37 35  1  0  0  0  0
 37 36  1  0  0  0  0
 38 34  1  0  0  0  0
 40 39  2  0  0  0  0
 41 39  1  0  0  0  0
 42 43  1  0  0  0  0
 44 43  1  6  0  0  0
 44 46  1  0  0  0  0
 46 47  1  0  0  0  0
 46 45  1  0  0  0  0
 47 45  1  0  0  0  0
 48 44  1  0  0  0  0
 48 49  1  0  0  0  0
 50 49  1  0  0  0  0
 51 53  1  0  0  0  0
 51 52  1  0  0  0  0
 52 50  1  6  0  0  0
 52 54  1  0  0  0  0
 53 52  1  0  0  0  0
 54 55  1  0  0  0  0
M  END
>  <MODEL>
8

>  <REMARK>
 VINA RESULT:      -5.5      2.343      6.207
  Name = 
  22 active torsions:
  status: ('A' for Active; 'I' for Inactive)
    1  A    between atoms: C_2  and  C_28
    2  A    between atoms: C_2  and  C_44
    3  A    between atoms: C_5  and  C_19
    4  A    between atoms: C_6  and  N_46
    5  A    between atoms: C_8  and  CA_22
    6  A    between atoms: C_8  and  N_35
    7  A    between atoms: C_10  and  C_32
    8  A    between atoms: C_15  and  C_17
    9  A    between atoms: C_16  and  C_17
   10  A    between atoms: C_16  and  C_26
   11  A    between atoms: C_17  and  C_36
   12  A    between atoms: C_19  and  C_45
   13  A    between atoms: C_20  and  CA_22
   14  A    between atoms: CA_22  and  N_46
   15  A    between atoms: C_26  and  C_45
   16  A    between atoms: C_27  and  C_54
   17  A    between atoms: C_28  and  C_33
   18  A    between atoms: C_33  and  N_49
   19  A    between atoms: C_34  and  N_49
   20  A    between atoms: C_34  and  C_52
   21  A    between atoms: C_36  and  C_52
   22  A    between atoms: C_43  and  C_54
                            x       y       z     vdW  Elec       q    Type
                         _______ _______ _______ _____ _____    ______ ____

>  <TORSDO>
F 22

$$$$
=
 OpenBabel10272401313D

 55 60  0  0  1  0  0  0  0  0999 V2000
  193.3420  176.4140  138.7660 C   0  0  0  0  0  2  0  0  0  0  0  0
  191.1120  177.6100  140.2630 C   0  0  2  0  0  3  0  0  0  0  0  0
  190.9060  176.4150  139.3370 C   0  0  0  0  0  2  0  0  0  0  0  0
  193.5580  177.6160  139.6810 C   0  0  0  0  0  2  0  0  0  0  0  0
  191.9260  176.4470  138.1970 C   0  0  2  0  0  3  0  0  0  0  0  0
  192.5420  177.6030  140.8180 C   0  0  0  0  0  2  0  0  0  0  0  0
  190.1030  177.5300  141.3980 C   0  0  0  0  0  2  0  0  0  0  0  0
  191.2370  177.1950  143.6280 N   0  0  0  0  0  2  0  0  0  0  0  0
  190.5970  176.6330  142.4800 C   0  0  0  0  0  0  0  0  0  0  0  0
  190.4220  175.3900  142.3890 O   0  0  0  0  0  0  0  0  0  0  0  0
  191.6160  176.3970  144.7850 C   0  0  0  0  0  2  0  0  0  0  0  0
  190.9200  176.9040  146.0410 C   0  0  2  0  0  3  0  0  0  0  0  0
  191.4910  175.1110  147.5110 O   0  0  0  0  0  0  0  0  0  0  0  0
  191.6120  176.3390  147.2450 C   0  0  0  0  0  0  0  0  0  0  0  0
  192.3180  177.1620  148.1140 O   0  0  0  0  0  1  0  0  0  0  0  0
  189.5050  176.5170  146.0190 N   0  0  0  0  0  2  0  0  0  0  0  0
  187.5010  177.5000  147.0280 C   0  0  1  0  0  3  0  0  0  0  0  0
  187.7040  176.5840  144.0310 F   0  0  0  0  0  0  0  0  0  0  0  0
  188.6200  177.6910  145.9800 C   0  0  2  0  0  0  0  0  0  0  0  0
  183.9310  178.6950  145.9850 C   0  0  0  0  0  3  0  0  0  0  0  0
  188.5670  178.6620  143.7490 F   0  0  0  0  0  0  0  0  0  0  0  0
  187.8920  177.8270  144.6220 C   0  0  0  0  0  0  0  0  0  0  0  0
  187.6070  178.4210  148.0790 O   0  0  0  0  0  1  0  0  0  0  0  0
  184.1150  178.6850  144.6470 C   0  0  0  0  0  3  0  0  0  0  0  0
  185.4230  178.2830  144.0050 C   0  0  0  0  0  2  0  0  0  0  0  0
  186.1910  177.6680  146.2640 C   0  0  2  0  0  3  0  0  0  0  0  0
  186.5590  178.4230  145.0140 C   0  0  1  0  0  3  0  0  0  0  0  0
  185.0440  178.3930  146.9680 C   0  0  0  0  0  2  0  0  0  0  0  0
  189.3420  178.8640  146.2620 O   0  0  0  0  0  1  0  0  0  0  0  0
  191.7180  175.2520  137.2820 C   0  0  0  0  0  2  0  0  0  0  0  0
  190.2380  174.9430  137.1530 C   0  0  0  0  0  2  0  0  0  0  0  0
  190.0250  173.9680  136.0180 C   0  0  0  0  0  2  0  0  0  0  0  0
  188.9650  174.4660  135.1460 N   0  0  0  0  0  2  0  0  0  0  0  0
  186.7430  175.3680  134.9060 C   0  0  0  0  0  2  0  0  0  0  0  0
  186.1040  173.2090  135.8290 C   0  0  1  0  0  3  0  0  0  0  0  0
  187.8040  174.9650  135.9010 C   0  0  1  0  0  0  0  0  0  0  0  0
  187.1260  173.8840  136.7350 C   0  0  0  0  0  2  0  0  0  0  0  0
  185.9380  174.1150  134.6200 C   0  0  0  0  0  2  0  0  0  0  0  0
  186.5570  171.8390  135.3990 C   0  0  0  0  0  0  0  0  0  0  0  0
  187.5330  171.1690  136.1270 O   0  0  0  0  0  1  0  0  0  0  0  0
  186.0820  171.3020  134.3630 O   0  0  0  0  0  0  0  0  0  0  0  0
  188.1570  176.2050  136.7280 C   0  0  0  0  0  2  0  0  0  0  0  0
  187.0990  176.5630  137.7740 C   0  0  0  0  0  2  0  0  0  0  0  0
  186.9130  178.0760  137.9130 C   0  0  1  0  0  3  0  0  0  0  0  0
  188.7050  179.7500  137.4810 C   0  0  0  0  0  2  0  0  0  0  0  0
  187.6730  178.8430  136.8340 C   0  0  0  0  0  3  0  0  0  0  0  0
  189.1280  178.4370  136.8720 C   0  0  0  0  0  2  0  0  0  0  0  0
  185.4440  178.4640  137.8970 C   0  0  0  0  0  2  0  0  0  0  0  0
  184.5860  177.2120  137.8640 C   0  0  0  0  0  2  0  0  0  0  0  0
  183.6320  177.3010  136.6870 C   0  0  0  0  0  2  0  0  0  0  0  0
  181.4660  175.9370  136.8400 C   0  0  0  0  0  2  0  0  0  0  0  0
  182.1850  177.1890  137.1490 C   0  0  1  0  0  0  0  0  0  0  0  0
  181.9850  176.2010  138.1280 O   0  0  0  0  0  0  0  0  0  0  0  0
  181.3600  178.4380  137.4180 C   0  0  0  0  0  2  0  0  0  0  0  0
  182.0980  179.3680  138.3620 C   0  0  0  0  0  1  0  0  0  0  0  0
  1  4  1  0  0  0  0
  2  6  1  0  0  0  0
  2  7  1  1  0  0  0
  3  2  1  0  0  0  0
  4  6  1  0  0  0  0
  5 30  1  6  0  0  0
  5  1  1  0  0  0  0
  5  3  1  0  0  0  0
  7  9  1  0  0  0  0
  8 11  1  0  0  0  0
  9  8  1  0  0  0  0
 10  9  2  0  0  0  0
 12 11  1  6  0  0  0
 12 14  1  0  0  0  0
 14 13  2  0  0  0  0
 14 15  1  0  0  0  0
 16 12  1  0  0  0  0
 17 23  1  1  0  0  0
 18 22  1  0  0  0  0
 19 16  1  0  0  0  0
 19 29  1  1  0  0  0
 19 17  1  0  0  0  0
 20 28  1  0  0  0  0
 21 22  1  0  0  0  0
 22 27  1  0  0  0  0
 22 19  1  0  0  0  0
 24 20  2  0  0  0  0
 25 24  1  0  0  0  0
 26 28  1  1  0  0  0
 26 17  1  0  0  0  0
 27 25  1  6  0  0  0
 27 26  1  0  0  0  0
 31 30  1  0  0  0  0
 32 31  1  0  0  0  0
 33 36  1  0  0  0  0
 33 32  1  0  0  0  0
 34 36  1  0  0  0  0
 35 39  1  6  0  0  0
 35 37  1  0  0  0  0
 36 42  1  1  0  0  0
 36 37  1  0  0  0  0
 38 34  1  0  0  0  0
 38 35  1  0  0  0  0
 39 40  1  0  0  0  0
 41 39  2  0  0  0  0
 42 43  1  0  0  0  0
 44 43  1  6  0  0  0
 46 47  1  0  0  0  0
 46 45  1  0  0  0  0
 46 44  1  0  0  0  0
 47 45  1  0  0  0  0
 48 44  1  0  0  0  0
 49 48  1  0  0  0  0
 50 49  1  0  0  0  0
 51 52  1  0  0  0  0
 51 53  1  0  0  0  0
 52 50  1  6  0  0  0
 52 54  1  0  0  0  0
 52 53  1  0  0  0  0
 54 55  1  0  0  0  0
M  END
>  <MODEL>
9

>  <REMARK>
 VINA RESULT:      -5.5      4.014     10.385
  Name = 
  22 active torsions:
  status: ('A' for Active; 'I' for Inactive)
    1  A    between atoms: C_2  and  C_28
    2  A    between atoms: C_2  and  C_44
    3  A    between atoms: C_5  and  C_19
    4  A    between atoms: C_6  and  N_46
    5  A    between atoms: C_8  and  CA_22
    6  A    between atoms: C_8  and  N_35
    7  A    between atoms: C_10  and  C_32
    8  A    between atoms: C_15  and  C_17
    9  A    between atoms: C_16  and  C_17
   10  A    between atoms: C_16  and  C_26
   11  A    between atoms: C_17  and  C_36
   12  A    between atoms: C_19  and  C_45
   13  A    between atoms: C_20  and  CA_22
   14  A    between atoms: CA_22  and  N_46
   15  A    between atoms: C_26  and  C_45
   16  A    between atoms: C_27  and  C_54
   17  A    between atoms: C_28  and  C_33
   18  A    between atoms: C_33  and  N_49
   19  A    between atoms: C_34  and  N_49
   20  A    between atoms: C_34  and  C_52
   21  A    between atoms: C_36  and  C_52
   22  A    between atoms: C_43  and  C_54
                            x       y       z     vdW  Elec       q    Type
                         _______ _______ _______ _____ _____    ______ ____

>  <TORSDO>
F 22

$$$$
