=
 OpenBabel10272413253D

 32 38  0  0  1  0  0  0  0  0999 V2000
  192.1320  175.0820  137.2090 C   0  0  0  0  0  0  0  0  0  0  0  0
  189.8340  177.6630  137.3960 C   0  0  0  0  0  2  0  0  0  0  0  0
  188.4830  177.6270  142.4100 C   0  0  0  0  0  0  0  0  0  0  0  0
  183.8850  179.1600  142.4000 N   0  0  0  0  0  0  0  0  0  0  0  0
  183.8450  179.1060  143.7580 C   0  0  0  0  0  3  0  0  0  0  0  0
  189.3710  177.2730  144.8050 C   0  0  0  0  0  0  0  0  0  0  0  0
  190.7420  176.9130  144.8030 C   0  0  0  0  0  0  0  0  0  0  0  0
  189.8250  177.8360  140.3220 C   0  0  2  0  0  3  0  0  0  0  0  0
  187.3760  178.0680  140.2090 C   0  0  0  0  0  3  0  0  0  0  0  0
  190.1050  175.3110  138.3170 C   0  0  0  0  0  3  0  0  0  0  0  0
  189.3050  177.1280  147.2380 C   0  0  0  0  0  0  0  0  0  0  0  0
  188.4630  177.8290  138.0470 C   0  0  0  0  0  2  0  0  0  0  0  0
  185.0050  178.8250  141.7050 C   0  0  0  0  0  3  0  0  0  0  0  0
  186.1620  178.4130  142.3800 C   0  0  0  0  0  0  0  0  0  0  0  0
  187.3360  178.0480  141.6910 C   0  0  0  0  0  0  0  0  0  0  0  0
  187.2630  177.9540  144.4470 N   0  0  0  0  0  0  0  0  0  0  0  0
  193.0940  174.5160  136.6270 O   0  0  0  0  0  0  0  0  0  0  0  0
  190.6490  176.7410  147.2420 C   0  0  0  0  0  3  0  0  0  0  0  0
  192.0500  176.5380  137.4180 C   0  0  0  0  0  2  0  0  0  0  0  0
  191.0320  174.3680  137.7210 N   0  0  0  0  0  0  0  0  0  0  0  0
  188.5250  177.9260  139.5430 C   0  0  0  0  0  0  0  0  0  0  0  0
  191.3600  176.6430  146.0360 C   0  0  0  0  0  3  0  0  0  0  0  0
  191.0420  177.3060  139.5520 C   0  0  0  0  0  2  0  0  0  0  0  0
  190.7360  176.7120  138.1790 C   0  0  1  0  0  0  0  0  0  0  0  0
  184.9710  178.7010  144.4780 C   0  0  0  0  0  3  0  0  0  0  0  0
  186.1400  178.3510  143.7880 C   0  0  0  0  0  0  0  0  0  0  0  0
  187.4090  177.8180  145.7810 C   0  0  0  0  0  3  0  0  0  0  0  0
  189.6330  177.0640  141.6250 C   0  0  0  0  0  2  0  0  0  0  0  0
  191.6070  176.8710  143.5980 C   0  0  0  0  0  1  0  0  0  0  0  0
  188.6010  177.2440  148.4310 O   0  0  0  0  0  1  0  0  0  0  0  0
  188.4230  177.6150  143.8230 C   0  0  0  0  0  0  0  0  0  0  0  0
  188.6970  177.3950  146.0120 C   0  0  0  0  0  0  0  0  0  0  0  0
  1 19  1  0  0  0  0
  1 20  1  0  0  0  0
  2 12  1  0  0  0  0
  3 31  1  0  0  0  0
  4  5  1  0  0  0  0
  5 25  2  0  0  0  0
  6 32  1  0  0  0  0
  7  6  1  0  0  0  0
  7 22  2  0  0  0  0
  8 23  1  6  0  0  0
  8 28  1  0  0  0  0
  9 15  1  0  0  0  0
 11 18  2  0  0  0  0
 11 30  1  0  0  0  0
 12 21  1  0  0  0  0
 13 14  1  0  0  0  0
 13  4  2  0  0  0  0
 14 26  2  0  0  0  0
 15 14  1  0  0  0  0
 15  3  2  0  0  0  0
 16 27  1  0  0  0  0
 17  1  2  0  0  0  0
 19 24  1  0  0  0  0
 20 10  2  0  0  0  0
 21  9  2  0  0  0  0
 21  8  1  0  0  0  0
 22 18  1  0  0  0  0
 24  2  1  6  0  0  0
 24 10  1  0  0  0  0
 24 23  1  0  0  0  0
 26 16  1  0  0  0  0
 26 25  1  0  0  0  0
 27 32  2  0  0  0  0
 28  3  1  0  0  0  0
 29  7  1  0  0  0  0
 31 16  1  0  0  0  0
 31  6  2  0  0  0  0
 32 11  1  0  0  0  0
M  END
>  <MODEL>
1

>  <REMARK>
 VINA RESULT:     -12.1      0.000      0.000
  Name = 
  0 active torsions:
  status: ('A' for Active; 'I' for Inactive)
                            x       y       z     vdW  Elec       q    Type
                         _______ _______ _______ _____ _____    ______ ____

>  <TORSDO>
F 0

$$$$
=
 OpenBabel10272413253D

 32 38  0  0  1  0  0  0  0  0999 V2000
  189.8320  176.1330  136.0680 C   0  0  0  0  0  0  0  0  0  0  0  0
  187.5080  178.4670  137.1300 C   0  0  0  0  0  2  0  0  0  0  0  0
  187.6430  177.9430  142.2950 C   0  0  0  0  0  0  0  0  0  0  0  0
  183.1360  179.0340  143.7060 N   0  0  0  0  0  0  0  0  0  0  0  0
  183.4870  178.8800  145.0100 C   0  0  0  0  0  3  0  0  0  0  0  0
  189.1970  177.5030  144.3050 C   0  0  0  0  0  0  0  0  0  0  0  0
  190.5320  177.2740  143.8890 C   0  0  0  0  0  0  0  0  0  0  0  0
  188.3180  178.4270  139.9470 C   0  0  2  0  0  3  0  0  0  0  0  0
  185.9280  178.4360  140.5390 C   0  0  0  0  0  3  0  0  0  0  0  0
  188.1920  176.0900  137.7110 C   0  0  0  0  0  3  0  0  0  0  0  0
  189.8350  177.1770  146.6350 C   0  0  0  0  0  0  0  0  0  0  0  0
  186.3700  178.4560  138.1490 C   0  0  0  0  0  2  0  0  0  0  0  0
  184.0330  178.8570  142.6990 C   0  0  0  0  0  3  0  0  0  0  0  0
  185.3600  178.5080  142.9850 C   0  0  0  0  0  0  0  0  0  0  0  0
  186.3120  178.3060  141.9650 C   0  0  0  0  0  0  0  0  0  0  0  0
  187.0320  178.0060  144.6120 N   0  0  0  0  0  0  0  0  0  0  0  0
  190.6260  175.7030  135.1920 O   0  0  0  0  0  0  0  0  0  0  0  0
  191.1480  176.9180  146.2300 C   0  0  0  0  0  3  0  0  0  0  0  0
  189.7120  177.5560  136.4300 C   0  0  0  0  0  2  0  0  0  0  0  0
  188.9750  175.2840  136.7940 N   0  0  0  0  0  0  0  0  0  0  0  0
  186.8470  178.4500  139.5710 C   0  0  0  0  0  0  0  0  0  0  0  0
  191.4920  176.9750  144.8700 C   0  0  0  0  0  3  0  0  0  0  0  0
  189.3000  178.0700  138.8230 C   0  0  0  0  0  2  0  0  0  0  0  0
  188.6580  177.5510  137.5380 C   0  0  1  0  0  0  0  0  0  0  0  0
  184.7960  178.5310  145.3480 C   0  0  0  0  0  3  0  0  0  0  0  0
  185.7430  178.3430  144.3310 C   0  0  0  0  0  0  0  0  0  0  0  0
  187.5600  177.7890  145.8340 C   0  0  0  0  0  3  0  0  0  0  0  0
  188.5590  177.5490  141.1720 C   0  0  0  0  0  2  0  0  0  0  0  0
  191.0200  177.4000  142.4930 C   0  0  0  0  0  1  0  0  0  0  0  0
  189.4930  177.1400  147.9820 O   0  0  0  0  0  1  0  0  0  0  0  0
  187.9870  177.8240  143.6610 C   0  0  0  0  0  0  0  0  0  0  0  0
  188.8870  177.4730  145.6570 C   0  0  0  0  0  0  0  0  0  0  0  0
  1 19  1  0  0  0  0
  1 20  1  0  0  0  0
  2 24  1  0  0  0  0
  2 12  1  0  0  0  0
  3 31  1  0  0  0  0
  4  5  1  0  0  0  0
  5 25  2  0  0  0  0
  6 32  1  0  0  0  0
  7  6  1  0  0  0  0
  7 22  2  0  0  0  0
  8 23  1  6  0  0  0
  8 28  1  0  0  0  0
  9 15  1  0  0  0  0
 11 30  1  0  0  0  0
 12 21  1  0  0  0  0
 13 14  1  0  0  0  0
 13  4  2  0  0  0  0
 14 26  2  0  0  0  0
 15  3  2  0  0  0  0
 15 14  1  0  0  0  0
 16 27  1  0  0  0  0
 17  1  2  0  0  0  0
 18 11  2  0  0  0  0
 20 10  2  0  0  0  0
 21  8  1  0  0  0  0
 21  9  2  0  0  0  0
 22 18  1  0  0  0  0
 24 19  1  6  0  0  0
 24 10  1  0  0  0  0
 24 23  1  0  0  0  0
 26 16  1  0  0  0  0
 26 25  1  0  0  0  0
 28  3  1  0  0  0  0
 29  7  1  0  0  0  0
 31  6  2  0  0  0  0
 31 16  1  0  0  0  0
 32 27  2  0  0  0  0
 32 11  1  0  0  0  0
M  END
>  <MODEL>
2

>  <REMARK>
 VINA RESULT:     -11.9      1.412      1.620
  Name = 
  0 active torsions:
  status: ('A' for Active; 'I' for Inactive)
                            x       y       z     vdW  Elec       q    Type
                         _______ _______ _______ _____ _____    ______ ____

>  <TORSDO>
F 0

$$$$
=
 OpenBabel10272413253D

 32 38  0  0  1  0  0  0  0  0999 V2000
  181.0450  177.6050  138.3580 C   0  0  0  0  0  0  0  0  0  0  0  0
  181.4710  179.2490  141.3740 C   0  0  0  0  0  2  0  0  0  0  0  0
  186.3740  178.0840  142.6250 C   0  0  0  0  0  0  0  0  0  0  0  0
  186.3700  178.0280  147.4710 N   0  0  0  0  0  0  0  0  0  0  0  0
  187.7060  177.7770  147.4880 C   0  0  0  0  0  3  0  0  0  0  0  0
  188.7380  177.7090  141.6640 C   0  0  0  0  0  0  0  0  0  0  0  0
  188.7470  177.8170  140.2510 C   0  0  0  0  0  0  0  0  0  0  0  0
  184.3920  179.0030  141.4310 C   0  0  2  0  0  3  0  0  0  0  0  0
  184.2050  178.4420  143.8210 C   0  0  0  0  0  3  0  0  0  0  0  0
  182.0860  177.0080  140.3460 C   0  0  0  0  0  3  0  0  0  0  0  0
  191.1260  177.2150  141.6720 C   0  0  0  0  0  0  0  0  0  0  0  0
  182.0800  178.8690  142.7220 C   0  0  0  0  0  2  0  0  0  0  0  0
  185.6850  178.1740  146.3060 C   0  0  0  0  0  3  0  0  0  0  0  0
  186.3490  178.0700  145.0760 C   0  0  0  0  0  0  0  0  0  0  0  0
  185.6680  178.2050  143.8490 C   0  0  0  0  0  0  0  0  0  0  0  0
  188.3830  177.7120  143.8790 N   0  0  0  0  0  0  0  0  0  0  0  0
  180.4350  177.4670  137.2660 O   0  0  0  0  0  0  0  0  0  0  0  0
  191.1360  177.2880  140.2760 C   0  0  0  0  0  3  0  0  0  0  0  0
  181.4400  178.9120  138.9110 C   0  0  0  0  0  2  0  0  0  0  0  0
  181.4110  176.5090  139.1630 N   0  0  0  0  0  0  0  0  0  0  0  0
  183.5760  178.7730  142.6920 C   0  0  0  0  0  0  0  0  0  0  0  0
  189.9590  177.5940  139.5750 C   0  0  0  0  0  3  0  0  0  0  0  0
  183.6110  179.0080  140.1090 C   0  0  0  0  0  2  0  0  0  0  0  0
  182.1600  178.5430  140.2090 C   0  0  1  0  0  0  0  0  0  0  0  0
  188.4140  177.6630  146.2900 C   0  0  0  0  0  3  0  0  0  0  0  0
  187.7350  177.8110  145.0730 C   0  0  0  0  0  0  0  0  0  0  0  0
  189.6930  177.4470  143.6940 C   0  0  0  0  0  3  0  0  0  0  0  0
  185.5720  178.0380  141.3560 C   0  0  0  0  0  2  0  0  0  0  0  0
  187.5860  178.2250  139.4230 C   0  0  0  0  0  1  0  0  0  0  0  0
  192.2920  176.9300  142.3720 O   0  0  0  0  0  1  0  0  0  0  0  0
  187.7690  177.8570  142.6750 C   0  0  0  0  0  0  0  0  0  0  0  0
  189.9210  177.4380  142.3370 C   0  0  0  0  0  0  0  0  0  0  0  0
  1 19  1  0  0  0  0
  1 20  1  0  0  0  0
  2 12  1  0  0  0  0
  3 31  1  0  0  0  0
  3 15  2  0  0  0  0
  4  5  1  0  0  0  0
  6 32  1  0  0  0  0
  6 31  2  0  0  0  0
  7  6  1  0  0  0  0
  8 23  1  6  0  0  0
  8 21  1  0  0  0  0
  9 15  1  0  0  0  0
 11 32  1  0  0  0  0
 11 30  1  0  0  0  0
 13  4  2  0  0  0  0
 14 13  1  0  0  0  0
 15 14  1  0  0  0  0
 16 26  1  0  0  0  0
 17  1  2  0  0  0  0
 18 11  2  0  0  0  0
 20 10  2  0  0  0  0
 21 12  1  0  0  0  0
 21  9  2  0  0  0  0
 22  7  2  0  0  0  0
 22 18  1  0  0  0  0
 23 24  1  0  0  0  0
 24 19  1  6  0  0  0
 24 10  1  0  0  0  0
 24  2  1  0  0  0  0
 25  5  2  0  0  0  0
 26 14  2  0  0  0  0
 26 25  1  0  0  0  0
 27 16  1  0  0  0  0
 28  8  1  0  0  0  0
 28  3  1  0  0  0  0
 29  7  1  0  0  0  0
 31 16  1  0  0  0  0
 32 27  2  0  0  0  0
M  END
>  <MODEL>
3

>  <REMARK>
 VINA RESULT:     -10.8      3.345      6.601
  Name = 
  0 active torsions:
  status: ('A' for Active; 'I' for Inactive)
                            x       y       z     vdW  Elec       q    Type
                         _______ _______ _______ _____ _____    ______ ____

>  <TORSDO>
F 0

$$$$
=
 OpenBabel10272413253D

 32 38  0  0  1  0  0  0  0  0999 V2000
  188.3980  178.7790  136.4330 C   0  0  0  0  0  0  0  0  0  0  0  0
  190.1890  176.5500  138.3830 C   0  0  0  0  0  2  0  0  0  0  0  0
  188.3490  177.4710  143.1510 C   0  0  0  0  0  0  0  0  0  0  0  0
  192.1050  176.5230  146.0640 N   0  0  0  0  0  0  0  0  0  0  0  0
  191.3420  176.7760  147.1600 C   0  0  0  0  0  3  0  0  0  0  0  0
  186.2230  178.0560  144.4870 C   0  0  0  0  0  0  0  0  0  0  0  0
  185.1080  178.2430  143.6330 C   0  0  0  0  0  0  0  0  0  0  0  0
  188.4860  176.8030  140.7560 C   0  0  2  0  0  3  0  0  0  0  0  0
  190.5410  176.8560  142.1110 C   0  0  0  0  0  3  0  0  0  0  0  0
  189.3960  178.9600  138.5210 C   0  0  0  0  0  3  0  0  0  0  0  0
  184.8500  178.5570  146.4390 C   0  0  0  0  0  0  0  0  0  0  0  0
  190.9220  176.6470  139.7190 C   0  0  0  0  0  2  0  0  0  0  0  0
  191.5990  176.6150  144.8050 C   0  0  0  0  0  3  0  0  0  0  0  0
  190.2600  176.9770  144.6040 C   0  0  0  0  0  0  0  0  0  0  0  0
  189.7070  177.0930  143.3130 C   0  0  0  0  0  0  0  0  0  0  0  0
  188.1510  177.5920  145.5360 N   0  0  0  0  0  0  0  0  0  0  0  0
  187.9500  179.1350  135.3120 O   0  0  0  0  0  0  0  0  0  0  0  0
  183.7530  178.7750  145.6010 C   0  0  0  0  0  3  0  0  0  0  0  0
  188.3630  177.3890  136.9200 C   0  0  0  0  0  2  0  0  0  0  0  0
  188.9800  179.6870  137.3380 N   0  0  0  0  0  0  0  0  0  0  0  0
  189.9980  176.7600  140.8950 C   0  0  0  0  0  0  0  0  0  0  0  0
  183.8810  178.6110  144.2120 C   0  0  0  0  0  3  0  0  0  0  0  0
  187.9420  177.0650  139.3450 C   0  0  0  0  0  2  0  0  0  0  0  0
  188.9860  177.4870  138.3130 C   0  0  1  0  0  0  0  0  0  0  0  0
  190.0030  177.1410  147.0140 C   0  0  0  0  0  3  0  0  0  0  0  0
  189.4530  177.2430  145.7290 C   0  0  0  0  0  0  0  0  0  0  0  0
  187.2500  177.9000  146.4920 C   0  0  0  0  0  3  0  0  0  0  0  0
  187.8680  177.7720  141.7600 C   0  0  0  0  0  2  0  0  0  0  0  0
  185.1100  178.0050  142.1690 C   0  0  0  0  0  1  0  0  0  0  0  0
  184.7250  178.7010  147.8160 O   0  0  0  0  0  1  0  0  0  0  0  0
  187.5720  177.6940  144.3100 C   0  0  0  0  0  0  0  0  0  0  0  0
  186.0640  178.1920  145.8590 C   0  0  0  0  0  0  0  0  0  0  0  0
  1 19  1  0  0  0  0
  1 20  1  0  0  0  0
  2 12  1  0  0  0  0
  3 15  2  0  0  0  0
  3 31  1  0  0  0  0
  4  5  1  0  0  0  0
  6 32  1  0  0  0  0
  7 22  2  0  0  0  0
  7  6  1  0  0  0  0
  8 23  1  6  0  0  0
  8 21  1  0  0  0  0
  8 28  1  0  0  0  0
  9 15  1  0  0  0  0
 11 30  1  0  0  0  0
 12 21  1  0  0  0  0
 13  4  2  0  0  0  0
 14 13  1  0  0  0  0
 14 26  2  0  0  0  0
 15 14  1  0  0  0  0
 16 26  1  0  0  0  0
 16 27  1  0  0  0  0
 17  1  2  0  0  0  0
 18 11  2  0  0  0  0
 20 10  2  0  0  0  0
 21  9  2  0  0  0  0
 22 18  1  0  0  0  0
 24 19  1  6  0  0  0
 24  2  1  0  0  0  0
 24 10  1  0  0  0  0
 24 23  1  0  0  0  0
 25  5  2  0  0  0  0
 26 25  1  0  0  0  0
 28  3  1  0  0  0  0
 29  7  1  0  0  0  0
 31  6  2  0  0  0  0
 31 16  1  0  0  0  0
 32 11  1  0  0  0  0
 32 27  2  0  0  0  0
M  END
>  <MODEL>
4

>  <REMARK>
 VINA RESULT:     -10.2      2.276      4.856
  Name = 
  0 active torsions:
  status: ('A' for Active; 'I' for Inactive)
                            x       y       z     vdW  Elec       q    Type
                         _______ _______ _______ _____ _____    ______ ____

>  <TORSDO>
F 0

$$$$
=
 OpenBabel10272413253D

 32 38  0  0  1  0  0  0  0  0999 V2000
  181.1290  180.6820  138.4400 C   0  0  0  0  0  0  0  0  0  0  0  0
  183.6320  178.4210  137.6650 C   0  0  0  0  0  2  0  0  0  0  0  0
  186.4030  178.2360  142.0520 C   0  0  0  0  0  0  0  0  0  0  0  0
  190.9220  177.3300  140.5530 N   0  0  0  0  0  0  0  0  0  0  0  0
  191.3590  177.2800  141.8390 C   0  0  0  0  0  3  0  0  0  0  0  0
  186.2370  178.2790  144.6250 C   0  0  0  0  0  0  0  0  0  0  0  0
  184.8990  178.4530  145.0570 C   0  0  0  0  0  0  0  0  0  0  0  0
  184.5300  178.0180  140.4260 C   0  0  2  0  0  3  0  0  0  0  0  0
  186.8440  178.1220  139.5910 C   0  0  0  0  0  3  0  0  0  0  0  0
  183.4070  180.6360  138.8880 C   0  0  0  0  0  3  0  0  0  0  0  0
  187.0090  178.2380  146.9380 C   0  0  0  0  0  0  0  0  0  0  0  0
  185.1450  178.3860  137.8730 C   0  0  0  0  0  2  0  0  0  0  0  0
  189.6180  177.5680  140.2500 C   0  0  0  0  0  3  0  0  0  0  0  0
  188.6780  177.7690  141.2700 C   0  0  0  0  0  0  0  0  0  0  0  0
  187.3220  178.0290  140.9920 C   0  0  0  0  0  0  0  0  0  0  0  0
  188.2010  177.9130  143.6040 N   0  0  0  0  0  0  0  0  0  0  0  0
  179.9860  181.1610  138.2270 O   0  0  0  0  0  0  0  0  0  0  0  0
  185.6950  178.4420  147.3710 C   0  0  0  0  0  3  0  0  0  0  0  0
  181.4200  179.2370  138.4490 C   0  0  0  0  0  2  0  0  0  0  0  0
  182.2530  181.4920  138.6940 N   0  0  0  0  0  0  0  0  0  0  0  0
  185.5410  178.1630  139.3020 C   0  0  0  0  0  0  0  0  0  0  0  0
  184.6510  178.5410  146.4370 C   0  0  0  0  0  3  0  0  0  0  0  0
  183.0910  178.4430  140.1030 C   0  0  0  0  0  2  0  0  0  0  0  0
  182.9120  179.1790  138.7760 C   0  0  1  0  0  0  0  0  0  0  0  0
  190.4630  177.4750  142.8920 C   0  0  0  0  0  3  0  0  0  0  0  0
  189.1120  177.7210  142.6110 C   0  0  0  0  0  0  0  0  0  0  0  0
  188.4460  177.9220  144.9310 C   0  0  0  0  0  3  0  0  0  0  0  0
  185.0200  178.7030  141.7000 C   0  0  0  0  0  2  0  0  0  0  0  0
  183.7150  178.4760  144.1630 C   0  0  0  0  0  1  0  0  0  0  0  0
  188.0440  178.1220  147.8580 O   0  0  0  0  0  1  0  0  0  0  0  0
  186.8800  178.1440  143.3800 C   0  0  0  0  0  0  0  0  0  0  0  0
  187.2490  178.1520  145.5670 C   0  0  0  0  0  0  0  0  0  0  0  0
  1 19  1  0  0  0  0
  1 20  1  0  0  0  0
  2 12  1  0  0  0  0
  3 31  1  0  0  0  0
  4  5  1  0  0  0  0
  5 25  2  0  0  0  0
  6  7  1  0  0  0  0
  6 32  1  0  0  0  0
  7 22  2  0  0  0  0
  8 23  1  6  0  0  0
  8 28  1  0  0  0  0
  9 15  1  0  0  0  0
 11 18  2  0  0  0  0
 11 30  1  0  0  0  0
 12 21  1  0  0  0  0
 13  4  2  0  0  0  0
 13 14  1  0  0  0  0
 14 26  2  0  0  0  0
 15 14  1  0  0  0  0
 15  3  2  0  0  0  0
 16 27  1  0  0  0  0
 17  1  2  0  0  0  0
 19 24  1  0  0  0  0
 20 10  2  0  0  0  0
 21  9  2  0  0  0  0
 21  8  1  0  0  0  0
 22 18  1  0  0  0  0
 24  2  1  6  0  0  0
 24 10  1  0  0  0  0
 24 23  1  0  0  0  0
 26 25  1  0  0  0  0
 26 16  1  0  0  0  0
 27 32  2  0  0  0  0
 28  3  1  0  0  0  0
 29  7  1  0  0  0  0
 31 16  1  0  0  0  0
 31  6  2  0  0  0  0
 32 11  1  0  0  0  0
M  END
>  <MODEL>
5

>  <REMARK>
 VINA RESULT:      -9.4      3.450      6.494
  Name = 
  0 active torsions:
  status: ('A' for Active; 'I' for Inactive)
                            x       y       z     vdW  Elec       q    Type
                         _______ _______ _______ _____ _____    ______ ____

>  <TORSDO>
F 0

$$$$
=
 OpenBabel10272413253D

 32 38  0  0  1  0  0  0  0  0999 V2000
  180.7550  177.1830  136.1730 C   0  0  0  0  0  0  0  0  0  0  0  0
  180.5060  179.1350  139.0200 C   0  0  0  0  0  2  0  0  0  0  0  0
  185.0920  178.3700  141.3320 C   0  0  0  0  0  0  0  0  0  0  0  0
  184.1100  178.7880  146.0600 N   0  0  0  0  0  0  0  0  0  0  0  0
  185.4230  178.6150  146.3670 C   0  0  0  0  0  3  0  0  0  0  0  0
  187.6120  178.0350  140.9020 C   0  0  0  0  0  0  0  0  0  0  0  0
  187.9030  178.0050  139.5160 C   0  0  0  0  0  0  0  0  0  0  0  0
  183.3610  179.0580  139.6790 C   0  0  2  0  0  3  0  0  0  0  0  0
  182.7150  178.7230  142.0310 C   0  0  0  0  0  3  0  0  0  0  0  0
  181.3920  176.8420  138.3790 C   0  0  0  0  0  3  0  0  0  0  0  0
  189.9650  177.6770  141.4340 C   0  0  0  0  0  0  0  0  0  0  0  0
  180.8420  178.9230  140.4940 C   0  0  0  0  0  2  0  0  0  0  0  0
  183.6700  178.7820  144.7730 C   0  0  0  0  0  3  0  0  0  0  0  0
  184.5720  178.5950  143.7170 C   0  0  0  0  0  0  0  0  0  0  0  0
  184.1490  178.5720  142.3730 C   0  0  0  0  0  0  0  0  0  0  0  0
  186.8170  178.2350  142.9910 N   0  0  0  0  0  0  0  0  0  0  0  0
  180.3840  176.9060  135.0030 O   0  0  0  0  0  0  0  0  0  0  0  0
  190.2550  177.6140  140.0680 C   0  0  0  0  0  3  0  0  0  0  0  0
  180.9850  178.5580  136.6500 C   0  0  0  0  0  2  0  0  0  0  0  0
  180.9880  176.1930  137.1470 N   0  0  0  0  0  0  0  0  0  0  0  0
  182.3160  178.9080  140.7700 C   0  0  0  0  0  0  0  0  0  0  0  0
  189.2340  177.7840  139.1200 C   0  0  0  0  0  3  0  0  0  0  0  0
  182.8640  178.8910  138.2360 C   0  0  0  0  0  2  0  0  0  0  0  0
  181.4400  178.3580  138.0960 C   0  0  1  0  0  0  0  0  0  0  0  0
  186.3620  178.4240  145.3510 C   0  0  0  0  0  3  0  0  0  0  0  0
  185.9380  178.4140  144.0150 C   0  0  0  0  0  0  0  0  0  0  0  0
  188.1460  178.0260  143.0970 C   0  0  0  0  0  3  0  0  0  0  0  0
  184.5650  178.1570  139.9420 C   0  0  0  0  0  2  0  0  0  0  0  0
  186.9200  178.2650  138.4360 C   0  0  0  0  0  1  0  0  0  0  0  0
  190.9750  177.5270  142.3770 O   0  0  0  0  0  1  0  0  0  0  0  0
  186.4550  178.2270  141.6800 C   0  0  0  0  0  0  0  0  0  0  0  0
  188.6440  177.8960  141.8210 C   0  0  0  0  0  0  0  0  0  0  0  0
  1 19  1  0  0  0  0
  1 20  1  0  0  0  0
  2 12  1  0  0  0  0
  3 31  1  0  0  0  0
  3 15  2  0  0  0  0
  4  5  1  0  0  0  0
  6 31  2  0  0  0  0
  6 32  1  0  0  0  0
  7  6  1  0  0  0  0
  8 23  1  6  0  0  0
  8 28  1  0  0  0  0
  8 21  1  0  0  0  0
  9 15  1  0  0  0  0
 11 32  1  0  0  0  0
 11 30  1  0  0  0  0
 12 21  1  0  0  0  0
 13  4  2  0  0  0  0
 14 26  2  0  0  0  0
 14 13  1  0  0  0  0
 15 14  1  0  0  0  0
 16 27  1  0  0  0  0
 16 26  1  0  0  0  0
 17  1  2  0  0  0  0
 18 11  2  0  0  0  0
 20 10  2  0  0  0  0
 21  9  2  0  0  0  0
 22  7  2  0  0  0  0
 22 18  1  0  0  0  0
 24 19  1  6  0  0  0
 24 23  1  0  0  0  0
 24 10  1  0  0  0  0
 24  2  1  0  0  0  0
 25  5  2  0  0  0  0
 26 25  1  0  0  0  0
 28  3  1  0  0  0  0
 29  7  1  0  0  0  0
 31 16  1  0  0  0  0
 32 27  2  0  0  0  0
M  END
>  <MODEL>
6

>  <REMARK>
 VINA RESULT:      -9.3      4.039      6.764
  Name = 
  0 active torsions:
  status: ('A' for Active; 'I' for Inactive)
                            x       y       z     vdW  Elec       q    Type
                         _______ _______ _______ _____ _____    ______ ____

>  <TORSDO>
F 0

$$$$
=
 OpenBabel10272413253D

 32 38  0  0  1  0  0  0  0  0999 V2000
  194.0830  173.9080  136.9170 C   0  0  0  0  0  0  0  0  0  0  0  0
  191.9900  176.5040  135.9900 C   0  0  0  0  0  2  0  0  0  0  0  0
  189.2560  177.3670  140.3190 C   0  0  0  0  0  0  0  0  0  0  0  0
  184.9580  178.9190  138.7060 N   0  0  0  0  0  0  0  0  0  0  0  0
  184.5260  179.1070  139.9810 C   0  0  0  0  0  3  0  0  0  0  0  0
  189.3950  177.4330  142.8930 C   0  0  0  0  0  0  0  0  0  0  0  0
  190.6830  177.0650  143.3530 C   0  0  0  0  0  0  0  0  0  0  0  0
  191.1510  177.1910  138.7130 C   0  0  2  0  0  3  0  0  0  0  0  0
  188.8570  177.4240  137.8490 C   0  0  0  0  0  3  0  0  0  0  0  0
  191.8400  174.3480  137.3270 C   0  0  0  0  0  3  0  0  0  0  0  0
  188.6240  177.7210  145.1880 C   0  0  0  0  0  0  0  0  0  0  0  0
  190.5020  176.7950  136.1730 C   0  0  0  0  0  2  0  0  0  0  0  0
  186.2070  178.4560  138.4350 C   0  0  0  0  0  3  0  0  0  0  0  0
  187.0940  178.1580  139.4790 C   0  0  0  0  0  0  0  0  0  0  0  0
  188.3910  177.6660  139.2350 C   0  0  0  0  0  0  0  0  0  0  0  0
  187.5250  178.0610  141.8240 N   0  0  0  0  0  0  0  0  0  0  0  0
  195.1340  173.2380  136.7460 O   0  0  0  0  0  0  0  0  0  0  0  0
  189.8830  177.3270  145.6510 C   0  0  0  0  0  3  0  0  0  0  0  0
  194.0330  175.3790  136.8480 C   0  0  0  0  0  2  0  0  0  0  0  0
  192.8400  173.3060  137.1940 N   0  0  0  0  0  0  0  0  0  0  0  0
  190.1370  177.1540  137.5820 C   0  0  0  0  0  0  0  0  0  0  0  0
  190.9040  177.0110  144.7400 C   0  0  0  0  0  3  0  0  0  0  0  0
  192.5030  176.5210  138.4340 C   0  0  0  0  0  2  0  0  0  0  0  0
  192.5690  175.6970  137.1490 C   0  0  1  0  0  0  0  0  0  0  0  0
  185.3700  178.8240  141.0560 C   0  0  0  0  0  3  0  0  0  0  0  0
  186.6640  178.3470  140.8080 C   0  0  0  0  0  0  0  0  0  0  0  0
  187.2720  178.1610  143.1460 C   0  0  0  0  0  3  0  0  0  0  0  0
  190.5460  176.6630  140.0120 C   0  0  0  0  0  2  0  0  0  0  0  0
  191.8540  176.8030  142.4800 C   0  0  0  0  0  1  0  0  0  0  0  0
  187.6160  178.0520  146.0850 O   0  0  0  0  0  1  0  0  0  0  0  0
  188.7910  177.6050  141.6330 C   0  0  0  0  0  0  0  0  0  0  0  0
  188.4110  177.7730  143.8120 C   0  0  0  0  0  0  0  0  0  0  0  0
  1 20  1  0  0  0  0
  2 12  1  0  0  0  0
  3 31  1  0  0  0  0
  4  5  1  0  0  0  0
  5 25  2  0  0  0  0
  6  7  1  0  0  0  0
  6 32  1  0  0  0  0
  7 22  2  0  0  0  0
  8 23  1  6  0  0  0
  8 28  1  0  0  0  0
  9 15  1  0  0  0  0
 11 18  2  0  0  0  0
 11 30  1  0  0  0  0
 12 21  1  0  0  0  0
 13  4  2  0  0  0  0
 13 14  1  0  0  0  0
 14 26  2  0  0  0  0
 15 14  1  0  0  0  0
 15  3  2  0  0  0  0
 16 27  1  0  0  0  0
 17  1  2  0  0  0  0
 19  1  1  0  0  0  0
 19 24  1  0  0  0  0
 20 10  2  0  0  0  0
 21  9  2  0  0  0  0
 21  8  1  0  0  0  0
 22 18  1  0  0  0  0
 24  2  1  6  0  0  0
 24 10  1  0  0  0  0
 24 23  1  0  0  0  0
 26 25  1  0  0  0  0
 26 16  1  0  0  0  0
 27 32  2  0  0  0  0
 28  3  1  0  0  0  0
 29  7  1  0  0  0  0
 31 16  1  0  0  0  0
 31  6  2  0  0  0  0
 32 11  1  0  0  0  0
M  END
>  <MODEL>
7

>  <REMARK>
 VINA RESULT:      -9.2      1.636      2.558
  Name = 
  0 active torsions:
  status: ('A' for Active; 'I' for Inactive)
                            x       y       z     vdW  Elec       q    Type
                         _______ _______ _______ _____ _____    ______ ____

>  <TORSDO>
F 0

$$$$
