=
 OpenBabel10272400013D

 34 36  0  0  1  0  0  0  0  0999 V2000
  188.2910  177.0040  144.7550 C   0  0  2  0  0  3  0  0  0  0  0  0
  186.4960  177.9370  143.3280 N   0  0  0  0  0  0  0  0  0  0  0  0
  186.0250  177.4810  145.7060 C   0  0  0  0  0  1  0  0  0  0  0  0
  189.2280  177.1860  143.5510 C   0  0  1  0  0  3  0  0  0  0  0  0
  187.4500  178.3510  142.4440 O   0  0  0  0  0  0  0  0  0  0  0  0
  188.3440  177.2760  142.3040 C   0  0  1  0  0  3  0  0  0  0  0  0
  187.0670  177.9500  144.6930 C   0  0  1  0  0  3  0  0  0  0  0  0
  189.3760  178.3020  138.8040 C   0  0  0  0  0  0  0  0  0  0  0  0
  190.5220  177.5280  138.6040 C   0  0  0  0  0  3  0  0  0  0  0  0
  189.1210  177.3590  141.0240 C   0  0  0  0  0  0  0  0  0  0  0  0
  190.9690  176.6660  139.6100 C   0  0  0  0  0  3  0  0  0  0  0  0
  188.6750  178.2150  140.0110 C   0  0  0  0  0  3  0  0  0  0  0  0
  190.2700  176.5800  140.8180 C   0  0  0  0  0  3  0  0  0  0  0  0
  188.9420  179.1360  137.8300 F   0  0  0  0  0  0  0  0  0  0  0  0
  189.0260  178.2360  146.6890 O   0  0  0  0  0  1  0  0  0  0  0  0
  189.0360  176.9710  146.1000 C   0  0  2  0  0  3  0  0  0  0  0  0
  190.4080  176.5120  145.9360 N   0  0  0  0  0  2  0  0  0  0  0  0
  191.1360  176.9000  147.1320 C   0  0  0  0  0  2  0  0  0  0  0  0
  192.5010  174.9040  146.4350 N   0  0  0  0  0  2  0  0  0  0  0  0
  192.2780  175.9720  147.3470 C   0  0  0  0  0  0  0  0  0  0  0  0
  192.9410  176.0180  148.4550 N   0  0  0  0  0  1  0  0  0  0  0  0
  190.7700  179.3680  143.8160 C   0  0  0  0  0  3  0  0  0  0  0  0
  190.0790  178.3870  143.6970 C   0  0  0  0  0  0  0  0  0  0  0  0
  185.4350  178.9350  143.2560 C   0  0  0  0  0  2  0  0  0  0  0  0
  183.9100  178.3820  141.3570 C   0  0  0  0  0  3  0  0  0  0  0  0
  184.2070  178.3230  142.6590 C   0  0  0  0  0  3  0  0  0  0  0  0
  184.7520  179.0870  140.3290 C   0  0  0  0  0  2  0  0  0  0  0  0
  182.3910  179.4830  138.5760 O   0  0  0  0  0  1  0  0  0  0  0  0
  184.5660  178.5590  138.9330 C   0  0  0  0  0  0  0  0  0  0  0  0
  183.1480  178.3170  138.4570 C   0  0  2  0  0  3  0  0  0  0  0  0
  184.1320  176.7600  136.7490 C   0  0  0  0  0  2  0  0  0  0  0  0
  185.4890  177.4300  136.9040 C   0  0  0  0  0  2  0  0  0  0  0  0
  185.6220  178.0560  138.2640 C   0  0  0  0  0  3  0  0  0  0  0  0
  183.0500  177.7940  137.0220 C   0  0  0  0  0  2  0  0  0  0  0  0
  1 16  1  1  0  0  0
  2  7  1  0  0  0  0
  4 23  1  1  0  0  0
  4  1  1  0  0  0  0
  5  2  1  0  0  0  0
  6 10  1  6  0  0  0
  6  5  1  0  0  0  0
  6  4  1  0  0  0  0
  7  1  1  0  0  0  0
  7  3  1  1  0  0  0
  8 12  1  0  0  0  0
  9  8  2  0  0  0  0
  9 11  1  0  0  0  0
 11 13  2  0  0  0  0
 12 10  2  0  0  0  0
 13 10  1  0  0  0  0
 14  8  1  0  0  0  0
 16 15  1  6  0  0  0
 17 16  1  0  0  0  0
 17 18  1  0  0  0  0
 18 20  1  0  0  0  0
 19 20  2  0  0  0  0
 20 21  1  0  0  0  0
 23 22  3  0  0  0  0
 24  2  1  0  0  0  0
 25 26  2  0  0  0  0
 26 24  1  0  0  0  0
 27 25  1  0  0  0  0
 29 27  1  0  0  0  0
 30 28  1  6  0  0  0
 30 29  1  0  0  0  0
 31 32  1  0  0  0  0
 31 34  1  0  0  0  0
 32 33  1  0  0  0  0
 33 29  2  0  0  0  0
 34 30  1  0  0  0  0
M  END
>  <MODEL>
1

>  <REMARK>
 VINA RESULT:      -8.0      0.000      0.000
  Name = 
  10 active torsions:
  status: ('A' for Active; 'I' for Inactive)
    1  A    between atoms: C_3  and  C_13
    2  A    between atoms: C_3  and  C_17
    3  A    between atoms: C_4  and  C_15
    4  A    between atoms: N_5  and  C_18
    5  A    between atoms: C_6  and  C_9
    6  A    between atoms: C_9  and  N_25
    7  A    between atoms: C_12  and  C_28
    8  A    between atoms: C_15  and  N_25
    9  A    between atoms: C_18  and  C_29
   10  A    between atoms: C_21  and  C_32
                            x       y       z     vdW  Elec       q    Type
                         _______ _______ _______ _____ _____    ______ ____

>  <TORSDO>
F 10

$$$$
=
 OpenBabel10272400013D

 34 36  0  0  1  0  0  0  0  0999 V2000
  189.0960  177.9470  138.4430 C   0  0  2  0  0  3  0  0  0  0  0  0
  190.3040  177.0660  140.4150 N   0  0  0  0  0  0  0  0  0  0  0  0
  188.3750  178.5640  140.7590 C   0  0  0  0  0  1  0  0  0  0  0  0
  189.9880  177.0330  137.5900 C   0  0  1  0  0  3  0  0  0  0  0  0
  190.8150  176.0760  139.6270 O   0  0  0  0  0  0  0  0  0  0  0  0
  191.2230  176.6980  138.4340 C   0  0  1  0  0  3  0  0  0  0  0  0
  188.9700  177.4490  139.9030 C   0  0  1  0  0  3  0  0  0  0  0  0
  194.2280  175.8070  136.3040 C   0  0  0  0  0  0  0  0  0  0  0  0
  194.1660  174.4110  136.2910 C   0  0  0  0  0  3  0  0  0  0  0  0
  192.2460  175.8850  137.7000 C   0  0  0  0  0  0  0  0  0  0  0  0
  193.1450  173.7480  136.9770 C   0  0  0  0  0  3  0  0  0  0  0  0
  193.2670  176.5430  137.0050 C   0  0  0  0  0  3  0  0  0  0  0  0
  192.1860  174.4840  137.6810 C   0  0  0  0  0  3  0  0  0  0  0  0
  195.2160  176.4490  135.6380 F   0  0  0  0  0  0  0  0  0  0  0  0
  187.9000  179.5220  137.0680 O   0  0  0  0  0  1  0  0  0  0  0  0
  187.7710  178.3120  137.7510 C   0  0  2  0  0  3  0  0  0  0  0  0
  186.6780  178.3980  138.7090 N   0  0  0  0  0  2  0  0  0  0  0  0
  185.4620  178.0240  138.0060 C   0  0  0  0  0  2  0  0  0  0  0  0
  182.9810  178.4010  138.2000 N   0  0  0  0  0  2  0  0  0  0  0  0
  184.3030  178.7580  138.5830 C   0  0  0  0  0  0  0  0  0  0  0  0
  184.5040  179.8330  139.2690 N   0  0  0  0  0  1  0  0  0  0  0  0
  188.6910  174.8110  136.8240 C   0  0  0  0  0  3  0  0  0  0  0  0
  189.2750  175.8080  137.1690 C   0  0  0  0  0  0  0  0  0  0  0  0
  190.1450  176.4710  141.7370 C   0  0  0  0  0  2  0  0  0  0  0  0
  191.3640  177.6370  143.5790 C   0  0  0  0  0  3  0  0  0  0  0  0
  191.3550  176.7610  142.5690 C   0  0  0  0  0  3  0  0  0  0  0  0
  190.1750  178.4580  143.9970 C   0  0  0  0  0  2  0  0  0  0  0  0
  187.3510  177.5540  143.8750 O   0  0  0  0  0  1  0  0  0  0  0  0
  189.3770  177.8390  145.1110 C   0  0  0  0  0  0  0  0  0  0  0  0
  187.8720  178.0200  145.0830 C   0  0  2  0  0  3  0  0  0  0  0  0
  187.9040  177.5330  147.5460 C   0  0  0  0  0  2  0  0  0  0  0  0
  189.2620  176.8600  147.4080 C   0  0  0  0  0  2  0  0  0  0  0  0
  190.0060  177.4040  146.2210 C   0  0  0  0  0  3  0  0  0  0  0  0
  187.1390  177.3470  146.2450 C   0  0  0  0  0  2  0  0  0  0  0  0
  1 16  1  6  0  0  0
  1  7  1  0  0  0  0
  2 24  1  0  0  0  0
  4 23  1  1  0  0  0
  4  6  1  0  0  0  0
  4  1  1  0  0  0  0
  5  2  1  0  0  0  0
  6 10  1  6  0  0  0
  6  5  1  0  0  0  0
  7  2  1  0  0  0  0
  7  3  1  1  0  0  0
  8 12  1  0  0  0  0
  9  8  2  0  0  0  0
  9 11  1  0  0  0  0
 11 13  2  0  0  0  0
 12 10  2  0  0  0  0
 13 10  1  0  0  0  0
 14  8  1  0  0  0  0
 16 15  1  1  0  0  0
 16 17  1  0  0  0  0
 18 20  1  0  0  0  0
 18 17  1  0  0  0  0
 19 20  2  0  0  0  0
 20 21  1  0  0  0  0
 22 23  3  0  0  0  0
 24 26  1  0  0  0  0
 25 27  1  0  0  0  0
 26 25  2  0  0  0  0
 27 29  1  0  0  0  0
 29 33  2  0  0  0  0
 30 28  1  6  0  0  0
 30 29  1  0  0  0  0
 30 34  1  0  0  0  0
 32 31  1  0  0  0  0
 33 32  1  0  0  0  0
 34 31  1  0  0  0  0
M  END
>  <MODEL>
2

>  <REMARK>
 VINA RESULT:      -7.9      3.254      8.042
  Name = 
  10 active torsions:
  status: ('A' for Active; 'I' for Inactive)
    1  A    between atoms: C_3  and  C_13
    2  A    between atoms: C_3  and  C_17
    3  A    between atoms: C_4  and  C_15
    4  A    between atoms: N_5  and  C_18
    5  A    between atoms: C_6  and  C_9
    6  A    between atoms: C_9  and  N_25
    7  A    between atoms: C_12  and  C_28
    8  A    between atoms: C_15  and  N_25
    9  A    between atoms: C_18  and  C_29
   10  A    between atoms: C_21  and  C_32
                            x       y       z     vdW  Elec       q    Type
                         _______ _______ _______ _____ _____    ______ ____

>  <TORSDO>
F 10

$$$$
=
 OpenBabel10272400013D

 34 36  0  0  1  0  0  0  0  0999 V2000
  189.1310  177.7470  138.0970 C   0  0  2  0  0  3  0  0  0  0  0  0
  190.3270  177.0930  140.1630 N   0  0  0  0  0  0  0  0  0  0  0  0
  188.2920  178.4750  140.3400 C   0  0  0  0  0  1  0  0  0  0  0  0
  190.1110  176.8380  137.3400 C   0  0  1  0  0  3  0  0  0  0  0  0
  190.9300  176.0870  139.4640 O   0  0  0  0  0  0  0  0  0  0  0  0
  191.3350  176.6500  138.2420 C   0  0  1  0  0  3  0  0  0  0  0  0
  188.9890  177.3460  139.5850 C   0  0  1  0  0  3  0  0  0  0  0  0
  194.4130  175.8080  136.1980 C   0  0  0  0  0  0  0  0  0  0  0  0
  194.4920  174.4220  136.3550 C   0  0  0  0  0  3  0  0  0  0  0  0
  192.4350  175.8590  137.5990 C   0  0  0  0  0  0  0  0  0  0  0  0
  193.5430  173.7500  137.1300 C   0  0  0  0  0  3  0  0  0  0  0  0
  193.3840  176.5250  136.8160 C   0  0  0  0  0  3  0  0  0  0  0  0
  192.5150  174.4670  137.7510 C   0  0  0  0  0  3  0  0  0  0  0  0
  195.3320  176.4590  135.4460 F   0  0  0  0  0  0  0  0  0  0  0  0
  187.6200  179.3290  137.0900 O   0  0  0  0  0  1  0  0  0  0  0  0
  187.8090  177.9700  137.3420 C   0  0  2  0  0  3  0  0  0  0  0  0
  186.6760  177.4420  138.0880 N   0  0  0  0  0  2  0  0  0  0  0  0
  185.5130  178.2310  137.7170 C   0  0  0  0  0  2  0  0  0  0  0  0
  183.5640  177.6840  139.2110 N   0  0  0  0  0  2  0  0  0  0  0  0
  184.6870  178.5060  138.9230 C   0  0  0  0  0  0  0  0  0  0  0  0
  184.8710  179.5960  139.5910 N   0  0  0  0  0  1  0  0  0  0  0  0
  188.9940  174.4820  136.7000 C   0  0  0  0  0  3  0  0  0  0  0  0
  189.4950  175.5410  136.9890 C   0  0  0  0  0  0  0  0  0  0  0  0
  190.1630  176.5840  141.5190 C   0  0  0  0  0  2  0  0  0  0  0  0
  190.4340  177.5790  143.7940 C   0  0  0  0  0  3  0  0  0  0  0  0
  190.7530  177.5520  142.4960 C   0  0  0  0  0  3  0  0  0  0  0  0
  189.4310  176.6620  144.4370 C   0  0  0  0  0  2  0  0  0  0  0  0
  189.2250  178.0560  147.0490 O   0  0  0  0  0  1  0  0  0  0  0  0
  188.2270  177.3760  144.9860 C   0  0  0  0  0  0  0  0  0  0  0  0
  188.0890  177.4660  146.4930 C   0  0  2  0  0  3  0  0  0  0  0  0
  185.6390  177.8600  146.1090 C   0  0  0  0  0  2  0  0  0  0  0  0
  185.9200  178.2850  144.6750 C   0  0  0  0  0  2  0  0  0  0  0  0
  187.1890  177.6560  144.1740 C   0  0  0  0  0  3  0  0  0  0  0  0
  186.8450  178.2210  146.9640 C   0  0  0  0  0  2  0  0  0  0  0  0
  1 16  1  6  0  0  0
  1  7  1  0  0  0  0
  2 24  1  0  0  0  0
  4 23  1  1  0  0  0
  4  1  1  0  0  0  0
  4  6  1  0  0  0  0
  5  2  1  0  0  0  0
  6 10  1  6  0  0  0
  6  5  1  0  0  0  0
  7  2  1  0  0  0  0
  7  3  1  1  0  0  0
  8  9  2  0  0  0  0
  8 12  1  0  0  0  0
  9 11  1  0  0  0  0
 10 13  1  0  0  0  0
 11 13  2  0  0  0  0
 12 10  2  0  0  0  0
 14  8  1  0  0  0  0
 16 15  1  1  0  0  0
 16 17  1  0  0  0  0
 18 17  1  0  0  0  0
 18 20  1  0  0  0  0
 20 19  2  0  0  0  0
 20 21  1  0  0  0  0
 22 23  3  0  0  0  0
 24 26  1  0  0  0  0
 25 27  1  0  0  0  0
 26 25  2  0  0  0  0
 27 29  1  0  0  0  0
 29 30  1  0  0  0  0
 30 34  1  0  0  0  0
 30 28  1  6  0  0  0
 31 34  1  0  0  0  0
 32 31  1  0  0  0  0
 33 32  1  0  0  0  0
 33 29  2  0  0  0  0
M  END
>  <MODEL>
3

>  <REMARK>
 VINA RESULT:      -7.7      3.287      7.894
  Name = 
  10 active torsions:
  status: ('A' for Active; 'I' for Inactive)
    1  A    between atoms: C_3  and  C_13
    2  A    between atoms: C_3  and  C_17
    3  A    between atoms: C_4  and  C_15
    4  A    between atoms: N_5  and  C_18
    5  A    between atoms: C_6  and  C_9
    6  A    between atoms: C_9  and  N_25
    7  A    between atoms: C_12  and  C_28
    8  A    between atoms: C_15  and  N_25
    9  A    between atoms: C_18  and  C_29
   10  A    between atoms: C_21  and  C_32
                            x       y       z     vdW  Elec       q    Type
                         _______ _______ _______ _____ _____    ______ ____

>  <TORSDO>
F 10

$$$$
=
 OpenBabel10272400013D

 34 36  0  0  1  0  0  0  0  0999 V2000
  188.9610  177.7650  137.9930 C   0  0  2  0  0  3  0  0  0  0  0  0
  190.4150  177.1400  139.8970 N   0  0  0  0  0  0  0  0  0  0  0  0
  188.4860  178.6250  140.2960 C   0  0  0  0  0  1  0  0  0  0  0  0
  189.7830  176.7800  137.1490 C   0  0  1  0  0  3  0  0  0  0  0  0
  190.8680  176.0790  139.1680 O   0  0  0  0  0  0  0  0  0  0  0  0
  191.1160  176.5710  137.8750 C   0  0  1  0  0  3  0  0  0  0  0  0
  189.0190  177.4330  139.5040 C   0  0  1  0  0  3  0  0  0  0  0  0
  193.7610  173.9560  137.1480 C   0  0  0  0  0  0  0  0  0  0  0  0
  193.9100  174.0760  135.7640 C   0  0  0  0  0  3  0  0  0  0  0  0
  192.0780  175.7020  137.1210 C   0  0  0  0  0  0  0  0  0  0  0  0
  193.1490  175.0100  135.0550 C   0  0  0  0  0  3  0  0  0  0  0  0
  192.8480  174.7700  137.8260 C   0  0  0  0  0  3  0  0  0  0  0  0
  192.2350  175.8230  135.7330 C   0  0  0  0  0  3  0  0  0  0  0  0
  194.4990  173.0520  137.8340 F   0  0  0  0  0  0  0  0  0  0  0  0
  187.4230  179.3560  137.0430 O   0  0  0  0  0  1  0  0  0  0  0  0
  187.5550  178.0200  137.4240 C   0  0  2  0  0  3  0  0  0  0  0  0
  186.5210  177.6770  138.3900 N   0  0  0  0  0  2  0  0  0  0  0  0
  185.2540  178.1320  137.8420 C   0  0  0  0  0  2  0  0  0  0  0  0
  183.0150  178.5010  138.9290 N   0  0  0  0  0  2  0  0  0  0  0  0
  184.4200  178.7170  138.9250 C   0  0  0  0  0  0  0  0  0  0  0  0
  184.9390  179.5740  139.7410 N   0  0  0  0  0  1  0  0  0  0  0  0
  188.4920  174.4550  136.7890 C   0  0  0  0  0  3  0  0  0  0  0  0
  189.0710  175.5010  136.9510 C   0  0  0  0  0  0  0  0  0  0  0  0
  190.4270  176.6950  141.2850 C   0  0  0  0  0  2  0  0  0  0  0  0
  191.7390  177.2380  143.3400 C   0  0  0  0  0  3  0  0  0  0  0  0
  191.4870  177.4340  142.0420 C   0  0  0  0  0  3  0  0  0  0  0  0
  190.9840  176.2740  144.2120 C   0  0  0  0  0  2  0  0  0  0  0  0
  191.7780  177.1880  146.9220 O   0  0  0  0  0  1  0  0  0  0  0  0
  190.1050  176.9460  145.2320 C   0  0  0  0  0  0  0  0  0  0  0  0
  190.4660  176.7730  146.6940 C   0  0  2  0  0  3  0  0  0  0  0  0
  188.0810  177.3680  147.2110 C   0  0  0  0  0  2  0  0  0  0  0  0
  187.9370  178.0250  145.8470 C   0  0  0  0  0  2  0  0  0  0  0  0
  188.9010  177.4260  144.8630 C   0  0  0  0  0  3  0  0  0  0  0  0
  189.5290  177.5000  147.6600 C   0  0  0  0  0  2  0  0  0  0  0  0
  1 16  1  6  0  0  0
  1  7  1  0  0  0  0
  2 24  1  0  0  0  0
  4 23  1  1  0  0  0
  4  6  1  0  0  0  0
  4  1  1  0  0  0  0
  5  2  1  0  0  0  0
  6 10  1  6  0  0  0
  6  5  1  0  0  0  0
  7  2  1  0  0  0  0
  7  3  1  1  0  0  0
  8 12  1  0  0  0  0
  8 14  1  0  0  0  0
  9  8  2  0  0  0  0
 10 12  2  0  0  0  0
 11 13  2  0  0  0  0
 11  9  1  0  0  0  0
 13 10  1  0  0  0  0
 16 15  1  1  0  0  0
 16 17  1  0  0  0  0
 18 17  1  0  0  0  0
 18 20  1  0  0  0  0
 20 19  2  0  0  0  0
 20 21  1  0  0  0  0
 22 23  3  0  0  0  0
 24 26  1  0  0  0  0
 25 27  1  0  0  0  0
 26 25  2  0  0  0  0
 27 29  1  0  0  0  0
 29 30  1  0  0  0  0
 30 28  1  6  0  0  0
 30 34  1  0  0  0  0
 31 34  1  0  0  0  0
 32 31  1  0  0  0  0
 33 29  2  0  0  0  0
 33 32  1  0  0  0  0
M  END
>  <MODEL>
4

>  <REMARK>
 VINA RESULT:      -7.6      3.468      8.494
  Name = 
  10 active torsions:
  status: ('A' for Active; 'I' for Inactive)
    1  A    between atoms: C_3  and  C_13
    2  A    between atoms: C_3  and  C_17
    3  A    between atoms: C_4  and  C_15
    4  A    between atoms: N_5  and  C_18
    5  A    between atoms: C_6  and  C_9
    6  A    between atoms: C_9  and  N_25
    7  A    between atoms: C_12  and  C_28
    8  A    between atoms: C_15  and  N_25
    9  A    between atoms: C_18  and  C_29
   10  A    between atoms: C_21  and  C_32
                            x       y       z     vdW  Elec       q    Type
                         _______ _______ _______ _____ _____    ______ ____

>  <TORSDO>
F 10

$$$$
=
 OpenBabel10272400013D

 34 36  0  0  1  0  0  0  0  0999 V2000
  189.4780  177.2180  137.7170 C   0  0  2  0  0  3  0  0  0  0  0  0
  190.6420  177.0790  139.8970 N   0  0  0  0  0  0  0  0  0  0  0  0
  188.3890  178.0780  139.8000 C   0  0  0  0  0  1  0  0  0  0  0  0
  190.6460  176.4090  137.1350 C   0  0  1  0  0  3  0  0  0  0  0  0
  191.4530  176.1150  139.3730 O   0  0  0  0  0  0  0  0  0  0  0  0
  191.8270  176.5710  138.0970 C   0  0  1  0  0  3  0  0  0  0  0  0
  189.3180  177.0030  139.2420 C   0  0  1  0  0  3  0  0  0  0  0  0
  194.9590  174.4380  138.0540 C   0  0  0  0  0  0  0  0  0  0  0  0
  195.4580  174.6860  136.7730 C   0  0  0  0  0  3  0  0  0  0  0  0
  193.0860  175.9150  137.6150 C   0  0  0  0  0  0  0  0  0  0  0  0
  194.7770  175.5500  135.9110 C   0  0  0  0  0  3  0  0  0  0  0  0
  193.7770  175.0540  138.4760 C   0  0  0  0  0  3  0  0  0  0  0  0
  193.5930  176.1640  136.3310 C   0  0  0  0  0  3  0  0  0  0  0  0
  195.6200  173.6020  138.8890 F   0  0  0  0  0  0  0  0  0  0  0  0
  187.6850  178.3560  136.5820 O   0  0  0  0  0  1  0  0  0  0  0  0
  188.1860  177.0910  136.8910 C   0  0  2  0  0  3  0  0  0  0  0  0
  187.1760  176.3180  137.6010 N   0  0  0  0  0  2  0  0  0  0  0  0
  186.1860  175.9050  136.6200 C   0  0  0  0  0  2  0  0  0  0  0  0
  186.3250  173.5030  137.3560 N   0  0  0  0  0  1  0  0  0  0  0  0
  186.3620  174.4620  136.3070 C   0  0  0  0  0  0  0  0  0  0  0  0
  186.7390  174.1040  135.1250 N   0  0  0  0  0  2  0  0  0  0  0  0
  190.0030  173.8240  136.8010 C   0  0  0  0  0  3  0  0  0  0  0  0
  190.2910  174.9860  136.9530 C   0  0  0  0  0  0  0  0  0  0  0  0
  190.4870  176.7370  141.3060 C   0  0  0  0  0  2  0  0  0  0  0  0
  191.0760  177.7940  143.4910 C   0  0  0  0  0  3  0  0  0  0  0  0
  191.0310  177.8430  142.1560 C   0  0  0  0  0  3  0  0  0  0  0  0
  190.5700  176.6410  144.3120 C   0  0  0  0  0  2  0  0  0  0  0  0
  187.8750  175.8690  143.3390 O   0  0  0  0  0  1  0  0  0  0  0  0
  189.2550  176.9140  144.9880 C   0  0  0  0  0  0  0  0  0  0  0  0
  188.0230  177.0230  144.1100 C   0  0  2  0  0  3  0  0  0  0  0  0
  186.9590  178.2950  145.9970 C   0  0  0  0  0  2  0  0  0  0  0  0
  187.9650  177.7070  146.9750 C   0  0  0  0  0  2  0  0  0  0  0  0
  189.2360  177.3290  146.2690 C   0  0  0  0  0  3  0  0  0  0  0  0
  186.7280  177.2870  144.8800 C   0  0  0  0  0  2  0  0  0  0  0  0
  1 16  1  6  0  0  0
  1  7  1  0  0  0  0
  2 24  1  0  0  0  0
  4 23  1  1  0  0  0
  4  1  1  0  0  0  0
  4  6  1  0  0  0  0
  5  2  1  0  0  0  0
  6 10  1  6  0  0  0
  6  5  1  0  0  0  0
  7  3  1  1  0  0  0
  7  2  1  0  0  0  0
  8 12  1  0  0  0  0
  8 14  1  0  0  0  0
  9  8  2  0  0  0  0
 10 12  2  0  0  0  0
 11 13  2  0  0  0  0
 11  9  1  0  0  0  0
 13 10  1  0  0  0  0
 16 15  1  1  0  0  0
 16 17  1  0  0  0  0
 18 17  1  0  0  0  0
 20 18  1  0  0  0  0
 20 19  1  0  0  0  0
 21 20  2  0  0  0  0
 22 23  3  0  0  0  0
 24 26  1  0  0  0  0
 25 27  1  0  0  0  0
 26 25  2  0  0  0  0
 27 29  1  0  0  0  0
 29 33  2  0  0  0  0
 30 28  1  1  0  0  0
 30 34  1  0  0  0  0
 30 29  1  0  0  0  0
 31 32  1  0  0  0  0
 33 32  1  0  0  0  0
 34 31  1  0  0  0  0
M  END
>  <MODEL>
5

>  <REMARK>
 VINA RESULT:      -7.1      3.994      8.275
  Name = 
  10 active torsions:
  status: ('A' for Active; 'I' for Inactive)
    1  A    between atoms: C_3  and  C_13
    2  A    between atoms: C_3  and  C_17
    3  A    between atoms: C_4  and  C_15
    4  A    between atoms: N_5  and  C_18
    5  A    between atoms: C_6  and  C_9
    6  A    between atoms: C_9  and  N_25
    7  A    between atoms: C_12  and  C_28
    8  A    between atoms: C_15  and  N_25
    9  A    between atoms: C_18  and  C_29
   10  A    between atoms: C_21  and  C_32
                            x       y       z     vdW  Elec       q    Type
                         _______ _______ _______ _____ _____    ______ ____

>  <TORSDO>
F 10

$$$$
=
 OpenBabel10272400013D

 34 36  0  0  1  0  0  0  0  0999 V2000
  188.6050  178.1830  141.8500 C   0  0  2  0  0  3  0  0  0  0  0  0
  186.7090  178.3760  143.4290 N   0  0  0  0  0  0  0  0  0  0  0  0
  186.3230  178.8060  141.0310 C   0  0  0  0  0  1  0  0  0  0  0  0
  189.4320  177.6630  143.0350 C   0  0  1  0  0  3  0  0  0  0  0  0
  187.4110  177.6210  144.3240 O   0  0  0  0  0  0  0  0  0  0  0  0
  188.7240  178.1240  144.3130 C   0  0  1  0  0  3  0  0  0  0  0  0
  187.0850  177.9710  142.0570 C   0  0  1  0  0  3  0  0  0  0  0  0
  189.5460  177.7330  147.9910 C   0  0  0  0  0  0  0  0  0  0  0  0
  190.8240  177.1700  147.9420 C   0  0  0  0  0  3  0  0  0  0  0  0
  189.4660  177.7760  145.5680 C   0  0  0  0  0  0  0  0  0  0  0  0
  191.4280  176.9120  146.7080 C   0  0  0  0  0  3  0  0  0  0  0  0
  188.8700  178.0390  146.8060 C   0  0  0  0  0  3  0  0  0  0  0  0
  190.7510  177.2150  145.5220 C   0  0  0  0  0  3  0  0  0  0  0  0
  188.9620  177.9840  149.1870 F   0  0  0  0  0  0  0  0  0  0  0  0
  190.5440  177.6010  140.5460 O   0  0  0  0  0  1  0  0  0  0  0  0
  189.1570  177.7330  140.4860 C   0  0  2  0  0  3  0  0  0  0  0  0
  188.7940  178.6700  139.4320 N   0  0  0  0  0  2  0  0  0  0  0  0
  189.3020  178.1270  138.1830 C   0  0  0  0  0  2  0  0  0  0  0  0
  186.9990  178.7870  137.4110 N   0  0  0  0  0  1  0  0  0  0  0  0
  188.3230  178.3800  137.0910 C   0  0  0  0  0  0  0  0  0  0  0  0
  188.6150  178.0440  135.8790 N   0  0  0  0  0  2  0  0  0  0  0  0
  189.6940  174.9920  142.9680 C   0  0  0  0  0  3  0  0  0  0  0  0
  189.5760  176.1920  143.0000 C   0  0  0  0  0  0  0  0  0  0  0  0
  185.3070  178.0400  143.6480 C   0  0  0  0  0  2  0  0  0  0  0  0
  183.2900  179.3370  144.3460 C   0  0  0  0  0  3  0  0  0  0  0  0
  184.6170  179.1770  144.3350 C   0  0  0  0  0  3  0  0  0  0  0  0
  182.3220  178.4150  143.6560 C   0  0  0  0  0  2  0  0  0  0  0  0
  180.3580  180.5320  142.9710 O   0  0  0  0  0  1  0  0  0  0  0  0
  181.9330  178.8730  142.2780 C   0  0  0  0  0  0  0  0  0  0  0  0
  180.5470  179.4610  142.0970 C   0  0  2  0  0  3  0  0  0  0  0  0
  180.7810  178.9110  139.6570 C   0  0  0  0  0  2  0  0  0  0  0  0
  182.2940  178.8460  139.8050 C   0  0  0  0  0  2  0  0  0  0  0  0
  182.6760  178.5020  141.2170 C   0  0  0  0  0  3  0  0  0  0  0  0
  180.2400  179.9120  140.6680 C   0  0  0  0  0  2  0  0  0  0  0  0
  1 16  1  6  0  0  0
  1  7  1  0  0  0  0
  1  4  1  0  0  0  0
  2 24  1  0  0  0  0
  2  5  1  0  0  0  0
  4 23  1  1  0  0  0
  4  6  1  0  0  0  0
  6  5  1  0  0  0  0
  6 10  1  1  0  0  0
  7  3  1  6  0  0  0
  7  2  1  0  0  0  0
  8 14  1  0  0  0  0
  9  8  1  0  0  0  0
 10 12  1  0  0  0  0
 11  9  2  0  0  0  0
 12  8  2  0  0  0  0
 13 10  2  0  0  0  0
 13 11  1  0  0  0  0
 16 15  1  1  0  0  0
 17 16  1  0  0  0  0
 18 17  1  0  0  0  0
 20 19  1  0  0  0  0
 20 18  1  0  0  0  0
 21 20  2  0  0  0  0
 22 23  3  0  0  0  0
 24 26  1  0  0  0  0
 26 25  2  0  0  0  0
 27 25  1  0  0  0  0
 29 27  1  0  0  0  0
 30 29  1  0  0  0  0
 30 28  1  1  0  0  0
 31 32  1  0  0  0  0
 31 34  1  0  0  0  0
 32 33  1  0  0  0  0
 33 29  2  0  0  0  0
 34 30  1  0  0  0  0
M  END
>  <MODEL>
6

>  <REMARK>
 VINA RESULT:      -7.0      3.469      6.292
  Name = 
  10 active torsions:
  status: ('A' for Active; 'I' for Inactive)
    1  A    between atoms: C_3  and  C_13
    2  A    between atoms: C_3  and  C_17
    3  A    between atoms: C_4  and  C_15
    4  A    between atoms: N_5  and  C_18
    5  A    between atoms: C_6  and  C_9
    6  A    between atoms: C_9  and  N_25
    7  A    between atoms: C_12  and  C_28
    8  A    between atoms: C_15  and  N_25
    9  A    between atoms: C_18  and  C_29
   10  A    between atoms: C_21  and  C_32
                            x       y       z     vdW  Elec       q    Type
                         _______ _______ _______ _____ _____    ______ ____

>  <TORSDO>
F 10

$$$$
=
 OpenBabel10272400013D

 34 36  0  0  1  0  0  0  0  0999 V2000
  190.4520  177.6660  141.3650 C   0  0  2  0  0  3  0  0  0  0  0  0
  188.1920  178.5190  141.9060 N   0  0  0  0  0  0  0  0  0  0  0  0
  188.9630  178.5630  139.5630 C   0  0  0  0  0  1  0  0  0  0  0  0
  190.5460  177.2230  142.8330 C   0  0  1  0  0  3  0  0  0  0  0  0
  188.2370  177.8200  143.0780 O   0  0  0  0  0  0  0  0  0  0  0  0
  189.5170  178.0440  143.6160 C   0  0  1  0  0  3  0  0  0  0  0  0
  188.9860  177.8000  140.8850 C   0  0  1  0  0  3  0  0  0  0  0  0
  190.7910  177.0750  147.0500 C   0  0  0  0  0  0  0  0  0  0  0  0
  189.6620  177.2880  147.8460 C   0  0  0  0  0  3  0  0  0  0  0  0
  189.5520  177.7950  145.0940 C   0  0  0  0  0  0  0  0  0  0  0  0
  188.4760  177.7520  147.2700 C   0  0  0  0  0  3  0  0  0  0  0  0
  190.7350  177.3250  145.6760 C   0  0  0  0  0  3  0  0  0  0  0  0
  188.4210  178.0040  145.8950 C   0  0  0  0  0  3  0  0  0  0  0  0
  191.9390  176.6250  147.6090 F   0  0  0  0  0  0  0  0  0  0  0  0
  192.4160  177.6880  139.9710 O   0  0  0  0  0  1  0  0  0  0  0  0
  191.3830  176.8710  140.4340 C   0  0  2  0  0  3  0  0  0  0  0  0
  190.6540  176.3090  139.3060 N   0  0  0  0  0  2  0  0  0  0  0  0
  191.5700  176.2710  138.1790 C   0  0  0  0  0  2  0  0  0  0  0  0
  190.5900  174.0320  137.5810 N   0  0  0  0  0  2  0  0  0  0  0  0
  191.7320  174.8680  137.7110 C   0  0  0  0  0  0  0  0  0  0  0  0
  192.9150  174.3590  137.6150 N   0  0  0  0  0  1  0  0  0  0  0  0
  190.1070  174.5890  143.1070 C   0  0  0  0  0  3  0  0  0  0  0  0
  190.3060  175.7720  142.9830 C   0  0  0  0  0  0  0  0  0  0  0  0
  186.7910  178.5110  141.5000 C   0  0  0  0  0  2  0  0  0  0  0  0
  184.6380  178.3200  142.7510 C   0  0  0  0  0  3  0  0  0  0  0  0
  185.9400  178.0370  142.6360 C   0  0  0  0  0  3  0  0  0  0  0  0
  183.8670  179.1640  141.7740 C   0  0  0  0  0  2  0  0  0  0  0  0
  184.5580  179.9170  138.9880 O   0  0  0  0  0  1  0  0  0  0  0  0
  183.4810  178.4310  140.5180 C   0  0  0  0  0  0  0  0  0  0  0  0
  183.3660  179.2380  139.2410 C   0  0  2  0  0  3  0  0  0  0  0  0
  181.9180  177.3840  138.3610 C   0  0  0  0  0  2  0  0  0  0  0  0
  182.4910  176.4290  139.3970 C   0  0  0  0  0  2  0  0  0  0  0  0
  182.9810  177.1820  140.6020 C   0  0  0  0  0  3  0  0  0  0  0  0
  182.9830  178.4120  138.0110 C   0  0  0  0  0  2  0  0  0  0  0  0
  1 16  1  6  0  0  0
  1  4  1  0  0  0  0
  2  5  1  0  0  0  0
  4 23  1  6  0  0  0
  4  6  1  0  0  0  0
  5  6  1  0  0  0  0
  6 10  1  1  0  0  0
  7  3  1  6  0  0  0
  7  1  1  0  0  0  0
  7  2  1  0  0  0  0
  8 14  1  0  0  0  0
  8  9  1  0  0  0  0
 10 12  1  0  0  0  0
 10 13  2  0  0  0  0
 11  9  2  0  0  0  0
 12  8  2  0  0  0  0
 13 11  1  0  0  0  0
 16 15  1  6  0  0  0
 17 16  1  0  0  0  0
 18 17  1  0  0  0  0
 19 20  2  0  0  0  0
 20 18  1  0  0  0  0
 21 20  1  0  0  0  0
 23 22  3  0  0  0  0
 24  2  1  0  0  0  0
 24 26  1  0  0  0  0
 26 25  2  0  0  0  0
 27 25  1  0  0  0  0
 29 33  2  0  0  0  0
 29 27  1  0  0  0  0
 30 28  1  6  0  0  0
 30 29  1  0  0  0  0
 31 32  1  0  0  0  0
 32 33  1  0  0  0  0
 34 31  1  0  0  0  0
 34 30  1  0  0  0  0
M  END
>  <MODEL>
7

>  <REMARK>
 VINA RESULT:      -7.0      3.391      5.753
  Name = 
  10 active torsions:
  status: ('A' for Active; 'I' for Inactive)
    1  A    between atoms: C_3  and  C_13
    2  A    between atoms: C_3  and  C_17
    3  A    between atoms: C_4  and  C_15
    4  A    between atoms: N_5  and  C_18
    5  A    between atoms: C_6  and  C_9
    6  A    between atoms: C_9  and  N_25
    7  A    between atoms: C_12  and  C_28
    8  A    between atoms: C_15  and  N_25
    9  A    between atoms: C_18  and  C_29
   10  A    between atoms: C_21  and  C_32
                            x       y       z     vdW  Elec       q    Type
                         _______ _______ _______ _____ _____    ______ ____

>  <TORSDO>
F 10

$$$$
=
 OpenBabel10272400013D

 34 36  0  0  1  0  0  0  0  0999 V2000
  190.3440  177.7360  141.4340 C   0  0  2  0  0  3  0  0  0  0  0  0
  188.0140  178.5010  141.7710 N   0  0  0  0  0  0  0  0  0  0  0  0
  188.9870  178.5740  139.5050 C   0  0  0  0  0  1  0  0  0  0  0  0
  190.3250  177.2980  142.9060 C   0  0  1  0  0  3  0  0  0  0  0  0
  187.9830  177.8050  142.9450 O   0  0  0  0  0  0  0  0  0  0  0  0
  189.2000  178.0790  143.5920 C   0  0  1  0  0  3  0  0  0  0  0  0
  188.9220  177.8130  140.8270 C   0  0  1  0  0  3  0  0  0  0  0  0
  190.2300  177.2890  147.1530 C   0  0  0  0  0  0  0  0  0  0  0  0
  189.0050  177.3360  147.8230 C   0  0  0  0  0  3  0  0  0  0  0  0
  189.1150  177.8320  145.0690 C   0  0  0  0  0  0  0  0  0  0  0  0
  187.8320  177.6270  147.1200 C   0  0  0  0  0  3  0  0  0  0  0  0
  190.2840  177.5340  145.7770 C   0  0  0  0  0  3  0  0  0  0  0  0
  187.8870  177.8740  145.7450 C   0  0  0  0  0  3  0  0  0  0  0  0
  191.3650  177.0060  147.8340 F   0  0  0  0  0  0  0  0  0  0  0  0
  192.2960  177.8710  140.0300 O   0  0  0  0  0  1  0  0  0  0  0  0
  191.3840  176.9780  140.5920 C   0  0  2  0  0  3  0  0  0  0  0  0
  190.7480  176.1940  139.5430 N   0  0  0  0  0  2  0  0  0  0  0  0
  191.6010  176.2760  138.3690 C   0  0  0  0  0  2  0  0  0  0  0  0
  190.6110  174.1130  137.5470 N   0  0  0  0  0  2  0  0  0  0  0  0
  191.7570  174.9250  137.7670 C   0  0  0  0  0  0  0  0  0  0  0  0
  192.9370  174.4180  137.6280 N   0  0  0  0  0  1  0  0  0  0  0  0
  189.9720  174.6480  143.1520 C   0  0  0  0  0  3  0  0  0  0  0  0
  190.1290  175.8390  143.0410 C   0  0  0  0  0  0  0  0  0  0  0  0
  186.6560  178.4390  141.2430 C   0  0  0  0  0  2  0  0  0  0  0  0
  184.3710  178.4370  142.2510 C   0  0  0  0  0  3  0  0  0  0  0  0
  185.6760  178.7150  142.3400 C   0  0  0  0  0  3  0  0  0  0  0  0
  183.7160  177.8350  141.0390 C   0  0  0  0  0  2  0  0  0  0  0  0
  180.9370  178.5180  141.8250 O   0  0  0  0  0  1  0  0  0  0  0  0
  182.7830  178.7770  140.3290 C   0  0  0  0  0  0  0  0  0  0  0  0
  181.2940  178.5350  140.4760 C   0  0  2  0  0  3  0  0  0  0  0  0
  181.0070  179.8690  138.3680 C   0  0  0  0  0  2  0  0  0  0  0  0
  182.3750  180.5030  138.5690 C   0  0  0  0  0  2  0  0  0  0  0  0
  183.2640  179.6040  139.3810 C   0  0  0  0  0  3  0  0  0  0  0  0
  180.4190  179.5470  139.7330 C   0  0  0  0  0  2  0  0  0  0  0  0
  1 16  1  6  0  0  0
  1  4  1  0  0  0  0
  2  5  1  0  0  0  0
  4 23  1  6  0  0  0
  4  6  1  0  0  0  0
  5  6  1  0  0  0  0
  6 10  1  1  0  0  0
  7  3  1  6  0  0  0
  7  1  1  0  0  0  0
  7  2  1  0  0  0  0
  8  9  1  0  0  0  0
  8 14  1  0  0  0  0
 10 13  2  0  0  0  0
 10 12  1  0  0  0  0
 11  9  2  0  0  0  0
 12  8  2  0  0  0  0
 13 11  1  0  0  0  0
 16 15  1  6  0  0  0
 17 16  1  0  0  0  0
 18 17  1  0  0  0  0
 19 20  2  0  0  0  0
 20 18  1  0  0  0  0
 21 20  1  0  0  0  0
 23 22  3  0  0  0  0
 24  2  1  0  0  0  0
 24 26  1  0  0  0  0
 25 26  2  0  0  0  0
 27 25  1  0  0  0  0
 29 30  1  0  0  0  0
 29 27  1  0  0  0  0
 30 28  1  1  0  0  0
 31 32  1  0  0  0  0
 31 34  1  0  0  0  0
 32 33  1  0  0  0  0
 33 29  2  0  0  0  0
 34 30  1  0  0  0  0
M  END
>  <MODEL>
8

>  <REMARK>
 VINA RESULT:      -7.0      3.504      5.839
  Name = 
  10 active torsions:
  status: ('A' for Active; 'I' for Inactive)
    1  A    between atoms: C_3  and  C_13
    2  A    between atoms: C_3  and  C_17
    3  A    between atoms: C_4  and  C_15
    4  A    between atoms: N_5  and  C_18
    5  A    between atoms: C_6  and  C_9
    6  A    between atoms: C_9  and  N_25
    7  A    between atoms: C_12  and  C_28
    8  A    between atoms: C_15  and  N_25
    9  A    between atoms: C_18  and  C_29
   10  A    between atoms: C_21  and  C_32
                            x       y       z     vdW  Elec       q    Type
                         _______ _______ _______ _____ _____    ______ ____

>  <TORSDO>
F 10

$$$$
=
 OpenBabel10272400013D

 34 36  0  0  1  0  0  0  0  0999 V2000
  190.5450  177.8650  142.2520 C   0  0  2  0  0  3  0  0  0  0  0  0
  189.7070  177.8990  139.9230 N   0  0  0  0  0  0  0  0  0  0  0  0
  192.1290  177.6630  140.3240 C   0  0  0  0  0  1  0  0  0  0  0  0
  189.0740  177.8620  142.6930 C   0  0  1  0  0  3  0  0  0  0  0  0
  188.4660  177.5770  140.3920 O   0  0  0  0  0  0  0  0  0  0  0  0
  188.2510  178.3930  141.5160 C   0  0  1  0  0  3  0  0  0  0  0  0
  190.7280  177.3110  140.8180 C   0  0  1  0  0  3  0  0  0  0  0  0
  185.0040  178.5470  143.4650 C   0  0  0  0  0  0  0  0  0  0  0  0
  184.0720  178.7890  142.4520 C   0  0  0  0  0  3  0  0  0  0  0  0
  186.7920  178.5440  141.8250 C   0  0  0  0  0  0  0  0  0  0  0  0
  184.4950  178.9050  141.1240 C   0  0  0  0  0  3  0  0  0  0  0  0
  186.3610  178.4220  143.1510 C   0  0  0  0  0  3  0  0  0  0  0  0
  185.8530  178.7820  140.8110 C   0  0  0  0  0  3  0  0  0  0  0  0
  184.5940  178.4330  144.7500 F   0  0  0  0  0  0  0  0  0  0  0  0
  191.5650  175.8960  143.1900 O   0  0  0  0  0  1  0  0  0  0  0  0
  191.4950  177.2840  143.3130 C   0  0  2  0  0  3  0  0  0  0  0  0
  191.0690  177.6410  144.6590 N   0  0  0  0  0  2  0  0  0  0  0  0
  191.5950  176.6280  145.5580 C   0  0  0  0  0  2  0  0  0  0  0  0
  191.9860  176.8020  148.0380 N   0  0  0  0  0  1  0  0  0  0  0  0
  191.0900  176.8690  146.9360 C   0  0  0  0  0  0  0  0  0  0  0  0
  189.8180  176.9430  147.1480 N   0  0  0  0  0  2  0  0  0  0  0  0
  188.2590  175.4110  143.4260 C   0  0  0  0  0  3  0  0  0  0  0  0
  188.6260  176.5120  143.0980 C   0  0  0  0  0  0  0  0  0  0  0  0
  189.8090  177.2610  138.6150 C   0  0  0  0  0  2  0  0  0  0  0  0
  188.4760  177.8870  136.5970 C   0  0  0  0  0  3  0  0  0  0  0  0
  189.3520  178.2130  137.5540 C   0  0  0  0  0  3  0  0  0  0  0  0
  187.8550  176.5260  136.4480 C   0  0  0  0  0  2  0  0  0  0  0  0
  186.4150  174.0890  137.3400 O   0  0  0  0  0  1  0  0  0  0  0  0
  186.4420  176.4490  136.9580 C   0  0  0  0  0  0  0  0  0  0  0  0
  185.6980  175.1420  136.7700 C   0  0  2  0  0  3  0  0  0  0  0  0
  183.5810  176.4680  137.0310 C   0  0  0  0  0  2  0  0  0  0  0  0
  184.3510  177.5830  137.7220 C   0  0  0  0  0  2  0  0  0  0  0  0
  185.7920  177.5800  137.2940 C   0  0  0  0  0  3  0  0  0  0  0  0
  184.2740  175.1470  137.3290 C   0  0  0  0  0  2  0  0  0  0  0  0
  1  4  1  0  0  0  0
  1 16  1  1  0  0  0
  2  5  1  0  0  0  0
  2  7  1  0  0  0  0
  4 23  1  6  0  0  0
  5  6  1  0  0  0  0
  6 10  1  1  0  0  0
  6  4  1  0  0  0  0
  7  3  1  6  0  0  0
  7  1  1  0  0  0  0
  8 14  1  0  0  0  0
  9  8  2  0  0  0  0
 10 12  2  0  0  0  0
 11  9  1  0  0  0  0
 12  8  1  0  0  0  0
 13 11  2  0  0  0  0
 13 10  1  0  0  0  0
 16 15  1  1  0  0  0
 16 17  1  0  0  0  0
 17 18  1  0  0  0  0
 18 20  1  0  0  0  0
 20 21  2  0  0  0  0
 20 19  1  0  0  0  0
 23 22  3  0  0  0  0
 24  2  1  0  0  0  0
 25 26  2  0  0  0  0
 26 24  1  0  0  0  0
 27 25  1  0  0  0  0
 27 29  1  0  0  0  0
 29 33  2  0  0  0  0
 30 29  1  0  0  0  0
 30 34  1  0  0  0  0
 30 28  1  1  0  0  0
 31 34  1  0  0  0  0
 31 32  1  0  0  0  0
 33 32  1  0  0  0  0
M  END
>  <MODEL>
9

>  <REMARK>
 VINA RESULT:      -6.9      2.579      4.713
  Name = 
  10 active torsions:
  status: ('A' for Active; 'I' for Inactive)
    1  A    between atoms: C_3  and  C_13
    2  A    between atoms: C_3  and  C_17
    3  A    between atoms: C_4  and  C_15
    4  A    between atoms: N_5  and  C_18
    5  A    between atoms: C_6  and  C_9
    6  A    between atoms: C_9  and  N_25
    7  A    between atoms: C_12  and  C_28
    8  A    between atoms: C_15  and  N_25
    9  A    between atoms: C_18  and  C_29
   10  A    between atoms: C_21  and  C_32
                            x       y       z     vdW  Elec       q    Type
                         _______ _______ _______ _____ _____    ______ ____

>  <TORSDO>
F 10

$$$$
