=
 OpenBabel10262423393D

 34 39  0  0  1  0  0  0  0  0999 V2000
  185.5840  178.8320  144.7840 C   0  0  0  0  0  0  0  0  0  0  0  0
  187.2190  177.0920  144.3130 C   0  0  0  0  0  0  0  0  0  0  0  0
  186.0840  178.3480  142.4450 C   0  0  0  0  0  0  0  0  0  0  0  0
  186.7810  178.4480  140.0870 N   0  0  0  0  0  0  0  0  0  0  0  0
  186.8550  177.8520  146.5900 C   0  0  0  0  0  3  0  0  0  0  0  0
  187.4930  177.0110  145.6830 C   0  0  0  0  0  3  0  0  0  0  0  0
  188.4340  177.8880  141.4720 C   0  0  0  0  0  3  0  0  0  0  0  0
  186.3260  178.0870  143.8260 C   0  0  0  0  0  0  0  0  0  0  0  0
  187.8880  178.3750  139.3350 C   0  0  0  0  0  3  0  0  0  0  0  0
  185.8810  178.7400  146.1450 C   0  0  0  0  0  3  0  0  0  0  0  0
  184.9260  179.0740  142.0740 C   0  0  0  0  0  0  0  0  0  0  0  0
  184.5160  179.6370  144.3880 C   0  0  0  0  0  3  0  0  0  0  0  0
  187.7600  175.7160  143.3580 Cl  0  0  0  0  0  0  0  0  0  0  0  0
  185.5640  179.0120  139.6870 N   0  0  0  0  0  2  0  0  0  0  0  0
  184.4560  179.1370  140.6340 C   0  0  1  0  0  3  0  0  0  0  0  0
  188.9170  178.0060  140.1780 C   0  0  0  0  0  0  0  0  0  0  0  0
  187.0740  178.1330  141.3590 C   0  0  0  0  0  0  0  0  0  0  0  0
  184.1640  179.7220  143.0460 C   0  0  0  0  0  3  0  0  0  0  0  0
  182.7460  175.9940  139.3320 C   0  0  0  0  0  0  0  0  0  0  0  0
  181.4770  176.1250  139.9030 C   0  0  0  0  0  3  0  0  0  0  0  0
  183.4250  178.0840  140.3640 C   0  0  0  0  0  0  0  0  0  0  0  0
  181.1810  177.2320  140.7040 C   0  0  0  0  0  3  0  0  0  0  0  0
  183.7190  176.9700  139.5620 C   0  0  0  0  0  3  0  0  0  0  0  0
  182.1540  178.2090  140.9350 C   0  0  0  0  0  3  0  0  0  0  0  0
  183.0340  174.9220  138.5570 F   0  0  0  0  0  0  0  0  0  0  0  0
  190.3270  177.7830  139.7650 C   0  0  0  0  0  2  0  0  0  0  0  0
  190.3700  177.4130  138.3570 N   0  0  0  0  0  2  0  0  0  0  0  0
  193.0790  176.4650  138.0360 C   0  0  0  0  0  1  0  0  0  0  0  0
  190.6010  176.0750  137.8990 C   0  0  0  0  0  0  0  0  0  0  0  0
  191.9520  175.6000  137.7310 N   0  0  0  0  0  0  0  0  0  0  0  0
  191.1160  173.7320  136.3810 C   0  0  0  0  0  2  0  0  0  0  0  0
  189.7820  173.8700  137.1080 C   0  0  0  0  0  2  0  0  0  0  0  0
  189.5710  175.2840  137.5670 C   0  0  0  0  0  3  0  0  0  0  0  0
  192.2290  174.2320  137.2960 C   0  0  0  0  0  2  0  0  0  0  0  0
  1 10  2  0  0  0  0
  2  6  1  0  0  0  0
  3  8  1  0  0  0  0
  4 17  1  0  0  0  0
  6  5  2  0  0  0  0
  8  2  2  0  0  0  0
  8  1  1  0  0  0  0
  9  4  1  0  0  0  0
  9 16  2  0  0  0  0
 10  5  1  0  0  0  0
 11  3  2  0  0  0  0
 11 18  1  0  0  0  0
 12  1  1  0  0  0  0
 13  2  1  0  0  0  0
 14  4  1  0  0  0  0
 14 15  1  0  0  0  0
 15 21  1  6  0  0  0
 15 11  1  0  0  0  0
 16  7  1  0  0  0  0
 17  7  2  0  0  0  0
 17  3  1  0  0  0  0
 18 12  2  0  0  0  0
 19 23  2  0  0  0  0
 19 20  1  0  0  0  0
 20 22  2  0  0  0  0
 21 24  2  0  0  0  0
 22 24  1  0  0  0  0
 23 21  1  0  0  0  0
 25 19  1  0  0  0  0
 26 16  1  0  0  0  0
 27 26  1  0  0  0  0
 29 27  1  0  0  0  0
 30 29  1  0  0  0  0
 30 28  1  0  0  0  0
 31 32  1  0  0  0  0
 31 34  1  0  0  0  0
 32 33  1  0  0  0  0
 33 29  2  0  0  0  0
 34 30  1  0  0  0  0
M  END
>  <MODEL>
1

>  <REMARK>
 VINA RESULT:      -8.7      0.000      0.000
  Name = 
  4 active torsions:
  status: ('A' for Active; 'I' for Inactive)
    1  A    between atoms: N_3  and  C_13
    2  A    between atoms: N_3  and  C_17
    3  A    between atoms: C_12  and  C_28
    4  A    between atoms: C_17  and  C_29
                            x       y       z     vdW  Elec       q    Type
                         _______ _______ _______ _____ _____    ______ ____

>  <TORSDO>
F 4

$$$$
=
 OpenBabel10262423393D

 34 39  0  0  1  0  0  0  0  0999 V2000
  185.3470  178.9010  144.6910 C   0  0  0  0  0  0  0  0  0  0  0  0
  187.0600  177.2060  144.3460 C   0  0  0  0  0  0  0  0  0  0  0  0
  185.9700  178.3680  142.3910 C   0  0  0  0  0  0  0  0  0  0  0  0
  186.7690  178.4240  140.0650 N   0  0  0  0  0  0  0  0  0  0  0  0
  186.5670  178.0180  146.5800 C   0  0  0  0  0  3  0  0  0  0  0  0
  187.2730  177.1740  145.7280 C   0  0  0  0  0  3  0  0  0  0  0  0
  188.3750  177.9620  141.5390 C   0  0  0  0  0  3  0  0  0  0  0  0
  186.1570  178.1550  143.7890 C   0  0  0  0  0  0  0  0  0  0  0  0
  187.9110  178.3680  139.3650 C   0  0  0  0  0  3  0  0  0  0  0  0
  185.5840  178.8590  146.0650 C   0  0  0  0  0  3  0  0  0  0  0  0
  184.8050  179.0420  141.9470 C   0  0  0  0  0  0  0  0  0  0  0  0
  184.2720  179.6560  144.2230 C   0  0  0  0  0  3  0  0  0  0  0  0
  187.6900  175.8230  143.4580 Cl  0  0  0  0  0  0  0  0  0  0  0  0
  185.5540  178.9340  139.5940 N   0  0  0  0  0  2  0  0  0  0  0  0
  184.4000  179.0470  140.4870 C   0  0  1  0  0  3  0  0  0  0  0  0
  188.9120  178.0600  140.2640 C   0  0  0  0  0  0  0  0  0  0  0  0
  187.0150  178.1570  141.3570 C   0  0  0  0  0  0  0  0  0  0  0  0
  183.9790  179.6900  142.8640 C   0  0  0  0  0  3  0  0  0  0  0  0
  181.2270  176.9440  140.4740 C   0  0  0  0  0  0  0  0  0  0  0  0
  181.6040  175.8960  139.6290 C   0  0  0  0  0  3  0  0  0  0  0  0
  183.4190  177.9510  140.2030 C   0  0  0  0  0  0  0  0  0  0  0  0
  182.8860  175.8750  139.0700 C   0  0  0  0  0  3  0  0  0  0  0  0
  182.1300  177.9700  140.7610 C   0  0  0  0  0  3  0  0  0  0  0  0
  183.7910  176.9010  139.3560 C   0  0  0  0  0  3  0  0  0  0  0  0
  179.9850  176.9650  141.0140 F   0  0  0  0  0  0  0  0  0  0  0  0
  190.3470  177.8740  139.9210 C   0  0  0  0  0  2  0  0  0  0  0  0
  190.5580  176.5220  139.4250 N   0  0  0  0  0  2  0  0  0  0  0  0
  189.1050  175.4430  137.1740 C   0  0  0  0  0  1  0  0  0  0  0  0
  191.2560  176.2280  138.2090 C   0  0  0  0  0  0  0  0  0  0  0  0
  190.5360  175.6820  137.0850 N   0  0  0  0  0  0  0  0  0  0  0  0
  192.6610  175.0120  136.0620 C   0  0  0  0  0  2  0  0  0  0  0  0
  193.3370  176.1210  136.8610 C   0  0  0  0  0  2  0  0  0  0  0  0
  192.5840  176.3970  138.1290 C   0  0  0  0  0  3  0  0  0  0  0  0
  191.2070  175.3980  135.8170 C   0  0  0  0  0  2  0  0  0  0  0  0
  1 10  2  0  0  0  0
  2  6  1  0  0  0  0
  3  8  1  0  0  0  0
  4 17  1  0  0  0  0
  6  5  2  0  0  0  0
  8  2  2  0  0  0  0
  8  1  1  0  0  0  0
  9  4  1  0  0  0  0
  9 16  2  0  0  0  0
 10  5  1  0  0  0  0
 11  3  2  0  0  0  0
 11 18  1  0  0  0  0
 12  1  1  0  0  0  0
 13  2  1  0  0  0  0
 14  4  1  0  0  0  0
 14 15  1  0  0  0  0
 15 21  1  1  0  0  0
 15 11  1  0  0  0  0
 16  7  1  0  0  0  0
 17  7  2  0  0  0  0
 17  3  1  0  0  0  0
 18 12  2  0  0  0  0
 19 23  1  0  0  0  0
 19 25  1  0  0  0  0
 20 19  2  0  0  0  0
 21 23  2  0  0  0  0
 22 24  2  0  0  0  0
 22 20  1  0  0  0  0
 24 21  1  0  0  0  0
 26 16  1  0  0  0  0
 27 26  1  0  0  0  0
 29 27  1  0  0  0  0
 30 28  1  0  0  0  0
 30 29  1  0  0  0  0
 31 32  1  0  0  0  0
 32 33  1  0  0  0  0
 33 29  2  0  0  0  0
 34 31  1  0  0  0  0
 34 30  1  0  0  0  0
M  END
>  <MODEL>
2

>  <REMARK>
 VINA RESULT:      -8.7      1.012      1.748
  Name = 
  4 active torsions:
  status: ('A' for Active; 'I' for Inactive)
    1  A    between atoms: N_3  and  C_13
    2  A    between atoms: N_3  and  C_17
    3  A    between atoms: C_12  and  C_28
    4  A    between atoms: C_17  and  C_29
                            x       y       z     vdW  Elec       q    Type
                         _______ _______ _______ _____ _____    ______ ____

>  <TORSDO>
F 4

$$$$
=
 OpenBabel10262423393D

 34 39  0  0  1  0  0  0  0  0999 V2000
  185.3750  178.9010  144.4790 C   0  0  0  0  0  0  0  0  0  0  0  0
  187.0610  177.1470  144.4140 C   0  0  0  0  0  0  0  0  0  0  0  0
  186.2980  178.2940  142.3020 C   0  0  0  0  0  0  0  0  0  0  0  0
  187.4200  178.2690  140.1120 N   0  0  0  0  0  0  0  0  0  0  0  0
  186.2850  178.0270  146.5400 C   0  0  0  0  0  3  0  0  0  0  0  0
  187.0750  177.1410  145.8130 C   0  0  0  0  0  3  0  0  0  0  0  0
  188.7850  177.7940  141.8090 C   0  0  0  0  0  3  0  0  0  0  0  0
  186.2780  178.1090  143.7160 C   0  0  0  0  0  0  0  0  0  0  0  0
  188.6470  178.1610  139.5840 C   0  0  0  0  0  3  0  0  0  0  0  0
  185.4140  178.8850  145.8740 C   0  0  0  0  0  3  0  0  0  0  0  0
  185.2320  178.9920  141.6840 C   0  0  0  0  0  0  0  0  0  0  0  0
  184.4030  179.6770  143.8480 C   0  0  0  0  0  3  0  0  0  0  0  0
  187.7630  175.7240  143.6520 Cl  0  0  0  0  0  0  0  0  0  0  0  0
  186.3010  178.8040  139.4640 N   0  0  0  0  0  2  0  0  0  0  0  0
  185.0380  178.9740  140.1810 C   0  0  1  0  0  3  0  0  0  0  0  0
  189.5000  177.8440  140.6220 C   0  0  0  0  0  0  0  0  0  0  0  0
  187.4710  178.0250  141.4320 C   0  0  0  0  0  0  0  0  0  0  0  0
  184.3060  179.6870  142.4610 C   0  0  0  0  0  3  0  0  0  0  0  0
  183.3530  176.1480  138.2660 C   0  0  0  0  0  0  0  0  0  0  0  0
  182.2490  175.8910  139.0840 C   0  0  0  0  0  3  0  0  0  0  0  0
  184.0700  177.9030  139.7820 C   0  0  0  0  0  0  0  0  0  0  0  0
  182.0550  176.6380  140.2510 C   0  0  0  0  0  3  0  0  0  0  0  0
  184.2620  177.1500  138.6130 C   0  0  0  0  0  3  0  0  0  0  0  0
  182.9640  177.6400  140.5990 C   0  0  0  0  0  3  0  0  0  0  0  0
  183.5420  175.4240  137.1360 F   0  0  0  0  0  0  0  0  0  0  0  0
  190.9620  177.6060  140.4900 C   0  0  0  0  0  2  0  0  0  0  0  0
  191.6380  178.0420  141.7040 N   0  0  0  0  0  2  0  0  0  0  0  0
  191.0470  179.6020  144.0620 C   0  0  0  0  0  1  0  0  0  0  0  0
  191.4930  177.3840  142.9680 C   0  0  0  0  0  0  0  0  0  0  0  0
  191.2050  178.1600  144.1490 N   0  0  0  0  0  0  0  0  0  0  0  0
  191.8650  176.2570  145.5470 C   0  0  0  0  0  2  0  0  0  0  0  0
  191.5160  175.3420  144.3780 C   0  0  0  0  0  2  0  0  0  0  0  0
  191.6860  176.0610  143.0710 C   0  0  0  0  0  3  0  0  0  0  0  0
  191.0200  177.5220  145.4520 C   0  0  0  0  0  2  0  0  0  0  0  0
  1 10  2  0  0  0  0
  2  6  1  0  0  0  0
  3  8  1  0  0  0  0
  4 17  1  0  0  0  0
  6  5  2  0  0  0  0
  8  2  2  0  0  0  0
  8  1  1  0  0  0  0
  9  4  1  0  0  0  0
  9 16  2  0  0  0  0
 10  5  1  0  0  0  0
 11  3  2  0  0  0  0
 11 18  1  0  0  0  0
 12  1  1  0  0  0  0
 13  2  1  0  0  0  0
 14  4  1  0  0  0  0
 14 15  1  0  0  0  0
 15 21  1  1  0  0  0
 15 11  1  0  0  0  0
 16  7  1  0  0  0  0
 17  7  2  0  0  0  0
 17  3  1  0  0  0  0
 18 12  2  0  0  0  0
 19 23  2  0  0  0  0
 19 20  1  0  0  0  0
 20 22  2  0  0  0  0
 21 24  2  0  0  0  0
 22 24  1  0  0  0  0
 23 21  1  0  0  0  0
 25 19  1  0  0  0  0
 26 16  1  0  0  0  0
 26 27  1  0  0  0  0
 27 29  1  0  0  0  0
 28 30  1  0  0  0  0
 29 33  2  0  0  0  0
 29 30  1  0  0  0  0
 30 34  1  0  0  0  0
 32 31  1  0  0  0  0
 33 32  1  0  0  0  0
 34 31  1  0  0  0  0
M  END
>  <MODEL>
3

>  <REMARK>
 VINA RESULT:      -8.6      2.191      3.512
  Name = 
  4 active torsions:
  status: ('A' for Active; 'I' for Inactive)
    1  A    between atoms: N_3  and  C_13
    2  A    between atoms: N_3  and  C_17
    3  A    between atoms: C_12  and  C_28
    4  A    between atoms: C_17  and  C_29
                            x       y       z     vdW  Elec       q    Type
                         _______ _______ _______ _____ _____    ______ ____

>  <TORSDO>
F 4

$$$$
=
 OpenBabel10262423393D

 34 39  0  0  1  0  0  0  0  0999 V2000
  191.9540  175.6040  138.0510 C   0  0  0  0  0  0  0  0  0  0  0  0
  190.1270  174.4040  136.9790 C   0  0  0  0  0  0  0  0  0  0  0  0
  189.7220  176.5840  138.1790 C   0  0  0  0  0  0  0  0  0  0  0  0
  187.7420  178.0340  137.9950 N   0  0  0  0  0  0  0  0  0  0  0  0
  192.4220  173.6740  136.6740 C   0  0  0  0  0  3  0  0  0  0  0  0
  191.0590  173.5080  136.4460 C   0  0  0  0  0  3  0  0  0  0  0  0
  188.0030  176.6710  136.2510 C   0  0  0  0  0  3  0  0  0  0  0  0
  190.5730  175.5390  137.7130 C   0  0  0  0  0  0  0  0  0  0  0  0
  186.7840  178.3650  137.1180 C   0  0  0  0  0  3  0  0  0  0  0  0
  192.8660  174.7030  137.5000 C   0  0  0  0  0  3  0  0  0  0  0  0
  190.1880  177.4480  139.2000 C   0  0  0  0  0  0  0  0  0  0  0  0
  192.4160  176.5410  138.9730 C   0  0  0  0  0  3  0  0  0  0  0  0
  188.4580  173.8430  136.9710 Cl  0  0  0  0  0  0  0  0  0  0  0  0
  188.1140  178.7880  139.1130 N   0  0  0  0  0  2  0  0  0  0  0  0
  189.2510  178.3820  139.9390 C   0  0  1  0  0  3  0  0  0  0  0  0
  186.9210  177.5120  136.0400 C   0  0  0  0  0  0  0  0  0  0  0  0
  188.4630  177.0080  137.5150 C   0  0  0  0  0  0  0  0  0  0  0  0
  191.5310  177.4280  139.5750 C   0  0  0  0  0  3  0  0  0  0  0  0
  187.1100  177.5300  142.9700 C   0  0  0  0  0  0  0  0  0  0  0  0
  187.8870  176.5380  143.5750 C   0  0  0  0  0  3  0  0  0  0  0  0
  188.7680  177.7540  141.2100 C   0  0  0  0  0  0  0  0  0  0  0  0
  189.1020  176.1530  143.0000 C   0  0  0  0  0  3  0  0  0  0  0  0
  187.5480  178.1370  141.7900 C   0  0  0  0  0  3  0  0  0  0  0  0
  189.5400  176.7590  141.8190 C   0  0  0  0  0  3  0  0  0  0  0  0
  185.9330  177.9030  143.5270 F   0  0  0  0  0  0  0  0  0  0  0  0
  186.0510  177.5050  134.8350 C   0  0  0  0  0  2  0  0  0  0  0  0
  184.7540  176.9370  135.1730 N   0  0  0  0  0  2  0  0  0  0  0  0
  183.4940  176.7410  137.7650 C   0  0  0  0  0  1  0  0  0  0  0  0
  184.5920  175.6510  135.7840 C   0  0  0  0  0  0  0  0  0  0  0  0
  183.9700  175.5490  137.0810 N   0  0  0  0  0  0  0  0  0  0  0  0
  184.8530  173.2740  137.3150 C   0  0  0  0  0  2  0  0  0  0  0  0
  184.8920  173.1880  135.7930 C   0  0  0  0  0  2  0  0  0  0  0  0
  185.0700  174.5500  135.1870 C   0  0  0  0  0  3  0  0  0  0  0  0
  183.7580  174.2530  137.7240 C   0  0  0  0  0  2  0  0  0  0  0  0
  1 12  1  0  0  0  0
  2  8  1  0  0  0  0
  3 11  2  0  0  0  0
  4 14  1  0  0  0  0
  5 10  2  0  0  0  0
  6  5  1  0  0  0  0
  6  2  2  0  0  0  0
  7 17  2  0  0  0  0
  8  1  2  0  0  0  0
  8  3  1  0  0  0  0
  9  4  1  0  0  0  0
 10  1  1  0  0  0  0
 11 18  1  0  0  0  0
 11 15  1  0  0  0  0
 12 18  2  0  0  0  0
 13  2  1  0  0  0  0
 14 15  1  0  0  0  0
 15 21  1  1  0  0  0
 16  7  1  0  0  0  0
 16  9  2  0  0  0  0
 17  4  1  0  0  0  0
 17  3  1  0  0  0  0
 19 25  1  0  0  0  0
 19 20  1  0  0  0  0
 21 23  1  0  0  0  0
 21 24  2  0  0  0  0
 22 20  2  0  0  0  0
 23 19  2  0  0  0  0
 24 22  1  0  0  0  0
 26 27  1  0  0  0  0
 26 16  1  0  0  0  0
 27 29  1  0  0  0  0
 29 30  1  0  0  0  0
 30 34  1  0  0  0  0
 30 28  1  0  0  0  0
 31 34  1  0  0  0  0
 32 31  1  0  0  0  0
 33 29  2  0  0  0  0
 33 32  1  0  0  0  0
M  END
>  <MODEL>
4

>  <REMARK>
 VINA RESULT:      -8.1      3.009      7.237
  Name = 
  4 active torsions:
  status: ('A' for Active; 'I' for Inactive)
    1  A    between atoms: N_3  and  C_13
    2  A    between atoms: N_3  and  C_17
    3  A    between atoms: C_12  and  C_28
    4  A    between atoms: C_17  and  C_29
                            x       y       z     vdW  Elec       q    Type
                         _______ _______ _______ _____ _____    ______ ____

>  <TORSDO>
F 4

$$$$
=
 OpenBabel10262423393D

 34 39  0  0  1  0  0  0  0  0999 V2000
  191.5810  175.0250  137.2380 C   0  0  0  0  0  0  0  0  0  0  0  0
  189.4930  173.9410  136.6130 C   0  0  0  0  0  0  0  0  0  0  0  0
  189.4970  176.1690  137.7930 C   0  0  0  0  0  0  0  0  0  0  0  0
  187.6240  177.7550  137.9760 N   0  0  0  0  0  0  0  0  0  0  0  0
  191.6180  173.0390  135.8620 C   0  0  0  0  0  3  0  0  0  0  0  0
  190.2290  172.9680  135.9290 C   0  0  0  0  0  3  0  0  0  0  0  0
  187.4210  176.3430  136.2640 C   0  0  0  0  0  3  0  0  0  0  0  0
  190.1580  175.0550  137.1980 C   0  0  0  0  0  0  0  0  0  0  0  0
  186.5290  178.1380  137.3060 C   0  0  0  0  0  3  0  0  0  0  0  0
  192.2940  174.0490  136.5410 C   0  0  0  0  0  3  0  0  0  0  0  0
  190.2250  177.0170  138.6640 C   0  0  0  0  0  0  0  0  0  0  0  0
  192.2890  175.9440  138.0100 C   0  0  0  0  0  3  0  0  0  0  0  0
  187.8260  173.5030  136.9730 Cl  0  0  0  0  0  0  0  0  0  0  0  0
  188.2740  178.5030  138.9640 N   0  0  0  0  0  2  0  0  0  0  0  0
  189.5290  178.0320  139.5490 C   0  0  1  0  0  3  0  0  0  0  0  0
  186.3780  177.2560  136.2540 C   0  0  0  0  0  0  0  0  0  0  0  0
  188.1580  176.6700  137.3920 C   0  0  0  0  0  0  0  0  0  0  0  0
  191.6120  176.9060  138.7520 C   0  0  0  0  0  3  0  0  0  0  0  0
  189.9470  176.0660  142.7820 C   0  0  0  0  0  0  0  0  0  0  0  0
  188.7980  176.4520  143.4800 C   0  0  0  0  0  3  0  0  0  0  0  0
  189.2830  177.4670  140.9140 C   0  0  0  0  0  0  0  0  0  0  0  0
  187.8930  177.3440  142.8970 C   0  0  0  0  0  3  0  0  0  0  0  0
  190.1900  176.5720  141.5030 C   0  0  0  0  0  3  0  0  0  0  0  0
  188.1350  177.8510  141.6170 C   0  0  0  0  0  3  0  0  0  0  0  0
  190.8250  175.2030  143.3470 F   0  0  0  0  0  0  0  0  0  0  0  0
  185.2750  177.2890  135.2570 C   0  0  0  0  0  2  0  0  0  0  0  0
  184.2050  176.3990  135.6860 N   0  0  0  0  0  2  0  0  0  0  0  0
  184.1060  174.3520  137.7210 C   0  0  0  0  0  1  0  0  0  0  0  0
  183.4250  176.6150  136.8680 C   0  0  0  0  0  0  0  0  0  0  0  0
  183.3670  175.5930  137.8830 N   0  0  0  0  0  0  0  0  0  0  0  0
  181.4050  176.6910  138.8610 C   0  0  0  0  0  2  0  0  0  0  0  0
  181.8930  177.9970  138.2460 C   0  0  0  0  0  2  0  0  0  0  0  0
  182.6990  177.7340  137.0070 C   0  0  0  0  0  3  0  0  0  0  0  0
  182.6070  175.7880  139.1170 C   0  0  0  0  0  2  0  0  0  0  0  0
  1 12  1  0  0  0  0
  2 13  1  0  0  0  0
  2  8  1  0  0  0  0
  3 11  2  0  0  0  0
  4 14  1  0  0  0  0
  5  6  1  0  0  0  0
  5 10  2  0  0  0  0
  6  2  2  0  0  0  0
  7 17  2  0  0  0  0
  8  1  2  0  0  0  0
  8  3  1  0  0  0  0
  9  4  1  0  0  0  0
 10  1  1  0  0  0  0
 11 18  1  0  0  0  0
 11 15  1  0  0  0  0
 12 18  2  0  0  0  0
 14 15  1  0  0  0  0
 15 21  1  1  0  0  0
 16  7  1  0  0  0  0
 16  9  2  0  0  0  0
 17  3  1  0  0  0  0
 17  4  1  0  0  0  0
 19 25  1  0  0  0  0
 19 20  1  0  0  0  0
 21 23  1  0  0  0  0
 21 24  2  0  0  0  0
 22 20  2  0  0  0  0
 23 19  2  0  0  0  0
 24 22  1  0  0  0  0
 26 27  1  0  0  0  0
 26 16  1  0  0  0  0
 27 29  1  0  0  0  0
 28 30  1  0  0  0  0
 29 33  2  0  0  0  0
 29 30  1  0  0  0  0
 30 34  1  0  0  0  0
 31 34  1  0  0  0  0
 32 31  1  0  0  0  0
 33 32  1  0  0  0  0
M  END
>  <MODEL>
5

>  <REMARK>
 VINA RESULT:      -7.9      3.103      7.962
  Name = 
  4 active torsions:
  status: ('A' for Active; 'I' for Inactive)
    1  A    between atoms: N_3  and  C_13
    2  A    between atoms: N_3  and  C_17
    3  A    between atoms: C_12  and  C_28
    4  A    between atoms: C_17  and  C_29
                            x       y       z     vdW  Elec       q    Type
                         _______ _______ _______ _____ _____    ______ ____

>  <TORSDO>
F 4

$$$$
=
 OpenBabel10262423393D

 34 39  0  0  1  0  0  0  0  0999 V2000
  188.3370  177.2400  136.8090 C   0  0  0  0  0  0  0  0  0  0  0  0
  186.2400  176.0090  136.7180 C   0  0  0  0  0  0  0  0  0  0  0  0
  186.6540  177.7390  138.5040 C   0  0  0  0  0  0  0  0  0  0  0  0
  184.9760  178.8040  139.9560 N   0  0  0  0  0  0  0  0  0  0  0  0
  187.8640  175.8030  134.9250 C   0  0  0  0  0  3  0  0  0  0  0  0
  186.6490  175.4470  135.5040 C   0  0  0  0  0  3  0  0  0  0  0  0
  184.1130  177.9550  138.0850 C   0  0  0  0  0  3  0  0  0  0  0  0
  187.0400  177.0040  137.3450 C   0  0  0  0  0  0  0  0  0  0  0  0
  183.6810  179.1480  139.9540 C   0  0  0  0  0  3  0  0  0  0  0  0
  188.7200  176.6750  135.5910 C   0  0  0  0  0  3  0  0  0  0  0  0
  187.6480  178.4130  139.2560 C   0  0  0  0  0  0  0  0  0  0  0  0
  189.2680  178.0060  137.5100 C   0  0  0  0  0  3  0  0  0  0  0  0
  184.9190  175.1690  137.5240 Cl  0  0  0  0  0  0  0  0  0  0  0  0
  185.9550  179.3330  140.8040 N   0  0  0  0  0  2  0  0  0  0  0  0
  187.3600  178.9610  140.6390 C   0  0  1  0  0  3  0  0  0  0  0  0
  183.1280  178.6090  138.8090 C   0  0  0  0  0  0  0  0  0  0  0  0
  185.2510  178.0670  138.8680 C   0  0  0  0  0  0  0  0  0  0  0  0
  188.9370  178.5510  138.7450 C   0  0  0  0  0  3  0  0  0  0  0  0
  189.3230  176.3540  142.5990 C   0  0  0  0  0  0  0  0  0  0  0  0
  188.4880  176.1660  143.7040 C   0  0  0  0  0  3  0  0  0  0  0  0
  187.7620  177.9780  141.6950 C   0  0  0  0  0  0  0  0  0  0  0  0
  187.2920  176.8830  143.8070 C   0  0  0  0  0  3  0  0  0  0  0  0
  188.9630  177.2580  141.5970 C   0  0  0  0  0  3  0  0  0  0  0  0
  186.9300  177.7880  142.8050 C   0  0  0  0  0  3  0  0  0  0  0  0
  190.4820  175.6600  142.5000 F   0  0  0  0  0  0  0  0  0  0  0  0
  181.7010  178.7230  138.4090 C   0  0  0  0  0  2  0  0  0  0  0  0
  181.6110  179.3510  137.0980 N   0  0  0  0  0  2  0  0  0  0  0  0
  180.7960  180.1720  134.4520 C   0  0  0  0  0  1  0  0  0  0  0  0
  181.1160  180.6800  136.8920 C   0  0  0  0  0  0  0  0  0  0  0  0
  180.7150  181.0960  135.5710 N   0  0  0  0  0  0  0  0  0  0  0  0
  180.7830  183.4360  136.2990 C   0  0  0  0  0  2  0  0  0  0  0  0
  180.5450  182.9470  137.7230 C   0  0  0  0  0  2  0  0  0  0  0  0
  181.0820  181.5570  137.9050 C   0  0  0  0  0  3  0  0  0  0  0  0
  180.1750  182.4330  135.3260 C   0  0  0  0  0  2  0  0  0  0  0  0
  1  8  2  0  0  0  0
  1 12  1  0  0  0  0
  2  8  1  0  0  0  0
  2 13  1  0  0  0  0
  3 17  1  0  0  0  0
  3 11  2  0  0  0  0
  4 14  1  0  0  0  0
  5  6  1  0  0  0  0
  5 10  2  0  0  0  0
  6  2  2  0  0  0  0
  7 16  1  0  0  0  0
  7 17  2  0  0  0  0
  8  3  1  0  0  0  0
  9  4  1  0  0  0  0
 10  1  1  0  0  0  0
 11 15  1  0  0  0  0
 12 18  2  0  0  0  0
 15 14  1  0  0  0  0
 15 21  1  1  0  0  0
 16  9  2  0  0  0  0
 17  4  1  0  0  0  0
 18 11  1  0  0  0  0
 19 20  1  0  0  0  0
 20 22  2  0  0  0  0
 21 24  2  0  0  0  0
 23 21  1  0  0  0  0
 23 19  2  0  0  0  0
 24 22  1  0  0  0  0
 25 19  1  0  0  0  0
 26 16  1  0  0  0  0
 27 26  1  0  0  0  0
 28 30  1  0  0  0  0
 29 27  1  0  0  0  0
 29 33  2  0  0  0  0
 30 29  1  0  0  0  0
 31 32  1  0  0  0  0
 32 33  1  0  0  0  0
 34 30  1  0  0  0  0
 34 31  1  0  0  0  0
M  END
>  <MODEL>
6

>  <REMARK>
 VINA RESULT:      -7.2      3.856      8.520
  Name = 
  4 active torsions:
  status: ('A' for Active; 'I' for Inactive)
    1  A    between atoms: N_3  and  C_13
    2  A    between atoms: N_3  and  C_17
    3  A    between atoms: C_12  and  C_28
    4  A    between atoms: C_17  and  C_29
                            x       y       z     vdW  Elec       q    Type
                         _______ _______ _______ _____ _____    ______ ____

>  <TORSDO>
F 4

$$$$
=
 OpenBabel10262423393D

 34 39  0  0  1  0  0  0  0  0999 V2000
  185.0500  177.6870  135.0540 C   0  0  0  0  0  0  0  0  0  0  0  0
  183.9140  176.9060  137.0600 C   0  0  0  0  0  0  0  0  0  0  0  0
  186.3210  177.6510  137.1370 C   0  0  0  0  0  0  0  0  0  0  0  0
  187.6340  178.2250  139.1390 N   0  0  0  0  0  0  0  0  0  0  0  0
  182.6730  177.2530  135.0030 C   0  0  0  0  0  3  0  0  0  0  0  0
  182.7180  176.8560  136.3360 C   0  0  0  0  0  3  0  0  0  0  0  0
  185.4330  178.3670  139.4560 C   0  0  0  0  0  3  0  0  0  0  0  0
  185.0910  177.4260  136.4530 C   0  0  0  0  0  0  0  0  0  0  0  0
  187.4670  178.7110  140.3760 C   0  0  0  0  0  3  0  0  0  0  0  0
  183.8430  177.6390  134.3550 C   0  0  0  0  0  3  0  0  0  0  0  0
  187.5110  177.8050  136.3830 C   0  0  0  0  0  0  0  0  0  0  0  0
  186.2200  177.9530  134.3460 C   0  0  0  0  0  3  0  0  0  0  0  0
  183.9170  175.9930  138.5650 Cl  0  0  0  0  0  0  0  0  0  0  0  0
  188.8390  178.2100  138.4270 N   0  0  0  0  0  2  0  0  0  0  0  0
  188.8770  177.7550  137.0380 C   0  0  1  0  0  3  0  0  0  0  0  0
  186.1060  178.7830  140.5940 C   0  0  0  0  0  0  0  0  0  0  0  0
  186.4370  177.9840  138.5800 C   0  0  0  0  0  0  0  0  0  0  0  0
  187.4470  177.9690  135.0000 C   0  0  0  0  0  3  0  0  0  0  0  0
  189.1870  173.9620  136.9550 C   0  0  0  0  0  0  0  0  0  0  0  0
  190.5670  173.8100  136.7930 C   0  0  0  0  0  3  0  0  0  0  0  0
  189.4530  176.3750  136.9630 C   0  0  0  0  0  0  0  0  0  0  0  0
  191.3900  174.9380  136.7140 C   0  0  0  0  0  3  0  0  0  0  0  0
  188.6300  175.2400  137.0390 C   0  0  0  0  0  3  0  0  0  0  0  0
  190.8340  176.2170  136.7980 C   0  0  0  0  0  3  0  0  0  0  0  0
  188.3890  172.8690  137.0300 F   0  0  0  0  0  0  0  0  0  0  0  0
  185.4610  179.2480  141.8510 C   0  0  0  0  0  2  0  0  0  0  0  0
  185.3580  178.1360  142.7850 N   0  0  0  0  0  2  0  0  0  0  0  0
  187.8600  176.8230  143.3850 C   0  0  0  0  0  1  0  0  0  0  0  0
  185.8750  178.1770  144.1210 C   0  0  0  0  0  0  0  0  0  0  0  0
  187.1200  177.5160  144.4260 N   0  0  0  0  0  0  0  0  0  0  0  0
  186.5900  177.6460  146.8170 C   0  0  0  0  0  2  0  0  0  0  0  0
  185.7070  178.8490  146.5030 C   0  0  0  0  0  2  0  0  0  0  0  0
  185.1780  178.7700  145.1010 C   0  0  0  0  0  3  0  0  0  0  0  0
  187.6950  177.5620  145.7700 C   0  0  0  0  0  2  0  0  0  0  0  0
  1  8  1  0  0  0  0
  2 13  1  0  0  0  0
  3 17  1  0  0  0  0
  4  9  1  0  0  0  0
  5  6  1  0  0  0  0
  6  2  2  0  0  0  0
  7 16  1  0  0  0  0
  8  2  1  0  0  0  0
  8  3  2  0  0  0  0
  9 16  2  0  0  0  0
 10  5  2  0  0  0  0
 10  1  1  0  0  0  0
 11 15  1  0  0  0  0
 11  3  1  0  0  0  0
 12 18  1  0  0  0  0
 12  1  2  0  0  0  0
 14  4  1  0  0  0  0
 15 21  1  1  0  0  0
 15 14  1  0  0  0  0
 16 26  1  0  0  0  0
 17  4  1  0  0  0  0
 17  7  2  0  0  0  0
 18 11  2  0  0  0  0
 19 25  1  0  0  0  0
 19 23  1  0  0  0  0
 20 19  2  0  0  0  0
 21 23  2  0  0  0  0
 22 20  1  0  0  0  0
 22 24  2  0  0  0  0
 24 21  1  0  0  0  0
 26 27  1  0  0  0  0
 27 29  1  0  0  0  0
 28 30  1  0  0  0  0
 29 30  1  0  0  0  0
 29 33  2  0  0  0  0
 30 34  1  0  0  0  0
 32 31  1  0  0  0  0
 33 32  1  0  0  0  0
 34 31  1  0  0  0  0
M  END
>  <MODEL>
7

>  <REMARK>
 VINA RESULT:      -7.2      2.937      8.082
  Name = 
  4 active torsions:
  status: ('A' for Active; 'I' for Inactive)
    1  A    between atoms: N_3  and  C_13
    2  A    between atoms: N_3  and  C_17
    3  A    between atoms: C_12  and  C_28
    4  A    between atoms: C_17  and  C_29
                            x       y       z     vdW  Elec       q    Type
                         _______ _______ _______ _____ _____    ______ ____

>  <TORSDO>
F 4

$$$$
=
 OpenBabel10262423393D

 34 39  0  0  1  0  0  0  0  0999 V2000
  185.2530  179.0210  142.0270 C   0  0  0  0  0  0  0  0  0  0  0  0
  186.9220  177.5660  143.0370 C   0  0  0  0  0  0  0  0  0  0  0  0
  186.9060  177.9960  140.5530 C   0  0  0  0  0  0  0  0  0  0  0  0
  188.7270  177.5520  138.9580 N   0  0  0  0  0  0  0  0  0  0  0  0
  185.4130  178.8580  144.4330 C   0  0  0  0  0  3  0  0  0  0  0  0
  186.4440  177.9310  144.3000 C   0  0  0  0  0  3  0  0  0  0  0  0
  189.4260  177.7370  141.0660 C   0  0  0  0  0  3  0  0  0  0  0  0
  186.3970  178.1900  141.8710 C   0  0  0  0  0  0  0  0  0  0  0  0
  190.0650  177.4810  138.9140 C   0  0  0  0  0  3  0  0  0  0  0  0
  184.7990  179.3790  143.2980 C   0  0  0  0  0  3  0  0  0  0  0  0
  186.0990  178.3500  139.4440 C   0  0  0  0  0  0  0  0  0  0  0  0
  184.5350  179.4590  140.9160 C   0  0  0  0  0  3  0  0  0  0  0  0
  187.9040  176.1050  143.0020 Cl  0  0  0  0  0  0  0  0  0  0  0  0
  187.8870  177.7350  137.8540 N   0  0  0  0  0  2  0  0  0  0  0  0
  186.4470  177.9090  138.0360 C   0  0  1  0  0  3  0  0  0  0  0  0
  190.5100  177.5720  140.2180 C   0  0  0  0  0  0  0  0  0  0  0  0
  188.3200  177.6750  140.2320 C   0  0  0  0  0  0  0  0  0  0  0  0
  184.9320  179.0890  139.6350 C   0  0  0  0  0  3  0  0  0  0  0  0
  185.7340  174.3210  136.9830 C   0  0  0  0  0  0  0  0  0  0  0  0
  184.3370  174.2970  137.0460 C   0  0  0  0  0  3  0  0  0  0  0  0
  185.7240  176.6470  137.6800 C   0  0  0  0  0  0  0  0  0  0  0  0
  183.6350  175.4440  137.4260 C   0  0  0  0  0  3  0  0  0  0  0  0
  186.4270  175.4920  137.3000 C   0  0  0  0  0  3  0  0  0  0  0  0
  184.3270  176.6160  137.7440 C   0  0  0  0  0  3  0  0  0  0  0  0
  186.4150  173.2090  136.6160 F   0  0  0  0  0  0  0  0  0  0  0  0
  191.9330  177.5150  140.6450 C   0  0  0  0  0  2  0  0  0  0  0  0
  192.0680  178.1090  141.9680 N   0  0  0  0  0  2  0  0  0  0  0  0
  190.9810  179.5830  144.2000 C   0  0  0  0  0  1  0  0  0  0  0  0
  191.7450  177.4180  143.1800 C   0  0  0  0  0  0  0  0  0  0  0  0
  191.2090  178.1520  144.3000 N   0  0  0  0  0  0  0  0  0  0  0  0
  191.7290  176.2620  145.7740 C   0  0  0  0  0  2  0  0  0  0  0  0
  191.6460  175.3530  144.5530 C   0  0  0  0  0  2  0  0  0  0  0  0
  191.9970  176.1060  143.3030 C   0  0  0  0  0  3  0  0  0  0  0  0
  190.8380  177.4780  145.5440 C   0  0  0  0  0  2  0  0  0  0  0  0
  1 10  2  0  0  0  0
  2  6  1  0  0  0  0
  3  8  1  0  0  0  0
  4 17  1  0  0  0  0
  6  5  2  0  0  0  0
  8  1  1  0  0  0  0
  8  2  2  0  0  0  0
  9  4  1  0  0  0  0
  9 16  2  0  0  0  0
 10  5  1  0  0  0  0
 11 18  1  0  0  0  0
 11  3  2  0  0  0  0
 12  1  1  0  0  0  0
 13  2  1  0  0  0  0
 14 15  1  0  0  0  0
 14  4  1  0  0  0  0
 15 21  1  1  0  0  0
 15 11  1  0  0  0  0
 16 26  1  0  0  0  0
 16  7  1  0  0  0  0
 17  3  1  0  0  0  0
 17  7  2  0  0  0  0
 18 12  2  0  0  0  0
 19 20  2  0  0  0  0
 19 23  1  0  0  0  0
 20 22  1  0  0  0  0
 21 24  1  0  0  0  0
 22 24  2  0  0  0  0
 23 21  2  0  0  0  0
 25 19  1  0  0  0  0
 26 27  1  0  0  0  0
 27 29  1  0  0  0  0
 28 30  1  0  0  0  0
 29 33  2  0  0  0  0
 29 30  1  0  0  0  0
 30 34  1  0  0  0  0
 32 31  1  0  0  0  0
 33 32  1  0  0  0  0
 34 31  1  0  0  0  0
M  END
>  <MODEL>
8

>  <REMARK>
 VINA RESULT:      -7.2      2.723      4.423
  Name = 
  4 active torsions:
  status: ('A' for Active; 'I' for Inactive)
    1  A    between atoms: N_3  and  C_13
    2  A    between atoms: N_3  and  C_17
    3  A    between atoms: C_12  and  C_28
    4  A    between atoms: C_17  and  C_29
                            x       y       z     vdW  Elec       q    Type
                         _______ _______ _______ _____ _____    ______ ____

>  <TORSDO>
F 4

$$$$
=
 OpenBabel10262423393D

 34 39  0  0  1  0  0  0  0  0999 V2000
  181.9560  178.4040  136.4900 C   0  0  0  0  0  0  0  0  0  0  0  0
  182.9370  178.5550  138.7130 C   0  0  0  0  0  0  0  0  0  0  0  0
  184.0510  177.2160  136.8900 C   0  0  0  0  0  0  0  0  0  0  0  0
  186.3730  176.4010  136.8560 N   0  0  0  0  0  0  0  0  0  0  0  0
  181.0180  179.9190  138.1210 C   0  0  0  0  0  3  0  0  0  0  0  0
  181.9600  179.4960  139.0550 C   0  0  0  0  0  3  0  0  0  0  0  0
  186.0620  178.1210  138.2370 C   0  0  0  0  0  3  0  0  0  0  0  0
  183.0150  178.0650  137.3790 C   0  0  0  0  0  0  0  0  0  0  0  0
  187.5840  176.7200  137.3310 C   0  0  0  0  0  3  0  0  0  0  0  0
  180.9980  179.3520  136.8510 C   0  0  0  0  0  3  0  0  0  0  0  0
  183.8400  176.4930  135.6900 C   0  0  0  0  0  0  0  0  0  0  0  0
  181.8310  177.7640  135.2580 C   0  0  0  0  0  3  0  0  0  0  0  0
  183.7690  177.8110  140.0750 Cl  0  0  0  0  0  0  0  0  0  0  0  0
  186.1240  175.5530  135.7710 N   0  0  0  0  0  2  0  0  0  0  0  0
  184.7620  175.3660  135.2700 C   0  0  1  0  0  3  0  0  0  0  0  0
  187.4030  177.7720  138.2070 C   0  0  0  0  0  0  0  0  0  0  0  0
  185.4450  177.2020  137.4030 C   0  0  0  0  0  0  0  0  0  0  0  0
  182.7420  176.7840  134.8810 C   0  0  0  0  0  3  0  0  0  0  0  0
  182.8350  172.0840  135.3620 C   0  0  0  0  0  0  0  0  0  0  0  0
  183.2590  171.5590  136.5860 C   0  0  0  0  0  3  0  0  0  0  0  0
  184.2240  174.0420  135.7200 C   0  0  0  0  0  0  0  0  0  0  0  0
  184.1650  172.2730  137.3760 C   0  0  0  0  0  3  0  0  0  0  0  0
  183.3150  173.3220  134.9280 C   0  0  0  0  0  3  0  0  0  0  0  0
  184.6470  173.5110  136.9440 C   0  0  0  0  0  3  0  0  0  0  0  0
  181.9580  171.3920  134.5950 F   0  0  0  0  0  0  0  0  0  0  0  0
  188.4810  178.4350  138.9870 C   0  0  0  0  0  2  0  0  0  0  0  0
  188.0500  178.6040  140.3670 N   0  0  0  0  0  2  0  0  0  0  0  0
  186.2860  178.2160  142.6210 C   0  0  0  0  0  1  0  0  0  0  0  0
  188.4440  177.7270  141.4300 C   0  0  0  0  0  0  0  0  0  0  0  0
  187.5690  177.5370  142.5600 N   0  0  0  0  0  0  0  0  0  0  0  0
  189.4350  176.5750  143.8280 C   0  0  0  0  0  2  0  0  0  0  0  0
  190.0740  176.1920  142.4980 C   0  0  0  0  0  2  0  0  0  0  0  0
  189.6460  177.1340  141.4100 C   0  0  0  0  0  3  0  0  0  0  0  0
  187.9220  176.6260  143.6500 C   0  0  0  0  0  2  0  0  0  0  0  0
  1 10  2  0  0  0  0
  1  8  1  0  0  0  0
  2  6  1  0  0  0  0
  2 13  1  0  0  0  0
  3  8  1  0  0  0  0
  3 17  1  0  0  0  0
  4  9  1  0  0  0  0
  4 17  1  0  0  0  0
  5  6  2  0  0  0  0
  8  2  2  0  0  0  0
  9 16  2  0  0  0  0
 10  5  1  0  0  0  0
 11  3  2  0  0  0  0
 12  1  1  0  0  0  0
 14  4  1  0  0  0  0
 15 11  1  0  0  0  0
 15 21  1  1  0  0  0
 15 14  1  0  0  0  0
 16  7  1  0  0  0  0
 16 26  1  0  0  0  0
 17  7  2  0  0  0  0
 18 12  2  0  0  0  0
 18 11  1  0  0  0  0
 19 20  1  0  0  0  0
 20 22  2  0  0  0  0
 21 24  2  0  0  0  0
 23 19  2  0  0  0  0
 23 21  1  0  0  0  0
 24 22  1  0  0  0  0
 25 19  1  0  0  0  0
 26 27  1  0  0  0  0
 27 29  1  0  0  0  0
 29 30  1  0  0  0  0
 30 28  1  0  0  0  0
 30 34  1  0  0  0  0
 32 31  1  0  0  0  0
 33 29  2  0  0  0  0
 33 32  1  0  0  0  0
 34 31  1  0  0  0  0
M  END
>  <MODEL>
9

>  <REMARK>
 VINA RESULT:      -7.2      3.566      6.647
  Name = 
  4 active torsions:
  status: ('A' for Active; 'I' for Inactive)
    1  A    between atoms: N_3  and  C_13
    2  A    between atoms: N_3  and  C_17
    3  A    between atoms: C_12  and  C_28
    4  A    between atoms: C_17  and  C_29
                            x       y       z     vdW  Elec       q    Type
                         _______ _______ _______ _____ _____    ______ ____

>  <TORSDO>
F 4

$$$$
