=
 OpenBabel10272402083D

 32 35  0  0  1  0  0  0  0  0999 V2000
  190.3600  176.5380  146.4130 O   0  0  0  0  0  0  0  0  0  0  0  0
  188.0330  177.2510  147.6860 O   0  0  0  0  0  0  0  0  0  0  0  0
  189.1280  177.0130  141.8660 C   0  0  1  0  0  3  0  0  0  0  0  0
  191.4440  176.6410  145.5050 C   0  0  0  0  0  2  0  0  0  0  0  0
  189.0040  178.3450  141.4620 O   0  0  0  0  0  1  0  0  0  0  0  0
  188.1060  177.4460  146.4440 C   0  0  0  0  0  0  0  0  0  0  0  0
  190.5980  176.5130  141.7270 C   0  0  2  0  0  3  0  0  0  0  0  0
  190.8120  176.5970  144.1440 C   0  0  2  0  0  3  0  0  0  0  0  0
  191.5370  176.9560  142.8640 C   0  0  0  0  0  2  0  0  0  0  0  0
  188.5630  176.8400  143.3010 C   0  0  0  0  0  2  0  0  0  0  0  0
  189.7590  178.8780  144.2320 C   0  0  0  0  0  1  0  0  0  0  0  0
  189.2750  177.0160  145.7260 N   0  0  0  0  0  0  0  0  0  0  0  0
  189.5590  177.3610  144.3440 C   0  0  2  0  0  0  0  0  0  0  0  0
  191.1600  176.7400  137.9230 C   0  0  0  0  0  1  0  0  0  0  0  0
  191.1910  176.7520  140.3680 C   0  0  0  0  0  3  0  0  0  0  0  0
  190.5250  176.4840  139.2440 C   0  0  0  0  0  3  0  0  0  0  0  0
  186.9550  178.0970  145.7440 C   0  0  0  0  0  2  0  0  0  0  0  0
  185.7420  178.1880  146.6600 C   0  0  0  0  0  2  0  0  0  0  0  0
  184.5260  178.7020  145.9080 C   0  0  0  0  0  2  0  0  0  0  0  0
  184.9290  179.5470  144.8700 O   0  0  0  0  0  0  0  0  0  0  0  0
  182.6970  178.8110  144.5030 C   0  0  0  0  0  1  0  0  0  0  0  0
  183.9510  179.3940  143.8830 C   0  0  2  0  0  3  0  0  0  0  0  0
  184.4500  178.4570  142.7960 C   0  0  0  0  0  2  0  0  0  0  0  0
  183.4290  178.8880  140.1570 C   0  0  2  0  0  3  0  0  0  0  0  0
  185.3670  179.1990  141.8280 C   0  0  2  0  0  3  0  0  0  0  0  0
  184.8990  179.3870  140.3560 C   0  0  1  0  0  0  0  0  0  0  0  0
  183.1090  177.4120  140.4420 C   0  0  0  0  0  1  0  0  0  0  0  0
  185.8890  178.2790  140.7810 C   0  0  0  0  0  2  0  0  0  0  0  0
  184.3270  179.0560  138.9520 C   0  0  1  0  0  3  0  0  0  0  0  0
  184.8310  177.7730  138.2690 C   0  0  0  0  0  2  0  0  0  0  0  0
  185.9570  178.1130  137.3170 C   0  0  0  0  0  2  0  0  0  0  0  0
  186.9300  176.9540  137.2510 C   0  0  0  0  0  1  0  0  0  0  0  0
  3  5  1  1  0  0  0
  3 10  1  0  0  0  0
  4  1  1  0  0  0  0
  6  2  2  0  0  0  0
  7 15  1  6  0  0  0
  7  3  1  0  0  0  0
  7  9  1  0  0  0  0
  8  9  1  6  0  0  0
  8 13  1  0  0  0  0
  8  4  1  0  0  0  0
 10 13  1  0  0  0  0
 12  1  1  0  0  0  0
 12  6  1  0  0  0  0
 13 11  1  6  0  0  0
 13 12  1  0  0  0  0
 14 16  1  0  0  0  0
 16 15  2  0  0  0  0
 17  6  1  0  0  0  0
 17 18  1  0  0  0  0
 19 18  1  0  0  0  0
 20 19  1  0  0  0  0
 22 21  1  1  0  0  0
 22 20  1  0  0  0  0
 23 22  1  0  0  0  0
 24 26  1  0  0  0  0
 24 27  1  1  0  0  0
 25 23  1  1  0  0  0
 26 28  1  6  0  0  0
 26 25  1  0  0  0  0
 28 25  1  0  0  0  0
 29 30  1  1  0  0  0
 29 24  1  0  0  0  0
 29 26  1  0  0  0  0
 31 30  1  0  0  0  0
 32 31  1  0  0  0  0
M  END
>  <MODEL>
1

>  <REMARK>
 VINA RESULT:      -7.7      0.000      0.000
  Name = 
  10 active torsions:
  status: ('A' for Active; 'I' for Inactive)
    1  A    between atoms: C_6  and  C_17
    2  A    between atoms: C_9  and  O_31
    3  A    between atoms: C_9  and  C_32
    4  A    between atoms: C_10  and  C_28
    5  A    between atoms: C_12  and  C_17
    6  A    between atoms: C_12  and  O_31
    7  A    between atoms: C_14  and  C_21
    8  A    between atoms: C_14  and  C_29
    9  A    between atoms: C_15  and  C_19
   10  A    between atoms: C_28  and  C_32
                            x       y       z     vdW  Elec       q    Type
                         _______ _______ _______ _____ _____    ______ ____

>  <TORSDO>
F 10

$$$$
=
 OpenBabel10272402083D

 32 35  0  0  1  0  0  0  0  0999 V2000
  182.4280  178.7310  142.7390 O   0  0  0  0  0  0  0  0  0  0  0  0
  183.1460  178.8090  140.0880 O   0  0  0  0  0  0  0  0  0  0  0  0
  186.5800  177.7850  144.8080 C   0  0  1  0  0  3  0  0  0  0  0  0
  182.4890  179.0250  144.1230 C   0  0  0  0  0  2  0  0  0  0  0  0
  187.4610  178.8700  144.8060 O   0  0  0  0  0  1  0  0  0  0  0  0
  184.0680  178.7570  140.9440 C   0  0  0  0  0  0  0  0  0  0  0  0
  185.6320  177.8280  146.0450 C   0  0  2  0  0  3  0  0  0  0  0  0
  183.8120  178.4780  144.5770 C   0  0  2  0  0  3  0  0  0  0  0  0
  184.4460  178.8010  145.9130 C   0  0  0  0  0  2  0  0  0  0  0  0
  185.8130  177.7210  143.4610 C   0  0  0  0  0  2  0  0  0  0  0  0
  185.2490  180.1970  143.4360 C   0  0  0  0  0  1  0  0  0  0  0  0
  183.7350  178.6360  142.3370 N   0  0  0  0  0  0  0  0  0  0  0  0
  184.6940  178.7670  143.4210 C   0  0  2  0  0  0  0  0  0  0  0  0
  188.3220  177.8950  148.8020 C   0  0  0  0  0  1  0  0  0  0  0  0
  186.3530  177.9770  147.3540 C   0  0  0  0  0  3  0  0  0  0  0  0
  187.6570  177.7310  147.4800 C   0  0  0  0  0  3  0  0  0  0  0  0
  185.4900  178.7940  140.4810 C   0  0  0  0  0  2  0  0  0  0  0  0
  185.6010  178.3480  139.0300 C   0  0  0  0  0  2  0  0  0  0  0  0
  187.0330  177.9840  138.6760 C   0  0  0  0  0  2  0  0  0  0  0  0
  187.9120  178.5490  139.6060 O   0  0  0  0  0  0  0  0  0  0  0  0
  188.9610  176.8610  138.3000 C   0  0  0  0  0  1  0  0  0  0  0  0
  189.1090  177.8490  139.4390 C   0  0  2  0  0  3  0  0  0  0  0  0
  189.4500  177.0910  140.7120 C   0  0  0  0  0  2  0  0  0  0  0  0
  190.4510  175.6980  143.0030 C   0  0  2  0  0  3  0  0  0  0  0  0
  190.7100  177.6640  141.3550 C   0  0  2  0  0  3  0  0  0  0  0  0
  191.2510  176.9970  142.6530 C   0  0  1  0  0  0  0  0  0  0  0  0
  188.9430  175.8130  143.2690 C   0  0  0  0  0  1  0  0  0  0  0  0
  190.3990  178.2870  142.6710 C   0  0  0  0  0  2  0  0  0  0  0  0
  191.2750  176.3770  144.0760 C   0  0  1  0  0  3  0  0  0  0  0  0
  190.5080  177.1190  145.1820 C   0  0  0  0  0  2  0  0  0  0  0  0
  191.1800  176.8750  146.5170 C   0  0  0  0  0  2  0  0  0  0  0  0
  192.0720  175.6560  146.4190 C   0  0  0  0  0  1  0  0  0  0  0  0
  1  4  1  0  0  0  0
  2  6  2  0  0  0  0
  3  5  1  6  0  0  0
  3  7  1  0  0  0  0
  6 12  1  0  0  0  0
  7 15  1  1  0  0  0
  8  4  1  6  0  0  0
  8  9  1  0  0  0  0
  9  7  1  0  0  0  0
 10  3  1  0  0  0  0
 12  1  1  0  0  0  0
 12 13  1  0  0  0  0
 13 11  1  1  0  0  0
 13 10  1  0  0  0  0
 13  8  1  0  0  0  0
 15 16  2  0  0  0  0
 16 14  1  0  0  0  0
 17  6  1  0  0  0  0
 18 17  1  0  0  0  0
 19 18  1  0  0  0  0
 19 20  1  0  0  0  0
 22 21  1  6  0  0  0
 22 20  1  0  0  0  0
 22 23  1  0  0  0  0
 24 27  1  1  0  0  0
 24 29  1  0  0  0  0
 25 23  1  1  0  0  0
 25 26  1  0  0  0  0
 25 28  1  0  0  0  0
 26 28  1  1  0  0  0
 26 24  1  0  0  0  0
 26 29  1  0  0  0  0
 29 30  1  1  0  0  0
 30 31  1  0  0  0  0
 32 31  1  0  0  0  0
M  END
>  <MODEL>
2

>  <REMARK>
 VINA RESULT:      -7.5      2.088      7.554
  Name = 
  10 active torsions:
  status: ('A' for Active; 'I' for Inactive)
    1  A    between atoms: C_6  and  C_17
    2  A    between atoms: C_9  and  O_31
    3  A    between atoms: C_9  and  C_32
    4  A    between atoms: C_10  and  C_28
    5  A    between atoms: C_12  and  C_17
    6  A    between atoms: C_12  and  O_31
    7  A    between atoms: C_14  and  C_21
    8  A    between atoms: C_14  and  C_29
    9  A    between atoms: C_15  and  C_19
   10  A    between atoms: C_28  and  C_32
                            x       y       z     vdW  Elec       q    Type
                         _______ _______ _______ _____ _____    ______ ____

>  <TORSDO>
F 10

$$$$
=
 OpenBabel10272402083D

 32 35  0  0  1  0  0  0  0  0999 V2000
  192.2010  178.2830  142.8270 O   0  0  0  0  0  0  0  0  0  0  0  0
  192.5510  177.5750  140.1960 O   0  0  0  0  0  0  0  0  0  0  0  0
  187.5480  177.6030  143.3720 C   0  0  1  0  0  3  0  0  0  0  0  0
  191.7650  178.1650  144.1700 C   0  0  0  0  0  2  0  0  0  0  0  0
  187.1850  176.2530  143.4110 O   0  0  0  0  0  1  0  0  0  0  0  0
  191.4350  177.3330  140.7260 C   0  0  0  0  0  0  0  0  0  0  0  0
  187.9400  178.1250  144.7870 C   0  0  2  0  0  3  0  0  0  0  0  0
  190.2660  178.1430  144.0890 C   0  0  2  0  0  3  0  0  0  0  0  0
  189.3640  177.7470  145.2390 C   0  0  0  0  0  2  0  0  0  0  0  0
  188.6620  177.8220  142.3150 C   0  0  0  0  0  2  0  0  0  0  0  0
  190.0590  175.8460  143.0860 C   0  0  0  0  0  1  0  0  0  0  0  0
  191.1830  177.7560  142.0760 N   0  0  0  0  0  0  0  0  0  0  0  0
  190.0210  177.3620  142.8540 C   0  0  2  0  0  0  0  0  0  0  0  0
  184.7870  178.2180  146.9970 C   0  0  0  0  0  1  0  0  0  0  0  0
  186.9100  177.8450  145.8430 C   0  0  0  0  0  3  0  0  0  0  0  0
  185.7740  178.5380  145.9300 C   0  0  0  0  0  3  0  0  0  0  0  0
  190.3880  176.6310  139.9190 C   0  0  0  0  0  2  0  0  0  0  0  0
  190.0910  177.3910  138.6340 C   0  0  0  0  0  2  0  0  0  0  0  0
  189.0940  178.5110  138.8770 C   0  0  0  0  0  2  0  0  0  0  0  0
  188.5440  178.9320  137.6620 O   0  0  0  0  0  0  0  0  0  0  0  0
  186.9850  178.2640  135.9950 C   0  0  0  0  0  1  0  0  0  0  0  0
  187.5490  177.9940  137.3750 C   0  0  2  0  0  3  0  0  0  0  0  0
  186.4290  178.0930  138.3980 C   0  0  0  0  0  2  0  0  0  0  0  0
  184.2190  179.4720  139.5850 C   0  0  2  0  0  3  0  0  0  0  0  0
  185.0720  177.9020  137.7260 C   0  0  2  0  0  3  0  0  0  0  0  0
  183.8200  178.5590  138.3770 C   0  0  1  0  0  0  0  0  0  0  0  0
  184.9440  178.8350  140.7800 C   0  0  0  0  0  1  0  0  0  0  0  0
  184.1740  177.0670  138.5710 C   0  0  0  0  0  2  0  0  0  0  0  0
  182.7910  178.9890  139.4570 C   0  0  1  0  0  3  0  0  0  0  0  0
  182.3240  177.9150  140.4530 C   0  0  0  0  0  2  0  0  0  0  0  0
  181.1940  178.4640  141.2990 C   0  0  0  0  0  2  0  0  0  0  0  0
  181.7420  178.9410  142.6270 C   0  0  0  0  0  1  0  0  0  0  0  0
  1  4  1  0  0  0  0
  2  6  2  0  0  0  0
  3  5  1  1  0  0  0
  3  7  1  0  0  0  0
  6 12  1  0  0  0  0
  7  9  1  0  0  0  0
  7 15  1  1  0  0  0
  8  4  1  1  0  0  0
  8  9  1  0  0  0  0
 10 13  1  0  0  0  0
 10  3  1  0  0  0  0
 12  1  1  0  0  0  0
 12 13  1  0  0  0  0
 13 11  1  1  0  0  0
 13  8  1  0  0  0  0
 15 16  2  0  0  0  0
 16 14  1  0  0  0  0
 17  6  1  0  0  0  0
 18 19  1  0  0  0  0
 18 17  1  0  0  0  0
 20 19  1  0  0  0  0
 22 21  1  6  0  0  0
 22 20  1  0  0  0  0
 22 23  1  0  0  0  0
 24 27  1  1  0  0  0
 25 26  1  0  0  0  0
 25 23  1  1  0  0  0
 25 28  1  0  0  0  0
 26 28  1  1  0  0  0
 26 29  1  0  0  0  0
 26 24  1  0  0  0  0
 29 24  1  0  0  0  0
 29 30  1  1  0  0  0
 30 31  1  0  0  0  0
 31 32  1  0  0  0  0
M  END
>  <MODEL>
3

>  <REMARK>
 VINA RESULT:      -7.5      2.040      5.765
  Name = 
  10 active torsions:
  status: ('A' for Active; 'I' for Inactive)
    1  A    between atoms: C_6  and  C_17
    2  A    between atoms: C_9  and  O_31
    3  A    between atoms: C_9  and  C_32
    4  A    between atoms: C_10  and  C_28
    5  A    between atoms: C_12  and  C_17
    6  A    between atoms: C_12  and  O_31
    7  A    between atoms: C_14  and  C_21
    8  A    between atoms: C_14  and  C_29
    9  A    between atoms: C_15  and  C_19
   10  A    between atoms: C_28  and  C_32
                            x       y       z     vdW  Elec       q    Type
                         _______ _______ _______ _____ _____    ______ ____

>  <TORSDO>
F 10

$$$$
=
 OpenBabel10272402083D

 32 35  0  0  1  0  0  0  0  0999 V2000
  182.7170  178.8820  143.1100 O   0  0  0  0  0  0  0  0  0  0  0  0
  182.8660  179.0450  140.3710 O   0  0  0  0  0  0  0  0  0  0  0  0
  187.0690  177.3680  144.1980 C   0  0  1  0  0  3  0  0  0  0  0  0
  183.1020  179.0820  144.4590 C   0  0  0  0  0  2  0  0  0  0  0  0
  188.0520  178.3500  144.0450 O   0  0  0  0  0  1  0  0  0  0  0  0
  183.9340  178.8410  141.0060 C   0  0  0  0  0  0  0  0  0  0  0  0
  186.4150  177.4360  145.6110 C   0  0  2  0  0  3  0  0  0  0  0  0
  184.4160  178.3690  144.5950 C   0  0  2  0  0  3  0  0  0  0  0  0
  185.3510  178.5390  145.7740 C   0  0  0  0  0  2  0  0  0  0  0  0
  186.0350  177.4700  143.0460 C   0  0  0  0  0  2  0  0  0  0  0  0
  185.7750  179.9900  143.2350 C   0  0  0  0  0  1  0  0  0  0  0  0
  183.8900  178.6720  142.4330 N   0  0  0  0  0  0  0  0  0  0  0  0
  185.0640  178.6310  143.2880 C   0  0  2  0  0  0  0  0  0  0  0  0
  188.3160  178.1950  148.8740 C   0  0  0  0  0  1  0  0  0  0  0  0
  187.4070  177.4260  146.7380 C   0  0  0  0  0  3  0  0  0  0  0  0
  187.3040  178.2480  147.7830 C   0  0  0  0  0  3  0  0  0  0  0  0
  185.2210  178.7530  140.2480 C   0  0  0  0  0  2  0  0  0  0  0  0
  184.9650  178.6350  138.7520 C   0  0  0  0  0  2  0  0  0  0  0  0
  186.1240  177.9490  138.0500 C   0  0  0  0  0  2  0  0  0  0  0  0
  186.8040  178.8670  137.2440 O   0  0  0  0  0  0  0  0  0  0  0  0
  187.8730  176.7870  136.8100 C   0  0  0  0  0  1  0  0  0  0  0  0
  188.0490  178.2790  137.0030 C   0  0  2  0  0  3  0  0  0  0  0  0
  188.9760  178.5220  138.1820 C   0  0  0  0  0  2  0  0  0  0  0  0
  188.8390  177.3280  140.7800 C   0  0  2  0  0  3  0  0  0  0  0  0
  189.8720  177.3090  138.4180 C   0  0  2  0  0  3  0  0  0  0  0  0
  189.9020  176.6710  139.8370 C   0  0  1  0  0  0  0  0  0  0  0  0
  188.9440  178.8330  141.0690 C   0  0  0  0  0  1  0  0  0  0  0  0
  190.9910  177.6460  139.3390 C   0  0  0  0  0  2  0  0  0  0  0  0
  189.9870  176.5490  141.3820 C   0  0  1  0  0  3  0  0  0  0  0  0
  191.0850  177.3570  142.0940 C   0  0  0  0  0  2  0  0  0  0  0  0
  191.2070  176.8920  143.5300 C   0  0  0  0  0  2  0  0  0  0  0  0
  191.5480  178.0720  144.4160 C   0  0  0  0  0  1  0  0  0  0  0  0
  1  4  1  0  0  0  0
  2  6  2  0  0  0  0
  3  5  1  6  0  0  0
  3  7  1  0  0  0  0
  6 12  1  0  0  0  0
  7  9  1  0  0  0  0
  7 15  1  1  0  0  0
  8  4  1  1  0  0  0
  8  9  1  0  0  0  0
 10 13  1  0  0  0  0
 10  3  1  0  0  0  0
 12  1  1  0  0  0  0
 12 13  1  0  0  0  0
 13 11  1  1  0  0  0
 13  8  1  0  0  0  0
 15 16  2  0  0  0  0
 16 14  1  0  0  0  0
 17  6  1  0  0  0  0
 18 17  1  0  0  0  0
 19 18  1  0  0  0  0
 20 19  1  0  0  0  0
 22 21  1  1  0  0  0
 22 20  1  0  0  0  0
 22 23  1  0  0  0  0
 24 27  1  1  0  0  0
 24 29  1  0  0  0  0
 25 23  1  1  0  0  0
 25 28  1  0  0  0  0
 25 26  1  0  0  0  0
 26 28  1  1  0  0  0
 26 24  1  0  0  0  0
 26 29  1  0  0  0  0
 29 30  1  1  0  0  0
 30 31  1  0  0  0  0
 31 32  1  0  0  0  0
M  END
>  <MODEL>
4

>  <REMARK>
 VINA RESULT:      -7.4      2.225      7.108
  Name = 
  10 active torsions:
  status: ('A' for Active; 'I' for Inactive)
    1  A    between atoms: C_6  and  C_17
    2  A    between atoms: C_9  and  O_31
    3  A    between atoms: C_9  and  C_32
    4  A    between atoms: C_10  and  C_28
    5  A    between atoms: C_12  and  C_17
    6  A    between atoms: C_12  and  O_31
    7  A    between atoms: C_14  and  C_21
    8  A    between atoms: C_14  and  C_29
    9  A    between atoms: C_15  and  C_19
   10  A    between atoms: C_28  and  C_32
                            x       y       z     vdW  Elec       q    Type
                         _______ _______ _______ _____ _____    ______ ____

>  <TORSDO>
F 10

$$$$
=
 OpenBabel10272402083D

 32 35  0  0  1  0  0  0  0  0999 V2000
  191.5070  177.7490  139.9640 O   0  0  0  0  0  0  0  0  0  0  0  0
  189.3950  178.3810  138.3250 O   0  0  0  0  0  0  0  0  0  0  0  0
  189.4990  178.0410  144.2410 C   0  0  1  0  0  3  0  0  0  0  0  0
  192.2100  177.0900  141.0030 C   0  0  0  0  0  2  0  0  0  0  0  0
  188.6260  176.9840  144.5170 O   0  0  0  0  0  1  0  0  0  0  0  0
  189.1530  178.1870  139.5460 C   0  0  0  0  0  0  0  0  0  0  0  0
  190.9650  177.6780  144.6240 C   0  0  2  0  0  3  0  0  0  0  0  0
  191.4890  177.4750  142.2620 C   0  0  2  0  0  3  0  0  0  0  0  0
  191.6970  176.7940  143.5970 C   0  0  0  0  0  2  0  0  0  0  0  0
  189.3500  178.4780  142.7600 C   0  0  0  0  0  2  0  0  0  0  0  0
  189.4190  176.1090  141.8460 C   0  0  0  0  0  1  0  0  0  0  0  0
  190.2390  177.9300  140.4510 N   0  0  0  0  0  0  0  0  0  0  0  0
  190.0710  177.4980  141.8280 C   0  0  2  0  0  0  0  0  0  0  0  0
  192.0860  175.7370  147.7560 C   0  0  0  0  0  1  0  0  0  0  0  0
  191.1160  177.1700  146.0290 C   0  0  0  0  0  3  0  0  0  0  0  0
  191.9770  176.2030  146.3470 C   0  0  0  0  0  3  0  0  0  0  0  0
  187.7370  178.2570  140.0240 C   0  0  0  0  0  2  0  0  0  0  0  0
  186.7750  177.7690  138.9500 C   0  0  0  0  0  2  0  0  0  0  0  0
  185.4710  178.5480  138.9880 C   0  0  0  0  0  2  0  0  0  0  0  0
  184.3930  177.6830  138.7830 O   0  0  0  0  0  0  0  0  0  0  0  0
  183.3230  179.6980  139.4530 C   0  0  0  0  0  1  0  0  0  0  0  0
  183.3680  178.1890  139.5860 C   0  0  2  0  0  3  0  0  0  0  0  0
  183.6190  177.8270  141.0400 C   0  0  0  0  0  2  0  0  0  0  0  0
  185.3070  179.2070  142.8950 C   0  0  2  0  0  3  0  0  0  0  0  0
  182.9320  178.8250  141.9680 C   0  0  2  0  0  3  0  0  0  0  0  0
  183.7860  179.5420  143.0530 C   0  0  1  0  0  0  0  0  0  0  0  0
  185.7520  177.7400  143.0090 C   0  0  0  0  0  1  0  0  0  0  0  0
  182.8990  178.3160  143.3660 C   0  0  0  0  0  2  0  0  0  0  0  0
  184.7980  179.7540  144.2110 C   0  0  1  0  0  3  0  0  0  0  0  0
  184.7300  178.7760  145.3960 C   0  0  0  0  0  2  0  0  0  0  0  0
  185.8820  179.0430  146.3420 C   0  0  0  0  0  2  0  0  0  0  0  0
  186.3560  177.7370  146.9420 C   0  0  0  0  0  1  0  0  0  0  0  0
  1 12  1  0  0  0  0
  1  4  1  0  0  0  0
  2  6  2  0  0  0  0
  3  5  1  6  0  0  0
  3  7  1  0  0  0  0
  6 17  1  0  0  0  0
  6 12  1  0  0  0  0
  7 15  1  1  0  0  0
  8  4  1  6  0  0  0
  8  9  1  0  0  0  0
  9  7  1  0  0  0  0
 10  3  1  0  0  0  0
 12 13  1  0  0  0  0
 13 11  1  1  0  0  0
 13  8  1  0  0  0  0
 13 10  1  0  0  0  0
 15 16  2  0  0  0  0
 16 14  1  0  0  0  0
 18 19  1  0  0  0  0
 18 17  1  0  0  0  0
 20 19  1  0  0  0  0
 20 22  1  0  0  0  0
 22 21  1  1  0  0  0
 22 23  1  0  0  0  0
 24 27  1  1  0  0  0
 24 26  1  0  0  0  0
 24 29  1  0  0  0  0
 25 23  1  6  0  0  0
 25 26  1  0  0  0  0
 25 28  1  0  0  0  0
 26 28  1  1  0  0  0
 26 29  1  0  0  0  0
 29 30  1  1  0  0  0
 30 31  1  0  0  0  0
 31 32  1  0  0  0  0
M  END
>  <MODEL>
5

>  <REMARK>
 VINA RESULT:      -7.2      2.013      5.653
  Name = 
  10 active torsions:
  status: ('A' for Active; 'I' for Inactive)
    1  A    between atoms: C_6  and  C_17
    2  A    between atoms: C_9  and  O_31
    3  A    between atoms: C_9  and  C_32
    4  A    between atoms: C_10  and  C_28
    5  A    between atoms: C_12  and  C_17
    6  A    between atoms: C_12  and  O_31
    7  A    between atoms: C_14  and  C_21
    8  A    between atoms: C_14  and  C_29
    9  A    between atoms: C_15  and  C_19
   10  A    between atoms: C_28  and  C_32
                            x       y       z     vdW  Elec       q    Type
                         _______ _______ _______ _____ _____    ______ ____

>  <TORSDO>
F 10

$$$$
=
 OpenBabel10272402083D

 32 35  0  0  1  0  0  0  0  0999 V2000
  192.2450  178.0530  142.8670 O   0  0  0  0  0  0  0  0  0  0  0  0
  192.4800  177.5810  140.1710 O   0  0  0  0  0  0  0  0  0  0  0  0
  187.5650  177.6900  143.4810 C   0  0  1  0  0  3  0  0  0  0  0  0
  191.8300  177.8400  144.2050 C   0  0  0  0  0  2  0  0  0  0  0  0
  187.0950  176.3760  143.4020 O   0  0  0  0  0  1  0  0  0  0  0  0
  191.3590  177.3760  140.7080 C   0  0  0  0  0  0  0  0  0  0  0  0
  188.0290  178.0390  144.9270 C   0  0  2  0  0  3  0  0  0  0  0  0
  190.3330  177.9420  144.1660 C   0  0  2  0  0  3  0  0  0  0  0  0
  189.4270  177.5080  145.2990 C   0  0  0  0  0  2  0  0  0  0  0  0
  188.6700  177.9240  142.4170 C   0  0  0  0  0  2  0  0  0  0  0  0
  189.9190  175.7790  142.9550 C   0  0  0  0  0  1  0  0  0  0  0  0
  191.1720  177.6840  142.0990 N   0  0  0  0  0  0  0  0  0  0  0  0
  189.9990  177.3080  142.8690 C   0  0  2  0  0  0  0  0  0  0  0  0
  184.8540  178.0430  147.1080 C   0  0  0  0  0  1  0  0  0  0  0  0
  187.0030  177.7380  145.9820 C   0  0  0  0  0  3  0  0  0  0  0  0
  185.8360  178.3810  146.0420 C   0  0  0  0  0  3  0  0  0  0  0  0
  190.2410  176.8420  139.8680 C   0  0  0  0  0  2  0  0  0  0  0  0
  189.8340  177.8460  138.8000 C   0  0  0  0  0  2  0  0  0  0  0  0
  188.8900  177.2180  137.7890 C   0  0  0  0  0  2  0  0  0  0  0  0
  189.4670  177.2450  136.5160 O   0  0  0  0  0  0  0  0  0  0  0  0
  188.3740  175.1790  136.9540 C   0  0  0  0  0  1  0  0  0  0  0  0
  189.2090  175.9830  135.9770 C   0  0  2  0  0  3  0  0  0  0  0  0
  190.5140  175.2490  135.7190 C   0  0  0  0  0  2  0  0  0  0  0  0
  192.8230  176.0230  137.2240 C   0  0  2  0  0  3  0  0  0  0  0  0
  190.8750  174.3630  136.9080 C   0  0  2  0  0  3  0  0  0  0  0  0
  192.1680  174.6870  137.7110 C   0  0  1  0  0  0  0  0  0  0  0  0
  193.2820  176.1260  135.7620 C   0  0  0  0  0  1  0  0  0  0  0  0
  192.1120  173.5820  136.6320 C   0  0  0  0  0  2  0  0  0  0  0  0
  193.6500  175.0340  138.0160 C   0  0  1  0  0  3  0  0  0  0  0  0
  194.7300  174.2530  137.2490 C   0  0  0  0  0  2  0  0  0  0  0  0
  195.5210  173.3980  138.2160 C   0  0  0  0  0  2  0  0  0  0  0  0
  196.2420  174.2880  139.2060 C   0  0  0  0  0  1  0  0  0  0  0  0
  1  4  1  0  0  0  0
  2  6  2  0  0  0  0
  3  5  1  1  0  0  0
  3  7  1  0  0  0  0
  6 12  1  0  0  0  0
  7  9  1  0  0  0  0
  7 15  1  1  0  0  0
  8  4  1  1  0  0  0
  8  9  1  0  0  0  0
 10 13  1  0  0  0  0
 10  3  1  0  0  0  0
 12  1  1  0  0  0  0
 12 13  1  0  0  0  0
 13 11  1  1  0  0  0
 13  8  1  0  0  0  0
 15 16  2  0  0  0  0
 16 14  1  0  0  0  0
 17  6  1  0  0  0  0
 18 17  1  0  0  0  0
 19 18  1  0  0  0  0
 20 19  1  0  0  0  0
 22 20  1  0  0  0  0
 22 21  1  1  0  0  0
 23 22  1  0  0  0  0
 24 27  1  6  0  0  0
 24 26  1  0  0  0  0
 24 29  1  0  0  0  0
 25 23  1  6  0  0  0
 25 26  1  0  0  0  0
 26 28  1  6  0  0  0
 26 29  1  0  0  0  0
 28 25  1  0  0  0  0
 29 30  1  6  0  0  0
 30 31  1  0  0  0  0
 31 32  1  0  0  0  0
M  END
>  <MODEL>
6

>  <REMARK>
 VINA RESULT:      -7.1      3.037      7.862
  Name = 
  10 active torsions:
  status: ('A' for Active; 'I' for Inactive)
    1  A    between atoms: C_6  and  C_17
    2  A    between atoms: C_9  and  O_31
    3  A    between atoms: C_9  and  C_32
    4  A    between atoms: C_10  and  C_28
    5  A    between atoms: C_12  and  C_17
    6  A    between atoms: C_12  and  O_31
    7  A    between atoms: C_14  and  C_21
    8  A    between atoms: C_14  and  C_29
    9  A    between atoms: C_15  and  C_19
   10  A    between atoms: C_28  and  C_32
                            x       y       z     vdW  Elec       q    Type
                         _______ _______ _______ _____ _____    ______ ____

>  <TORSDO>
F 10

$$$$
=
 OpenBabel10272402083D

 32 35  0  0  1  0  0  0  0  0999 V2000
  188.7940  178.3100  141.4430 O   0  0  0  0  0  0  0  0  0  0  0  0
  186.1510  178.8110  140.8840 O   0  0  0  0  0  0  0  0  0  0  0  0
  188.6700  177.7440  146.1410 C   0  0  1  0  0  3  0  0  0  0  0  0
  189.9140  177.6410  141.9960 C   0  0  0  0  0  2  0  0  0  0  0  0
  188.0830  176.5400  146.5400 O   0  0  0  0  0  1  0  0  0  0  0  0
  186.4430  178.4290  142.0480 C   0  0  0  0  0  0  0  0  0  0  0  0
  190.1920  177.5670  145.8590 C   0  0  2  0  0  3  0  0  0  0  0  0
  189.7310  177.7470  143.4820 C   0  0  2  0  0  3  0  0  0  0  0  0
  190.5240  176.9430  144.4910 C   0  0  0  0  0  2  0  0  0  0  0  0
  187.8960  178.3380  144.9350 C   0  0  0  0  0  2  0  0  0  0  0  0
  187.8040  176.1430  143.6590 C   0  0  0  0  0  1  0  0  0  0  0  0
  187.8210  178.2300  142.4040 N   0  0  0  0  0  0  0  0  0  0  0  0
  188.2640  177.6060  143.6390 C   0  0  2  0  0  0  0  0  0  0  0  0
  192.6980  175.4920  147.9220 C   0  0  0  0  0  1  0  0  0  0  0  0
  190.9440  176.9140  146.9840 C   0  0  0  0  0  3  0  0  0  0  0  0
  191.9880  176.1130  146.7700 C   0  0  0  0  0  3  0  0  0  0  0  0
  185.3410  178.2190  143.0380 C   0  0  0  0  0  2  0  0  0  0  0  0
  184.8250  179.5480  143.5690 C   0  0  0  0  0  2  0  0  0  0  0  0
  183.3850  179.4300  144.0380 C   0  0  0  0  0  2  0  0  0  0  0  0
  182.6910  178.5290  143.2240 O   0  0  0  0  0  0  0  0  0  0  0  0
  180.3720  178.4510  143.7470 C   0  0  0  0  0  1  0  0  0  0  0  0
  181.4670  179.1490  142.9640 C   0  0  2  0  0  3  0  0  0  0  0  0
  181.1460  179.0680  141.4810 C   0  0  0  0  0  2  0  0  0  0  0  0
  183.0030  179.3290  139.3190 C   0  0  2  0  0  3  0  0  0  0  0  0
  181.6810  177.7680  140.8880 C   0  0  2  0  0  3  0  0  0  0  0  0
  182.6290  177.8470  139.6560 C   0  0  1  0  0  0  0  0  0  0  0  0
  181.8750  180.3090  138.9590 C   0  0  0  0  0  1  0  0  0  0  0  0
  181.1210  177.5330  139.5290 C   0  0  0  0  0  2  0  0  0  0  0  0
  183.1870  178.2580  138.2670 C   0  0  1  0  0  3  0  0  0  0  0  0
  182.2050  178.2620  137.0840 C   0  0  0  0  0  2  0  0  0  0  0  0
  182.6680  177.2730  136.0350 C   0  0  0  0  0  2  0  0  0  0  0  0
  182.7940  175.8990  136.6580 C   0  0  0  0  0  1  0  0  0  0  0  0
  1  4  1  0  0  0  0
  1 12  1  0  0  0  0
  2  6  2  0  0  0  0
  3  5  1  6  0  0  0
  6 12  1  0  0  0  0
  6 17  1  0  0  0  0
  7  3  1  0  0  0  0
  7 15  1  1  0  0  0
  8  4  1  6  0  0  0
  8 13  1  0  0  0  0
  8  9  1  0  0  0  0
  9  7  1  0  0  0  0
 10  3  1  0  0  0  0
 12 13  1  0  0  0  0
 13 11  1  1  0  0  0
 13 10  1  0  0  0  0
 16 15  2  0  0  0  0
 16 14  1  0  0  0  0
 17 18  1  0  0  0  0
 18 19  1  0  0  0  0
 20 19  1  0  0  0  0
 22 20  1  0  0  0  0
 22 21  1  1  0  0  0
 23 22  1  0  0  0  0
 24 27  1  6  0  0  0
 24 26  1  0  0  0  0
 25 23  1  6  0  0  0
 26 28  1  6  0  0  0
 26 25  1  0  0  0  0
 28 25  1  0  0  0  0
 29 30  1  6  0  0  0
 29 24  1  0  0  0  0
 29 26  1  0  0  0  0
 31 32  1  0  0  0  0
 31 30  1  0  0  0  0
M  END
>  <MODEL>
7

>  <REMARK>
 VINA RESULT:      -7.0      2.048      4.342
  Name = 
  10 active torsions:
  status: ('A' for Active; 'I' for Inactive)
    1  A    between atoms: C_6  and  C_17
    2  A    between atoms: C_9  and  O_31
    3  A    between atoms: C_9  and  C_32
    4  A    between atoms: C_10  and  C_28
    5  A    between atoms: C_12  and  C_17
    6  A    between atoms: C_12  and  O_31
    7  A    between atoms: C_14  and  C_21
    8  A    between atoms: C_14  and  C_29
    9  A    between atoms: C_15  and  C_19
   10  A    between atoms: C_28  and  C_32
                            x       y       z     vdW  Elec       q    Type
                         _______ _______ _______ _____ _____    ______ ____

>  <TORSDO>
F 10

$$$$
=
 OpenBabel10272402083D

 32 35  0  0  1  0  0  0  0  0999 V2000
  185.9650  178.6170  139.0010 O   0  0  0  0  0  0  0  0  0  0  0  0
  185.9880  179.7390  141.5080 O   0  0  0  0  0  0  0  0  0  0  0  0
  181.9040  176.1850  139.0970 C   0  0  1  0  0  3  0  0  0  0  0  0
  185.4520  178.2550  137.7300 C   0  0  0  0  0  2  0  0  0  0  0  0
  180.7690  176.9980  139.0320 O   0  0  0  0  0  1  0  0  0  0  0  0
  184.9330  179.1630  141.1330 C   0  0  0  0  0  0  0  0  0  0  0  0
  182.4300  175.8320  137.6730 C   0  0  2  0  0  3  0  0  0  0  0  0
  184.2880  177.3550  138.0260 C   0  0  2  0  0  3  0  0  0  0  0  0
  183.2550  176.9450  136.9980 C   0  0  0  0  0  2  0  0  0  0  0  0
  182.9830  176.8500  139.9930 C   0  0  0  0  0  2  0  0  0  0  0  0
  182.7530  179.1380  138.9140 C   0  0  0  0  0  1  0  0  0  0  0  0
  184.9040  178.4960  139.8600 N   0  0  0  0  0  0  0  0  0  0  0  0
  183.6990  177.9740  139.2370 C   0  0  2  0  0  0  0  0  0  0  0  0
  180.5260  173.6890  135.0990 C   0  0  0  0  0  1  0  0  0  0  0  0
  181.3780  175.2670  136.7620 C   0  0  0  0  0  3  0  0  0  0  0  0
  181.6060  174.2090  135.9830 C   0  0  0  0  0  3  0  0  0  0  0  0
  183.7430  179.1660  142.0410 C   0  0  0  0  0  2  0  0  0  0  0  0
  184.0200  178.3620  143.3030 C   0  0  0  0  0  2  0  0  0  0  0  0
  184.1770  179.2730  144.5090 C   0  0  0  0  0  2  0  0  0  0  0  0
  185.5290  179.4000  144.8390 O   0  0  0  0  0  0  0  0  0  0  0  0
  185.6640  178.5820  147.0680 C   0  0  0  0  0  1  0  0  0  0  0  0
  185.8230  178.2620  145.5950 C   0  0  2  0  0  3  0  0  0  0  0  0
  187.2520  177.8180  145.3350 C   0  0  0  0  0  2  0  0  0  0  0  0
  189.8550  176.9100  144.5630 C   0  0  2  0  0  3  0  0  0  0  0  0
  187.3170  176.9140  144.1070 C   0  0  2  0  0  3  0  0  0  0  0  0
  188.7130  176.4590  143.5910 C   0  0  1  0  0  0  0  0  0  0  0  0
  190.0480  178.4120  144.8220 C   0  0  0  0  0  1  0  0  0  0  0  0
  187.9290  177.6280  142.9530 C   0  0  0  0  0  2  0  0  0  0  0  0
  190.1970  176.5270  143.1400 C   0  0  1  0  0  3  0  0  0  0  0  0
  190.5920  177.6640  142.1840 C   0  0  0  0  0  2  0  0  0  0  0  0
  190.9500  177.0890  140.8300 C   0  0  0  0  0  2  0  0  0  0  0  0
  189.7920  177.2850  139.8750 C   0  0  0  0  0  1  0  0  0  0  0  0
  1 12  1  0  0  0  0
  3  5  1  6  0  0  0
  3 10  1  0  0  0  0
  4  8  1  0  0  0  0
  4  1  1  0  0  0  0
  6  2  2  0  0  0  0
  6 17  1  0  0  0  0
  7 15  1  6  0  0  0
  7  3  1  0  0  0  0
  8  9  1  6  0  0  0
  8 13  1  0  0  0  0
  9  7  1  0  0  0  0
 12  6  1  0  0  0  0
 13 11  1  6  0  0  0
 13 12  1  0  0  0  0
 13 10  1  0  0  0  0
 14 16  1  0  0  0  0
 16 15  2  0  0  0  0
 17 18  1  0  0  0  0
 18 19  1  0  0  0  0
 19 20  1  0  0  0  0
 20 22  1  0  0  0  0
 22 21  1  1  0  0  0
 23 22  1  0  0  0  0
 24 27  1  6  0  0  0
 25 23  1  1  0  0  0
 26 28  1  6  0  0  0
 26 25  1  0  0  0  0
 26 24  1  0  0  0  0
 28 25  1  0  0  0  0
 29 30  1  6  0  0  0
 29 26  1  0  0  0  0
 29 24  1  0  0  0  0
 31 30  1  0  0  0  0
 32 31  1  0  0  0  0
M  END
>  <MODEL>
8

>  <REMARK>
 VINA RESULT:      -7.0      2.924      7.234
  Name = 
  10 active torsions:
  status: ('A' for Active; 'I' for Inactive)
    1  A    between atoms: C_6  and  C_17
    2  A    between atoms: C_9  and  O_31
    3  A    between atoms: C_9  and  C_32
    4  A    between atoms: C_10  and  C_28
    5  A    between atoms: C_12  and  C_17
    6  A    between atoms: C_12  and  O_31
    7  A    between atoms: C_14  and  C_21
    8  A    between atoms: C_14  and  C_29
    9  A    between atoms: C_15  and  C_19
   10  A    between atoms: C_28  and  C_32
                            x       y       z     vdW  Elec       q    Type
                         _______ _______ _______ _____ _____    ______ ____

>  <TORSDO>
F 10

$$$$
=
 OpenBabel10272402083D

 32 35  0  0  1  0  0  0  0  0999 V2000
  188.9440  173.9260  137.1270 O   0  0  0  0  0  0  0  0  0  0  0  0
  191.4220  174.6540  138.0650 O   0  0  0  0  0  0  0  0  0  0  0  0
  186.4400  177.8630  137.9320 C   0  0  1  0  0  3  0  0  0  0  0  0
  187.7370  174.0300  136.3920 C   0  0  0  0  0  2  0  0  0  0  0  0
  186.7560  178.9090  137.0590 O   0  0  0  0  0  1  0  0  0  0  0  0
  190.5450  175.5530  137.9620 C   0  0  0  0  0  0  0  0  0  0  0  0
  185.3460  176.9320  137.3280 C   0  0  2  0  0  3  0  0  0  0  0  0
  187.0510  175.2450  136.9460 C   0  0  2  0  0  3  0  0  0  0  0  0
  185.8660  175.9200  136.2890 C   0  0  0  0  0  2  0  0  0  0  0  0
  187.7300  177.1000  138.3330 C   0  0  0  0  0  2  0  0  0  0  0  0
  188.6170  176.9460  135.9580 C   0  0  0  0  0  1  0  0  0  0  0  0
  189.2140  175.2010  137.5500 N   0  0  0  0  0  0  0  0  0  0  0  0
  188.1830  176.1660  137.2050 C   0  0  2  0  0  0  0  0  0  0  0  0
  181.7660  177.8290  136.2260 C   0  0  0  0  0  1  0  0  0  0  0  0
  184.1240  177.6630  136.8530 C   0  0  0  0  0  3  0  0  0  0  0  0
  182.9470  177.0560  136.6990 C   0  0  0  0  0  3  0  0  0  0  0  0
  190.9110  176.9630  138.3020 C   0  0  0  0  0  2  0  0  0  0  0  0
  191.4520  177.0580  139.7210 C   0  0  0  0  0  2  0  0  0  0  0  0
  190.3220  177.1370  140.7340 C   0  0  0  0  0  2  0  0  0  0  0  0
  190.4870  176.1490  141.7100 O   0  0  0  0  0  0  0  0  0  0  0  0
  191.5730  175.7730  143.7920 C   0  0  0  0  0  1  0  0  0  0  0  0
  191.1090  176.7990  142.7780 C   0  0  2  0  0  3  0  0  0  0  0  0
  190.1330  177.7520  143.4470 C   0  0  0  0  0  2  0  0  0  0  0  0
  187.4290  177.0510  144.0710 C   0  0  2  0  0  3  0  0  0  0  0  0
  189.8610  177.3180  144.8850 C   0  0  2  0  0  3  0  0  0  0  0  0
  188.3940  177.0060  145.3030 C   0  0  1  0  0  0  0  0  0  0  0  0
  187.3000  178.3650  143.2860 C   0  0  0  0  0  1  0  0  0  0  0  0
  189.0810  178.3550  145.6140 C   0  0  0  0  0  2  0  0  0  0  0  0
  186.8590  177.1600  145.4680 C   0  0  1  0  0  3  0  0  0  0  0  0
  186.3300  178.5370  145.9020 C   0  0  0  0  0  2  0  0  0  0  0  0
  184.8720  178.4220  146.2920 C   0  0  0  0  0  2  0  0  0  0  0  0
  184.0020  178.7830  145.1070 C   0  0  0  0  0  1  0  0  0  0  0  0
  1 12  1  0  0  0  0
  3  5  1  6  0  0  0
  3 10  1  0  0  0  0
  4  8  1  0  0  0  0
  4  1  1  0  0  0  0
  6  2  2  0  0  0  0
  6 17  1  0  0  0  0
  7 15  1  6  0  0  0
  7  3  1  0  0  0  0
  8  9  1  6  0  0  0
  8 13  1  0  0  0  0
  9  7  1  0  0  0  0
 12  6  1  0  0  0  0
 13 11  1  6  0  0  0
 13 12  1  0  0  0  0
 13 10  1  0  0  0  0
 14 16  1  0  0  0  0
 16 15  2  0  0  0  0
 17 18  1  0  0  0  0
 18 19  1  0  0  0  0
 19 20  1  0  0  0  0
 20 22  1  0  0  0  0
 22 23  1  0  0  0  0
 22 21  1  1  0  0  0
 24 27  1  6  0  0  0
 24 26  1  0  0  0  0
 24 29  1  0  0  0  0
 25 23  1  6  0  0  0
 25 26  1  0  0  0  0
 25 28  1  0  0  0  0
 26 29  1  0  0  0  0
 26 28  1  6  0  0  0
 29 30  1  6  0  0  0
 30 31  1  0  0  0  0
 32 31  1  0  0  0  0
M  END
>  <MODEL>
9

>  <REMARK>
 VINA RESULT:      -7.0      2.991      7.833
  Name = 
  10 active torsions:
  status: ('A' for Active; 'I' for Inactive)
    1  A    between atoms: C_6  and  C_17
    2  A    between atoms: C_9  and  O_31
    3  A    between atoms: C_9  and  C_32
    4  A    between atoms: C_10  and  C_28
    5  A    between atoms: C_12  and  C_17
    6  A    between atoms: C_12  and  O_31
    7  A    between atoms: C_14  and  C_21
    8  A    between atoms: C_14  and  C_29
    9  A    between atoms: C_15  and  C_19
   10  A    between atoms: C_28  and  C_32
                            x       y       z     vdW  Elec       q    Type
                         _______ _______ _______ _____ _____    ______ ____

>  <TORSDO>
F 10

$$$$
