=
 OpenBabel10272402133D

 32 37  0  0  1  0  0  0  0  0999 V2000
  185.0870  177.9010  143.2220 C   0  0  2  0  0  3  0  0  0  0  0  0
  186.8610  177.3850  144.8910 C   0  0  2  0  0  3  0  0  0  0  0  0
  183.7600  178.6290  143.0290 C   0  0  0  0  0  2  0  0  0  0  0  0
  185.8160  178.4010  144.4670 C   0  0  2  0  0  3  0  0  0  0  0  0
  187.6990  178.0380  145.9570 C   0  0  0  0  0  0  0  0  0  0  0  0
  191.2370  175.3770  143.3460 C   0  0  0  0  0  2  0  0  0  0  0  0
  187.6090  176.7290  143.7000 C   0  0  1  0  0  3  0  0  0  0  0  0
  191.2010  177.1860  145.0700 C   0  0  0  0  0  2  0  0  0  0  0  0
  189.7750  177.5540  144.6720 C   0  0  2  0  0  3  0  0  0  0  0  0
  184.9410  178.7090  145.6530 C   0  0  0  0  0  0  0  0  0  0  0  0
  189.0370  178.0820  145.8650 C   0  0  0  0  0  3  0  0  0  0  0  0
  185.6050  179.1170  146.9460 C   0  0  0  0  0  2  0  0  0  0  0  0
  183.6080  178.7980  145.5330 C   0  0  0  0  0  3  0  0  0  0  0  0
  187.5170  177.5770  142.4170 C   0  0  0  0  0  2  0  0  0  0  0  0
  186.0600  177.8900  142.0090 C   0  0  2  0  0  3  0  0  0  0  0  0
  189.0420  176.3420  144.0820 C   0  0  2  0  0  3  0  0  0  0  0  0
  187.0050  178.6640  147.0610 N   0  0  0  0  0  0  0  0  0  0  0  0
  182.8880  178.4140  144.2650 C   0  0  0  0  0  2  0  0  0  0  0  0
  191.9510  176.6180  143.8690 C   0  0  0  0  0  2  0  0  0  0  0  0
  189.8160  175.7310  142.9130 C   0  0  0  0  0  2  0  0  0  0  0  0
  187.7040  178.9940  148.2970 C   0  0  0  0  0  2  0  0  0  0  0  0
  188.2030  177.7280  148.9710 C   0  0  0  0  0  1  0  0  0  0  0  0
  186.0900  179.1500  141.1250 C   0  0  2  0  0  3  0  0  0  0  0  0
  185.6080  180.2890  141.7760 O   0  0  0  0  0  1  0  0  0  0  0  0
  185.4780  178.9910  139.7230 C   0  0  2  0  0  3  0  0  0  0  0  0
  184.2350  178.1170  139.6880 C   0  0  0  0  0  1  0  0  0  0  0  0
  186.4810  178.6140  138.6200 C   0  0  2  0  0  3  0  0  0  0  0  0
  185.8230  177.9160  137.4420 C   0  0  0  0  0  1  0  0  0  0  0  0
  187.6190  177.7570  139.1530 C   0  0  0  0  0  2  0  0  0  0  0  0
  190.0360  177.6640  139.6350 C   0  0  0  0  0  2  0  0  0  0  0  0
  188.9590  178.4130  138.8780 C   0  0  0  0  0  3  0  0  0  0  0  0
  189.8460  177.4240  138.1520 C   0  0  0  0  0  2  0  0  0  0  0  0
  1  3  1  6  0  0  0
  1  4  1  0  0  0  0
  2  5  1  1  0  0  0
  3 18  1  0  0  0  0
  4  2  1  0  0  0  0
  4 10  1  1  0  0  0
  5 17  1  0  0  0  0
  6 19  1  0  0  0  0
  7 14  1  6  0  0  0
  7 16  1  0  0  0  0
  7  2  1  0  0  0  0
  9  8  1  1  0  0  0
  9 11  1  0  0  0  0
 10 12  1  0  0  0  0
 11  5  2  0  0  0  0
 12 17  1  0  0  0  0
 13 10  2  0  0  0  0
 15 23  1  1  0  0  0
 15 14  1  0  0  0  0
 15  1  1  0  0  0  0
 16 20  1  6  0  0  0
 16  9  1  0  0  0  0
 17 21  1  0  0  0  0
 18 13  1  0  0  0  0
 19  8  1  0  0  0  0
 20  6  1  0  0  0  0
 21 22  1  0  0  0  0
 23 24  1  1  0  0  0
 25 26  1  1  0  0  0
 25 23  1  0  0  0  0
 27 28  1  6  0  0  0
 27 29  1  0  0  0  0
 27 25  1  0  0  0  0
 31 29  1  0  0  0  0
 31 30  1  0  0  0  0
 32 31  1  0  0  0  0
 32 30  1  0  0  0  0
M  END
>  <MODEL>
1

>  <REMARK>
 VINA RESULT:      -7.9      0.000      0.000
  Name = 
  6 active torsions:
  status: ('A' for Active; 'I' for Inactive)
    1  A    between atoms: C_3  and  C_15
    2  A    between atoms: C_3  and  C_22
    3  A    between atoms: C_13  and  N_29
    4  A    between atoms: C_15  and  C_19
    5  A    between atoms: C_16  and  C_22
    6  A    between atoms: C_16  and  C_27
                            x       y       z     vdW  Elec       q    Type
                         _______ _______ _______ _____ _____    ______ ____

>  <TORSDO>
F 6

$$$$
=
 OpenBabel10272402133D

 32 37  0  0  1  0  0  0  0  0999 V2000
  185.4850  178.9920  142.6010 C   0  0  2  0  0  3  0  0  0  0  0  0
  184.3230  178.7720  140.4100 C   0  0  2  0  0  3  0  0  0  0  0  0
  185.2670  178.9730  144.1110 C   0  0  0  0  0  2  0  0  0  0  0  0
  184.3150  178.3420  141.8650 C   0  0  2  0  0  3  0  0  0  0  0  0
  183.3110  177.9170  139.6950 C   0  0  0  0  0  0  0  0  0  0  0  0
  187.0450  178.2580  136.1800 C   0  0  0  0  0  2  0  0  0  0  0  0
  185.7450  178.8560  139.7940 C   0  0  1  0  0  3  0  0  0  0  0  0
  184.9900  176.8850  136.5490 C   0  0  0  0  0  2  0  0  0  0  0  0
  185.0300  177.2050  138.0400 C   0  0  2  0  0  3  0  0  0  0  0  0
  182.9510  178.6210  142.4380 C   0  0  0  0  0  0  0  0  0  0  0  0
  183.6350  177.2270  138.5910 C   0  0  0  0  0  3  0  0  0  0  0  0
  181.7430  178.0860  141.7050 C   0  0  0  0  0  2  0  0  0  0  0  0
  182.8020  179.1680  143.6530 C   0  0  0  0  0  3  0  0  0  0  0  0
  186.7720  178.0230  140.5850 C   0  0  0  0  0  2  0  0  0  0  0  0
  186.8280  178.4040  142.0820 C   0  0  2  0  0  3  0  0  0  0  0  0
  185.7260  178.5480  138.2930 C   0  0  2  0  0  3  0  0  0  0  0  0
  181.9890  177.8220  140.2740 N   0  0  0  0  0  0  0  0  0  0  0  0
  183.9700  179.7120  144.4370 C   0  0  0  0  0  2  0  0  0  0  0  0
  186.4030  176.8910  135.9730 C   0  0  0  0  0  2  0  0  0  0  0  0
  187.1220  178.5840  137.6690 C   0  0  0  0  0  2  0  0  0  0  0  0
  180.8600  177.3330  139.4920 C   0  0  0  0  0  2  0  0  0  0  0  0
  179.9820  176.4350  140.3450 C   0  0  0  0  0  1  0  0  0  0  0  0
  187.4040  177.1980  142.8430 C   0  0  2  0  0  3  0  0  0  0  0  0
  186.6770  176.8750  143.9930 O   0  0  0  0  0  1  0  0  0  0  0  0
  188.9150  177.2480  143.1190 C   0  0  2  0  0  3  0  0  0  0  0  0
  189.5870  175.8850  143.1340 C   0  0  0  0  0  1  0  0  0  0  0  0
  189.3220  178.1050  144.3300 C   0  0  2  0  0  3  0  0  0  0  0  0
  190.6320  178.8450  144.1130 C   0  0  0  0  0  1  0  0  0  0  0  0
  189.4030  177.2840  145.6080 C   0  0  0  0  0  2  0  0  0  0  0  0
  188.3130  176.8380  147.7750 C   0  0  0  0  0  2  0  0  0  0  0  0
  188.4970  177.8650  146.6770 C   0  0  0  0  0  3  0  0  0  0  0  0
  189.2810  177.9860  147.9660 C   0  0  0  0  0  2  0  0  0  0  0  0
  1  3  1  1  0  0  0
  2  5  1  6  0  0  0
  2  4  1  0  0  0  0
  3 18  1  0  0  0  0
  4 10  1  1  0  0  0
  4  1  1  0  0  0  0
  5 17  1  0  0  0  0
  6 20  1  0  0  0  0
  7  2  1  0  0  0  0
  7 14  1  1  0  0  0
  9  8  1  6  0  0  0
  9 16  1  0  0  0  0
  9 11  1  0  0  0  0
 10 13  2  0  0  0  0
 11  5  2  0  0  0  0
 12 10  1  0  0  0  0
 13 18  1  0  0  0  0
 14 15  1  0  0  0  0
 15  1  1  0  0  0  0
 15 23  1  1  0  0  0
 16 20  1  1  0  0  0
 16  7  1  0  0  0  0
 17 12  1  0  0  0  0
 19  6  1  0  0  0  0
 19  8  1  0  0  0  0
 21 17  1  0  0  0  0
 21 22  1  0  0  0  0
 23 25  1  0  0  0  0
 23 24  1  1  0  0  0
 25 26  1  1  0  0  0
 25 27  1  0  0  0  0
 27 28  1  6  0  0  0
 27 29  1  0  0  0  0
 29 31  1  0  0  0  0
 30 32  1  0  0  0  0
 31 30  1  0  0  0  0
 31 32  1  0  0  0  0
M  END
>  <MODEL>
2

>  <REMARK>
 VINA RESULT:      -7.8      2.306      6.940
  Name = 
  6 active torsions:
  status: ('A' for Active; 'I' for Inactive)
    1  A    between atoms: C_3  and  C_15
    2  A    between atoms: C_3  and  C_22
    3  A    between atoms: C_13  and  N_29
    4  A    between atoms: C_15  and  C_19
    5  A    between atoms: C_16  and  C_22
    6  A    between atoms: C_16  and  C_27
                            x       y       z     vdW  Elec       q    Type
                         _______ _______ _______ _____ _____    ______ ____

>  <TORSDO>
F 6

$$$$
=
 OpenBabel10272402133D

 32 37  0  0  1  0  0  0  0  0999 V2000
  185.1890  177.8460  143.0030 C   0  0  2  0  0  3  0  0  0  0  0  0
  186.8590  177.3120  144.7710 C   0  0  2  0  0  3  0  0  0  0  0  0
  183.8880  178.5970  142.7330 C   0  0  0  0  0  2  0  0  0  0  0  0
  185.8580  178.3430  144.2820 C   0  0  2  0  0  3  0  0  0  0  0  0
  187.6500  177.9580  145.8760 C   0  0  0  0  0  0  0  0  0  0  0  0
  191.2730  175.2090  143.4830 C   0  0  0  0  0  2  0  0  0  0  0  0
  187.6580  176.6320  143.6280 C   0  0  1  0  0  3  0  0  0  0  0  0
  191.1780  177.0330  145.1880 C   0  0  0  0  0  2  0  0  0  0  0  0
  189.7840  177.4240  144.7100 C   0  0  2  0  0  3  0  0  0  0  0  0
  184.9260  178.6780  145.4170 C   0  0  0  0  0  0  0  0  0  0  0  0
  188.9910  177.9770  145.8560 C   0  0  0  0  0  3  0  0  0  0  0  0
  185.5270  179.0860  146.7410 C   0  0  0  0  0  2  0  0  0  0  0  0
  183.6040  178.7910  145.2230 C   0  0  0  0  0  3  0  0  0  0  0  0
  187.6520  177.4700  142.3350 C   0  0  0  0  0  2  0  0  0  0  0  0
  186.2260  177.8060  141.8450 C   0  0  2  0  0  3  0  0  0  0  0  0
  189.0610  176.2220  144.0910 C   0  0  2  0  0  3  0  0  0  0  0  0
  186.9100  178.6070  146.9350 N   0  0  0  0  0  0  0  0  0  0  0  0
  182.9470  178.4090  143.9210 C   0  0  0  0  0  2  0  0  0  0  0  0
  191.9820  176.4400  144.0340 C   0  0  0  0  0  2  0  0  0  0  0  0
  189.8850  175.5850  142.9700 C   0  0  0  0  0  2  0  0  0  0  0  0
  187.5460  178.9350  148.2060 C   0  0  0  0  0  2  0  0  0  0  0  0
  187.8720  177.6650  148.9710 C   0  0  0  0  0  1  0  0  0  0  0  0
  186.3280  179.0570  140.9550 C   0  0  2  0  0  3  0  0  0  0  0  0
  185.3380  180.0060  141.2250 O   0  0  0  0  0  1  0  0  0  0  0  0
  186.4650  178.7880  139.4470 C   0  0  2  0  0  3  0  0  0  0  0  0
  185.1740  178.3410  138.7800 C   0  0  0  0  0  1  0  0  0  0  0  0
  187.6550  177.8970  139.0560 C   0  0  2  0  0  3  0  0  0  0  0  0
  188.9820  178.6360  139.1000 C   0  0  0  0  0  1  0  0  0  0  0  0
  187.4670  177.2640  137.6850 C   0  0  0  0  0  2  0  0  0  0  0  0
  188.5870  177.1220  135.4920 C   0  0  0  0  0  2  0  0  0  0  0  0
  188.2060  178.0560  136.6220 C   0  0  0  0  0  3  0  0  0  0  0  0
  187.3900  178.0390  135.3480 C   0  0  0  0  0  2  0  0  0  0  0  0
  1  3  1  6  0  0  0
  1  4  1  0  0  0  0
  2  5  1  1  0  0  0
  3 18  1  0  0  0  0
  4  2  1  0  0  0  0
  4 10  1  1  0  0  0
  5 17  1  0  0  0  0
  6 19  1  0  0  0  0
  7 14  1  6  0  0  0
  7 16  1  0  0  0  0
  7  2  1  0  0  0  0
  9  8  1  1  0  0  0
  9 11  1  0  0  0  0
 10 12  1  0  0  0  0
 11  5  2  0  0  0  0
 12 17  1  0  0  0  0
 13 10  2  0  0  0  0
 15 23  1  1  0  0  0
 15 14  1  0  0  0  0
 15  1  1  0  0  0  0
 16 20  1  6  0  0  0
 16  9  1  0  0  0  0
 17 21  1  0  0  0  0
 18 13  1  0  0  0  0
 19  8  1  0  0  0  0
 20  6  1  0  0  0  0
 21 22  1  0  0  0  0
 23 24  1  6  0  0  0
 25 26  1  1  0  0  0
 25 23  1  0  0  0  0
 27 28  1  6  0  0  0
 27 25  1  0  0  0  0
 29 27  1  0  0  0  0
 30 31  1  0  0  0  0
 31 29  1  0  0  0  0
 32 30  1  0  0  0  0
 32 31  1  0  0  0  0
M  END
>  <MODEL>
3

>  <REMARK>
 VINA RESULT:      -7.8      0.924      1.390
  Name = 
  6 active torsions:
  status: ('A' for Active; 'I' for Inactive)
    1  A    between atoms: C_3  and  C_15
    2  A    between atoms: C_3  and  C_22
    3  A    between atoms: C_13  and  N_29
    4  A    between atoms: C_15  and  C_19
    5  A    between atoms: C_16  and  C_22
    6  A    between atoms: C_16  and  C_27
                            x       y       z     vdW  Elec       q    Type
                         _______ _______ _______ _____ _____    ______ ____

>  <TORSDO>
F 6

$$$$
=
 OpenBabel10272402133D

 32 37  0  0  1  0  0  0  0  0999 V2000
  187.9940  177.9130  138.8700 C   0  0  2  0  0  3  0  0  0  0  0  0
  189.1320  176.4240  137.2300 C   0  0  2  0  0  3  0  0  0  0  0  0
  186.6260  178.3380  139.3960 C   0  0  0  0  0  2  0  0  0  0  0  0
  187.9090  176.5900  138.1140 C   0  0  2  0  0  3  0  0  0  0  0  0
  189.1090  175.0120  136.7100 C   0  0  0  0  0  0  0  0  0  0  0  0
  194.1310  175.7280  137.5390 C   0  0  0  0  0  2  0  0  0  0  0  0
  190.4470  176.9180  137.8920 C   0  0  1  0  0  3  0  0  0  0  0  0
  192.6010  173.8080  137.0740 C   0  0  0  0  0  2  0  0  0  0  0  0
  191.4110  174.6190  137.5750 C   0  0  2  0  0  3  0  0  0  0  0  0
  186.6790  176.4030  137.2650 C   0  0  0  0  0  0  0  0  0  0  0  0
  190.1700  174.2020  136.8430 C   0  0  0  0  0  3  0  0  0  0  0  0
  186.5760  175.1580  136.4170 C   0  0  0  0  0  2  0  0  0  0  0  0
  185.6200  177.2170  137.3830 C   0  0  0  0  0  3  0  0  0  0  0  0
  190.3370  176.9860  139.4270 C   0  0  0  0  0  2  0  0  0  0  0  0
  189.1530  177.8560  139.9050 C   0  0  2  0  0  3  0  0  0  0  0  0
  191.6580  176.1220  137.3940 C   0  0  2  0  0  3  0  0  0  0  0  0
  187.8810  174.5430  136.1080 N   0  0  0  0  0  0  0  0  0  0  0  0
  185.6590  178.4700  138.2210 C   0  0  0  0  0  2  0  0  0  0  0  0
  193.8750  174.2470  137.7910 C   0  0  0  0  0  2  0  0  0  0  0  0
  192.9630  176.5610  138.0610 C   0  0  0  0  0  2  0  0  0  0  0  0
  187.8640  173.3520  135.2660 C   0  0  0  0  0  2  0  0  0  0  0  0
  187.0950  172.2370  135.9520 C   0  0  0  0  0  1  0  0  0  0  0  0
  188.7960  177.4030  141.3320 C   0  0  2  0  0  3  0  0  0  0  0  0
  187.7850  178.1730  141.9160 O   0  0  0  0  0  1  0  0  0  0  0  0
  189.9870  177.2090  142.2840 C   0  0  2  0  0  3  0  0  0  0  0  0
  190.2480  175.7590  142.6590 C   0  0  0  0  0  1  0  0  0  0  0  0
  189.9880  178.1320  143.5130 C   0  0  2  0  0  3  0  0  0  0  0  0
  191.3060  178.8660  143.6960 C   0  0  0  0  0  1  0  0  0  0  0  0
  189.6390  177.3820  144.7900 C   0  0  0  0  0  2  0  0  0  0  0  0
  187.3460  177.3750  145.6990 C   0  0  0  0  0  2  0  0  0  0  0  0
  188.6360  178.1650  145.6150 C   0  0  0  0  0  3  0  0  0  0  0  0
  188.3110  177.3750  146.8650 C   0  0  0  0  0  2  0  0  0  0  0  0
  1  3  1  1  0  0  0
  1 15  1  0  0  0  0
  2  5  1  1  0  0  0
  2  7  1  0  0  0  0
  2  4  1  0  0  0  0
  4 10  1  6  0  0  0
  4  1  1  0  0  0  0
  5 11  2  0  0  0  0
  6 19  1  0  0  0  0
  6 20  1  0  0  0  0
  7 14  1  1  0  0  0
  8  9  1  0  0  0  0
  8 19  1  0  0  0  0
  9 11  1  6  0  0  0
 10 13  2  0  0  0  0
 12 10  1  0  0  0  0
 13 18  1  0  0  0  0
 14 15  1  0  0  0  0
 15 23  1  1  0  0  0
 16  9  1  0  0  0  0
 16  7  1  0  0  0  0
 16 20  1  1  0  0  0
 17 12  1  0  0  0  0
 17  5  1  0  0  0  0
 18  3  1  0  0  0  0
 21 22  1  0  0  0  0
 21 17  1  0  0  0  0
 23 24  1  1  0  0  0
 23 25  1  0  0  0  0
 25 26  1  1  0  0  0
 25 27  1  0  0  0  0
 27 28  1  1  0  0  0
 27 29  1  0  0  0  0
 29 31  1  0  0  0  0
 30 32  1  0  0  0  0
 31 30  1  0  0  0  0
 31 32  1  0  0  0  0
M  END
>  <MODEL>
4

>  <REMARK>
 VINA RESULT:      -7.8      3.380      7.938
  Name = 
  6 active torsions:
  status: ('A' for Active; 'I' for Inactive)
    1  A    between atoms: C_3  and  C_15
    2  A    between atoms: C_3  and  C_22
    3  A    between atoms: C_13  and  N_29
    4  A    between atoms: C_15  and  C_19
    5  A    between atoms: C_16  and  C_22
    6  A    between atoms: C_16  and  C_27
                            x       y       z     vdW  Elec       q    Type
                         _______ _______ _______ _____ _____    ______ ____

>  <TORSDO>
F 6

$$$$
=
 OpenBabel10272402133D

 32 37  0  0  1  0  0  0  0  0999 V2000
  186.1270  178.6890  138.8400 C   0  0  2  0  0  3  0  0  0  0  0  0
  187.3520  178.5610  141.0040 C   0  0  2  0  0  3  0  0  0  0  0  0
  186.2370  178.3780  137.3500 C   0  0  0  0  0  2  0  0  0  0  0  0
  187.1680  177.9130  139.6440 C   0  0  2  0  0  3  0  0  0  0  0  0
  188.1920  177.6220  141.8270 C   0  0  0  0  0  0  0  0  0  0  0  0
  184.8660  179.3730  145.3320 C   0  0  0  0  0  2  0  0  0  0  0  0
  186.0270  179.0690  141.6340 C   0  0  1  0  0  3  0  0  0  0  0  0
  186.5350  177.5230  145.1470 C   0  0  0  0  0  2  0  0  0  0  0  0
  186.4700  177.6000  143.6250 C   0  0  2  0  0  3  0  0  0  0  0  0
  188.5200  177.7750  138.9950 C   0  0  0  0  0  0  0  0  0  0  0  0
  187.7960  177.2120  143.0410 C   0  0  0  0  0  3  0  0  0  0  0  0
  189.6230  177.1000  139.7760 C   0  0  0  0  0  2  0  0  0  0  0  0
  188.7070  178.0710  137.7010 C   0  0  0  0  0  3  0  0  0  0  0  0
  184.7910  178.3790  141.0250 C   0  0  0  0  0  2  0  0  0  0  0  0
  184.7240  178.5180  139.4880 C   0  0  2  0  0  3  0  0  0  0  0  0
  186.0750  179.0090  143.1650 C   0  0  2  0  0  3  0  0  0  0  0  0
  189.4190  177.1340  141.2370 N   0  0  0  0  0  0  0  0  0  0  0  0
  187.6410  178.7360  136.8670 C   0  0  0  0  0  2  0  0  0  0  0  0
  185.2000  177.9470  145.7510 C   0  0  0  0  0  2  0  0  0  0  0  0
  184.7660  179.4650  143.8110 C   0  0  0  0  0  2  0  0  0  0  0  0
  190.4600  176.5290  142.0610 C   0  0  0  0  0  2  0  0  0  0  0  0
  191.5100  177.5660  142.4200 C   0  0  0  0  0  1  0  0  0  0  0  0
  183.8450  177.3700  138.9600 C   0  0  2  0  0  3  0  0  0  0  0  0
  184.3300  176.8070  137.7760 O   0  0  0  0  0  1  0  0  0  0  0  0
  182.3400  177.6740  138.8740 C   0  0  2  0  0  3  0  0  0  0  0  0
  182.0210  179.0860  138.4110 C   0  0  0  0  0  1  0  0  0  0  0  0
  181.5300  177.2770  140.1180 C   0  0  2  0  0  3  0  0  0  0  0  0
  180.5520  176.1460  139.8460 C   0  0  0  0  0  1  0  0  0  0  0  0
  180.7880  178.4630  140.7170 C   0  0  0  0  0  2  0  0  0  0  0  0
  180.4080  179.8200  142.7410 C   0  0  0  0  0  2  0  0  0  0  0  0
  181.2890  178.7560  142.1190 C   0  0  0  0  0  3  0  0  0  0  0  0
  180.2150  178.3650  143.1110 C   0  0  0  0  0  2  0  0  0  0  0  0
  1  3  1  6  0  0  0
  1 15  1  0  0  0  0
  1  4  1  0  0  0  0
  2  7  1  0  0  0  0
  2  5  1  1  0  0  0
  4 10  1  6  0  0  0
  4  2  1  0  0  0  0
  5 11  2  0  0  0  0
  6 19  1  0  0  0  0
  7 14  1  6  0  0  0
  7 16  1  0  0  0  0
  8 19  1  0  0  0  0
  9 11  1  6  0  0  0
  9  8  1  0  0  0  0
 10 12  1  0  0  0  0
 12 17  1  0  0  0  0
 13 10  2  0  0  0  0
 15 23  1  6  0  0  0
 15 14  1  0  0  0  0
 16  9  1  0  0  0  0
 16 20  1  1  0  0  0
 17  5  1  0  0  0  0
 17 21  1  0  0  0  0
 18  3  1  0  0  0  0
 18 13  1  0  0  0  0
 20  6  1  0  0  0  0
 21 22  1  0  0  0  0
 23 24  1  6  0  0  0
 25 26  1  1  0  0  0
 25 23  1  0  0  0  0
 25 27  1  0  0  0  0
 27 28  1  6  0  0  0
 27 29  1  0  0  0  0
 29 31  1  0  0  0  0
 30 32  1  0  0  0  0
 31 30  1  0  0  0  0
 31 32  1  0  0  0  0
M  END
>  <MODEL>
5

>  <REMARK>
 VINA RESULT:      -7.8      2.349      6.319
  Name = 
  6 active torsions:
  status: ('A' for Active; 'I' for Inactive)
    1  A    between atoms: C_3  and  C_15
    2  A    between atoms: C_3  and  C_22
    3  A    between atoms: C_13  and  N_29
    4  A    between atoms: C_15  and  C_19
    5  A    between atoms: C_16  and  C_22
    6  A    between atoms: C_16  and  C_27
                            x       y       z     vdW  Elec       q    Type
                         _______ _______ _______ _____ _____    ______ ____

>  <TORSDO>
F 6

$$$$
=
 OpenBabel10272402133D

 32 37  0  0  1  0  0  0  0  0999 V2000
  186.1720  178.7060  138.9540 C   0  0  2  0  0  3  0  0  0  0  0  0
  187.3810  178.5970  141.1280 C   0  0  2  0  0  3  0  0  0  0  0  0
  186.2920  178.3830  137.4670 C   0  0  0  0  0  2  0  0  0  0  0  0
  187.2070  177.9380  139.7720 C   0  0  2  0  0  3  0  0  0  0  0  0
  188.2150  177.6650  141.9650 C   0  0  0  0  0  0  0  0  0  0  0  0
  184.8630  179.4440  145.4300 C   0  0  0  0  0  2  0  0  0  0  0  0
  186.0510  179.1090  141.7440 C   0  0  1  0  0  3  0  0  0  0  0  0
  186.5340  177.5940  145.2730 C   0  0  0  0  0  2  0  0  0  0  0  0
  186.4810  177.6580  143.7510 C   0  0  2  0  0  3  0  0  0  0  0  0
  188.5640  177.7950  139.1350 C   0  0  0  0  0  0  0  0  0  0  0  0
  187.8100  177.2650  143.1800 C   0  0  0  0  0  3  0  0  0  0  0  0
  189.6620  177.1280  139.9290 C   0  0  0  0  0  2  0  0  0  0  0  0
  188.7600  178.0810  137.8390 C   0  0  0  0  0  3  0  0  0  0  0  0
  184.8200  178.4130  141.1320 C   0  0  0  0  0  2  0  0  0  0  0  0
  184.7640  178.5390  139.5930 C   0  0  2  0  0  3  0  0  0  0  0  0
  186.0880  179.0620  143.2760 C   0  0  2  0  0  3  0  0  0  0  0  0
  189.4470  177.1730  141.3880 N   0  0  0  0  0  0  0  0  0  0  0  0
  187.7000  178.7370  136.9910 C   0  0  0  0  0  2  0  0  0  0  0  0
  185.1940  178.0210  145.8640 C   0  0  0  0  0  2  0  0  0  0  0  0
  184.7740  179.5230  143.9080 C   0  0  0  0  0  2  0  0  0  0  0  0
  190.4820  176.5770  142.2240 C   0  0  0  0  0  2  0  0  0  0  0  0
  191.4970  177.6310  142.6330 C   0  0  0  0  0  1  0  0  0  0  0  0
  183.8900  177.3860  139.0680 C   0  0  2  0  0  3  0  0  0  0  0  0
  183.7300  177.4060  137.6800 O   0  0  0  0  0  1  0  0  0  0  0  0
  182.5500  177.1870  139.7950 C   0  0  2  0  0  3  0  0  0  0  0  0
  181.6940  176.0710  139.2180 C   0  0  0  0  0  1  0  0  0  0  0  0
  181.7410  178.4750  140.0220 C   0  0  2  0  0  3  0  0  0  0  0  0
  181.0870  178.5240  141.3930 C   0  0  0  0  0  1  0  0  0  0  0  0
  180.6880  178.6850  138.9440 C   0  0  0  0  0  2  0  0  0  0  0  0
  180.4740  180.9000  137.8820 C   0  0  0  0  0  2  0  0  0  0  0  0
  181.2190  179.5820  137.8420 C   0  0  0  0  0  3  0  0  0  0  0  0
  181.8640  180.7980  138.4730 C   0  0  0  0  0  2  0  0  0  0  0  0
  1  3  1  6  0  0  0
  1 15  1  0  0  0  0
  1  4  1  0  0  0  0
  2  7  1  0  0  0  0
  2  5  1  1  0  0  0
  4 10  1  6  0  0  0
  4  2  1  0  0  0  0
  5 11  2  0  0  0  0
  6 19  1  0  0  0  0
  7 14  1  6  0  0  0
  7 16  1  0  0  0  0
  8 19  1  0  0  0  0
  9 11  1  6  0  0  0
  9  8  1  0  0  0  0
 10 12  1  0  0  0  0
 12 17  1  0  0  0  0
 13 10  2  0  0  0  0
 15 23  1  6  0  0  0
 15 14  1  0  0  0  0
 16  9  1  0  0  0  0
 16 20  1  1  0  0  0
 17  5  1  0  0  0  0
 17 21  1  0  0  0  0
 18  3  1  0  0  0  0
 18 13  1  0  0  0  0
 20  6  1  0  0  0  0
 21 22  1  0  0  0  0
 23 24  1  6  0  0  0
 23 25  1  0  0  0  0
 25 26  1  6  0  0  0
 25 27  1  0  0  0  0
 27 28  1  1  0  0  0
 29 27  1  0  0  0  0
 30 32  1  0  0  0  0
 31 30  1  0  0  0  0
 31 32  1  0  0  0  0
 31 29  1  0  0  0  0
M  END
>  <MODEL>
6

>  <REMARK>
 VINA RESULT:      -7.6      2.465      6.137
  Name = 
  6 active torsions:
  status: ('A' for Active; 'I' for Inactive)
    1  A    between atoms: C_3  and  C_15
    2  A    between atoms: C_3  and  C_22
    3  A    between atoms: C_13  and  N_29
    4  A    between atoms: C_15  and  C_19
    5  A    between atoms: C_16  and  C_22
    6  A    between atoms: C_16  and  C_27
                            x       y       z     vdW  Elec       q    Type
                         _______ _______ _______ _____ _____    ______ ____

>  <TORSDO>
F 6

$$$$
=
 OpenBabel10272402133D

 32 37  0  0  1  0  0  0  0  0999 V2000
  187.9250  178.3710  141.3060 C   0  0  2  0  0  3  0  0  0  0  0  0
  188.4760  177.8290  138.9390 C   0  0  2  0  0  3  0  0  0  0  0  0
  186.7690  178.6550  142.2610 C   0  0  0  0  0  2  0  0  0  0  0  0
  187.4340  177.6840  140.0340 C   0  0  2  0  0  3  0  0  0  0  0  0
  188.0490  176.9340  137.8070 C   0  0  0  0  0  0  0  0  0  0  0  0
  193.1520  176.3190  137.7460 C   0  0  0  0  0  2  0  0  0  0  0  0
  189.9360  177.6870  139.4470 C   0  0  1  0  0  3  0  0  0  0  0  0
  191.1550  175.2010  136.7420 C   0  0  0  0  0  2  0  0  0  0  0  0
  190.2620  175.7930  137.8280 C   0  0  2  0  0  3  0  0  0  0  0  0
  186.1120  178.1690  139.5010 C   0  0  0  0  0  0  0  0  0  0  0  0
  188.8850  176.0250  137.2820 C   0  0  0  0  0  3  0  0  0  0  0  0
  185.6130  177.5990  138.1940 C   0  0  0  0  0  2  0  0  0  0  0  0
  185.3060  178.9470  140.2380 C   0  0  0  0  0  3  0  0  0  0  0  0
  190.0120  176.9430  140.7950 C   0  0  0  0  0  2  0  0  0  0  0  0
  189.1400  177.5950  141.8900 C   0  0  2  0  0  3  0  0  0  0  0  0
  190.8520  177.1020  138.3670 C   0  0  2  0  0  3  0  0  0  0  0  0
  186.6860  177.0510  137.3400 N   0  0  0  0  0  0  0  0  0  0  0  0
  185.7430  179.5380  141.5550 C   0  0  0  0  0  2  0  0  0  0  0  0
  192.5670  174.9900  137.2800 C   0  0  0  0  0  2  0  0  0  0  0  0
  192.2890  176.9140  138.8560 C   0  0  0  0  0  2  0  0  0  0  0  0
  186.2850  176.5110  136.0470 C   0  0  0  0  0  2  0  0  0  0  0  0
  186.4020  177.5790  134.9740 C   0  0  0  0  0  1  0  0  0  0  0  0
  188.8380  176.5140  142.9430 C   0  0  2  0  0  3  0  0  0  0  0  0
  187.4760  176.2240  143.0570 O   0  0  0  0  0  1  0  0  0  0  0  0
  189.4940  176.7260  144.3170 C   0  0  2  0  0  3  0  0  0  0  0  0
  188.8790  177.8550  145.1280 C   0  0  0  0  0  1  0  0  0  0  0  0
  191.0300  176.8010  144.2940 C   0  0  2  0  0  3  0  0  0  0  0  0
  191.6710  175.5480  143.7220 C   0  0  0  0  0  1  0  0  0  0  0  0
  191.6070  177.0880  145.6730 C   0  0  0  0  0  2  0  0  0  0  0  0
  192.3570  176.1130  147.8100 C   0  0  0  0  0  2  0  0  0  0  0  0
  191.9820  175.7980  146.3770 C   0  0  0  0  0  3  0  0  0  0  0  0
  190.9900  175.5450  147.4910 C   0  0  0  0  0  2  0  0  0  0  0  0
  1 15  1  0  0  0  0
  1  3  1  1  0  0  0
  2  5  1  6  0  0  0
  2  7  1  0  0  0  0
  2  4  1  0  0  0  0
  4 10  1  6  0  0  0
  4  1  1  0  0  0  0
  6 20  1  0  0  0  0
  7 14  1  1  0  0  0
  8 19  1  0  0  0  0
  9  8  1  6  0  0  0
  9 16  1  0  0  0  0
 10 13  2  0  0  0  0
 11  5  2  0  0  0  0
 11  9  1  0  0  0  0
 12 10  1  0  0  0  0
 13 18  1  0  0  0  0
 14 15  1  0  0  0  0
 15 23  1  1  0  0  0
 16 20  1  1  0  0  0
 16  7  1  0  0  0  0
 17  5  1  0  0  0  0
 17 12  1  0  0  0  0
 18  3  1  0  0  0  0
 19  6  1  0  0  0  0
 21 17  1  0  0  0  0
 22 21  1  0  0  0  0
 23 24  1  1  0  0  0
 23 25  1  0  0  0  0
 25 26  1  6  0  0  0
 27 28  1  1  0  0  0
 27 25  1  0  0  0  0
 27 29  1  0  0  0  0
 29 31  1  0  0  0  0
 31 32  1  0  0  0  0
 31 30  1  0  0  0  0
 32 30  1  0  0  0  0
M  END
>  <MODEL>
7

>  <REMARK>
 VINA RESULT:      -7.5      2.826      7.342
  Name = 
  6 active torsions:
  status: ('A' for Active; 'I' for Inactive)
    1  A    between atoms: C_3  and  C_15
    2  A    between atoms: C_3  and  C_22
    3  A    between atoms: C_13  and  N_29
    4  A    between atoms: C_15  and  C_19
    5  A    between atoms: C_16  and  C_22
    6  A    between atoms: C_16  and  C_27
                            x       y       z     vdW  Elec       q    Type
                         _______ _______ _______ _____ _____    ______ ____

>  <TORSDO>
F 6

$$$$
=
 OpenBabel10272402133D

 32 37  0  0  1  0  0  0  0  0999 V2000
  184.9450  177.9200  143.0760 C   0  0  2  0  0  3  0  0  0  0  0  0
  186.6970  177.3830  144.7620 C   0  0  2  0  0  3  0  0  0  0  0  0
  183.6190  178.6480  142.8760 C   0  0  0  0  0  2  0  0  0  0  0  0
  185.6560  178.4030  144.3380 C   0  0  2  0  0  3  0  0  0  0  0  0
  187.5200  178.0210  145.8480 C   0  0  0  0  0  0  0  0  0  0  0  0
  191.0970  175.4050  143.2460 C   0  0  0  0  0  2  0  0  0  0  0  0
  187.4630  176.7450  143.5710 C   0  0  1  0  0  3  0  0  0  0  0  0
  191.0350  177.1880  144.9950 C   0  0  0  0  0  2  0  0  0  0  0  0
  189.6140  177.5590  144.5840 C   0  0  2  0  0  3  0  0  0  0  0  0
  184.7650  178.6920  145.5170 C   0  0  0  0  0  0  0  0  0  0  0  0
  188.8590  178.0690  145.7740 C   0  0  0  0  0  3  0  0  0  0  0  0
  185.4110  179.0830  146.8250 C   0  0  0  0  0  2  0  0  0  0  0  0
  183.4340  178.7810  145.3800 C   0  0  0  0  0  3  0  0  0  0  0  0
  187.3860  177.6120  142.2990 C   0  0  0  0  0  2  0  0  0  0  0  0
  185.9340  177.9280  141.8760 C   0  0  2  0  0  3  0  0  0  0  0  0
  188.8910  176.3560  143.9670 C   0  0  2  0  0  3  0  0  0  0  0  0
  186.8100  178.6310  146.9510 N   0  0  0  0  0  0  0  0  0  0  0  0
  182.7310  178.4130  144.0970 C   0  0  0  0  0  2  0  0  0  0  0  0
  191.8020  176.6390  143.7960 C   0  0  0  0  0  2  0  0  0  0  0  0
  189.6810  175.7620  142.7990 C   0  0  0  0  0  2  0  0  0  0  0  0
  187.4920  178.9440  148.2020 C   0  0  0  0  0  2  0  0  0  0  0  0
  187.8540  177.6640  148.9350 C   0  0  0  0  0  1  0  0  0  0  0  0
  185.9740  179.2000  141.0110 C   0  0  2  0  0  3  0  0  0  0  0  0
  185.6210  180.3550  141.7160 O   0  0  0  0  0  1  0  0  0  0  0  0
  185.2400  179.1080  139.6630 C   0  0  2  0  0  3  0  0  0  0  0  0
  183.9080  179.8400  139.6340 C   0  0  0  0  0  1  0  0  0  0  0  0
  185.1320  177.6890  139.0830 C   0  0  2  0  0  3  0  0  0  0  0  0
  185.7890  177.5600  137.7190 C   0  0  0  0  0  1  0  0  0  0  0  0
  183.6880  177.2140  139.0030 C   0  0  0  0  0  2  0  0  0  0  0  0
  181.9590  176.1560  137.5980 C   0  0  0  0  0  2  0  0  0  0  0  0
  183.3530  176.7500  137.5990 C   0  0  0  0  0  3  0  0  0  0  0  0
  182.1850  177.5620  137.0830 C   0  0  0  0  0  2  0  0  0  0  0  0
  1  3  1  6  0  0  0
  1  4  1  0  0  0  0
  2  5  1  1  0  0  0
  3 18  1  0  0  0  0
  4  2  1  0  0  0  0
  4 10  1  1  0  0  0
  5 17  1  0  0  0  0
  6 19  1  0  0  0  0
  7 14  1  6  0  0  0
  7 16  1  0  0  0  0
  7  2  1  0  0  0  0
  9  8  1  1  0  0  0
  9 11  1  0  0  0  0
 10 12  1  0  0  0  0
 11  5  2  0  0  0  0
 12 17  1  0  0  0  0
 13 10  2  0  0  0  0
 15 23  1  1  0  0  0
 15 14  1  0  0  0  0
 15  1  1  0  0  0  0
 16 20  1  6  0  0  0
 16  9  1  0  0  0  0
 17 21  1  0  0  0  0
 18 13  1  0  0  0  0
 19  8  1  0  0  0  0
 20  6  1  0  0  0  0
 21 22  1  0  0  0  0
 23 24  1  1  0  0  0
 25 26  1  1  0  0  0
 25 23  1  0  0  0  0
 27 28  1  6  0  0  0
 27 25  1  0  0  0  0
 29 27  1  0  0  0  0
 30 31  1  0  0  0  0
 31 29  1  0  0  0  0
 32 30  1  0  0  0  0
 32 31  1  0  0  0  0
M  END
>  <MODEL>
8

>  <REMARK>
 VINA RESULT:      -7.3      1.288      2.439
  Name = 
  6 active torsions:
  status: ('A' for Active; 'I' for Inactive)
    1  A    between atoms: C_3  and  C_15
    2  A    between atoms: C_3  and  C_22
    3  A    between atoms: C_13  and  N_29
    4  A    between atoms: C_15  and  C_19
    5  A    between atoms: C_16  and  C_22
    6  A    between atoms: C_16  and  C_27
                            x       y       z     vdW  Elec       q    Type
                         _______ _______ _______ _____ _____    ______ ____

>  <TORSDO>
F 6

$$$$
=
 OpenBabel10272402133D

 32 37  0  0  1  0  0  0  0  0999 V2000
  188.8380  177.9540  139.7980 C   0  0  2  0  0  3  0  0  0  0  0  0
  189.6070  176.6920  137.7940 C   0  0  2  0  0  3  0  0  0  0  0  0
  187.5950  178.4120  140.5550 C   0  0  0  0  0  2  0  0  0  0  0  0
  188.5110  176.8140  138.8370 C   0  0  2  0  0  3  0  0  0  0  0  0
  189.3550  175.4140  137.0400 C   0  0  0  0  0  0  0  0  0  0  0  0
  194.4840  175.4300  137.3580 C   0  0  0  0  0  2  0  0  0  0  0  0
  191.0340  176.9110  138.3650 C   0  0  1  0  0  3  0  0  0  0  0  0
  192.6870  173.8030  136.7540 C   0  0  0  0  0  2  0  0  0  0  0  0
  191.6640  174.6250  137.5320 C   0  0  2  0  0  3  0  0  0  0  0  0
  187.1880  176.9210  138.1260 C   0  0  0  0  0  0  0  0  0  0  0  0
  190.3130  174.4860  136.8970 C   0  0  0  0  0  3  0  0  0  0  0  0
  186.8430  175.8760  137.0910 C   0  0  0  0  0  2  0  0  0  0  0  0
  186.2570  177.8050  138.5150 C   0  0  0  0  0  3  0  0  0  0  0  0
  191.0900  176.6980  139.8900 C   0  0  0  0  0  2  0  0  0  0  0  0
  190.0800  177.5810  140.6560 C   0  0  2  0  0  3  0  0  0  0  0  0
  192.0790  176.1000  137.5900 C   0  0  2  0  0  3  0  0  0  0  0  0
  188.0230  175.1980  136.5200 N   0  0  0  0  0  0  0  0  0  0  0  0
  186.5380  178.8650  139.5500 C   0  0  0  0  0  2  0  0  0  0  0  0
  194.0710  173.9630  137.3750 C   0  0  0  0  0  2  0  0  0  0  0  0
  193.4890  176.2670  138.1580 C   0  0  0  0  0  2  0  0  0  0  0  0
  187.7710  174.1970  135.4900 C   0  0  0  0  0  2  0  0  0  0  0  0
  186.9760  173.0390  136.0690 C   0  0  0  0  0  1  0  0  0  0  0  0
  189.8160  176.9060  142.0140 C   0  0  2  0  0  3  0  0  0  0  0  0
  188.9830  175.7880  141.9180 O   0  0  0  0  0  1  0  0  0  0  0  0
  189.3790  177.8480  143.1480 C   0  0  2  0  0  3  0  0  0  0  0  0
  190.4970  178.7270  143.6860 C   0  0  0  0  0  1  0  0  0  0  0  0
  188.5820  177.1730  144.2760 C   0  0  2  0  0  3  0  0  0  0  0  0
  187.1400  177.6490  144.3430 C   0  0  0  0  0  1  0  0  0  0  0  0
  189.2460  177.3580  145.6330 C   0  0  0  0  0  2  0  0  0  0  0  0
  188.2350  176.9130  147.8380 C   0  0  0  0  0  2  0  0  0  0  0  0
  188.2450  177.8610  146.6560 C   0  0  0  0  0  3  0  0  0  0  0  0
  188.9860  178.2250  147.9240 C   0  0  0  0  0  2  0  0  0  0  0  0
  1  3  1  1  0  0  0
  1 15  1  0  0  0  0
  2  5  1  1  0  0  0
  2  7  1  0  0  0  0
  2  4  1  0  0  0  0
  4 10  1  6  0  0  0
  4  1  1  0  0  0  0
  6 19  1  0  0  0  0
  6 20  1  0  0  0  0
  7 14  1  1  0  0  0
  8 19  1  0  0  0  0
  9  8  1  6  0  0  0
  9 16  1  0  0  0  0
 10 13  2  0  0  0  0
 11  5  2  0  0  0  0
 11  9  1  0  0  0  0
 12 10  1  0  0  0  0
 13 18  1  0  0  0  0
 14 15  1  0  0  0  0
 15 23  1  1  0  0  0
 16 20  1  1  0  0  0
 16  7  1  0  0  0  0
 17  5  1  0  0  0  0
 17 12  1  0  0  0  0
 18  3  1  0  0  0  0
 21 22  1  0  0  0  0
 21 17  1  0  0  0  0
 23 24  1  6  0  0  0
 23 25  1  0  0  0  0
 25 26  1  1  0  0  0
 25 27  1  0  0  0  0
 27 28  1  1  0  0  0
 27 29  1  0  0  0  0
 29 31  1  0  0  0  0
 30 32  1  0  0  0  0
 31 30  1  0  0  0  0
 31 32  1  0  0  0  0
M  END
>  <MODEL>
9

>  <REMARK>
 VINA RESULT:      -7.2      3.388      7.922
  Name = 
  6 active torsions:
  status: ('A' for Active; 'I' for Inactive)
    1  A    between atoms: C_3  and  C_15
    2  A    between atoms: C_3  and  C_22
    3  A    between atoms: C_13  and  N_29
    4  A    between atoms: C_15  and  C_19
    5  A    between atoms: C_16  and  C_22
    6  A    between atoms: C_16  and  C_27
                            x       y       z     vdW  Elec       q    Type
                         _______ _______ _______ _____ _____    ______ ____

>  <TORSDO>
F 6

$$$$
