=
 OpenBabel10272401183D

 55 59  0  0  1  0  0  0  0  0999 V2000
  187.3550  177.8210  138.3170 C   0  0  0  0  0  2  0  0  0  0  0  0
  191.6290  174.3350  136.5400 C   0  0  0  0  0  2  0  0  0  0  0  0
  190.2000  172.6820  134.6480 O   0  0  0  0  0  1  0  0  0  0  0  0
  185.9250  173.4320  135.1760 C   0  0  0  0  0  2  0  0  0  0  0  0
  185.0360  172.1920  135.2950 C   0  0  0  0  0  2  0  0  0  0  0  0
  185.4840  173.9880  137.6220 C   0  0  1  0  0  3  0  0  0  0  0  0
  184.5970  172.7440  137.7260 C   0  0  0  0  0  2  0  0  0  0  0  0
  188.7620  174.4130  135.4420 C   0  0  0  0  0  2  0  0  0  0  0  0
  183.9630  172.3960  136.3690 C   0  0  0  0  0  2  0  0  0  0  0  0
  188.7590  176.9000  140.1740 C   0  0  0  0  0  3  0  0  0  0  0  0
  186.5590  173.7230  136.5420 C   0  0  2  0  0  3  0  0  0  0  0  0
  191.0750  177.1690  138.6120 C   0  0  0  0  0  0  0  0  0  0  0  0
  186.6820  176.5950  137.7140 C   0  0  1  0  0  3  0  0  0  0  0  0
  189.8370  177.5790  138.1120 C   0  0  0  0  0  3  0  0  0  0  0  0
  185.1420  176.5880  137.7290 C   0  0  2  0  0  3  0  0  0  0  0  0
  192.6420  174.4030  137.6660 C   0  0  0  0  0  2  0  0  0  0  0  0
  184.6060  175.2070  137.2830 C   0  0  0  0  0  2  0  0  0  0  0  0
  190.5240  173.3650  136.9250 C   0  0  0  0  0  2  0  0  0  0  0  0
  189.5350  173.1440  135.7820 C   0  0  2  0  0  3  0  0  0  0  0  0
  189.9940  176.4970  140.6830 C   0  0  0  0  0  3  0  0  0  0  0  0
  193.6960  175.4500  137.3490 C   0  0  1  0  0  3  0  0  0  0  0  0
  188.6810  177.4520  138.8890 C   0  0  0  0  0  0  0  0  0  0  0  0
  187.7240  174.7360  136.5110 C   0  0  2  0  0  3  0  0  0  0  0  0
  187.2740  176.1790  136.3800 C   0  0  0  0  0  2  0  0  0  0  0  0
  193.4660  176.7230  138.1530 C   0  0  0  0  0  2  0  0  0  0  0  0
  192.2140  177.3070  137.8080 O   0  0  0  0  0  0  0  0  0  0  0  0
  191.1500  176.6310  139.9040 C   0  0  0  0  0  3  0  0  0  0  0  0
  183.1650  177.4090  136.5100 C   0  0  0  0  0  2  0  0  0  0  0  0
  182.3070  178.7270  138.4850 C   0  0  2  0  0  3  0  0  0  0  0  0
  184.6370  178.9800  137.5510 C   0  0  0  0  0  2  0  0  0  0  0  0
  183.7680  179.0410  138.8120 C   0  0  0  0  0  2  0  0  0  0  0  0
  182.2190  177.4080  137.7190 C   0  0  0  0  0  2  0  0  0  0  0  0
  184.5650  177.6690  136.8890 N   0  0  1  0  0  0  0  0  0  0  0  0
  181.6270  179.8630  137.7220 C   0  0  0  0  0  3  0  0  0  0  0  0
  181.7590  181.0620  138.4190 O   0  0  0  0  0  1  0  0  0  0  0  0
  180.2720  179.5740  137.5630 O   0  0  0  0  0  1  0  0  0  0  0  0
  194.9600  174.9290  137.6440 O   0  0  0  0  0  0  0  0  0  0  0  0
  195.2110  174.0230  136.6620 N   0  0  0  0  0  0  0  0  0  0  0  0
  196.5000  173.7930  134.7290 F   0  0  0  0  0  0  0  0  0  0  0  0
  195.9630  174.7100  135.6180 C   0  0  0  0  0  3  0  0  0  0  0  0
  196.9960  175.4390  136.1830 F   0  0  0  0  0  0  0  0  0  0  0  0
  196.0970  173.0120  137.2300 C   0  0  0  0  0  2  0  0  0  0  0  0
  195.2820  171.8930  137.8650 C   0  0  0  0  0  2  0  0  0  0  0  0
  195.1980  169.6720  136.6120 N   0  0  0  0  0  2  0  0  0  0  0  0
  194.6630  170.9800  136.8430 C   0  0  0  0  0  0  0  0  0  0  0  0
  193.6310  171.3390  136.2130 O   0  0  0  0  0  0  0  0  0  0  0  0
  196.2780  169.0940  137.3980 C   0  0  2  0  0  3  0  0  0  0  0  0
  197.3930  168.6380  136.4710 C   0  0  0  0  0  2  0  0  0  0  0  0
  198.7470  169.1350  136.9500 C   0  0  0  0  0  3  0  0  0  0  0  0
  198.5730  170.4860  137.5980 C   0  0  0  0  0  1  0  0  0  0  0  0
  199.3320  168.1690  137.9660 C   0  0  0  0  0  1  0  0  0  0  0  0
  195.7670  167.9500  138.2880 C   0  0  0  0  0  2  0  0  0  0  0  0
  194.5150  168.3000  139.0260 C   0  0  0  0  0  0  0  0  0  0  0  0
  193.3920  167.9140  138.5910 O   0  0  0  0  0  0  0  0  0  0  0  0
  194.5950  169.0380  140.2410 N   0  0  0  0  0  1  0  0  0  0  0  0
  1 22  1  0  0  0  0
  2 18  1  0  0  0  0
  2 16  1  0  0  0  0
  4  5  1  0  0  0  0
  5  9  1  0  0  0  0
  6 17  1  6  0  0  0
  6  7  1  0  0  0  0
  8 19  1  0  0  0  0
  9  7  1  0  0  0  0
 10 20  1  0  0  0  0
 11  4  1  6  0  0  0
 11  6  1  0  0  0  0
 12 27  1  0  0  0  0
 13 24  1  6  0  0  0
 13 15  1  0  0  0  0
 13  1  1  0  0  0  0
 14 12  2  0  0  0  0
 14 22  1  0  0  0  0
 15 17  1  6  0  0  0
 19  3  1  6  0  0  0
 19 18  1  0  0  0  0
 21 37  1  1  0  0  0
 21 16  1  0  0  0  0
 21 25  1  0  0  0  0
 22 10  2  0  0  0  0
 23  8  1  6  0  0  0
 23 11  1  0  0  0  0
 24 23  1  0  0  0  0
 26 25  1  0  0  0  0
 26 12  1  0  0  0  0
 27 20  2  0  0  0  0
 28 32  1  0  0  0  0
 29 34  1  6  0  0  0
 29 31  1  0  0  0  0
 30 31  1  0  0  0  0
 32 29  1  0  0  0  0
 33 28  1  1  0  0  0
 33 30  1  0  0  0  0
 33 15  1  0  0  0  0
 34 35  1  0  0  0  0
 36 34  1  0  0  0  0
 38 42  1  0  0  0  0
 38 37  1  0  0  0  0
 39 40  1  0  0  0  0
 40 41  1  0  0  0  0
 40 38  1  0  0  0  0
 42 43  1  0  0  0  0
 44 45  1  0  0  0  0
 44 47  1  0  0  0  0
 45 43  1  0  0  0  0
 46 45  2  0  0  0  0
 47 48  1  6  0  0  0
 47 52  1  0  0  0  0
 48 49  1  0  0  0  0
 49 50  1  0  0  0  0
 49 51  1  0  0  0  0
 52 53  1  0  0  0  0
 53 55  1  0  0  0  0
 54 53  2  0  0  0  0
M  END
>  <MODEL>
1

>  <REMARK>
 VINA RESULT:      -4.5      0.000      0.000
  Name = 
  13 active torsions:
  status: ('A' for Active; 'I' for Inactive)
    1  A    between atoms: C_1  and  C_53
    2  A    between atoms: N_3  and  C_38
    3  A    between atoms: C_6  and  C_12
    4  A    between atoms: C_6  and  C_46
    5  A    between atoms: O_8  and  N_22
    6  A    between atoms: O_8  and  C_43
    7  A    between atoms: C_10  and  C_32
    8  A    between atoms: C_11  and  C_29
    9  A    between atoms: C_20  and  N_22
   10  A    between atoms: N_22  and  C_46
   11  A    between atoms: C_29  and  C_38
   12  A    between atoms: C_33  and  N_52
   13  A    between atoms: C_38  and  C_53
                            x       y       z     vdW  Elec       q    Type
                         _______ _______ _______ _____ _____    ______ ____

>  <TORSDO>
F 13

$$$$
=
 OpenBabel10272401183D

 55 59  0  0  1  0  0  0  0  0999 V2000
  186.4440  178.6080  139.3120 C   0  0  0  0  0  2  0  0  0  0  0  0
  190.6210  175.4450  136.8360 C   0  0  0  0  0  2  0  0  0  0  0  0
  189.1540  174.2740  134.6370 O   0  0  0  0  0  1  0  0  0  0  0  0
  184.9000  175.0290  135.3130 C   0  0  0  0  0  2  0  0  0  0  0  0
  183.9730  173.8210  135.1680 C   0  0  0  0  0  2  0  0  0  0  0  0
  184.4610  175.0680  137.8210 C   0  0  1  0  0  3  0  0  0  0  0  0
  183.5350  173.8590  137.6600 C   0  0  0  0  0  2  0  0  0  0  0  0
  187.7640  175.8430  135.7800 C   0  0  0  0  0  2  0  0  0  0  0  0
  182.9000  173.8260  136.2600 C   0  0  0  0  0  2  0  0  0  0  0  0
  187.8070  177.2710  140.9310 C   0  0  0  0  0  3  0  0  0  0  0  0
  185.5340  175.0050  136.7100 C   0  0  2  0  0  3  0  0  0  0  0  0
  190.1410  177.7920  139.4610 C   0  0  0  0  0  0  0  0  0  0  0  0
  185.7380  177.5580  138.4630 C   0  0  1  0  0  3  0  0  0  0  0  0
  188.9190  178.3370  139.0590 C   0  0  0  0  0  3  0  0  0  0  0  0
  184.1980  177.5960  138.4760 C   0  0  2  0  0  3  0  0  0  0  0  0
  191.6280  175.2410  137.9500 C   0  0  0  0  0  2  0  0  0  0  0  0
  183.6230  176.3580  137.7490 C   0  0  0  0  0  2  0  0  0  0  0  0
  189.4840  174.4500  137.0070 C   0  0  0  0  0  2  0  0  0  0  0  0
  188.4960  174.5070  135.8440 C   0  0  2  0  0  3  0  0  0  0  0  0
  189.0260  176.7310  141.3430 C   0  0  0  0  0  3  0  0  0  0  0  0
  192.7160  176.2980  137.8620 C   0  0  1  0  0  3  0  0  0  0  0  0
  187.7540  178.0840  139.7920 C   0  0  0  0  0  0  0  0  0  0  0  0
  186.7300  175.9640  136.8930 C   0  0  2  0  0  3  0  0  0  0  0  0
  186.3250  177.4160  137.0710 C   0  0  0  0  0  2  0  0  0  0  0  0
  192.5190  177.3790  138.9170 C   0  0  0  0  0  2  0  0  0  0  0  0
  191.2880  178.0610  138.7030 O   0  0  0  0  0  0  0  0  0  0  0  0
  190.1900  176.9900  140.6100 C   0  0  0  0  0  3  0  0  0  0  0  0
  182.4280  178.6260  137.1070 C   0  0  0  0  0  2  0  0  0  0  0  0
  180.9810  179.1570  139.1070 C   0  0  2  0  0  3  0  0  0  0  0  0
  183.3930  179.8710  138.9060 C   0  0  0  0  0  2  0  0  0  0  0  0
  182.2750  179.4520  139.8680 C   0  0  0  0  0  2  0  0  0  0  0  0
  181.2560  178.1600  137.9830 C   0  0  0  0  0  2  0  0  0  0  0  0
  183.6600  178.8480  137.8850 N   0  0  1  0  0  0  0  0  0  0  0  0
  180.3190  180.4280  138.5760 C   0  0  0  0  0  3  0  0  0  0  0  0
  180.8890  180.8020  137.3610 O   0  0  0  0  0  1  0  0  0  0  0  0
  180.4870  181.4630  139.4970 O   0  0  0  0  0  1  0  0  0  0  0  0
  193.9610  175.6870  138.0390 O   0  0  0  0  0  0  0  0  0  0  0  0
  194.2460  175.1020  136.8460 N   0  0  0  0  0  0  0  0  0  0  0  0
  193.7680  175.7240  134.6480 F   0  0  0  0  0  0  0  0  0  0  0  0
  194.3090  176.1620  135.8460 C   0  0  0  0  0  3  0  0  0  0  0  0
  195.6270  176.5290  135.6310 F   0  0  0  0  0  0  0  0  0  0  0  0
  195.5880  174.5390  136.9550 C   0  0  0  0  0  2  0  0  0  0  0  0
  195.5430  173.0280  136.7630 C   0  0  0  0  0  2  0  0  0  0  0  0
  195.7210  170.8740  138.1170 N   0  0  0  0  0  2  0  0  0  0  0  0
  195.4770  172.2830  138.0670 C   0  0  0  0  0  0  0  0  0  0  0  0
  195.2550  172.9050  139.1430 O   0  0  0  0  0  0  0  0  0  0  0  0
  196.1510  170.0910  136.9680 C   0  0  2  0  0  3  0  0  0  0  0  0
  195.2940  168.8390  136.8570 C   0  0  0  0  0  2  0  0  0  0  0  0
  193.8140  169.1780  136.9000 C   0  0  0  0  0  3  0  0  0  0  0  0
  193.4230  169.8360  135.6010 C   0  0  0  0  0  1  0  0  0  0  0  0
  192.9910  167.9140  137.0840 C   0  0  0  0  0  1  0  0  0  0  0  0
  197.6480  169.7550  137.0500 C   0  0  0  0  0  2  0  0  0  0  0  0
  198.5170  170.8190  136.4580 C   0  0  0  0  0  0  0  0  0  0  0  0
  198.1870  171.3790  135.3730 O   0  0  0  0  0  0  0  0  0  0  0  0
  199.7000  171.2230  137.1390 N   0  0  0  0  0  1  0  0  0  0  0  0
  1 22  1  0  0  0  0
  2 18  1  0  0  0  0
  2 16  1  0  0  0  0
  5  4  1  0  0  0  0
  5  9  1  0  0  0  0
  6  7  1  6  0  0  0
  8 19  1  0  0  0  0
  9  7  1  0  0  0  0
 10 20  1  0  0  0  0
 11  4  1  6  0  0  0
 11 23  1  0  0  0  0
 11  6  1  0  0  0  0
 12 27  1  0  0  0  0
 13 24  1  6  0  0  0
 13 15  1  0  0  0  0
 13  1  1  0  0  0  0
 14 12  2  0  0  0  0
 14 22  1  0  0  0  0
 15 17  1  6  0  0  0
 17  6  1  0  0  0  0
 19  3  1  6  0  0  0
 19 18  1  0  0  0  0
 21 16  1  0  0  0  0
 21 37  1  1  0  0  0
 21 25  1  0  0  0  0
 22 10  2  0  0  0  0
 23  8  1  6  0  0  0
 23 24  1  0  0  0  0
 26 25  1  0  0  0  0
 26 12  1  0  0  0  0
 27 20  2  0  0  0  0
 28 32  1  0  0  0  0
 29 34  1  6  0  0  0
 29 31  1  0  0  0  0
 30 31  1  0  0  0  0
 32 29  1  0  0  0  0
 33 28  1  1  0  0  0
 33 15  1  0  0  0  0
 33 30  1  0  0  0  0
 34 36  1  0  0  0  0
 35 34  1  0  0  0  0
 38 42  1  0  0  0  0
 38 37  1  0  0  0  0
 39 40  1  0  0  0  0
 40 38  1  0  0  0  0
 41 40  1  0  0  0  0
 43 42  1  0  0  0  0
 43 45  1  0  0  0  0
 45 44  1  0  0  0  0
 45 46  2  0  0  0  0
 47 48  1  1  0  0  0
 47 52  1  0  0  0  0
 47 44  1  0  0  0  0
 48 49  1  0  0  0  0
 49 51  1  0  0  0  0
 50 49  1  0  0  0  0
 53 52  1  0  0  0  0
 53 55  1  0  0  0  0
 54 53  2  0  0  0  0
M  END
>  <MODEL>
2

>  <REMARK>
 VINA RESULT:      -4.0      1.750      2.597
  Name = 
  13 active torsions:
  status: ('A' for Active; 'I' for Inactive)
    1  A    between atoms: C_1  and  C_53
    2  A    between atoms: N_3  and  C_38
    3  A    between atoms: C_6  and  C_12
    4  A    between atoms: C_6  and  C_46
    5  A    between atoms: O_8  and  N_22
    6  A    between atoms: O_8  and  C_43
    7  A    between atoms: C_10  and  C_32
    8  A    between atoms: C_11  and  C_29
    9  A    between atoms: C_20  and  N_22
   10  A    between atoms: N_22  and  C_46
   11  A    between atoms: C_29  and  C_38
   12  A    between atoms: C_33  and  N_52
   13  A    between atoms: C_38  and  C_53
                            x       y       z     vdW  Elec       q    Type
                         _______ _______ _______ _____ _____    ______ ____

>  <TORSDO>
F 13

$$$$
=
 OpenBabel10272401183D

 55 59  0  0  1  0  0  0  0  0999 V2000
  185.4590  174.5700  134.9470 C   0  0  0  0  0  2  0  0  0  0  0  0
  187.2060  177.9000  139.3560 C   0  0  0  0  0  2  0  0  0  0  0  0
  184.6530  178.6920  140.4540 O   0  0  0  0  0  1  0  0  0  0  0  0
  181.5530  177.5640  137.5830 C   0  0  0  0  0  2  0  0  0  0  0  0
  180.5300  178.6500  137.2400 C   0  0  0  0  0  2  0  0  0  0  0  0
  182.5150  177.7220  135.2310 C   0  0  1  0  0  3  0  0  0  0  0  0
  181.4850  178.8060  134.9020 C   0  0  0  0  0  2  0  0  0  0  0  0
  184.3120  177.1040  138.7050 C   0  0  0  0  0  2  0  0  0  0  0  0
  180.2090  178.6380  135.7430 C   0  0  0  0  0  2  0  0  0  0  0  0
  187.2690  176.1920  134.3460 C   0  0  0  0  0  3  0  0  0  0  0  0
  182.8180  177.7900  136.7460 C   0  0  2  0  0  3  0  0  0  0  0  0
  188.5200  175.7790  136.8240 C   0  0  0  0  0  0  0  0  0  0  0  0
  184.2720  175.4530  135.3100 C   0  0  1  0  0  3  0  0  0  0  0  0
  187.3600  175.0730  136.4940 C   0  0  0  0  0  3  0  0  0  0  0  0
  182.9950  175.2550  134.4730 C   0  0  2  0  0  3  0  0  0  0  0  0
  188.6100  178.3140  138.9620 C   0  0  0  0  0  2  0  0  0  0  0  0
  181.9560  176.3500  134.8100 C   0  0  0  0  0  2  0  0  0  0  0  0
  186.2050  178.7820  138.6280 C   0  0  0  0  0  2  0  0  0  0  0  0
  184.7710  178.5090  139.0770 C   0  0  2  0  0  3  0  0  0  0  0  0
  188.4310  176.8940  134.6660 C   0  0  0  0  0  3  0  0  0  0  0  0
  189.6220  177.3730  139.5930 C   0  0  1  0  0  3  0  0  0  0  0  0
  186.7370  175.2720  135.2580 C   0  0  0  0  0  0  0  0  0  0  0  0
  184.0510  176.9830  137.2080 C   0  0  2  0  0  3  0  0  0  0  0  0
  184.0080  175.5210  136.8040 C   0  0  0  0  0  2  0  0  0  0  0  0
  190.1660  176.3850  138.5690 C   0  0  0  0  0  2  0  0  0  0  0  0
  189.1180  175.5600  138.0720 O   0  0  0  0  0  0  0  0  0  0  0  0
  189.0560  176.6890  135.9020 C   0  0  0  0  0  3  0  0  0  0  0  0
  182.7760  173.2870  135.9390 C   0  0  0  0  0  2  0  0  0  0  0  0
  180.6750  174.1530  137.0390 C   0  0  2  0  0  3  0  0  0  0  0  0
  180.9420  173.9190  134.5410 C   0  0  0  0  0  2  0  0  0  0  0  0
  180.2830  174.7170  135.6720 C   0  0  0  0  0  2  0  0  0  0  0  0
  182.1950  174.0470  137.1410 C   0  0  0  0  0  2  0  0  0  0  0  0
  182.4080  173.9030  134.6510 N   0  0  1  0  0  0  0  0  0  0  0  0
  180.0000  172.8120  137.3260 C   0  0  0  0  0  3  0  0  0  0  0  0
  180.2110  172.4370  138.6510 O   0  0  0  0  0  1  0  0  0  0  0  0
  180.5280  171.8330  136.4850 O   0  0  0  0  0  1  0  0  0  0  0  0
  190.6730  178.1250  140.1260 O   0  0  0  0  0  0  0  0  0  0  0  0
  191.6250  177.2180  140.4700 N   0  0  0  0  0  0  0  0  0  0  0  0
  193.0600  177.1300  138.6310 F   0  0  0  0  0  0  0  0  0  0  0  0
  192.8860  177.6710  139.8940 C   0  0  0  0  0  3  0  0  0  0  0  0
  193.9410  177.2730  140.6990 F   0  0  0  0  0  0  0  0  0  0  0  0
  191.7710  177.2800  141.9200 C   0  0  0  0  0  2  0  0  0  0  0  0
  190.4160  177.5080  142.5780 C   0  0  0  0  0  2  0  0  0  0  0  0
  189.0680  176.4380  144.4610 N   0  0  0  0  0  2  0  0  0  0  0  0
  189.9290  176.2980  143.3260 C   0  0  0  0  0  0  0  0  0  0  0  0
  190.2340  175.1400  142.9280 O   0  0  0  0  0  0  0  0  0  0  0  0
  188.5190  177.7120  144.9020 C   0  0  2  0  0  3  0  0  0  0  0  0
  189.3110  178.2190  146.0970 C   0  0  0  0  0  2  0  0  0  0  0  0
  189.0950  177.3390  147.3160 C   0  0  0  0  0  3  0  0  0  0  0  0
  190.3710  176.5940  147.6170 C   0  0  0  0  0  1  0  0  0  0  0  0
  188.7210  178.1890  148.5190 C   0  0  0  0  0  1  0  0  0  0  0  0
  187.0200  177.5940  145.2160 C   0  0  0  0  0  2  0  0  0  0  0  0
  186.1500  178.0050  144.0700 C   0  0  0  0  0  0  0  0  0  0  0  0
  186.3210  177.4920  142.9270 O   0  0  0  0  0  0  0  0  0  0  0  0
  185.1070  178.9490  144.2800 N   0  0  0  0  0  1  0  0  0  0  0  0
  1 22  1  0  0  0  0
  5  4  1  0  0  0  0
  6 17  1  1  0  0  0
  6 11  1  0  0  0  0
  7  6  1  0  0  0  0
  7  9  1  0  0  0  0
  8 19  1  0  0  0  0
  9  5  1  0  0  0  0
 10 20  2  0  0  0  0
 10 22  1  0  0  0  0
 11 23  1  0  0  0  0
 11  4  1  1  0  0  0
 12 26  1  0  0  0  0
 13  1  1  1  0  0  0
 13 24  1  0  0  0  0
 14 12  1  0  0  0  0
 15 33  1  0  0  0  0
 15 17  1  1  0  0  0
 15 13  1  0  0  0  0
 16  2  1  0  0  0  0
 16 21  1  0  0  0  0
 18 19  1  0  0  0  0
 18  2  1  0  0  0  0
 19  3  1  1  0  0  0
 20 27  1  0  0  0  0
 21 37  1  6  0  0  0
 22 14  2  0  0  0  0
 23 24  1  1  0  0  0
 23  8  1  0  0  0  0
 25 21  1  0  0  0  0
 26 25  1  0  0  0  0
 27 12  2  0  0  0  0
 28 32  1  0  0  0  0
 29 32  1  0  0  0  0
 29 34  1  6  0  0  0
 30 31  1  0  0  0  0
 31 29  1  0  0  0  0
 33 30  1  1  0  0  0
 33 28  1  0  0  0  0
 34 35  1  0  0  0  0
 36 34  1  0  0  0  0
 37 38  1  0  0  0  0
 38 42  1  0  0  0  0
 39 40  1  0  0  0  0
 40 38  1  0  0  0  0
 40 41  1  0  0  0  0
 42 43  1  0  0  0  0
 43 45  1  0  0  0  0
 44 47  1  0  0  0  0
 45 44  1  0  0  0  0
 46 45  2  0  0  0  0
 47 52  1  1  0  0  0
 47 48  1  0  0  0  0
 48 49  1  0  0  0  0
 49 50  1  0  0  0  0
 49 51  1  0  0  0  0
 53 55  1  0  0  0  0
 53 52  1  0  0  0  0
 54 53  2  0  0  0  0
M  END
>  <MODEL>
3

>  <REMARK>
 VINA RESULT:      -3.7      5.277      8.406
  Name = 
  13 active torsions:
  status: ('A' for Active; 'I' for Inactive)
    1  A    between atoms: C_1  and  C_53
    2  A    between atoms: N_3  and  C_38
    3  A    between atoms: C_6  and  C_12
    4  A    between atoms: C_6  and  C_46
    5  A    between atoms: O_8  and  N_22
    6  A    between atoms: O_8  and  C_43
    7  A    between atoms: C_10  and  C_32
    8  A    between atoms: C_11  and  C_29
    9  A    between atoms: C_20  and  N_22
   10  A    between atoms: N_22  and  C_46
   11  A    between atoms: C_29  and  C_38
   12  A    between atoms: C_33  and  N_52
   13  A    between atoms: C_38  and  C_53
                            x       y       z     vdW  Elec       q    Type
                         _______ _______ _______ _____ _____    ______ ____

>  <TORSDO>
F 13

$$$$
=
 OpenBabel10272401183D

 55 59  0  0  1  0  0  0  0  0999 V2000
  185.4080  174.6350  134.8540 C   0  0  0  0  0  2  0  0  0  0  0  0
  187.0270  177.8100  139.4230 C   0  0  0  0  0  2  0  0  0  0  0  0
  184.4430  178.5470  140.4870 O   0  0  0  0  0  1  0  0  0  0  0  0
  181.4200  177.5080  137.5030 C   0  0  0  0  0  2  0  0  0  0  0  0
  180.3990  178.5990  137.1750 C   0  0  0  0  0  2  0  0  0  0  0  0
  182.4380  177.7570  135.1820 C   0  0  1  0  0  3  0  0  0  0  0  0
  181.4090  178.8470  134.8680 C   0  0  0  0  0  2  0  0  0  0  0  0
  184.1540  177.0230  138.6740 C   0  0  0  0  0  2  0  0  0  0  0  0
  180.1140  178.6410  135.6710 C   0  0  0  0  0  2  0  0  0  0  0  0
  187.2210  176.2880  134.3570 C   0  0  0  0  0  3  0  0  0  0  0  0
  182.7040  177.7720  136.7050 C   0  0  2  0  0  3  0  0  0  0  0  0
  188.4150  175.7920  136.8480 C   0  0  0  0  0  0  0  0  0  0  0  0
  184.2070  175.4970  135.2210 C   0  0  1  0  0  3  0  0  0  0  0  0
  187.2690  175.0910  136.4650 C   0  0  0  0  0  3  0  0  0  0  0  0
  182.9520  175.3230  134.3460 C   0  0  2  0  0  3  0  0  0  0  0  0
  188.4370  178.2470  139.0780 C   0  0  0  0  0  2  0  0  0  0  0  0
  181.8980  176.3990  134.6970 C   0  0  0  0  0  2  0  0  0  0  0  0
  186.0380  178.7130  138.7040 C   0  0  0  0  0  2  0  0  0  0  0  0
  184.5960  178.4160  139.1080 C   0  0  2  0  0  3  0  0  0  0  0  0
  188.3710  176.9840  134.7310 C   0  0  0  0  0  3  0  0  0  0  0  0
  189.4400  177.2890  139.6990 C   0  0  1  0  0  3  0  0  0  0  0  0
  186.6740  175.3320  135.2210 C   0  0  0  0  0  0  0  0  0  0  0  0
  183.9300  176.9550  137.1670 C   0  0  2  0  0  3  0  0  0  0  0  0
  183.9070  175.5090  136.7090 C   0  0  0  0  0  2  0  0  0  0  0  0
  190.0150  176.3420  138.6540 C   0  0  0  0  0  2  0  0  0  0  0  0
  188.9850  175.5300  138.1010 O   0  0  0  0  0  0  0  0  0  0  0  0
  188.9670  176.7380  135.9730 C   0  0  0  0  0  3  0  0  0  0  0  0
  182.7570  173.2800  135.7090 C   0  0  0  0  0  2  0  0  0  0  0  0
  180.6690  174.0810  136.8810 C   0  0  2  0  0  3  0  0  0  0  0  0
  180.9020  173.9800  134.3710 C   0  0  0  0  0  2  0  0  0  0  0  0
  180.2580  174.7160  135.5510 C   0  0  0  0  0  2  0  0  0  0  0  0
  182.1900  173.9730  136.9570 C   0  0  0  0  0  2  0  0  0  0  0  0
  182.3690  173.9620  134.4610 N   0  0  1  0  0  0  0  0  0  0  0  0
  180.0010  172.7250  137.1060 C   0  0  0  0  0  3  0  0  0  0  0  0
  179.9880  172.4100  138.4630 O   0  0  0  0  0  1  0  0  0  0  0  0
  180.7010  171.7380  136.4140 O   0  0  0  0  0  1  0  0  0  0  0  0
  190.4730  178.0270  140.2850 O   0  0  0  0  0  0  0  0  0  0  0  0
  191.4350  177.1180  140.5900 N   0  0  0  0  0  0  0  0  0  0  0  0
  192.9330  176.4510  138.9290 F   0  0  0  0  0  0  0  0  0  0  0  0
  192.6230  177.4660  139.8200 C   0  0  0  0  0  3  0  0  0  0  0  0
  193.6990  177.6530  140.6720 F   0  0  0  0  0  0  0  0  0  0  0  0
  191.7700  177.3040  141.9980 C   0  0  0  0  0  2  0  0  0  0  0  0
  190.5010  177.3610  142.8390 C   0  0  0  0  0  2  0  0  0  0  0  0
  189.8560  178.3150  145.1160 N   0  0  0  0  0  2  0  0  0  0  0  0
  190.5380  178.4590  143.8650 C   0  0  0  0  0  0  0  0  0  0  0  0
  191.2160  179.5020  143.6540 O   0  0  0  0  0  0  0  0  0  0  0  0
  189.1880  177.0900  145.5300 C   0  0  2  0  0  3  0  0  0  0  0  0
  187.6920  177.3420  145.6430 C   0  0  0  0  0  2  0  0  0  0  0  0
  187.3770  178.2960  146.7830 C   0  0  0  0  0  3  0  0  0  0  0  0
  185.9600  178.7890  146.6330 C   0  0  0  0  0  1  0  0  0  0  0  0
  187.5160  177.5850  148.1180 C   0  0  0  0  0  1  0  0  0  0  0  0
  189.7790  176.5500  146.8420 C   0  0  0  0  0  2  0  0  0  0  0  0
  191.2740  176.5760  146.8620 C   0  0  0  0  0  0  0  0  0  0  0  0
  191.8860  177.2720  147.7220 O   0  0  0  0  0  0  0  0  0  0  0  0
  192.0050  175.7850  145.9310 N   0  0  0  0  0  1  0  0  0  0  0  0
  1 22  1  0  0  0  0
  5  4  1  0  0  0  0
  6 17  1  1  0  0  0
  6 11  1  0  0  0  0
  7  6  1  0  0  0  0
  7  9  1  0  0  0  0
  8 19  1  0  0  0  0
  9  5  1  0  0  0  0
 10 20  2  0  0  0  0
 10 22  1  0  0  0  0
 11 23  1  0  0  0  0
 11  4  1  1  0  0  0
 12 26  1  0  0  0  0
 13  1  1  1  0  0  0
 13 24  1  0  0  0  0
 14 12  1  0  0  0  0
 15 33  1  0  0  0  0
 15 17  1  1  0  0  0
 15 13  1  0  0  0  0
 16  2  1  0  0  0  0
 16 21  1  0  0  0  0
 18 19  1  0  0  0  0
 18  2  1  0  0  0  0
 19  3  1  1  0  0  0
 20 27  1  0  0  0  0
 21 37  1  6  0  0  0
 22 14  2  0  0  0  0
 23 24  1  1  0  0  0
 23  8  1  0  0  0  0
 25 21  1  0  0  0  0
 26 25  1  0  0  0  0
 27 12  2  0  0  0  0
 28 32  1  0  0  0  0
 29 32  1  0  0  0  0
 29 34  1  6  0  0  0
 30 31  1  0  0  0  0
 31 29  1  0  0  0  0
 33 30  1  1  0  0  0
 33 28  1  0  0  0  0
 34 35  1  0  0  0  0
 36 34  1  0  0  0  0
 37 38  1  0  0  0  0
 38 42  1  0  0  0  0
 39 40  1  0  0  0  0
 40 38  1  0  0  0  0
 40 41  1  0  0  0  0
 42 43  1  0  0  0  0
 43 45  1  0  0  0  0
 44 47  1  0  0  0  0
 45 44  1  0  0  0  0
 46 45  2  0  0  0  0
 47 48  1  1  0  0  0
 47 52  1  0  0  0  0
 48 49  1  0  0  0  0
 49 51  1  0  0  0  0
 50 49  1  0  0  0  0
 52 53  1  0  0  0  0
 53 54  2  0  0  0  0
 55 53  1  0  0  0  0
M  END
>  <MODEL>
4

>  <REMARK>
 VINA RESULT:      -3.2      5.288      8.522
  Name = 
  13 active torsions:
  status: ('A' for Active; 'I' for Inactive)
    1  A    between atoms: C_1  and  C_53
    2  A    between atoms: N_3  and  C_38
    3  A    between atoms: C_6  and  C_12
    4  A    between atoms: C_6  and  C_46
    5  A    between atoms: O_8  and  N_22
    6  A    between atoms: O_8  and  C_43
    7  A    between atoms: C_10  and  C_32
    8  A    between atoms: C_11  and  C_29
    9  A    between atoms: C_20  and  N_22
   10  A    between atoms: N_22  and  C_46
   11  A    between atoms: C_29  and  C_38
   12  A    between atoms: C_33  and  N_52
   13  A    between atoms: C_38  and  C_53
                            x       y       z     vdW  Elec       q    Type
                         _______ _______ _______ _____ _____    ______ ____

>  <TORSDO>
F 13

$$$$
=
 OpenBabel10272401183D

 55 59  0  0  1  0  0  0  0  0999 V2000
  186.5480  178.5500  139.3110 C   0  0  0  0  0  2  0  0  0  0  0  0
  190.7080  175.3640  136.8360 C   0  0  0  0  0  2  0  0  0  0  0  0
  189.2310  174.1900  134.6460 O   0  0  0  0  0  1  0  0  0  0  0  0
  184.9810  174.9610  135.3310 C   0  0  0  0  0  2  0  0  0  0  0  0
  184.0500  173.7550  135.1930 C   0  0  0  0  0  2  0  0  0  0  0  0
  184.5500  175.0110  137.8400 C   0  0  1  0  0  3  0  0  0  0  0  0
  183.6200  173.8040  137.6860 C   0  0  0  0  0  2  0  0  0  0  0  0
  187.8490  175.7670  135.7860 C   0  0  0  0  0  2  0  0  0  0  0  0
  182.9810  173.7670  136.2880 C   0  0  0  0  0  2  0  0  0  0  0  0
  187.9120  177.2160  140.9320 C   0  0  0  0  0  3  0  0  0  0  0  0
  185.6190  174.9400  136.7260 C   0  0  2  0  0  3  0  0  0  0  0  0
  190.2420  177.7230  139.4530 C   0  0  0  0  0  0  0  0  0  0  0  0
  185.8360  177.4990  138.4690 C   0  0  1  0  0  3  0  0  0  0  0  0
  189.0210  178.2710  139.0520 C   0  0  0  0  0  3  0  0  0  0  0  0
  184.2970  177.5420  138.4860 C   0  0  2  0  0  3  0  0  0  0  0  0
  191.7180  175.1620  137.9480 C   0  0  0  0  0  2  0  0  0  0  0  0
  183.7150  176.3040  137.7650 C   0  0  0  0  0  2  0  0  0  0  0  0
  189.5680  174.3740  137.0140 C   0  0  0  0  0  2  0  0  0  0  0  0
  188.5770  174.4290  135.8530 C   0  0  2  0  0  3  0  0  0  0  0  0
  189.1300  176.6730  141.3420 C   0  0  0  0  0  3  0  0  0  0  0  0
  192.8080  176.2150  137.8520 C   0  0  1  0  0  3  0  0  0  0  0  0
  187.8580  178.0240  139.7900 C   0  0  0  0  0  0  0  0  0  0  0  0
  186.8190  175.8960  136.9020 C   0  0  2  0  0  3  0  0  0  0  0  0
  186.4180  177.3500  137.0750 C   0  0  0  0  0  2  0  0  0  0  0  0
  192.6180  177.3000  138.9040 C   0  0  0  0  0  2  0  0  0  0  0  0
  191.3880  177.9860  138.6910 O   0  0  0  0  0  0  0  0  0  0  0  0
  190.2930  176.9250  140.6050 C   0  0  0  0  0  3  0  0  0  0  0  0
  182.5220  178.5740  137.1230 C   0  0  0  0  0  2  0  0  0  0  0  0
  181.0920  179.1240  139.1300 C   0  0  2  0  0  3  0  0  0  0  0  0
  183.5060  179.8230  138.9090 C   0  0  0  0  0  2  0  0  0  0  0  0
  182.3930  179.4160  139.8800 C   0  0  0  0  0  2  0  0  0  0  0  0
  181.3540  178.1190  138.0100 C   0  0  0  0  0  2  0  0  0  0  0  0
  183.7610  178.7940  137.8910 N   0  0  1  0  0  0  0  0  0  0  0  0
  180.4330  180.3950  138.5970 C   0  0  0  0  0  3  0  0  0  0  0  0
  180.2240  180.2940  137.2240 O   0  0  0  0  0  1  0  0  0  0  0  0
  181.2550  181.4920  138.8540 O   0  0  0  0  0  1  0  0  0  0  0  0
  194.0520  175.6010  138.0290 O   0  0  0  0  0  0  0  0  0  0  0  0
  194.3000  174.9530  136.8600 N   0  0  0  0  0  0  0  0  0  0  0  0
  194.0310  175.7230  134.6730 F   0  0  0  0  0  0  0  0  0  0  0  0
  194.6770  175.9610  135.8750 C   0  0  0  0  0  3  0  0  0  0  0  0
  196.0450  175.9230  135.6610 F   0  0  0  0  0  0  0  0  0  0  0  0
  195.4720  174.1110  137.0780 C   0  0  0  0  0  2  0  0  0  0  0  0
  195.1920  172.6870  136.6150 C   0  0  0  0  0  2  0  0  0  0  0  0
  196.6910  170.7150  137.2230 N   0  0  0  0  0  2  0  0  0  0  0  0
  195.6790  171.6570  137.5950 C   0  0  0  0  0  0  0  0  0  0  0  0
  195.2370  171.6450  138.7770 O   0  0  0  0  0  0  0  0  0  0  0  0
  197.3890  170.7470  135.9460 C   0  0  2  0  0  3  0  0  0  0  0  0
  198.2230  172.0160  135.8550 C   0  0  0  0  0  2  0  0  0  0  0  0
  199.7070  171.7100  135.9580 C   0  0  0  0  0  3  0  0  0  0  0  0
  200.1890  172.0720  137.3400 C   0  0  0  0  0  1  0  0  0  0  0  0
  199.9570  170.2300  135.7180 C   0  0  0  0  0  1  0  0  0  0  0  0
  196.4070  170.6210  134.7710 C   0  0  0  0  0  2  0  0  0  0  0  0
  195.8010  169.2580  134.6620 C   0  0  0  0  0  0  0  0  0  0  0  0
  196.5380  168.2300  134.6880 O   0  0  0  0  0  0  0  0  0  0  0  0
  194.3880  169.1190  134.5650 N   0  0  0  0  0  1  0  0  0  0  0  0
  1 22  1  0  0  0  0
  2 18  1  0  0  0  0
  2 16  1  0  0  0  0
  5  4  1  0  0  0  0
  5  9  1  0  0  0  0
  6  7  1  6  0  0  0
  8 19  1  0  0  0  0
  9  7  1  0  0  0  0
 10 20  1  0  0  0  0
 11  4  1  6  0  0  0
 11 23  1  0  0  0  0
 11  6  1  0  0  0  0
 12 27  1  0  0  0  0
 13 24  1  6  0  0  0
 13 15  1  0  0  0  0
 13  1  1  0  0  0  0
 14 12  2  0  0  0  0
 14 22  1  0  0  0  0
 15 17  1  6  0  0  0
 17  6  1  0  0  0  0
 19  3  1  6  0  0  0
 19 18  1  0  0  0  0
 21 16  1  0  0  0  0
 21 37  1  1  0  0  0
 21 25  1  0  0  0  0
 22 10  2  0  0  0  0
 23  8  1  6  0  0  0
 23 24  1  0  0  0  0
 26 25  1  0  0  0  0
 26 12  1  0  0  0  0
 27 20  2  0  0  0  0
 28 32  1  0  0  0  0
 29 34  1  6  0  0  0
 29 31  1  0  0  0  0
 30 31  1  0  0  0  0
 32 29  1  0  0  0  0
 33 28  1  1  0  0  0
 33 15  1  0  0  0  0
 33 30  1  0  0  0  0
 34 36  1  0  0  0  0
 35 34  1  0  0  0  0
 38 42  1  0  0  0  0
 38 37  1  0  0  0  0
 39 40  1  0  0  0  0
 40 38  1  0  0  0  0
 41 40  1  0  0  0  0
 43 42  1  0  0  0  0
 43 45  1  0  0  0  0
 44 45  1  0  0  0  0
 45 46  2  0  0  0  0
 47 52  1  6  0  0  0
 47 44  1  0  0  0  0
 48 47  1  0  0  0  0
 48 49  1  0  0  0  0
 49 50  1  0  0  0  0
 51 49  1  0  0  0  0
 53 54  2  0  0  0  0
 53 52  1  0  0  0  0
 55 53  1  0  0  0  0
M  END
>  <MODEL>
5

>  <REMARK>
 VINA RESULT:      -2.8      1.822      2.192
  Name = 
  13 active torsions:
  status: ('A' for Active; 'I' for Inactive)
    1  A    between atoms: C_1  and  C_53
    2  A    between atoms: N_3  and  C_38
    3  A    between atoms: C_6  and  C_12
    4  A    between atoms: C_6  and  C_46
    5  A    between atoms: O_8  and  N_22
    6  A    between atoms: O_8  and  C_43
    7  A    between atoms: C_10  and  C_32
    8  A    between atoms: C_11  and  C_29
    9  A    between atoms: C_20  and  N_22
   10  A    between atoms: N_22  and  C_46
   11  A    between atoms: C_29  and  C_38
   12  A    between atoms: C_33  and  N_52
   13  A    between atoms: C_38  and  C_53
                            x       y       z     vdW  Elec       q    Type
                         _______ _______ _______ _____ _____    ______ ____

>  <TORSDO>
F 13

$$$$
=
 OpenBabel10272401183D

 55 59  0  0  1  0  0  0  0  0999 V2000
  185.5410  179.1020  141.1620 C   0  0  0  0  0  2  0  0  0  0  0  0
  189.1620  176.4190  137.5190 C   0  0  0  0  0  2  0  0  0  0  0  0
  187.3950  175.9440  135.2830 O   0  0  0  0  0  1  0  0  0  0  0  0
  183.3090  176.7680  136.6070 C   0  0  0  0  0  2  0  0  0  0  0  0
  182.2680  175.6970  136.2740 C   0  0  0  0  0  2  0  0  0  0  0  0
  183.1150  176.1930  139.0790 C   0  0  1  0  0  3  0  0  0  0  0  0
  182.0730  175.1260  138.7310 C   0  0  0  0  0  2  0  0  0  0  0  0
  186.2660  177.2530  136.9290 C   0  0  0  0  0  2  0  0  0  0  0  0
  181.3080  175.4910  137.4490 C   0  0  0  0  0  2  0  0  0  0  0  0
  186.9260  177.3130  142.2330 C   0  0  0  0  0  3  0  0  0  0  0  0
  184.0680  176.3470  137.8720 C   0  0  2  0  0  3  0  0  0  0  0  0
  189.1460  178.0440  140.6810 C   0  0  0  0  0  0  0  0  0  0  0  0
  184.6650  178.3500  140.1670 C   0  0  1  0  0  3  0  0  0  0  0  0
  187.9460  178.7490  140.5680 C   0  0  0  0  0  3  0  0  0  0  0  0
  183.1440  178.4810  140.3650 C   0  0  2  0  0  3  0  0  0  0  0  0
  190.2490  175.8750  138.4260 C   0  0  0  0  0  2  0  0  0  0  0  0
  182.3930  177.5090  139.4250 C   0  0  0  0  0  2  0  0  0  0  0  0
  187.9620  175.4870  137.5680 C   0  0  0  0  0  2  0  0  0  0  0  0
  186.8780  175.9020  136.5760 C   0  0  2  0  0  3  0  0  0  0  0  0
  188.1240  176.6100  142.3560 C   0  0  0  0  0  3  0  0  0  0  0  0
  191.4130  176.8480  138.4780 C   0  0  1  0  0  3  0  0  0  0  0  0
  186.8380  178.3910  141.3440 C   0  0  0  0  0  0  0  0  0  0  0  0
  185.3570  177.1510  138.1480 C   0  0  2  0  0  3  0  0  0  0  0  0
  185.1030  178.5320  138.7240 C   0  0  0  0  0  2  0  0  0  0  0  0
  191.4160  177.6340  139.7830 C   0  0  0  0  0  2  0  0  0  0  0  0
  190.2360  178.4240  139.8870 O   0  0  0  0  0  0  0  0  0  0  0  0
  189.2330  176.9730  141.5820 C   0  0  0  0  0  3  0  0  0  0  0  0
  182.8890  180.3610  138.7930 C   0  0  0  0  0  2  0  0  0  0  0  0
  180.5690  179.6540  138.0890 C   0  0  2  0  0  3  0  0  0  0  0  0
  181.2410  180.0200  140.4930 C   0  0  0  0  0  2  0  0  0  0  0  0
  180.3430  179.2240  139.5400 C   0  0  0  0  0  2  0  0  0  0  0  0
  182.0590  179.5910  137.7560 C   0  0  0  0  0  2  0  0  0  0  0  0
  182.6670  179.8730  140.1670 N   0  0  1  0  0  0  0  0  0  0  0  0
  179.9890  181.0370  137.7970 C   0  0  0  0  0  3  0  0  0  0  0  0
  180.0280  181.3000  136.4300 O   0  0  0  0  0  1  0  0  0  0  0  0
  180.7310  182.0070  138.4710 O   0  0  0  0  0  1  0  0  0  0  0  0
  192.6100  176.1350  138.3550 O   0  0  0  0  0  0  0  0  0  0  0  0
  192.4260  175.3080  137.2920 N   0  0  0  0  0  0  0  0  0  0  0  0
  193.8870  176.9820  136.5770 F   0  0  0  0  0  0  0  0  0  0  0  0
  193.1630  175.8740  136.1680 C   0  0  0  0  0  3  0  0  0  0  0  0
  192.2810  176.2610  135.1730 F   0  0  0  0  0  0  0  0  0  0  0  0
  193.0630  174.0370  137.6230 C   0  0  0  0  0  2  0  0  0  0  0  0
  193.8330  173.5050  136.4210 C   0  0  0  0  0  2  0  0  0  0  0  0
  193.6270  171.0460  135.7760 N   0  0  0  0  0  2  0  0  0  0  0  0
  193.1140  172.3820  135.7280 C   0  0  0  0  0  0  0  0  0  0  0  0
  192.0190  172.5960  135.1380 O   0  0  0  0  0  0  0  0  0  0  0  0
  194.7850  170.6570  136.5660 C   0  0  2  0  0  3  0  0  0  0  0  0
  196.0520  170.8860  135.7560 C   0  0  0  0  0  2  0  0  0  0  0  0
  196.9700  171.8860  136.4390 C   0  0  0  0  0  3  0  0  0  0  0  0
  196.4520  172.1580  137.8290 C   0  0  0  0  0  1  0  0  0  0  0  0
  198.3790  171.3240  136.5360 C   0  0  0  0  0  1  0  0  0  0  0  0
  194.6680  169.2020  137.0480 C   0  0  0  0  0  2  0  0  0  0  0  0
  195.3850  168.9550  138.3360 C   0  0  0  0  0  0  0  0  0  0  0  0
  196.6230  168.6960  138.3360 O   0  0  0  0  0  0  0  0  0  0  0  0
  194.6770  169.0490  139.5670 N   0  0  0  0  0  1  0  0  0  0  0  0
  1 22  1  0  0  0  0
  2 18  1  0  0  0  0
  2 16  1  0  0  0  0
  5  4  1  0  0  0  0
  5  9  1  0  0  0  0
  6  7  1  6  0  0  0
  6 17  1  0  0  0  0
  9  7  1  0  0  0  0
 10 20  1  0  0  0  0
 11  4  1  6  0  0  0
 11 23  1  0  0  0  0
 11  6  1  0  0  0  0
 12 27  1  0  0  0  0
 13 24  1  6  0  0  0
 13 15  1  0  0  0  0
 13  1  1  0  0  0  0
 14 12  2  0  0  0  0
 14 22  1  0  0  0  0
 15 17  1  6  0  0  0
 16 21  1  0  0  0  0
 19  3  1  6  0  0  0
 19  8  1  0  0  0  0
 19 18  1  0  0  0  0
 21 37  1  1  0  0  0
 21 25  1  0  0  0  0
 22 10  2  0  0  0  0
 23  8  1  6  0  0  0
 23 24  1  0  0  0  0
 25 26  1  0  0  0  0
 26 12  1  0  0  0  0
 27 20  2  0  0  0  0
 29 34  1  1  0  0  0
 29 31  1  0  0  0  0
 31 30  1  0  0  0  0
 32 29  1  0  0  0  0
 32 28  1  0  0  0  0
 33 28  1  6  0  0  0
 33 15  1  0  0  0  0
 33 30  1  0  0  0  0
 34 36  1  0  0  0  0
 35 34  1  0  0  0  0
 38 42  1  0  0  0  0
 38 37  1  0  0  0  0
 40 39  1  0  0  0  0
 40 38  1  0  0  0  0
 41 40  1  0  0  0  0
 43 42  1  0  0  0  0
 44 47  1  0  0  0  0
 45 44  1  0  0  0  0
 45 43  1  0  0  0  0
 46 45  2  0  0  0  0
 47 48  1  6  0  0  0
 47 52  1  0  0  0  0
 48 49  1  0  0  0  0
 49 51  1  0  0  0  0
 49 50  1  0  0  0  0
 52 53  1  0  0  0  0
 53 54  2  0  0  0  0
 53 55  1  0  0  0  0
M  END
>  <MODEL>
6

>  <REMARK>
 VINA RESULT:      -2.7      2.226      3.310
  Name = 
  13 active torsions:
  status: ('A' for Active; 'I' for Inactive)
    1  A    between atoms: C_1  and  C_53
    2  A    between atoms: N_3  and  C_38
    3  A    between atoms: C_6  and  C_12
    4  A    between atoms: C_6  and  C_46
    5  A    between atoms: O_8  and  N_22
    6  A    between atoms: O_8  and  C_43
    7  A    between atoms: C_10  and  C_32
    8  A    between atoms: C_11  and  C_29
    9  A    between atoms: C_20  and  N_22
   10  A    between atoms: N_22  and  C_46
   11  A    between atoms: C_29  and  C_38
   12  A    between atoms: C_33  and  N_52
   13  A    between atoms: C_38  and  C_53
                            x       y       z     vdW  Elec       q    Type
                         _______ _______ _______ _____ _____    ______ ____

>  <TORSDO>
F 13

$$$$
=
 OpenBabel10272401183D

 55 59  0  0  1  0  0  0  0  0999 V2000
  183.9590  175.5820  136.2620 C   0  0  0  0  0  2  0  0  0  0  0  0
  187.4900  178.2340  140.0140 C   0  0  0  0  0  2  0  0  0  0  0  0
  185.5570  179.3360  141.8580 O   0  0  0  0  0  1  0  0  0  0  0  0
  181.5990  178.9470  140.0410 C   0  0  0  0  0  2  0  0  0  0  0  0
  180.7290  180.2060  140.0540 C   0  0  0  0  0  2  0  0  0  0  0  0
  181.8350  179.1320  137.5120 C   0  0  1  0  0  3  0  0  0  0  0  0
  180.9610  180.3900  137.5410 C   0  0  0  0  0  2  0  0  0  0  0  0
  184.4400  177.9650  140.2560 C   0  0  0  0  0  2  0  0  0  0  0  0
  179.9820  180.3620  138.7260 C   0  0  0  0  0  2  0  0  0  0  0  0
  185.7660  176.9350  135.1800 C   0  0  0  0  0  3  0  0  0  0  0  0
  182.5790  179.0320  138.8630 C   0  0  2  0  0  3  0  0  0  0  0  0
  187.6010  176.1350  137.1470 C   0  0  0  0  0  0  0  0  0  0  0  0
  183.1080  176.6120  136.9930 C   0  0  1  0  0  3  0  0  0  0  0  0
  186.2900  175.6510  137.1690 C   0  0  0  0  0  3  0  0  0  0  0  0
  181.6270  176.6880  136.5790 C   0  0  2  0  0  3  0  0  0  0  0  0
  188.7650  178.4470  139.2210 C   0  0  0  0  0  2  0  0  0  0  0  0
  180.9430  177.9050  137.2460 C   0  0  0  0  0  2  0  0  0  0  0  0
  186.4900  179.3190  139.6490 C   0  0  0  0  0  2  0  0  0  0  0  0
  185.2290  179.2450  140.5070 C   0  0  2  0  0  3  0  0  0  0  0  0
  187.0760  177.4150  135.1490 C   0  0  0  0  0  3  0  0  0  0  0  0
  189.7360  177.3100  139.4890 C   0  0  1  0  0  3  0  0  0  0  0  0
  185.3740  176.0440  136.1870 C   0  0  0  0  0  0  0  0  0  0  0  0
  183.7310  178.0050  138.9070 C   0  0  2  0  0  3  0  0  0  0  0  0
  183.3140  176.6040  138.4970 C   0  0  0  0  0  2  0  0  0  0  0  0
  189.7700  176.3310  138.3230 C   0  0  0  0  0  2  0  0  0  0  0  0
  188.4930  175.7260  138.1470 O   0  0  0  0  0  0  0  0  0  0  0  0
  187.9920  177.0160  136.1300 C   0  0  0  0  0  3  0  0  0  0  0  0
  179.9890  175.0180  135.8040 C   0  0  0  0  0  2  0  0  0  0  0  0
  181.7620  173.5170  134.8160 C   0  0  2  0  0  3  0  0  0  0  0  0
  181.7980  174.3240  137.2060 C   0  0  0  0  0  2  0  0  0  0  0  0
  182.6480  173.9130  135.9990 C   0  0  0  0  0  2  0  0  0  0  0  0
  180.7510  174.6250  134.5300 C   0  0  0  0  0  2  0  0  0  0  0  0
  180.8890  175.4370  136.8930 N   0  0  1  0  0  0  0  0  0  0  0  0
  181.0690  172.1720  135.0360 C   0  0  0  0  0  3  0  0  0  0  0  0
  180.9600  171.9010  136.3980 O   0  0  0  0  0  1  0  0  0  0  0  0
  181.8090  171.1590  134.4260 O   0  0  0  0  0  1  0  0  0  0  0  0
  191.0130  177.8410  139.6960 O   0  0  0  0  0  0  0  0  0  0  0  0
  191.6430  176.9510  140.5070 N   0  0  0  0  0  0  0  0  0  0  0  0
  193.5440  177.9340  139.5740 F   0  0  0  0  0  0  0  0  0  0  0  0
  192.9760  176.7290  139.9570 C   0  0  0  0  0  3  0  0  0  0  0  0
  192.8970  175.9020  138.8490 F   0  0  0  0  0  0  0  0  0  0  0  0
  191.8190  177.6010  141.8020 C   0  0  0  0  0  2  0  0  0  0  0  0
  190.7850  177.0860  142.7950 C   0  0  0  0  0  2  0  0  0  0  0  0
  189.2160  178.1070  144.5280 N   0  0  0  0  0  2  0  0  0  0  0  0
  189.8250  178.1560  143.2330 C   0  0  0  0  0  0  0  0  0  0  0  0
  189.5840  179.1400  142.4810 O   0  0  0  0  0  0  0  0  0  0  0  0
  189.5500  177.1120  145.5360 C   0  0  2  0  0  3  0  0  0  0  0  0
  188.3750  176.9360  146.4860 C   0  0  0  0  0  2  0  0  0  0  0  0
  187.1350  177.6420  145.9650 C   0  0  0  0  0  3  0  0  0  0  0  0
  186.1800  176.6140  145.4140 C   0  0  0  0  0  1  0  0  0  0  0  0
  186.4510  178.4010  147.0900 C   0  0  0  0  0  1  0  0  0  0  0  0
  190.8400  177.4880  146.2830 C   0  0  0  0  0  2  0  0  0  0  0  0
  191.7770  176.3330  146.4450 C   0  0  0  0  0  0  0  0  0  0  0  0
  192.5770  176.2970  147.4240 O   0  0  0  0  0  0  0  0  0  0  0  0
  191.7390  175.2580  145.5140 N   0  0  0  0  0  1  0  0  0  0  0  0
  4  5  1  0  0  0  0
  6 17  1  1  0  0  0
  6  7  1  0  0  0  0
  6 11  1  0  0  0  0
  7  9  1  0  0  0  0
  8 19  1  0  0  0  0
  9  5  1  0  0  0  0
 10 22  1  0  0  0  0
 11 23  1  0  0  0  0
 11  4  1  1  0  0  0
 12 14  1  0  0  0  0
 12 26  1  0  0  0  0
 13  1  1  1  0  0  0
 13 24  1  0  0  0  0
 15 33  1  0  0  0  0
 15 13  1  0  0  0  0
 15 17  1  1  0  0  0
 16 21  1  0  0  0  0
 16  2  1  0  0  0  0
 18  2  1  0  0  0  0
 18 19  1  0  0  0  0
 19  3  1  1  0  0  0
 20 10  2  0  0  0  0
 20 27  1  0  0  0  0
 21 37  1  6  0  0  0
 22  1  1  0  0  0  0
 22 14  2  0  0  0  0
 23 24  1  1  0  0  0
 23  8  1  0  0  0  0
 25 21  1  0  0  0  0
 26 25  1  0  0  0  0
 27 12  2  0  0  0  0
 29 34  1  1  0  0  0
 29 31  1  0  0  0  0
 31 30  1  0  0  0  0
 32 29  1  0  0  0  0
 32 28  1  0  0  0  0
 33 28  1  6  0  0  0
 33 30  1  0  0  0  0
 34 35  1  0  0  0  0
 36 34  1  0  0  0  0
 37 38  1  0  0  0  0
 38 42  1  0  0  0  0
 39 40  1  0  0  0  0
 40 38  1  0  0  0  0
 41 40  1  0  0  0  0
 42 43  1  0  0  0  0
 43 45  1  0  0  0  0
 44 47  1  0  0  0  0
 45 44  1  0  0  0  0
 46 45  2  0  0  0  0
 47 52  1  1  0  0  0
 47 48  1  0  0  0  0
 49 48  1  0  0  0  0
 49 51  1  0  0  0  0
 50 49  1  0  0  0  0
 52 53  1  0  0  0  0
 53 54  2  0  0  0  0
 55 53  1  0  0  0  0
M  END
>  <MODEL>
7

>  <REMARK>
 VINA RESULT:      -2.5      5.116      8.625
  Name = 
  13 active torsions:
  status: ('A' for Active; 'I' for Inactive)
    1  A    between atoms: C_1  and  C_53
    2  A    between atoms: N_3  and  C_38
    3  A    between atoms: C_6  and  C_12
    4  A    between atoms: C_6  and  C_46
    5  A    between atoms: O_8  and  N_22
    6  A    between atoms: O_8  and  C_43
    7  A    between atoms: C_10  and  C_32
    8  A    between atoms: C_11  and  C_29
    9  A    between atoms: C_20  and  N_22
   10  A    between atoms: N_22  and  C_46
   11  A    between atoms: C_29  and  C_38
   12  A    between atoms: C_33  and  N_52
   13  A    between atoms: C_38  and  C_53
                            x       y       z     vdW  Elec       q    Type
                         _______ _______ _______ _____ _____    ______ ____

>  <TORSDO>
F 13

$$$$
=
 OpenBabel10272401183D

 55 59  0  0  1  0  0  0  0  0999 V2000
  184.0710  175.3030  136.7600 C   0  0  0  0  0  2  0  0  0  0  0  0
  187.6700  178.1030  140.3370 C   0  0  0  0  0  2  0  0  0  0  0  0
  185.7960  179.0560  142.3200 O   0  0  0  0  0  1  0  0  0  0  0  0
  181.7600  178.4570  140.7460 C   0  0  0  0  0  2  0  0  0  0  0  0
  180.8190  179.6600  140.8390 C   0  0  0  0  0  2  0  0  0  0  0  0
  181.8230  178.6970  138.2120 C   0  0  1  0  0  3  0  0  0  0  0  0
  180.8800  179.8990  138.3200 C   0  0  0  0  0  2  0  0  0  0  0  0
  184.6620  177.6460  140.7630 C   0  0  0  0  0  2  0  0  0  0  0  0
  179.9820  179.7930  139.5640 C   0  0  0  0  0  2  0  0  0  0  0  0
  185.7220  176.7800  135.5950 C   0  0  0  0  0  3  0  0  0  0  0  0
  182.6560  178.6210  139.5120 C   0  0  2  0  0  3  0  0  0  0  0  0
  187.7220  176.0610  137.4270 C   0  0  0  0  0  0  0  0  0  0  0  0
  183.2080  176.2680  137.5630 C   0  0  1  0  0  3  0  0  0  0  0  0
  186.4470  175.4990  137.5210 C   0  0  0  0  0  3  0  0  0  0  0  0
  181.7020  176.2600  137.2450 C   0  0  2  0  0  3  0  0  0  0  0  0
  188.8760  178.4060  139.4700 C   0  0  0  0  0  2  0  0  0  0  0  0
  180.9910  177.4220  137.9770 C   0  0  0  0  0  2  0  0  0  0  0  0
  186.5860  179.1310  140.0560 C   0  0  0  0  0  2  0  0  0  0  0  0
  185.3890  178.9670  140.9900 C   0  0  2  0  0  3  0  0  0  0  0  0
  186.9960  177.3390  135.4920 C   0  0  0  0  0  3  0  0  0  0  0  0
  189.9280  177.3260  139.6540 C   0  0  1  0  0  3  0  0  0  0  0  0
  185.4480  175.8510  136.6060 C   0  0  0  0  0  0  0  0  0  0  0  0
  183.8680  177.6650  139.4620 C   0  0  2  0  0  3  0  0  0  0  0  0
  183.5100  176.2480  139.0510 C   0  0  0  0  0  2  0  0  0  0  0  0
  189.9460  176.3690  138.4690 C   0  0  0  0  0  2  0  0  0  0  0  0
  188.6990  175.6910  138.3610 O   0  0  0  0  0  0  0  0  0  0  0  0
  187.9940  176.9810  136.4050 C   0  0  0  0  0  3  0  0  0  0  0  0
  179.9840  174.6000  136.6410 C   0  0  0  0  0  2  0  0  0  0  0  0
  181.5750  173.2490  135.2200 C   0  0  2  0  0  3  0  0  0  0  0  0
  182.0350  173.8610  137.6230 C   0  0  0  0  0  2  0  0  0  0  0  0
  182.6560  173.5800  136.2500 C   0  0  0  0  0  2  0  0  0  0  0  0
  180.5050  174.3400  135.2200 C   0  0  0  0  0  2  0  0  0  0  0  0
  181.0620  174.9620  137.5790 N   0  0  1  0  0  0  0  0  0  0  0  0
  180.9630  171.8670  135.4460 C   0  0  0  0  0  3  0  0  0  0  0  0
  181.9610  170.8960  135.4850 O   0  0  0  0  0  1  0  0  0  0  0  0
  180.0780  171.5720  134.4090 O   0  0  0  0  0  1  0  0  0  0  0  0
  191.1820  177.9290  139.7910 O   0  0  0  0  0  0  0  0  0  0  0  0
  191.9190  177.0590  140.5300 N   0  0  0  0  0  0  0  0  0  0  0  0
  194.1020  176.2630  140.7510 F   0  0  0  0  0  0  0  0  0  0  0  0
  193.2670  177.0500  139.9740 C   0  0  0  0  0  3  0  0  0  0  0  0
  193.7730  178.3380  139.9430 F   0  0  0  0  0  0  0  0  0  0  0  0
  192.0170  177.6160  141.8760 C   0  0  0  0  0  2  0  0  0  0  0  0
  190.6300  177.7640  142.4870 C   0  0  0  0  0  2  0  0  0  0  0  0
  189.5610  176.3550  144.3270 N   0  0  0  0  0  2  0  0  0  0  0  0
  190.0830  176.4590  142.9980 C   0  0  0  0  0  0  0  0  0  0  0  0
  190.0320  175.4520  142.2390 O   0  0  0  0  0  0  0  0  0  0  0  0
  189.4160  177.4910  145.2250 C   0  0  2  0  0  3  0  0  0  0  0  0
  190.6340  177.5810  146.1310 C   0  0  0  0  0  2  0  0  0  0  0  0
  190.5210  176.6240  147.3050 C   0  0  0  0  0  3  0  0  0  0  0  0
  191.5860  175.5640  147.1800 C   0  0  0  0  0  1  0  0  0  0  0  0
  190.7170  177.3720  148.6130 C   0  0  0  0  0  1  0  0  0  0  0  0
  188.1090  177.4020  146.0290 C   0  0  0  0  0  2  0  0  0  0  0  0
  186.8900  177.5850  145.1820 C   0  0  0  0  0  0  0  0  0  0  0  0
  186.4830  176.6440  144.4420 O   0  0  0  0  0  0  0  0  0  0  0  0
  186.1690  178.8100  145.2390 N   0  0  0  0  0  1  0  0  0  0  0  0
  4  5  1  0  0  0  0
  6 17  1  1  0  0  0
  6  7  1  0  0  0  0
  6 11  1  0  0  0  0
  7  9  1  0  0  0  0
  8 19  1  0  0  0  0
  9  5  1  0  0  0  0
 10 22  1  0  0  0  0
 11  4  1  1  0  0  0
 12 14  1  0  0  0  0
 12 26  1  0  0  0  0
 13  1  1  6  0  0  0
 13 24  1  0  0  0  0
 15 13  1  0  0  0  0
 15 33  1  0  0  0  0
 15 17  1  1  0  0  0
 16 21  1  0  0  0  0
 16  2  1  0  0  0  0
 18  2  1  0  0  0  0
 18 19  1  0  0  0  0
 19  3  1  1  0  0  0
 20 10  2  0  0  0  0
 20 27  1  0  0  0  0
 21 37  1  6  0  0  0
 22  1  1  0  0  0  0
 22 14  2  0  0  0  0
 23 24  1  1  0  0  0
 23 11  1  0  0  0  0
 23  8  1  0  0  0  0
 25 21  1  0  0  0  0
 26 25  1  0  0  0  0
 27 12  2  0  0  0  0
 29 34  1  1  0  0  0
 29 31  1  0  0  0  0
 31 30  1  0  0  0  0
 32 29  1  0  0  0  0
 32 28  1  0  0  0  0
 33 28  1  6  0  0  0
 33 30  1  0  0  0  0
 34 35  1  0  0  0  0
 36 34  1  0  0  0  0
 37 38  1  0  0  0  0
 38 42  1  0  0  0  0
 40 38  1  0  0  0  0
 40 39  1  0  0  0  0
 41 40  1  0  0  0  0
 42 43  1  0  0  0  0
 43 45  1  0  0  0  0
 44 47  1  0  0  0  0
 45 44  1  0  0  0  0
 46 45  2  0  0  0  0
 47 52  1  1  0  0  0
 47 48  1  0  0  0  0
 48 49  1  0  0  0  0
 49 51  1  0  0  0  0
 50 49  1  0  0  0  0
 53 55  1  0  0  0  0
 53 52  1  0  0  0  0
 54 53  2  0  0  0  0
M  END
>  <MODEL>
8

>  <REMARK>
 VINA RESULT:      -2.4      5.215      8.460
  Name = 
  13 active torsions:
  status: ('A' for Active; 'I' for Inactive)
    1  A    between atoms: C_1  and  C_53
    2  A    between atoms: N_3  and  C_38
    3  A    between atoms: C_6  and  C_12
    4  A    between atoms: C_6  and  C_46
    5  A    between atoms: O_8  and  N_22
    6  A    between atoms: O_8  and  C_43
    7  A    between atoms: C_10  and  C_32
    8  A    between atoms: C_11  and  C_29
    9  A    between atoms: C_20  and  N_22
   10  A    between atoms: N_22  and  C_46
   11  A    between atoms: C_29  and  C_38
   12  A    between atoms: C_33  and  N_52
   13  A    between atoms: C_38  and  C_53
                            x       y       z     vdW  Elec       q    Type
                         _______ _______ _______ _____ _____    ______ ____

>  <TORSDO>
F 13

$$$$
=
 OpenBabel10272401183D

 55 59  0  0  1  0  0  0  0  0999 V2000
  186.3100  178.7630  140.9120 C   0  0  0  0  0  2  0  0  0  0  0  0
  190.4920  176.5050  137.5960 C   0  0  0  0  0  2  0  0  0  0  0  0
  189.0550  176.1520  135.1140 O   0  0  0  0  0  1  0  0  0  0  0  0
  184.7990  176.7280  135.9380 C   0  0  0  0  0  2  0  0  0  0  0  0
  183.8580  175.6520  135.3890 C   0  0  0  0  0  2  0  0  0  0  0  0
  184.3090  175.9500  138.3120 C   0  0  1  0  0  3  0  0  0  0  0  0
  183.3700  174.8790  137.7490 C   0  0  0  0  0  2  0  0  0  0  0  0
  187.6640  177.2850  136.6880 C   0  0  0  0  0  2  0  0  0  0  0  0
  182.7630  175.3200  136.4070 C   0  0  0  0  0  2  0  0  0  0  0  0
  187.6220  176.9430  142.0220 C   0  0  0  0  0  3  0  0  0  0  0  0
  185.4030  176.2330  137.2580 C   0  0  2  0  0  3  0  0  0  0  0  0
  189.9920  177.8700  140.8400 C   0  0  0  0  0  0  0  0  0  0  0  0
  185.6070  178.0650  139.7560 C   0  0  1  0  0  3  0  0  0  0  0  0
  188.7860  178.5410  140.6210 C   0  0  0  0  0  3  0  0  0  0  0  0
  184.0680  178.1270  139.7580 C   0  0  2  0  0  3  0  0  0  0  0  0
  191.4740  175.9280  138.5960 C   0  0  0  0  0  2  0  0  0  0  0  0
  183.4910  177.2090  138.6560 C   0  0  0  0  0  2  0  0  0  0  0  0
  189.3390  175.5330  137.4140 C   0  0  0  0  0  2  0  0  0  0  0  0
  188.3750  175.9880  136.3200 C   0  0  2  0  0  3  0  0  0  0  0  0
  188.8240  176.2730  142.2520 C   0  0  0  0  0  3  0  0  0  0  0  0
  192.5780  176.9330  138.8760 C   0  0  1  0  0  3  0  0  0  0  0  0
  187.6030  178.0850  141.2130 C   0  0  0  0  0  0  0  0  0  0  0  0
  186.6090  177.0550  137.7640 C   0  0  2  0  0  3  0  0  0  0  0  0
  186.2200  178.3760  138.4020 C   0  0  0  0  0  2  0  0  0  0  0  0
  192.3750  177.6110  140.2250 C   0  0  0  0  0  2  0  0  0  0  0  0
  191.1580  178.3500  140.2300 O   0  0  0  0  0  0  0  0  0  0  0  0
  190.0060  176.7350  141.6620 C   0  0  0  0  0  3  0  0  0  0  0  0
  182.8840  179.7320  138.3110 C   0  0  0  0  0  2  0  0  0  0  0  0
  180.6290  179.2060  139.3190 C   0  0  2  0  0  3  0  0  0  0  0  0
  182.6380  179.8880  140.6840 C   0  0  0  0  0  2  0  0  0  0  0  0
  181.3490  179.0590  140.6610 C   0  0  0  0  0  2  0  0  0  0  0  0
  181.5970  178.9050  138.1760 C   0  0  0  0  0  2  0  0  0  0  0  0
  183.5600  179.5140  139.6030 N   0  0  1  0  0  0  0  0  0  0  0  0
  179.9820  180.5810  139.1560 C   0  0  0  0  0  3  0  0  0  0  0  0
  180.5080  181.2360  138.0450 O   0  0  0  0  0  1  0  0  0  0  0  0
  180.2220  181.3490  140.2950 O   0  0  0  0  0  1  0  0  0  0  0  0
  193.8100  176.2730  138.8610 O   0  0  0  0  0  0  0  0  0  0  0  0
  193.8030  175.5270  137.7250 N   0  0  0  0  0  0  0  0  0  0  0  0
  195.1670  176.0100  135.8930 F   0  0  0  0  0  0  0  0  0  0  0  0
  194.0580  176.4320  136.6100 C   0  0  0  0  0  3  0  0  0  0  0  0
  194.2960  177.7110  137.0850 F   0  0  0  0  0  0  0  0  0  0  0  0
  194.9410  174.6160  137.8040 C   0  0  0  0  0  2  0  0  0  0  0  0
  194.5720  173.2600  137.2150 C   0  0  0  0  0  2  0  0  0  0  0  0
  196.6150  171.7360  137.1350 N   0  0  0  0  0  2  0  0  0  0  0  0
  195.4030  172.1420  137.7800 C   0  0  0  0  0  0  0  0  0  0  0  0
  195.0670  171.5830  138.8590 O   0  0  0  0  0  0  0  0  0  0  0  0
  197.1830  172.4220  135.9840 C   0  0  2  0  0  3  0  0  0  0  0  0
  196.9650  171.5830  134.7350 C   0  0  0  0  0  2  0  0  0  0  0  0
  196.2890  170.2630  135.0670 C   0  0  0  0  0  3  0  0  0  0  0  0
  194.8870  170.2770  134.5100 C   0  0  0  0  0  1  0  0  0  0  0  0
  197.0580  169.1080  134.4490 C   0  0  0  0  0  1  0  0  0  0  0  0
  198.6690  172.7450  136.2060 C   0  0  0  0  0  2  0  0  0  0  0  0
  198.8970  174.1480  136.6720 C   0  0  0  0  0  0  0  0  0  0  0  0
  197.9160  174.8800  136.9890 O   0  0  0  0  0  0  0  0  0  0  0  0
  200.2260  174.6440  136.7930 N   0  0  0  0  0  1  0  0  0  0  0  0
  1 22  1  0  0  0  0
  2 16  1  0  0  0  0
  5  4  1  0  0  0  0
  5  9  1  0  0  0  0
  6  7  1  6  0  0  0
  6 17  1  0  0  0  0
  9  7  1  0  0  0  0
 10 20  1  0  0  0  0
 11  4  1  6  0  0  0
 11 23  1  0  0  0  0
 11  6  1  0  0  0  0
 12 27  1  0  0  0  0
 13 24  1  6  0  0  0
 13 15  1  0  0  0  0
 13  1  1  0  0  0  0
 14 12  2  0  0  0  0
 14 22  1  0  0  0  0
 15 17  1  6  0  0  0
 16 21  1  0  0  0  0
 18  2  1  0  0  0  0
 19  3  1  6  0  0  0
 19  8  1  0  0  0  0
 19 18  1  0  0  0  0
 21 37  1  1  0  0  0
 21 25  1  0  0  0  0
 22 10  2  0  0  0  0
 23  8  1  6  0  0  0
 23 24  1  0  0  0  0
 25 26  1  0  0  0  0
 26 12  1  0  0  0  0
 27 20  2  0  0  0  0
 29 34  1  6  0  0  0
 29 31  1  0  0  0  0
 31 30  1  0  0  0  0
 32 28  1  0  0  0  0
 32 29  1  0  0  0  0
 33 28  1  6  0  0  0
 33 15  1  0  0  0  0
 33 30  1  0  0  0  0
 34 36  1  0  0  0  0
 35 34  1  0  0  0  0
 38 42  1  0  0  0  0
 38 37  1  0  0  0  0
 39 40  1  0  0  0  0
 40 41  1  0  0  0  0
 40 38  1  0  0  0  0
 43 45  1  0  0  0  0
 43 42  1  0  0  0  0
 44 45  1  0  0  0  0
 45 46  2  0  0  0  0
 47 48  1  6  0  0  0
 47 52  1  0  0  0  0
 47 44  1  0  0  0  0
 48 49  1  0  0  0  0
 50 49  1  0  0  0  0
 51 49  1  0  0  0  0
 52 53  1  0  0  0  0
 53 55  1  0  0  0  0
 53 54  2  0  0  0  0
M  END
>  <MODEL>
9

>  <REMARK>
 VINA RESULT:      -2.3      2.395      3.477
  Name = 
  13 active torsions:
  status: ('A' for Active; 'I' for Inactive)
    1  A    between atoms: C_1  and  C_53
    2  A    between atoms: N_3  and  C_38
    3  A    between atoms: C_6  and  C_12
    4  A    between atoms: C_6  and  C_46
    5  A    between atoms: O_8  and  N_22
    6  A    between atoms: O_8  and  C_43
    7  A    between atoms: C_10  and  C_32
    8  A    between atoms: C_11  and  C_29
    9  A    between atoms: C_20  and  N_22
   10  A    between atoms: N_22  and  C_46
   11  A    between atoms: C_29  and  C_38
   12  A    between atoms: C_33  and  N_52
   13  A    between atoms: C_38  and  C_53
                            x       y       z     vdW  Elec       q    Type
                         _______ _______ _______ _____ _____    ______ ____

>  <TORSDO>
F 13

$$$$
