=
 OpenBabel10262423523D

 34 39  0  0  1  0  0  0  0  0999 V2000
  184.7880  178.4570  145.2270 C   0  0  0  0  0  0  0  0  0  0  0  0
  185.1810  179.1210  142.9040 C   0  0  0  0  0  0  0  0  0  0  0  0
  187.0100  177.9630  144.3380 C   0  0  0  0  0  0  0  0  0  0  0  0
  189.2180  177.2670  143.6240 C   0  0  0  0  0  0  0  0  0  0  0  0
  182.9240  178.9820  143.6480 C   0  0  0  0  0  3  0  0  0  0  0  0
  183.7690  179.1060  142.6700 N   0  0  0  0  0  0  0  0  0  0  0  0
  187.7730  177.9590  141.9840 N   0  0  0  0  0  0  0  0  0  0  0  0
  185.7010  178.5050  144.1540 C   0  0  0  0  0  0  0  0  0  0  0  0
  188.9900  177.8230  139.8640 N   0  0  0  0  0  2  0  0  0  0  0  0
  190.1500  177.0890  142.2420 S   0  0  0  0  0  0  0  0  0  0  0  0
  183.3830  178.9760  145.0800 C   0  0  0  0  0  2  0  0  0  0  0  0
  186.4730  177.5800  146.6620 N   0  0  0  0  0  0  0  0  0  0  0  0
  185.2030  178.0100  146.4770 C   0  0  0  0  0  3  0  0  0  0  0  0
  185.9290  179.7300  142.0980 O   0  0  0  0  0  0  0  0  0  0  0  0
  189.5810  176.9310  144.8800 N   0  0  0  0  0  0  0  0  0  0  0  0
  188.6860  177.0480  145.9040 C   0  0  0  0  0  0  0  0  0  0  0  0
  188.8850  177.6470  141.2760 C   0  0  0  0  0  0  0  0  0  0  0  0
  187.9640  177.7630  143.3140 C   0  0  0  0  0  0  0  0  0  0  0  0
  187.3820  177.5370  145.6520 C   0  0  0  0  0  0  0  0  0  0  0  0
  191.1700  177.9920  148.0560 N   0  0  0  0  0  0  0  0  0  0  0  0
  191.9440  176.9800  147.8080 C   0  0  0  0  0  3  0  0  0  0  0  0
  189.1180  176.6870  147.2990 C   0  0  2  0  0  3  0  0  0  0  0  0
  191.3820  175.6650  147.4570 C   0  0  0  0  0  3  0  0  0  0  0  0
  189.7450  177.8880  147.9540 C   0  0  0  0  0  0  0  0  0  0  0  0
  190.0710  175.5170  147.2600 C   0  0  0  0  0  3  0  0  0  0  0  0
  189.0180  178.8260  148.3760 O   0  0  0  0  0  0  0  0  0  0  0  0
  187.9440  178.3890  139.1230 N   0  0  0  0  0  2  0  0  0  0  0  0
  189.0790  176.8450  137.6050 C   0  0  0  0  0  2  0  0  0  0  0  0
  187.7670  177.5600  137.9420 C   0  0  2  0  0  3  0  0  0  0  0  0
  188.9040  175.9690  136.3690 C   0  0  0  0  0  2  0  0  0  0  0  0
  189.4450  177.6900  134.7860 O   0  0  0  0  0  1  0  0  0  0  0  0
  187.1520  177.5680  135.5120 C   0  0  0  0  0  2  0  0  0  0  0  0
  187.3300  178.4310  136.7660 C   0  0  0  0  0  2  0  0  0  0  0  0
  188.4390  176.8030  135.1740 C   0  0  2  0  0  3  0  0  0  0  0  0
  1 13  1  0  0  0  0
  2  8  1  0  0  0  0
  3 19  1  0  0  0  0
  4 15  2  0  0  0  0
  5 11  1  0  0  0  0
  6  2  1  0  0  0  0
  6  5  2  0  0  0  0
  7 18  1  0  0  0  0
  8  3  1  0  0  0  0
  8  1  2  0  0  0  0
  9 17  1  0  0  0  0
 10  4  1  0  0  0  0
 11  1  1  0  0  0  0
 13 12  2  0  0  0  0
 14  2  2  0  0  0  0
 15 16  1  0  0  0  0
 17  7  2  0  0  0  0
 17 10  1  0  0  0  0
 18  4  1  0  0  0  0
 18  3  2  0  0  0  0
 19 16  2  0  0  0  0
 19 12  1  0  0  0  0
 21 20  2  0  0  0  0
 22 16  1  6  0  0  0
 22 24  1  0  0  0  0
 23 21  1  0  0  0  0
 24 20  1  0  0  0  0
 24 26  2  0  0  0  0
 25 22  1  0  0  0  0
 25 23  2  0  0  0  0
 27  9  1  0  0  0  0
 28 29  1  0  0  0  0
 29 27  1  1  0  0  0
 30 28  1  0  0  0  0
 32 33  1  0  0  0  0
 33 29  1  0  0  0  0
 34 31  1  1  0  0  0
 34 32  1  0  0  0  0
 34 30  1  0  0  0  0
M  END
>  <MODEL>
1

>  <REMARK>
 VINA RESULT:      -9.1      0.000      0.000
  Name = 
  3 active torsions:
  status: ('A' for Active; 'I' for Inactive)
    1  A    between atoms: N_3  and  C_13
    2  A    between atoms: N_3  and  N_17
    3  A    between atoms: C_12  and  C_28
                            x       y       z     vdW  Elec       q    Type
                         _______ _______ _______ _____ _____    ______ ____

>  <TORSDO>
F 3

$$$$
=
 OpenBabel10262423523D

 34 39  0  0  1  0  0  0  0  0999 V2000
  189.9020  176.9840  137.4570 C   0  0  0  0  0  0  0  0  0  0  0  0
  187.5210  177.3060  136.9850 C   0  0  0  0  0  0  0  0  0  0  0  0
  188.5180  177.6480  139.3580 C   0  0  0  0  0  0  0  0  0  0  0  0
  187.3620  178.4250  141.3410 C   0  0  0  0  0  0  0  0  0  0  0  0
  189.0220  177.2790  135.1370 C   0  0  0  0  0  3  0  0  0  0  0  0
  187.8320  177.5100  135.6030 N   0  0  0  0  0  0  0  0  0  0  0  0
  186.2200  178.5660  139.3590 N   0  0  0  0  0  0  0  0  0  0  0  0
  188.6330  177.3180  137.9740 C   0  0  0  0  0  0  0  0  0  0  0  0
  184.0070  179.4770  139.8790 N   0  0  0  0  0  2  0  0  0  0  0  0
  185.9030  179.0920  141.8280 S   0  0  0  0  0  0  0  0  0  0  0  0
  190.0910  176.6650  135.9990 C   0  0  0  0  0  2  0  0  0  0  0  0
  190.8480  177.0800  139.6400 N   0  0  0  0  0  0  0  0  0  0  0  0
  190.9890  176.8500  138.3130 C   0  0  0  0  0  3  0  0  0  0  0  0
  186.3390  177.0320  137.3130 O   0  0  0  0  0  0  0  0  0  0  0  0
  188.4340  178.1920  142.1270 N   0  0  0  0  0  0  0  0  0  0  0  0
  189.5940  177.7260  141.5790 C   0  0  0  0  0  0  0  0  0  0  0  0
  185.3240  179.0650  140.2440 C   0  0  0  0  0  0  0  0  0  0  0  0
  187.3660  178.1860  139.9790 C   0  0  0  0  0  0  0  0  0  0  0  0
  189.6690  177.4720  140.1890 C   0  0  0  0  0  0  0  0  0  0  0  0
  190.0720  176.5870  144.7680 N   0  0  0  0  0  0  0  0  0  0  0  0
  190.2400  177.7610  145.2980 C   0  0  0  0  0  3  0  0  0  0  0  0
  190.7710  177.4540  142.4770 C   0  0  2  0  0  3  0  0  0  0  0  0
  190.8590  178.8550  144.5320 C   0  0  0  0  0  3  0  0  0  0  0  0
  190.4350  176.3200  143.4090 C   0  0  0  0  0  0  0  0  0  0  0  0
  191.1420  178.7030  143.2370 C   0  0  0  0  0  3  0  0  0  0  0  0
  190.4320  175.1350  142.9830 O   0  0  0  0  0  0  0  0  0  0  0  0
  183.5410  179.3360  138.5650 N   0  0  0  0  0  2  0  0  0  0  0  0
  181.4390  179.3010  137.3160 C   0  0  0  0  0  2  0  0  0  0  0  0
  182.1770  179.8420  138.5450 C   0  0  2  0  0  3  0  0  0  0  0  0
  180.0060  179.8220  137.2860 C   0  0  0  0  0  2  0  0  0  0  0  0
  180.5160  181.8360  136.0840 O   0  0  0  0  0  1  0  0  0  0  0  0
  180.7660  181.9110  138.4780 C   0  0  0  0  0  2  0  0  0  0  0  0
  182.1980  181.3690  138.5120 C   0  0  0  0  0  2  0  0  0  0  0  0
  179.9850  181.3520  137.2810 C   0  0  2  0  0  3  0  0  0  0  0  0
  1  8  2  0  0  0  0
  1 13  1  0  0  0  0
  2 14  2  0  0  0  0
  2  8  1  0  0  0  0
  3 18  2  0  0  0  0
  3 19  1  0  0  0  0
  4 10  1  0  0  0  0
  4 15  2  0  0  0  0
  5  6  2  0  0  0  0
  5 11  1  0  0  0  0
  6  2  1  0  0  0  0
  7 18  1  0  0  0  0
  7 17  2  0  0  0  0
  8  3  1  0  0  0  0
  9 17  1  0  0  0  0
 11  1  1  0  0  0  0
 12 19  1  0  0  0  0
 13 12  2  0  0  0  0
 16 15  1  0  0  0  0
 17 10  1  0  0  0  0
 18  4  1  0  0  0  0
 19 16  2  0  0  0  0
 20 21  2  0  0  0  0
 22 16  1  1  0  0  0
 22 25  1  0  0  0  0
 22 24  1  0  0  0  0
 23 21  1  0  0  0  0
 24 20  1  0  0  0  0
 25 23  2  0  0  0  0
 26 24  2  0  0  0  0
 27  9  1  0  0  0  0
 28 29  1  0  0  0  0
 29 27  1  6  0  0  0
 30 28  1  0  0  0  0
 32 33  1  0  0  0  0
 33 29  1  0  0  0  0
 34 31  1  6  0  0  0
 34 30  1  0  0  0  0
 34 32  1  0  0  0  0
M  END
>  <MODEL>
2

>  <REMARK>
 VINA RESULT:      -8.9      3.784      6.793
  Name = 
  3 active torsions:
  status: ('A' for Active; 'I' for Inactive)
    1  A    between atoms: N_3  and  C_13
    2  A    between atoms: N_3  and  N_17
    3  A    between atoms: C_12  and  C_28
                            x       y       z     vdW  Elec       q    Type
                         _______ _______ _______ _____ _____    ______ ____

>  <TORSDO>
F 3

$$$$
=
 OpenBabel10262423523D

 34 39  0  0  1  0  0  0  0  0999 V2000
  189.8080  177.0960  137.4020 C   0  0  0  0  0  0  0  0  0  0  0  0
  187.4190  177.4360  136.9920 C   0  0  0  0  0  0  0  0  0  0  0  0
  188.4660  177.6980  139.3530 C   0  0  0  0  0  0  0  0  0  0  0  0
  187.3550  178.4100  141.3850 C   0  0  0  0  0  0  0  0  0  0  0  0
  188.8790  177.4680  135.1120 C   0  0  0  0  0  3  0  0  0  0  0  0
  187.6990  177.6850  135.6110 N   0  0  0  0  0  0  0  0  0  0  0  0
  186.1710  178.6180  139.4330 N   0  0  0  0  0  0  0  0  0  0  0  0
  188.5510  177.4140  137.9560 C   0  0  0  0  0  0  0  0  0  0  0  0
  183.9720  179.5140  140.0310 N   0  0  0  0  0  2  0  0  0  0  0  0
  185.9080  179.0620  141.9250 S   0  0  0  0  0  0  0  0  0  0  0  0
  189.9660  176.8260  135.9290 C   0  0  0  0  0  2  0  0  0  0  0  0
  190.8020  177.1190  139.5650 N   0  0  0  0  0  0  0  0  0  0  0  0
  190.9130  176.9320  138.2290 C   0  0  0  0  0  3  0  0  0  0  0  0
  186.2430  177.1530  137.3360 O   0  0  0  0  0  0  0  0  0  0  0  0
  188.4430  178.1500  142.1400 N   0  0  0  0  0  0  0  0  0  0  0  0
  189.5910  177.7010  141.5510 C   0  0  0  0  0  0  0  0  0  0  0  0
  185.2950  179.0890  140.3540 C   0  0  0  0  0  0  0  0  0  0  0  0
  187.3290  178.2170  140.0160 C   0  0  0  0  0  0  0  0  0  0  0  0
  189.6350  177.4930  140.1530 C   0  0  0  0  0  0  0  0  0  0  0  0
  190.1330  176.5580  144.7280 N   0  0  0  0  0  0  0  0  0  0  0  0
  190.3490  177.7270  145.2490 C   0  0  0  0  0  3  0  0  0  0  0  0
  190.7860  177.3980  142.4140 C   0  0  2  0  0  3  0  0  0  0  0  0
  190.9760  178.8020  144.4610 C   0  0  0  0  0  3  0  0  0  0  0  0
  190.4460  176.2770  143.3600 C   0  0  0  0  0  0  0  0  0  0  0  0
  191.2150  178.6390  143.1590 C   0  0  0  0  0  3  0  0  0  0  0  0
  190.3970  175.0910  142.9380 O   0  0  0  0  0  0  0  0  0  0  0  0
  183.4760  179.4160  138.7240 N   0  0  0  0  0  2  0  0  0  0  0  0
  181.9030  178.3340  140.2500 C   0  0  0  0  0  2  0  0  0  0  0  0
  182.1580  178.8090  138.8160 C   0  0  2  0  0  3  0  0  0  0  0  0
  180.5210  177.6980  140.3600 C   0  0  0  0  0  2  0  0  0  0  0  0
  181.2350  175.4850  139.7630 O   0  0  0  0  0  1  0  0  0  0  0  0
  180.6880  176.9740  137.9500 C   0  0  0  0  0  2  0  0  0  0  0  0
  182.0700  177.6280  137.8510 C   0  0  0  0  0  2  0  0  0  0  0  0
  180.3840  176.5260  139.3860 C   0  0  2  0  0  3  0  0  0  0  0  0
  1  8  2  0  0  0  0
  1 13  1  0  0  0  0
  2 14  2  0  0  0  0
  2  8  1  0  0  0  0
  3 18  2  0  0  0  0
  3 19  1  0  0  0  0
  4 10  1  0  0  0  0
  4 15  2  0  0  0  0
  5  6  2  0  0  0  0
  5 11  1  0  0  0  0
  6  2  1  0  0  0  0
  7 18  1  0  0  0  0
  7 17  2  0  0  0  0
  8  3  1  0  0  0  0
  9 17  1  0  0  0  0
 11  1  1  0  0  0  0
 12 19  1  0  0  0  0
 13 12  2  0  0  0  0
 16 15  1  0  0  0  0
 17 10  1  0  0  0  0
 18  4  1  0  0  0  0
 19 16  2  0  0  0  0
 20 21  2  0  0  0  0
 22 16  1  1  0  0  0
 22 25  1  0  0  0  0
 22 24  1  0  0  0  0
 23 21  1  0  0  0  0
 24 20  1  0  0  0  0
 25 23  2  0  0  0  0
 26 24  2  0  0  0  0
 27  9  1  0  0  0  0
 28 30  1  0  0  0  0
 29 27  1  1  0  0  0
 29 28  1  0  0  0  0
 32 34  1  0  0  0  0
 33 32  1  0  0  0  0
 33 29  1  0  0  0  0
 34 31  1  1  0  0  0
 34 30  1  0  0  0  0
M  END
>  <MODEL>
3

>  <REMARK>
 VINA RESULT:      -8.9      3.332      6.660
  Name = 
  3 active torsions:
  status: ('A' for Active; 'I' for Inactive)
    1  A    between atoms: N_3  and  C_13
    2  A    between atoms: N_3  and  N_17
    3  A    between atoms: C_12  and  C_28
                            x       y       z     vdW  Elec       q    Type
                         _______ _______ _______ _____ _____    ______ ____

>  <TORSDO>
F 3

$$$$
=
 OpenBabel10262423523D

 34 39  0  0  1  0  0  0  0  0999 V2000
  183.3450  178.6500  142.9890 C   0  0  0  0  0  0  0  0  0  0  0  0
  184.5550  179.0960  140.9080 C   0  0  0  0  0  0  0  0  0  0  0  0
  185.7610  178.2910  143.0610 C   0  0  0  0  0  0  0  0  0  0  0  0
  188.1090  177.7480  143.3180 C   0  0  0  0  0  0  0  0  0  0  0  0
  182.1950  178.8110  140.7760 C   0  0  0  0  0  3  0  0  0  0  0  0
  183.3410  178.9150  140.1720 N   0  0  0  0  0  0  0  0  0  0  0  0
  187.3600  178.1090  141.1810 N   0  0  0  0  0  0  0  0  0  0  0  0
  184.5930  178.6740  142.3340 C   0  0  0  0  0  0  0  0  0  0  0  0
  189.2960  177.8700  139.7020 N   0  0  0  0  0  2  0  0  0  0  0  0
  189.5040  177.5170  142.4170 S   0  0  0  0  0  0  0  0  0  0  0  0
  182.0760  179.0060  142.2620 C   0  0  0  0  0  2  0  0  0  0  0  0
  184.4040  178.1070  145.0510 N   0  0  0  0  0  0  0  0  0  0  0  0
  183.2780  178.3840  144.3520 C   0  0  0  0  0  3  0  0  0  0  0  0
  185.5200  179.6870  140.3600 O   0  0  0  0  0  0  0  0  0  0  0  0
  187.9850  177.5880  144.6520 N   0  0  0  0  0  0  0  0  0  0  0  0
  186.7630  177.7230  145.2460 C   0  0  0  0  0  0  0  0  0  0  0  0
  188.6720  177.8370  140.9850 C   0  0  0  0  0  0  0  0  0  0  0  0
  187.0420  178.0780  142.5010 C   0  0  0  0  0  0  0  0  0  0  0  0
  185.6290  178.0480  144.4650 C   0  0  0  0  0  0  0  0  0  0  0  0
  188.0710  179.2440  148.0150 N   0  0  0  0  0  0  0  0  0  0  0  0
  188.9940  178.3560  148.2230 C   0  0  0  0  0  3  0  0  0  0  0  0
  186.6510  177.5590  146.7370 C   0  0  2  0  0  3  0  0  0  0  0  0
  188.7750  176.9410  147.8790 C   0  0  0  0  0  3  0  0  0  0  0  0
  186.8240  178.8990  147.4000 C   0  0  0  0  0  0  0  0  0  0  0  0
  187.6740  176.5630  147.2270 C   0  0  0  0  0  3  0  0  0  0  0  0
  185.8850  179.7380  147.3800 O   0  0  0  0  0  0  0  0  0  0  0  0
  188.5810  178.2450  138.5560 N   0  0  0  0  0  2  0  0  0  0  0  0
  188.1830  176.0720  137.5080 C   0  0  0  0  0  2  0  0  0  0  0  0
  189.0100  177.3620  137.4830 C   0  0  2  0  0  3  0  0  0  0  0  0
  188.6220  175.1390  136.3850 C   0  0  0  0  0  2  0  0  0  0  0  0
  190.3470  174.0480  137.6480 O   0  0  0  0  0  1  0  0  0  0  0  0
  190.9510  176.0950  136.5320 C   0  0  0  0  0  2  0  0  0  0  0  0
  190.4930  177.0360  137.6510 C   0  0  0  0  0  2  0  0  0  0  0  0
  190.1120  174.8110  136.5030 C   0  0  2  0  0  3  0  0  0  0  0  0
  1 13  1  0  0  0  0
  2  8  1  0  0  0  0
  3 19  1  0  0  0  0
  4 15  2  0  0  0  0
  5 11  1  0  0  0  0
  6  5  2  0  0  0  0
  6  2  1  0  0  0  0
  7 18  1  0  0  0  0
  8  1  2  0  0  0  0
  8  3  1  0  0  0  0
  9 17  1  0  0  0  0
 10  4  1  0  0  0  0
 11  1  1  0  0  0  0
 13 12  2  0  0  0  0
 14  2  2  0  0  0  0
 15 16  1  0  0  0  0
 17  7  2  0  0  0  0
 17 10  1  0  0  0  0
 18  3  2  0  0  0  0
 18  4  1  0  0  0  0
 19 12  1  0  0  0  0
 19 16  2  0  0  0  0
 20 21  2  0  0  0  0
 22 16  1  6  0  0  0
 22 25  1  0  0  0  0
 22 24  1  0  0  0  0
 23 21  1  0  0  0  0
 24 20  1  0  0  0  0
 25 23  2  0  0  0  0
 26 24  2  0  0  0  0
 27  9  1  0  0  0  0
 29 28  1  0  0  0  0
 29 33  1  0  0  0  0
 29 27  1  1  0  0  0
 30 34  1  0  0  0  0
 30 28  1  0  0  0  0
 32 33  1  0  0  0  0
 34 32  1  0  0  0  0
 34 31  1  1  0  0  0
M  END
>  <MODEL>
4

>  <REMARK>
 VINA RESULT:      -8.8      1.897      2.498
  Name = 
  3 active torsions:
  status: ('A' for Active; 'I' for Inactive)
    1  A    between atoms: N_3  and  C_13
    2  A    between atoms: N_3  and  N_17
    3  A    between atoms: C_12  and  C_28
                            x       y       z     vdW  Elec       q    Type
                         _______ _______ _______ _____ _____    ______ ____

>  <TORSDO>
F 3

$$$$
=
 OpenBabel10262423523D

 34 39  0  0  1  0  0  0  0  0999 V2000
  183.6370  178.7550  141.5360 C   0  0  0  0  0  0  0  0  0  0  0  0
  185.1800  178.4330  143.4090 C   0  0  0  0  0  0  0  0  0  0  0  0
  185.9650  178.3150  140.9370 C   0  0  0  0  0  0  0  0  0  0  0  0
  188.2290  178.0250  140.1240 C   0  0  0  0  0  0  0  0  0  0  0  0
  183.0830  179.4630  143.8670 C   0  0  0  0  0  3  0  0  0  0  0  0
  184.2790  179.1460  144.2630 N   0  0  0  0  0  0  0  0  0  0  0  0
  187.9790  178.4060  142.3710 N   0  0  0  0  0  0  0  0  0  0  0  0
  184.9620  178.4900  141.9390 C   0  0  0  0  0  0  0  0  0  0  0  0
  190.2220  178.3540  143.3520 N   0  0  0  0  0  2  0  0  0  0  0  0
  189.8180  178.0050  140.6590 S   0  0  0  0  0  0  0  0  0  0  0  0
  182.5460  178.9860  142.5460 C   0  0  0  0  0  2  0  0  0  0  0  0
  184.2410  178.4620  139.2520 N   0  0  0  0  0  0  0  0  0  0  0  0
  183.2970  178.7140  140.1880 C   0  0  0  0  0  3  0  0  0  0  0  0
  186.0690  177.7090  143.9250 O   0  0  0  0  0  0  0  0  0  0  0  0
  187.8170  177.9110  138.8450 N   0  0  0  0  0  0  0  0  0  0  0  0
  186.4910  178.0350  138.5410 C   0  0  0  0  0  0  0  0  0  0  0  0
  189.3240  178.2910  142.2460 C   0  0  0  0  0  0  0  0  0  0  0  0
  187.3570  178.2370  141.1770 C   0  0  0  0  0  0  0  0  0  0  0  0
  185.5480  178.2650  139.5700 C   0  0  0  0  0  0  0  0  0  0  0  0
  186.8590  175.7100  136.0600 N   0  0  0  0  0  0  0  0  0  0  0  0
  187.8260  176.3250  135.4520 C   0  0  0  0  0  3  0  0  0  0  0  0
  186.0510  177.8860  137.1100 C   0  0  2  0  0  3  0  0  0  0  0  0
  187.9070  177.7960  135.4530 C   0  0  0  0  0  3  0  0  0  0  0  0
  185.8600  176.4260  136.7970 C   0  0  0  0  0  0  0  0  0  0  0  0
  187.0620  178.5220  136.1880 C   0  0  0  0  0  3  0  0  0  0  0  0
  184.8400  175.8190  137.2180 O   0  0  0  0  0  0  0  0  0  0  0  0
  189.7500  178.4890  144.6650 N   0  0  0  0  0  2  0  0  0  0  0  0
  189.7170  177.3900  146.8480 C   0  0  0  0  0  2  0  0  0  0  0  0
  190.1370  177.2830  145.3790 C   0  0  2  0  0  3  0  0  0  0  0  0
  190.1150  176.1280  147.6070 C   0  0  0  0  0  2  0  0  0  0  0  0
  192.3160  176.8900  148.1880 O   0  0  0  0  0  1  0  0  0  0  0  0
  192.0680  175.8300  146.0400 C   0  0  0  0  0  2  0  0  0  0  0  0
  191.6490  177.0920  145.2790 C   0  0  0  0  0  2  0  0  0  0  0  0
  191.6220  175.8880  147.5070 C   0  0  2  0  0  3  0  0  0  0  0  0
  1  8  1  0  0  0  0
  1 11  1  0  0  0  0
  2 14  2  0  0  0  0
  2  6  1  0  0  0  0
  3 18  1  0  0  0  0
  3  8  2  0  0  0  0
  4 10  1  0  0  0  0
  4 18  2  0  0  0  0
  5  6  2  0  0  0  0
  8  2  1  0  0  0  0
  9 27  1  0  0  0  0
 10 17  1  0  0  0  0
 11  5  1  0  0  0  0
 12 19  2  0  0  0  0
 12 13  1  0  0  0  0
 13  1  2  0  0  0  0
 15  4  1  0  0  0  0
 16 15  2  0  0  0  0
 16 19  1  0  0  0  0
 17  7  2  0  0  0  0
 17  9  1  0  0  0  0
 18  7  1  0  0  0  0
 19  3  1  0  0  0  0
 20 24  1  0  0  0  0
 21 23  1  0  0  0  0
 21 20  2  0  0  0  0
 22 16  1  1  0  0  0
 23 25  2  0  0  0  0
 24 22  1  0  0  0  0
 24 26  2  0  0  0  0
 25 22  1  0  0  0  0
 28 30  1  0  0  0  0
 29 27  1  6  0  0  0
 29 28  1  0  0  0  0
 32 34  1  0  0  0  0
 33 29  1  0  0  0  0
 33 32  1  0  0  0  0
 34 30  1  0  0  0  0
 34 31  1  1  0  0  0
M  END
>  <MODEL>
5

>  <REMARK>
 VINA RESULT:      -8.7      2.165      8.178
  Name = 
  3 active torsions:
  status: ('A' for Active; 'I' for Inactive)
    1  A    between atoms: N_3  and  C_13
    2  A    between atoms: N_3  and  N_17
    3  A    between atoms: C_12  and  C_28
                            x       y       z     vdW  Elec       q    Type
                         _______ _______ _______ _____ _____    ______ ____

>  <TORSDO>
F 3

$$$$
=
 OpenBabel10262423523D

 34 39  0  0  1  0  0  0  0  0999 V2000
  184.4960  178.6260  142.7740 C   0  0  0  0  0  0  0  0  0  0  0  0
  184.3250  179.0790  140.3740 C   0  0  0  0  0  0  0  0  0  0  0  0
  186.5780  178.4580  141.5060 C   0  0  0  0  0  0  0  0  0  0  0  0
  188.7200  178.1090  140.4270 C   0  0  0  0  0  0  0  0  0  0  0  0
  182.3140  178.6080  141.5570 C   0  0  0  0  0  3  0  0  0  0  0  0
  182.9280  178.7740  140.4250 N   0  0  0  0  0  0  0  0  0  0  0  0
  186.8950  178.3240  139.0550 N   0  0  0  0  0  0  0  0  0  0  0  0
  185.1750  178.7200  141.5420 C   0  0  0  0  0  0  0  0  0  0  0  0
  187.7180  178.1750  136.7540 N   0  0  0  0  0  2  0  0  0  0  0  0
  189.4070  177.9500  138.9060 S   0  0  0  0  0  0  0  0  0  0  0  0
  183.0120  178.8540  142.8670 C   0  0  0  0  0  2  0  0  0  0  0  0
  186.5540  178.2510  143.9120 N   0  0  0  0  0  0  0  0  0  0  0  0
  185.2100  178.4120  143.9480 C   0  0  0  0  0  3  0  0  0  0  0  0
  184.7770  179.7200  139.3920 O   0  0  0  0  0  0  0  0  0  0  0  0
  189.3610  177.9950  141.6080 N   0  0  0  0  0  0  0  0  0  0  0  0
  188.6570  178.0590  142.7760 C   0  0  0  0  0  0  0  0  0  0  0  0
  187.9030  178.1460  138.1680 C   0  0  0  0  0  0  0  0  0  0  0  0
  187.3560  178.3220  140.3320 C   0  0  0  0  0  0  0  0  0  0  0  0
  187.2580  178.2630  142.7490 C   0  0  0  0  0  0  0  0  0  0  0  0
  191.9200  177.8180  143.7710 N   0  0  0  0  0  0  0  0  0  0  0  0
  191.9060  176.5310  143.9410 C   0  0  0  0  0  3  0  0  0  0  0  0
  189.3960  177.9480  144.0830 C   0  0  2  0  0  3  0  0  0  0  0  0
  190.6820  175.8380  144.3770 C   0  0  0  0  0  3  0  0  0  0  0  0
  190.7410  178.6100  143.9530 C   0  0  0  0  0  0  0  0  0  0  0  0
  189.5280  176.4990  144.4810 C   0  0  0  0  0  3  0  0  0  0  0  0
  190.8280  179.8670  143.9620 O   0  0  0  0  0  0  0  0  0  0  0  0
  186.4620  178.4460  136.1920 N   0  0  0  0  0  2  0  0  0  0  0  0
  184.8580  176.6650  136.6710 C   0  0  0  0  0  2  0  0  0  0  0  0
  185.9330  177.1800  135.7090 C   0  0  2  0  0  3  0  0  0  0  0  0
  184.2930  175.3390  136.1730 C   0  0  0  0  0  2  0  0  0  0  0  0
  185.9240  173.9630  137.2730 O   0  0  0  0  0  1  0  0  0  0  0  0
  186.5160  174.8200  135.1020 C   0  0  0  0  0  2  0  0  0  0  0  0
  187.0660  176.1620  135.5970 C   0  0  0  0  0  2  0  0  0  0  0  0
  185.4040  174.2980  136.0210 C   0  0  2  0  0  3  0  0  0  0  0  0
  1 11  1  0  0  0  0
  1 13  1  0  0  0  0
  2  6  1  0  0  0  0
  2  8  1  0  0  0  0
  3  8  1  0  0  0  0
  3 19  1  0  0  0  0
  4 15  2  0  0  0  0
  5 11  1  0  0  0  0
  6  5  2  0  0  0  0
  7 18  1  0  0  0  0
  8  1  2  0  0  0  0
  9 17  1  0  0  0  0
 10  4  1  0  0  0  0
 12 13  2  0  0  0  0
 14  2  2  0  0  0  0
 15 16  1  0  0  0  0
 17 10  1  0  0  0  0
 17  7  2  0  0  0  0
 18  4  1  0  0  0  0
 18  3  2  0  0  0  0
 19 16  2  0  0  0  0
 19 12  1  0  0  0  0
 20 21  2  0  0  0  0
 20 24  1  0  0  0  0
 21 23  1  0  0  0  0
 22 16  1  6  0  0  0
 22 25  1  0  0  0  0
 23 25  2  0  0  0  0
 24 26  2  0  0  0  0
 24 22  1  0  0  0  0
 27  9  1  0  0  0  0
 29 27  1  1  0  0  0
 29 28  1  0  0  0  0
 30 28  1  0  0  0  0
 32 33  1  0  0  0  0
 32 34  1  0  0  0  0
 33 29  1  0  0  0  0
 34 30  1  0  0  0  0
 34 31  1  1  0  0  0
M  END
>  <MODEL>
6

>  <REMARK>
 VINA RESULT:      -8.6      2.570      3.404
  Name = 
  3 active torsions:
  status: ('A' for Active; 'I' for Inactive)
    1  A    between atoms: N_3  and  C_13
    2  A    between atoms: N_3  and  N_17
    3  A    between atoms: C_12  and  C_28
                            x       y       z     vdW  Elec       q    Type
                         _______ _______ _______ _____ _____    ______ ____

>  <TORSDO>
F 3

$$$$
=
 OpenBabel10262423523D

 34 39  0  0  1  0  0  0  0  0999 V2000
  186.3330  178.0410  138.7600 C   0  0  0  0  0  0  0  0  0  0  0  0
  186.6840  178.4240  141.1530 C   0  0  0  0  0  0  0  0  0  0  0  0
  188.5340  177.4290  139.6270 C   0  0  0  0  0  0  0  0  0  0  0  0
  190.8120  176.8780  140.2440 C   0  0  0  0  0  0  0  0  0  0  0  0
  184.8570  179.5380  140.1100 C   0  0  0  0  0  3  0  0  0  0  0  0
  185.6290  179.3920  141.1440 N   0  0  0  0  0  0  0  0  0  0  0  0
  189.5770  178.0410  141.7860 N   0  0  0  0  0  0  0  0  0  0  0  0
  187.2220  177.9460  139.8510 C   0  0  0  0  0  0  0  0  0  0  0  0
  191.0090  178.3600  143.7460 N   0  0  0  0  0  2  0  0  0  0  0  0
  191.9080  177.0620  141.5000 S   0  0  0  0  0  0  0  0  0  0  0  0
  184.9520  178.6140  138.9270 C   0  0  0  0  0  2  0  0  0  0  0  0
  187.9050  176.9480  137.3450 N   0  0  0  0  0  0  0  0  0  0  0  0
  186.6890  177.5160  137.5230 C   0  0  0  0  0  3  0  0  0  0  0  0
  187.0620  177.9400  142.2500 O   0  0  0  0  0  0  0  0  0  0  0  0
  191.0600  176.3090  139.0460 N   0  0  0  0  0  0  0  0  0  0  0  0
  190.0970  176.3070  138.0790 C   0  0  0  0  0  0  0  0  0  0  0  0
  190.7660  177.8970  142.4190 C   0  0  0  0  0  0  0  0  0  0  0  0
  189.5940  177.4500  140.5640 C   0  0  0  0  0  0  0  0  0  0  0  0
  188.8320  176.8870  138.3370 C   0  0  0  0  0  0  0  0  0  0  0  0
  192.0130  173.7000  136.9720 N   0  0  0  0  0  0  0  0  0  0  0  0
  192.9990  174.4350  136.5560 C   0  0  0  0  0  3  0  0  0  0  0  0
  190.3880  175.6500  136.7570 C   0  0  2  0  0  3  0  0  0  0  0  0
  192.7630  175.7880  136.0250 C   0  0  0  0  0  3  0  0  0  0  0  0
  190.6660  174.1870  136.9780 C   0  0  0  0  0  0  0  0  0  0  0  0
  191.5490  176.3370  136.0810 C   0  0  0  0  0  3  0  0  0  0  0  0
  189.7160  173.3940  137.2120 O   0  0  0  0  0  0  0  0  0  0  0  0
  189.9920  178.9560  144.5050 N   0  0  0  0  0  2  0  0  0  0  0  0
  188.0050  178.3280  145.7830 C   0  0  0  0  0  2  0  0  0  0  0  0
  189.4030  177.9060  145.3200 C   0  0  2  0  0  3  0  0  0  0  0  0
  187.3750  177.2320  146.6350 C   0  0  0  0  0  2  0  0  0  0  0  0
  188.2880  178.0030  148.7170 O   0  0  0  0  0  1  0  0  0  0  0  0
  189.6750  176.5390  147.4020 C   0  0  0  0  0  2  0  0  0  0  0  0
  190.2950  177.6360  146.5300 C   0  0  0  0  0  2  0  0  0  0  0  0
  188.2540  176.9130  147.8460 C   0  0  2  0  0  3  0  0  0  0  0  0
  1 11  1  0  0  0  0
  1  8  1  0  0  0  0
  2 14  2  0  0  0  0
  3  8  2  0  0  0  0
  3 18  1  0  0  0  0
  4 18  2  0  0  0  0
  4 10  1  0  0  0  0
  5  6  2  0  0  0  0
  6  2  1  0  0  0  0
  7 17  2  0  0  0  0
  8  2  1  0  0  0  0
  9 27  1  0  0  0  0
 10 17  1  0  0  0  0
 11  5  1  0  0  0  0
 12 13  1  0  0  0  0
 12 19  2  0  0  0  0
 13  1  2  0  0  0  0
 15  4  1  0  0  0  0
 16 19  1  0  0  0  0
 16 15  2  0  0  0  0
 17  9  1  0  0  0  0
 18  7  1  0  0  0  0
 19  3  1  0  0  0  0
 20 24  1  0  0  0  0
 21 20  2  0  0  0  0
 22 24  1  0  0  0  0
 22 16  1  1  0  0  0
 23 25  2  0  0  0  0
 23 21  1  0  0  0  0
 24 26  2  0  0  0  0
 25 22  1  0  0  0  0
 28 30  1  0  0  0  0
 29 27  1  1  0  0  0
 29 28  1  0  0  0  0
 29 33  1  0  0  0  0
 30 34  1  0  0  0  0
 32 34  1  0  0  0  0
 33 32  1  0  0  0  0
 34 31  1  1  0  0  0
M  END
>  <MODEL>
7

>  <REMARK>
 VINA RESULT:      -8.3      2.458      8.345
  Name = 
  3 active torsions:
  status: ('A' for Active; 'I' for Inactive)
    1  A    between atoms: N_3  and  C_13
    2  A    between atoms: N_3  and  N_17
    3  A    between atoms: C_12  and  C_28
                            x       y       z     vdW  Elec       q    Type
                         _______ _______ _______ _____ _____    ______ ____

>  <TORSDO>
F 3

$$$$
=
 OpenBabel10262423523D

 34 39  0  0  1  0  0  0  0  0999 V2000
  186.7280  178.0120  137.7290 C   0  0  0  0  0  0  0  0  0  0  0  0
  188.3720  178.3240  139.5160 C   0  0  0  0  0  0  0  0  0  0  0  0
  185.8170  178.3020  139.9780 C   0  0  0  0  0  0  0  0  0  0  0  0
  184.7090  178.4380  142.1290 C   0  0  0  0  0  0  0  0  0  0  0  0
  189.1410  177.4270  137.4500 C   0  0  0  0  0  3  0  0  0  0  0  0
  189.3660  177.6950  138.7010 N   0  0  0  0  0  0  0  0  0  0  0  0
  186.9840  178.1590  142.1550 N   0  0  0  0  0  0  0  0  0  0  0  0
  186.9450  178.2210  139.1060 C   0  0  0  0  0  0  0  0  0  0  0  0
  187.6670  178.1280  144.5060 N   0  0  0  0  0  2  0  0  0  0  0  0
  185.0350  178.3930  143.7730 S   0  0  0  0  0  0  0  0  0  0  0  0
  187.8790  177.8800  136.7690 C   0  0  0  0  0  2  0  0  0  0  0  0
  184.3740  178.1820  138.0440 N   0  0  0  0  0  0  0  0  0  0  0  0
  185.4350  178.0180  137.2190 C   0  0  0  0  0  3  0  0  0  0  0  0
  188.7360  179.0180  140.4990 O   0  0  0  0  0  0  0  0  0  0  0  0
  183.4890  178.5230  141.5590 N   0  0  0  0  0  0  0  0  0  0  0  0
  183.3630  178.4590  140.2010 C   0  0  0  0  0  0  0  0  0  0  0  0
  186.6830  178.1960  143.4760 C   0  0  0  0  0  0  0  0  0  0  0  0
  185.8730  178.3140  141.3910 C   0  0  0  0  0  0  0  0  0  0  0  0
  184.5130  178.3200  139.3890 C   0  0  0  0  0  0  0  0  0  0  0  0
  180.6700  180.5430  140.5140 N   0  0  0  0  0  0  0  0  0  0  0  0
  179.9930  179.7590  141.2970 C   0  0  0  0  0  3  0  0  0  0  0  0
  181.9940  178.5750  139.5860 C   0  0  2  0  0  3  0  0  0  0  0  0
  180.1070  178.2950  141.1850 C   0  0  0  0  0  3  0  0  0  0  0  0
  181.5880  180.0240  139.5450 C   0  0  0  0  0  0  0  0  0  0  0  0
  181.0040  177.7450  140.3650 C   0  0  0  0  0  3  0  0  0  0  0  0
  182.0880  180.7940  138.6830 O   0  0  0  0  0  0  0  0  0  0  0  0
  189.0340  178.0700  144.2030 N   0  0  0  0  0  2  0  0  0  0  0  0
  189.1480  177.3430  146.5340 C   0  0  0  0  0  2  0  0  0  0  0  0
  189.6250  177.0900  145.1000 C   0  0  2  0  0  3  0  0  0  0  0  0
  189.7580  176.3190  147.4850 C   0  0  0  0  0  2  0  0  0  0  0  0
  191.7520  177.5780  147.9340 O   0  0  0  0  0  1  0  0  0  0  0  0
  191.7790  176.1650  145.9840 C   0  0  0  0  0  2  0  0  0  0  0  0
  191.1480  177.1860  145.0310 C   0  0  0  0  0  2  0  0  0  0  0  0
  191.2860  176.3650  147.4230 C   0  0  2  0  0  3  0  0  0  0  0  0
  1  8  1  0  0  0  0
  2 14  2  0  0  0  0
  3 18  1  0  0  0  0
  4 10  1  0  0  0  0
  5  6  2  0  0  0  0
  6  2  1  0  0  0  0
  7 17  2  0  0  0  0
  8  2  1  0  0  0  0
  8  3  2  0  0  0  0
 11  5  1  0  0  0  0
 11  1  1  0  0  0  0
 12 19  2  0  0  0  0
 13  1  2  0  0  0  0
 13 12  1  0  0  0  0
 15  4  1  0  0  0  0
 16 15  2  0  0  0  0
 17 10  1  0  0  0  0
 17  9  1  0  0  0  0
 18  4  2  0  0  0  0
 18  7  1  0  0  0  0
 19  3  1  0  0  0  0
 19 16  1  0  0  0  0
 20 21  2  0  0  0  0
 22 16  1  1  0  0  0
 22 25  1  0  0  0  0
 23 21  1  0  0  0  0
 24 22  1  0  0  0  0
 24 20  1  0  0  0  0
 25 23  2  0  0  0  0
 26 24  2  0  0  0  0
 27  9  1  0  0  0  0
 28 30  1  0  0  0  0
 29 27  1  6  0  0  0
 29 28  1  0  0  0  0
 32 34  1  0  0  0  0
 33 29  1  0  0  0  0
 33 32  1  0  0  0  0
 34 30  1  0  0  0  0
 34 31  1  6  0  0  0
M  END
>  <MODEL>
8

>  <REMARK>
 VINA RESULT:      -8.1      2.786      8.911
  Name = 
  3 active torsions:
  status: ('A' for Active; 'I' for Inactive)
    1  A    between atoms: N_3  and  C_13
    2  A    between atoms: N_3  and  N_17
    3  A    between atoms: C_12  and  C_28
                            x       y       z     vdW  Elec       q    Type
                         _______ _______ _______ _____ _____    ______ ____

>  <TORSDO>
F 3

$$$$
=
 OpenBabel10262423523D

 34 39  0  0  1  0  0  0  0  0999 V2000
  185.4240  178.2670  144.1360 C   0  0  0  0  0  0  0  0  0  0  0  0
  187.6070  177.4710  143.3660 C   0  0  0  0  0  0  0  0  0  0  0  0
  185.7660  178.2650  141.7170 C   0  0  0  0  0  0  0  0  0  0  0  0
  185.9370  178.4700  139.3080 C   0  0  0  0  0  0  0  0  0  0  0  0
  187.4010  178.0940  145.6550 C   0  0  0  0  0  3  0  0  0  0  0  0
  188.1600  177.7700  144.6520 N   0  0  0  0  0  0  0  0  0  0  0  0
  187.8800  178.0460  140.4490 N   0  0  0  0  0  0  0  0  0  0  0  0
  186.2580  178.0010  143.0310 C   0  0  0  0  0  0  0  0  0  0  0  0
  189.6590  177.8680  138.7760 N   0  0  0  0  0  2  0  0  0  0  0  0
  187.0630  178.4130  138.0670 S   0  0  0  0  0  0  0  0  0  0  0  0
  185.9010  178.0450  145.5460 C   0  0  0  0  0  2  0  0  0  0  0  0
  183.6210  178.8170  142.6810 N   0  0  0  0  0  0  0  0  0  0  0  0
  184.1030  178.6530  143.9350 C   0  0  0  0  0  3  0  0  0  0  0  0
  188.2310  176.6980  142.5960 O   0  0  0  0  0  0  0  0  0  0  0  0
  184.6250  178.7590  139.1820 N   0  0  0  0  0  0  0  0  0  0  0  0
  183.8380  178.8590  140.2930 C   0  0  0  0  0  0  0  0  0  0  0  0
  188.3060  178.1010  139.1640 C   0  0  0  0  0  0  0  0  0  0  0  0
  186.5380  178.2360  140.5320 C   0  0  0  0  0  0  0  0  0  0  0  0
  184.3930  178.6430  141.5760 C   0  0  0  0  0  0  0  0  0  0  0  0
  181.3180  177.8730  138.2010 N   0  0  0  0  0  0  0  0  0  0  0  0
  181.3800  178.9150  137.4290 C   0  0  0  0  0  3  0  0  0  0  0  0
  182.3730  179.1620  140.1280 C   0  0  2  0  0  3  0  0  0  0  0  0
  181.7680  180.2320  137.9630 C   0  0  0  0  0  3  0  0  0  0  0  0
  181.6690  177.9460  139.5870 C   0  0  0  0  0  0  0  0  0  0  0  0
  182.1900  180.3560  139.2220 C   0  0  0  0  0  3  0  0  0  0  0  0
  181.4250  176.9710  140.3460 O   0  0  0  0  0  0  0  0  0  0  0  0
  190.6330  177.5090  139.7180 N   0  0  0  0  0  2  0  0  0  0  0  0
  192.7600  176.9000  138.6800 C   0  0  0  0  0  2  0  0  0  0  0  0
  191.3870  176.4060  139.1450 C   0  0  2  0  0  3  0  0  0  0  0  0
  193.5630  175.7510  138.0800 C   0  0  0  0  0  2  0  0  0  0  0  0
  192.7200  176.0170  135.8490 O   0  0  0  0  0  1  0  0  0  0  0  0
  191.4100  174.6600  137.3470 C   0  0  0  0  0  2  0  0  0  0  0  0
  190.6170  175.8160  137.9660 C   0  0  0  0  0  2  0  0  0  0  0  0
  192.8100  175.1150  136.9100 C   0  0  2  0  0  3  0  0  0  0  0  0
  1 11  1  0  0  0  0
  2  6  1  0  0  0  0
  3  8  1  0  0  0  0
  4 18  1  0  0  0  0
  6  5  2  0  0  0  0
  7 18  1  0  0  0  0
  8  2  1  0  0  0  0
  8  1  2  0  0  0  0
  9 17  1  0  0  0  0
  9 27  1  0  0  0  0
 10 17  1  0  0  0  0
 10  4  1  0  0  0  0
 11  5  1  0  0  0  0
 12 13  2  0  0  0  0
 13  1  1  0  0  0  0
 14  2  2  0  0  0  0
 15  4  2  0  0  0  0
 15 16  1  0  0  0  0
 16 19  2  0  0  0  0
 17  7  2  0  0  0  0
 18  3  2  0  0  0  0
 19  3  1  0  0  0  0
 19 12  1  0  0  0  0
 20 24  1  0  0  0  0
 21 23  1  0  0  0  0
 21 20  2  0  0  0  0
 22 16  1  6  0  0  0
 23 25  2  0  0  0  0
 24 22  1  0  0  0  0
 24 26  2  0  0  0  0
 25 22  1  0  0  0  0
 28 29  1  0  0  0  0
 29 27  1  6  0  0  0
 30 28  1  0  0  0  0
 32 33  1  0  0  0  0
 33 29  1  0  0  0  0
 34 31  1  6  0  0  0
 34 32  1  0  0  0  0
 34 30  1  0  0  0  0
M  END
>  <MODEL>
9

>  <REMARK>
 VINA RESULT:      -8.1      3.292      6.939
  Name = 
  3 active torsions:
  status: ('A' for Active; 'I' for Inactive)
    1  A    between atoms: N_3  and  C_13
    2  A    between atoms: N_3  and  N_17
    3  A    between atoms: C_12  and  C_28
                            x       y       z     vdW  Elec       q    Type
                         _______ _______ _______ _____ _____    ______ ____

>  <TORSDO>
F 3

$$$$
