=
 OpenBabel10272402003D

 28 31  0  0  1  0  0  0  0  0999 V2000
  182.5100  179.4150  138.7020 C   0  0  2  0  0  0  0  0  0  0  0  0
  183.1560  177.1910  137.9130 N   0  0  0  0  0  0  0  0  0  0  0  0
  183.0960  178.6140  137.5470 C   0  0  0  0  0  2  0  0  0  0  0  0
  184.4790  176.7180  137.5450 C   0  0  0  0  0  1  0  0  0  0  0  0
  183.0500  177.0850  139.3670 C   0  0  2  0  0  3  0  0  0  0  0  0
  183.4320  178.9920  141.0880 C   0  0  2  0  0  3  0  0  0  0  0  0
  181.9410  178.6900  141.1820 C   0  0  0  0  0  2  0  0  0  0  0  0
  181.9980  176.0460  139.7200 C   0  0  0  0  0  1  0  0  0  0  0  0
  183.2670  180.5770  138.8750 O   0  0  0  0  0  1  0  0  0  0  0  0
  182.6680  178.4620  139.8690 C   0  0  1  0  0  0  0  0  0  0  0  0
  184.1760  177.9360  141.7680 N   0  0  0  0  0  2  0  0  0  0  0  0
  184.8370  179.4300  143.6750 C   0  0  0  0  0  2  0  0  0  0  0  0
  185.3470  178.0180  143.9620 C   0  0  1  0  0  3  0  0  0  0  0  0
  185.2660  178.5370  142.5310 C   0  0  1  0  0  0  0  0  0  0  0  0
  188.9880  176.9790  144.6550 C   0  0  0  0  0  2  0  0  0  0  0  0
  186.7460  178.0890  144.5660 C   0  0  2  0  0  3  0  0  0  0  0  0
  188.0550  178.0820  146.7010 C   0  0  1  0  0  3  0  0  0  0  0  0
  187.5890  176.9250  144.0480 C   0  0  0  0  0  2  0  0  0  0  0  0
  186.6570  178.0290  146.0900 C   0  0  0  0  0  2  0  0  0  0  0  0
  187.9330  177.9770  148.4700 Cl  0  0  0  0  0  0  0  0  0  0  0  0
  188.9030  176.9250  146.1790 C   0  0  0  0  0  2  0  0  0  0  0  0
  186.6220  178.7410  140.5990 O   0  0  0  0  0  0  0  0  0  0  0  0
  186.5320  178.8990  141.8050 C   0  0  0  0  0  3  0  0  0  0  0  0
  181.0510  179.8080  138.4250 C   0  0  0  0  0  2  0  0  0  0  0  0
  180.7500  181.2950  138.6100 C   0  0  0  0  0  2  0  0  0  0  0  0
  180.6330  182.0060  137.2690 C   0  0  0  0  0  2  0  0  0  0  0  0
  181.0790  183.4560  137.3690 C   0  0  0  0  0  2  0  0  0  0  0  0
  181.0130  184.1260  136.0090 C   0  0  0  0  0  1  0  0  0  0  0  0
  1  9  1  1  0  0  0
  1 10  1  0  0  0  0
  2  5  1  0  0  0  0
  3  2  1  0  0  0  0
  3  1  1  0  0  0  0
  4  2  1  0  0  0  0
  5  8  1  6  0  0  0
  5 10  1  0  0  0  0
  6  7  1  0  0  0  0
  6 11  1  1  0  0  0
 10  6  1  0  0  0  0
 10  7  1  1  0  0  0
 11 14  1  0  0  0  0
 13 12  1  1  0  0  0
 13 16  1  0  0  0  0
 14 23  1  6  0  0  0
 14 12  1  0  0  0  0
 14 13  1  0  0  0  0
 15 21  1  0  0  0  0
 16 18  1  6  0  0  0
 16 19  1  0  0  0  0
 17 20  1  1  0  0  0
 18 15  1  0  0  0  0
 19 17  1  0  0  0  0
 21 17  1  0  0  0  0
 22 23  2  0  0  0  0
 24 25  1  0  0  0  0
 24  1  1  0  0  0  0
 26 27  1  0  0  0  0
 26 25  1  0  0  0  0
 28 27  1  0  0  0  0
M  END
>  <MODEL>
1

>  <REMARK>
 VINA RESULT:      -7.1      0.000      0.000
  Name = 
  8 active torsions:
  status: ('A' for Active; 'I' for Inactive)
    1  A    between atoms: C_1  and  C_11
    2  A    between atoms: C_6  and  C_8
    3  A    between atoms: C_6  and  C_22
    4  A    between atoms: C_8  and  C_11
    5  A    between atoms: C_9  and  C_18
    6  A    between atoms: N_10  and  C_17
    7  A    between atoms: N_10  and  C_25
    8  A    between atoms: C_20  and  C_25
                            x       y       z     vdW  Elec       q    Type
                         _______ _______ _______ _____ _____    ______ ____

>  <TORSDO>
F 8

$$$$
=
 OpenBabel10272402003D

 28 31  0  0  1  0  0  0  0  0999 V2000
  190.4450  175.8230  137.5080 C   0  0  2  0  0  0  0  0  0  0  0  0
  188.4660  176.9830  136.6570 N   0  0  0  0  0  0  0  0  0  0  0  0
  189.2530  175.7450  136.5630 C   0  0  0  0  0  2  0  0  0  0  0  0
  187.0730  176.5870  136.7740 C   0  0  0  0  0  1  0  0  0  0  0  0
  188.8250  177.6630  137.9010 C   0  0  2  0  0  3  0  0  0  0  0  0
  190.0350  176.6110  139.9440 C   0  0  2  0  0  3  0  0  0  0  0  0
  191.0440  177.6000  139.3740 C   0  0  0  0  0  2  0  0  0  0  0  0
  189.1250  179.1240  137.6060 C   0  0  0  0  0  1  0  0  0  0  0  0
  190.5690  174.6030  138.1780 O   0  0  0  0  0  1  0  0  0  0  0  0
  190.0400  176.9410  138.4470 C   0  0  1  0  0  0  0  0  0  0  0  0
  189.0000  177.3480  140.6630 N   0  0  0  0  0  2  0  0  0  0  0  0
  189.7990  178.2720  142.8560 C   0  0  0  0  0  2  0  0  0  0  0  0
  188.2910  178.0420  142.9440 C   0  0  1  0  0  3  0  0  0  0  0  0
  189.1660  177.1270  142.0960 C   0  0  1  0  0  0  0  0  0  0  0  0
  186.1960  177.3980  146.1090 C   0  0  0  0  0  2  0  0  0  0  0  0
  187.9370  177.4640  144.3110 C   0  0  2  0  0  3  0  0  0  0  0  0
  188.6250  177.3320  146.7160 C   0  0  1  0  0  3  0  0  0  0  0  0
  186.5560  177.9590  144.7370 C   0  0  0  0  0  2  0  0  0  0  0  0
  188.9820  177.8910  145.3410 C   0  0  0  0  0  2  0  0  0  0  0  0
  189.8320  177.8660  147.9050 Cl  0  0  0  0  0  0  0  0  0  0  0  0
  187.2420  177.8170  147.1400 C   0  0  0  0  0  2  0  0  0  0  0  0
  190.5320  175.4590  143.0810 O   0  0  0  0  0  0  0  0  0  0  0  0
  189.4560  175.7310  142.5750 C   0  0  0  0  0  3  0  0  0  0  0  0
  191.7460  176.1060  136.7440 C   0  0  0  0  0  2  0  0  0  0  0  0
  192.7710  174.9740  136.7990 C   0  0  0  0  0  2  0  0  0  0  0  0
  193.9740  175.3590  137.6490 C   0  0  0  0  0  2  0  0  0  0  0  0
  195.0200  174.2550  137.6620 C   0  0  0  0  0  2  0  0  0  0  0  0
  195.6840  174.1700  139.0240 C   0  0  0  0  0  1  0  0  0  0  0  0
  1  9  1  1  0  0  0
  1 10  1  0  0  0  0
  2  4  1  0  0  0  0
  2  5  1  0  0  0  0
  3  2  1  0  0  0  0
  3  1  1  0  0  0  0
  5  8  1  6  0  0  0
  5 10  1  0  0  0  0
  6 11  1  1  0  0  0
  7  6  1  0  0  0  0
 10  7  1  6  0  0  0
 10  6  1  0  0  0  0
 11 14  1  0  0  0  0
 13 12  1  1  0  0  0
 13 16  1  0  0  0  0
 14 23  1  1  0  0  0
 14 12  1  0  0  0  0
 14 13  1  0  0  0  0
 15 21  1  0  0  0  0
 16 18  1  1  0  0  0
 16 19  1  0  0  0  0
 17 21  1  0  0  0  0
 17 20  1  1  0  0  0
 18 15  1  0  0  0  0
 19 17  1  0  0  0  0
 23 22  2  0  0  0  0
 24 25  1  0  0  0  0
 24  1  1  0  0  0  0
 25 26  1  0  0  0  0
 26 27  1  0  0  0  0
 27 28  1  0  0  0  0
M  END
>  <MODEL>
2

>  <REMARK>
 VINA RESULT:      -6.6      5.267      8.132
  Name = 
  8 active torsions:
  status: ('A' for Active; 'I' for Inactive)
    1  A    between atoms: C_1  and  C_11
    2  A    between atoms: C_6  and  C_8
    3  A    between atoms: C_6  and  C_22
    4  A    between atoms: C_8  and  C_11
    5  A    between atoms: C_9  and  C_18
    6  A    between atoms: N_10  and  C_17
    7  A    between atoms: N_10  and  C_25
    8  A    between atoms: C_20  and  C_25
                            x       y       z     vdW  Elec       q    Type
                         _______ _______ _______ _____ _____    ______ ____

>  <TORSDO>
F 8

$$$$
=
 OpenBabel10272402003D

 28 31  0  0  1  0  0  0  0  0999 V2000
  188.2710  177.0100  143.8820 C   0  0  2  0  0  0  0  0  0  0  0  0
  190.4900  177.4080  144.8320 N   0  0  0  0  0  0  0  0  0  0  0  0
  189.2720  176.5930  144.9520 C   0  0  0  0  0  2  0  0  0  0  0  0
  191.6160  176.4930  144.8990 C   0  0  0  0  0  1  0  0  0  0  0  0
  190.5090  178.0160  143.5020 C   0  0  2  0  0  3  0  0  0  0  0  0
  189.1110  177.2720  141.4430 C   0  0  2  0  0  3  0  0  0  0  0  0
  188.5430  178.6370  141.8130 C   0  0  0  0  0  2  0  0  0  0  0  0
  190.7950  179.5030  143.6330 C   0  0  0  0  0  1  0  0  0  0  0  0
  187.7150  175.8610  143.3130 O   0  0  0  0  0  1  0  0  0  0  0  0
  189.1440  177.7590  142.8960 C   0  0  1  0  0  0  0  0  0  0  0  0
  190.3970  177.4560  140.7760 N   0  0  0  0  0  2  0  0  0  0  0  0
  191.4720  177.1760  138.5250 C   0  0  0  0  0  2  0  0  0  0  0  0
  190.5760  175.9670  138.7900 C   0  0  1  0  0  3  0  0  0  0  0  0
  190.2040  177.3420  139.3330 C   0  0  1  0  0  0  0  0  0  0  0  0
  187.5910  175.0410  136.5430 C   0  0  0  0  0  2  0  0  0  0  0  0
  189.8330  175.5860  137.5130 C   0  0  2  0  0  3  0  0  0  0  0  0
  189.6390  173.8790  135.6920 C   0  0  1  0  0  3  0  0  0  0  0  0
  188.3420  175.4340  137.8110 C   0  0  0  0  0  2  0  0  0  0  0  0
  190.3900  174.2750  136.9610 C   0  0  0  0  0  2  0  0  0  0  0  0
  190.2770  172.3360  135.0840 Cl  0  0  0  0  0  0  0  0  0  0  0  0
  188.1480  173.7340  135.9850 C   0  0  0  0  0  2  0  0  0  0  0  0
  189.2220  179.2620  138.3500 O   0  0  0  0  0  0  0  0  0  0  0  0
  189.0720  178.1040  138.7010 C   0  0  0  0  0  3  0  0  0  0  0  0
  187.1430  177.8670  144.4760 C   0  0  0  0  0  2  0  0  0  0  0  0
  186.7820  177.5230  145.9210 C   0  0  0  0  0  2  0  0  0  0  0  0
  185.5700  178.3160  146.3910 C   0  0  0  0  0  2  0  0  0  0  0  0
  185.0300  179.2100  145.2850 C   0  0  0  0  0  2  0  0  0  0  0  0
  183.5710  178.8960  145.0150 C   0  0  0  0  0  1  0  0  0  0  0  0
  1  9  1  6  0  0  0
  1 24  1  0  0  0  0
  1  3  1  0  0  0  0
  2  4  1  0  0  0  0
  2  3  1  0  0  0  0
  5  8  1  1  0  0  0
  5  2  1  0  0  0  0
  6 11  1  6  0  0  0
  6  7  1  0  0  0  0
  6 10  1  0  0  0  0
 10  7  1  6  0  0  0
 10  5  1  0  0  0  0
 10  1  1  0  0  0  0
 12 14  1  0  0  0  0
 13 12  1  6  0  0  0
 13 14  1  0  0  0  0
 14 23  1  6  0  0  0
 14 11  1  0  0  0  0
 15 18  1  0  0  0  0
 16 19  1  1  0  0  0
 16 18  1  0  0  0  0
 16 13  1  0  0  0  0
 17 20  1  1  0  0  0
 17 21  1  0  0  0  0
 17 19  1  0  0  0  0
 21 15  1  0  0  0  0
 22 23  2  0  0  0  0
 24 25  1  0  0  0  0
 25 26  1  0  0  0  0
 27 26  1  0  0  0  0
 28 27  1  0  0  0  0
M  END
>  <MODEL>
3

>  <REMARK>
 VINA RESULT:      -6.5      5.941      8.976
  Name = 
  8 active torsions:
  status: ('A' for Active; 'I' for Inactive)
    1  A    between atoms: C_1  and  C_11
    2  A    between atoms: C_6  and  C_8
    3  A    between atoms: C_6  and  C_22
    4  A    between atoms: C_8  and  C_11
    5  A    between atoms: C_9  and  C_18
    6  A    between atoms: N_10  and  C_17
    7  A    between atoms: N_10  and  C_25
    8  A    between atoms: C_20  and  C_25
                            x       y       z     vdW  Elec       q    Type
                         _______ _______ _______ _____ _____    ______ ____

>  <TORSDO>
F 8

$$$$
=
 OpenBabel10272402003D

 28 31  0  0  1  0  0  0  0  0999 V2000
  188.2520  176.9970  143.7130 C   0  0  2  0  0  0  0  0  0  0  0  0
  190.5350  177.3610  144.5140 N   0  0  0  0  0  0  0  0  0  0  0  0
  189.3200  176.5550  144.7050 C   0  0  0  0  0  2  0  0  0  0  0  0
  191.6530  176.4350  144.4890 C   0  0  0  0  0  1  0  0  0  0  0  0
  190.4680  177.9910  143.1960 C   0  0  2  0  0  3  0  0  0  0  0  0
  188.9260  177.2930  141.2270 C   0  0  2  0  0  3  0  0  0  0  0  0
  188.3970  178.6560  141.6570 C   0  0  0  0  0  2  0  0  0  0  0  0
  190.7770  179.4730  143.3310 C   0  0  0  0  0  1  0  0  0  0  0  0
  187.6470  175.8630  143.1660 O   0  0  0  0  0  1  0  0  0  0  0  0
  189.0620  177.7550  142.6820 C   0  0  1  0  0  0  0  0  0  0  0  0
  190.1640  177.4770  140.4760 N   0  0  0  0  0  2  0  0  0  0  0  0
  190.4470  176.0380  138.4380 C   0  0  0  0  0  2  0  0  0  0  0  0
  188.9570  176.1280  138.7680 C   0  0  1  0  0  3  0  0  0  0  0  0
  189.8880  177.3020  139.0530 C   0  0  1  0  0  0  0  0  0  0  0  0
  186.0130  177.1250  136.4990 C   0  0  0  0  0  2  0  0  0  0  0  0
  188.1540  176.2770  137.4800 C   0  0  2  0  0  3  0  0  0  0  0  0
  187.0630  175.0400  135.5950 C   0  0  1  0  0  3  0  0  0  0  0  0
  186.8310  176.9820  137.7780 C   0  0  0  0  0  2  0  0  0  0  0  0
  187.8830  174.9000  136.8750 C   0  0  0  0  0  2  0  0  0  0  0  0
  186.7310  173.4280  134.9260 Cl  0  0  0  0  0  0  0  0  0  0  0  0
  185.7460  175.7510  135.8880 C   0  0  0  0  0  2  0  0  0  0  0  0
  189.0190  179.4160  138.4240 O   0  0  0  0  0  0  0  0  0  0  0  0
  189.8190  178.5260  138.1830 C   0  0  0  0  0  3  0  0  0  0  0  0
  187.1760  177.8540  144.3970 C   0  0  0  0  0  2  0  0  0  0  0  0
  186.9670  177.5420  145.8790 C   0  0  0  0  0  2  0  0  0  0  0  0
  185.6820  178.1710  146.3990 C   0  0  0  0  0  2  0  0  0  0  0  0
  185.1340  179.2020  145.4240 C   0  0  0  0  0  2  0  0  0  0  0  0
  183.6780  178.9140  145.1120 C   0  0  0  0  0  1  0  0  0  0  0  0
  1  9  1  6  0  0  0
  1 24  1  0  0  0  0
  1  3  1  0  0  0  0
  2  3  1  0  0  0  0
  4  2  1  0  0  0  0
  5  8  1  1  0  0  0
  5  2  1  0  0  0  0
  6 11  1  6  0  0  0
  6  7  1  0  0  0  0
  6 10  1  0  0  0  0
 10  7  1  6  0  0  0
 10  5  1  0  0  0  0
 10  1  1  0  0  0  0
 12 14  1  0  0  0  0
 13 12  1  6  0  0  0
 13 14  1  0  0  0  0
 14 23  1  6  0  0  0
 14 11  1  0  0  0  0
 15 18  1  0  0  0  0
 16 19  1  1  0  0  0
 16 18  1  0  0  0  0
 16 13  1  0  0  0  0
 17 20  1  1  0  0  0
 17 21  1  0  0  0  0
 17 19  1  0  0  0  0
 21 15  1  0  0  0  0
 23 22  2  0  0  0  0
 24 25  1  0  0  0  0
 25 26  1  0  0  0  0
 27 26  1  0  0  0  0
 28 27  1  0  0  0  0
M  END
>  <MODEL>
4

>  <REMARK>
 VINA RESULT:      -6.5      5.303      8.824
  Name = 
  8 active torsions:
  status: ('A' for Active; 'I' for Inactive)
    1  A    between atoms: C_1  and  C_11
    2  A    between atoms: C_6  and  C_8
    3  A    between atoms: C_6  and  C_22
    4  A    between atoms: C_8  and  C_11
    5  A    between atoms: C_9  and  C_18
    6  A    between atoms: N_10  and  C_17
    7  A    between atoms: N_10  and  C_25
    8  A    between atoms: C_20  and  C_25
                            x       y       z     vdW  Elec       q    Type
                         _______ _______ _______ _____ _____    ______ ____

>  <TORSDO>
F 8

$$$$
=
 OpenBabel10272402003D

 28 31  0  0  1  0  0  0  0  0999 V2000
  190.7260  175.9580  137.8980 C   0  0  2  0  0  0  0  0  0  0  0  0
  188.5960  177.0300  137.3480 N   0  0  0  0  0  0  0  0  0  0  0  0
  189.4400  175.8550  137.0880 C   0  0  0  0  0  2  0  0  0  0  0  0
  187.2530  176.5370  137.5930 C   0  0  0  0  0  1  0  0  0  0  0  0
  189.0550  177.6620  138.5850 C   0  0  2  0  0  3  0  0  0  0  0  0
  190.5520  176.5790  140.4090 C   0  0  2  0  0  3  0  0  0  0  0  0
  191.4290  177.6630  139.7950 C   0  0  0  0  0  2  0  0  0  0  0  0
  189.2320  179.1540  138.3520 C   0  0  0  0  0  1  0  0  0  0  0  0
  190.9990  174.7130  138.4710 O   0  0  0  0  0  1  0  0  0  0  0  0
  190.3650  176.9920  138.9450 C   0  0  1  0  0  0  0  0  0  0  0  0
  189.5650  177.2030  141.2840 N   0  0  0  0  0  2  0  0  0  0  0  0
  190.7110  175.5680  142.8060 C   0  0  0  0  0  2  0  0  0  0  0  0
  190.6440  176.9240  143.5080 C   0  0  1  0  0  3  0  0  0  0  0  0
  189.5360  176.4880  142.5560 C   0  0  1  0  0  0  0  0  0  0  0  0
  189.3610  177.8180  147.0250 C   0  0  0  0  0  2  0  0  0  0  0  0
  190.3060  176.7230  144.9820 C   0  0  2  0  0  3  0  0  0  0  0  0
  191.2420  176.1800  147.2400 C   0  0  1  0  0  3  0  0  0  0  0  0
  189.6920  178.0030  145.5480 C   0  0  0  0  0  2  0  0  0  0  0  0
  191.5700  176.3650  145.7610 C   0  0  0  0  0  2  0  0  0  0  0  0
  192.7290  175.7970  148.1340 Cl  0  0  0  0  0  0  0  0  0  0  0  0
  190.6210  177.4540  147.8060 C   0  0  0  0  0  2  0  0  0  0  0  0
  187.3200  176.9030  143.2860 O   0  0  0  0  0  0  0  0  0  0  0  0
  188.2020  176.0780  143.1160 C   0  0  0  0  0  3  0  0  0  0  0  0
  191.9120  176.3700  137.0130 C   0  0  0  0  0  2  0  0  0  0  0  0
  193.1430  175.4750  137.1490 C   0  0  0  0  0  2  0  0  0  0  0  0
  193.7670  175.1840  135.7910 C   0  0  0  0  0  2  0  0  0  0  0  0
  195.2720  175.4050  135.8130 C   0  0  0  0  0  2  0  0  0  0  0  0
  195.6290  176.6870  135.0840 C   0  0  0  0  0  1  0  0  0  0  0  0
  1  9  1  1  0  0  0
  1 10  1  0  0  0  0
  2  4  1  0  0  0  0
  2  5  1  0  0  0  0
  3  2  1  0  0  0  0
  3  1  1  0  0  0  0
  5  8  1  6  0  0  0
  5 10  1  0  0  0  0
  6 11  1  1  0  0  0
  7  6  1  0  0  0  0
 10  7  1  6  0  0  0
 10  6  1  0  0  0  0
 11 14  1  0  0  0  0
 13 12  1  6  0  0  0
 13 16  1  0  0  0  0
 14 12  1  0  0  0  0
 14 23  1  1  0  0  0
 14 13  1  0  0  0  0
 15 21  1  0  0  0  0
 16 18  1  1  0  0  0
 16 19  1  0  0  0  0
 17 21  1  0  0  0  0
 17 20  1  1  0  0  0
 18 15  1  0  0  0  0
 19 17  1  0  0  0  0
 23 22  2  0  0  0  0
 24 25  1  0  0  0  0
 24  1  1  0  0  0  0
 26 27  1  0  0  0  0
 26 25  1  0  0  0  0
 28 27  1  0  0  0  0
M  END
>  <MODEL>
5

>  <REMARK>
 VINA RESULT:      -6.4      5.495      8.267
  Name = 
  8 active torsions:
  status: ('A' for Active; 'I' for Inactive)
    1  A    between atoms: C_1  and  C_11
    2  A    between atoms: C_6  and  C_8
    3  A    between atoms: C_6  and  C_22
    4  A    between atoms: C_8  and  C_11
    5  A    between atoms: C_9  and  C_18
    6  A    between atoms: N_10  and  C_17
    7  A    between atoms: N_10  and  C_25
    8  A    between atoms: C_20  and  C_25
                            x       y       z     vdW  Elec       q    Type
                         _______ _______ _______ _____ _____    ______ ____

>  <TORSDO>
F 8

$$$$
=
 OpenBabel10272402003D

 28 31  0  0  1  0  0  0  0  0999 V2000
  189.3100  176.7560  135.7030 C   0  0  2  0  0  0  0  0  0  0  0  0
  191.3050  175.3870  135.3430 N   0  0  0  0  0  0  0  0  0  0  0  0
  190.5670  176.5650  134.8640 C   0  0  0  0  0  2  0  0  0  0  0  0
  192.6980  175.7830  135.4560 C   0  0  0  0  0  1  0  0  0  0  0  0
  190.8380  175.0670  136.6910 C   0  0  2  0  0  3  0  0  0  0  0  0
  189.5230  176.6400  138.2850 C   0  0  2  0  0  3  0  0  0  0  0  0
  188.5240  175.5470  137.9220 C   0  0  0  0  0  2  0  0  0  0  0  0
  190.5130  173.5840  136.7720 C   0  0  0  0  0  1  0  0  0  0  0  0
  189.1780  178.1120  136.0150 O   0  0  0  0  0  1  0  0  0  0  0  0
  189.6120  175.9240  136.9320 C   0  0  1  0  0  0  0  0  0  0  0  0
  190.4810  176.1080  139.2490 N   0  0  0  0  0  2  0  0  0  0  0  0
  189.3650  177.8970  140.6120 C   0  0  0  0  0  2  0  0  0  0  0  0
  189.6220  176.6880  141.5110 C   0  0  1  0  0  3  0  0  0  0  0  0
  190.5810  177.0290  140.3770 C   0  0  1  0  0  0  0  0  0  0  0  0
  191.5330  176.5880  144.8510 C   0  0  0  0  0  2  0  0  0  0  0  0
  190.0950  177.1590  142.8830 C   0  0  2  0  0  3  0  0  0  0  0  0
  189.3630  177.7890  145.1940 C   0  0  1  0  0  3  0  0  0  0  0  0
  191.0630  176.1330  143.4730 C   0  0  0  0  0  2  0  0  0  0  0  0
  188.8950  177.3360  143.8130 C   0  0  0  0  0  2  0  0  0  0  0  0
  187.9590  177.9570  146.2690 Cl  0  0  0  0  0  0  0  0  0  0  0  0
  190.3370  176.7720  145.7810 C   0  0  0  0  0  2  0  0  0  0  0  0
  192.9090  177.3230  140.0410 O   0  0  0  0  0  0  0  0  0  0  0  0
  191.9270  177.6180  140.7020 C   0  0  0  0  0  3  0  0  0  0  0  0
  188.0570  176.2960  134.9440 C   0  0  0  0  0  2  0  0  0  0  0  0
  186.8420  177.2080  135.1170 C   0  0  0  0  0  2  0  0  0  0  0  0
  185.6460  176.4390  135.6610 C   0  0  0  0  0  2  0  0  0  0  0  0
  184.9850  177.1830  136.8110 C   0  0  0  0  0  2  0  0  0  0  0  0
  185.9900  178.0780  137.5100 C   0  0  0  0  0  1  0  0  0  0  0  0
  1  9  1  1  0  0  0
  1 10  1  0  0  0  0
  2  4  1  0  0  0  0
  2  5  1  0  0  0  0
  3  2  1  0  0  0  0
  3  1  1  0  0  0  0
  5  8  1  6  0  0  0
  5 10  1  0  0  0  0
  6 11  1  1  0  0  0
  7  6  1  0  0  0  0
 10  7  1  1  0  0  0
 10  6  1  0  0  0  0
 11 14  1  0  0  0  0
 13 12  1  6  0  0  0
 13 16  1  0  0  0  0
 14 12  1  0  0  0  0
 14 23  1  1  0  0  0
 14 13  1  0  0  0  0
 15 21  1  0  0  0  0
 16 18  1  1  0  0  0
 16 19  1  0  0  0  0
 17 21  1  0  0  0  0
 17 20  1  1  0  0  0
 18 15  1  0  0  0  0
 19 17  1  0  0  0  0
 22 23  2  0  0  0  0
 24 25  1  0  0  0  0
 24  1  1  0  0  0  0
 25 26  1  0  0  0  0
 26 27  1  0  0  0  0
 27 28  1  0  0  0  0
M  END
>  <MODEL>
6

>  <REMARK>
 VINA RESULT:      -6.3      4.765      6.693
  Name = 
  8 active torsions:
  status: ('A' for Active; 'I' for Inactive)
    1  A    between atoms: C_1  and  C_11
    2  A    between atoms: C_6  and  C_8
    3  A    between atoms: C_6  and  C_22
    4  A    between atoms: C_8  and  C_11
    5  A    between atoms: C_9  and  C_18
    6  A    between atoms: N_10  and  C_17
    7  A    between atoms: N_10  and  C_25
    8  A    between atoms: C_20  and  C_25
                            x       y       z     vdW  Elec       q    Type
                         _______ _______ _______ _____ _____    ______ ____

>  <TORSDO>
F 8

$$$$
=
 OpenBabel10272402003D

 28 31  0  0  1  0  0  0  0  0999 V2000
  191.3120  176.6080  144.3090 C   0  0  2  0  0  0  0  0  0  0  0  0
  190.4820  178.8970  144.5520 N   0  0  0  0  0  0  0  0  0  0  0  0
  191.6790  178.0480  144.6450 C   0  0  0  0  0  2  0  0  0  0  0  0
  190.8610  180.0750  143.7920 C   0  0  0  0  0  1  0  0  0  0  0  0
  189.4730  178.1860  143.7690 C   0  0  2  0  0  3  0  0  0  0  0  0
  189.8820  176.1630  142.1930 C   0  0  2  0  0  3  0  0  0  0  0  0
  189.0700  175.5860  143.3460 C   0  0  0  0  0  2  0  0  0  0  0  0
  188.1460  178.2170  144.5120 C   0  0  0  0  0  1  0  0  0  0  0  0
  192.2920  176.0780  143.4660 O   0  0  0  0  0  1  0  0  0  0  0  0
  189.9860  176.7710  143.5970 C   0  0  1  0  0  0  0  0  0  0  0  0
  188.9970  176.9360  141.3270 N   0  0  0  0  0  2  0  0  0  0  0  0
  191.2220  177.6630  140.4200 C   0  0  0  0  0  2  0  0  0  0  0  0
  190.7890  176.3930  139.6880 C   0  0  1  0  0  3  0  0  0  0  0  0
  189.7530  177.4030  140.1690 C   0  0  1  0  0  0  0  0  0  0  0  0
  190.5060  175.7490  135.9040 C   0  0  0  0  0  2  0  0  0  0  0  0
  191.1270  176.5130  138.2060 C   0  0  2  0  0  3  0  0  0  0  0  0
  192.9070  176.1660  136.4790 C   0  0  1  0  0  3  0  0  0  0  0  0
  190.1700  175.6460  137.3890 C   0  0  0  0  0  2  0  0  0  0  0  0
  192.5680  176.0660  137.9640 C   0  0  0  0  0  2  0  0  0  0  0  0
  194.5740  175.6110  136.2130 Cl  0  0  0  0  0  0  0  0  0  0  0  0
  191.9470  175.3080  135.6590 C   0  0  0  0  0  2  0  0  0  0  0  0
  187.8560  178.4840  139.2490 O   0  0  0  0  0  0  0  0  0  0  0  0
  189.0550  178.2770  139.1640 C   0  0  0  0  0  3  0  0  0  0  0  0
  191.2250  175.7450  145.5760 C   0  0  0  0  0  2  0  0  0  0  0  0
  191.1750  176.5390  146.8810 C   0  0  0  0  0  2  0  0  0  0  0  0
  189.7650  176.5700  147.4550 C   0  0  0  0  0  2  0  0  0  0  0  0
  189.3890  177.9670  147.9260 C   0  0  0  0  0  2  0  0  0  0  0  0
  188.0270  177.9510  148.5950 C   0  0  0  0  0  1  0  0  0  0  0  0
  1  9  1  6  0  0  0
  1  3  1  0  0  0  0
  1 24  1  0  0  0  0
  2  3  1  0  0  0  0
  4  2  1  0  0  0  0
  5  8  1  1  0  0  0
  5  2  1  0  0  0  0
  6 11  1  6  0  0  0
  6  7  1  0  0  0  0
  6 10  1  0  0  0  0
 10  7  1  1  0  0  0
 10  5  1  0  0  0  0
 10  1  1  0  0  0  0
 13 14  1  0  0  0  0
 13 12  1  1  0  0  0
 14 23  1  6  0  0  0
 14 12  1  0  0  0  0
 14 11  1  0  0  0  0
 15 18  1  0  0  0  0
 16 18  1  6  0  0  0
 16 13  1  0  0  0  0
 17 20  1  1  0  0  0
 17 19  1  0  0  0  0
 19 16  1  0  0  0  0
 21 15  1  0  0  0  0
 21 17  1  0  0  0  0
 23 22  2  0  0  0  0
 24 25  1  0  0  0  0
 25 26  1  0  0  0  0
 26 27  1  0  0  0  0
 27 28  1  0  0  0  0
M  END
>  <MODEL>
7

>  <REMARK>
 VINA RESULT:      -6.1      6.334     10.073
  Name = 
  8 active torsions:
  status: ('A' for Active; 'I' for Inactive)
    1  A    between atoms: C_1  and  C_11
    2  A    between atoms: C_6  and  C_8
    3  A    between atoms: C_6  and  C_22
    4  A    between atoms: C_8  and  C_11
    5  A    between atoms: C_9  and  C_18
    6  A    between atoms: N_10  and  C_17
    7  A    between atoms: N_10  and  C_25
    8  A    between atoms: C_20  and  C_25
                            x       y       z     vdW  Elec       q    Type
                         _______ _______ _______ _____ _____    ______ ____

>  <TORSDO>
F 8

$$$$
=
 OpenBabel10272402003D

 28 31  0  0  1  0  0  0  0  0999 V2000
  188.4930  177.0410  143.7610 C   0  0  2  0  0  0  0  0  0  0  0  0
  190.5220  177.5350  145.0370 N   0  0  0  0  0  0  0  0  0  0  0  0
  189.3360  176.6670  144.9740 C   0  0  0  0  0  2  0  0  0  0  0  0
  191.6620  176.6700  145.2810 C   0  0  0  0  0  1  0  0  0  0  0  0
  190.7170  178.1450  143.7230 C   0  0  2  0  0  3  0  0  0  0  0  0
  189.6840  177.3430  141.4790 C   0  0  2  0  0  3  0  0  0  0  0  0
  189.0080  178.6810  141.7500 C   0  0  0  0  0  2  0  0  0  0  0  0
  190.9140  179.6430  143.8880 C   0  0  0  0  0  1  0  0  0  0  0  0
  188.0810  175.8690  143.1210 O   0  0  0  0  0  1  0  0  0  0  0  0
  189.4730  177.8290  142.9170 C   0  0  1  0  0  0  0  0  0  0  0  0
  191.0470  177.5840  141.0150 N   0  0  0  0  0  2  0  0  0  0  0  0
  190.3430  175.7910  139.4050 C   0  0  0  0  0  2  0  0  0  0  0  0
  189.9660  177.1500  138.8160 C   0  0  1  0  0  3  0  0  0  0  0  0
  191.2080  176.9990  139.6870 C   0  0  1  0  0  0  0  0  0  0  0  0
  189.4100  177.8940  135.0810 C   0  0  0  0  0  2  0  0  0  0  0  0
  190.2590  177.1620  137.3190 C   0  0  2  0  0  3  0  0  0  0  0  0
  190.6550  175.7330  135.3010 C   0  0  1  0  0  3  0  0  0  0  0  0
  189.1340  177.8870  136.5810 C   0  0  0  0  0  2  0  0  0  0  0  0
  190.3800  175.7290  136.8030 C   0  0  0  0  0  2  0  0  0  0  0  0
  190.7600  174.0590  134.7140 Cl  0  0  0  0  0  0  0  0  0  0  0  0
  189.5380  176.4640  134.5620 C   0  0  0  0  0  2  0  0  0  0  0  0
  193.5570  177.3120  139.7070 O   0  0  0  0  0  0  0  0  0  0  0  0
  192.5680  177.0450  139.0460 C   0  0  0  0  0  3  0  0  0  0  0  0
  187.2520  177.8470  144.1720 C   0  0  0  0  0  2  0  0  0  0  0  0
  186.6700  177.4630  145.5320 C   0  0  0  0  0  2  0  0  0  0  0  0
  185.6870  178.5150  146.0290 C   0  0  0  0  0  2  0  0  0  0  0  0
  184.9660  179.1900  144.8720 C   0  0  0  0  0  2  0  0  0  0  0  0
  183.4730  178.9340  144.9580 C   0  0  0  0  0  1  0  0  0  0  0  0
  1  9  1  6  0  0  0
  1 24  1  0  0  0  0
  1  3  1  0  0  0  0
  2  4  1  0  0  0  0
  3  2  1  0  0  0  0
  5  8  1  1  0  0  0
  5  2  1  0  0  0  0
  6 11  1  6  0  0  0
  6  7  1  0  0  0  0
  6 10  1  0  0  0  0
 10  7  1  6  0  0  0
 10  5  1  0  0  0  0
 10  1  1  0  0  0  0
 12 14  1  0  0  0  0
 13 12  1  6  0  0  0
 13 14  1  0  0  0  0
 14 23  1  6  0  0  0
 14 11  1  0  0  0  0
 15 18  1  0  0  0  0
 16 18  1  6  0  0  0
 16 13  1  0  0  0  0
 17 20  1  6  0  0  0
 17 19  1  0  0  0  0
 19 16  1  0  0  0  0
 21 15  1  0  0  0  0
 21 17  1  0  0  0  0
 23 22  2  0  0  0  0
 24 25  1  0  0  0  0
 25 26  1  0  0  0  0
 27 28  1  0  0  0  0
 27 26  1  0  0  0  0
M  END
>  <MODEL>
8

>  <REMARK>
 VINA RESULT:      -6.0      6.089      9.234
  Name = 
  8 active torsions:
  status: ('A' for Active; 'I' for Inactive)
    1  A    between atoms: C_1  and  C_11
    2  A    between atoms: C_6  and  C_8
    3  A    between atoms: C_6  and  C_22
    4  A    between atoms: C_8  and  C_11
    5  A    between atoms: C_9  and  C_18
    6  A    between atoms: N_10  and  C_17
    7  A    between atoms: N_10  and  C_25
    8  A    between atoms: C_20  and  C_25
                            x       y       z     vdW  Elec       q    Type
                         _______ _______ _______ _____ _____    ______ ____

>  <TORSDO>
F 8

$$$$
=
 OpenBabel10272402003D

 28 31  0  0  1  0  0  0  0  0999 V2000
  182.6340  176.9460  138.4500 C   0  0  2  0  0  0  0  0  0  0  0  0
  180.5330  176.7060  139.6810 N   0  0  0  0  0  0  0  0  0  0  0  0
  181.3990  176.0820  138.6690 C   0  0  0  0  0  2  0  0  0  0  0  0
  180.1530  175.6580  140.6120 C   0  0  0  0  0  1  0  0  0  0  0  0
  181.3270  177.6790  140.4300 C   0  0  2  0  0  3  0  0  0  0  0  0
  183.9190  177.8090  140.5300 C   0  0  2  0  0  3  0  0  0  0  0  0
  183.5060  179.0650  139.7730 C   0  0  0  0  0  2  0  0  0  0  0  0
  180.5730  178.9970  140.4990 C   0  0  0  0  0  1  0  0  0  0  0  0
  183.7590  176.1190  138.3960 O   0  0  0  0  0  1  0  0  0  0  0  0
  182.6390  177.8220  139.6860 C   0  0  1  0  0  0  0  0  0  0  0  0
  183.6390  177.9950  141.9510 N   0  0  0  0  0  2  0  0  0  0  0  0
  184.5260  179.5800  143.6840 C   0  0  0  0  0  2  0  0  0  0  0  0
  184.9510  178.1600  144.0590 C   0  0  1  0  0  3  0  0  0  0  0  0
  184.8160  178.5690  142.5960 C   0  0  1  0  0  0  0  0  0  0  0  0
  188.5810  176.9670  144.5200 C   0  0  0  0  0  2  0  0  0  0  0  0
  186.3870  178.1710  144.5730 C   0  0  2  0  0  3  0  0  0  0  0  0
  187.8270  178.1020  146.6200 C   0  0  1  0  0  3  0  0  0  0  0  0
  187.1460  176.9730  144.0020 C   0  0  0  0  0  2  0  0  0  0  0  0
  186.3920  178.1100  146.1000 C   0  0  0  0  0  2  0  0  0  0  0  0
  187.8120  177.9970  148.3940 Cl  0  0  0  0  0  0  0  0  0  0  0  0
  188.5900  176.9120  146.0450 C   0  0  0  0  0  2  0  0  0  0  0  0
  186.4670  179.8980  141.5350 O   0  0  0  0  0  0  0  0  0  0  0  0
  186.0560  178.7740  141.7700 C   0  0  0  0  0  3  0  0  0  0  0  0
  182.5350  177.7390  137.1380 C   0  0  0  0  0  2  0  0  0  0  0  0
  182.1630  176.8980  135.9180 C   0  0  0  0  0  2  0  0  0  0  0  0
  182.9210  177.3560  134.6790 C   0  0  0  0  0  2  0  0  0  0  0  0
  184.3670  176.8860  134.7090 C   0  0  0  0  0  2  0  0  0  0  0  0
  184.4350  175.3750  134.5940 C   0  0  0  0  0  1  0  0  0  0  0  0
  1  9  1  6  0  0  0
  1  3  1  0  0  0  0
  1 10  1  0  0  0  0
  2  5  1  0  0  0  0
  2  4  1  0  0  0  0
  3  2  1  0  0  0  0
  5  8  1  6  0  0  0
  6 11  1  1  0  0  0
  7  6  1  0  0  0  0
 10  7  1  6  0  0  0
 10  5  1  0  0  0  0
 10  6  1  0  0  0  0
 11 14  1  0  0  0  0
 13 12  1  1  0  0  0
 13 16  1  0  0  0  0
 14 23  1  6  0  0  0
 14 12  1  0  0  0  0
 14 13  1  0  0  0  0
 15 21  1  0  0  0  0
 16 18  1  6  0  0  0
 16 19  1  0  0  0  0
 17 20  1  1  0  0  0
 18 15  1  0  0  0  0
 19 17  1  0  0  0  0
 21 17  1  0  0  0  0
 22 23  2  0  0  0  0
 24  1  1  0  0  0  0
 25 24  1  0  0  0  0
 26 27  1  0  0  0  0
 26 25  1  0  0  0  0
 28 27  1  0  0  0  0
M  END
>  <MODEL>
9

>  <REMARK>
 VINA RESULT:      -5.6      2.347      3.407
  Name = 
  8 active torsions:
  status: ('A' for Active; 'I' for Inactive)
    1  A    between atoms: C_1  and  C_11
    2  A    between atoms: C_6  and  C_8
    3  A    between atoms: C_6  and  C_22
    4  A    between atoms: C_8  and  C_11
    5  A    between atoms: C_9  and  C_18
    6  A    between atoms: N_10  and  C_17
    7  A    between atoms: N_10  and  C_25
    8  A    between atoms: C_20  and  C_25
                            x       y       z     vdW  Elec       q    Type
                         _______ _______ _______ _____ _____    ______ ____

>  <TORSDO>
F 8

$$$$
