=
 OpenBabel10272400503D

 25 29  0  0  1  0  0  0  0  0999 V2000
  185.7380  178.1920  144.6580 C   0  0  0  0  0  0  0  0  0  0  0  0
  186.9600  177.3270  144.7160 C   0  0  1  0  0  3  0  0  0  0  0  0
  185.8240  178.8150  147.0040 C   0  0  0  0  0  3  0  0  0  0  0  0
  184.7910  178.3240  143.7480 C   0  0  0  0  0  0  0  0  0  0  0  0
  182.5290  178.8460  142.2320 C   0  0  0  0  0  3  0  0  0  0  0  0
  187.1650  178.1830  147.0770 C   0  0  0  0  0  3  0  0  0  0  0  0
  183.7340  179.0400  144.3000 C   0  0  0  0  0  0  0  0  0  0  0  0
  182.5890  179.3170  143.5550 C   0  0  0  0  0  3  0  0  0  0  0  0
  189.1050  177.0540  146.0520 C   0  0  0  0  0  0  0  0  0  0  0  0
  189.7980  176.7680  147.3400 C   0  0  0  0  0  1  0  0  0  0  0  0
  187.8710  177.4980  143.5350 C   0  0  0  0  0  3  0  0  0  0  0  0
  183.5960  178.1040  141.6830 C   0  0  0  0  0  3  0  0  0  0  0  0
  185.1940  178.8230  145.8330 C   0  0  0  0  0  0  0  0  0  0  0  0
  183.9080  179.3650  145.5470 N   0  0  0  0  0  0  0  0  0  0  0  0
  189.7570  176.9230  144.9330 N   0  0  0  0  0  0  0  0  0  0  0  0
  184.7430  177.8300  142.4450 C   0  0  0  0  0  3  0  0  0  0  0  0
  189.1850  177.2380  143.6430 C   0  0  0  0  0  0  0  0  0  0  0  0
  187.7130  177.5410  146.0200 C   0  0  0  0  0  0  0  0  0  0  0  0
  190.3300  177.4090  140.0420 C   0  0  0  0  0  0  0  0  0  0  0  0
  190.0680  177.3230  142.4590 C   0  0  0  0  0  0  0  0  0  0  0  0
  189.5100  177.3290  141.1720 C   0  0  0  0  0  3  0  0  0  0  0  0
  189.7650  177.4130  138.7740 O   0  0  0  0  0  1  0  0  0  0  0  0
  191.4640  177.4010  142.5950 C   0  0  0  0  0  3  0  0  0  0  0  0
  191.7170  177.4860  140.1900 C   0  0  0  0  0  3  0  0  0  0  0  0
  192.2840  177.4810  141.4660 C   0  0  0  0  0  3  0  0  0  0  0  0
  1  2  1  0  0  0  0
  1 13  1  0  0  0  0
  2 11  1  6  0  0  0
  2 18  1  0  0  0  0
  3  6  1  0  0  0  0
  4  7  1  0  0  0  0
  4  1  2  0  0  0  0
  5  8  2  0  0  0  0
  7 14  2  0  0  0  0
  8  7  1  0  0  0  0
  9 10  1  0  0  0  0
 11 17  2  0  0  0  0
 12  5  1  0  0  0  0
 12 16  2  0  0  0  0
 13  3  2  0  0  0  0
 14 13  1  0  0  0  0
 15  9  2  0  0  0  0
 16  4  1  0  0  0  0
 17 15  1  0  0  0  0
 18  9  1  0  0  0  0
 18  6  2  0  0  0  0
 19 24  2  0  0  0  0
 19 21  1  0  0  0  0
 20 23  1  0  0  0  0
 20 17  1  0  0  0  0
 21 20  2  0  0  0  0
 22 19  1  0  0  0  0
 24 25  1  0  0  0  0
 25 23  2  0  0  0  0
M  END
>  <MODEL>
1

>  <REMARK>
 VINA RESULT:     -11.2      0.000      0.000
  Name = 
  1 active torsions:
  status: ('A' for Active; 'I' for Inactive)
    1  A    between atoms: C_6  and  C_23
                            x       y       z     vdW  Elec       q    Type
                         _______ _______ _______ _____ _____    ______ ____

>  <TORSDO>
F 1

$$$$
=
 OpenBabel10272400503D

 25 29  0  0  1  0  0  0  0  0999 V2000
  187.0000  177.9590  145.5030 C   0  0  0  0  0  0  0  0  0  0  0  0
  188.1630  177.0570  145.2270 C   0  0  1  0  0  3  0  0  0  0  0  0
  187.6390  178.4100  147.8030 C   0  0  0  0  0  3  0  0  0  0  0  0
  185.8800  178.1840  144.8420 C   0  0  0  0  0  0  0  0  0  0  0  0
  183.3610  178.8810  143.9160 C   0  0  0  0  0  3  0  0  0  0  0  0
  188.9330  177.7350  147.5280 C   0  0  0  0  0  3  0  0  0  0  0  0
  185.0070  178.8900  145.6640 C   0  0  0  0  0  0  0  0  0  0  0  0
  183.7380  179.2540  145.2170 C   0  0  0  0  0  3  0  0  0  0  0  0
  190.5400  176.6250  146.0210 C   0  0  0  0  0  0  0  0  0  0  0  0
  191.4910  176.2270  147.0970 C   0  0  0  0  0  1  0  0  0  0  0  0
  188.7930  177.2840  143.8830 C   0  0  0  0  0  3  0  0  0  0  0  0
  184.2430  178.1480  143.0930 C   0  0  0  0  0  3  0  0  0  0  0  0
  186.7630  178.5210  146.8080 C   0  0  0  0  0  0  0  0  0  0  0  0
  185.4720  179.1200  146.8560 N   0  0  0  0  0  0  0  0  0  0  0  0
  190.9170  176.5540  144.7770 N   0  0  0  0  0  0  0  0  0  0  0  0
  185.5180  177.7860  143.5550 C   0  0  0  0  0  3  0  0  0  0  0  0
  190.0850  176.9780  143.6730 C   0  0  0  0  0  0  0  0  0  0  0  0
  189.2000  177.1530  146.3370 C   0  0  0  0  0  0  0  0  0  0  0  0
  190.4520  176.9970  139.9090 C   0  0  0  0  0  0  0  0  0  0  0  0
  190.6810  177.1210  142.3270 C   0  0  0  0  0  0  0  0  0  0  0  0
  189.9030  176.8660  141.1880 C   0  0  0  0  0  3  0  0  0  0  0  0
  189.6710  176.7410  138.7900 O   0  0  0  0  0  1  0  0  0  0  0  0
  192.0210  177.5120  142.1620 C   0  0  0  0  0  3  0  0  0  0  0  0
  191.7850  177.3860  139.7560 C   0  0  0  0  0  3  0  0  0  0  0  0
  192.5700  177.6430  140.8830 C   0  0  0  0  0  3  0  0  0  0  0  0
  1 13  1  0  0  0  0
  2 11  1  6  0  0  0
  2  1  1  0  0  0  0
  2 18  1  0  0  0  0
  4  1  2  0  0  0  0
  4  7  1  0  0  0  0
  5  8  2  0  0  0  0
  6  3  1  0  0  0  0
  7 14  2  0  0  0  0
  8  7  1  0  0  0  0
  9 18  1  0  0  0  0
  9 10  1  0  0  0  0
 12 16  2  0  0  0  0
 12  5  1  0  0  0  0
 13 14  1  0  0  0  0
 13  3  2  0  0  0  0
 15  9  2  0  0  0  0
 16  4  1  0  0  0  0
 17 11  2  0  0  0  0
 17 15  1  0  0  0  0
 18  6  2  0  0  0  0
 19 21  1  0  0  0  0
 20 17  1  0  0  0  0
 21 20  2  0  0  0  0
 22 19  1  0  0  0  0
 23 20  1  0  0  0  0
 24 19  2  0  0  0  0
 24 25  1  0  0  0  0
 25 23  2  0  0  0  0
M  END
>  <MODEL>
2

>  <REMARK>
 VINA RESULT:     -11.1      0.966      1.431
  Name = 
  1 active torsions:
  status: ('A' for Active; 'I' for Inactive)
    1  A    between atoms: C_6  and  C_23
                            x       y       z     vdW  Elec       q    Type
                         _______ _______ _______ _____ _____    ______ ____

>  <TORSDO>
F 1

$$$$
=
 OpenBabel10272400503D

 25 29  0  0  0  0  0  0  0  0999 V2000
  187.0480  177.7370  144.2580 C   0  0  0  0  0  0  0  0  0  0  0  0
  187.9800  176.8480  143.4920 C   0  0  0  0  0  0  0  0  0  0  0  0
  188.4300  177.8020  146.2540 C   0  0  0  0  0  3  0  0  0  0  0  0
  185.7970  178.1000  144.0420 C   0  0  0  0  0  0  0  0  0  0  0  0
  183.1820  179.0190  144.1070 C   0  0  0  0  0  3  0  0  0  0  0  0
  189.5050  177.1330  145.4780 C   0  0  0  0  0  3  0  0  0  0  0  0
  185.2990  178.6990  145.1960 C   0  0  0  0  0  0  0  0  0  0  0  0
  183.9890  179.1710  145.2480 C   0  0  0  0  0  3  0  0  0  0  0  0
  190.4410  176.2170  143.3870 C   0  0  0  0  0  0  0  0  0  0  0  0
  191.6510  175.6230  144.0230 C   0  0  0  0  0  1  0  0  0  0  0  0
  188.1590  177.2610  142.0600 C   0  0  0  0  0  2  0  0  0  0  0  0
  183.6870  178.3940  142.9470 C   0  0  0  0  0  3  0  0  0  0  0  0
  187.2920  178.0960  145.6310 C   0  0  0  0  0  0  0  0  0  0  0  0
  186.1410  178.7250  146.1860 N   0  0  0  0  0  0  0  0  0  0  0  0
  190.3890  176.3280  142.0910 N   0  0  0  0  0  0  0  0  0  0  0  0
  185.0080  177.9200  142.9070 C   0  0  0  0  0  3  0  0  0  0  0  0
  189.2840  176.9460  141.3940 C   0  0  0  0  0  0  0  0  0  0  0  0
  189.3230  176.7360  144.1980 C   0  0  0  0  0  0  0  0  0  0  0  0
  188.5980  178.4300  137.9830 C   0  0  0  0  0  0  0  0  0  0  0  0
  189.4240  177.2760  139.9590 C   0  0  0  0  0  0  0  0  0  0  0  0
  188.4800  178.1080  139.3380 C   0  0  0  0  0  3  0  0  0  0  0  0
  187.6570  179.2530  137.3810 O   0  0  0  0  0  1  0  0  0  0  0  0
  190.4930  176.7740  139.1970 C   0  0  0  0  0  3  0  0  0  0  0  0
  189.6640  177.9240  137.2350 C   0  0  0  0  0  3  0  0  0  0  0  0
  190.6110  177.0960  137.8410 C   0  0  0  0  0  3  0  0  0  0  0  0
  1 13  1  0  0  0  0
  2 18  1  0  0  0  0
  2  1  2  0  0  0  0
  4  1  1  0  0  0  0
  4  7  1  0  0  0  0
  5  8  1  0  0  0  0
  6  3  2  0  0  0  0
  7  8  2  0  0  0  0
  7 14  1  0  0  0  0
  9 10  1  0  0  0  0
  9 18  2  0  0  0  0
 11  2  1  0  0  0  0
 12  5  2  0  0  0  0
 13 14  2  0  0  0  0
 13  3  1  0  0  0  0
 15  9  1  0  0  0  0
 16 12  1  0  0  0  0
 16  4  2  0  0  0  0
 17 11  1  0  0  0  0
 17 15  2  0  0  0  0
 18  6  1  0  0  0  0
 19 21  1  0  0  0  0
 20 17  1  0  0  0  0
 21 20  2  0  0  0  0
 22 19  1  0  0  0  0
 23 20  1  0  0  0  0
 24 25  1  0  0  0  0
 24 19  2  0  0  0  0
 25 23  2  0  0  0  0
M  END
>  <MODEL>
3

>  <REMARK>
 VINA RESULT:     -11.0      1.673      2.596
  Name = 
  1 active torsions:
  status: ('A' for Active; 'I' for Inactive)
    1  A    between atoms: C_6  and  C_23
                            x       y       z     vdW  Elec       q    Type
                         _______ _______ _______ _____ _____    ______ ____

>  <TORSDO>
F 1

$$$$
=
 OpenBabel10272400503D

 25 29  0  0  1  0  0  0  0  0999 V2000
  188.7060  177.4620  142.1090 C   0  0  0  0  0  0  0  0  0  0  0  0
  187.8250  178.2130  143.0600 C   0  0  1  0  0  3  0  0  0  0  0  0
  189.9370  176.3010  143.8510 C   0  0  0  0  0  3  0  0  0  0  0  0
  188.9350  177.6060  140.8170 C   0  0  0  0  0  0  0  0  0  0  0  0
  189.8470  177.5950  138.1990 C   0  0  0  0  0  3  0  0  0  0  0  0
  188.9470  176.8150  144.8310 C   0  0  0  0  0  3  0  0  0  0  0  0
  190.0490  176.8470  140.4720 C   0  0  0  0  0  0  0  0  0  0  0  0
  190.5210  176.8230  139.1610 C   0  0  0  0  0  3  0  0  0  0  0  0
  186.8820  178.0320  145.4150 C   0  0  0  0  0  0  0  0  0  0  0  0
  187.0900  177.9650  146.8890 C   0  0  0  0  0  1  0  0  0  0  0  0
  186.3880  178.2690  142.6300 C   0  0  0  0  0  3  0  0  0  0  0  0
  188.7300  178.3780  138.5580 C   0  0  0  0  0  3  0  0  0  0  0  0
  189.7700  176.6070  142.5670 C   0  0  0  0  0  0  0  0  0  0  0  0
  190.5990  176.2270  141.4730 N   0  0  0  0  0  0  0  0  0  0  0  0
  185.7180  178.3830  144.9490 N   0  0  0  0  0  0  0  0  0  0  0  0
  188.2640  178.3950  139.8830 C   0  0  0  0  0  3  0  0  0  0  0  0
  185.4080  178.4160  143.5380 C   0  0  0  0  0  0  0  0  0  0  0  0
  187.9490  177.6530  144.4700 C   0  0  0  0  0  0  0  0  0  0  0  0
  182.3440  178.5690  141.3250 C   0  0  0  0  0  0  0  0  0  0  0  0
  184.0000  178.5580  143.1070 C   0  0  0  0  0  0  0  0  0  0  0  0
  183.6700  178.4370  141.7480 C   0  0  0  0  0  3  0  0  0  0  0  0
  182.0310  178.4480  139.9780 O   0  0  0  0  0  1  0  0  0  0  0  0
  182.9750  178.8110  144.0350 C   0  0  0  0  0  3  0  0  0  0  0  0
  181.3340  178.8210  142.2570 C   0  0  0  0  0  3  0  0  0  0  0  0
  181.6500  178.9430  143.6110 C   0  0  0  0  0  3  0  0  0  0  0  0
  1 13  1  0  0  0  0
  1  2  1  0  0  0  0
  2 11  1  6  0  0  0
  2 18  1  0  0  0  0
  3  6  1  0  0  0  0
  4  1  2  0  0  0  0
  5 12  1  0  0  0  0
  5  8  2  0  0  0  0
  7  4  1  0  0  0  0
  7 14  2  0  0  0  0
  8  7  1  0  0  0  0
  9 10  1  0  0  0  0
 11 17  2  0  0  0  0
 12 16  2  0  0  0  0
 13  3  2  0  0  0  0
 14 13  1  0  0  0  0
 15  9  2  0  0  0  0
 16  4  1  0  0  0  0
 17 15  1  0  0  0  0
 18  6  2  0  0  0  0
 18  9  1  0  0  0  0
 19 21  2  0  0  0  0
 19 24  1  0  0  0  0
 20 17  1  0  0  0  0
 20 23  2  0  0  0  0
 21 20  1  0  0  0  0
 22 19  1  0  0  0  0
 24 25  2  0  0  0  0
 25 23  1  0  0  0  0
M  END
>  <MODEL>
4

>  <REMARK>
 VINA RESULT:      -9.9      2.187      6.453
  Name = 
  1 active torsions:
  status: ('A' for Active; 'I' for Inactive)
    1  A    between atoms: C_6  and  C_23
                            x       y       z     vdW  Elec       q    Type
                         _______ _______ _______ _____ _____    ______ ____

>  <TORSDO>
F 1

$$$$
=
 OpenBabel10272400503D

 25 29  0  0  1  0  0  0  0  0999 V2000
  187.3730  178.0250  141.7090 C   0  0  0  0  0  0  0  0  0  0  0  0
  186.7170  177.6080  142.9900 C   0  0  1  0  0  3  0  0  0  0  0  0
  185.4370  179.2290  140.8740 C   0  0  0  0  0  3  0  0  0  0  0  0
  188.4850  177.6290  141.1180 C   0  0  0  0  0  0  0  0  0  0  0  0
  190.6140  177.0450  139.4400 C   0  0  0  0  0  3  0  0  0  0  0  0
  184.8140  179.0660  142.2120 C   0  0  0  0  0  3  0  0  0  0  0  0
  188.4970  178.1150  139.8140 C   0  0  0  0  0  0  0  0  0  0  0  0
  189.5590  177.8370  138.9560 C   0  0  0  0  0  3  0  0  0  0  0  0
  184.8640  178.3410  144.5700 C   0  0  0  0  0  0  0  0  0  0  0  0
  183.4230  178.6170  144.8330 C   0  0  0  0  0  1  0  0  0  0  0  0
  187.6100  177.7320  144.1900 C   0  0  0  0  0  3  0  0  0  0  0  0
  190.5880  176.5380  140.7570 C   0  0  0  0  0  3  0  0  0  0  0  0
  186.6620  178.7460  140.6860 C   0  0  0  0  0  0  0  0  0  0  0  0
  187.4330  178.7880  139.4890 N   0  0  0  0  0  0  0  0  0  0  0  0
  185.6670  178.1250  145.5720 N   0  0  0  0  0  0  0  0  0  0  0  0
  189.5110  176.8250  141.6120 C   0  0  0  0  0  3  0  0  0  0  0  0
  187.0880  177.9110  145.4150 C   0  0  0  0  0  0  0  0  0  0  0  0
  185.4140  178.3660  143.2010 C   0  0  0  0  0  0  0  0  0  0  0  0
  190.1410  177.5630  147.6200 C   0  0  0  0  0  0  0  0  0  0  0  0
  187.9630  177.9460  146.6070 C   0  0  0  0  0  0  0  0  0  0  0  0
  189.3010  177.5370  146.5030 C   0  0  0  0  0  3  0  0  0  0  0  0
  191.4630  177.1540  147.5030 O   0  0  0  0  0  1  0  0  0  0  0  0
  187.4820  178.3870  147.8520 C   0  0  0  0  0  3  0  0  0  0  0  0
  189.6520  178.0020  148.8530 C   0  0  0  0  0  3  0  0  0  0  0  0
  188.3220  178.4130  148.9690 C   0  0  0  0  0  3  0  0  0  0  0  0
  1  2  1  0  0  0  0
  2 18  1  0  0  0  0
  2 11  1  1  0  0  0
  3  6  1  0  0  0  0
  4 16  1  0  0  0  0
  4  1  2  0  0  0  0
  5 12  1  0  0  0  0
  6 18  2  0  0  0  0
  7  4  1  0  0  0  0
  8  5  2  0  0  0  0
  8  7  1  0  0  0  0
  9 10  1  0  0  0  0
  9 15  2  0  0  0  0
 11 17  2  0  0  0  0
 12 16  2  0  0  0  0
 13  3  2  0  0  0  0
 13  1  1  0  0  0  0
 14  7  2  0  0  0  0
 14 13  1  0  0  0  0
 17 15  1  0  0  0  0
 17 20  1  0  0  0  0
 18  9  1  0  0  0  0
 19 24  1  0  0  0  0
 20 23  2  0  0  0  0
 21 20  1  0  0  0  0
 21 19  2  0  0  0  0
 22 19  1  0  0  0  0
 23 25  1  0  0  0  0
 24 25  2  0  0  0  0
M  END
>  <MODEL>
5

>  <REMARK>
 VINA RESULT:      -9.8      2.574      6.156
  Name = 
  1 active torsions:
  status: ('A' for Active; 'I' for Inactive)
    1  A    between atoms: C_6  and  C_23
                            x       y       z     vdW  Elec       q    Type
                         _______ _______ _______ _____ _____    ______ ____

>  <TORSDO>
F 1

$$$$
=
 OpenBabel10272400503D

 25 29  0  0  0  0  0  0  0  0999 V2000
  188.2170  177.7370  144.0760 C   0  0  0  0  0  0  0  0  0  0  0  0
  188.0380  178.4030  142.7460 C   0  0  0  0  0  0  0  0  0  0  0  0
  185.8540  177.7730  144.6380 C   0  0  0  0  0  3  0  0  0  0  0  0
  189.2910  177.4960  144.8060 C   0  0  0  0  0  0  0  0  0  0  0  0
  191.1900  176.9040  146.7360 C   0  0  0  0  0  3  0  0  0  0  0  0
  185.5760  178.2050  143.2450 C   0  0  0  0  0  3  0  0  0  0  0  0
  188.8890  177.1150  146.0830 C   0  0  0  0  0  0  0  0  0  0  0  0
  189.8280  176.8090  147.0660 C   0  0  0  0  0  3  0  0  0  0  0  0
  186.2800  178.7260  140.9380 C   0  0  0  0  0  0  0  0  0  0  0  0
  184.9560  179.2520  140.5020 C   0  0  0  0  0  1  0  0  0  0  0  0
  188.8620  177.7890  141.6530 C   0  0  0  0  0  2  0  0  0  0  0  0
  191.5920  177.3100  145.4460 C   0  0  0  0  0  3  0  0  0  0  0  0
  187.1170  177.5350  144.9830 C   0  0  0  0  0  0  0  0  0  0  0  0
  187.6010  177.1220  146.2570 N   0  0  0  0  0  0  0  0  0  0  0  0
  187.1850  178.4530  140.0430 N   0  0  0  0  0  0  0  0  0  0  0  0
  190.6370  177.6170  144.4640 C   0  0  0  0  0  3  0  0  0  0  0  0
  188.4720  177.8810  140.3690 C   0  0  0  0  0  0  0  0  0  0  0  0
  186.5670  178.4510  142.3590 C   0  0  0  0  0  0  0  0  0  0  0  0
  189.8010  177.1280  136.9090 C   0  0  0  0  0  0  0  0  0  0  0  0
  189.3270  177.3520  139.2850 C   0  0  0  0  0  0  0  0  0  0  0  0
  189.0030  177.6200  137.9460 C   0  0  0  0  0  3  0  0  0  0  0  0
  189.4680  177.3990  135.5890 O   0  0  0  0  0  1  0  0  0  0  0  0
  190.4700  176.5840  139.5660 C   0  0  0  0  0  3  0  0  0  0  0  0
  190.9340  176.3640  137.2010 C   0  0  0  0  0  3  0  0  0  0  0  0
  191.2680  176.0910  138.5300 C   0  0  0  0  0  3  0  0  0  0  0  0
  1  4  1  0  0  0  0
  1 13  1  0  0  0  0
  2  1  2  0  0  0  0
  3 13  1  0  0  0  0
  4  7  1  0  0  0  0
  5  8  1  0  0  0  0
  6  3  2  0  0  0  0
  7 14  1  0  0  0  0
  7  8  2  0  0  0  0
  9 18  2  0  0  0  0
 10  9  1  0  0  0  0
 11  2  1  0  0  0  0
 12  5  2  0  0  0  0
 13 14  2  0  0  0  0
 15 17  2  0  0  0  0
 15  9  1  0  0  0  0
 16  4  2  0  0  0  0
 16 12  1  0  0  0  0
 17 11  1  0  0  0  0
 18  2  1  0  0  0  0
 18  6  1  0  0  0  0
 19 24  2  0  0  0  0
 19 21  1  0  0  0  0
 20 23  1  0  0  0  0
 20 17  1  0  0  0  0
 21 20  2  0  0  0  0
 22 19  1  0  0  0  0
 24 25  1  0  0  0  0
 25 23  2  0  0  0  0
M  END
>  <MODEL>
6

>  <REMARK>
 VINA RESULT:      -9.8      2.154      5.131
  Name = 
  1 active torsions:
  status: ('A' for Active; 'I' for Inactive)
    1  A    between atoms: C_6  and  C_23
                            x       y       z     vdW  Elec       q    Type
                         _______ _______ _______ _____ _____    ______ ____

>  <TORSDO>
F 1

$$$$
=
 OpenBabel10272400503D

 25 29  0  0  1  0  0  0  0  0999 V2000
  185.2220  178.5780  141.5570 C   0  0  0  0  0  0  0  0  0  0  0  0
  186.6840  178.8510  141.3750 C   0  0  0  0  0  0  0  0  0  0  0  0
  184.7840  178.2560  139.1900 C   0  0  0  0  0  3  0  0  0  0  0  0
  184.4130  178.7490  142.5860 C   0  0  0  0  0  0  0  0  0  0  0  0
  182.3200  179.0490  144.3790 C   0  0  0  0  0  3  0  0  0  0  0  0
  186.2510  178.2720  138.9620 C   0  0  0  0  0  3  0  0  0  0  0  0
  183.0980  178.6130  142.1500 C   0  0  1  0  0  3  0  0  0  0  0  0
  182.0320  178.7550  143.0360 C   0  0  0  0  0  3  0  0  0  0  0  0
  188.5840  178.3550  139.7600 C   0  0  0  0  0  0  0  0  0  0  0  0
  189.1920  178.4740  138.4050 C   0  0  0  0  0  1  0  0  0  0  0  0
  187.5510  178.1770  142.3980 C   0  0  0  0  0  3  0  0  0  0  0  0
  183.6540  179.2050  144.8120 C   0  0  0  0  0  3  0  0  0  0  0  0
  184.3390  178.3760  140.4370 C   0  0  0  0  0  0  0  0  0  0  0  0
  182.9830  178.3930  140.8740 N   0  0  0  0  0  0  0  0  0  0  0  0
  189.3420  178.0690  140.7790 N   0  0  0  0  0  0  0  0  0  0  0  0
  184.7190  179.0610  143.9090 C   0  0  0  0  0  3  0  0  0  0  0  0
  188.8300  177.8730  142.1160 C   0  0  0  0  0  0  0  0  0  0  0  0
  187.1300  178.4970  139.9640 C   0  0  0  0  0  0  0  0  0  0  0  0
  190.3130  177.0470  145.4960 C   0  0  0  0  0  0  0  0  0  0  0  0
  189.7090  177.2880  143.1520 C   0  0  0  0  0  0  0  0  0  0  0  0
  189.4920  177.5920  144.5050 C   0  0  0  0  0  3  0  0  0  0  0  0
  190.0880  177.3560  146.8310 O   0  0  0  0  0  1  0  0  0  0  0  0
  190.7640  176.4250  142.8100 C   0  0  0  0  0  3  0  0  0  0  0  0
  191.3600  176.1900  145.1440 C   0  0  0  0  0  3  0  0  0  0  0  0
  191.5850  175.8800  143.8020 C   0  0  0  0  0  3  0  0  0  0  0  0
  1  4  2  0  0  0  0
  2  1  1  0  0  0  0
  2 11  1  0  0  0  0
  3 13  1  0  0  0  0
  4 16  1  0  0  0  0
  5 12  1  0  0  0  0
  6  3  2  0  0  0  0
  6 18  1  0  0  0  0
  7  4  1  0  0  0  0
  7  8  1  6  0  0  0
  8  5  2  0  0  0  0
  9 18  1  0  0  0  0
  9 15  2  0  0  0  0
 10  9  1  0  0  0  0
 13 14  2  0  0  0  0
 13  1  1  0  0  0  0
 14  7  1  0  0  0  0
 15 17  1  0  0  0  0
 16 12  2  0  0  0  0
 17 11  2  0  0  0  0
 17 20  1  0  0  0  0
 18  2  2  0  0  0  0
 19 22  1  0  0  0  0
 20 21  1  0  0  0  0
 21 19  2  0  0  0  0
 23 20  2  0  0  0  0
 23 25  1  0  0  0  0
 24 19  1  0  0  0  0
 25 24  2  0  0  0  0
M  END
>  <MODEL>
7

>  <REMARK>
 VINA RESULT:      -9.1      2.690      4.744
  Name = 
  1 active torsions:
  status: ('A' for Active; 'I' for Inactive)
    1  A    between atoms: C_6  and  C_23
                            x       y       z     vdW  Elec       q    Type
                         _______ _______ _______ _____ _____    ______ ____

>  <TORSDO>
F 1

$$$$
=
 OpenBabel10272400503D

 25 29  0  0  1  0  0  0  0  0999 V2000
  190.0090  177.3150  144.1950 C   0  0  0  0  0  0  0  0  0  0  0  0
  189.0530  178.1070  145.0340 C   0  0  1  0  0  3  0  0  0  0  0  0
  191.0900  176.2400  146.0850 C   0  0  0  0  0  3  0  0  0  0  0  0
  190.3440  177.3980  142.9210 C   0  0  0  0  0  0  0  0  0  0  0  0
  191.4680  177.2640  140.3900 C   0  0  0  0  0  3  0  0  0  0  0  0
  190.0240  176.7970  146.9550 C   0  0  0  0  0  3  0  0  0  0  0  0
  191.4810  176.6250  142.7050 C   0  0  0  0  0  0  0  0  0  0  0  0
  192.0590  176.5410  141.4390 C   0  0  0  0  0  3  0  0  0  0  0  0
  187.9200  178.0360  147.3080 C   0  0  0  0  0  0  0  0  0  0  0  0
  188.0060  178.0390  148.7960 C   0  0  0  0  0  1  0  0  0  0  0  0
  187.6570  178.1400  144.4840 C   0  0  0  0  0  3  0  0  0  0  0  0
  190.3260  178.0620  140.6190 C   0  0  0  0  0  3  0  0  0  0  0  0
  191.0300  176.4850  144.7790 C   0  0  0  0  0  0  0  0  0  0  0  0
  191.9460  176.0550  143.7760 N   0  0  0  0  0  0  0  0  0  0  0  0
  186.7980  178.3620  146.7330 N   0  0  0  0  0  0  0  0  0  0  0  0
  189.7540  178.1400  141.8980 C   0  0  0  0  0  3  0  0  0  0  0  0
  186.6060  178.3270  145.3000 C   0  0  0  0  0  0  0  0  0  0  0  0
  189.0610  177.6150  146.4740 C   0  0  0  0  0  0  0  0  0  0  0  0
  183.7420  178.4170  142.8310 C   0  0  0  0  0  0  0  0  0  0  0  0
  185.2380  178.4460  144.7490 C   0  0  0  0  0  0  0  0  0  0  0  0
  185.0280  178.3080  143.3690 C   0  0  0  0  0  3  0  0  0  0  0  0
  183.5480  178.2800  141.4640 O   0  0  0  0  0  1  0  0  0  0  0  0
  184.1350  178.6920  145.5840 C   0  0  0  0  0  3  0  0  0  0  0  0
  182.6520  178.6630  143.6710 C   0  0  0  0  0  3  0  0  0  0  0  0
  182.8490  178.8010  145.0460 C   0  0  0  0  0  3  0  0  0  0  0  0
  1 13  1  0  0  0  0
  1  2  1  0  0  0  0
  2 11  1  6  0  0  0
  2 18  1  0  0  0  0
  3  6  1  0  0  0  0
  4  1  2  0  0  0  0
  5 12  1  0  0  0  0
  5  8  2  0  0  0  0
  7  4  1  0  0  0  0
  7 14  2  0  0  0  0
  8  7  1  0  0  0  0
  9 10  1  0  0  0  0
 11 17  2  0  0  0  0
 12 16  2  0  0  0  0
 13  3  2  0  0  0  0
 14 13  1  0  0  0  0
 15  9  2  0  0  0  0
 16  4  1  0  0  0  0
 17 15  1  0  0  0  0
 18  6  2  0  0  0  0
 18  9  1  0  0  0  0
 19 21  2  0  0  0  0
 19 24  1  0  0  0  0
 20 17  1  0  0  0  0
 20 23  2  0  0  0  0
 21 20  1  0  0  0  0
 22 19  1  0  0  0  0
 24 25  2  0  0  0  0
 25 23  1  0  0  0  0
M  END
>  <MODEL>
8

>  <REMARK>
 VINA RESULT:      -8.9      1.923      6.345
  Name = 
  1 active torsions:
  status: ('A' for Active; 'I' for Inactive)
    1  A    between atoms: C_6  and  C_23
                            x       y       z     vdW  Elec       q    Type
                         _______ _______ _______ _____ _____    ______ ____

>  <TORSDO>
F 1

$$$$
=
 OpenBabel10272400503D

 25 29  0  0  1  0  0  0  0  0999 V2000
  188.1150  177.8420  139.5930 C   0  0  0  0  0  0  0  0  0  0  0  0
  189.2960  178.1880  140.4470 C   0  0  1  0  0  3  0  0  0  0  0  0
  189.4400  176.8870  137.7950 C   0  0  0  0  0  3  0  0  0  0  0  0
  186.8450  178.1990  139.6550 C   0  0  0  0  0  0  0  0  0  0  0  0
  184.1570  178.7630  139.2790 C   0  0  0  0  0  3  0  0  0  0  0  0
  190.6260  176.9730  138.6840 C   0  0  0  0  0  3  0  0  0  0  0  0
  186.2190  177.8400  138.4660 C   0  0  0  0  0  0  0  0  0  0  0  0
  184.8680  178.1100  138.2580 C   0  0  0  0  0  3  0  0  0  0  0  0
  191.7000  177.4630  140.8510 C   0  0  0  0  0  0  0  0  0  0  0  0
  193.0950  177.2840  140.3600 C   0  0  0  0  0  1  0  0  0  0  0  0
  189.0960  177.8770  141.9010 C   0  0  0  0  0  3  0  0  0  0  0  0
  184.8010  179.1420  140.4760 C   0  0  0  0  0  3  0  0  0  0  0  0
  188.2640  177.2820  138.2740 C   0  0  0  0  0  0  0  0  0  0  0  0
  187.0120  177.2910  137.5940 N   0  0  0  0  0  0  0  0  0  0  0  0
  191.4750  177.5160  142.1320 N   0  0  0  0  0  0  0  0  0  0  0  0
  186.1640  178.8650  140.6730 C   0  0  0  0  0  3  0  0  0  0  0  0
  190.1490  177.6260  142.6980 C   0  0  0  0  0  0  0  0  0  0  0  0
  190.5590  177.5240  139.9170 C   0  0  0  0  0  0  0  0  0  0  0  0
  190.8980  176.8890  146.3310 C   0  0  0  0  0  0  0  0  0  0  0  0
  189.9580  177.4060  144.1480 C   0  0  0  0  0  0  0  0  0  0  0  0
  191.0620  177.1000  144.9590 C   0  0  0  0  0  3  0  0  0  0  0  0
  191.9980  176.5850  147.1220 O   0  0  0  0  0  1  0  0  0  0  0  0
  188.6860  177.5010  144.7390 C   0  0  0  0  0  3  0  0  0  0  0  0
  189.6290  176.9850  146.9070 C   0  0  0  0  0  3  0  0  0  0  0  0
  188.5230  177.2900  146.1110 C   0  0  0  0  0  3  0  0  0  0  0  0
  1  4  2  0  0  0  0
  1  2  1  0  0  0  0
  2 11  1  1  0  0  0
  3 13  2  0  0  0  0
  3  6  1  0  0  0  0
  4 16  1  0  0  0  0
  5 12  1  0  0  0  0
  6 18  2  0  0  0  0
  7  4  1  0  0  0  0
  8  7  1  0  0  0  0
  8  5  2  0  0  0  0
  9 15  2  0  0  0  0
 10  9  1  0  0  0  0
 11 17  2  0  0  0  0
 12 16  2  0  0  0  0
 13  1  1  0  0  0  0
 14 13  1  0  0  0  0
 14  7  2  0  0  0  0
 15 17  1  0  0  0  0
 17 20  1  0  0  0  0
 18  2  1  0  0  0  0
 18  9  1  0  0  0  0
 19 24  1  0  0  0  0
 19 22  1  0  0  0  0
 20 23  2  0  0  0  0
 20 21  1  0  0  0  0
 21 19  2  0  0  0  0
 23 25  1  0  0  0  0
 25 24  2  0  0  0  0
M  END
>  <MODEL>
9

>  <REMARK>
 VINA RESULT:      -8.8      3.265      5.987
  Name = 
  1 active torsions:
  status: ('A' for Active; 'I' for Inactive)
    1  A    between atoms: C_6  and  C_23
                            x       y       z     vdW  Elec       q    Type
                         _______ _______ _______ _____ _____    ______ ____

>  <TORSDO>
F 1

$$$$
