=
 OpenBabel10272413363D

 32 37  0  0  1  0  0  0  0  0999 V2000
  185.9820  179.1160  141.4050 C   0  0  2  0  0  3  0  0  0  0  0  0
  183.7600  179.5770  144.5090 C   0  0  0  0  0  3  0  0  0  0  0  0
  182.5770  179.0130  143.9930 C   0  0  0  0  0  3  0  0  0  0  0  0
  185.7870  178.2460  138.9860 N   0  0  0  0  0  0  0  0  0  0  0  0
  184.9530  177.6710  138.0770 C   0  0  0  0  0  0  0  0  0  0  0  0
  183.1240  176.8050  137.2150 C   0  0  0  0  0  0  0  0  0  0  0  0
  184.9180  179.6480  143.7200 C   0  0  0  0  0  3  0  0  0  0  0  0
  184.8700  179.1450  142.4180 C   0  0  0  0  0  0  0  0  0  0  0  0
  183.9360  178.1800  140.5560 C   0  0  0  0  0  0  0  0  0  0  0  0
  184.1150  176.8150  136.2860 N   0  0  0  0  0  0  0  0  0  0  0  0
  185.2260  177.3410  136.8040 N   0  0  0  0  0  0  0  0  0  0  0  0
  182.5380  178.5150  142.6830 C   0  0  0  0  0  3  0  0  0  0  0  0
  183.7020  178.5950  141.9190 C   0  0  0  0  0  0  0  0  0  0  0  0
  183.0450  177.5930  139.6430 C   0  0  0  0  0  3  0  0  0  0  0  0
  187.1570  178.5920  138.6420 C   0  0  0  0  0  1  0  0  0  0  0  0
  181.7500  176.2910  136.9660 C   0  0  0  0  0  1  0  0  0  0  0  0
  185.2670  178.4880  140.2330 C   0  0  0  0  0  0  0  0  0  0  0  0
  183.5930  177.3390  138.3880 C   0  0  0  0  0  0  0  0  0  0  0  0
  190.4470  178.7540  143.6450 O   0  0  0  0  0  0  0  0  0  0  0  0
  188.2790  176.8570  143.2940 C   0  0  1  0  0  3  0  0  0  0  0  0
  188.3030  178.3720  141.4600 N   0  0  0  0  0  0  0  0  0  0  0  0
  190.5050  177.9250  142.5070 C   0  0  0  0  0  2  0  0  0  0  0  0
  187.0950  178.2370  141.8860 C   0  0  0  0  0  0  0  0  0  0  0  0
  190.0610  177.9760  144.7600 C   0  0  1  0  0  3  0  0  0  0  0  0
  189.1310  177.3800  142.1210 C   0  0  1  0  0  3  0  0  0  0  0  0
  188.6130  177.5140  144.6400 C   0  0  0  0  0  2  0  0  0  0  0  0
  186.9400  177.2820  142.9260 N   0  0  0  0  0  2  0  0  0  0  0  0
  191.0210  176.8300  145.0840 C   0  0  0  0  0  2  0  0  0  0  0  0
  191.6070  177.0320  146.3970 N   0  0  0  0  0  2  0  0  0  0  0  0
  190.6160  176.6000  147.3670 C   0  0  0  0  0  2  0  0  0  0  0  0
  190.0820  177.7970  148.1340 C   0  0  0  0  0  2  0  0  0  0  0  0
  188.5800  177.6850  148.3030 C   0  0  0  0  0  1  0  0  0  0  0  0
  1 23  1  1  0  0  0
  1  8  1  0  0  0  0
  3  2  1  0  0  0  0
  4 17  1  0  0  0  0
  5 18  1  0  0  0  0
  5  4  1  0  0  0  0
  6 18  1  0  0  0  0
  7  2  2  0  0  0  0
  8  7  1  0  0  0  0
  9 13  1  0  0  0  0
 10 11  1  0  0  0  0
 10  6  2  0  0  0  0
 11  5  2  0  0  0  0
 12  3  2  0  0  0  0
 13  8  2  0  0  0  0
 13 12  1  0  0  0  0
 14  9  1  0  0  0  0
 15  4  1  0  0  0  0
 16  6  1  0  0  0  0
 17  9  2  0  0  0  0
 17  1  1  0  0  0  0
 18 14  2  0  0  0  0
 19 24  1  0  0  0  0
 20 26  1  1  0  0  0
 21 23  2  0  0  0  0
 21 25  1  0  0  0  0
 22 19  1  0  0  0  0
 23 27  1  0  0  0  0
 24 28  1  6  0  0  0
 25 22  1  1  0  0  0
 25 20  1  0  0  0  0
 26 24  1  0  0  0  0
 27 20  1  0  0  0  0
 28 29  1  0  0  0  0
 29 30  1  0  0  0  0
 30 31  1  0  0  0  0
 31 32  1  0  0  0  0
M  END
>  <MODEL>
1

>  <REMARK>
 VINA RESULT:      -8.6      0.000      0.000
  Name = 
  5 active torsions:
  status: ('A' for Active; 'I' for Inactive)
    1  A    between atoms: C_1  and  C_20
    2  A    between atoms: C_3  and  C_14
    3  A    between atoms: N_10  and  C_20
    4  A    between atoms: N_10  and  C_24
    5  A    between atoms: C_19  and  C_24
                            x       y       z     vdW  Elec       q    Type
                         _______ _______ _______ _____ _____    ______ ____

>  <TORSDO>
F 5

$$$$
=
 OpenBabel10272413363D

 32 37  0  0  1  0  0  0  0  0999 V2000
  189.8170  177.8200  139.3190 C   0  0  2  0  0  3  0  0  0  0  0  0
  186.3070  177.6690  137.7550 C   0  0  0  0  0  3  0  0  0  0  0  0
  186.5760  176.7170  136.7530 C   0  0  0  0  0  3  0  0  0  0  0  0
  192.1590  176.8130  138.9400 N   0  0  0  0  0  0  0  0  0  0  0  0
  192.8860  175.9470  138.1830 C   0  0  0  0  0  0  0  0  0  0  0  0
  193.3650  174.4760  136.6180 C   0  0  0  0  0  0  0  0  0  0  0  0
  187.3200  178.0830  138.6350 C   0  0  0  0  0  3  0  0  0  0  0  0
  188.5940  177.5270  138.4940 C   0  0  0  0  0  0  0  0  0  0  0  0
  190.2390  176.2120  137.5820 C   0  0  0  0  0  0  0  0  0  0  0  0
  194.4800  174.7700  137.3360 N   0  0  0  0  0  0  0  0  0  0  0  0
  194.1950  175.6620  138.2850 N   0  0  0  0  0  0  0  0  0  0  0  0
  187.8600  176.1680  136.6180 C   0  0  0  0  0  3  0  0  0  0  0  0
  188.8490  176.5930  137.5050 C   0  0  0  0  0  0  0  0  0  0  0  0
  190.9580  175.3150  136.7750 C   0  0  0  0  0  3  0  0  0  0  0  0
  192.7750  177.5800  140.0120 C   0  0  0  0  0  1  0  0  0  0  0  0
  193.3320  173.5210  135.4780 C   0  0  0  0  0  1  0  0  0  0  0  0
  190.8260  176.9310  138.6350 C   0  0  0  0  0  0  0  0  0  0  0  0
  192.3050  175.1960  137.1080 C   0  0  0  0  0  0  0  0  0  0  0  0
  191.8190  176.4680  143.7070 O   0  0  0  0  0  0  0  0  0  0  0  0
  189.2310  177.5760  142.9990 C   0  0  1  0  0  3  0  0  0  0  0  0
  190.0500  176.2710  141.1860 N   0  0  0  0  0  0  0  0  0  0  0  0
  190.7840  175.5490  143.4430 C   0  0  0  0  0  2  0  0  0  0  0  0
  189.5990  177.3900  140.7370 C   0  0  0  0  0  0  0  0  0  0  0  0
  191.3070  177.5170  144.5040 C   0  0  1  0  0  3  0  0  0  0  0  0
  189.6770  176.1600  142.5850 C   0  0  1  0  0  3  0  0  0  0  0  0
  190.3210  178.3790  143.7220 C   0  0  0  0  0  2  0  0  0  0  0  0
  188.9970  178.2200  141.7190 N   0  0  0  0  0  2  0  0  0  0  0  0
  190.7510  177.0610  145.8540 C   0  0  0  0  0  2  0  0  0  0  0  0
  189.6810  177.9490  146.2730 N   0  0  0  0  0  2  0  0  0  0  0  0
  188.8500  177.1960  147.1950 C   0  0  0  0  0  2  0  0  0  0  0  0
  187.4380  177.7540  147.1970 C   0  0  0  0  0  2  0  0  0  0  0  0
  186.8130  177.6090  145.8230 C   0  0  0  0  0  1  0  0  0  0  0  0
  1 23  1  1  0  0  0
  2  7  1  0  0  0  0
  3  2  2  0  0  0  0
  4 15  1  0  0  0  0
  5 11  2  0  0  0  0
  5  4  1  0  0  0  0
  6 18  1  0  0  0  0
  6 10  2  0  0  0  0
  8  7  2  0  0  0  0
  8  1  1  0  0  0  0
  9 17  2  0  0  0  0
 10 11  1  0  0  0  0
 12  3  1  0  0  0  0
 12 13  2  0  0  0  0
 13  9  1  0  0  0  0
 13  8  1  0  0  0  0
 14 18  2  0  0  0  0
 14  9  1  0  0  0  0
 16  6  1  0  0  0  0
 17  4  1  0  0  0  0
 17  1  1  0  0  0  0
 18  5  1  0  0  0  0
 19 24  1  0  0  0  0
 20 26  1  6  0  0  0
 21 25  1  0  0  0  0
 22 19  1  0  0  0  0
 23 21  2  0  0  0  0
 23 27  1  0  0  0  0
 24 28  1  1  0  0  0
 25 20  1  0  0  0  0
 25 22  1  1  0  0  0
 26 24  1  0  0  0  0
 27 20  1  0  0  0  0
 28 29  1  0  0  0  0
 29 30  1  0  0  0  0
 30 31  1  0  0  0  0
 32 31  1  0  0  0  0
M  END
>  <MODEL>
2

>  <REMARK>
 VINA RESULT:      -8.5      3.916      6.253
  Name = 
  5 active torsions:
  status: ('A' for Active; 'I' for Inactive)
    1  A    between atoms: C_1  and  C_20
    2  A    between atoms: C_3  and  C_14
    3  A    between atoms: N_10  and  C_20
    4  A    between atoms: N_10  and  C_24
    5  A    between atoms: C_19  and  C_24
                            x       y       z     vdW  Elec       q    Type
                         _______ _______ _______ _____ _____    ______ ____

>  <TORSDO>
F 5

$$$$
=
 OpenBabel10272413363D

 32 37  0  0  1  0  0  0  0  0999 V2000
  187.7410  176.7740  143.0050 C   0  0  2  0  0  3  0  0  0  0  0  0
  184.3460  178.5080  143.5150 C   0  0  0  0  0  3  0  0  0  0  0  0
  184.5760  179.0190  144.8080 C   0  0  0  0  0  3  0  0  0  0  0  0
  189.9170  176.3370  144.3140 N   0  0  0  0  0  0  0  0  0  0  0  0
  190.5760  176.5710  145.4820 C   0  0  0  0  0  0  0  0  0  0  0  0
  190.9740  177.3230  147.5110 C   0  0  0  0  0  0  0  0  0  0  0  0
  185.3370  177.7600  142.8590 C   0  0  0  0  0  3  0  0  0  0  0  0
  186.5500  177.5390  143.5150 C   0  0  0  0  0  0  0  0  0  0  0  0
  188.0830  177.6460  145.2190 C   0  0  0  0  0  0  0  0  0  0  0  0
  192.0340  176.5980  147.0680 N   0  0  0  0  0  0  0  0  0  0  0  0
  191.7970  176.1390  145.8380 N   0  0  0  0  0  0  0  0  0  0  0  0
  185.7960  178.7860  145.4590 C   0  0  0  0  0  3  0  0  0  0  0  0
  186.7650  178.0420  144.7860 C   0  0  0  0  0  0  0  0  0  0  0  0
  188.7300  177.9030  146.4400 C   0  0  0  0  0  3  0  0  0  0  0  0
  190.5100  175.5290  143.2600 C   0  0  0  0  0  1  0  0  0  0  0  0
  190.9070  177.9740  148.8470 C   0  0  0  0  0  1  0  0  0  0  0  0
  188.6680  176.8910  144.1900 C   0  0  0  0  0  0  0  0  0  0  0  0
  190.0020  177.3470  146.5430 C   0  0  0  0  0  0  0  0  0  0  0  0
  189.3620  176.4200  138.2790 O   0  0  0  0  0  0  0  0  0  0  0  0
  188.3740  178.6570  139.8420 C   0  0  1  0  0  3  0  0  0  0  0  0
  189.4410  177.0970  141.2880 N   0  0  0  0  0  0  0  0  0  0  0  0
  190.3210  177.1850  138.9710 C   0  0  0  0  0  2  0  0  0  0  0  0
  188.3180  177.4590  141.8040 C   0  0  0  0  0  0  0  0  0  0  0  0
  188.4310  177.2930  137.6710 C   0  0  1  0  0  3  0  0  0  0  0  0
  189.7100  177.9500  140.1440 C   0  0  1  0  0  3  0  0  0  0  0  0
  187.5700  178.0000  138.7130 C   0  0  0  0  0  2  0  0  0  0  0  0
  187.6290  178.4620  141.0730 N   0  0  0  0  0  2  0  0  0  0  0  0
  189.0510  178.2620  136.6620 C   0  0  0  0  0  2  0  0  0  0  0  0
  189.2890  177.5800  135.4030 N   0  0  0  0  0  2  0  0  0  0  0  0
  188.0830  176.8290  135.1010 C   0  0  0  0  0  2  0  0  0  0  0  0
  187.1000  177.7050  134.3460 C   0  0  0  0  0  2  0  0  0  0  0  0
  185.6830  177.4170  134.8000 C   0  0  0  0  0  1  0  0  0  0  0  0
  1 23  1  6  0  0  0
  1  8  1  0  0  0  0
  1 17  1  0  0  0  0
  2  3  1  0  0  0  0
  3 12  2  0  0  0  0
  4  5  1  0  0  0  0
  5 11  2  0  0  0  0
  5 18  1  0  0  0  0
  6 16  1  0  0  0  0
  7  2  2  0  0  0  0
  7  8  1  0  0  0  0
  8 13  2  0  0  0  0
  9 14  1  0  0  0  0
 10  6  2  0  0  0  0
 11 10  1  0  0  0  0
 13  9  1  0  0  0  0
 13 12  1  0  0  0  0
 14 18  2  0  0  0  0
 15  4  1  0  0  0  0
 17  4  1  0  0  0  0
 17  9  2  0  0  0  0
 18  6  1  0  0  0  0
 19 22  1  0  0  0  0
 20 26  1  6  0  0  0
 20 25  1  0  0  0  0
 20 27  1  0  0  0  0
 21 23  2  0  0  0  0
 24 28  1  1  0  0  0
 24 19  1  0  0  0  0
 24 26  1  0  0  0  0
 25 22  1  6  0  0  0
 25 21  1  0  0  0  0
 27 23  1  0  0  0  0
 29 28  1  0  0  0  0
 30 29  1  0  0  0  0
 31 32  1  0  0  0  0
 31 30  1  0  0  0  0
M  END
>  <MODEL>
3

>  <REMARK>
 VINA RESULT:      -8.4      2.640      8.138
  Name = 
  5 active torsions:
  status: ('A' for Active; 'I' for Inactive)
    1  A    between atoms: C_1  and  C_20
    2  A    between atoms: C_3  and  C_14
    3  A    between atoms: N_10  and  C_20
    4  A    between atoms: N_10  and  C_24
    5  A    between atoms: C_19  and  C_24
                            x       y       z     vdW  Elec       q    Type
                         _______ _______ _______ _____ _____    ______ ____

>  <TORSDO>
F 5

$$$$
=
 OpenBabel10272413363D

 32 37  0  0  1  0  0  0  0  0999 V2000
  183.7400  178.9300  140.5040 C   0  0  2  0  0  3  0  0  0  0  0  0
  186.5580  178.4170  137.9380 C   0  0  0  0  0  3  0  0  0  0  0  0
  187.6020  178.1370  138.8410 C   0  0  0  0  0  3  0  0  0  0  0  0
  183.4210  178.9630  143.0610 N   0  0  0  0  0  0  0  0  0  0  0  0
  184.0420  178.7880  144.2600 C   0  0  0  0  0  0  0  0  0  0  0  0
  185.6430  178.3830  145.7140 C   0  0  0  0  0  0  0  0  0  0  0  0
  185.2630  178.6890  138.4080 C   0  0  0  0  0  3  0  0  0  0  0  0
  185.0360  178.6710  139.7860 C   0  0  0  0  0  0  0  0  0  0  0  0
  185.5540  178.4670  142.0130 C   0  0  0  0  0  0  0  0  0  0  0  0
  184.4820  178.6560  146.3650 N   0  0  0  0  0  0  0  0  0  0  0  0
  183.5090  178.9040  145.4870 N   0  0  0  0  0  0  0  0  0  0  0  0
  187.3640  178.1270  140.2240 C   0  0  0  0  0  3  0  0  0  0  0  0
  186.0680  178.3970  140.6660 C   0  0  0  0  0  0  0  0  0  0  0  0
  186.2300  178.2850  143.2310 C   0  0  0  0  0  3  0  0  0  0  0  0
  182.0140  179.3270  142.9850 C   0  0  0  0  0  1  0  0  0  0  0  0
  186.9280  178.0690  146.3930 C   0  0  0  0  0  1  0  0  0  0  0  0
  184.1890  178.7890  141.9370 C   0  0  0  0  0  0  0  0  0  0  0  0
  185.4320  178.4500  144.3600 C   0  0  0  0  0  0  0  0  0  0  0  0
  181.0440  176.6410  136.9560 O   0  0  0  0  0  0  0  0  0  0  0  0
  181.9150  175.8000  139.5950 C   0  0  1  0  0  3  0  0  0  0  0  0
  181.6190  178.1610  139.5790 N   0  0  0  0  0  0  0  0  0  0  0  0
  180.1620  176.8890  138.0270 C   0  0  0  0  0  2  0  0  0  0  0  0
  182.7360  177.8750  140.1520 C   0  0  0  0  0  0  0  0  0  0  0  0
  181.5770  175.3390  137.0940 C   0  0  1  0  0  3  0  0  0  0  0  0
  180.8860  176.9260  139.3720 C   0  0  1  0  0  3  0  0  0  0  0  0
  182.5130  175.2460  138.2940 C   0  0  0  0  0  2  0  0  0  0  0  0
  182.9820  176.4840  140.3030 N   0  0  0  0  0  2  0  0  0  0  0  0
  180.5240  174.2290  137.0800 C   0  0  0  0  0  2  0  0  0  0  0  0
  181.1070  172.9890  137.5600 N   0  0  0  0  0  2  0  0  0  0  0  0
  181.6130  172.2870  136.3950 C   0  0  0  0  0  2  0  0  0  0  0  0
  182.7190  171.3300  136.8030 C   0  0  0  0  0  2  0  0  0  0  0  0
  184.0270  172.0790  136.9710 C   0  0  0  0  0  1  0  0  0  0  0  0
  1 23  1  6  0  0  0
  1 17  1  0  0  0  0
  2  7  2  0  0  0  0
  2  3  1  0  0  0  0
  3 12  2  0  0  0  0
  4  5  1  0  0  0  0
  5 18  1  0  0  0  0
  5 11  2  0  0  0  0
  6 10  2  0  0  0  0
  6 16  1  0  0  0  0
  7  8  1  0  0  0  0
  8  1  1  0  0  0  0
  8 13  2  0  0  0  0
  9 14  1  0  0  0  0
 11 10  1  0  0  0  0
 12 13  1  0  0  0  0
 13  9  1  0  0  0  0
 14 18  2  0  0  0  0
 15  4  1  0  0  0  0
 17  9  2  0  0  0  0
 17  4  1  0  0  0  0
 18  6  1  0  0  0  0
 19 24  1  0  0  0  0
 19 22  1  0  0  0  0
 20 26  1  6  0  0  0
 20 27  1  0  0  0  0
 21 23  2  0  0  0  0
 23 27  1  0  0  0  0
 24 28  1  1  0  0  0
 24 26  1  0  0  0  0
 25 22  1  6  0  0  0
 25 21  1  0  0  0  0
 25 20  1  0  0  0  0
 28 29  1  0  0  0  0
 30 31  1  0  0  0  0
 30 29  1  0  0  0  0
 31 32  1  0  0  0  0
M  END
>  <MODEL>
4

>  <REMARK>
 VINA RESULT:      -7.8      3.564      8.791
  Name = 
  5 active torsions:
  status: ('A' for Active; 'I' for Inactive)
    1  A    between atoms: C_1  and  C_20
    2  A    between atoms: C_3  and  C_14
    3  A    between atoms: N_10  and  C_20
    4  A    between atoms: N_10  and  C_24
    5  A    between atoms: C_19  and  C_24
                            x       y       z     vdW  Elec       q    Type
                         _______ _______ _______ _____ _____    ______ ____

>  <TORSDO>
F 5

$$$$
=
 OpenBabel10272413363D

 32 37  0  0  1  0  0  0  0  0999 V2000
  190.6730  177.2330  138.7260 C   0  0  2  0  0  3  0  0  0  0  0  0
  186.9640  178.2110  138.4520 C   0  0  0  0  0  3  0  0  0  0  0  0
  186.5500  177.1830  137.5840 C   0  0  0  0  0  3  0  0  0  0  0  0
  192.2970  175.4780  137.7620 N   0  0  0  0  0  0  0  0  0  0  0  0
  192.4010  174.3870  136.9550 C   0  0  0  0  0  0  0  0  0  0  0  0
  191.8110  172.7770  135.5760 C   0  0  0  0  0  0  0  0  0  0  0  0
  188.3020  178.2950  138.8710 C   0  0  0  0  0  3  0  0  0  0  0  0
  189.2060  177.3360  138.4090 C   0  0  0  0  0  0  0  0  0  0  0  0
  189.9290  175.5060  137.2270 C   0  0  0  0  0  0  0  0  0  0  0  0
  193.1440  172.7070  135.8290 N   0  0  0  0  0  0  0  0  0  0  0  0
  193.5070  173.6820  136.6640 N   0  0  0  0  0  0  0  0  0  0  0  0
  187.4670  176.2280  137.1220 C   0  0  0  0  0  3  0  0  0  0  0  0
  188.7900  176.3310  137.5530 C   0  0  0  0  0  0  0  0  0  0  0  0
  189.9990  174.3850  136.3820 C   0  0  0  0  0  3  0  0  0  0  0  0
  193.4610  176.0360  138.4330 C   0  0  0  0  0  1  0  0  0  0  0  0
  191.0800  171.8420  134.6790 C   0  0  0  0  0  1  0  0  0  0  0  0
  191.0460  176.0270  137.8990 C   0  0  0  0  0  0  0  0  0  0  0  0
  191.2720  173.8330  136.2670 C   0  0  0  0  0  0  0  0  0  0  0  0
  190.4120  178.9180  143.4350 O   0  0  0  0  0  0  0  0  0  0  0  0
  190.3770  176.2410  142.3140 C   0  0  1  0  0  3  0  0  0  0  0  0
  191.6660  177.6650  140.9100 N   0  0  0  0  0  0  0  0  0  0  0  0
  191.6530  178.2620  143.3170 C   0  0  0  0  0  2  0  0  0  0  0  0
  190.8670  176.9610  140.1860 C   0  0  0  0  0  0  0  0  0  0  0  0
  189.4560  178.0040  143.9340 C   0  0  1  0  0  3  0  0  0  0  0  0
  191.6190  177.1520  142.2670 C   0  0  1  0  0  3  0  0  0  0  0  0
  189.1360  176.9210  142.9080 C   0  0  0  0  0  2  0  0  0  0  0  0
  190.1070  176.0020  140.9080 N   0  0  0  0  0  2  0  0  0  0  0  0
  189.7980  177.4310  145.3100 C   0  0  0  0  0  2  0  0  0  0  0  0
  188.6130  177.4180  146.1480 N   0  0  0  0  0  2  0  0  0  0  0  0
  189.0370  176.9700  147.4630 C   0  0  0  0  0  2  0  0  0  0  0  0
  190.3520  177.6290  147.8390 C   0  0  0  0  0  2  0  0  0  0  0  0
  191.4780  176.6160  147.8010 C   0  0  0  0  0  1  0  0  0  0  0  0
  1 23  1  1  0  0  0
  2  7  1  0  0  0  0
  3  2  2  0  0  0  0
  4 17  1  0  0  0  0
  4 15  1  0  0  0  0
  5  4  1  0  0  0  0
  6 10  2  0  0  0  0
  6 18  1  0  0  0  0
  8  1  1  0  0  0  0
  8  7  2  0  0  0  0
  9 13  1  0  0  0  0
  9 17  2  0  0  0  0
 10 11  1  0  0  0  0
 11  5  2  0  0  0  0
 12 13  2  0  0  0  0
 12  3  1  0  0  0  0
 13  8  1  0  0  0  0
 14  9  1  0  0  0  0
 16  6  1  0  0  0  0
 17  1  1  0  0  0  0
 18 14  2  0  0  0  0
 18  5  1  0  0  0  0
 19 24  1  0  0  0  0
 20 26  1  6  0  0  0
 21 25  1  0  0  0  0
 22 19  1  0  0  0  0
 23 27  1  0  0  0  0
 23 21  2  0  0  0  0
 24 28  1  1  0  0  0
 25 20  1  0  0  0  0
 25 22  1  1  0  0  0
 26 24  1  0  0  0  0
 27 20  1  0  0  0  0
 28 29  1  0  0  0  0
 29 30  1  0  0  0  0
 30 31  1  0  0  0  0
 32 31  1  0  0  0  0
M  END
>  <MODEL>
5

>  <REMARK>
 VINA RESULT:      -7.1      4.401      6.156
  Name = 
  5 active torsions:
  status: ('A' for Active; 'I' for Inactive)
    1  A    between atoms: C_1  and  C_20
    2  A    between atoms: C_3  and  C_14
    3  A    between atoms: N_10  and  C_20
    4  A    between atoms: N_10  and  C_24
    5  A    between atoms: C_19  and  C_24
                            x       y       z     vdW  Elec       q    Type
                         _______ _______ _______ _____ _____    ______ ____

>  <TORSDO>
F 5

$$$$
=
 OpenBabel10272413363D

 32 37  0  0  1  0  0  0  0  0999 V2000
  189.5820  176.8690  136.4800 C   0  0  2  0  0  3  0  0  0  0  0  0
  193.1210  175.5680  135.7260 C   0  0  0  0  0  3  0  0  0  0  0  0
  193.6290  175.5980  137.0400 C   0  0  0  0  0  3  0  0  0  0  0  0
  188.2120  177.7240  138.4890 N   0  0  0  0  0  0  0  0  0  0  0  0
  188.2310  177.9470  139.8320 C   0  0  0  0  0  0  0  0  0  0  0  0
  188.9850  178.0380  141.8970 C   0  0  0  0  0  0  0  0  0  0  0  0
  191.8030  175.9710  135.4630 C   0  0  0  0  0  3  0  0  0  0  0  0
  191.0100  176.3980  136.5310 C   0  0  0  0  0  0  0  0  0  0  0  0
  190.4940  176.9250  138.7050 C   0  0  0  0  0  0  0  0  0  0  0  0
  187.7090  178.5030  141.8470 N   0  0  0  0  0  0  0  0  0  0  0  0
  187.2480  178.4510  140.5970 N   0  0  0  0  0  0  0  0  0  0  0  0
  192.8260  176.0320  138.1040 C   0  0  0  0  0  3  0  0  0  0  0  0
  191.5180  176.4260  137.8170 C   0  0  0  0  0  0  0  0  0  0  0  0
  190.5540  177.1480  140.0900 C   0  0  0  0  0  3  0  0  0  0  0  0
  187.0400  178.0380  137.6880 C   0  0  0  0  0  1  0  0  0  0  0  0
  189.7990  177.9650  143.1400 C   0  0  0  0  0  1  0  0  0  0  0  0
  189.3530  177.2000  137.9350 C   0  0  0  0  0  0  0  0  0  0  0  0
  189.3830  177.6650  140.6380 C   0  0  0  0  0  0  0  0  0  0  0  0
  185.7030  173.8710  137.5070 O   0  0  0  0  0  0  0  0  0  0  0  0
  186.9160  174.7090  135.0060 C   0  0  1  0  0  3  0  0  0  0  0  0
  188.5770  174.6600  136.7090 N   0  0  0  0  0  0  0  0  0  0  0  0
  186.7160  173.0440  136.9830 C   0  0  0  0  0  2  0  0  0  0  0  0
  188.6860  175.7540  136.0380 C   0  0  0  0  0  0  0  0  0  0  0  0
  184.8450  174.2690  136.4550 C   0  0  1  0  0  3  0  0  0  0  0  0
  187.6340  173.7980  136.0210 C   0  0  1  0  0  3  0  0  0  0  0  0
  185.5510  175.2170  135.4920 C   0  0  0  0  0  2  0  0  0  0  0  0
  187.8020  175.8570  134.9310 N   0  0  0  0  0  2  0  0  0  0  0  0
  184.1560  173.1060  135.7400 C   0  0  0  0  0  2  0  0  0  0  0  0
  183.0250  172.6440  136.5240 N   0  0  0  0  0  2  0  0  0  0  0  0
  183.3340  171.2880  136.9430 C   0  0  0  0  0  2  0  0  0  0  0  0
  184.0870  170.5620  135.8430 C   0  0  0  0  0  2  0  0  0  0  0  0
  183.7310  169.0890  135.8460 C   0  0  0  0  0  1  0  0  0  0  0  0
  1 23  1  1  0  0  0
  1  8  1  0  0  0  0
  1 17  1  0  0  0  0
  2  3  1  0  0  0  0
  3 12  2  0  0  0  0
  4  5  1  0  0  0  0
  5 11  2  0  0  0  0
  5 18  1  0  0  0  0
  6 16  1  0  0  0  0
  7  2  2  0  0  0  0
  7  8  1  0  0  0  0
  8 13  2  0  0  0  0
  9 14  1  0  0  0  0
 10  6  2  0  0  0  0
 11 10  1  0  0  0  0
 13 12  1  0  0  0  0
 13  9  1  0  0  0  0
 14 18  2  0  0  0  0
 15  4  1  0  0  0  0
 17  4  1  0  0  0  0
 17  9  2  0  0  0  0
 18  6  1  0  0  0  0
 20 26  1  1  0  0  0
 20 25  1  0  0  0  0
 22 19  1  0  0  0  0
 23 21  2  0  0  0  0
 24 28  1  6  0  0  0
 24 19  1  0  0  0  0
 25 21  1  0  0  0  0
 25 22  1  1  0  0  0
 26 24  1  0  0  0  0
 27 20  1  0  0  0  0
 27 23  1  0  0  0  0
 28 29  1  0  0  0  0
 29 30  1  0  0  0  0
 31 32  1  0  0  0  0
 31 30  1  0  0  0  0
M  END
>  <MODEL>
6

>  <REMARK>
 VINA RESULT:      -7.0      4.536      9.525
  Name = 
  5 active torsions:
  status: ('A' for Active; 'I' for Inactive)
    1  A    between atoms: C_1  and  C_20
    2  A    between atoms: C_3  and  C_14
    3  A    between atoms: N_10  and  C_20
    4  A    between atoms: N_10  and  C_24
    5  A    between atoms: C_19  and  C_24
                            x       y       z     vdW  Elec       q    Type
                         _______ _______ _______ _____ _____    ______ ____

>  <TORSDO>
F 5

$$$$
=
 OpenBabel10272413363D

 32 37  0  0  1  0  0  0  0  0999 V2000
  187.6010  178.1780  138.2130 C   0  0  2  0  0  3  0  0  0  0  0  0
  191.2650  177.0260  138.0300 C   0  0  0  0  0  3  0  0  0  0  0  0
  191.4730  176.8040  139.4050 C   0  0  0  0  0  3  0  0  0  0  0  0
  185.7950  178.6430  139.9930 N   0  0  0  0  0  0  0  0  0  0  0  0
  185.5140  178.6080  141.3240 C   0  0  0  0  0  0  0  0  0  0  0  0
  185.7960  178.3010  143.4850 C   0  0  0  0  0  0  0  0  0  0  0  0
  190.0210  177.4790  137.5620 C   0  0  0  0  0  3  0  0  0  0  0  0
  189.0000  177.6990  138.4890 C   0  0  0  0  0  0  0  0  0  0  0  0
  188.0040  177.8060  140.5540 C   0  0  0  0  0  0  0  0  0  0  0  0
  184.5450  178.7730  143.2410 N   0  0  0  0  0  0  0  0  0  0  0  0
  184.3700  178.9610  141.9330 N   0  0  0  0  0  0  0  0  0  0  0  0
  190.4420  177.0330  140.3270 C   0  0  0  0  0  3  0  0  0  0  0  0
  189.2150  177.4800  139.8380 C   0  0  0  0  0  0  0  0  0  0  0  0
  187.7520  177.7620  141.9350 C   0  0  0  0  0  3  0  0  0  0  0  0
  184.8150  179.1090  139.0250 C   0  0  0  0  0  1  0  0  0  0  0  0
  186.3220  177.9900  144.8400 C   0  0  0  0  0  1  0  0  0  0  0  0
  187.0480  178.2280  139.6160 C   0  0  0  0  0  0  0  0  0  0  0  0
  186.4720  178.1710  142.2980 C   0  0  0  0  0  0  0  0  0  0  0  0
  184.0790  174.6240  137.9780 O   0  0  0  0  0  0  0  0  0  0  0  0
  185.2750  176.3250  135.9530 C   0  0  1  0  0  3  0  0  0  0  0  0
  186.8640  175.9170  137.6770 N   0  0  0  0  0  0  0  0  0  0  0  0
  185.2040  174.1130  137.3020 C   0  0  0  0  0  2  0  0  0  0  0  0
  186.8640  177.1710  137.3840 C   0  0  0  0  0  0  0  0  0  0  0  0
  183.2200  175.2400  137.0390 C   0  0  1  0  0  3  0  0  0  0  0  0
  186.0600  175.2210  136.6890 C   0  0  1  0  0  3  0  0  0  0  0  0
  183.8420  176.5110  136.4690 C   0  0  0  0  0  2  0  0  0  0  0  0
  186.0170  177.5240  136.3000 N   0  0  0  0  0  2  0  0  0  0  0  0
  182.7050  174.2960  135.9510 C   0  0  0  0  0  2  0  0  0  0  0  0
  181.4770  173.6580  136.3920 N   0  0  0  0  0  2  0  0  0  0  0  0
  181.5940  172.2500  136.0570 C   0  0  0  0  0  2  0  0  0  0  0  0
  182.5070  171.5530  137.0500 C   0  0  0  0  0  2  0  0  0  0  0  0
  183.4400  170.6010  136.3290 C   0  0  0  0  0  1  0  0  0  0  0  0
  1 23  1  6  0  0  0
  1  8  1  0  0  0  0
  1 17  1  0  0  0  0
  2  3  1  0  0  0  0
  3 12  2  0  0  0  0
  4  5  1  0  0  0  0
  5 11  2  0  0  0  0
  5 18  1  0  0  0  0
  6 16  1  0  0  0  0
  7  2  2  0  0  0  0
  7  8  1  0  0  0  0
  8 13  2  0  0  0  0
  9 14  1  0  0  0  0
 10  6  2  0  0  0  0
 11 10  1  0  0  0  0
 13 12  1  0  0  0  0
 13  9  1  0  0  0  0
 14 18  2  0  0  0  0
 15  4  1  0  0  0  0
 17  4  1  0  0  0  0
 17  9  2  0  0  0  0
 18  6  1  0  0  0  0
 20 27  1  0  0  0  0
 20 26  1  1  0  0  0
 20 25  1  0  0  0  0
 22 19  1  0  0  0  0
 23 21  2  0  0  0  0
 24 28  1  6  0  0  0
 24 19  1  0  0  0  0
 25 22  1  1  0  0  0
 25 21  1  0  0  0  0
 26 24  1  0  0  0  0
 27 23  1  0  0  0  0
 28 29  1  0  0  0  0
 30 29  1  0  0  0  0
 30 31  1  0  0  0  0
 32 31  1  0  0  0  0
M  END
>  <MODEL>
7

>  <REMARK>
 VINA RESULT:      -7.0      3.335      8.552
  Name = 
  5 active torsions:
  status: ('A' for Active; 'I' for Inactive)
    1  A    between atoms: C_1  and  C_20
    2  A    between atoms: C_3  and  C_14
    3  A    between atoms: N_10  and  C_20
    4  A    between atoms: N_10  and  C_24
    5  A    between atoms: C_19  and  C_24
                            x       y       z     vdW  Elec       q    Type
                         _______ _______ _______ _____ _____    ______ ____

>  <TORSDO>
F 5

$$$$
=
 OpenBabel10272413363D

 32 37  0  0  1  0  0  0  0  0999 V2000
  185.8880  178.1960  137.8630 C   0  0  2  0  0  3  0  0  0  0  0  0
  182.6510  179.7590  139.2280 C   0  0  0  0  0  3  0  0  0  0  0  0
  181.8600  178.5930  139.2510 C   0  0  0  0  0  3  0  0  0  0  0  0
  186.7440  175.9100  137.0340 N   0  0  0  0  0  0  0  0  0  0  0  0
  186.4170  174.6020  136.8520 C   0  0  0  0  0  0  0  0  0  0  0  0
  185.2160  172.7580  136.8410 C   0  0  0  0  0  0  0  0  0  0  0  0
  183.9810  179.7080  138.7850 C   0  0  0  0  0  3  0  0  0  0  0  0
  184.5000  178.4800  138.3700 C   0  0  0  0  0  0  0  0  0  0  0  0
  184.4980  176.2340  137.8960 C   0  0  0  0  0  0  0  0  0  0  0  0
  186.4550  172.5080  136.3440 N   0  0  0  0  0  0  0  0  0  0  0  0
  187.1870  173.6230  136.3470 N   0  0  0  0  0  0  0  0  0  0  0  0
  182.3900  177.3650  138.8280 C   0  0  0  0  0  3  0  0  0  0  0  0
  183.7150  177.3400  138.3930 C   0  0  0  0  0  0  0  0  0  0  0  0
  184.1210  174.8920  137.7160 C   0  0  0  0  0  3  0  0  0  0  0  0
  188.0560  176.4190  136.6670 C   0  0  0  0  0  1  0  0  0  0  0  0
  184.1460  171.7330  136.9720 C   0  0  0  0  0  1  0  0  0  0  0  0
  185.7740  176.7200  137.5690 C   0  0  0  0  0  0  0  0  0  0  0  0
  185.1230  174.0820  137.1870 C   0  0  0  0  0  0  0  0  0  0  0  0
  188.2750  176.5140  141.9320 O   0  0  0  0  0  0  0  0  0  0  0  0
  188.9450  178.5520  139.9770 C   0  0  1  0  0  3  0  0  0  0  0  0
  186.5790  178.4130  140.1900 N   0  0  0  0  0  0  0  0  0  0  0  0
  187.8730  177.8320  142.2240 C   0  0  0  0  0  2  0  0  0  0  0  0
  186.8940  178.4510  138.9420 C   0  0  0  0  0  0  0  0  0  0  0  0
  189.5950  176.5380  141.4270 C   0  0  1  0  0  3  0  0  0  0  0  0
  187.7730  178.6950  140.9670 C   0  0  1  0  0  3  0  0  0  0  0  0
  189.6510  177.1910  140.0500 C   0  0  0  0  0  2  0  0  0  0  0  0
  188.2810  178.6260  138.6880 N   0  0  0  0  0  2  0  0  0  0  0  0
  190.6240  177.1210  142.3980 C   0  0  0  0  0  2  0  0  0  0  0  0
  191.0310  176.1070  143.3530 N   0  0  0  0  0  2  0  0  0  0  0  0
  191.2920  176.7940  144.6060 C   0  0  0  0  0  2  0  0  0  0  0  0
  190.1270  177.7030  144.9530 C   0  0  0  0  0  2  0  0  0  0  0  0
  189.5130  177.2890  146.2760 C   0  0  0  0  0  1  0  0  0  0  0  0
  1  8  1  0  0  0  0
  1 23  1  1  0  0  0
  2  3  1  0  0  0  0
  4 17  1  0  0  0  0
  5  4  1  0  0  0  0
  5 18  1  0  0  0  0
  6 16  1  0  0  0  0
  6 18  1  0  0  0  0
  7  2  2  0  0  0  0
  8 13  2  0  0  0  0
  8  7  1  0  0  0  0
  9 13  1  0  0  0  0
 10 11  1  0  0  0  0
 10  6  2  0  0  0  0
 11  5  2  0  0  0  0
 12  3  2  0  0  0  0
 13 12  1  0  0  0  0
 14  9  1  0  0  0  0
 15  4  1  0  0  0  0
 17  1  1  0  0  0  0
 17  9  2  0  0  0  0
 18 14  2  0  0  0  0
 19 22  1  0  0  0  0
 20 26  1  1  0  0  0
 20 25  1  0  0  0  0
 21 25  1  0  0  0  0
 23 21  2  0  0  0  0
 24 19  1  0  0  0  0
 24 28  1  1  0  0  0
 25 22  1  1  0  0  0
 26 24  1  0  0  0  0
 27 23  1  0  0  0  0
 27 20  1  0  0  0  0
 28 29  1  0  0  0  0
 29 30  1  0  0  0  0
 30 31  1  0  0  0  0
 31 32  1  0  0  0  0
M  END
>  <MODEL>
8

>  <REMARK>
 VINA RESULT:      -6.6      2.512      3.788
  Name = 
  5 active torsions:
  status: ('A' for Active; 'I' for Inactive)
    1  A    between atoms: C_1  and  C_20
    2  A    between atoms: C_3  and  C_14
    3  A    between atoms: N_10  and  C_20
    4  A    between atoms: N_10  and  C_24
    5  A    between atoms: C_19  and  C_24
                            x       y       z     vdW  Elec       q    Type
                         _______ _______ _______ _____ _____    ______ ____

>  <TORSDO>
F 5

$$$$
=
 OpenBabel10272413363D

 32 37  0  0  1  0  0  0  0  0999 V2000
  187.8490  176.6930  143.1440 C   0  0  2  0  0  3  0  0  0  0  0  0
  184.4870  178.4870  143.6540 C   0  0  0  0  0  3  0  0  0  0  0  0
  184.7380  179.0220  144.9330 C   0  0  0  0  0  3  0  0  0  0  0  0
  190.0340  176.2510  144.4390 N   0  0  0  0  0  0  0  0  0  0  0  0
  190.7090  176.5000  145.5940 C   0  0  0  0  0  0  0  0  0  0  0  0
  191.1410  177.2900  147.6010 C   0  0  0  0  0  0  0  0  0  0  0  0
  185.4590  177.7110  143.0030 C   0  0  0  0  0  3  0  0  0  0  0  0
  186.6760  177.4860  143.6500 C   0  0  0  0  0  0  0  0  0  0  0  0
  188.2300  177.6070  145.3350 C   0  0  0  0  0  0  0  0  0  0  0  0
  192.1850  176.5400  147.1630 N   0  0  0  0  0  0  0  0  0  0  0  0
  191.9280  176.0580  145.9460 N   0  0  0  0  0  0  0  0  0  0  0  0
  185.9620  178.7860  145.5750 C   0  0  0  0  0  3  0  0  0  0  0  0
  186.9130  178.0130  144.9080 C   0  0  0  0  0  0  0  0  0  0  0  0
  188.8940  177.8810  146.5420 C   0  0  0  0  0  3  0  0  0  0  0  0
  190.6030  175.4120  143.3960 C   0  0  0  0  0  1  0  0  0  0  0  0
  191.0980  177.9700  148.9240 C   0  0  0  0  0  1  0  0  0  0  0  0
  188.7910  176.8210  144.3160 C   0  0  0  0  0  0  0  0  0  0  0  0
  190.1590  177.3070  146.6440 C   0  0  0  0  0  0  0  0  0  0  0  0
  191.1430  176.4990  139.3750 O   0  0  0  0  0  0  0  0  0  0  0  0
  188.6390  177.9290  139.7100 C   0  0  1  0  0  3  0  0  0  0  0  0
  189.6720  177.6430  141.8340 N   0  0  0  0  0  0  0  0  0  0  0  0
  191.2210  177.8020  139.9040 C   0  0  0  0  0  2  0  0  0  0  0  0
  188.4230  177.3420  141.9230 C   0  0  0  0  0  0  0  0  0  0  0  0
  190.2290  176.4950  138.2970 C   0  0  1  0  0  3  0  0  0  0  0  0
  189.9020  178.2470  140.5350 C   0  0  1  0  0  3  0  0  0  0  0  0
  188.8000  176.7190  138.7800 C   0  0  0  0  0  2  0  0  0  0  0  0
  187.6780  177.5620  140.7340 N   0  0  0  0  0  2  0  0  0  0  0  0
  190.6170  177.4270  137.1480 C   0  0  0  0  0  2  0  0  0  0  0  0
  191.2400  176.6640  136.0810 N   0  0  0  0  0  2  0  0  0  0  0  0
  190.1780  175.9250  135.4210 C   0  0  0  0  0  2  0  0  0  0  0  0
  190.6840  174.5590  134.9930 C   0  0  0  0  0  2  0  0  0  0  0  0
  189.5330  173.5750  134.9090 C   0  0  0  0  0  1  0  0  0  0  0  0
  1 23  1  6  0  0  0
  1  8  1  0  0  0  0
  1 17  1  0  0  0  0
  2  3  1  0  0  0  0
  3 12  2  0  0  0  0
  4  5  1  0  0  0  0
  5 11  2  0  0  0  0
  5 18  1  0  0  0  0
  6 16  1  0  0  0  0
  7  8  1  0  0  0  0
  7  2  2  0  0  0  0
  8 13  2  0  0  0  0
  9 14  1  0  0  0  0
 10  6  2  0  0  0  0
 11 10  1  0  0  0  0
 13  9  1  0  0  0  0
 13 12  1  0  0  0  0
 14 18  2  0  0  0  0
 15  4  1  0  0  0  0
 17  4  1  0  0  0  0
 17  9  2  0  0  0  0
 18  6  1  0  0  0  0
 19 22  1  0  0  0  0
 20 26  1  6  0  0  0
 20 25  1  0  0  0  0
 20 27  1  0  0  0  0
 21 23  2  0  0  0  0
 24 28  1  6  0  0  0
 24 26  1  0  0  0  0
 24 19  1  0  0  0  0
 25 22  1  6  0  0  0
 25 21  1  0  0  0  0
 27 23  1  0  0  0  0
 29 28  1  0  0  0  0
 30 29  1  0  0  0  0
 31 30  1  0  0  0  0
 32 31  1  0  0  0  0
M  END
>  <MODEL>
9

>  <REMARK>
 VINA RESULT:      -6.5      3.058      8.059
  Name = 
  5 active torsions:
  status: ('A' for Active; 'I' for Inactive)
    1  A    between atoms: C_1  and  C_20
    2  A    between atoms: C_3  and  C_14
    3  A    between atoms: N_10  and  C_20
    4  A    between atoms: N_10  and  C_24
    5  A    between atoms: C_19  and  C_24
                            x       y       z     vdW  Elec       q    Type
                         _______ _______ _______ _____ _____    ______ ____

>  <TORSDO>
F 5

$$$$
