=
 OpenBabel10272402013D

 28 32  0  0  1  0  0  0  0  0999 V2000
  189.7560  177.2770  137.3290 C   0  0  0  0  0  2  0  0  0  0  0  0
  188.4710  177.0140  134.7540 C   0  0  0  0  0  1  0  0  0  0  0  0
  188.9710  175.7300  135.4140 C   0  0  1  0  0  0  0  0  0  0  0  0
  190.6370  177.7550  140.3000 C   0  0  0  0  0  2  0  0  0  0  0  0
  191.1640  175.5270  134.4020 C   0  0  0  0  0  2  0  0  0  0  0  0
  192.4990  175.3410  136.5230 C   0  0  2  0  0  3  0  0  0  0  0  0
  189.7560  174.9550  134.3470 C   0  0  1  0  0  3  0  0  0  0  0  0
  192.1160  176.4890  138.7610 C   0  0  0  0  0  2  0  0  0  0  0  0
  191.3690  176.1070  135.7990 C   0  0  2  0  0  3  0  0  0  0  0  0
  189.4940  178.1120  139.5600 O   0  0  0  0  0  0  0  0  0  0  0  0
  192.2750  175.1620  138.0340 C   0  0  0  0  0  2  0  0  0  0  0  0
  190.8160  176.4610  139.5580 C   0  0  2  0  0  3  0  0  0  0  0  0
  189.5750  176.9290  138.8090 C   0  0  2  0  0  3  0  0  0  0  0  0
  190.0140  176.0220  136.4980 C   0  0  1  0  0  3  0  0  0  0  0  0
  195.5900  176.5060  134.5780 C   0  0  0  0  0  2  0  0  0  0  0  0
  195.0800  175.0120  136.5320 C   0  0  1  0  0  3  0  0  0  0  0  0
  196.1420  175.5460  135.6000 C   0  0  2  0  0  0  0  0  0  0  0  0
  193.8910  175.9450  136.2500 C   0  0  1  0  0  3  0  0  0  0  0  0
  197.1700  176.1600  136.3360 O   0  0  0  0  0  0  0  0  0  0  0  0
  197.5310  175.0410  135.5610 C   0  0  0  0  0  2  0  0  0  0  0  0
  194.0890  176.4830  134.8290 C   0  0  0  0  0  2  0  0  0  0  0  0
  194.8050  173.5190  136.2760 C   0  0  0  0  0  2  0  0  0  0  0  0
  195.0150  172.6430  137.5050 C   0  0  0  0  0  2  0  0  0  0  0  0
  195.5070  173.4950  138.6540 C   0  0  0  0  0  1  0  0  0  0  0  0
  191.3470  172.8680  134.3960 O   0  0  0  0  0  0  0  0  0  0  0  0
  189.8720  173.1670  134.6280 S   0  0  0  0  0  3  0  0  0  0  0  0
  187.7570  175.0140  135.9610 C   0  0  0  0  0  3  0  0  0  0  0  0
  186.5010  175.3870  135.7060 C   0  0  0  0  0  2  0  0  0  0  0  0
  3  2  1  6  0  0  0
  3 27  1  0  0  0  0
  3 14  1  0  0  0  0
  6 11  1  1  0  0  0
  7  5  1  0  0  0  0
  7 26  1  1  0  0  0
  7  3  1  0  0  0  0
  9  5  1  6  0  0  0
  9 14  1  0  0  0  0
  9  6  1  0  0  0  0
 10  4  1  0  0  0  0
 11  8  1  0  0  0  0
 12  8  1  6  0  0  0
 12  4  1  0  0  0  0
 13  1  1  6  0  0  0
 13 12  1  0  0  0  0
 13 10  1  0  0  0  0
 14  1  1  6  0  0  0
 15 21  1  0  0  0  0
 16 22  1  6  0  0  0
 17 15  1  6  0  0  0
 17 19  1  0  0  0  0
 17 16  1  0  0  0  0
 18 21  1  6  0  0  0
 18  6  1  0  0  0  0
 18 16  1  0  0  0  0
 20 17  1  0  0  0  0
 20 19  1  0  0  0  0
 22 23  1  0  0  0  0
 23 24  1  0  0  0  0
 25 26  2  0  0  0  0
 28 27  2  0  0  0  0
M  END
>  <MODEL>
1

>  <REMARK>
 VINA RESULT:      -4.8      0.000      0.000
  Name = 
  5 active torsions:
  status: ('A' for Active; 'I' for Inactive)
    1  A    between atoms: C_3  and  C_7
    2  A    between atoms: C_9  and  C_18
    3  A    between atoms: C_10  and  C_13
    4  A    between atoms: C_11  and  S_22
    5  A    between atoms: C_14  and  C_18
                            x       y       z     vdW  Elec       q    Type
                         _______ _______ _______ _____ _____    ______ ____

>  <TORSDO>
F 5

$$$$
=
 OpenBabel10272402013D

 28 32  0  0  1  0  0  0  0  0999 V2000
  191.6400  175.0340  137.8800 C   0  0  0  0  0  2  0  0  0  0  0  0
  188.9320  174.8870  136.8810 C   0  0  0  0  0  1  0  0  0  0  0  0
  189.5580  176.2750  136.9840 C   0  0  1  0  0  0  0  0  0  0  0  0
  194.7110  174.8890  138.4930 C   0  0  0  0  0  2  0  0  0  0  0  0
  188.7720  176.9630  139.1720 C   0  0  0  0  0  2  0  0  0  0  0  0
  191.0060  177.5410  140.1670 C   0  0  2  0  0  3  0  0  0  0  0  0
  188.5330  177.1770  137.6850 C   0  0  1  0  0  3  0  0  0  0  0  0
  193.2590  176.4160  139.8040 C   0  0  0  0  0  2  0  0  0  0  0  0
  190.2170  176.5000  139.3420 C   0  0  2  0  0  3  0  0  0  0  0  0
  193.8790  174.2410  137.5610 O   0  0  0  0  0  0  0  0  0  0  0  0
  192.4710  177.7150  139.7320 C   0  0  0  0  0  2  0  0  0  0  0  0
  193.9120  176.1610  138.4490 C   0  0  2  0  0  3  0  0  0  0  0  0
  193.0670  175.3810  137.4500 C   0  0  2  0  0  3  0  0  0  0  0  0
  190.7630  176.2830  137.9330 C   0  0  1  0  0  3  0  0  0  0  0  0
  189.9030  175.9660  143.4840 C   0  0  0  0  0  2  0  0  0  0  0  0
  190.0370  178.2610  142.4720 C   0  0  1  0  0  3  0  0  0  0  0  0
  189.6070  177.4320  143.6600 C   0  0  2  0  0  0  0  0  0  0  0  0
  190.9200  177.2790  141.6850 C   0  0  1  0  0  3  0  0  0  0  0  0
  190.2160  177.9110  144.8320 O   0  0  0  0  0  0  0  0  0  0  0  0
  188.8100  177.9610  144.7860 C   0  0  0  0  0  2  0  0  0  0  0  0
  190.4520  175.8710  142.0670 C   0  0  0  0  0  2  0  0  0  0  0  0
  188.8240  178.8040  141.6970 C   0  0  0  0  0  2  0  0  0  0  0  0
  187.5080  178.1370  142.0810 C   0  0  0  0  0  2  0  0  0  0  0  0
  186.3650  178.8340  141.3770 C   0  0  0  0  0  1  0  0  0  0  0  0
  187.3250  179.3590  136.8650 O   0  0  0  0  0  0  0  0  0  0  0  0
  188.7110  178.9500  137.3460 S   0  0  0  0  0  3  0  0  0  0  0  0
  189.9280  176.6980  135.5810 C   0  0  0  0  0  3  0  0  0  0  0  0
  189.2400  176.3400  134.4950 C   0  0  0  0  0  2  0  0  0  0  0  0
  3  2  1  6  0  0  0
  3  7  1  0  0  0  0
  3 14  1  0  0  0  0
  6 11  1  6  0  0  0
  6 18  1  0  0  0  0
  7 26  1  1  0  0  0
  7  5  1  0  0  0  0
  9  5  1  6  0  0  0
  9  6  1  0  0  0  0
 10  4  1  0  0  0  0
 11  8  1  0  0  0  0
 12  4  1  1  0  0  0
 12  8  1  0  0  0  0
 13 10  1  0  0  0  0
 13  1  1  1  0  0  0
 13 12  1  0  0  0  0
 14  1  1  1  0  0  0
 14  9  1  0  0  0  0
 16 22  1  6  0  0  0
 16 17  1  0  0  0  0
 17 15  1  6  0  0  0
 17 20  1  0  0  0  0
 17 19  1  0  0  0  0
 18 21  1  6  0  0  0
 18 16  1  0  0  0  0
 20 19  1  0  0  0  0
 21 15  1  0  0  0  0
 22 23  1  0  0  0  0
 24 23  1  0  0  0  0
 25 26  2  0  0  0  0
 27  3  1  0  0  0  0
 28 27  2  0  0  0  0
M  END
>  <MODEL>
2

>  <REMARK>
 VINA RESULT:      -4.4      2.848      6.944
  Name = 
  5 active torsions:
  status: ('A' for Active; 'I' for Inactive)
    1  A    between atoms: C_3  and  C_7
    2  A    between atoms: C_9  and  C_18
    3  A    between atoms: C_10  and  C_13
    4  A    between atoms: C_11  and  S_22
    5  A    between atoms: C_14  and  C_18
                            x       y       z     vdW  Elec       q    Type
                         _______ _______ _______ _____ _____    ______ ____

>  <TORSDO>
F 5

$$$$
=
 OpenBabel10272402013D

 28 32  0  0  1  0  0  0  0  0999 V2000
  188.0650  177.1110  137.0640 C   0  0  0  0  0  2  0  0  0  0  0  0
  186.7440  175.8850  134.8040 C   0  0  0  0  0  1  0  0  0  0  0  0
  187.4050  174.9480  135.8140 C   0  0  1  0  0  0  0  0  0  0  0  0
  188.9690  178.6310  139.6520 C   0  0  0  0  0  2  0  0  0  0  0  0
  189.5770  174.6350  134.7850 C   0  0  0  0  0  2  0  0  0  0  0  0
  190.9840  175.2940  136.7600 C   0  0  2  0  0  3  0  0  0  0  0  0
  188.2420  173.9430  135.0100 C   0  0  1  0  0  3  0  0  0  0  0  0
  190.5370  177.0770  138.5190 C   0  0  0  0  0  2  0  0  0  0  0  0
  189.7550  175.6620  135.9000 C   0  0  2  0  0  3  0  0  0  0  0  0
  187.7730  178.6090  138.9110 O   0  0  0  0  0  0  0  0  0  0  0  0
  190.8250  175.6050  138.2570 C   0  0  0  0  0  2  0  0  0  0  0  0
  189.2720  177.1880  139.3650 C   0  0  2  0  0  3  0  0  0  0  0  0
  187.9660  177.2580  138.5840 C   0  0  2  0  0  3  0  0  0  0  0  0
  188.4390  175.6820  136.6740 C   0  0  1  0  0  3  0  0  0  0  0  0
  193.8690  176.0400  134.3490 C   0  0  0  0  0  2  0  0  0  0  0  0
  193.5850  175.2420  136.7140 C   0  0  1  0  0  3  0  0  0  0  0  0
  194.5540  175.5350  135.5920 C   0  0  2  0  0  0  0  0  0  0  0  0
  192.2910  175.9060  136.2160 C   0  0  1  0  0  3  0  0  0  0  0  0
  195.5250  176.4580  136.0180 O   0  0  0  0  0  0  0  0  0  0  0  0
  195.9900  175.1850  135.6330 C   0  0  0  0  0  2  0  0  0  0  0  0
  192.3880  175.9550  134.6880 C   0  0  0  0  0  2  0  0  0  0  0  0
  193.4750  173.7300  136.9800 C   0  0  0  0  0  2  0  0  0  0  0  0
  193.6580  172.8770  135.7300 C   0  0  0  0  0  2  0  0  0  0  0  0
  192.3710  172.1420  135.4290 C   0  0  0  0  0  1  0  0  0  0  0  0
  187.6520  171.3870  135.1340 O   0  0  0  0  0  0  0  0  0  0  0  0
  188.5670  172.3700  135.8520 S   0  0  0  0  0  3  0  0  0  0  0  0
  186.2960  174.3400  136.6410 C   0  0  0  0  0  3  0  0  0  0  0  0
  185.1020  174.9120  136.8150 C   0  0  0  0  0  2  0  0  0  0  0  0
  3  2  1  6  0  0  0
  3 27  1  0  0  0  0
  3 14  1  0  0  0  0
  5  7  1  0  0  0  0
  6 11  1  1  0  0  0
  7  3  1  0  0  0  0
  7 26  1  1  0  0  0
  9  5  1  6  0  0  0
  9 14  1  0  0  0  0
  9  6  1  0  0  0  0
 10  4  1  0  0  0  0
 11  8  1  0  0  0  0
 12  8  1  6  0  0  0
 12  4  1  0  0  0  0
 13  1  1  6  0  0  0
 13 10  1  0  0  0  0
 13 12  1  0  0  0  0
 14  1  1  6  0  0  0
 15 21  1  0  0  0  0
 16 22  1  6  0  0  0
 17 15  1  6  0  0  0
 17 20  1  0  0  0  0
 17 19  1  0  0  0  0
 17 16  1  0  0  0  0
 18 21  1  6  0  0  0
 18 16  1  0  0  0  0
 18  6  1  0  0  0  0
 20 19  1  0  0  0  0
 23 22  1  0  0  0  0
 24 23  1  0  0  0  0
 25 26  2  0  0  0  0
 27 28  2  0  0  0  0
M  END
>  <MODEL>
3

>  <REMARK>
 VINA RESULT:      -4.3      1.589      2.063
  Name = 
  5 active torsions:
  status: ('A' for Active; 'I' for Inactive)
    1  A    between atoms: C_3  and  C_7
    2  A    between atoms: C_9  and  C_18
    3  A    between atoms: C_10  and  C_13
    4  A    between atoms: C_11  and  S_22
    5  A    between atoms: C_14  and  C_18
                            x       y       z     vdW  Elec       q    Type
                         _______ _______ _______ _____ _____    ______ ____

>  <TORSDO>
F 5

$$$$
=
 OpenBabel10272402013D

 28 32  0  0  1  0  0  0  0  0999 V2000
  186.3910  173.9500  134.9790 C   0  0  0  0  0  2  0  0  0  0  0  0
  188.3520  175.9760  134.3460 C   0  0  0  0  0  1  0  0  0  0  0  0
  188.0390  175.7510  135.8240 C   0  0  1  0  0  0  0  0  0  0  0  0
  184.6420  171.3870  135.4270 C   0  0  0  0  0  2  0  0  0  0  0  0
  186.3340  177.4360  136.1850 C   0  0  0  0  0  2  0  0  0  0  0  0
  184.5660  175.9270  137.1420 C   0  0  2  0  0  3  0  0  0  0  0  0
  187.8020  177.1340  136.4460 C   0  0  1  0  0  3  0  0  0  0  0  0
  184.0160  173.5190  136.5310 C   0  0  0  0  0  2  0  0  0  0  0  0
  185.6140  176.1000  136.0190 C   0  0  2  0  0  3  0  0  0  0  0  0
  185.8110  171.6430  134.6870 O   0  0  0  0  0  0  0  0  0  0  0  0
  184.4080  174.4820  137.6430 C   0  0  0  0  0  2  0  0  0  0  0  0
  185.0120  172.3630  136.5080 C   0  0  2  0  0  3  0  0  0  0  0  0
  186.2460  172.5770  135.6410 C   0  0  2  0  0  3  0  0  0  0  0  0
  186.7010  175.0280  136.0150 C   0  0  1  0  0  3  0  0  0  0  0  0
  181.9600  178.0900  135.3460 C   0  0  0  0  0  2  0  0  0  0  0  0
  182.6750  177.6210  137.7080 C   0  0  1  0  0  3  0  0  0  0  0  0
  181.7750  178.4280  136.8030 C   0  0  2  0  0  0  0  0  0  0  0  0
  183.1950  176.5230  136.7660 C   0  0  1  0  0  3  0  0  0  0  0  0
  180.4300  178.2540  137.1730 O   0  0  0  0  0  0  0  0  0  0  0  0
  180.9450  179.5610  137.2650 C   0  0  0  0  0  2  0  0  0  0  0  0
  183.1100  177.0930  135.3470 C   0  0  0  0  0  2  0  0  0  0  0  0
  183.7670  178.5000  138.3430 C   0  0  0  0  0  2  0  0  0  0  0  0
  183.8030  178.4220  139.8640 C   0  0  0  0  0  2  0  0  0  0  0  0
  182.8140  177.3800  140.3390 C   0  0  0  0  0  1  0  0  0  0  0  0
  187.3040  178.4730  138.6490 O   0  0  0  0  0  0  0  0  0  0  0  0
  188.0770  177.2270  138.2360 S   0  0  0  0  0  3  0  0  0  0  0  0
  189.2000  174.9790  136.4070 C   0  0  0  0  0  3  0  0  0  0  0  0
  190.0640  174.2740  135.6730 C   0  0  0  0  0  2  0  0  0  0  0  0
  3  2  1  6  0  0  0
  3 14  1  0  0  0  0
  3 27  1  0  0  0  0
  3  7  1  0  0  0  0
  5  7  1  0  0  0  0
  6 11  1  6  0  0  0
  7 26  1  1  0  0  0
  8 11  1  0  0  0  0
  9  5  1  1  0  0  0
  9  6  1  0  0  0  0
 10  4  1  0  0  0  0
 10 13  1  0  0  0  0
 12  4  1  6  0  0  0
 12  8  1  0  0  0  0
 13  1  1  6  0  0  0
 13 12  1  0  0  0  0
 14  1  1  6  0  0  0
 14  9  1  0  0  0  0
 15 21  1  0  0  0  0
 16 22  1  6  0  0  0
 17 15  1  6  0  0  0
 17 19  1  0  0  0  0
 17 20  1  0  0  0  0
 17 16  1  0  0  0  0
 18 21  1  6  0  0  0
 18  6  1  0  0  0  0
 18 16  1  0  0  0  0
 19 20  1  0  0  0  0
 22 23  1  0  0  0  0
 23 24  1  0  0  0  0
 26 25  2  0  0  0  0
 28 27  2  0  0  0  0
M  END
>  <MODEL>
4

>  <REMARK>
 VINA RESULT:      -4.3      4.523      9.636
  Name = 
  5 active torsions:
  status: ('A' for Active; 'I' for Inactive)
    1  A    between atoms: C_3  and  C_7
    2  A    between atoms: C_9  and  C_18
    3  A    between atoms: C_10  and  C_13
    4  A    between atoms: C_11  and  S_22
    5  A    between atoms: C_14  and  C_18
                            x       y       z     vdW  Elec       q    Type
                         _______ _______ _______ _____ _____    ______ ____

>  <TORSDO>
F 5

$$$$
=
 OpenBabel10272402013D

 28 32  0  0  1  0  0  0  0  0999 V2000
  181.7510  178.7150  136.8320 C   0  0  0  0  0  2  0  0  0  0  0  0
  182.5900  176.0230  136.1970 C   0  0  0  0  0  1  0  0  0  0  0  0
  181.4090  176.1740  137.1530 C   0  0  1  0  0  0  0  0  0  0  0  0
  180.7190  181.6720  136.9590 C   0  0  0  0  0  2  0  0  0  0  0  0
  182.5470  176.0820  139.2920 C   0  0  0  0  0  2  0  0  0  0  0  0
  181.6420  178.2230  140.2480 C   0  0  2  0  0  3  0  0  0  0  0  0
  181.6840  175.2550  138.3510 C   0  0  1  0  0  3  0  0  0  0  0  0
  181.1180  180.4110  139.0590 C   0  0  0  0  0  2  0  0  0  0  0  0
  182.2610  177.5530  139.0010 C   0  0  2  0  0  3  0  0  0  0  0  0
  181.0340  180.8020  135.8990 O   0  0  0  0  0  0  0  0  0  0  0  0
  180.5780  179.2870  139.9320 C   0  0  0  0  0  2  0  0  0  0  0  0
  180.2180  180.5590  137.8350 C   0  0  2  0  0  3  0  0  0  0  0  0
  180.5910  179.6940  136.6380 C   0  0  2  0  0  3  0  0  0  0  0  0
  181.3570  177.5760  137.7710 C   0  0  1  0  0  3  0  0  0  0  0  0
  184.7630  178.3700  142.4680 C   0  0  0  0  0  2  0  0  0  0  0  0
  182.3060  178.8410  142.6870 C   0  0  1  0  0  3  0  0  0  0  0  0
  183.6400  178.7670  143.3900 C   0  0  2  0  0  0  0  0  0  0  0  0
  182.7090  178.7920  141.2040 C   0  0  1  0  0  3  0  0  0  0  0  0
  183.9320  179.9960  144.0070 O   0  0  0  0  0  0  0  0  0  0  0  0
  183.8050  178.8790  144.8550 C   0  0  0  0  0  2  0  0  0  0  0  0
  184.0660  178.0830  141.1460 C   0  0  0  0  0  2  0  0  0  0  0  0
  181.3680  177.7070  143.1390 C   0  0  0  0  0  2  0  0  0  0  0  0
  179.9820  178.1910  143.5470 C   0  0  0  0  0  2  0  0  0  0  0  0
  180.0330  179.6720  143.8480 C   0  0  0  0  0  1  0  0  0  0  0  0
  180.0310  173.2760  138.8480 O   0  0  0  0  0  0  0  0  0  0  0  0
  180.2110  174.7290  139.2690 S   0  0  0  0  0  3  0  0  0  0  0  0
  180.1610  175.8440  136.3680 C   0  0  0  0  0  3  0  0  0  0  0  0
  180.0660  174.8110  135.5280 C   0  0  0  0  0  2  0  0  0  0  0  0
  3  2  1  6  0  0  0
  3 14  1  0  0  0  0
  3  7  1  0  0  0  0
  6 11  1  6  0  0  0
  6 18  1  0  0  0  0
  7 26  1  1  0  0  0
  7  5  1  0  0  0  0
  8 11  1  0  0  0  0
  9  5  1  1  0  0  0
  9  6  1  0  0  0  0
 10 13  1  0  0  0  0
 10  4  1  0  0  0  0
 12  4  1  6  0  0  0
 12  8  1  0  0  0  0
 13  1  1  1  0  0  0
 13 12  1  0  0  0  0
 14  1  1  6  0  0  0
 14  9  1  0  0  0  0
 16 22  1  1  0  0  0
 16 17  1  0  0  0  0
 17 15  1  6  0  0  0
 17 19  1  0  0  0  0
 17 20  1  0  0  0  0
 18 21  1  1  0  0  0
 18 16  1  0  0  0  0
 19 20  1  0  0  0  0
 21 15  1  0  0  0  0
 22 23  1  0  0  0  0
 23 24  1  0  0  0  0
 25 26  2  0  0  0  0
 27  3  1  0  0  0  0
 28 27  2  0  0  0  0
M  END
>  <MODEL>
5

>  <REMARK>
 VINA RESULT:      -4.3     10.080     12.054
  Name = 
  5 active torsions:
  status: ('A' for Active; 'I' for Inactive)
    1  A    between atoms: C_3  and  C_7
    2  A    between atoms: C_9  and  C_18
    3  A    between atoms: C_10  and  C_13
    4  A    between atoms: C_11  and  S_22
    5  A    between atoms: C_14  and  C_18
                            x       y       z     vdW  Elec       q    Type
                         _______ _______ _______ _____ _____    ______ ____

>  <TORSDO>
F 5

$$$$
=
 OpenBabel10272402013D

 28 32  0  0  1  0  0  0  0  0999 V2000
  184.5900  175.5620  135.2270 C   0  0  0  0  0  2  0  0  0  0  0  0
  186.4780  177.6860  134.7000 C   0  0  0  0  0  1  0  0  0  0  0  0
  186.6050  176.9600  136.0380 C   0  0  1  0  0  0  0  0  0  0  0  0
  182.7880  172.9990  135.3440 C   0  0  0  0  0  2  0  0  0  0  0  0
  185.2870  178.4110  137.4650 C   0  0  0  0  0  2  0  0  0  0  0  0
  183.7380  176.6600  138.3870 C   0  0  2  0  0  3  0  0  0  0  0  0
  186.7220  178.0400  137.1230 C   0  0  1  0  0  3  0  0  0  0  0  0
  182.7660  174.6130  137.2290 C   0  0  0  0  0  2  0  0  0  0  0  0
  184.4080  177.2150  137.1100 C   0  0  2  0  0  3  0  0  0  0  0  0
  183.6980  173.4990  134.3940 O   0  0  0  0  0  0  0  0  0  0  0  0
  183.5800  175.1300  138.4060 C   0  0  0  0  0  2  0  0  0  0  0  0
  183.5730  173.5400  136.5050 C   0  0  2  0  0  3  0  0  0  0  0  0
  184.5020  174.0440  135.4080 C   0  0  2  0  0  3  0  0  0  0  0  0
  185.3170  176.2130  136.4010 C   0  0  1  0  0  3  0  0  0  0  0  0
  180.9980  179.3410  138.4180 C   0  0  0  0  0  2  0  0  0  0  0  0
  182.2750  177.9720  140.0920 C   0  0  1  0  0  3  0  0  0  0  0  0
  181.2580  179.0680  139.8760 C   0  0  2  0  0  0  0  0  0  0  0  0
  182.3910  177.3460  138.6930 C   0  0  1  0  0  3  0  0  0  0  0  0
  180.0550  178.7500  140.5300 O   0  0  0  0  0  0  0  0  0  0  0  0
  180.7190  179.9150  140.9610 C   0  0  0  0  0  2  0  0  0  0  0  0
  181.9850  178.4360  137.6950 C   0  0  0  0  0  2  0  0  0  0  0  0
  183.5910  178.5310  140.6620 C   0  0  0  0  0  2  0  0  0  0  0  0
  183.7240  178.3560  142.1700 C   0  0  0  0  0  2  0  0  0  0  0  0
  185.1850  178.4140  142.5580 C   0  0  0  0  0  1  0  0  0  0  0  0
  187.0370  178.5060  139.6880 O   0  0  0  0  0  0  0  0  0  0  0  0
  187.5360  177.5060  138.6530 S   0  0  0  0  0  3  0  0  0  0  0  0
  187.7950  176.0350  135.9270 C   0  0  0  0  0  3  0  0  0  0  0  0
  187.8360  174.8130  136.4640 C   0  0  0  0  0  2  0  0  0  0  0  0
  3  2  1  6  0  0  0
  3 14  1  0  0  0  0
  3  7  1  0  0  0  0
  6 11  1  6  0  0  0
  6 18  1  0  0  0  0
  7  5  1  0  0  0  0
  7 26  1  1  0  0  0
  8 11  1  0  0  0  0
  9  5  1  1  0  0  0
  9  6  1  0  0  0  0
 10  4  1  0  0  0  0
 10 13  1  0  0  0  0
 12  4  1  6  0  0  0
 12  8  1  0  0  0  0
 13  1  1  6  0  0  0
 13 12  1  0  0  0  0
 14  1  1  6  0  0  0
 14  9  1  0  0  0  0
 16 22  1  6  0  0  0
 17 15  1  6  0  0  0
 17 16  1  0  0  0  0
 17 19  1  0  0  0  0
 17 20  1  0  0  0  0
 18 21  1  6  0  0  0
 18 16  1  0  0  0  0
 19 20  1  0  0  0  0
 21 15  1  0  0  0  0
 22 23  1  0  0  0  0
 23 24  1  0  0  0  0
 26 25  2  0  0  0  0
 27  3  1  0  0  0  0
 27 28  2  0  0  0  0
M  END
>  <MODEL>
6

>  <REMARK>
 VINA RESULT:      -4.2      5.794     10.352
  Name = 
  5 active torsions:
  status: ('A' for Active; 'I' for Inactive)
    1  A    between atoms: C_3  and  C_7
    2  A    between atoms: C_9  and  C_18
    3  A    between atoms: C_10  and  C_13
    4  A    between atoms: C_11  and  S_22
    5  A    between atoms: C_14  and  C_18
                            x       y       z     vdW  Elec       q    Type
                         _______ _______ _______ _____ _____    ______ ____

>  <TORSDO>
F 5

$$$$
=
 OpenBabel10272402013D

 28 32  0  0  1  0  0  0  0  0999 V2000
  186.5900  177.2920  144.6410 C   0  0  0  0  0  2  0  0  0  0  0  0
  188.5360  175.8310  143.0830 C   0  0  0  0  0  1  0  0  0  0  0  0
  188.4850  177.3450  142.8860 C   0  0  1  0  0  0  0  0  0  0  0  0
  184.7810  178.6900  146.7870 C   0  0  0  0  0  2  0  0  0  0  0  0
  186.9950  177.5010  140.9800 C   0  0  0  0  0  2  0  0  0  0  0  0
  185.3330  179.0980  141.9810 C   0  0  2  0  0  3  0  0  0  0  0  0
  188.4610  177.5980  141.3720 C   0  0  1  0  0  3  0  0  0  0  0  0
  184.5160  179.2590  144.3860 C   0  0  0  0  0  2  0  0  0  0  0  0
  186.1660  177.8200  142.2220 C   0  0  2  0  0  3  0  0  0  0  0  0
  185.8090  177.7320  146.8640 O   0  0  0  0  0  0  0  0  0  0  0  0
  185.1700  179.9910  143.2230 C   0  0  0  0  0  2  0  0  0  0  0  0
  185.4080  179.3920  145.6160 C   0  0  2  0  0  3  0  0  0  0  0  0
  186.4740  178.3160  145.7740 C   0  0  2  0  0  3  0  0  0  0  0  0
  187.1580  177.9340  143.3770 C   0  0  1  0  0  3  0  0  0  0  0  0
  182.5360  177.1500  140.2270 C   0  0  0  0  0  2  0  0  0  0  0  0
  183.7700  179.3150  139.9120 C   0  0  1  0  0  3  0  0  0  0  0  0
  182.7390  178.3620  139.3550 C   0  0  2  0  0  0  0  0  0  0  0  0
  183.9590  178.7970  141.3480 C   0  0  1  0  0  3  0  0  0  0  0  0
  181.5170  179.0280  139.1600 O   0  0  0  0  0  0  0  0  0  0  0  0
  182.1350  178.4960  138.0130 C   0  0  0  0  0  2  0  0  0  0  0  0
  183.5720  177.3150  141.3290 C   0  0  0  0  0  2  0  0  0  0  0  0
  185.0480  179.3250  139.0550 C   0  0  0  0  0  2  0  0  0  0  0  0
  185.1530  178.1360  138.1060 C   0  0  0  0  0  2  0  0  0  0  0  0
  186.4450  178.2270  137.3250 C   0  0  0  0  0  1  0  0  0  0  0  0
  189.0060  179.1650  139.3370 O   0  0  0  0  0  0  0  0  0  0  0  0
  189.0650  179.2290  140.8570 S   0  0  0  0  0  3  0  0  0  0  0  0
  189.6760  177.9250  143.6120 C   0  0  0  0  0  3  0  0  0  0  0  0
  190.1420  177.4480  144.7690 C   0  0  0  0  0  2  0  0  0  0  0  0
  3  2  1  1  0  0  0
  3 14  1  0  0  0  0
  3 27  1  0  0  0  0
  4 10  1  0  0  0  0
  5  7  1  0  0  0  0
  6  9  1  0  0  0  0
  6 11  1  1  0  0  0
  7 26  1  1  0  0  0
  7  3  1  0  0  0  0
  9  5  1  6  0  0  0
  9 14  1  0  0  0  0
 11  8  1  0  0  0  0
 12  8  1  6  0  0  0
 12 13  1  0  0  0  0
 12  4  1  0  0  0  0
 13  1  1  6  0  0  0
 13 10  1  0  0  0  0
 14  1  1  1  0  0  0
 15 21  1  0  0  0  0
 16 22  1  6  0  0  0
 16 18  1  0  0  0  0
 17 20  1  6  0  0  0
 17 16  1  0  0  0  0
 17 15  1  0  0  0  0
 18 21  1  6  0  0  0
 18  6  1  0  0  0  0
 19 17  1  0  0  0  0
 20 19  1  0  0  0  0
 23 22  1  0  0  0  0
 24 23  1  0  0  0  0
 25 26  2  0  0  0  0
 27 28  2  0  0  0  0
M  END
>  <MODEL>
7

>  <REMARK>
 VINA RESULT:      -4.2      6.786     10.470
  Name = 
  5 active torsions:
  status: ('A' for Active; 'I' for Inactive)
    1  A    between atoms: C_3  and  C_7
    2  A    between atoms: C_9  and  C_18
    3  A    between atoms: C_10  and  C_13
    4  A    between atoms: C_11  and  S_22
    5  A    between atoms: C_14  and  C_18
                            x       y       z     vdW  Elec       q    Type
                         _______ _______ _______ _____ _____    ______ ____

>  <TORSDO>
F 5

$$$$
=
 OpenBabel10272402013D

 28 32  0  0  1  0  0  0  0  0999 V2000
  186.0420  174.2200  137.1800 C   0  0  0  0  0  2  0  0  0  0  0  0
  184.2020  171.9930  137.1030 C   0  0  0  0  0  1  0  0  0  0  0  0
  184.0270  173.0740  136.0390 C   0  0  1  0  0  0  0  0  0  0  0  0
  188.4420  176.2370  137.1560 C   0  0  0  0  0  2  0  0  0  0  0  0
  182.3630  174.4840  137.0970 C   0  0  0  0  0  2  0  0  0  0  0  0
  183.6110  176.6590  136.9350 C   0  0  2  0  0  3  0  0  0  0  0  0
  182.5350  173.4350  136.0090 C   0  0  1  0  0  3  0  0  0  0  0  0
  186.1110  177.0880  137.1380 C   0  0  0  0  0  2  0  0  0  0  0  0
  183.7160  175.1610  137.2990 C   0  0  2  0  0  3  0  0  0  0  0  0
  188.3590  174.8330  137.1690 O   0  0  0  0  0  0  0  0  0  0  0  0
  184.8700  177.2380  136.2690 C   0  0  0  0  0  2  0  0  0  0  0  0
  187.1970  176.3880  136.3280 C   0  0  2  0  0  3  0  0  0  0  0  0
  187.1870  174.8660  136.3960 C   0  0  2  0  0  3  0  0  0  0  0  0
  184.7130  174.3830  136.4450 C   0  0  1  0  0  3  0  0  0  0  0  0
  181.9800  177.6370  140.2640 C   0  0  0  0  0  2  0  0  0  0  0  0
  181.9730  178.4430  137.8850 C   0  0  1  0  0  3  0  0  0  0  0  0
  181.4010  178.6130  139.2730 C   0  0  2  0  0  0  0  0  0  0  0  0
  183.1840  177.5300  138.1340 C   0  0  1  0  0  3  0  0  0  0  0  0
  181.5960  179.9300  139.7220 O   0  0  0  0  0  0  0  0  0  0  0  0
  180.2620  179.4990  139.5910 C   0  0  0  0  0  2  0  0  0  0  0  0
  182.8830  176.7500  139.4180 C   0  0  0  0  0  2  0  0  0  0  0  0
  180.9250  177.8760  136.9110 C   0  0  0  0  0  2  0  0  0  0  0  0
  180.8380  178.6440  135.5970 C   0  0  0  0  0  2  0  0  0  0  0  0
  180.7590  180.1270  135.8840 C   0  0  0  0  0  1  0  0  0  0  0  0
  180.7610  175.0030  134.8760 O   0  0  0  0  0  0  0  0  0  0  0  0
  181.9510  174.1530  134.4500 S   0  0  0  0  0  3  0  0  0  0  0  0
  184.5750  172.5130  134.7470 C   0  0  0  0  0  3  0  0  0  0  0  0
  185.0110  171.2590  134.6100 C   0  0  0  0  0  2  0  0  0  0  0  0
  3 14  1  0  0  0  0
  3  2  1  1  0  0  0
  4 10  1  0  0  0  0
  6 11  1  1  0  0  0
  6  9  1  0  0  0  0
  6 18  1  0  0  0  0
  7 26  1  6  0  0  0
  7  3  1  0  0  0  0
  7  5  1  0  0  0  0
  9  5  1  6  0  0  0
 11  8  1  0  0  0  0
 12 13  1  0  0  0  0
 12  8  1  1  0  0  0
 12  4  1  0  0  0  0
 13 10  1  0  0  0  0
 13  1  1  1  0  0  0
 14  1  1  1  0  0  0
 14  9  1  0  0  0  0
 16 22  1  6  0  0  0
 16 18  1  0  0  0  0
 16 17  1  0  0  0  0
 17 20  1  6  0  0  0
 17 19  1  0  0  0  0
 17 15  1  0  0  0  0
 18 21  1  1  0  0  0
 20 19  1  0  0  0  0
 21 15  1  0  0  0  0
 23 24  1  0  0  0  0
 23 22  1  0  0  0  0
 26 25  2  0  0  0  0
 27  3  1  0  0  0  0
 28 27  2  0  0  0  0
M  END
>  <MODEL>
8

>  <REMARK>
 VINA RESULT:      -4.0      5.355     10.439
  Name = 
  5 active torsions:
  status: ('A' for Active; 'I' for Inactive)
    1  A    between atoms: C_3  and  C_7
    2  A    between atoms: C_9  and  C_18
    3  A    between atoms: C_10  and  C_13
    4  A    between atoms: C_11  and  S_22
    5  A    between atoms: C_14  and  C_18
                            x       y       z     vdW  Elec       q    Type
                         _______ _______ _______ _____ _____    ______ ____

>  <TORSDO>
F 5

$$$$
=
 OpenBabel10272402013D

 28 32  0  0  1  0  0  0  0  0999 V2000
  191.9460  177.9240  140.6410 C   0  0  0  0  0  2  0  0  0  0  0  0
  191.0910  179.0900  143.1430 C   0  0  0  0  0  1  0  0  0  0  0  0
  190.5370  177.7100  142.7960 C   0  0  1  0  0  0  0  0  0  0  0  0
  193.4010  176.6690  138.1630 C   0  0  0  0  0  2  0  0  0  0  0  0
  188.4440  178.3190  141.7330 C   0  0  0  0  0  2  0  0  0  0  0  0
  188.7760  177.0550  139.5860 C   0  0  2  0  0  3  0  0  0  0  0  0
  189.0200  177.7660  143.0280 C   0  0  1  0  0  3  0  0  0  0  0  0
  190.9210  176.6590  138.2780 C   0  0  0  0  0  2  0  0  0  0  0  0
  189.4350  177.9980  140.6170 C   0  0  2  0  0  3  0  0  0  0  0  0
  193.8570  177.2880  139.3410 O   0  0  0  0  0  0  0  0  0  0  0  0
  189.7320  176.0170  138.9760 C   0  0  0  0  0  2  0  0  0  0  0  0
  192.2060  176.0630  138.8450 C   0  0  2  0  0  3  0  0  0  0  0  0
  192.7740  176.7700  140.0690 C   0  0  2  0  0  3  0  0  0  0  0  0
  190.6680  177.4090  141.2980 C   0  0  1  0  0  3  0  0  0  0  0  0
  185.8760  178.6150  137.6240 C   0  0  0  0  0  2  0  0  0  0  0  0
  187.7710  177.0260  137.1860 C   0  0  1  0  0  3  0  0  0  0  0  0
  186.5410  177.7010  136.6280 C   0  0  2  0  0  0  0  0  0  0  0  0
  188.0300  177.8220  138.4760 C   0  0  1  0  0  3  0  0  0  0  0  0
  186.8650  178.4130  135.4600 O   0  0  0  0  0  0  0  0  0  0  0  0
  185.9380  177.3620  135.3210 C   0  0  0  0  0  2  0  0  0  0  0  0
  186.6820  178.4130  138.8990 C   0  0  0  0  0  2  0  0  0  0  0  0
  187.5410  175.5190  137.3920 C   0  0  0  0  0  2  0  0  0  0  0  0
  187.9070  174.6760  136.1770 C   0  0  0  0  0  2  0  0  0  0  0  0
  189.0530  175.3300  135.4360 C   0  0  0  0  0  1  0  0  0  0  0  0
  187.0680  176.5160  144.2600 O   0  0  0  0  0  0  0  0  0  0  0  0
  188.2330  176.1630  143.3450 S   0  0  0  0  0  3  0  0  0  0  0  0
  191.2780  176.7090  143.6520 C   0  0  0  0  0  3  0  0  0  0  0  0
  191.6030  176.9250  144.9290 C   0  0  0  0  0  2  0  0  0  0  0  0
  3  7  1  0  0  0  0
  3  2  1  1  0  0  0
  3 27  1  0  0  0  0
  4 10  1  0  0  0  0
  5  7  1  0  0  0  0
  6 11  1  6  0  0  0
  6  9  1  0  0  0  0
  7 26  1  6  0  0  0
  8 12  1  0  0  0  0
  8 11  1  0  0  0  0
  9 14  1  0  0  0  0
  9  5  1  1  0  0  0
 10 13  1  0  0  0  0
 12  4  1  6  0  0  0
 12 13  1  0  0  0  0
 13  1  1  6  0  0  0
 14  1  1  6  0  0  0
 14  3  1  0  0  0  0
 15 21  1  0  0  0  0
 16 22  1  1  0  0  0
 16 18  1  0  0  0  0
 17 20  1  6  0  0  0
 17 16  1  0  0  0  0
 17 15  1  0  0  0  0
 18 21  1  1  0  0  0
 18  6  1  0  0  0  0
 19 17  1  0  0  0  0
 20 19  1  0  0  0  0
 23 22  1  0  0  0  0
 24 23  1  0  0  0  0
 26 25  2  0  0  0  0
 27 28  2  0  0  0  0
M  END
>  <MODEL>
9

>  <REMARK>
 VINA RESULT:      -3.9      3.526      7.697
  Name = 
  5 active torsions:
  status: ('A' for Active; 'I' for Inactive)
    1  A    between atoms: C_3  and  C_7
    2  A    between atoms: C_9  and  C_18
    3  A    between atoms: C_10  and  C_13
    4  A    between atoms: C_11  and  S_22
    5  A    between atoms: C_14  and  C_18
                            x       y       z     vdW  Elec       q    Type
                         _______ _______ _______ _____ _____    ______ ____

>  <TORSDO>
F 5

$$$$
