=
 OpenBabel10272401343D

 55 60  0  0  1  0  0  0  0  0999 V2000
  191.8340  177.1950  137.4260 C   0  0  0  0  0  2  0  0  0  0  0  0
  186.7330  179.1770  136.6840 O   0  0  0  0  0  0  0  0  0  0  0  0
  186.1530  176.9870  134.8760 C   0  0  0  0  0  1  0  0  0  0  0  0
  188.4920  176.5360  134.9300 O   0  0  0  0  0  0  0  0  0  0  0  0
  191.9920  177.2910  139.9210 C   0  0  0  0  0  3  0  0  0  0  0  0
  189.2080  177.1300  140.1540 C   0  0  0  0  0  0  0  0  0  0  0  0
  191.5550  175.9890  136.7660 O   0  0  0  0  0  0  0  0  0  0  0  0
  189.8090  177.1220  138.8930 C   0  0  0  0  0  3  0  0  0  0  0  0
  187.2530  179.3370  137.9710 C   0  0  0  0  0  2  0  0  0  0  0  0
  187.7630  178.5940  135.9370 C   0  0  0  0  0  2  0  0  0  0  0  0
  187.4530  177.1180  135.6670 C   0  0  1  0  0  3  0  0  0  0  0  0
  191.3910  177.3060  141.1860 C   0  0  0  0  0  3  0  0  0  0  0  0
  186.5130  178.4360  138.9620 C   0  0  1  0  0  3  0  0  0  0  0  0
  191.2010  177.1940  138.7740 C   0  0  0  0  0  0  0  0  0  0  0  0
  189.3020  175.8760  135.8650 C   0  0  2  0  0  3  0  0  0  0  0  0
  190.7520  176.3540  135.6750 C   0  0  2  0  0  3  0  0  0  0  0  0
  187.2190  178.3950  140.1700 O   0  0  0  0  0  0  0  0  0  0  0  0
  187.7220  177.0930  140.2620 C   0  0  0  0  0  2  0  0  0  0  0  0
  189.9970  177.2260  141.3020 C   0  0  0  0  0  3  0  0  0  0  0  0
  187.9890  173.9570  134.8090 C   0  0  0  0  0  2  0  0  0  0  0  0
  186.6300  174.1190  135.4980 C   0  0  0  0  0  2  0  0  0  0  0  0
  188.9770  173.7030  137.1630 C   0  0  2  0  0  3  0  0  0  0  0  0
  187.8440  172.6730  137.2330 C   0  0  0  0  0  2  0  0  0  0  0  0
  186.5160  173.2930  136.7840 C   0  0  0  0  0  2  0  0  0  0  0  0
  189.1390  174.3420  135.7620 C   0  0  2  0  0  3  0  0  0  0  0  0
  190.1760  173.0960  137.5390 O   0  0  0  0  0  1  0  0  0  0  0  0
  184.8770  180.1310  138.6860 O   0  0  0  0  0  1  0  0  0  0  0  0
  185.0480  178.8460  139.2050 C   0  0  2  0  0  0  0  0  0  0  0  0
  184.7970  178.8920  140.5660 F   0  0  0  0  0  0  0  0  0  0  0  0
  184.0690  177.8560  138.5250 C   0  0  1  0  0  3  0  0  0  0  0  0
  184.7740  176.7970  137.9500 O   0  0  0  0  0  1  0  0  0  0  0  0
  182.8990  177.3320  139.3980 C   0  0  2  0  0  0  0  0  0  0  0  0
  183.3400  177.1900  140.7190 O   0  0  0  0  0  1  0  0  0  0  0  0
  181.0800  175.7660  139.1590 F   0  0  0  0  0  0  0  0  0  0  0  0
  182.4300  175.9600  138.9020 C   0  0  0  0  0  2  0  0  0  0  0  0
  181.7020  178.3190  139.3900 C   0  0  2  0  0  3  0  0  0  0  0  0
  181.5080  179.0450  138.0390 C   0  0  2  0  0  3  0  0  0  0  0  0
  180.3310  179.8140  138.0690 O   0  0  0  0  0  0  0  0  0  0  0  0
  180.2910  178.6420  137.2940 C   0  0  0  0  0  2  0  0  0  0  0  0
  181.7600  179.2020  140.4790 O   0  0  0  0  0  0  0  0  0  0  0  0
  180.0690  177.7890  141.0930 O   0  0  0  0  0  1  0  0  0  0  0  0
  180.4980  179.1220  141.0900 C   0  0  1  0  0  3  0  0  0  0  0  0
  179.9820  180.7320  142.7950 O   0  0  0  0  0  0  0  0  0  0  0  0
  180.5720  179.6610  142.4850 C   0  0  0  0  0  0  0  0  0  0  0  0
  181.2690  178.9540  143.4510 O   0  0  0  0  0  1  0  0  0  0  0  0
  191.3580  175.8540  134.3650 C   0  0  0  0  0  2  0  0  0  0  0  0
  192.6470  173.7630  134.8620 C   0  0  0  0  0  2  0  0  0  0  0  0
  195.0690  174.0510  135.3520 C   0  0  0  0  0  0  0  0  0  0  0  0
  193.8520  175.9160  134.3550 C   0  0  0  0  0  3  0  0  0  0  0  0
  195.0220  175.3780  134.7000 C   0  0  0  0  0  3  0  0  0  0  0  0
  193.9580  173.3080  135.4450 C   0  0  0  0  0  3  0  0  0  0  0  0
  192.6330  175.1990  134.6060 N   0  0  0  0  0  0  0  0  0  0  0  0
  196.3810  173.5230  135.8730 C   0  0  0  0  0  3  0  0  0  0  0  0
  196.8190  174.3140  137.1050 C   0  0  0  0  0  2  0  0  0  0  0  0
  196.2120  172.9410  137.2690 C   0  0  0  0  0  2  0  0  0  0  0  0
  1 14  1  0  0  0  0
  2  9  1  0  0  0  0
  4 11  1  0  0  0  0
  5 12  1  0  0  0  0
  6 18  1  0  0  0  0
  6 19  1  0  0  0  0
  7  1  1  0  0  0  0
  8  6  2  0  0  0  0
  9 13  1  0  0  0  0
 10  2  1  0  0  0  0
 11  3  1  6  0  0  0
 11 10  1  0  0  0  0
 12 19  2  0  0  0  0
 13 28  1  1  0  0  0
 13 17  1  0  0  0  0
 14  8  1  0  0  0  0
 14  5  2  0  0  0  0
 15  4  1  6  0  0  0
 16 46  1  6  0  0  0
 16 15  1  0  0  0  0
 16  7  1  0  0  0  0
 17 18  1  0  0  0  0
 20 21  1  0  0  0  0
 21 24  1  0  0  0  0
 22 23  1  0  0  0  0
 22 26  1  6  0  0  0
 24 23  1  0  0  0  0
 25 20  1  6  0  0  0
 25 15  1  0  0  0  0
 25 22  1  0  0  0  0
 28 27  1  6  0  0  0
 28 29  1  0  0  0  0
 30 31  1  1  0  0  0
 30 28  1  0  0  0  0
 30 32  1  0  0  0  0
 32 33  1  1  0  0  0
 35 34  1  0  0  0  0
 35 32  1  0  0  0  0
 36 32  1  0  0  0  0
 36 40  1  1  0  0  0
 37 38  1  0  0  0  0
 37 36  1  1  0  0  0
 39 37  1  0  0  0  0
 39 38  1  0  0  0  0
 40 42  1  0  0  0  0
 42 41  1  1  0  0  0
 42 44  1  0  0  0  0
 44 43  2  0  0  0  0
 44 45  1  0  0  0  0
 46 52  1  0  0  0  0
 47 51  1  0  0  0  0
 48 51  2  0  0  0  0
 48 53  1  0  0  0  0
 49 52  1  0  0  0  0
 49 50  2  0  0  0  0
 50 48  1  0  0  0  0
 52 47  1  0  0  0  0
 53 54  1  0  0  0  0
 53 55  1  0  0  0  0
 54 55  1  0  0  0  0
M  END
>  <MODEL>
1

>  <REMARK>
 VINA RESULT:      -3.9      0.000      0.000
  Name = 
  13 active torsions:
  status: ('A' for Active; 'I' for Inactive)
    1  A    between atoms: C_1  and  C_53
    2  A    between atoms: C_6  and  C_14
    3  A    between atoms: C_6  and  C_20
    4  A    between atoms: C_6  and  C_53
    5  A    between atoms: C_8  and  C_20
    6  A    between atoms: C_8  and  C_43
    7  A    between atoms: C_10  and  C_32
    8  A    between atoms: C_11  and  C_29
    9  A    between atoms: C_11  and  O_38
   10  A    between atoms: C_26  and  C_45
   11  A    between atoms: C_33  and  C_49
   12  A    between atoms: C_33  and  N_52
   13  A    between atoms: O_38  and  C_53
                            x       y       z     vdW  Elec       q    Type
                         _______ _______ _______ _____ _____    ______ ____

>  <TORSDO>
F 13

$$$$
=
 OpenBabel10272401343D

 55 60  0  0  1  0  0  0  0  0999 V2000
  186.8440  175.9800  134.5040 C   0  0  0  0  0  2  0  0  0  0  0  0
  186.0240  178.8900  139.1260 O   0  0  0  0  0  0  0  0  0  0  0  0
  183.8210  177.1410  139.8270 C   0  0  0  0  0  1  0  0  0  0  0  0
  183.9960  176.2970  137.6060 O   0  0  0  0  0  0  0  0  0  0  0  0
  189.3220  175.6550  134.6150 C   0  0  0  0  0  3  0  0  0  0  0  0
  189.2860  175.9340  137.4000 C   0  0  0  0  0  0  0  0  0  0  0  0
  185.9640  174.9580  134.8880 O   0  0  0  0  0  0  0  0  0  0  0  0
  188.0980  176.0210  136.6680 C   0  0  0  0  0  3  0  0  0  0  0  0
  187.3590  178.7550  138.7360 C   0  0  0  0  0  2  0  0  0  0  0  0
  185.2780  178.2650  138.1190 C   0  0  0  0  0  2  0  0  0  0  0  0
  184.7310  176.9240  138.6200 C   0  0  1  0  0  3  0  0  0  0  0  0
  190.5150  175.5730  135.3450 C   0  0  0  0  0  3  0  0  0  0  0  0
  188.1110  177.8490  139.7110 C   0  0  1  0  0  3  0  0  0  0  0  0
  188.1130  175.8740  135.2780 C   0  0  0  0  0  0  0  0  0  0  0  0
  184.8680  175.3720  137.0160 C   0  0  2  0  0  3  0  0  0  0  0  0
  184.8880  175.6200  135.4990 C   0  0  2  0  0  3  0  0  0  0  0  0
  189.3500  177.4990  139.1610 O   0  0  0  0  0  0  0  0  0  0  0  0
  189.2570  176.1330  138.8760 C   0  0  0  0  0  2  0  0  0  0  0  0
  190.4950  175.7130  136.7390 C   0  0  0  0  0  3  0  0  0  0  0  0
  185.6500  173.1990  138.1090 C   0  0  0  0  0  2  0  0  0  0  0  0
  186.6980  172.7240  137.0970 C   0  0  0  0  0  2  0  0  0  0  0  0
  183.9740  173.1370  136.1680 C   0  0  2  0  0  3  0  0  0  0  0  0
  184.5780  171.7330  136.0480 C   0  0  0  0  0  2  0  0  0  0  0  0
  186.1090  171.7990  136.0260 C   0  0  0  0  0  2  0  0  0  0  0  0
  184.4860  173.9220  137.3990 C   0  0  2  0  0  3  0  0  0  0  0  0
  182.5830  173.0360  136.2260 O   0  0  0  0  0  1  0  0  0  0  0  0
  187.2560  179.3660  141.3210 O   0  0  0  0  0  1  0  0  0  0  0  0
  188.2960  178.4570  141.1150 C   0  0  2  0  0  0  0  0  0  0  0  0
  189.4930  179.1510  141.1680 F   0  0  0  0  0  0  0  0  0  0  0  0
  188.2770  177.3600  142.2090 C   0  0  1  0  0  3  0  0  0  0  0  0
  188.5560  176.1120  141.6470 O   0  0  0  0  0  1  0  0  0  0  0  0
  189.1610  177.6140  143.4580 C   0  0  2  0  0  0  0  0  0  0  0  0
  189.7670  178.8700  143.3420 O   0  0  0  0  0  1  0  0  0  0  0  0
  191.4560  177.0190  143.0140 F   0  0  0  0  0  0  0  0  0  0  0  0
  190.2660  176.5570  143.5590 C   0  0  0  0  0  2  0  0  0  0  0  0
  188.3160  177.6010  144.7580 C   0  0  2  0  0  3  0  0  0  0  0  0
  186.8870  178.1630  144.5750 C   0  0  2  0  0  3  0  0  0  0  0  0
  186.4660  178.8050  145.7530 O   0  0  0  0  0  0  0  0  0  0  0  0
  185.8710  177.5630  145.4730 C   0  0  0  0  0  2  0  0  0  0  0  0
  189.0050  178.2040  145.8220 O   0  0  0  0  0  0  0  0  0  0  0  0
  190.0680  176.4510  146.8380 O   0  0  0  0  0  1  0  0  0  0  0  0
  188.9400  177.2810  146.8780 C   0  0  1  0  0  3  0  0  0  0  0  0
  189.7550  178.8310  148.5210 O   0  0  0  0  0  0  0  0  0  0  0  0
  188.8600  178.0080  148.1860 C   0  0  0  0  0  0  0  0  0  0  0  0
  187.7700  177.7990  149.0140 O   0  0  0  0  0  1  0  0  0  0  0  0
  183.5680  175.2360  134.8330 C   0  0  0  0  0  2  0  0  0  0  0  0
  183.0490  177.6390  134.3460 C   0  0  0  0  0  2  0  0  0  0  0  0
  180.8990  178.5080  135.2490 C   0  0  0  0  0  0  0  0  0  0  0  0
  181.2550  176.0940  135.2070 C   0  0  0  0  0  3  0  0  0  0  0  0
  180.4170  177.1170  135.3820 C   0  0  0  0  0  3  0  0  0  0  0  0
  182.1330  178.7500  134.7850 C   0  0  0  0  0  3  0  0  0  0  0  0
  182.6290  176.3450  134.8750 N   0  0  0  0  0  0  0  0  0  0  0  0
  179.9820  179.6510  135.5980 C   0  0  0  0  0  3  0  0  0  0  0  0
  180.5750  180.4760  136.7400 C   0  0  0  0  0  2  0  0  0  0  0  0
  180.6560  180.9870  135.3210 C   0  0  0  0  0  2  0  0  0  0  0  0
  1  7  1  0  0  0  0
  1 14  1  0  0  0  0
  4 11  1  0  0  0  0
  5 14  2  0  0  0  0
  5 12  1  0  0  0  0
  6 18  1  0  0  0  0
  7 16  1  0  0  0  0
  8  6  2  0  0  0  0
  9  2  1  0  0  0  0
  9 13  1  0  0  0  0
 10 11  1  0  0  0  0
 10  2  1  0  0  0  0
 11  3  1  1  0  0  0
 12 19  2  0  0  0  0
 13 28  1  1  0  0  0
 14  8  1  0  0  0  0
 15 25  1  0  0  0  0
 15  4  1  1  0  0  0
 16 46  1  6  0  0  0
 16 15  1  0  0  0  0
 17 13  1  0  0  0  0
 18 17  1  0  0  0  0
 19  6  1  0  0  0  0
 21 20  1  0  0  0  0
 22 26  1  1  0  0  0
 22 25  1  0  0  0  0
 23 22  1  0  0  0  0
 24 23  1  0  0  0  0
 24 21  1  0  0  0  0
 25 20  1  6  0  0  0
 28 29  1  1  0  0  0
 28 27  1  0  0  0  0
 28 30  1  0  0  0  0
 30 31  1  6  0  0  0
 30 32  1  0  0  0  0
 32 33  1  6  0  0  0
 32 35  1  0  0  0  0
 32 36  1  0  0  0  0
 34 35  1  0  0  0  0
 36 40  1  1  0  0  0
 37 36  1  1  0  0  0
 37 39  1  0  0  0  0
 37 38  1  0  0  0  0
 39 38  1  0  0  0  0
 40 42  1  0  0  0  0
 42 41  1  1  0  0  0
 42 44  1  0  0  0  0
 44 43  2  0  0  0  0
 44 45  1  0  0  0  0
 46 52  1  0  0  0  0
 47 51  1  0  0  0  0
 47 52  1  0  0  0  0
 48 50  1  0  0  0  0
 48 53  1  0  0  0  0
 49 50  2  0  0  0  0
 51 48  2  0  0  0  0
 52 49  1  0  0  0  0
 53 54  1  0  0  0  0
 55 53  1  0  0  0  0
 55 54  1  0  0  0  0
M  END
>  <MODEL>
2

>  <REMARK>
 VINA RESULT:      -3.6      3.839      8.400
  Name = 
  13 active torsions:
  status: ('A' for Active; 'I' for Inactive)
    1  A    between atoms: C_1  and  C_53
    2  A    between atoms: C_6  and  C_14
    3  A    between atoms: C_6  and  C_20
    4  A    between atoms: C_6  and  C_53
    5  A    between atoms: C_8  and  C_20
    6  A    between atoms: C_8  and  C_43
    7  A    between atoms: C_10  and  C_32
    8  A    between atoms: C_11  and  C_29
    9  A    between atoms: C_11  and  O_38
   10  A    between atoms: C_26  and  C_45
   11  A    between atoms: C_33  and  C_49
   12  A    between atoms: C_33  and  N_52
   13  A    between atoms: O_38  and  C_53
                            x       y       z     vdW  Elec       q    Type
                         _______ _______ _______ _____ _____    ______ ____

>  <TORSDO>
F 13

$$$$
=
 OpenBabel10272401343D

 55 60  0  0  1  0  0  0  0  0999 V2000
  191.6400  177.1330  137.4070 C   0  0  0  0  0  2  0  0  0  0  0  0
  186.5480  179.1680  136.7510 O   0  0  0  0  0  0  0  0  0  0  0  0
  185.9210  176.9950  134.9390 C   0  0  0  0  0  1  0  0  0  0  0  0
  188.2550  176.5210  134.9560 O   0  0  0  0  0  0  0  0  0  0  0  0
  191.8340  177.2130  139.9000 C   0  0  0  0  0  3  0  0  0  0  0  0
  189.0520  177.0770  140.1730 C   0  0  0  0  0  0  0  0  0  0  0  0
  191.3390  175.9330  136.7450 O   0  0  0  0  0  0  0  0  0  0  0  0
  189.6350  177.0700  138.9030 C   0  0  0  0  0  3  0  0  0  0  0  0
  187.0880  179.3160  138.0310 C   0  0  0  0  0  2  0  0  0  0  0  0
  187.5620  178.5800  135.9850 C   0  0  0  0  0  2  0  0  0  0  0  0
  187.2330  177.1080  135.7110 C   0  0  1  0  0  3  0  0  0  0  0  0
  191.2520  177.2260  141.1740 C   0  0  0  0  0  3  0  0  0  0  0  0
  186.3530  178.4160  139.0260 C   0  0  1  0  0  3  0  0  0  0  0  0
  191.0260  177.1300  138.7650 C   0  0  0  0  0  0  0  0  0  0  0  0
  189.0730  175.8480  135.8750 C   0  0  2  0  0  3  0  0  0  0  0  0
  190.5240  176.3120  135.6670 C   0  0  2  0  0  3  0  0  0  0  0  0
  187.0760  178.3610  140.2250 O   0  0  0  0  0  0  0  0  0  0  0  0
  187.5670  177.0540  140.3010 C   0  0  0  0  0  2  0  0  0  0  0  0
  189.8590  177.1590  141.3090 C   0  0  0  0  0  3  0  0  0  0  0  0
  187.6200  173.9490  134.9740 C   0  0  0  0  0  2  0  0  0  0  0  0
  186.3710  174.0980  135.8490 C   0  0  0  0  0  2  0  0  0  0  0  0
  188.9260  173.6490  137.1630 C   0  0  2  0  0  3  0  0  0  0  0  0
  187.8110  172.6180  137.3700 C   0  0  0  0  0  2  0  0  0  0  0  0
  186.4350  173.2460  137.1220 C   0  0  0  0  0  2  0  0  0  0  0  0
  188.8930  174.3150  135.7650 C   0  0  2  0  0  3  0  0  0  0  0  0
  190.1640  173.0350  137.3560 O   0  0  0  0  0  1  0  0  0  0  0  0
  184.7370  180.1380  138.8080 O   0  0  0  0  0  1  0  0  0  0  0  0
  184.8960  178.8390  139.2940 C   0  0  2  0  0  0  0  0  0  0  0  0
  184.6580  178.8550  140.6580 F   0  0  0  0  0  0  0  0  0  0  0  0
  183.8980  177.8790  138.5980 C   0  0  1  0  0  3  0  0  0  0  0  0
  184.5870  176.8560  137.9440 O   0  0  0  0  0  1  0  0  0  0  0  0
  182.7620  177.3020  139.4840 C   0  0  2  0  0  0  0  0  0  0  0  0
  183.2920  176.9350  140.7270 O   0  0  0  0  0  1  0  0  0  0  0  0
  181.3700  175.3490  139.7370 F   0  0  0  0  0  0  0  0  0  0  0  0
  182.1560  176.0530  138.8350 C   0  0  0  0  0  2  0  0  0  0  0  0
  181.6460  178.3510  139.7230 C   0  0  2  0  0  3  0  0  0  0  0  0
  181.0190  178.2770  141.1350 C   0  0  2  0  0  3  0  0  0  0  0  0
  180.4630  179.5220  141.4820 O   0  0  0  0  0  0  0  0  0  0  0  0
  181.6540  179.1670  142.1370 C   0  0  0  0  0  2  0  0  0  0  0  0
  180.6860  178.3190  138.6990 O   0  0  0  0  0  0  0  0  0  0  0  0
  181.7070  180.3660  138.7490 O   0  0  0  0  0  1  0  0  0  0  0  0
  180.7220  179.5970  138.1170 C   0  0  1  0  0  3  0  0  0  0  0  0
  180.9250  180.4900  135.8970 O   0  0  0  0  0  0  0  0  0  0  0  0
  180.9970  179.4800  136.6490 C   0  0  0  0  0  0  0  0  0  0  0  0
  181.3700  178.2540  136.1230 O   0  0  0  0  0  1  0  0  0  0  0  0
  191.1060  175.8140  134.3460 C   0  0  0  0  0  2  0  0  0  0  0  0
  192.5040  173.7570  134.6530 C   0  0  0  0  0  2  0  0  0  0  0  0
  194.8910  174.1240  135.2500 C   0  0  0  0  0  0  0  0  0  0  0  0
  193.5920  176.0170  134.4240 C   0  0  0  0  0  3  0  0  0  0  0  0
  194.7820  175.5100  134.7460 C   0  0  0  0  0  3  0  0  0  0  0  0
  193.8240  173.3140  135.2260 C   0  0  0  0  0  3  0  0  0  0  0  0
  192.4110  175.2100  134.5550 N   0  0  0  0  0  0  0  0  0  0  0  0
  196.2180  173.6150  135.7520 C   0  0  0  0  0  3  0  0  0  0  0  0
  196.7610  174.5400  136.8420 C   0  0  0  0  0  2  0  0  0  0  0  0
  196.1250  173.2230  137.2200 C   0  0  0  0  0  2  0  0  0  0  0  0
  1 14  1  0  0  0  0
  2  9  1  0  0  0  0
  4 11  1  0  0  0  0
  5 12  1  0  0  0  0
  6 18  1  0  0  0  0
  6 19  1  0  0  0  0
  7  1  1  0  0  0  0
  8  6  2  0  0  0  0
  9 13  1  0  0  0  0
 10  2  1  0  0  0  0
 11  3  1  6  0  0  0
 11 10  1  0  0  0  0
 12 19  2  0  0  0  0
 13 28  1  1  0  0  0
 13 17  1  0  0  0  0
 14  8  1  0  0  0  0
 14  5  2  0  0  0  0
 15  4  1  6  0  0  0
 16 46  1  6  0  0  0
 16 15  1  0  0  0  0
 16  7  1  0  0  0  0
 17 18  1  0  0  0  0
 20 21  1  0  0  0  0
 21 24  1  0  0  0  0
 22 26  1  6  0  0  0
 22 23  1  0  0  0  0
 24 23  1  0  0  0  0
 25 20  1  1  0  0  0
 25 15  1  0  0  0  0
 25 22  1  0  0  0  0
 28 27  1  6  0  0  0
 28 29  1  0  0  0  0
 30 31  1  1  0  0  0
 30 28  1  0  0  0  0
 30 32  1  0  0  0  0
 32 36  1  0  0  0  0
 32 33  1  1  0  0  0
 35 32  1  0  0  0  0
 35 34  1  0  0  0  0
 36 40  1  6  0  0  0
 37 36  1  6  0  0  0
 37 38  1  0  0  0  0
 37 39  1  0  0  0  0
 38 39  1  0  0  0  0
 42 40  1  0  0  0  0
 42 41  1  1  0  0  0
 43 44  2  0  0  0  0
 44 42  1  0  0  0  0
 45 44  1  0  0  0  0
 46 52  1  0  0  0  0
 47 51  1  0  0  0  0
 48 53  1  0  0  0  0
 49 52  1  0  0  0  0
 49 50  2  0  0  0  0
 50 48  1  0  0  0  0
 51 48  2  0  0  0  0
 52 47  1  0  0  0  0
 53 54  1  0  0  0  0
 53 55  1  0  0  0  0
 54 55  1  0  0  0  0
M  END
>  <MODEL>
3

>  <REMARK>
 VINA RESULT:      -3.5      0.729      1.986
  Name = 
  13 active torsions:
  status: ('A' for Active; 'I' for Inactive)
    1  A    between atoms: C_1  and  C_53
    2  A    between atoms: C_6  and  C_14
    3  A    between atoms: C_6  and  C_20
    4  A    between atoms: C_6  and  C_53
    5  A    between atoms: C_8  and  C_20
    6  A    between atoms: C_8  and  C_43
    7  A    between atoms: C_10  and  C_32
    8  A    between atoms: C_11  and  C_29
    9  A    between atoms: C_11  and  O_38
   10  A    between atoms: C_26  and  C_45
   11  A    between atoms: C_33  and  C_49
   12  A    between atoms: C_33  and  N_52
   13  A    between atoms: O_38  and  C_53
                            x       y       z     vdW  Elec       q    Type
                         _______ _______ _______ _____ _____    ______ ____

>  <TORSDO>
F 13

$$$$
=
 OpenBabel10272401343D

 55 60  0  0  1  0  0  0  0  0999 V2000
  191.8260  177.0890  137.3560 C   0  0  0  0  0  2  0  0  0  0  0  0
  186.7410  179.0190  136.3960 O   0  0  0  0  0  0  0  0  0  0  0  0
  186.2100  176.7460  134.6790 C   0  0  0  0  0  1  0  0  0  0  0  0
  188.5480  176.3040  134.8120 O   0  0  0  0  0  0  0  0  0  0  0  0
  191.9210  177.3030  139.8470 C   0  0  0  0  0  3  0  0  0  0  0  0
  189.1320  177.1450  140.0180 C   0  0  0  0  0  0  0  0  0  0  0  0
  191.5660  175.8530  136.7470 O   0  0  0  0  0  0  0  0  0  0  0  0
  189.7650  177.0790  138.7740 C   0  0  0  0  0  3  0  0  0  0  0  0
  187.2280  179.2410  137.6860 C   0  0  0  0  0  2  0  0  0  0  0  0
  187.7910  178.4050  135.7030 C   0  0  0  0  0  2  0  0  0  0  0  0
  187.4900  176.9170  135.4940 C   0  0  1  0  0  3  0  0  0  0  0  0
  191.2890  177.3750  141.0950 C   0  0  0  0  0  3  0  0  0  0  0  0
  186.4660  178.3850  138.6990 C   0  0  1  0  0  3  0  0  0  0  0  0
  191.1590  177.1490  138.6870 C   0  0  0  0  0  0  0  0  0  0  0  0
  189.3360  175.6920  135.7960 C   0  0  2  0  0  3  0  0  0  0  0  0
  190.7890  176.1640  135.6200 C   0  0  2  0  0  3  0  0  0  0  0  0
  187.1410  178.4030  139.9260 O   0  0  0  0  0  0  0  0  0  0  0  0
  187.6440  177.1080  140.0900 C   0  0  0  0  0  2  0  0  0  0  0  0
  189.8920  177.2960  141.1790 C   0  0  0  0  0  3  0  0  0  0  0  0
  188.0250  173.7230  134.8300 C   0  0  0  0  0  2  0  0  0  0  0  0
  186.6690  173.9110  135.5170 C   0  0  0  0  0  2  0  0  0  0  0  0
  189.0240  173.5760  137.1890 C   0  0  2  0  0  3  0  0  0  0  0  0
  187.8950  172.5460  137.3100 C   0  0  0  0  0  2  0  0  0  0  0  0
  186.5630  173.1410  136.8390 C   0  0  0  0  0  2  0  0  0  0  0  0
  189.1780  174.1530  135.7610 C   0  0  2  0  0  3  0  0  0  0  0  0
  190.2260  172.9900  137.5860 O   0  0  0  0  0  1  0  0  0  0  0  0
  184.8910  180.1530  138.5490 O   0  0  0  0  0  1  0  0  0  0  0  0
  184.9940  178.8010  138.8870 C   0  0  2  0  0  0  0  0  0  0  0  0
  184.6360  178.6600  140.2170 F   0  0  0  0  0  0  0  0  0  0  0  0
  184.0530  177.9510  137.9970 C   0  0  1  0  0  3  0  0  0  0  0  0
  184.5820  176.6710  137.8190 O   0  0  0  0  0  1  0  0  0  0  0  0
  182.5660  177.8810  138.4330 C   0  0  2  0  0  0  0  0  0  0  0  0
  182.2800  178.9710  139.2620 O   0  0  0  0  0  1  0  0  0  0  0  0
  181.0960  176.6700  139.9120 F   0  0  0  0  0  0  0  0  0  0  0  0
  182.2980  176.5950  139.2230 C   0  0  0  0  0  2  0  0  0  0  0  0
  181.6160  177.9400  137.2080 C   0  0  2  0  0  3  0  0  0  0  0  0
  180.6710  179.1640  137.2160 C   0  0  2  0  0  3  0  0  0  0  0  0
  180.0540  179.3050  135.9610 O   0  0  0  0  0  0  0  0  0  0  0  0
  181.0530  180.2420  136.2730 C   0  0  0  0  0  2  0  0  0  0  0  0
  180.9330  176.7260  137.0320 O   0  0  0  0  0  0  0  0  0  0  0  0
  182.3610  177.0770  135.2790 O   0  0  0  0  0  1  0  0  0  0  0  0
  181.3650  176.2350  135.7890 C   0  0  1  0  0  3  0  0  0  0  0  0
  181.0880  173.8840  136.1880 O   0  0  0  0  0  1  0  0  0  0  0  0
  181.8780  174.8360  135.9450 C   0  0  0  0  0  0  0  0  0  0  0  0
  183.2300  174.5860  135.7820 O   0  0  0  0  0  0  0  0  0  0  0  0
  191.4280  175.6050  134.3510 C   0  0  0  0  0  2  0  0  0  0  0  0
  192.8170  173.5750  134.8360 C   0  0  0  0  0  2  0  0  0  0  0  0
  195.1800  173.9890  135.4940 C   0  0  0  0  0  0  0  0  0  0  0  0
  193.9090  175.8210  134.5050 C   0  0  0  0  0  3  0  0  0  0  0  0
  195.0880  175.3390  134.9000 C   0  0  0  0  0  3  0  0  0  0  0  0
  194.1160  173.1740  135.4820 C   0  0  0  0  0  3  0  0  0  0  0  0
  192.7260  175.0190  134.6440 N   0  0  0  0  0  0  0  0  0  0  0  0
  196.4890  173.5170  136.0750 C   0  0  0  0  0  3  0  0  0  0  0  0
  196.8240  174.3100  137.3370 C   0  0  0  0  0  2  0  0  0  0  0  0
  196.2790  172.9070  137.4530 C   0  0  0  0  0  2  0  0  0  0  0  0
  1 14  1  0  0  0  0
  2  9  1  0  0  0  0
  4 11  1  0  0  0  0
  5 12  1  0  0  0  0
  6 18  1  0  0  0  0
  6 19  1  0  0  0  0
  7  1  1  0  0  0  0
  8  6  2  0  0  0  0
  9 13  1  0  0  0  0
 10  2  1  0  0  0  0
 11  3  1  6  0  0  0
 11 10  1  0  0  0  0
 12 19  2  0  0  0  0
 13 28  1  1  0  0  0
 13 17  1  0  0  0  0
 14  8  1  0  0  0  0
 14  5  2  0  0  0  0
 15  4  1  6  0  0  0
 16 46  1  6  0  0  0
 16 15  1  0  0  0  0
 16  7  1  0  0  0  0
 17 18  1  0  0  0  0
 20 21  1  0  0  0  0
 21 24  1  0  0  0  0
 22 23  1  0  0  0  0
 22 26  1  6  0  0  0
 24 23  1  0  0  0  0
 25 20  1  6  0  0  0
 25 15  1  0  0  0  0
 25 22  1  0  0  0  0
 28 27  1  6  0  0  0
 28 29  1  0  0  0  0
 30 31  1  1  0  0  0
 30 32  1  0  0  0  0
 30 28  1  0  0  0  0
 32 35  1  0  0  0  0
 32 33  1  1  0  0  0
 35 34  1  0  0  0  0
 36 40  1  1  0  0  0
 36 32  1  0  0  0  0
 37 36  1  6  0  0  0
 38 39  1  0  0  0  0
 38 37  1  0  0  0  0
 39 37  1  0  0  0  0
 42 41  1  1  0  0  0
 42 44  1  0  0  0  0
 42 40  1  0  0  0  0
 44 43  1  0  0  0  0
 45 44  2  0  0  0  0
 46 52  1  0  0  0  0
 47 51  1  0  0  0  0
 48 53  1  0  0  0  0
 49 52  1  0  0  0  0
 49 50  2  0  0  0  0
 50 48  1  0  0  0  0
 51 48  2  0  0  0  0
 52 47  1  0  0  0  0
 53 54  1  0  0  0  0
 53 55  1  0  0  0  0
 54 55  1  0  0  0  0
M  END
>  <MODEL>
4

>  <REMARK>
 VINA RESULT:      -3.4      1.394      2.573
  Name = 
  13 active torsions:
  status: ('A' for Active; 'I' for Inactive)
    1  A    between atoms: C_1  and  C_53
    2  A    between atoms: C_6  and  C_14
    3  A    between atoms: C_6  and  C_20
    4  A    between atoms: C_6  and  C_53
    5  A    between atoms: C_8  and  C_20
    6  A    between atoms: C_8  and  C_43
    7  A    between atoms: C_10  and  C_32
    8  A    between atoms: C_11  and  C_29
    9  A    between atoms: C_11  and  O_38
   10  A    between atoms: C_26  and  C_45
   11  A    between atoms: C_33  and  C_49
   12  A    between atoms: C_33  and  N_52
   13  A    between atoms: O_38  and  C_53
                            x       y       z     vdW  Elec       q    Type
                         _______ _______ _______ _____ _____    ______ ____

>  <TORSDO>
F 13

$$$$
=
 OpenBabel10272401343D

 55 60  0  0  1  0  0  0  0  0999 V2000
  186.5600  176.4460  134.7800 C   0  0  0  0  0  2  0  0  0  0  0  0
  185.4370  178.9920  139.5510 O   0  0  0  0  0  0  0  0  0  0  0  0
  183.2170  177.1800  139.9870 C   0  0  0  0  0  1  0  0  0  0  0  0
  183.5310  176.5080  137.7230 O   0  0  0  0  0  0  0  0  0  0  0  0
  189.0310  176.1310  135.0140 C   0  0  0  0  0  3  0  0  0  0  0  0
  188.8280  176.1980  137.8040 C   0  0  0  0  0  0  0  0  0  0  0  0
  185.6710  175.3910  135.0340 O   0  0  0  0  0  0  0  0  0  0  0  0
  187.6840  176.3330  137.0120 C   0  0  0  0  0  3  0  0  0  0  0  0
  186.7940  178.8970  139.2320 C   0  0  0  0  0  2  0  0  0  0  0  0
  184.7590  178.4400  138.4580 C   0  0  0  0  0  2  0  0  0  0  0  0
  184.1980  177.0610  138.8230 C   0  0  1  0  0  3  0  0  0  0  0  0
  190.1790  176.0020  135.8050 C   0  0  0  0  0  3  0  0  0  0  0  0
  187.4980  177.9240  140.1790 C   0  0  1  0  0  3  0  0  0  0  0  0
  187.7820  176.2910  135.6180 C   0  0  0  0  0  0  0  0  0  0  0  0
  184.4470  175.6350  137.1180 C   0  0  2  0  0  3  0  0  0  0  0  0
  184.5530  175.9980  135.6280 C   0  0  2  0  0  3  0  0  0  0  0  0
  188.7710  177.6270  139.6780 O   0  0  0  0  0  0  0  0  0  0  0  0
  188.7110  176.2850  139.2870 C   0  0  0  0  0  2  0  0  0  0  0  0
  190.0770  176.0370  137.2010 C   0  0  0  0  0  3  0  0  0  0  0  0
  185.2920  173.3060  137.7390 C   0  0  0  0  0  2  0  0  0  0  0  0
  186.1060  172.9490  136.4920 C   0  0  0  0  0  2  0  0  0  0  0  0
  183.2860  173.5730  136.1620 C   0  0  2  0  0  3  0  0  0  0  0  0
  183.7770  172.1830  135.7410 C   0  0  0  0  0  2  0  0  0  0  0  0
  185.2790  172.2050  135.4380 C   0  0  0  0  0  2  0  0  0  0  0  0
  184.0610  174.1580  137.3680 C   0  0  2  0  0  3  0  0  0  0  0  0
  181.9260  173.5080  136.4700 O   0  0  0  0  0  1  0  0  0  0  0  0
  186.5410  179.3200  141.8410 O   0  0  0  0  0  1  0  0  0  0  0  0
  187.5930  178.4260  141.6330 C   0  0  2  0  0  0  0  0  0  0  0  0
  188.7840  179.1110  141.8120 F   0  0  0  0  0  0  0  0  0  0  0  0
  187.5080  177.2510  142.6390 C   0  0  1  0  0  3  0  0  0  0  0  0
  188.5980  176.3940  142.4740 O   0  0  0  0  0  1  0  0  0  0  0  0
  187.3230  177.6310  144.1310 C   0  0  2  0  0  0  0  0  0  0  0  0
  186.3640  176.7870  144.7030 O   0  0  0  0  0  1  0  0  0  0  0  0
  185.8240  179.1790  145.2140 F   0  0  0  0  0  0  0  0  0  0  0  0
  186.8290  179.0760  144.2620 C   0  0  0  0  0  2  0  0  0  0  0  0
  188.6470  177.4670  144.9230 C   0  0  2  0  0  3  0  0  0  0  0  0
  188.4530  176.8740  146.3380 C   0  0  2  0  0  3  0  0  0  0  0  0
  188.2410  177.9060  147.2690 O   0  0  0  0  0  0  0  0  0  0  0  0
  189.4930  177.2710  147.3180 C   0  0  0  0  0  2  0  0  0  0  0  0
  189.3900  178.6580  144.9290 O   0  0  0  0  0  0  0  0  0  0  0  0
  191.0900  179.6550  143.7680 O   0  0  0  0  0  1  0  0  0  0  0  0
  190.4500  178.4390  144.0330 C   0  0  1  0  0  3  0  0  0  0  0  0
  192.0240  177.6960  145.6870 O   0  0  0  0  0  1  0  0  0  0  0  0
  191.4100  177.4460  144.6140 C   0  0  0  0  0  0  0  0  0  0  0  0
  191.5950  176.2280  143.9810 O   0  0  0  0  0  0  0  0  0  0  0  0
  183.2790  175.6560  134.8570 C   0  0  0  0  0  2  0  0  0  0  0  0
  183.1300  178.1070  134.3560 C   0  0  0  0  0  2  0  0  0  0  0  0
  180.8790  179.1430  134.5760 C   0  0  0  0  0  0  0  0  0  0  0  0
  181.0420  176.7090  134.5240 C   0  0  0  0  0  3  0  0  0  0  0  0
  180.2730  177.7980  134.4780 C   0  0  0  0  0  3  0  0  0  0  0  0
  182.2110  179.2850  134.5400 C   0  0  0  0  0  3  0  0  0  0  0  0
  182.4650  176.8440  134.6570 N   0  0  0  0  0  0  0  0  0  0  0  0
  179.9900  180.3560  134.6750 C   0  0  0  0  0  3  0  0  0  0  0  0
  180.1890  181.0500  136.0220 C   0  0  0  0  0  2  0  0  0  0  0  0
  180.8200  181.6270  134.7770 C   0  0  0  0  0  2  0  0  0  0  0  0
  1  7  1  0  0  0  0
  1 14  1  0  0  0  0
  4 11  1  0  0  0  0
  5 14  2  0  0  0  0
  5 12  1  0  0  0  0
  6 18  1  0  0  0  0
  7 16  1  0  0  0  0
  8  6  2  0  0  0  0
  9  2  1  0  0  0  0
  9 13  1  0  0  0  0
 10 11  1  0  0  0  0
 10  2  1  0  0  0  0
 11  3  1  1  0  0  0
 12 19  2  0  0  0  0
 13 28  1  1  0  0  0
 14  8  1  0  0  0  0
 15 25  1  0  0  0  0
 15  4  1  6  0  0  0
 16 46  1  6  0  0  0
 16 15  1  0  0  0  0
 17 13  1  0  0  0  0
 18 17  1  0  0  0  0
 19  6  1  0  0  0  0
 21 20  1  0  0  0  0
 22 26  1  1  0  0  0
 22 25  1  0  0  0  0
 23 22  1  0  0  0  0
 24 23  1  0  0  0  0
 24 21  1  0  0  0  0
 25 20  1  6  0  0  0
 28 29  1  1  0  0  0
 28 27  1  0  0  0  0
 28 30  1  0  0  0  0
 30 31  1  1  0  0  0
 30 32  1  0  0  0  0
 32 35  1  0  0  0  0
 32 33  1  1  0  0  0
 32 36  1  0  0  0  0
 35 34  1  0  0  0  0
 36 40  1  1  0  0  0
 37 36  1  6  0  0  0
 37 38  1  0  0  0  0
 37 39  1  0  0  0  0
 38 39  1  0  0  0  0
 42 41  1  1  0  0  0
 42 44  1  0  0  0  0
 42 40  1  0  0  0  0
 44 43  1  0  0  0  0
 45 44  2  0  0  0  0
 47 51  1  0  0  0  0
 47 52  1  0  0  0  0
 48 53  1  0  0  0  0
 49 52  1  0  0  0  0
 50 49  2  0  0  0  0
 50 48  1  0  0  0  0
 51 48  2  0  0  0  0
 52 46  1  0  0  0  0
 53 55  1  0  0  0  0
 53 54  1  0  0  0  0
 55 54  1  0  0  0  0
M  END
>  <MODEL>
5

>  <REMARK>
 VINA RESULT:      -3.2      3.792      8.689
  Name = 
  13 active torsions:
  status: ('A' for Active; 'I' for Inactive)
    1  A    between atoms: C_1  and  C_53
    2  A    between atoms: C_6  and  C_14
    3  A    between atoms: C_6  and  C_20
    4  A    between atoms: C_6  and  C_53
    5  A    between atoms: C_8  and  C_20
    6  A    between atoms: C_8  and  C_43
    7  A    between atoms: C_10  and  C_32
    8  A    between atoms: C_11  and  C_29
    9  A    between atoms: C_11  and  O_38
   10  A    between atoms: C_26  and  C_45
   11  A    between atoms: C_33  and  C_49
   12  A    between atoms: C_33  and  N_52
   13  A    between atoms: O_38  and  C_53
                            x       y       z     vdW  Elec       q    Type
                         _______ _______ _______ _____ _____    ______ ____

>  <TORSDO>
F 13

$$$$
=
 OpenBabel10272401343D

 55 60  0  0  1  0  0  0  0  0999 V2000
  179.9980  175.9750  137.1820 C   0  0  0  0  0  2  0  0  0  0  0  0
  185.0040  177.5260  135.4400 O   0  0  0  0  0  0  0  0  0  0  0  0
  185.4670  178.8520  137.9750 C   0  0  0  0  0  1  0  0  0  0  0  0
  183.1450  178.5190  138.3890 O   0  0  0  0  0  0  0  0  0  0  0  0
  180.0330  173.5560  136.5420 C   0  0  0  0  0  3  0  0  0  0  0  0
  182.8290  173.5110  136.6650 C   0  0  0  0  0  0  0  0  0  0  0  0
  180.2390  176.3750  138.5040 O   0  0  0  0  0  0  0  0  0  0  0  0
  182.1310  174.6890  136.9450 C   0  0  0  0  0  3  0  0  0  0  0  0
  184.5840  176.2680  135.0000 C   0  0  0  0  0  2  0  0  0  0  0  0
  183.9260  178.0450  136.1660 C   0  0  0  0  0  2  0  0  0  0  0  0
  184.2310  178.0100  137.6670 C   0  0  1  0  0  3  0  0  0  0  0  0
  180.7300  172.3750  136.2550 C   0  0  0  0  0  3  0  0  0  0  0  0
  185.4080  175.1660  135.6670 C   0  0  1  0  0  3  0  0  0  0  0  0
  180.7340  174.7120  136.8930 C   0  0  0  0  0  0  0  0  0  0  0  0
  182.4160  177.4030  138.8240 C   0  0  2  0  0  3  0  0  0  0  0  0
  180.9510  177.5790  138.3910 C   0  0  2  0  0  3  0  0  0  0  0  0
  184.7980  173.9260  135.4390 O   0  0  0  0  0  0  0  0  0  0  0  0
  184.3190  173.5140  136.6870 C   0  0  0  0  0  2  0  0  0  0  0  0
  182.1290  172.3540  136.3170 C   0  0  0  0  0  3  0  0  0  0  0  0
  181.4110  176.3800  140.9380 C   0  0  0  0  0  2  0  0  0  0  0  0
  180.1850  177.2760  141.1420 C   0  0  0  0  0  2  0  0  0  0  0  0
  182.8100  178.5250  141.0820 C   0  0  2  0  0  3  0  0  0  0  0  0
  181.9660  178.6680  142.3540 C   0  0  0  0  0  2  0  0  0  0  0  0
  180.4770  178.4820  142.0430 C   0  0  0  0  0  2  0  0  0  0  0  0
  182.5880  177.1820  140.3460 C   0  0  2  0  0  3  0  0  0  0  0  0
  184.1600  178.6590  141.4090 O   0  0  0  0  0  1  0  0  0  0  0  0
  187.0840  176.2000  134.3460 O   0  0  0  0  0  1  0  0  0  0  0  0
  186.8830  175.1320  135.2230 C   0  0  2  0  0  0  0  0  0  0  0  0
  187.1370  173.9560  134.5380 F   0  0  0  0  0  0  0  0  0  0  0  0
  187.8370  175.2480  136.4380 C   0  0  1  0  0  3  0  0  0  0  0  0
  187.2150  174.7580  137.5890 O   0  0  0  0  0  1  0  0  0  0  0  0
  189.2500  174.6310  136.2690 C   0  0  2  0  0  0  0  0  0  0  0  0
  189.5320  174.5000  134.9040 O   0  0  0  0  0  1  0  0  0  0  0  0
  189.7340  172.2850  135.9910 F   0  0  0  0  0  0  0  0  0  0  0  0
  189.3100  173.2380  136.9060 C   0  0  0  0  0  2  0  0  0  0  0  0
  190.3390  175.5340  136.9040 C   0  0  2  0  0  3  0  0  0  0  0  0
  191.7730  175.2040  136.4270 C   0  0  2  0  0  3  0  0  0  0  0  0
  192.7160  175.8180  137.2710 O   0  0  0  0  0  0  0  0  0  0  0  0
  192.5620  176.3820  135.9940 C   0  0  0  0  0  2  0  0  0  0  0  0
  190.2250  175.5660  138.3030 O   0  0  0  0  0  0  0  0  0  0  0  0
  189.1420  177.5600  138.0140 O   0  0  0  0  0  1  0  0  0  0  0  0
  190.2210  176.9290  138.6440 C   0  0  1  0  0  3  0  0  0  0  0  0
  190.7730  176.3090  140.8970 O   0  0  0  0  0  1  0  0  0  0  0  0
  190.1330  177.0800  140.1320 C   0  0  0  0  0  0  0  0  0  0  0  0
  189.3670  178.1030  140.6670 O   0  0  0  0  0  0  0  0  0  0  0  0
  180.2510  178.6970  139.1610 C   0  0  0  0  0  2  0  0  0  0  0  0
  180.4940  181.1910  139.1910 C   0  0  0  0  0  2  0  0  0  0  0  0
  180.1960  182.3540  137.0110 C   0  0  0  0  0  0  0  0  0  0  0  0
  180.5010  179.9330  137.0090 C   0  0  0  0  0  3  0  0  0  0  0  0
  180.4430  181.0720  136.3180 C   0  0  0  0  0  3  0  0  0  0  0  0
  180.2000  182.4050  138.3510 C   0  0  0  0  0  3  0  0  0  0  0  0
  180.3360  179.9530  138.4350 N   0  0  0  0  0  0  0  0  0  0  0  0
  179.9820  183.6090  136.2050 C   0  0  0  0  0  3  0  0  0  0  0  0
  181.2470  184.4670  136.2160 C   0  0  0  0  0  2  0  0  0  0  0  0
  180.9090  183.6400  134.9990 C   0  0  0  0  0  2  0  0  0  0  0  0
  1  7  1  0  0  0  0
  2 10  1  0  0  0  0
  5 14  1  0  0  0  0
  6 18  1  0  0  0  0
  6  8  1  0  0  0  0
  9  2  1  0  0  0  0
  9 13  1  0  0  0  0
 10 11  1  0  0  0  0
 11  3  1  6  0  0  0
 11  4  1  0  0  0  0
 12 19  1  0  0  0  0
 12  5  2  0  0  0  0
 13 28  1  6  0  0  0
 14  8  2  0  0  0  0
 14  1  1  0  0  0  0
 15  4  1  1  0  0  0
 15 25  1  0  0  0  0
 16  7  1  0  0  0  0
 16 15  1  0  0  0  0
 16 46  1  1  0  0  0
 17 13  1  0  0  0  0
 17 18  1  0  0  0  0
 19  6  2  0  0  0  0
 20 21  1  0  0  0  0
 21 24  1  0  0  0  0
 22 26  1  1  0  0  0
 22 23  1  0  0  0  0
 24 23  1  0  0  0  0
 25 20  1  1  0  0  0
 25 22  1  0  0  0  0
 28 27  1  6  0  0  0
 28 30  1  0  0  0  0
 29 28  1  0  0  0  0
 30 31  1  1  0  0  0
 32 33  1  6  0  0  0
 32 30  1  0  0  0  0
 32 36  1  0  0  0  0
 32 35  1  0  0  0  0
 34 35  1  0  0  0  0
 36 40  1  1  0  0  0
 37 36  1  1  0  0  0
 37 38  1  0  0  0  0
 39 37  1  0  0  0  0
 39 38  1  0  0  0  0
 40 42  1  0  0  0  0
 42 41  1  6  0  0  0
 42 44  1  0  0  0  0
 44 45  2  0  0  0  0
 44 43  1  0  0  0  0
 48 51  2  0  0  0  0
 49 52  1  0  0  0  0
 50 49  2  0  0  0  0
 50 48  1  0  0  0  0
 51 47  1  0  0  0  0
 52 46  1  0  0  0  0
 52 47  1  0  0  0  0
 53 54  1  0  0  0  0
 53 48  1  0  0  0  0
 55 53  1  0  0  0  0
 55 54  1  0  0  0  0
M  END
>  <MODEL>
6

>  <REMARK>
 VINA RESULT:      -2.4      3.601     10.631
  Name = 
  13 active torsions:
  status: ('A' for Active; 'I' for Inactive)
    1  A    between atoms: C_1  and  C_53
    2  A    between atoms: C_6  and  C_14
    3  A    between atoms: C_6  and  C_20
    4  A    between atoms: C_6  and  C_53
    5  A    between atoms: C_8  and  C_20
    6  A    between atoms: C_8  and  C_43
    7  A    between atoms: C_10  and  C_32
    8  A    between atoms: C_11  and  C_29
    9  A    between atoms: C_11  and  O_38
   10  A    between atoms: C_26  and  C_45
   11  A    between atoms: C_33  and  C_49
   12  A    between atoms: C_33  and  N_52
   13  A    between atoms: O_38  and  C_53
                            x       y       z     vdW  Elec       q    Type
                         _______ _______ _______ _____ _____    ______ ____

>  <TORSDO>
F 13

$$$$
=
 OpenBabel10272401343D

 55 60  0  0  1  0  0  0  0  0999 V2000
  188.5650  176.5870  139.7480 C   0  0  0  0  0  2  0  0  0  0  0  0
  191.3530  172.8990  136.7270 O   0  0  0  0  0  0  0  0  0  0  0  0
  189.9840  173.8240  134.3460 C   0  0  0  0  0  1  0  0  0  0  0  0
  188.5450  175.0100  135.8300 O   0  0  0  0  0  0  0  0  0  0  0  0
  190.4370  177.5790  141.0790 C   0  0  0  0  0  3  0  0  0  0  0  0
  192.2850  176.8830  139.0960 C   0  0  0  0  0  0  0  0  0  0  0  0
  188.0500  177.2480  138.6230 O   0  0  0  0  0  0  0  0  0  0  0  0
  190.9310  176.5740  138.9360 C   0  0  0  0  0  3  0  0  0  0  0  0
  192.0680  173.4630  137.7870 C   0  0  0  0  0  2  0  0  0  0  0  0
  190.0620  173.4310  136.8240 C   0  0  0  0  0  2  0  0  0  0  0  0
  189.8330  174.4710  135.7220 C   0  0  1  0  0  3  0  0  0  0  0  0
  191.7930  177.8840  141.2450 C   0  0  0  0  0  3  0  0  0  0  0  0
  193.1660  174.3860  137.2570 C   0  0  1  0  0  3  0  0  0  0  0  0
  190.0050  176.9290  139.9210 C   0  0  0  0  0  0  0  0  0  0  0  0
  188.6940  176.2230  136.5170 C   0  0  2  0  0  3  0  0  0  0  0  0
  187.7330  176.2230  137.7180 C   0  0  2  0  0  3  0  0  0  0  0  0
  193.6790  175.1520  138.3120 O   0  0  0  0  0  0  0  0  0  0  0  0
  193.2640  176.4620  138.0550 C   0  0  0  0  0  2  0  0  0  0  0  0
  192.7180  177.5340  140.2520 C   0  0  0  0  0  3  0  0  0  0  0  0
  189.5000  178.5610  135.8780 C   0  0  0  0  0  2  0  0  0  0  0  0
  189.0550  179.3680  137.1020 C   0  0  0  0  0  2  0  0  0  0  0  0
  187.0310  177.9240  135.5930 C   0  0  2  0  0  3  0  0  0  0  0  0
  186.9060  179.4480  135.7040 C   0  0  0  0  0  2  0  0  0  0  0  0
  187.6530  179.9680  136.9370 C   0  0  0  0  0  2  0  0  0  0  0  0
  188.4980  177.4300  135.5690 C   0  0  2  0  0  3  0  0  0  0  0  0
  186.3750  177.4910  134.4400 O   0  0  0  0  0  1  0  0  0  0  0  0
  194.7210  174.4640  135.4690 O   0  0  0  0  0  1  0  0  0  0  0  0
  194.3020  173.6490  136.5220 C   0  0  2  0  0  0  0  0  0  0  0  0
  193.8210  172.4660  135.9880 F   0  0  0  0  0  0  0  0  0  0  0  0
  195.4860  173.3510  137.4760 C   0  0  1  0  0  3  0  0  0  0  0  0
  195.0410  172.6350  138.5890 O   0  0  0  0  0  1  0  0  0  0  0  0
  196.7300  172.6740  136.8430 C   0  0  2  0  0  0  0  0  0  0  0  0
  196.4860  172.4470  135.4830 O   0  0  0  0  0  1  0  0  0  0  0  0
  197.1190  170.3090  136.5700 F   0  0  0  0  0  0  0  0  0  0  0  0
  197.0040  171.3220  137.5110 C   0  0  0  0  0  2  0  0  0  0  0  0
  197.9860  173.5730  136.9670 C   0  0  2  0  0  3  0  0  0  0  0  0
  199.0790  173.2600  135.9190 C   0  0  2  0  0  3  0  0  0  0  0  0
  200.1470  174.1650  136.0490 O   0  0  0  0  0  0  0  0  0  0  0  0
  199.3130  174.3420  134.9330 C   0  0  0  0  0  2  0  0  0  0  0  0
  198.4800  173.5840  138.2810 O   0  0  0  0  0  0  0  0  0  0  0  0
  197.8310  175.6950  137.6840 O   0  0  0  0  0  1  0  0  0  0  0  0
  198.4670  174.9330  138.6720 C   0  0  1  0  0  3  0  0  0  0  0  0
  196.5070  175.0010  140.0570 O   0  0  0  0  0  0  0  0  0  0  0  0
  197.7640  175.0740  139.9870 C   0  0  0  0  0  0  0  0  0  0  0  0
  198.5100  175.2500  141.1410 O   0  0  0  0  0  1  0  0  0  0  0  0
  186.2700  176.3140  137.2870 C   0  0  0  0  0  2  0  0  0  0  0  0
  186.5320  173.8240  137.1920 C   0  0  0  0  0  2  0  0  0  0  0  0
  184.4440  172.5070  136.8790 C   0  0  0  0  0  0  0  0  0  0  0  0
  184.2560  174.8570  137.5050 C   0  0  0  0  0  3  0  0  0  0  0  0
  183.6630  173.6750  137.3380 C   0  0  0  0  0  3  0  0  0  0  0  0
  185.7800  172.5830  136.7910 C   0  0  0  0  0  3  0  0  0  0  0  0
  185.6630  174.9940  137.2490 N   0  0  0  0  0  0  0  0  0  0  0  0
  183.7360  171.2180  136.5500 C   0  0  0  0  0  3  0  0  0  0  0  0
  183.5730  171.0750  135.0370 C   0  0  0  0  0  2  0  0  0  0  0  0
  184.6440  170.2900  135.7560 C   0  0  0  0  0  2  0  0  0  0  0  0
  1 14  1  0  0  0  0
  2 10  1  0  0  0  0
  2  9  1  0  0  0  0
  5 12  1  0  0  0  0
  6 19  1  0  0  0  0
  7  1  1  0  0  0  0
  8  6  2  0  0  0  0
  8 14  1  0  0  0  0
 11  3  1  6  0  0  0
 11  4  1  0  0  0  0
 11 10  1  0  0  0  0
 13 28  1  1  0  0  0
 13  9  1  0  0  0  0
 13 17  1  0  0  0  0
 14  5  2  0  0  0  0
 15  4  1  6  0  0  0
 15 16  1  0  0  0  0
 16 46  1  6  0  0  0
 16  7  1  0  0  0  0
 18 17  1  0  0  0  0
 18  6  1  0  0  0  0
 19 12  2  0  0  0  0
 20 21  1  0  0  0  0
 22 26  1  6  0  0  0
 22 23  1  0  0  0  0
 23 24  1  0  0  0  0
 24 21  1  0  0  0  0
 25 22  1  0  0  0  0
 25 20  1  1  0  0  0
 25 15  1  0  0  0  0
 28 27  1  6  0  0  0
 28 30  1  0  0  0  0
 29 28  1  0  0  0  0
 30 31  1  1  0  0  0
 32 33  1  6  0  0  0
 32 36  1  0  0  0  0
 32 30  1  0  0  0  0
 32 35  1  0  0  0  0
 34 35  1  0  0  0  0
 36 40  1  1  0  0  0
 37 38  1  0  0  0  0
 37 36  1  1  0  0  0
 39 37  1  0  0  0  0
 39 38  1  0  0  0  0
 40 42  1  0  0  0  0
 42 41  1  6  0  0  0
 42 44  1  0  0  0  0
 44 43  2  0  0  0  0
 44 45  1  0  0  0  0
 47 52  1  0  0  0  0
 48 50  1  0  0  0  0
 50 49  2  0  0  0  0
 51 48  2  0  0  0  0
 51 47  1  0  0  0  0
 52 46  1  0  0  0  0
 52 49  1  0  0  0  0
 53 48  1  0  0  0  0
 54 55  1  0  0  0  0
 54 53  1  0  0  0  0
 55 53  1  0  0  0  0
M  END
>  <MODEL>
7

>  <REMARK>
 VINA RESULT:      -2.3      4.474     11.093
  Name = 
  13 active torsions:
  status: ('A' for Active; 'I' for Inactive)
    1  A    between atoms: C_1  and  C_53
    2  A    between atoms: C_6  and  C_14
    3  A    between atoms: C_6  and  C_20
    4  A    between atoms: C_6  and  C_53
    5  A    between atoms: C_8  and  C_20
    6  A    between atoms: C_8  and  C_43
    7  A    between atoms: C_10  and  C_32
    8  A    between atoms: C_11  and  C_29
    9  A    between atoms: C_11  and  O_38
   10  A    between atoms: C_26  and  C_45
   11  A    between atoms: C_33  and  C_49
   12  A    between atoms: C_33  and  N_52
   13  A    between atoms: O_38  and  C_53
                            x       y       z     vdW  Elec       q    Type
                         _______ _______ _______ _____ _____    ______ ____

>  <TORSDO>
F 13

$$$$
=
 OpenBabel10272401343D

 55 60  0  0  1  0  0  0  0  0999 V2000
  180.0940  175.3730  137.1050 C   0  0  0  0  0  2  0  0  0  0  0  0
  185.0140  177.0610  135.2480 O   0  0  0  0  0  0  0  0  0  0  0  0
  185.3740  178.6350  137.6550 C   0  0  0  0  0  1  0  0  0  0  0  0
  183.0720  178.2010  138.0900 O   0  0  0  0  0  0  0  0  0  0  0  0
  180.2790  172.9130  136.6850 C   0  0  0  0  0  3  0  0  0  0  0  0
  183.0710  173.0480  136.8220 C   0  0  0  0  0  0  0  0  0  0  0  0
  180.2990  175.9040  138.3870 O   0  0  0  0  0  0  0  0  0  0  0  0
  182.3020  174.2020  136.9920 C   0  0  0  0  0  3  0  0  0  0  0  0
  184.6730  175.7460  134.9210 C   0  0  0  0  0  2  0  0  0  0  0  0
  183.9000  177.5770  135.9200 C   0  0  0  0  0  2  0  0  0  0  0  0
  184.1940  177.6950  137.4200 C   0  0  1  0  0  3  0  0  0  0  0  0
  181.0480  171.7560  136.5080 C   0  0  0  0  0  3  0  0  0  0  0  0
  185.5560  174.7600  135.6880 C   0  0  1  0  0  3  0  0  0  0  0  0
  180.9070  174.1360  136.9330 C   0  0  0  0  0  0  0  0  0  0  0  0
  182.4080  177.0860  138.6210 C   0  0  2  0  0  3  0  0  0  0  0  0
  180.9390  177.1340  138.1680 C   0  0  2  0  0  3  0  0  0  0  0  0
  185.0230  173.4700  135.5700 O   0  0  0  0  0  0  0  0  0  0  0  0
  184.5580  173.1430  136.8480 C   0  0  0  0  0  2  0  0  0  0  0  0
  182.4450  171.8250  136.5760 C   0  0  0  0  0  3  0  0  0  0  0  0
  181.2160  176.9950  140.8780 C   0  0  0  0  0  2  0  0  0  0  0  0
  180.6160  178.4030  140.9480 C   0  0  0  0  0  2  0  0  0  0  0  0
  183.4990  178.1470  140.6690 C   0  0  2  0  0  3  0  0  0  0  0  0
  182.9490  178.8610  141.9100 C   0  0  0  0  0  2  0  0  0  0  0  0
  181.5420  179.4070  141.6450 C   0  0  0  0  0  2  0  0  0  0  0  0
  182.5790  177.0120  140.1560 C   0  0  2  0  0  3  0  0  0  0  0  0
  184.7610  177.6280  140.9590 O   0  0  0  0  0  1  0  0  0  0  0  0
  187.1970  175.8240  134.3460 O   0  0  0  0  0  1  0  0  0  0  0  0
  187.0340  174.7750  135.2540 C   0  0  2  0  0  0  0  0  0  0  0  0
  187.3420  173.5910  134.6060 F   0  0  0  0  0  0  0  0  0  0  0  0
  187.9740  174.9670  136.4710 C   0  0  1  0  0  3  0  0  0  0  0  0
  187.8100  173.9180  137.3780 O   0  0  0  0  0  1  0  0  0  0  0  0
  189.4750  175.1970  136.1560 C   0  0  2  0  0  0  0  0  0  0  0  0
  189.5870  176.0700  135.0680 O   0  0  0  0  0  1  0  0  0  0  0  0
  190.9270  174.0150  134.6350 F   0  0  0  0  0  0  0  0  0  0  0  0
  190.1540  173.8750  135.7790 C   0  0  0  0  0  2  0  0  0  0  0  0
  190.2150  175.8280  137.3630 C   0  0  2  0  0  3  0  0  0  0  0  0
  189.3750  176.8810  138.1220 C   0  0  2  0  0  3  0  0  0  0  0  0
  190.1330  177.4440  139.1640 O   0  0  0  0  0  0  0  0  0  0  0  0
  189.1160  176.5520  139.5450 C   0  0  0  0  0  2  0  0  0  0  0  0
  191.4820  176.3070  136.9940 O   0  0  0  0  0  0  0  0  0  0  0  0
  191.8980  174.3340  138.0750 O   0  0  0  0  0  1  0  0  0  0  0  0
  192.3920  175.6170  137.8110 C   0  0  1  0  0  3  0  0  0  0  0  0
  194.2000  176.5470  136.5330 O   0  0  0  0  0  0  0  0  0  0  0  0
  193.7280  175.5460  137.1370 C   0  0  0  0  0  0  0  0  0  0  0  0
  194.4660  174.3750  137.2120 O   0  0  0  0  0  1  0  0  0  0  0  0
  180.1670  178.2720  138.8330 C   0  0  0  0  0  2  0  0  0  0  0  0
  179.9870  179.3970  136.6010 C   0  0  0  0  0  2  0  0  0  0  0  0
  180.7070  181.7770  136.5050 C   0  0  0  0  0  0  0  0  0  0  0  0
  180.3460  180.7560  138.6910 C   0  0  0  0  0  3  0  0  0  0  0  0
  180.5580  181.8600  137.9730 C   0  0  0  0  0  3  0  0  0  0  0  0
  180.4600  180.6240  135.8680 C   0  0  0  0  0  3  0  0  0  0  0  0
  180.2480  179.4830  138.0340 N   0  0  0  0  0  0  0  0  0  0  0  0
  181.0970  183.0060  135.7240 C   0  0  0  0  0  3  0  0  0  0  0  0
  179.9820  184.0490  135.7880 C   0  0  0  0  0  2  0  0  0  0  0  0
  181.2170  184.2130  136.6420 C   0  0  0  0  0  2  0  0  0  0  0  0
  1  7  1  0  0  0  0
  2 10  1  0  0  0  0
  5 14  1  0  0  0  0
  6 18  1  0  0  0  0
  6  8  1  0  0  0  0
  9  2  1  0  0  0  0
  9 13  1  0  0  0  0
 10 11  1  0  0  0  0
 11  3  1  6  0  0  0
 11  4  1  0  0  0  0
 12 19  1  0  0  0  0
 12  5  2  0  0  0  0
 13 28  1  6  0  0  0
 14  8  2  0  0  0  0
 14  1  1  0  0  0  0
 15  4  1  1  0  0  0
 15 25  1  0  0  0  0
 16  7  1  0  0  0  0
 16 15  1  0  0  0  0
 16 46  1  1  0  0  0
 17 13  1  0  0  0  0
 17 18  1  0  0  0  0
 19  6  2  0  0  0  0
 20 21  1  0  0  0  0
 21 24  1  0  0  0  0
 22 26  1  1  0  0  0
 22 23  1  0  0  0  0
 24 23  1  0  0  0  0
 25 22  1  0  0  0  0
 25 20  1  1  0  0  0
 28 27  1  6  0  0  0
 28 30  1  0  0  0  0
 29 28  1  0  0  0  0
 30 31  1  1  0  0  0
 32 33  1  6  0  0  0
 32 30  1  0  0  0  0
 32 36  1  0  0  0  0
 34 35  1  0  0  0  0
 35 32  1  0  0  0  0
 36 40  1  6  0  0  0
 37 36  1  6  0  0  0
 37 38  1  0  0  0  0
 37 39  1  0  0  0  0
 38 39  1  0  0  0  0
 40 42  1  0  0  0  0
 42 41  1  6  0  0  0
 43 44  2  0  0  0  0
 44 45  1  0  0  0  0
 44 42  1  0  0  0  0
 47 52  1  0  0  0  0
 48 50  1  0  0  0  0
 50 49  2  0  0  0  0
 51 48  2  0  0  0  0
 51 47  1  0  0  0  0
 52 49  1  0  0  0  0
 52 46  1  0  0  0  0
 53 54  1  0  0  0  0
 53 48  1  0  0  0  0
 53 55  1  0  0  0  0
 54 55  1  0  0  0  0
M  END
>  <MODEL>
8

>  <REMARK>
 VINA RESULT:      -2.2      3.580     10.852
  Name = 
  13 active torsions:
  status: ('A' for Active; 'I' for Inactive)
    1  A    between atoms: C_1  and  C_53
    2  A    between atoms: C_6  and  C_14
    3  A    between atoms: C_6  and  C_20
    4  A    between atoms: C_6  and  C_53
    5  A    between atoms: C_8  and  C_20
    6  A    between atoms: C_8  and  C_43
    7  A    between atoms: C_10  and  C_32
    8  A    between atoms: C_11  and  C_29
    9  A    between atoms: C_11  and  O_38
   10  A    between atoms: C_26  and  C_45
   11  A    between atoms: C_33  and  C_49
   12  A    between atoms: C_33  and  N_52
   13  A    between atoms: O_38  and  C_53
                            x       y       z     vdW  Elec       q    Type
                         _______ _______ _______ _____ _____    ______ ____

>  <TORSDO>
F 13

$$$$
=
 OpenBabel10272401343D

 55 60  0  0  1  0  0  0  0  0999 V2000
  188.3680  175.3440  134.9270 C   0  0  0  0  0  2  0  0  0  0  0  0
  185.8750  178.5430  138.6750 O   0  0  0  0  0  0  0  0  0  0  0  0
  183.8660  176.4940  139.0780 C   0  0  0  0  0  1  0  0  0  0  0  0
  184.7690  175.4540  137.1340 O   0  0  0  0  0  0  0  0  0  0  0  0
  190.7410  175.5180  135.7000 C   0  0  0  0  0  3  0  0  0  0  0  0
  189.9040  176.0970  138.3070 C   0  0  0  0  0  0  0  0  0  0  0  0
  187.5880  174.2210  135.2390 O   0  0  0  0  0  0  0  0  0  0  0  0
  188.9620  175.8710  137.2990 C   0  0  0  0  0  3  0  0  0  0  0  0
  187.2690  178.6260  138.6550 C   0  0  0  0  0  2  0  0  0  0  0  0
  185.5380  177.6770  137.6280 C   0  0  0  0  0  2  0  0  0  0  0  0
  185.0920  176.3210  138.1850 C   0  0  1  0  0  3  0  0  0  0  0  0
  191.6870  175.7500  136.7060 C   0  0  0  0  0  3  0  0  0  0  0  0
  187.8590  177.9980  139.9180 C   0  0  1  0  0  3  0  0  0  0  0  0
  189.3780  175.5730  135.9980 C   0  0  0  0  0  0  0  0  0  0  0  0
  185.9020  174.6530  136.9350 C   0  0  2  0  0  3  0  0  0  0  0  0
  186.2960  174.7280  135.4500 C   0  0  2  0  0  3  0  0  0  0  0  0
  189.2410  177.8340  139.7550 O   0  0  0  0  0  0  0  0  0  0  0  0
  189.4430  176.4520  139.6790 C   0  0  0  0  0  2  0  0  0  0  0  0
  191.2670  176.0410  138.0100 C   0  0  0  0  0  3  0  0  0  0  0  0
  186.9330  172.6160  138.0800 C   0  0  0  0  0  2  0  0  0  0  0  0
  187.9200  172.1460  137.0070 C   0  0  0  0  0  2  0  0  0  0  0  0
  185.1030  172.3120  136.3080 C   0  0  2  0  0  3  0  0  0  0  0  0
  185.7950  170.9470  136.2180 C   0  0  0  0  0  2  0  0  0  0  0  0
  187.3100  171.1140  136.0520 C   0  0  0  0  0  2  0  0  0  0  0  0
  185.6620  173.2100  137.4380 C   0  0  2  0  0  3  0  0  0  0  0  0
  183.7340  172.1220  136.4990 O   0  0  0  0  0  1  0  0  0  0  0  0
  186.4850  179.6390  140.9390 O   0  0  0  0  0  1  0  0  0  0  0  0
  187.5570  178.7850  141.2080 C   0  0  2  0  0  0  0  0  0  0  0  0
  188.6530  179.5610  141.5480 F   0  0  0  0  0  0  0  0  0  0  0  0
  187.2060  177.8320  142.3770 C   0  0  1  0  0  3  0  0  0  0  0  0
  186.5340  176.7050  141.8980 O   0  0  0  0  0  1  0  0  0  0  0  0
  188.3750  177.4230  143.3110 C   0  0  2  0  0  0  0  0  0  0  0  0
  189.5000  178.1970  143.0020 O   0  0  0  0  0  1  0  0  0  0  0  0
  190.1120  175.7750  143.0190 F   0  0  0  0  0  0  0  0  0  0  0  0
  188.7380  175.9480  143.1040 C   0  0  0  0  0  2  0  0  0  0  0  0
  188.0170  177.6610  144.8010 C   0  0  2  0  0  3  0  0  0  0  0  0
  188.9350  176.9020  145.7870 C   0  0  2  0  0  3  0  0  0  0  0  0
  189.0210  177.6030  147.0030 O   0  0  0  0  0  0  0  0  0  0  0  0
  190.1590  177.6410  146.1800 C   0  0  0  0  0  2  0  0  0  0  0  0
  186.6530  177.4320  145.0410 O   0  0  0  0  0  0  0  0  0  0  0  0
  185.3760  179.0370  144.0270 O   0  0  0  0  0  1  0  0  0  0  0  0
  186.0840  178.7080  145.1900 C   0  0  1  0  0  3  0  0  0  0  0  0
  185.6570  178.6690  147.5530 O   0  0  0  0  0  1  0  0  0  0  0  0
  185.1810  178.7260  146.3860 C   0  0  0  0  0  0  0  0  0  0  0  0
  183.8130  178.8430  146.2030 O   0  0  0  0  0  0  0  0  0  0  0  0
  185.2840  174.0230  134.5480 C   0  0  0  0  0  2  0  0  0  0  0  0
  184.0940  176.2200  134.3460 C   0  0  0  0  0  2  0  0  0  0  0  0
  181.6300  176.1740  134.6920 C   0  0  0  0  0  0  0  0  0  0  0  0
  182.7970  174.0600  134.3470 C   0  0  0  0  0  3  0  0  0  0  0  0
  181.6420  174.7190  134.4330 C   0  0  0  0  0  3  0  0  0  0  0  0
  182.7760  176.8700  134.6720 C   0  0  0  0  0  3  0  0  0  0  0  0
  184.0380  174.7690  134.4940 N   0  0  0  0  0  0  0  0  0  0  0  0
  180.3200  176.8780  134.9380 C   0  0  0  0  0  3  0  0  0  0  0  0
  180.0490  176.9810  136.4390 C   0  0  0  0  0  2  0  0  0  0  0  0
  180.5430  178.1890  135.6780 C   0  0  0  0  0  2  0  0  0  0  0  0
  1  7  1  0  0  0  0
  1 14  1  0  0  0  0
  4 11  1  0  0  0  0
  5 14  2  0  0  0  0
  5 12  1  0  0  0  0
  6 18  1  0  0  0  0
  7 16  1  0  0  0  0
  8  6  2  0  0  0  0
  9  2  1  0  0  0  0
  9 13  1  0  0  0  0
 10 11  1  0  0  0  0
 10  2  1  0  0  0  0
 11  3  1  1  0  0  0
 12 19  2  0  0  0  0
 13 28  1  1  0  0  0
 14  8  1  0  0  0  0
 15  4  1  6  0  0  0
 15 25  1  0  0  0  0
 16 46  1  6  0  0  0
 16 15  1  0  0  0  0
 17 13  1  0  0  0  0
 18 17  1  0  0  0  0
 19  6  1  0  0  0  0
 21 20  1  0  0  0  0
 22 26  1  1  0  0  0
 22 25  1  0  0  0  0
 23 22  1  0  0  0  0
 24 23  1  0  0  0  0
 24 21  1  0  0  0  0
 25 20  1  6  0  0  0
 28 27  1  6  0  0  0
 28 29  1  0  0  0  0
 28 30  1  0  0  0  0
 30 31  1  6  0  0  0
 30 32  1  0  0  0  0
 32 33  1  6  0  0  0
 32 36  1  0  0  0  0
 34 35  1  0  0  0  0
 35 32  1  0  0  0  0
 36 40  1  6  0  0  0
 37 36  1  6  0  0  0
 37 39  1  0  0  0  0
 37 38  1  0  0  0  0
 39 38  1  0  0  0  0
 40 42  1  0  0  0  0
 42 41  1  6  0  0  0
 42 44  1  0  0  0  0
 44 43  1  0  0  0  0
 45 44  2  0  0  0  0
 47 52  1  0  0  0  0
 47 51  1  0  0  0  0
 48 53  1  0  0  0  0
 49 50  2  0  0  0  0
 49 52  1  0  0  0  0
 50 48  1  0  0  0  0
 51 48  2  0  0  0  0
 52 46  1  0  0  0  0
 53 55  1  0  0  0  0
 53 54  1  0  0  0  0
 55 54  1  0  0  0  0
M  END
>  <MODEL>
9

>  <REMARK>
 VINA RESULT:      -2.0      3.439      7.516
  Name = 
  13 active torsions:
  status: ('A' for Active; 'I' for Inactive)
    1  A    between atoms: C_1  and  C_53
    2  A    between atoms: C_6  and  C_14
    3  A    between atoms: C_6  and  C_20
    4  A    between atoms: C_6  and  C_53
    5  A    between atoms: C_8  and  C_20
    6  A    between atoms: C_8  and  C_43
    7  A    between atoms: C_10  and  C_32
    8  A    between atoms: C_11  and  C_29
    9  A    between atoms: C_11  and  O_38
   10  A    between atoms: C_26  and  C_45
   11  A    between atoms: C_33  and  C_49
   12  A    between atoms: C_33  and  N_52
   13  A    between atoms: O_38  and  C_53
                            x       y       z     vdW  Elec       q    Type
                         _______ _______ _______ _____ _____    ______ ____

>  <TORSDO>
F 13

$$$$
