=
 OpenBabel10272400053D

 34 39  0  0  1  0  0  0  0  0999 V2000
  186.6090  176.3270  136.3830 C   0  0  2  0  0  3  0  0  0  0  0  0
  188.2160  178.2870  136.4810 C   0  0  1  0  0  3  0  0  0  0  0  0
  186.9990  177.5290  138.5170 N   0  0  0  0  0  0  0  0  0  0  0  0
  187.2990  178.6120  140.7290 C   0  0  0  0  0  0  0  0  0  0  0  0
  187.6750  177.2090  134.3470 N   0  0  0  0  0  2  0  0  0  0  0  0
  188.7490  177.8110  135.1310 C   0  0  0  0  0  2  0  0  0  0  0  0
  188.8960  176.9680  139.9090 C   0  0  0  0  0  3  0  0  0  0  0  0
  187.6180  177.0950  137.2530 C   0  0  1  0  0  3  0  0  0  0  0  0
  189.6210  176.9700  141.1930 C   0  0  0  0  0  3  0  0  0  0  0  0
  188.4380  179.3600  141.8900 S   0  0  0  0  0  0  0  0  0  0  0  0
  187.2300  175.9930  135.0260 C   0  0  0  0  0  2  0  0  0  0  0  0
  185.5920  177.8690  138.5990 C   0  0  2  0  0  3  0  0  0  0  0  0
  185.3420  177.1530  136.2000 C   0  0  0  0  0  2  0  0  0  0  0  0
  189.3580  178.9280  137.2470 C   0  0  0  0  0  1  0  0  0  0  0  0
  186.0600  178.9910  140.6950 N   0  0  0  0  0  0  0  0  0  0  0  0
  185.1300  178.5490  139.6830 C   0  0  0  0  0  0  0  0  0  0  0  0
  189.4150  177.8720  142.1590 C   0  0  2  0  0  3  0  0  0  0  0  0
  187.8080  177.7140  139.6900 C   0  0  0  0  0  0  0  0  0  0  0  0
  184.6520  177.3530  137.5390 C   0  0  0  0  0  2  0  0  0  0  0  0
  181.7840  180.2220  139.2370 N   0  0  0  0  0  0  0  0  0  0  0  0
  180.8740  179.4840  140.1150 C   0  0  0  0  0  2  0  0  0  0  0  0
  183.7010  178.9110  139.8690 C   0  0  0  0  0  0  0  0  0  0  0  0
  181.6200  178.6960  141.1550 C   0  0  0  0  0  3  0  0  0  0  0  0
  183.1430  179.8110  139.0530 C   0  0  0  0  0  3  0  0  0  0  0  0
  182.9170  178.4120  141.0180 C   0  0  0  0  0  3  0  0  0  0  0  0
  181.2390  181.2470  138.3680 C   0  0  0  0  0  1  0  0  0  0  0  0
  190.0730  177.6900  143.4840 C   0  0  0  0  0  2  0  0  0  0  0  0
  189.2290  176.8880  144.3550 N   0  0  0  0  0  2  0  0  0  0  0  0
  189.4550  177.4030  146.7340 C   0  0  0  0  0  2  0  0  0  0  0  0
  188.5640  176.8060  147.6460 O   0  0  0  0  0  0  0  0  0  0  0  0
  186.7280  178.1990  146.8710 C   0  0  0  0  0  2  0  0  0  0  0  0
  187.2300  177.6480  145.5340 C   0  0  0  0  0  2  0  0  0  0  0  0
  188.7540  177.7640  145.4130 C   0  0  2  0  0  3  0  0  0  0  0  0
  187.6630  177.8160  148.0290 C   0  0  0  0  0  2  0  0  0  0  0  0
  1 11  1  6  0  0  0
  1  8  1  0  0  0  0
  2 14  1  1  0  0  0
  2  8  1  0  0  0  0
  3 12  1  0  0  0  0
  3 18  1  0  0  0  0
  4 10  1  0  0  0  0
  5 11  1  0  0  0  0
  5  6  1  0  0  0  0
  6  2  1  0  0  0  0
  7  9  2  0  0  0  0
  8  3  1  1  0  0  0
  9 17  1  0  0  0  0
 10 17  1  0  0  0  0
 12 19  1  1  0  0  0
 12 16  1  0  0  0  0
 13  1  1  0  0  0  0
 13 19  1  0  0  0  0
 15  4  1  0  0  0  0
 16 22  1  0  0  0  0
 16 15  2  0  0  0  0
 17 27  1  6  0  0  0
 18  7  1  0  0  0  0
 18  4  2  0  0  0  0
 20 21  1  0  0  0  0
 21 23  1  0  0  0  0
 22 25  1  0  0  0  0
 24 20  1  0  0  0  0
 24 22  2  0  0  0  0
 25 23  2  0  0  0  0
 26 20  1  0  0  0  0
 27 28  1  0  0  0  0
 29 30  1  0  0  0  0
 30 34  1  0  0  0  0
 31 34  1  0  0  0  0
 32 31  1  0  0  0  0
 33 28  1  6  0  0  0
 33 32  1  0  0  0  0
 33 29  1  0  0  0  0
M  END
>  <MODEL>
1

>  <REMARK>
 VINA RESULT:      -7.2      0.000      0.000
  Name = 
  4 active torsions:
  status: ('A' for Active; 'I' for Inactive)
    1  A    between atoms: C_3  and  N_13
    2  A    between atoms: C_3  and  C_29
    3  A    between atoms: C_12  and  C_28
    4  A    between atoms: N_13  and  C_33
                            x       y       z     vdW  Elec       q    Type
                         _______ _______ _______ _____ _____    ______ ____

>  <TORSDO>
F 4

$$$$
=
 OpenBabel10272400053D

 34 39  0  0  1  0  0  0  0  0999 V2000
  188.6010  178.5770  138.7470 C   0  0  2  0  0  3  0  0  0  0  0  0
  187.0040  176.7730  137.9540 C   0  0  1  0  0  3  0  0  0  0  0  0
  186.3220  178.4020  139.7090 N   0  0  0  0  0  0  0  0  0  0  0  0
  184.0720  178.3730  140.7520 C   0  0  0  0  0  0  0  0  0  0  0  0
  189.3200  176.8430  137.1520 N   0  0  0  0  0  2  0  0  0  0  0  0
  187.9370  176.5870  136.7600 C   0  0  0  0  0  2  0  0  0  0  0  0
  184.4360  179.4120  138.5810 C   0  0  0  0  0  3  0  0  0  0  0  0
  187.1300  178.2120  138.4920 C   0  0  1  0  0  3  0  0  0  0  0  0
  183.0560  179.9300  138.5510 C   0  0  0  0  0  3  0  0  0  0  0  0
  182.3120  178.1450  140.5150 S   0  0  0  0  0  0  0  0  0  0  0  0
  189.4450  178.2560  137.5120 C   0  0  0  0  0  2  0  0  0  0  0  0
  186.8820  178.2060  141.0330 C   0  0  2  0  0  3  0  0  0  0  0  0
  189.1260  177.8210  139.9610 C   0  0  0  0  0  2  0  0  0  0  0  0
  185.5870  176.4700  137.5060 C   0  0  0  0  0  1  0  0  0  0  0  0
  184.6200  178.0820  141.8910 N   0  0  0  0  0  0  0  0  0  0  0  0
  186.0480  178.0890  142.1010 C   0  0  0  0  0  0  0  0  0  0  0  0
  182.1020  179.5490  139.4080 C   0  0  2  0  0  3  0  0  0  0  0  0
  184.9220  178.7030  139.6060 C   0  0  0  0  0  0  0  0  0  0  0  0
  188.3780  178.2580  141.2090 C   0  0  0  0  0  2  0  0  0  0  0  0
  186.2120  178.2230  145.8630 N   0  0  0  0  0  0  0  0  0  0  0  0
  187.3890  177.4250  146.2160 C   0  0  0  0  0  2  0  0  0  0  0  0
  186.5300  177.9190  143.4960 C   0  0  0  0  0  0  0  0  0  0  0  0
  188.3120  177.2440  145.0440 C   0  0  0  0  0  3  0  0  0  0  0  0
  185.7570  178.3230  144.5090 C   0  0  0  0  0  3  0  0  0  0  0  0
  187.8980  177.4450  143.7920 C   0  0  0  0  0  3  0  0  0  0  0  0
  185.3680  178.7310  146.9260 C   0  0  0  0  0  1  0  0  0  0  0  0
  180.7890  180.2540  139.4030 C   0  0  0  0  0  2  0  0  0  0  0  0
  180.9860  181.6750  139.1660 N   0  0  0  0  0  2  0  0  0  0  0  0
  180.0020  180.8400  137.0900 C   0  0  0  0  0  2  0  0  0  0  0  0
  180.6860  181.0560  135.8790 O   0  0  0  0  0  0  0  0  0  0  0  0
  180.1510  183.4280  135.9210 C   0  0  0  0  0  2  0  0  0  0  0  0
  180.7360  183.2600  137.3260 C   0  0  0  0  0  2  0  0  0  0  0  0
  180.1420  182.0410  138.0410 C   0  0  2  0  0  3  0  0  0  0  0  0
  179.9830  182.0750  135.2110 C   0  0  0  0  0  2  0  0  0  0  0  0
  1 11  1  6  0  0  0
  1 13  1  0  0  0  0
  2 14  1  6  0  0  0
  2  8  1  0  0  0  0
  3 12  1  0  0  0  0
  4 15  1  0  0  0  0
  5 11  1  0  0  0  0
  6  5  1  0  0  0  0
  6  2  1  0  0  0  0
  7 18  1  0  0  0  0
  8  1  1  0  0  0  0
  8  3  1  1  0  0  0
  9  7  2  0  0  0  0
  9 17  1  0  0  0  0
 10  4  1  0  0  0  0
 12 19  1  1  0  0  0
 12 16  1  0  0  0  0
 13 19  1  0  0  0  0
 15 16  2  0  0  0  0
 16 22  1  0  0  0  0
 17 27  1  6  0  0  0
 17 10  1  0  0  0  0
 18  3  1  0  0  0  0
 18  4  2  0  0  0  0
 20 21  1  0  0  0  0
 20 26  1  0  0  0  0
 22 25  1  0  0  0  0
 22 24  2  0  0  0  0
 23 21  1  0  0  0  0
 24 20  1  0  0  0  0
 25 23  2  0  0  0  0
 28 27  1  0  0  0  0
 29 33  1  0  0  0  0
 30 29  1  0  0  0  0
 31 32  1  0  0  0  0
 32 33  1  0  0  0  0
 33 28  1  1  0  0  0
 34 30  1  0  0  0  0
 34 31  1  0  0  0  0
M  END
>  <MODEL>
2

>  <REMARK>
 VINA RESULT:      -6.9      3.251      7.914
  Name = 
  4 active torsions:
  status: ('A' for Active; 'I' for Inactive)
    1  A    between atoms: C_3  and  N_13
    2  A    between atoms: C_3  and  C_29
    3  A    between atoms: C_12  and  C_28
    4  A    between atoms: N_13  and  C_33
                            x       y       z     vdW  Elec       q    Type
                         _______ _______ _______ _____ _____    ______ ____

>  <TORSDO>
F 4

$$$$
=
 OpenBabel10272400053D

 34 39  0  0  1  0  0  0  0  0999 V2000
  191.5590  174.3810  137.3470 C   0  0  2  0  0  3  0  0  0  0  0  0
  192.5370  176.6040  138.0780 C   0  0  1  0  0  3  0  0  0  0  0  0
  190.1570  176.0400  138.5430 N   0  0  0  0  0  0  0  0  0  0  0  0
  188.6340  177.5820  139.7490 C   0  0  0  0  0  0  0  0  0  0  0  0
  193.8530  175.0330  136.7310 N   0  0  0  0  0  2  0  0  0  0  0  0
  193.9120  175.9850  137.8360 C   0  0  0  0  0  2  0  0  0  0  0  0
  190.2010  176.1640  140.9590 C   0  0  0  0  0  2  0  0  0  0  0  0
  191.5180  175.4950  138.4050 C   0  0  1  0  0  3  0  0  0  0  0  0
  189.6310  176.5700  142.2570 C   0  0  0  0  0  3  0  0  0  0  0  0
  188.4420  178.7620  141.0820 S   0  0  0  0  0  0  0  0  0  0  0  0
  193.0000  173.9130  137.1280 C   0  0  0  0  0  2  0  0  0  0  0  0
  189.2430  176.0970  137.4190 C   0  0  2  0  0  3  0  0  0  0  0  0
  190.9580  174.8790  136.0390 C   0  0  0  0  0  2  0  0  0  0  0  0
  192.6550  177.6020  139.2140 C   0  0  0  0  0  1  0  0  0  0  0  0
  187.9150  177.6880  138.6760 N   0  0  0  0  0  0  0  0  0  0  0  0
  188.1280  176.8730  137.5030 C   0  0  0  0  0  0  0  0  0  0  0  0
  188.7750  177.5870  142.4050 C   0  0  0  0  0  0  0  0  0  0  0  0
  189.7340  176.6150  139.7890 C   0  0  0  0  0  0  0  0  0  0  0  0
  189.4850  175.2010  136.2320 C   0  0  0  0  0  2  0  0  0  0  0  0
  185.1500  176.1220  135.3200 N   0  0  0  0  0  0  0  0  0  0  0  0
  185.0550  177.2640  134.4090 C   0  0  0  0  0  2  0  0  0  0  0  0
  187.1190  176.9690  136.4180 C   0  0  0  0  0  0  0  0  0  0  0  0
  186.3420  178.0380  134.3470 C   0  0  0  0  0  3  0  0  0  0  0  0
  186.1110  176.0910  136.3820 C   0  0  0  0  0  3  0  0  0  0  0  0
  187.2750  177.9170  135.2950 C   0  0  0  0  0  3  0  0  0  0  0  0
  184.1100  175.1130  135.2880 C   0  0  0  0  0  1  0  0  0  0  0  0
  188.1250  177.8100  143.7270 C   0  0  0  0  0  2  0  0  0  0  0  0
  188.8120  177.0470  144.7570 N   0  0  0  0  0  2  0  0  0  0  0  0
  189.4630  177.0700  147.1130 C   0  0  0  0  0  2  0  0  0  0  0  0
  188.5700  176.5500  148.0700 O   0  0  0  0  0  0  0  0  0  0  0  0
  187.0760  178.4510  147.8090 C   0  0  0  0  0  2  0  0  0  0  0  0
  187.2450  178.0400  146.3440 C   0  0  0  0  0  2  0  0  0  0  0  0
  188.7180  177.8110  145.9890 C   0  0  2  0  0  3  0  0  0  0  0  0
  188.0180  177.6620  148.7320 C   0  0  0  0  0  2  0  0  0  0  0  0
  1 13  1  6  0  0  0
  1  8  1  0  0  0  0
  2  8  1  0  0  0  0
  2 14  1  1  0  0  0
  3 18  1  0  0  0  0
  4 18  2  0  0  0  0
  4 10  1  0  0  0  0
  5 11  1  0  0  0  0
  5  6  1  0  0  0  0
  6  2  1  0  0  0  0
  7  9  1  0  0  0  0
  8  3  1  6  0  0  0
  9 17  2  0  0  0  0
 10 17  1  0  0  0  0
 11  1  1  0  0  0  0
 12 19  1  1  0  0  0
 12 16  1  0  0  0  0
 12  3  1  0  0  0  0
 13 19  1  0  0  0  0
 15  4  1  0  0  0  0
 16 15  2  0  0  0  0
 17 27  1  0  0  0  0
 18  7  1  0  0  0  0
 20 24  1  0  0  0  0
 21 20  1  0  0  0  0
 22 16  1  0  0  0  0
 23 21  1  0  0  0  0
 23 25  2  0  0  0  0
 24 22  2  0  0  0  0
 25 22  1  0  0  0  0
 26 20  1  0  0  0  0
 27 28  1  0  0  0  0
 29 30  1  0  0  0  0
 30 34  1  0  0  0  0
 31 34  1  0  0  0  0
 32 31  1  0  0  0  0
 33 28  1  6  0  0  0
 33 32  1  0  0  0  0
 33 29  1  0  0  0  0
M  END
>  <MODEL>
3

>  <REMARK>
 VINA RESULT:      -6.8      3.240      4.517
  Name = 
  4 active torsions:
  status: ('A' for Active; 'I' for Inactive)
    1  A    between atoms: C_3  and  N_13
    2  A    between atoms: C_3  and  C_29
    3  A    between atoms: C_12  and  C_28
    4  A    between atoms: N_13  and  C_33
                            x       y       z     vdW  Elec       q    Type
                         _______ _______ _______ _____ _____    ______ ____

>  <TORSDO>
F 4

$$$$
=
 OpenBabel10272400053D

 34 39  0  0  1  0  0  0  0  0999 V2000
  186.6440  177.1020  145.2240 C   0  0  2  0  0  3  0  0  0  0  0  0
  185.8450  179.4900  144.9220 C   0  0  1  0  0  3  0  0  0  0  0  0
  186.0820  177.9640  142.9680 N   0  0  0  0  0  0  0  0  0  0  0  0
  185.5370  178.6690  140.6530 C   0  0  0  0  0  0  0  0  0  0  0  0
  186.5840  178.6800  147.1140 N   0  0  0  0  0  2  0  0  0  0  0  0
  185.6000  179.5120  146.4290 C   0  0  0  0  0  2  0  0  0  0  0  0
  183.7890  177.9720  142.1970 C   0  0  0  0  0  2  0  0  0  0  0  0
  185.7500  178.0430  144.4010 C   0  0  1  0  0  3  0  0  0  0  0  0
  182.7680  178.0380  141.1360 C   0  0  0  0  0  3  0  0  0  0  0  0
  184.4350  179.5930  139.5870 S   0  0  0  0  0  0  0  0  0  0  0  0
  186.3710  177.2880  146.7180 C   0  0  0  0  0  2  0  0  0  0  0  0
  187.4320  177.6930  142.5140 C   0  0  2  0  0  3  0  0  0  0  0  0
  188.1120  177.3710  144.9150 C   0  0  0  0  0  2  0  0  0  0  0  0
  184.8190  180.3880  144.2570 C   0  0  0  0  0  1  0  0  0  0  0  0
  186.7850  178.5210  140.3300 N   0  0  0  0  0  0  0  0  0  0  0  0
  187.7600  177.9300  141.2140 C   0  0  0  0  0  0  0  0  0  0  0  0
  182.9770  178.5970  139.9390 C   0  0  0  0  0  0  0  0  0  0  0  0
  185.0800  178.2470  141.9790 C   0  0  0  0  0  0  0  0  0  0  0  0
  188.4060  177.0400  143.4610 C   0  0  0  0  0  2  0  0  0  0  0  0
  190.5070  177.0930  138.7740 N   0  0  0  0  0  0  0  0  0  0  0  0
  191.7490  177.2890  139.5250 C   0  0  0  0  0  2  0  0  0  0  0  0
  189.1060  177.6520  140.6510 C   0  0  0  0  0  0  0  0  0  0  0  0
  191.5090  177.2900  141.0090 C   0  0  0  0  0  3  0  0  0  0  0  0
  189.2320  177.4160  139.3410 C   0  0  0  0  0  3  0  0  0  0  0  0
  190.2920  177.4880  141.5190 C   0  0  0  0  0  3  0  0  0  0  0  0
  190.5850  176.7840  137.3600 C   0  0  0  0  0  1  0  0  0  0  0  0
  181.9410  178.4630  138.8760 C   0  0  0  0  0  2  0  0  0  0  0  0
  182.2150  179.3900  137.7900 N   0  0  0  0  0  2  0  0  0  0  0  0
  180.5850  180.3560  136.2470 C   0  0  0  0  0  2  0  0  0  0  0  0
  180.8610  181.6050  135.6600 O   0  0  0  0  0  0  0  0  0  0  0  0
  180.4920  182.7560  137.7700 C   0  0  0  0  0  2  0  0  0  0  0  0
  181.4810  181.6780  138.2220 C   0  0  0  0  0  2  0  0  0  0  0  0
  181.0810  180.2930  137.7020 C   0  0  2  0  0  3  0  0  0  0  0  0
  180.0380  182.5360  136.3190 C   0  0  0  0  0  2  0  0  0  0  0  0
  1 13  1  1  0  0  0
  1 11  1  0  0  0  0
  2 14  1  6  0  0  0
  2  6  1  0  0  0  0
  4 18  2  0  0  0  0
  6  5  1  0  0  0  0
  8  3  1  6  0  0  0
  8  2  1  0  0  0  0
  8  1  1  0  0  0  0
  9  7  1  0  0  0  0
 10 17  1  0  0  0  0
 10  4  1  0  0  0  0
 11  5  1  0  0  0  0
 12  3  1  0  0  0  0
 12 19  1  6  0  0  0
 15  4  1  0  0  0  0
 15 16  2  0  0  0  0
 16 12  1  0  0  0  0
 17  9  2  0  0  0  0
 18  7  1  0  0  0  0
 18  3  1  0  0  0  0
 19 13  1  0  0  0  0
 20 24  1  0  0  0  0
 20 21  1  0  0  0  0
 21 23  1  0  0  0  0
 22 16  1  0  0  0  0
 22 25  1  0  0  0  0
 23 25  2  0  0  0  0
 24 22  2  0  0  0  0
 26 20  1  0  0  0  0
 27 17  1  0  0  0  0
 28 27  1  0  0  0  0
 29 33  1  0  0  0  0
 30 29  1  0  0  0  0
 30 34  1  0  0  0  0
 31 32  1  0  0  0  0
 33 28  1  6  0  0  0
 33 32  1  0  0  0  0
 34 31  1  0  0  0  0
M  END
>  <MODEL>
4

>  <REMARK>
 VINA RESULT:      -6.8      3.545      9.112
  Name = 
  4 active torsions:
  status: ('A' for Active; 'I' for Inactive)
    1  A    between atoms: C_3  and  N_13
    2  A    between atoms: C_3  and  C_29
    3  A    between atoms: C_12  and  C_28
    4  A    between atoms: N_13  and  C_33
                            x       y       z     vdW  Elec       q    Type
                         _______ _______ _______ _____ _____    ______ ____

>  <TORSDO>
F 4

$$$$
=
 OpenBabel10272400053D

 34 39  0  0  1  0  0  0  0  0999 V2000
  188.8290  178.4510  139.1300 C   0  0  2  0  0  3  0  0  0  0  0  0
  187.2020  176.7050  138.2700 C   0  0  1  0  0  3  0  0  0  0  0  0
  186.4800  178.4200  139.9250 N   0  0  0  0  0  0  0  0  0  0  0  0
  184.1610  178.5350  140.7980 C   0  0  0  0  0  0  0  0  0  0  0  0
  189.5700  176.6350  137.6400 N   0  0  0  0  0  2  0  0  0  0  0  0
  188.2090  176.4360  137.1540 C   0  0  0  0  0  2  0  0  0  0  0  0
  184.7360  179.4880  138.6320 C   0  0  0  0  0  2  0  0  0  0  0  0
  187.3630  178.1520  138.7770 C   0  0  1  0  0  3  0  0  0  0  0  0
  183.3910  180.0720  138.4850 C   0  0  0  0  0  3  0  0  0  0  0  0
  182.4140  178.3880  140.4370 S   0  0  0  0  0  0  0  0  0  0  0  0
  189.7430  178.0500  137.9700 C   0  0  0  0  0  2  0  0  0  0  0  0
  186.9310  178.2370  141.2910 C   0  0  2  0  0  3  0  0  0  0  0  0
  189.2240  177.7070  140.4000 C   0  0  0  0  0  2  0  0  0  0  0  0
  185.8070  176.4590  137.7260 C   0  0  0  0  0  1  0  0  0  0  0  0
  184.6090  178.2530  141.9820 N   0  0  0  0  0  0  0  0  0  0  0  0
  186.0160  178.1950  142.2970 C   0  0  0  0  0  0  0  0  0  0  0  0
  182.3590  179.7660  139.2790 C   0  0  0  0  0  0  0  0  0  0  0  0
  185.1080  178.7870  139.7090 C   0  0  0  0  0  0  0  0  0  0  0  0
  188.4110  178.2200  141.5770 C   0  0  0  0  0  2  0  0  0  0  0  0
  187.9900  177.4240  145.4120 N   0  0  0  0  0  0  0  0  0  0  0  0
  187.1640  177.9220  146.5140 C   0  0  0  0  0  2  0  0  0  0  0  0
  186.3850  178.0440  143.7280 C   0  0  0  0  0  0  0  0  0  0  0  0
  185.7330  178.1180  146.0950 C   0  0  0  0  0  3  0  0  0  0  0  0
  187.6170  177.6310  144.0450 C   0  0  0  0  0  3  0  0  0  0  0  0
  185.3890  178.2020  144.8080 C   0  0  0  0  0  3  0  0  0  0  0  0
  189.3150  176.9150  145.7070 C   0  0  0  0  0  1  0  0  0  0  0  0
  181.0880  180.5350  139.1580 C   0  0  0  0  0  2  0  0  0  0  0  0
  180.5690  180.4330  137.8030 N   0  0  0  0  0  2  0  0  0  0  0  0
  179.9880  181.8220  135.8780 C   0  0  0  0  0  2  0  0  0  0  0  0
  180.9880  182.6140  135.2840 O   0  0  0  0  0  0  0  0  0  0  0  0
  181.0030  184.1380  137.1800 C   0  0  0  0  0  2  0  0  0  0  0  0
  181.1570  182.8000  137.9090 C   0  0  0  0  0  2  0  0  0  0  0  0
  180.1440  181.7650  137.4070 C   0  0  2  0  0  3  0  0  0  0  0  0
  180.7240  183.9380  135.6820 C   0  0  0  0  0  2  0  0  0  0  0  0
  1 11  1  6  0  0  0
  1 13  1  0  0  0  0
  2 14  1  6  0  0  0
  2  8  1  0  0  0  0
  3 12  1  0  0  0  0
  4 15  1  0  0  0  0
  5 11  1  0  0  0  0
  6  5  1  0  0  0  0
  6  2  1  0  0  0  0
  7 18  1  0  0  0  0
  8  1  1  0  0  0  0
  8  3  1  1  0  0  0
  9  7  1  0  0  0  0
  9 17  2  0  0  0  0
 10  4  1  0  0  0  0
 12 19  1  1  0  0  0
 12 16  1  0  0  0  0
 13 19  1  0  0  0  0
 15 16  2  0  0  0  0
 16 22  1  0  0  0  0
 17 10  1  0  0  0  0
 18  3  1  0  0  0  0
 18  4  2  0  0  0  0
 20 26  1  0  0  0  0
 20 21  1  0  0  0  0
 22 24  2  0  0  0  0
 22 25  1  0  0  0  0
 23 21  1  0  0  0  0
 24 20  1  0  0  0  0
 25 23  2  0  0  0  0
 27 17  1  0  0  0  0
 28 27  1  0  0  0  0
 29 33  1  0  0  0  0
 30 34  1  0  0  0  0
 30 29  1  0  0  0  0
 31 32  1  0  0  0  0
 33 28  1  6  0  0  0
 33 32  1  0  0  0  0
 34 31  1  0  0  0  0
M  END
>  <MODEL>
5

>  <REMARK>
 VINA RESULT:      -6.7      3.329      8.044
  Name = 
  4 active torsions:
  status: ('A' for Active; 'I' for Inactive)
    1  A    between atoms: C_3  and  N_13
    2  A    between atoms: C_3  and  C_29
    3  A    between atoms: C_12  and  C_28
    4  A    between atoms: N_13  and  C_33
                            x       y       z     vdW  Elec       q    Type
                         _______ _______ _______ _____ _____    ______ ____

>  <TORSDO>
F 4

$$$$
=
 OpenBabel10272400053D

 34 39  0  0  1  0  0  0  0  0999 V2000
  186.6580  177.1020  145.2380 C   0  0  2  0  0  3  0  0  0  0  0  0
  185.8550  179.4860  144.9190 C   0  0  1  0  0  3  0  0  0  0  0  0
  186.1200  177.9560  142.9730 N   0  0  0  0  0  0  0  0  0  0  0  0
  185.6000  178.6530  140.6500 C   0  0  0  0  0  0  0  0  0  0  0  0
  186.5700  178.6840  147.1230 N   0  0  0  0  0  2  0  0  0  0  0  0
  185.5920  179.5120  146.4240 C   0  0  0  0  0  2  0  0  0  0  0  0
  183.8360  177.9530  142.1750 C   0  0  0  0  0  3  0  0  0  0  0  0
  185.7700  178.0370  144.4010 C   0  0  1  0  0  3  0  0  0  0  0  0
  182.8270  178.0130  141.1020 C   0  0  0  0  0  3  0  0  0  0  0  0
  184.5070  179.5700  139.5680 S   0  0  0  0  0  0  0  0  0  0  0  0
  186.3670  177.2910  146.7280 C   0  0  0  0  0  2  0  0  0  0  0  0
  187.4760  177.6880  142.5350 C   0  0  2  0  0  3  0  0  0  0  0  0
  188.1280  177.3750  144.9450 C   0  0  0  0  0  2  0  0  0  0  0  0
  184.8330  180.3790  144.2400 C   0  0  0  0  0  1  0  0  0  0  0  0
  186.8510  178.5080  140.3420 N   0  0  0  0  0  0  0  0  0  0  0  0
  187.8190  177.9230  141.2390 C   0  0  0  0  0  0  0  0  0  0  0  0
  183.0490  178.5700  139.9060 C   0  0  2  0  0  3  0  0  0  0  0  0
  185.1280  178.2320  141.9710 C   0  0  0  0  0  0  0  0  0  0  0  0
  188.4410  177.0420  143.4960 C   0  0  0  0  0  2  0  0  0  0  0  0
  190.5840  176.9640  138.8670 N   0  0  0  0  0  0  0  0  0  0  0  0
  191.8210  177.2880  139.5810 C   0  0  0  0  0  2  0  0  0  0  0  0
  189.1720  177.6490  140.6930 C   0  0  0  0  0  0  0  0  0  0  0  0
  191.5910  177.4300  141.0590 C   0  0  0  0  0  3  0  0  0  0  0  0
  189.3000  177.2870  139.4120 C   0  0  0  0  0  3  0  0  0  0  0  0
  190.3690  177.6260  141.5600 C   0  0  0  0  0  3  0  0  0  0  0  0
  190.6680  176.5170  137.4910 C   0  0  0  0  0  1  0  0  0  0  0  0
  182.0250  178.4290  138.8320 C   0  0  0  0  0  2  0  0  0  0  0  0
  181.5280  177.0630  138.7900 N   0  0  0  0  0  2  0  0  0  0  0  0
  183.3400  175.6190  138.0110 C   0  0  0  0  0  2  0  0  0  0  0  0
  184.5250  176.2120  137.5360 O   0  0  0  0  0  0  0  0  0  0  0  0
  183.4140  176.9770  135.5130 C   0  0  0  0  0  2  0  0  0  0  0  0
  182.4430  177.5090  136.5710 C   0  0  0  0  0  2  0  0  0  0  0  0
  182.1000  176.4360  137.6110 C   0  0  2  0  0  3  0  0  0  0  0  0
  184.4940  176.0790  136.1360 C   0  0  0  0  0  2  0  0  0  0  0  0
  1 13  1  1  0  0  0
  1 11  1  0  0  0  0
  2 14  1  6  0  0  0
  2  6  1  0  0  0  0
  4 18  2  0  0  0  0
  6  5  1  0  0  0  0
  8  3  1  6  0  0  0
  8  2  1  0  0  0  0
  8  1  1  0  0  0  0
  9  7  2  0  0  0  0
 10 17  1  0  0  0  0
 10  4  1  0  0  0  0
 11  5  1  0  0  0  0
 12  3  1  0  0  0  0
 12 19  1  6  0  0  0
 15  4  1  0  0  0  0
 15 16  2  0  0  0  0
 16 12  1  0  0  0  0
 17 27  1  1  0  0  0
 17  9  1  0  0  0  0
 18  7  1  0  0  0  0
 18  3  1  0  0  0  0
 19 13  1  0  0  0  0
 20 24  1  0  0  0  0
 20 21  1  0  0  0  0
 21 23  1  0  0  0  0
 22 16  1  0  0  0  0
 22 25  1  0  0  0  0
 23 25  2  0  0  0  0
 24 22  2  0  0  0  0
 26 20  1  0  0  0  0
 28 27  1  0  0  0  0
 30 29  1  0  0  0  0
 31 34  1  0  0  0  0
 31 32  1  0  0  0  0
 32 33  1  0  0  0  0
 33 29  1  0  0  0  0
 33 28  1  1  0  0  0
 34 30  1  0  0  0  0
M  END
>  <MODEL>
6

>  <REMARK>
 VINA RESULT:      -6.7      2.950      8.669
  Name = 
  4 active torsions:
  status: ('A' for Active; 'I' for Inactive)
    1  A    between atoms: C_3  and  N_13
    2  A    between atoms: C_3  and  C_29
    3  A    between atoms: C_12  and  C_28
    4  A    between atoms: N_13  and  C_33
                            x       y       z     vdW  Elec       q    Type
                         _______ _______ _______ _____ _____    ______ ____

>  <TORSDO>
F 4

$$$$
=
 OpenBabel10272400053D

 34 39  0  0  1  0  0  0  0  0999 V2000
  191.1160  177.5470  146.7670 C   0  0  2  0  0  3  0  0  0  0  0  0
  191.3390  175.3100  145.5930 C   0  0  1  0  0  3  0  0  0  0  0  0
  190.1920  177.2240  144.4880 N   0  0  0  0  0  0  0  0  0  0  0  0
  189.2370  177.0670  142.2040 C   0  0  0  0  0  0  0  0  0  0  0  0
  192.0770  175.5910  147.9130 N   0  0  0  0  0  2  0  0  0  0  0  0
  192.3970  174.9600  146.6370 C   0  0  0  0  0  2  0  0  0  0  0  0
  191.6160  177.4540  142.5460 C   0  0  0  0  0  2  0  0  0  0  0  0
  191.2730  176.8390  145.4110 C   0  0  1  0  0  3  0  0  0  0  0  0
  191.8330  177.6540  141.1020 C   0  0  0  0  0  3  0  0  0  0  0  0
  189.4260  176.4350  140.5400 S   0  0  0  0  0  0  0  0  0  0  0  0
  192.1720  177.0420  147.7510 C   0  0  0  0  0  2  0  0  0  0  0  0
  188.8620  177.5500  144.9660 C   0  0  2  0  0  3  0  0  0  0  0  0
  189.7160  177.3110  147.3210 C   0  0  0  0  0  2  0  0  0  0  0  0
  191.6990  174.6120  144.2950 C   0  0  0  0  0  1  0  0  0  0  0  0
  188.0530  177.2470  142.7030 N   0  0  0  0  0  0  0  0  0  0  0  0
  187.8270  177.5990  144.0840 C   0  0  0  0  0  0  0  0  0  0  0  0
  190.9190  177.3690  140.1680 C   0  0  0  0  0  0  0  0  0  0  0  0
  190.4110  177.1970  143.0690 C   0  0  0  0  0  0  0  0  0  0  0  0
  188.6810  177.9480  146.4090 C   0  0  0  0  0  2  0  0  0  0  0  0
  184.1940  178.5710  143.8640 N   0  0  0  0  0  0  0  0  0  0  0  0
  183.6950  178.4750  145.2380 C   0  0  0  0  0  2  0  0  0  0  0  0
  186.4400  177.9560  144.4760 C   0  0  0  0  0  0  0  0  0  0  0  0
  184.8160  178.4860  146.2400 C   0  0  0  0  0  3  0  0  0  0  0  0
  185.5270  178.1730  143.5230 C   0  0  0  0  0  3  0  0  0  0  0  0
  186.0730  178.2160  145.8830 C   0  0  0  0  0  3  0  0  0  0  0  0
  183.2540  178.8560  142.7980 C   0  0  0  0  0  1  0  0  0  0  0  0
  191.1690  177.7660  138.7530 C   0  0  0  0  0  2  0  0  0  0  0  0
  190.6010  176.7790  137.8490 N   0  0  0  0  0  2  0  0  0  0  0  0
  189.2400  178.7870  137.5520 C   0  0  0  0  0  2  0  0  0  0  0  0
  187.8570  178.7130  137.7980 O   0  0  0  0  0  0  0  0  0  0  0  0
  187.4970  177.4040  135.7810 C   0  0  0  0  0  2  0  0  0  0  0  0
  188.6230  176.5940  136.4300 C   0  0  0  0  0  2  0  0  0  0  0  0
  189.7680  177.4980  136.9000 C   0  0  2  0  0  3  0  0  0  0  0  0
  187.2350  178.7160  136.5360 C   0  0  0  0  0  2  0  0  0  0  0  0
  1 13  1  1  0  0  0
  1 11  1  0  0  0  0
  2 14  1  6  0  0  0
  2  6  1  0  0  0  0
  3 12  1  0  0  0  0
  4 15  1  0  0  0  0
  4 18  2  0  0  0  0
  6  5  1  0  0  0  0
  7 18  1  0  0  0  0
  8  3  1  6  0  0  0
  8  2  1  0  0  0  0
  8  1  1  0  0  0  0
  9  7  1  0  0  0  0
 10  4  1  0  0  0  0
 11  5  1  0  0  0  0
 12 19  1  6  0  0  0
 15 16  2  0  0  0  0
 16 22  1  0  0  0  0
 16 12  1  0  0  0  0
 17 10  1  0  0  0  0
 17  9  2  0  0  0  0
 18  3  1  0  0  0  0
 19 13  1  0  0  0  0
 20 21  1  0  0  0  0
 21 23  1  0  0  0  0
 22 25  1  0  0  0  0
 24 20  1  0  0  0  0
 24 22  2  0  0  0  0
 25 23  2  0  0  0  0
 26 20  1  0  0  0  0
 27 17  1  0  0  0  0
 28 27  1  0  0  0  0
 29 30  1  0  0  0  0
 31 32  1  0  0  0  0
 31 34  1  0  0  0  0
 32 33  1  0  0  0  0
 33 29  1  0  0  0  0
 33 28  1  1  0  0  0
 34 30  1  0  0  0  0
M  END
>  <MODEL>
7

>  <REMARK>
 VINA RESULT:      -6.5      3.166      8.162
  Name = 
  4 active torsions:
  status: ('A' for Active; 'I' for Inactive)
    1  A    between atoms: C_3  and  N_13
    2  A    between atoms: C_3  and  C_29
    3  A    between atoms: C_12  and  C_28
    4  A    between atoms: N_13  and  C_33
                            x       y       z     vdW  Elec       q    Type
                         _______ _______ _______ _____ _____    ______ ____

>  <TORSDO>
F 4

$$$$
=
 OpenBabel10272400053D

 34 39  0  0  1  0  0  0  0  0999 V2000
  191.5050  174.3930  137.3520 C   0  0  2  0  0  3  0  0  0  0  0  0
  192.5480  176.5900  138.0720 C   0  0  1  0  0  3  0  0  0  0  0  0
  190.1740  176.0650  138.6100 N   0  0  0  0  0  0  0  0  0  0  0  0
  188.7200  177.6220  139.8810 C   0  0  0  0  0  0  0  0  0  0  0  0
  193.7880  175.0100  136.6680 N   0  0  0  0  0  2  0  0  0  0  0  0
  193.9020  175.9480  137.7790 C   0  0  0  0  0  2  0  0  0  0  0  0
  190.2990  176.1630  141.0240 C   0  0  0  0  0  2  0  0  0  0  0  0
  191.5190  175.4970  138.4220 C   0  0  1  0  0  3  0  0  0  0  0  0
  189.7800  176.5660  142.3440 C   0  0  0  0  0  3  0  0  0  0  0  0
  188.5940  178.7920  141.2310 S   0  0  0  0  0  0  0  0  0  0  0  0
  192.9280  173.9020  137.0820 C   0  0  0  0  0  2  0  0  0  0  0  0
  189.2240  176.1510  137.5180 C   0  0  2  0  0  3  0  0  0  0  0  0
  190.8700  174.9160  136.0700 C   0  0  0  0  0  2  0  0  0  0  0  0
  192.7210  177.5740  139.2140 C   0  0  0  0  0  1  0  0  0  0  0  0
  187.9680  177.7530  138.8330 N   0  0  0  0  0  0  0  0  0  0  0  0
  188.1270  176.9470  137.6460 C   0  0  0  0  0  0  0  0  0  0  0  0
  188.9480  177.5970  142.5300 C   0  0  0  0  0  0  0  0  0  0  0  0
  189.8020  176.6350  139.8750 C   0  0  0  0  0  0  0  0  0  0  0  0
  189.4110  175.2630  136.3150 C   0  0  0  0  0  2  0  0  0  0  0  0
  184.9450  176.4350  135.6950 N   0  0  0  0  0  0  0  0  0  0  0  0
  184.9820  177.4530  134.6420 C   0  0  0  0  0  2  0  0  0  0  0  0
  187.0860  177.0720  136.5950 C   0  0  0  0  0  0  0  0  0  0  0  0
  186.3720  177.9850  134.4300 C   0  0  0  0  0  3  0  0  0  0  0  0
  185.9490  176.3790  136.7160 C   0  0  0  0  0  3  0  0  0  0  0  0
  187.3260  177.8300  135.3500 C   0  0  0  0  0  3  0  0  0  0  0  0
  183.7560  175.6190  135.8370 C   0  0  0  0  0  1  0  0  0  0  0  0
  188.3470  177.8190  143.8760 C   0  0  0  0  0  2  0  0  0  0  0  0
  187.0120  177.2450  143.9280 N   0  0  0  0  0  2  0  0  0  0  0  0
  185.6610  178.6120  145.4380 C   0  0  0  0  0  2  0  0  0  0  0  0
  184.3230  178.2460  145.6720 O   0  0  0  0  0  0  0  0  0  0  0  0
  183.6690  178.9440  143.4370 C   0  0  0  0  0  2  0  0  0  0  0  0
  184.8570  178.0380  143.0990 C   0  0  0  0  0  2  0  0  0  0  0  0
  186.0720  178.3520  143.9790 C   0  0  2  0  0  3  0  0  0  0  0  0
  183.5370  179.1640  144.9520 C   0  0  0  0  0  2  0  0  0  0  0  0
  1 13  1  6  0  0  0
  1  8  1  0  0  0  0
  2  8  1  0  0  0  0
  2 14  1  1  0  0  0
  3 18  1  0  0  0  0
  4 10  1  0  0  0  0
  5 11  1  0  0  0  0
  5  6  1  0  0  0  0
  6  2  1  0  0  0  0
  7  9  1  0  0  0  0
  8  3  1  6  0  0  0
  9 17  2  0  0  0  0
 10 17  1  0  0  0  0
 11  1  1  0  0  0  0
 12 19  1  1  0  0  0
 12 16  1  0  0  0  0
 12  3  1  0  0  0  0
 13 19  1  0  0  0  0
 15  4  1  0  0  0  0
 16 15  2  0  0  0  0
 17 27  1  0  0  0  0
 18  4  2  0  0  0  0
 18  7  1  0  0  0  0
 20 26  1  0  0  0  0
 20 24  1  0  0  0  0
 21 20  1  0  0  0  0
 22 24  2  0  0  0  0
 22 16  1  0  0  0  0
 23 21  1  0  0  0  0
 23 25  2  0  0  0  0
 25 22  1  0  0  0  0
 27 28  1  0  0  0  0
 29 30  1  0  0  0  0
 31 34  1  0  0  0  0
 32 31  1  0  0  0  0
 32 33  1  0  0  0  0
 33 28  1  1  0  0  0
 33 29  1  0  0  0  0
 34 30  1  0  0  0  0
M  END
>  <MODEL>
8

>  <REMARK>
 VINA RESULT:      -6.5      3.022      4.767
  Name = 
  4 active torsions:
  status: ('A' for Active; 'I' for Inactive)
    1  A    between atoms: C_3  and  N_13
    2  A    between atoms: C_3  and  C_29
    3  A    between atoms: C_12  and  C_28
    4  A    between atoms: N_13  and  C_33
                            x       y       z     vdW  Elec       q    Type
                         _______ _______ _______ _____ _____    ______ ____

>  <TORSDO>
F 4

$$$$
=
 OpenBabel10272400053D

 34 39  0  0  1  0  0  0  0  0999 V2000
  191.0460  177.6140  146.8570 C   0  0  2  0  0  3  0  0  0  0  0  0
  191.3360  175.3550  145.7410 C   0  0  1  0  0  3  0  0  0  0  0  0
  190.2140  177.2330  144.5520 N   0  0  0  0  0  0  0  0  0  0  0  0
  189.3500  177.0170  142.2370 C   0  0  0  0  0  0  0  0  0  0  0  0
  191.9820  175.6930  148.0820 N   0  0  0  0  0  2  0  0  0  0  0  0
  192.3570  175.0380  146.8320 C   0  0  0  0  0  2  0  0  0  0  0  0
  191.7100  177.4360  142.6620 C   0  0  0  0  0  3  0  0  0  0  0  0
  191.2620  176.8790  145.5240 C   0  0  1  0  0  3  0  0  0  0  0  0
  191.9810  177.6090  141.2230 C   0  0  0  0  0  3  0  0  0  0  0  0
  189.6090  176.3530  140.5950 S   0  0  0  0  0  0  0  0  0  0  0  0
  192.0690  177.1400  147.8920 C   0  0  0  0  0  2  0  0  0  0  0  0
  188.8640  177.5560  144.9720 C   0  0  2  0  0  3  0  0  0  0  0  0
  189.6290  177.3750  147.3620 C   0  0  0  0  0  2  0  0  0  0  0  0
  191.7530  174.6330  144.4730 C   0  0  0  0  0  1  0  0  0  0  0  0
  188.1460  177.1960  142.6860 N   0  0  0  0  0  0  0  0  0  0  0  0
  187.8630  177.5740  144.0490 C   0  0  0  0  0  0  0  0  0  0  0  0
  191.1060  177.2940  140.2610 C   0  0  2  0  0  3  0  0  0  0  0  0
  190.4890  177.1780  143.1430 C   0  0  0  0  0  0  0  0  0  0  0  0
  188.6230  177.9820  146.3970 C   0  0  0  0  0  2  0  0  0  0  0  0
  184.2360  178.5190  143.6700 N   0  0  0  0  0  0  0  0  0  0  0  0
  183.6810  178.4310  145.0230 C   0  0  0  0  0  2  0  0  0  0  0  0
  186.4590  177.9250  144.3800 C   0  0  0  0  0  0  0  0  0  0  0  0
  184.7590  178.4590  146.0710 C   0  0  0  0  0  3  0  0  0  0  0  0
  185.5850  178.1280  143.3890 C   0  0  0  0  0  3  0  0  0  0  0  0
  186.0320  178.1950  145.7690 C   0  0  0  0  0  3  0  0  0  0  0  0
  183.3400  178.7890  142.5630 C   0  0  0  0  0  1  0  0  0  0  0  0
  191.4070  177.6640  138.8480 C   0  0  0  0  0  2  0  0  0  0  0  0
  190.2890  177.3070  137.9890 N   0  0  0  0  0  2  0  0  0  0  0  0
  190.0190  175.0360  137.1260 C   0  0  0  0  0  2  0  0  0  0  0  0
  190.8300  174.0100  137.6460 O   0  0  0  0  0  0  0  0  0  0  0  0
  192.7910  174.8890  136.5080 C   0  0  0  0  0  2  0  0  0  0  0  0
  192.2970  176.1570  137.2080 C   0  0  0  0  0  2  0  0  0  0  0  0
  190.7910  176.3610  137.0070 C   0  0  2  0  0  3  0  0  0  0  0  0
  191.7900  173.7320  136.6560 C   0  0  0  0  0  2  0  0  0  0  0  0
  1 13  1  1  0  0  0
  1 11  1  0  0  0  0
  2 14  1  6  0  0  0
  2  6  1  0  0  0  0
  3 12  1  0  0  0  0
  4 15  1  0  0  0  0
  4 18  2  0  0  0  0
  6  5  1  0  0  0  0
  7 18  1  0  0  0  0
  8  3  1  6  0  0  0
  8  2  1  0  0  0  0
  8  1  1  0  0  0  0
  9  7  2  0  0  0  0
 10  4  1  0  0  0  0
 11  5  1  0  0  0  0
 12 19  1  6  0  0  0
 15 16  2  0  0  0  0
 16 22  1  0  0  0  0
 16 12  1  0  0  0  0
 17 27  1  6  0  0  0
 17 10  1  0  0  0  0
 17  9  1  0  0  0  0
 18  3  1  0  0  0  0
 19 13  1  0  0  0  0
 20 21  1  0  0  0  0
 21 23  1  0  0  0  0
 22 25  1  0  0  0  0
 24 20  1  0  0  0  0
 24 22  2  0  0  0  0
 25 23  2  0  0  0  0
 26 20  1  0  0  0  0
 28 27  1  0  0  0  0
 29 30  1  0  0  0  0
 31 34  1  0  0  0  0
 31 32  1  0  0  0  0
 33 29  1  0  0  0  0
 33 32  1  0  0  0  0
 33 28  1  1  0  0  0
 34 30  1  0  0  0  0
M  END
>  <MODEL>
9

>  <REMARK>
 VINA RESULT:      -6.4      3.660      8.359
  Name = 
  4 active torsions:
  status: ('A' for Active; 'I' for Inactive)
    1  A    between atoms: C_3  and  N_13
    2  A    between atoms: C_3  and  C_29
    3  A    between atoms: C_12  and  C_28
    4  A    between atoms: N_13  and  C_33
                            x       y       z     vdW  Elec       q    Type
                         _______ _______ _______ _____ _____    ______ ____

>  <TORSDO>
F 4

$$$$
