=
 OpenBabel10262423573D

 34 39  0  0  1  0  0  0  0  0999 V2000
  184.3510  178.8190  142.6330 C   0  0  0  0  0  0  0  0  0  0  0  0
  186.2120  178.2030  144.0970 C   0  0  0  0  0  0  0  0  0  0  0  0
  186.5460  178.4920  141.6990 C   0  0  0  0  0  0  0  0  0  0  0  0
  188.9910  178.0460  140.9300 C   0  0  2  0  0  3  0  0  0  0  0  0
  183.9910  178.5340  145.0130 C   0  0  0  0  0  3  0  0  0  0  0  0
  185.3450  178.2200  145.1940 C   0  0  0  0  0  3  0  0  0  0  0  0
  188.4370  177.8890  143.1800 C   0  0  0  0  0  0  0  0  0  0  0  0
  185.7040  178.5040  142.8150 C   0  0  0  0  0  0  0  0  0  0  0  0
  190.2170  177.6870  141.6730 N   0  0  0  0  0  2  0  0  0  0  0  0
  183.4930  178.8330  143.7360 C   0  0  0  0  0  3  0  0  0  0  0  0
  184.7300  179.0910  140.3110 C   0  0  0  0  0  3  0  0  0  0  0  0
  183.8910  179.1060  141.3860 N   0  0  0  0  0  0  0  0  0  0  0  0
  187.6500  177.8820  144.2650 C   0  0  0  0  0  3  0  0  0  0  0  0
  189.8810  177.5950  143.1060 C   0  0  1  0  0  3  0  0  0  0  0  0
  187.9240  178.1560  141.9000 N   0  0  0  0  0  0  0  0  0  0  0  0
  186.0480  178.7850  140.4680 N   0  0  0  0  0  0  0  0  0  0  0  0
  190.6910  178.6290  143.8730 C   0  0  0  0  0  2  0  0  0  0  0  0
  191.7620  177.9530  144.7060 C   0  0  0  0  0  2  0  0  0  0  0  0
  191.3320  176.5380  145.0270 C   0  0  0  0  0  2  0  0  0  0  0  0
  192.0730  176.0570  146.1810 N   0  0  0  0  0  2  0  0  0  0  0  0
  191.8400  177.2920  148.1640 O   0  0  0  0  0  1  0  0  0  0  0  0
  191.2510  176.3110  147.3590 C   0  0  1  0  0  3  0  0  0  0  0  0
  189.9250  176.6520  147.0110 O   0  0  0  0  0  0  0  0  0  0  0  0
  187.9730  177.6130  147.9840 C   0  0  0  0  0  1  0  0  0  0  0  0
  189.4810  177.6670  147.8730 C   0  0  0  0  0  2  0  0  0  0  0  0
  188.6660  176.9540  139.9210 C   0  0  0  0  0  2  0  0  0  0  0  0
  186.4590  176.9270  135.6650 C   0  0  0  0  0  3  0  0  0  0  0  0
  186.5030  175.9450  136.6000 C   0  0  0  0  0  3  0  0  0  0  0  0
  188.3310  177.9080  137.6900 C   0  0  1  0  0  3  0  0  0  0  0  0
  187.4460  175.8920  137.6830 N   0  0  0  0  0  2  0  0  0  0  0  0
  188.5460  178.4390  136.3110 C   0  0  0  0  0  2  0  0  0  0  0  0
  188.6860  176.5010  137.4760 N   0  0  2  0  0  0  0  0  0  0  0  0
  189.3000  177.2720  138.5730 C   0  0  2  0  0  3  0  0  0  0  0  0
  187.1980  178.2700  135.5870 C   0  0  0  0  0  2  0  0  0  0  0  0
  1  8  1  0  0  0  0
  1 10  2  0  0  0  0
  2 13  1  0  0  0  0
  2  6  1  0  0  0  0
  3 15  1  0  0  0  0
  3  8  1  0  0  0  0
  4 26  1  6  0  0  0
  4  9  1  0  0  0  0
  4 15  1  0  0  0  0
  5  6  2  0  0  0  0
  7 13  2  0  0  0  0
  8  2  2  0  0  0  0
  9 14  1  0  0  0  0
 10  5  1  0  0  0  0
 11 16  1  0  0  0  0
 11 12  2  0  0  0  0
 12  1  1  0  0  0  0
 14  7  1  0  0  0  0
 14 17  1  1  0  0  0
 15  7  1  0  0  0  0
 16  3  2  0  0  0  0
 17 18  1  0  0  0  0
 18 19  1  0  0  0  0
 19 20  1  0  0  0  0
 20 22  1  0  0  0  0
 22 21  1  6  0  0  0
 23 22  1  0  0  0  0
 23 25  1  0  0  0  0
 25 24  1  0  0  0  0
 27 28  2  0  0  0  0
 28 30  1  0  0  0  0
 29 31  1  6  0  0  0
 29 33  1  0  0  0  0
 32 30  1  1  0  0  0
 32 29  1  0  0  0  0
 32 33  1  0  0  0  0
 33 26  1  1  0  0  0
 34 27  1  0  0  0  0
 34 31  1  0  0  0  0
M  END
>  <MODEL>
1

>  <REMARK>
 VINA RESULT:      -8.6      0.000      0.000
  Name = 
  9 active torsions:
  status: ('A' for Active; 'I' for Inactive)
    1  A    between atoms: C_3  and  C_13
    2  A    between atoms: C_3  and  C_17
    3  A    between atoms: C_5  and  C_26
    4  A    between atoms: C_13  and  N_33
    5  A    between atoms: C_14  and  O_20
    6  A    between atoms: C_17  and  C_29
    7  A    between atoms: O_20  and  C_34
    8  A    between atoms: C_26  and  C_28
    9  A    between atoms: N_33  and  C_34
                            x       y       z     vdW  Elec       q    Type
                         _______ _______ _______ _____ _____    ______ ____

>  <TORSDO>
F 9

$$$$
=
 OpenBabel10262423573D

 34 39  0  0  1  0  0  0  0  0999 V2000
  184.4620  178.7780  142.7320 C   0  0  0  0  0  0  0  0  0  0  0  0
  186.4060  178.1350  144.0700 C   0  0  0  0  0  0  0  0  0  0  0  0
  186.6040  178.5020  141.6680 C   0  0  0  0  0  0  0  0  0  0  0  0
  189.0060  178.1040  140.7510 C   0  0  2  0  0  3  0  0  0  0  0  0
  184.2370  178.4140  145.1180 C   0  0  0  0  0  3  0  0  0  0  0  0
  185.6020  178.1080  145.2140 C   0  0  0  0  0  3  0  0  0  0  0  0
  188.5790  177.8710  143.0220 C   0  0  0  0  0  0  0  0  0  0  0  0
  185.8250  178.4700  142.8290 C   0  0  0  0  0  0  0  0  0  0  0  0
  190.2740  177.7340  141.4140 N   0  0  0  0  0  2  0  0  0  0  0  0
  183.6670  178.7490  143.8810 C   0  0  0  0  0  3  0  0  0  0  0  0
  184.7090  179.1260  140.4030 C   0  0  0  0  0  3  0  0  0  0  0  0
  183.9310  179.0990  141.5230 N   0  0  0  0  0  0  0  0  0  0  0  0
  187.8540  177.8230  144.1480 C   0  0  0  0  0  3  0  0  0  0  0  0
  190.0200  177.5940  142.8590 C   0  0  1  0  0  3  0  0  0  0  0  0
  187.9940  178.1740  141.7820 N   0  0  0  0  0  0  0  0  0  0  0  0
  186.0360  178.8290  140.4770 N   0  0  0  0  0  0  0  0  0  0  0  0
  190.8630  178.6110  143.6120 C   0  0  0  0  0  2  0  0  0  0  0  0
  191.8450  177.9110  144.5310 C   0  0  0  0  0  2  0  0  0  0  0  0
  191.2980  176.5510  144.9090 C   0  0  0  0  0  2  0  0  0  0  0  0
  191.9730  176.0740  146.1040 N   0  0  0  0  0  2  0  0  0  0  0  0
  191.9650  177.1590  148.1860 O   0  0  0  0  0  1  0  0  0  0  0  0
  191.1710  176.4900  147.2490 C   0  0  1  0  0  3  0  0  0  0  0  0
  190.0610  177.2700  146.8570 O   0  0  0  0  0  0  0  0  0  0  0  0
  188.3200  178.1370  148.2350 C   0  0  0  0  0  1  0  0  0  0  0  0
  188.9530  176.9000  147.6350 C   0  0  0  0  0  2  0  0  0  0  0  0
  188.6340  177.0410  139.7280 C   0  0  0  0  0  2  0  0  0  0  0  0
  190.7740  174.3850  136.3590 C   0  0  0  0  0  3  0  0  0  0  0  0
  191.1680  174.6020  137.6390 C   0  0  0  0  0  3  0  0  0  0  0  0
  188.9080  176.3940  137.3810 C   0  0  1  0  0  3  0  0  0  0  0  0
  190.6720  175.6610  138.4760 N   0  0  0  0  0  2  0  0  0  0  0  0
  189.1240  176.4160  135.9030 C   0  0  0  0  0  2  0  0  0  0  0  0
  190.2340  176.8230  137.8360 N   0  0  2  0  0  0  0  0  0  0  0  0
  189.0180  177.4980  138.3260 C   0  0  2  0  0  3  0  0  0  0  0  0
  189.6390  175.0120  135.5400 C   0  0  0  0  0  2  0  0  0  0  0  0
  1  8  1  0  0  0  0
  1 10  2  0  0  0  0
  2 13  1  0  0  0  0
  2  6  1  0  0  0  0
  3 15  1  0  0  0  0
  3  8  1  0  0  0  0
  4 26  1  6  0  0  0
  4  9  1  0  0  0  0
  4 15  1  0  0  0  0
  5  6  2  0  0  0  0
  7 13  2  0  0  0  0
  8  2  2  0  0  0  0
  9 14  1  0  0  0  0
 10  5  1  0  0  0  0
 11 16  1  0  0  0  0
 11 12  2  0  0  0  0
 12  1  1  0  0  0  0
 14  7  1  0  0  0  0
 14 17  1  1  0  0  0
 15  7  1  0  0  0  0
 16  3  2  0  0  0  0
 17 18  1  0  0  0  0
 18 19  1  0  0  0  0
 19 20  1  0  0  0  0
 20 22  1  0  0  0  0
 22 21  1  1  0  0  0
 23 22  1  0  0  0  0
 23 25  1  0  0  0  0
 25 24  1  0  0  0  0
 27 28  2  0  0  0  0
 28 30  1  0  0  0  0
 29 31  1  6  0  0  0
 29 32  1  0  0  0  0
 29 33  1  0  0  0  0
 32 33  1  0  0  0  0
 32 30  1  1  0  0  0
 33 26  1  1  0  0  0
 34 31  1  0  0  0  0
 34 27  1  0  0  0  0
M  END
>  <MODEL>
2

>  <REMARK>
 VINA RESULT:      -8.5      1.294      1.634
  Name = 
  9 active torsions:
  status: ('A' for Active; 'I' for Inactive)
    1  A    between atoms: C_3  and  C_13
    2  A    between atoms: C_3  and  C_17
    3  A    between atoms: C_5  and  C_26
    4  A    between atoms: C_13  and  N_33
    5  A    between atoms: C_14  and  O_20
    6  A    between atoms: C_17  and  C_29
    7  A    between atoms: O_20  and  C_34
    8  A    between atoms: C_26  and  C_28
    9  A    between atoms: N_33  and  C_34
                            x       y       z     vdW  Elec       q    Type
                         _______ _______ _______ _____ _____    ______ ____

>  <TORSDO>
F 9

$$$$
=
 OpenBabel10262423573D

 34 39  0  0  1  0  0  0  0  0999 V2000
  185.5060  178.4290  145.9110 C   0  0  0  0  0  0  0  0  0  0  0  0
  187.3020  177.7630  144.3900 C   0  0  0  0  0  0  0  0  0  0  0  0
  185.2080  178.6710  143.5340 C   0  0  0  0  0  0  0  0  0  0  0  0
  185.1150  178.7970  140.9370 C   0  0  2  0  0  3  0  0  0  0  0  0
  187.5770  177.5240  146.7880 C   0  0  0  0  0  3  0  0  0  0  0  0
  188.0810  177.3820  145.4870 C   0  0  0  0  0  3  0  0  0  0  0  0
  187.0320  178.0170  141.9910 C   0  0  0  0  0  0  0  0  0  0  0  0
  186.0110  178.2850  144.6120 C   0  0  0  0  0  0  0  0  0  0  0  0
  186.1000  178.4560  139.8890 N   0  0  0  0  0  2  0  0  0  0  0  0
  186.2920  178.0460  147.0010 C   0  0  0  0  0  3  0  0  0  0  0  0
  183.4930  179.3090  145.0270 C   0  0  0  0  0  3  0  0  0  0  0  0
  184.2580  178.9370  146.0930 N   0  0  0  0  0  0  0  0  0  0  0  0
  187.8180  177.6300  143.0060 C   0  0  0  0  0  3  0  0  0  0  0  0
  187.3280  177.9710  140.5460 C   0  0  1  0  0  3  0  0  0  0  0  0
  185.7350  178.5080  142.2110 N   0  0  0  0  0  0  0  0  0  0  0  0
  183.9660  179.1760  143.7570 N   0  0  0  0  0  0  0  0  0  0  0  0
  188.4810  178.8970  140.1920 C   0  0  0  0  0  2  0  0  0  0  0  0
  189.4450  178.2070  139.2480 C   0  0  0  0  0  2  0  0  0  0  0  0
  190.0380  176.9940  139.9320 C   0  0  0  0  0  2  0  0  0  0  0  0
  191.2070  177.3920  140.6970 N   0  0  0  0  0  2  0  0  0  0  0  0
  190.4490  175.7590  142.2040 O   0  0  0  0  0  1  0  0  0  0  0  0
  190.9430  177.0630  142.0930 C   0  0  1  0  0  3  0  0  0  0  0  0
  192.0840  177.2570  142.9030 O   0  0  0  0  0  0  0  0  0  0  0  0
  191.0970  179.1390  143.9830 C   0  0  0  0  0  1  0  0  0  0  0  0
  191.6710  177.7480  144.1520 C   0  0  0  0  0  2  0  0  0  0  0  0
  183.8660  177.9460  140.7600 C   0  0  0  0  0  2  0  0  0  0  0  0
  180.0290  180.7210  140.0110 C   0  0  0  0  0  3  0  0  0  0  0  0
  180.1620  179.6780  140.8680 C   0  0  0  0  0  3  0  0  0  0  0  0
  182.6560  179.5860  139.4000 C   0  0  1  0  0  3  0  0  0  0  0  0
  181.2090  178.6940  140.7990 N   0  0  0  0  0  2  0  0  0  0  0  0
  181.9900  180.2980  138.2690 C   0  0  0  0  0  2  0  0  0  0  0  0
  181.7550  178.4370  139.5400 N   0  0  2  0  0  0  0  0  0  0  0  0
  183.2110  178.2380  139.4160 C   0  0  2  0  0  3  0  0  0  0  0  0
  180.9720  181.2500  138.9230 C   0  0  0  0  0  2  0  0  0  0  0  0
  1 12  1  0  0  0  0
  1 10  2  0  0  0  0
  2  8  2  0  0  0  0
  2  6  1  0  0  0  0
  3 16  2  0  0  0  0
  3  8  1  0  0  0  0
  4 26  1  6  0  0  0
  4 15  1  0  0  0  0
  5 10  1  0  0  0  0
  6  5  2  0  0  0  0
  7 15  1  0  0  0  0
  7 13  2  0  0  0  0
  8  1  1  0  0  0  0
  9 14  1  0  0  0  0
  9  4  1  0  0  0  0
 11 12  2  0  0  0  0
 13  2  1  0  0  0  0
 14 17  1  1  0  0  0
 14  7  1  0  0  0  0
 15  3  1  0  0  0  0
 16 11  1  0  0  0  0
 18 19  1  0  0  0  0
 18 17  1  0  0  0  0
 19 20  1  0  0  0  0
 20 22  1  0  0  0  0
 22 21  1  6  0  0  0
 22 23  1  0  0  0  0
 23 25  1  0  0  0  0
 24 25  1  0  0  0  0
 27 28  2  0  0  0  0
 29 31  1  6  0  0  0
 29 33  1  0  0  0  0
 29 32  1  0  0  0  0
 30 28  1  0  0  0  0
 31 34  1  0  0  0  0
 32 30  1  1  0  0  0
 33 32  1  0  0  0  0
 33 26  1  1  0  0  0
 34 27  1  0  0  0  0
M  END
>  <MODEL>
3

>  <REMARK>
 VINA RESULT:      -8.3      2.636      5.170
  Name = 
  9 active torsions:
  status: ('A' for Active; 'I' for Inactive)
    1  A    between atoms: C_3  and  C_13
    2  A    between atoms: C_3  and  C_17
    3  A    between atoms: C_5  and  C_26
    4  A    between atoms: C_13  and  N_33
    5  A    between atoms: C_14  and  O_20
    6  A    between atoms: C_17  and  C_29
    7  A    between atoms: O_20  and  C_34
    8  A    between atoms: C_26  and  C_28
    9  A    between atoms: N_33  and  C_34
                            x       y       z     vdW  Elec       q    Type
                         _______ _______ _______ _____ _____    ______ ____

>  <TORSDO>
F 9

$$$$
=
 OpenBabel10262423573D

 34 39  0  0  1  0  0  0  0  0999 V2000
  189.1860  177.2240  146.5040 C   0  0  0  0  0  0  0  0  0  0  0  0
  187.0120  178.2410  146.0310 C   0  0  0  0  0  0  0  0  0  0  0  0
  188.4290  177.4170  144.2260 C   0  0  0  0  0  0  0  0  0  0  0  0
  187.4100  177.7740  141.8590 C   0  0  2  0  0  3  0  0  0  0  0  0
  187.7980  178.0400  148.3160 C   0  0  0  0  0  3  0  0  0  0  0  0
  186.8170  178.4440  147.4000 C   0  0  0  0  0  3  0  0  0  0  0  0
  186.2200  178.4270  143.7440 C   0  0  0  0  0  0  0  0  0  0  0  0
  188.2050  177.6300  145.5900 C   0  0  0  0  0  0  0  0  0  0  0  0
  186.1250  178.3470  141.4070 N   0  0  0  0  0  2  0  0  0  0  0  0
  188.9810  177.4310  147.8710 C   0  0  0  0  0  3  0  0  0  0  0  0
  190.5220  176.4350  144.7140 C   0  0  0  0  0  3  0  0  0  0  0  0
  190.3240  176.6360  146.0490 N   0  0  0  0  0  0  0  0  0  0  0  0
  185.9840  178.6530  145.0440 C   0  0  0  0  0  3  0  0  0  0  0  0
  185.3540  178.7560  142.5950 C   0  0  1  0  0  3  0  0  0  0  0  0
  187.4210  177.8470  143.3040 N   0  0  0  0  0  0  0  0  0  0  0  0
  189.5800  176.8240  143.8110 N   0  0  0  0  0  0  0  0  0  0  0  0
  184.0570  177.9640  142.6420 C   0  0  0  0  0  2  0  0  0  0  0  0
  182.9140  178.7830  142.0740 C   0  0  0  0  0  2  0  0  0  0  0  0
  182.4530  178.1670  140.7710 C   0  0  0  0  0  2  0  0  0  0  0  0
  182.2710  179.2140  139.7790 N   0  0  0  0  0  2  0  0  0  0  0  0
  184.3430  180.1940  139.2660 O   0  0  0  0  0  1  0  0  0  0  0  0
  183.4390  179.1880  138.9050 C   0  0  1  0  0  3  0  0  0  0  0  0
  184.0560  177.9170  138.8900 O   0  0  0  0  0  0  0  0  0  0  0  0
  184.6370  177.0600  136.7430 C   0  0  0  0  0  1  0  0  0  0  0  0
  185.0650  177.9190  137.9130 C   0  0  0  0  0  2  0  0  0  0  0  0
  188.5620  178.5860  141.2880 C   0  0  0  0  0  2  0  0  0  0  0  0
  190.9350  175.7870  138.2030 C   0  0  0  0  0  3  0  0  0  0  0  0
  191.4340  176.5390  139.2150 C   0  0  0  0  0  3  0  0  0  0  0  0
  188.6420  177.3060  139.2000 C   0  0  1  0  0  3  0  0  0  0  0  0
  190.7180  177.5990  139.8720 N   0  0  0  0  0  2  0  0  0  0  0  0
  188.5600  176.8940  137.7670 C   0  0  0  0  0  2  0  0  0  0  0  0
  189.7470  178.2680  139.1240 N   0  0  2  0  0  0  0  0  0  0  0  0
  188.4720  178.6380  139.7680 C   0  0  2  0  0  3  0  0  0  0  0  0
  189.5160  175.6960  137.6260 C   0  0  0  0  0  2  0  0  0  0  0  0
  1 10  2  0  0  0  0
  2  6  1  0  0  0  0
  3  8  1  0  0  0  0
  4 26  1  6  0  0  0
  4 15  1  0  0  0  0
  6  5  2  0  0  0  0
  7 13  2  0  0  0  0
  8  2  2  0  0  0  0
  8  1  1  0  0  0  0
  9  4  1  0  0  0  0
  9 14  1  0  0  0  0
 10  5  1  0  0  0  0
 11 12  2  0  0  0  0
 12  1  1  0  0  0  0
 13  2  1  0  0  0  0
 14 17  1  1  0  0  0
 14  7  1  0  0  0  0
 15  7  1  0  0  0  0
 15  3  1  0  0  0  0
 16  3  2  0  0  0  0
 16 11  1  0  0  0  0
 18 17  1  0  0  0  0
 19 18  1  0  0  0  0
 20 19  1  0  0  0  0
 22 21  1  1  0  0  0
 22 20  1  0  0  0  0
 23 22  1  0  0  0  0
 24 25  1  0  0  0  0
 25 23  1  0  0  0  0
 27 28  2  0  0  0  0
 28 30  1  0  0  0  0
 29 31  1  6  0  0  0
 29 33  1  0  0  0  0
 32 29  1  0  0  0  0
 32 33  1  0  0  0  0
 32 30  1  1  0  0  0
 33 26  1  1  0  0  0
 34 31  1  0  0  0  0
 34 27  1  0  0  0  0
M  END
>  <MODEL>
4

>  <REMARK>
 VINA RESULT:      -8.0      3.171      6.648
  Name = 
  9 active torsions:
  status: ('A' for Active; 'I' for Inactive)
    1  A    between atoms: C_3  and  C_13
    2  A    between atoms: C_3  and  C_17
    3  A    between atoms: C_5  and  C_26
    4  A    between atoms: C_13  and  N_33
    5  A    between atoms: C_14  and  O_20
    6  A    between atoms: C_17  and  C_29
    7  A    between atoms: O_20  and  C_34
    8  A    between atoms: C_26  and  C_28
    9  A    between atoms: N_33  and  C_34
                            x       y       z     vdW  Elec       q    Type
                         _______ _______ _______ _____ _____    ______ ____

>  <TORSDO>
F 9

$$$$
=
 OpenBabel10262423573D

 34 39  0  0  1  0  0  0  0  0999 V2000
  189.1460  177.2540  146.3180 C   0  0  0  0  0  0  0  0  0  0  0  0
  186.9560  178.3430  146.3310 C   0  0  0  0  0  0  0  0  0  0  0  0
  187.9540  177.5590  144.2490 C   0  0  0  0  0  0  0  0  0  0  0  0
  186.4920  178.0380  142.1510 C   0  0  2  0  0  3  0  0  0  0  0  0
  188.1780  178.0290  148.4020 C   0  0  0  0  0  3  0  0  0  0  0  0
  187.0460  178.4940  147.7170 C   0  0  0  0  0  3  0  0  0  0  0  0
  185.7270  178.6420  144.2590 C   0  0  0  0  0  0  0  0  0  0  0  0
  188.0150  177.7210  145.6360 C   0  0  0  0  0  0  0  0  0  0  0  0
  185.1620  178.6610  141.9880 N   0  0  0  0  0  2  0  0  0  0  0  0
  189.2270  177.4100  147.7050 C   0  0  0  0  0  3  0  0  0  0  0  0
  190.0690  176.5070  144.2690 C   0  0  0  0  0  3  0  0  0  0  0  0
  190.1500  176.6580  145.6230 N   0  0  0  0  0  0  0  0  0  0  0  0
  185.7640  178.8200  145.5870 C   0  0  0  0  0  3  0  0  0  0  0  0
  184.6590  179.0390  143.3210 C   0  0  1  0  0  3  0  0  0  0  0  0
  186.7950  178.0520  143.5650 N   0  0  0  0  0  0  0  0  0  0  0  0
  188.9780  176.9560  143.5890 N   0  0  0  0  0  0  0  0  0  0  0  0
  183.3720  178.2780  143.6010 C   0  0  0  0  0  2  0  0  0  0  0  0
  182.2280  179.2410  143.8460 C   0  0  0  0  0  2  0  0  0  0  0  0
  181.0800  178.9060  142.9180 C   0  0  0  0  0  2  0  0  0  0  0  0
  180.4640  180.1340  142.4470 N   0  0  0  0  0  2  0  0  0  0  0  0
  180.1170  181.2310  140.3990 O   0  0  0  0  0  1  0  0  0  0  0  0
  180.2320  179.9800  141.0150 C   0  0  1  0  0  3  0  0  0  0  0  0
  181.2310  179.1900  140.4030 O   0  0  0  0  0  0  0  0  0  0  0  0
  183.1340  179.7430  139.0790 C   0  0  0  0  0  1  0  0  0  0  0  0
  181.6280  179.8120  139.2090 C   0  0  0  0  0  2  0  0  0  0  0  0
  187.5320  178.8450  141.3880 C   0  0  0  0  0  2  0  0  0  0  0  0
  187.6830  178.6550  136.6000 C   0  0  0  0  0  3  0  0  0  0  0  0
  186.6020  178.5620  137.4140 C   0  0  0  0  0  3  0  0  0  0  0  0
  188.7950  178.5780  139.3060 C   0  0  1  0  0  3  0  0  0  0  0  0
  186.6660  178.2910  138.8250 N   0  0  0  0  0  2  0  0  0  0  0  0
  189.6960  178.0640  138.2310 C   0  0  0  0  0  2  0  0  0  0  0  0
  187.7550  177.5440  139.2790 N   0  0  2  0  0  0  0  0  0  0  0  0
  188.4060  177.9220  140.5480 C   0  0  2  0  0  3  0  0  0  0  0  0
  189.1820  178.6960  136.9240 C   0  0  0  0  0  2  0  0  0  0  0  0
  1 10  2  0  0  0  0
  2  6  1  0  0  0  0
  3  8  1  0  0  0  0
  4 26  1  6  0  0  0
  4 15  1  0  0  0  0
  6  5  2  0  0  0  0
  7 13  2  0  0  0  0
  8  1  1  0  0  0  0
  8  2  2  0  0  0  0
  9  4  1  0  0  0  0
  9 14  1  0  0  0  0
 10  5  1  0  0  0  0
 11 12  2  0  0  0  0
 12  1  1  0  0  0  0
 13  2  1  0  0  0  0
 14 17  1  1  0  0  0
 14  7  1  0  0  0  0
 15  3  1  0  0  0  0
 15  7  1  0  0  0  0
 16  3  2  0  0  0  0
 16 11  1  0  0  0  0
 17 18  1  0  0  0  0
 19 18  1  0  0  0  0
 20 19  1  0  0  0  0
 22 21  1  6  0  0  0
 22 20  1  0  0  0  0
 23 22  1  0  0  0  0
 24 25  1  0  0  0  0
 25 23  1  0  0  0  0
 27 34  1  0  0  0  0
 27 28  2  0  0  0  0
 28 30  1  0  0  0  0
 29 31  1  6  0  0  0
 29 33  1  0  0  0  0
 32 30  1  1  0  0  0
 32 29  1  0  0  0  0
 32 33  1  0  0  0  0
 33 26  1  1  0  0  0
 34 31  1  0  0  0  0
M  END
>  <MODEL>
5

>  <REMARK>
 VINA RESULT:      -8.0      3.407      6.899
  Name = 
  9 active torsions:
  status: ('A' for Active; 'I' for Inactive)
    1  A    between atoms: C_3  and  C_13
    2  A    between atoms: C_3  and  C_17
    3  A    between atoms: C_5  and  C_26
    4  A    between atoms: C_13  and  N_33
    5  A    between atoms: C_14  and  O_20
    6  A    between atoms: C_17  and  C_29
    7  A    between atoms: O_20  and  C_34
    8  A    between atoms: C_26  and  C_28
    9  A    between atoms: N_33  and  C_34
                            x       y       z     vdW  Elec       q    Type
                         _______ _______ _______ _____ _____    ______ ____

>  <TORSDO>
F 9

$$$$
=
 OpenBabel10262423573D

 34 39  0  0  1  0  0  0  0  0999 V2000
  190.3750  176.9120  147.0230 C   0  0  0  0  0  0  0  0  0  0  0  0
  190.9510  176.1690  144.7640 C   0  0  0  0  0  0  0  0  0  0  0  0
  189.0280  177.6160  145.1550 C   0  0  0  0  0  0  0  0  0  0  0  0
  187.7140  178.2050  142.9880 C   0  0  2  0  0  3  0  0  0  0  0  0
  192.2890  175.4690  146.6620 C   0  0  0  0  0  3  0  0  0  0  0  0
  192.0350  175.4550  145.2820 C   0  0  0  0  0  3  0  0  0  0  0  0
  189.6190  176.8840  142.8650 C   0  0  0  0  0  0  0  0  0  0  0  0
  190.1220  176.8960  145.6440 C   0  0  0  0  0  0  0  0  0  0  0  0
  187.9320  177.8580  141.5680 N   0  0  0  0  0  2  0  0  0  0  0  0
  191.4620  176.1960  147.5310 C   0  0  0  0  0  3  0  0  0  0  0  0
  188.5000  178.3210  147.3470 C   0  0  0  0  0  3  0  0  0  0  0  0
  189.5600  177.6230  147.8460 N   0  0  0  0  0  0  0  0  0  0  0  0
  190.6680  176.1760  143.3080 C   0  0  0  0  0  3  0  0  0  0  0  0
  189.1460  177.0280  141.4740 C   0  0  1  0  0  3  0  0  0  0  0  0
  188.7760  177.5810  143.7450 N   0  0  0  0  0  0  0  0  0  0  0  0
  188.2370  178.3160  146.0110 N   0  0  0  0  0  0  0  0  0  0  0  0
  190.1750  177.7490  140.6170 C   0  0  0  0  0  2  0  0  0  0  0  0
  190.7720  176.8010  139.5950 C   0  0  0  0  0  2  0  0  0  0  0  0
  190.2160  177.1240  138.2240 C   0  0  0  0  0  2  0  0  0  0  0  0
  189.4110  178.3310  138.3010 N   0  0  0  0  0  2  0  0  0  0  0  0
  188.1350  176.7480  137.1260 O   0  0  0  0  0  1  0  0  0  0  0  0
  188.1800  178.0770  137.5610 C   0  0  1  0  0  3  0  0  0  0  0  0
  187.0340  178.4150  138.3150 O   0  0  0  0  0  0  0  0  0  0  0  0
  184.6510  178.4130  138.2860 C   0  0  0  0  0  1  0  0  0  0  0  0
  185.9170  177.7870  137.7430 C   0  0  0  0  0  2  0  0  0  0  0  0
  186.3650  177.6690  143.4450 C   0  0  0  0  0  2  0  0  0  0  0  0
  181.8420  178.7900  142.3210 C   0  0  0  0  0  3  0  0  0  0  0  0
  182.9090  178.6600  141.4940 C   0  0  0  0  0  3  0  0  0  0  0  0
  184.1260  178.4050  144.1100 C   0  0  1  0  0  3  0  0  0  0  0  0
  184.2800  178.6560  141.9280 N   0  0  0  0  0  2  0  0  0  0  0  0
  182.9810  179.1690  144.6910 C   0  0  0  0  0  2  0  0  0  0  0  0
  184.5780  179.3630  143.0950 N   0  0  2  0  0  0  0  0  0  0  0  0
  185.5320  178.7850  144.0610 C   0  0  2  0  0  3  0  0  0  0  0  0
  181.7520  178.7730  143.8530 C   0  0  0  0  0  2  0  0  0  0  0  0
  1 10  1  0  0  0  0
  1 12  1  0  0  0  0
  2  6  2  0  0  0  0
  2  8  1  0  0  0  0
  3  8  1  0  0  0  0
  3 16  2  0  0  0  0
  4 26  1  1  0  0  0
  4 15  1  0  0  0  0
  5 10  2  0  0  0  0
  6  5  1  0  0  0  0
  7 13  2  0  0  0  0
  7 15  1  0  0  0  0
  8  1  2  0  0  0  0
  9  4  1  0  0  0  0
 11 12  2  0  0  0  0
 13  2  1  0  0  0  0
 14 17  1  6  0  0  0
 14  9  1  0  0  0  0
 14  7  1  0  0  0  0
 15  3  1  0  0  0  0
 16 11  1  0  0  0  0
 18 17  1  0  0  0  0
 19 20  1  0  0  0  0
 19 18  1  0  0  0  0
 22 21  1  1  0  0  0
 22 20  1  0  0  0  0
 22 23  1  0  0  0  0
 25 24  1  0  0  0  0
 25 23  1  0  0  0  0
 27 34  1  0  0  0  0
 28 30  1  0  0  0  0
 28 27  2  0  0  0  0
 29 31  1  1  0  0  0
 32 30  1  6  0  0  0
 32 33  1  0  0  0  0
 32 29  1  0  0  0  0
 33 26  1  6  0  0  0
 33 29  1  0  0  0  0
 34 31  1  0  0  0  0
M  END
>  <MODEL>
6

>  <REMARK>
 VINA RESULT:      -7.9      2.967      7.293
  Name = 
  9 active torsions:
  status: ('A' for Active; 'I' for Inactive)
    1  A    between atoms: C_3  and  C_13
    2  A    between atoms: C_3  and  C_17
    3  A    between atoms: C_5  and  C_26
    4  A    between atoms: C_13  and  N_33
    5  A    between atoms: C_14  and  O_20
    6  A    between atoms: C_17  and  C_29
    7  A    between atoms: O_20  and  C_34
    8  A    between atoms: C_26  and  C_28
    9  A    between atoms: N_33  and  C_34
                            x       y       z     vdW  Elec       q    Type
                         _______ _______ _______ _____ _____    ______ ____

>  <TORSDO>
F 9

$$$$
=
 OpenBabel10262423573D

 34 39  0  0  1  0  0  0  0  0999 V2000
  185.2440  178.6750  140.1750 C   0  0  0  0  0  0  0  0  0  0  0  0
  186.5020  178.1930  142.2170 C   0  0  0  0  0  0  0  0  0  0  0  0
  187.6020  178.2060  140.0420 C   0  0  0  0  0  0  0  0  0  0  0  0
  190.1370  177.6320  140.1560 C   0  0  2  0  0  3  0  0  0  0  0  0
  184.1250  178.6640  142.3250 C   0  0  0  0  0  3  0  0  0  0  0  0
  185.3320  178.3470  142.9660 C   0  0  0  0  0  3  0  0  0  0  0  0
  188.8830  177.7370  142.1080 C   0  0  0  0  0  0  0  0  0  0  0  0
  186.4480  178.3570  140.8170 C   0  0  0  0  0  0  0  0  0  0  0  0
  191.0390  177.3360  141.2890 N   0  0  0  0  0  2  0  0  0  0  0  0
  184.0800  178.8280  140.9330 C   0  0  0  0  0  3  0  0  0  0  0  0
  186.3620  178.6790  138.0870 C   0  0  0  0  0  3  0  0  0  0  0  0
  185.2240  178.8290  138.8240 N   0  0  0  0  0  0  0  0  0  0  0  0
  187.7910  177.8660  142.8740 C   0  0  0  0  0  3  0  0  0  0  0  0
  190.2570  177.4110  142.5370 C   0  0  1  0  0  3  0  0  0  0  0  0
  188.8230  177.8700  140.7120 N   0  0  0  0  0  0  0  0  0  0  0  0
  187.5410  178.3690  138.6930 N   0  0  0  0  0  0  0  0  0  0  0  0
  190.8320  178.5090  143.4180 C   0  0  0  0  0  2  0  0  0  0  0  0
  191.4520  177.9160  144.6680 C   0  0  0  0  0  2  0  0  0  0  0  0
  190.4070  177.1210  145.4200 C   0  0  0  0  0  2  0  0  0  0  0  0
  189.4810  178.0320  146.0700 N   0  0  0  0  0  2  0  0  0  0  0  0
  189.0740  176.3760  147.6840 O   0  0  0  0  0  1  0  0  0  0  0  0
  188.4740  177.2180  146.7430 C   0  0  1  0  0  3  0  0  0  0  0  0
  187.4610  178.0120  147.3260 O   0  0  0  0  0  0  0  0  0  0  0  0
  185.1630  178.4100  146.8370 C   0  0  0  0  0  1  0  0  0  0  0  0
  186.5840  178.4360  146.3160 C   0  0  0  0  0  2  0  0  0  0  0  0
  190.0950  176.4410  139.2110 C   0  0  0  0  0  2  0  0  0  0  0  0
  190.1280  173.7460  135.2460 C   0  0  0  0  0  3  0  0  0  0  0  0
  190.4940  173.3990  136.5050 C   0  0  0  0  0  3  0  0  0  0  0  0
  190.0030  176.2400  136.7710 C   0  0  1  0  0  3  0  0  0  0  0  0
  190.7770  174.3360  137.5590 N   0  0  0  0  0  2  0  0  0  0  0  0
  190.2620  176.3980  135.3090 C   0  0  0  0  0  2  0  0  0  0  0  0
  191.2540  175.5930  137.1800 N   0  0  2  0  0  0  0  0  0  0  0  0
  190.7620  176.7910  137.8870 C   0  0  2  0  0  3  0  0  0  0  0  0
  189.7390  175.1070  134.6540 C   0  0  0  0  0  2  0  0  0  0  0  0
  1  8  1  0  0  0  0
  1 10  2  0  0  0  0
  2 13  1  0  0  0  0
  2  6  1  0  0  0  0
  3 15  1  0  0  0  0
  3  8  1  0  0  0  0
  4 26  1  6  0  0  0
  4 15  1  0  0  0  0
  4  9  1  0  0  0  0
  5  6  2  0  0  0  0
  7 14  1  0  0  0  0
  7 13  2  0  0  0  0
  8  2  2  0  0  0  0
  9 14  1  0  0  0  0
 10  5  1  0  0  0  0
 11 16  1  0  0  0  0
 11 12  2  0  0  0  0
 12  1  1  0  0  0  0
 14 17  1  1  0  0  0
 15  7  1  0  0  0  0
 16  3  2  0  0  0  0
 17 18  1  0  0  0  0
 18 19  1  0  0  0  0
 19 20  1  0  0  0  0
 20 22  1  0  0  0  0
 22 23  1  0  0  0  0
 22 21  1  1  0  0  0
 25 24  1  0  0  0  0
 25 23  1  0  0  0  0
 27 28  2  0  0  0  0
 28 30  1  0  0  0  0
 29 31  1  6  0  0  0
 29 32  1  0  0  0  0
 29 33  1  0  0  0  0
 32 30  1  1  0  0  0
 32 33  1  0  0  0  0
 33 26  1  1  0  0  0
 34 27  1  0  0  0  0
 34 31  1  0  0  0  0
M  END
>  <MODEL>
7

>  <REMARK>
 VINA RESULT:      -7.8      2.069      2.625
  Name = 
  9 active torsions:
  status: ('A' for Active; 'I' for Inactive)
    1  A    between atoms: C_3  and  C_13
    2  A    between atoms: C_3  and  C_17
    3  A    between atoms: C_5  and  C_26
    4  A    between atoms: C_13  and  N_33
    5  A    between atoms: C_14  and  O_20
    6  A    between atoms: C_17  and  C_29
    7  A    between atoms: O_20  and  C_34
    8  A    between atoms: C_26  and  C_28
    9  A    between atoms: N_33  and  C_34
                            x       y       z     vdW  Elec       q    Type
                         _______ _______ _______ _____ _____    ______ ____

>  <TORSDO>
F 9

$$$$
=
 OpenBabel10262423573D

 34 39  0  0  1  0  0  0  0  0999 V2000
  186.7990  178.0510  146.7340 C   0  0  0  0  0  0  0  0  0  0  0  0
  188.2480  177.4090  144.8690 C   0  0  0  0  0  0  0  0  0  0  0  0
  186.0960  178.4850  144.4720 C   0  0  0  0  0  0  0  0  0  0  0  0
  185.5470  178.8090  141.9490 C   0  0  2  0  0  3  0  0  0  0  0  0
  188.9320  176.9780  147.1560 C   0  0  0  0  0  3  0  0  0  0  0  0
  189.1840  176.9080  145.7790 C   0  0  0  0  0  3  0  0  0  0  0  0
  187.5680  177.8550  142.5830 C   0  0  0  0  0  0  0  0  0  0  0  0
  187.0530  177.9790  145.3570 C   0  0  0  0  0  0  0  0  0  0  0  0
  186.3050  178.4960  140.7200 N   0  0  0  0  0  2  0  0  0  0  0  0
  187.7420  177.5480  147.6340 C   0  0  0  0  0  3  0  0  0  0  0  0
  184.7210  179.0970  146.2930 C   0  0  0  0  0  3  0  0  0  0  0  0
  185.6400  178.6070  147.1740 N   0  0  0  0  0  0  0  0  0  0  0  0
  188.4970  177.3530  143.4090 C   0  0  0  0  0  3  0  0  0  0  0  0
  187.5960  177.9010  141.1080 C   0  0  1  0  0  3  0  0  0  0  0  0
  186.3650  178.3930  143.0680 N   0  0  0  0  0  0  0  0  0  0  0  0
  184.9490  179.0350  144.9520 N   0  0  0  0  0  0  0  0  0  0  0  0
  188.7240  178.7900  140.6080 C   0  0  0  0  0  2  0  0  0  0  0  0
  189.8360  177.9520  140.0100 C   0  0  0  0  0  2  0  0  0  0  0  0
  189.7450  177.9990  138.5000 C   0  0  0  0  0  2  0  0  0  0  0  0
  188.9760  179.1640  138.0970 N   0  0  0  0  0  2  0  0  0  0  0  0
  188.7900  177.6260  136.3320 O   0  0  0  0  0  1  0  0  0  0  0  0
  188.2840  178.8190  136.8600 C   0  0  1  0  0  3  0  0  0  0  0  0
  186.8840  178.7540  137.0420 O   0  0  0  0  0  0  0  0  0  0  0  0
  185.0110  177.2930  137.2310 C   0  0  0  0  0  1  0  0  0  0  0  0
  186.5190  177.4140  137.2480 C   0  0  0  0  0  2  0  0  0  0  0  0
  184.2350  178.0390  141.9510 C   0  0  0  0  0  2  0  0  0  0  0  0
  180.3120  180.2140  140.2600 C   0  0  0  0  0  3  0  0  0  0  0  0
  180.4350  179.4330  141.3630 C   0  0  0  0  0  3  0  0  0  0  0  0
  183.0470  179.1810  140.1390 C   0  0  1  0  0  3  0  0  0  0  0  0
  181.5430  178.5520  141.6180 N   0  0  0  0  0  2  0  0  0  0  0  0
  182.4380  179.5320  138.8210 C   0  0  0  0  0  2  0  0  0  0  0  0
  182.2110  178.0340  140.5060 N   0  0  2  0  0  0  0  0  0  0  0  0
  183.6820  177.9310  140.5350 C   0  0  2  0  0  3  0  0  0  0  0  0
  181.3100  180.5300  139.1390 C   0  0  0  0  0  2  0  0  0  0  0  0
  1 12  1  0  0  0  0
  1 10  2  0  0  0  0
  2  8  2  0  0  0  0
  2  6  1  0  0  0  0
  3 16  2  0  0  0  0
  3  8  1  0  0  0  0
  4 26  1  6  0  0  0
  4 15  1  0  0  0  0
  5 10  1  0  0  0  0
  6  5  2  0  0  0  0
  7 15  1  0  0  0  0
  7 13  2  0  0  0  0
  8  1  1  0  0  0  0
  9 14  1  0  0  0  0
  9  4  1  0  0  0  0
 11 12  2  0  0  0  0
 13  2  1  0  0  0  0
 14 17  1  1  0  0  0
 14  7  1  0  0  0  0
 15  3  1  0  0  0  0
 16 11  1  0  0  0  0
 18 17  1  0  0  0  0
 19 18  1  0  0  0  0
 20 19  1  0  0  0  0
 22 21  1  1  0  0  0
 22 23  1  0  0  0  0
 22 20  1  0  0  0  0
 23 25  1  0  0  0  0
 24 25  1  0  0  0  0
 27 28  2  0  0  0  0
 28 30  1  0  0  0  0
 29 31  1  6  0  0  0
 29 32  1  0  0  0  0
 29 33  1  0  0  0  0
 31 34  1  0  0  0  0
 32 33  1  0  0  0  0
 32 30  1  1  0  0  0
 33 26  1  1  0  0  0
 34 27  1  0  0  0  0
M  END
>  <MODEL>
8

>  <REMARK>
 VINA RESULT:      -7.8      3.498      6.688
  Name = 
  9 active torsions:
  status: ('A' for Active; 'I' for Inactive)
    1  A    between atoms: C_3  and  C_13
    2  A    between atoms: C_3  and  C_17
    3  A    between atoms: C_5  and  C_26
    4  A    between atoms: C_13  and  N_33
    5  A    between atoms: C_14  and  O_20
    6  A    between atoms: C_17  and  C_29
    7  A    between atoms: O_20  and  C_34
    8  A    between atoms: C_26  and  C_28
    9  A    between atoms: N_33  and  C_34
                            x       y       z     vdW  Elec       q    Type
                         _______ _______ _______ _____ _____    ______ ____

>  <TORSDO>
F 9

$$$$
=
 OpenBabel10262423573D

 34 39  0  0  1  0  0  0  0  0999 V2000
  190.0730  176.8090  145.7970 C   0  0  0  0  0  0  0  0  0  0  0  0
  187.8850  177.8980  145.9180 C   0  0  0  0  0  0  0  0  0  0  0  0
  188.8550  177.2700  143.7720 C   0  0  0  0  0  0  0  0  0  0  0  0
  187.3690  177.9060  141.7330 C   0  0  2  0  0  3  0  0  0  0  0  0
  189.1320  177.4290  147.9440 C   0  0  0  0  0  3  0  0  0  0  0  0
  187.9930  177.9460  147.3110 C   0  0  0  0  0  3  0  0  0  0  0  0
  186.6320  178.3530  143.8900 C   0  0  0  0  0  0  0  0  0  0  0  0
  188.9340  177.3280  145.1660 C   0  0  0  0  0  0  0  0  0  0  0  0
  186.0390  178.5420  141.6330 N   0  0  0  0  0  2  0  0  0  0  0  0
  190.1700  176.8610  147.1910 C   0  0  0  0  0  3  0  0  0  0  0  0
  190.9680  176.2160  143.6870 C   0  0  0  0  0  3  0  0  0  0  0  0
  191.0660  176.2650  145.0460 N   0  0  0  0  0  0  0  0  0  0  0  0
  186.6860  178.4310  145.2270 C   0  0  0  0  0  3  0  0  0  0  0  0
  185.5530  178.8210  142.9970 C   0  0  1  0  0  3  0  0  0  0  0  0
  187.6900  177.8140  143.1410 N   0  0  0  0  0  0  0  0  0  0  0  0
  189.8700  176.7160  143.0560 N   0  0  0  0  0  0  0  0  0  0  0  0
  184.2680  178.0430  143.2360 C   0  0  0  0  0  2  0  0  0  0  0  0
  183.3110  178.8490  144.0920 C   0  0  0  0  0  2  0  0  0  0  0  0
  181.9620  178.9170  143.4110 C   0  0  0  0  0  2  0  0  0  0  0  0
  182.1100  178.5760  142.0070 N   0  0  0  0  0  2  0  0  0  0  0  0
  180.4390  180.2250  142.0330 O   0  0  0  0  0  1  0  0  0  0  0  0
  180.9820  179.1670  141.2960 C   0  0  1  0  0  3  0  0  0  0  0  0
  181.3370  179.5720  139.9910 O   0  0  0  0  0  0  0  0  0  0  0  0
  183.4040  179.9060  138.8500 C   0  0  0  0  0  1  0  0  0  0  0  0
  182.5410  178.9420  139.6360 C   0  0  0  0  0  2  0  0  0  0  0  0
  188.4020  178.7660  141.0190 C   0  0  0  0  0  2  0  0  0  0  0  0
  190.6400  175.7060  138.0850 C   0  0  0  0  0  3  0  0  0  0  0  0
  191.1840  176.5610  138.9870 C   0  0  0  0  0  3  0  0  0  0  0  0
  188.3820  177.2880  139.0660 C   0  0  1  0  0  3  0  0  0  0  0  0
  190.4880  177.6710  139.5800 N   0  0  0  0  0  2  0  0  0  0  0  0
  188.2230  176.7360  137.6870 C   0  0  0  0  0  2  0  0  0  0  0  0
  189.4620  178.2510  138.8290 N   0  0  2  0  0  0  0  0  0  0  0  0
  188.2210  178.6670  139.5090 C   0  0  2  0  0  3  0  0  0  0  0  0
  189.1910  175.5410  137.6060 C   0  0  0  0  0  2  0  0  0  0  0  0
  1 10  2  0  0  0  0
  2  6  1  0  0  0  0
  3  8  1  0  0  0  0
  4 26  1  6  0  0  0
  4 15  1  0  0  0  0
  6  5  2  0  0  0  0
  7 13  2  0  0  0  0
  8  1  1  0  0  0  0
  8  2  2  0  0  0  0
  9  4  1  0  0  0  0
  9 14  1  0  0  0  0
 10  5  1  0  0  0  0
 11 12  2  0  0  0  0
 12  1  1  0  0  0  0
 13  2  1  0  0  0  0
 14 17  1  1  0  0  0
 14  7  1  0  0  0  0
 15  3  1  0  0  0  0
 15  7  1  0  0  0  0
 16 11  1  0  0  0  0
 16  3  2  0  0  0  0
 17 18  1  0  0  0  0
 19 18  1  0  0  0  0
 20 19  1  0  0  0  0
 22 20  1  0  0  0  0
 22 21  1  1  0  0  0
 23 22  1  0  0  0  0
 24 25  1  0  0  0  0
 25 23  1  0  0  0  0
 27 28  2  0  0  0  0
 28 30  1  0  0  0  0
 29 31  1  6  0  0  0
 29 33  1  0  0  0  0
 32 29  1  0  0  0  0
 32 33  1  0  0  0  0
 32 30  1  1  0  0  0
 33 26  1  1  0  0  0
 34 31  1  0  0  0  0
 34 27  1  0  0  0  0
M  END
>  <MODEL>
9

>  <REMARK>
 VINA RESULT:      -7.7      3.386      6.688
  Name = 
  9 active torsions:
  status: ('A' for Active; 'I' for Inactive)
    1  A    between atoms: C_3  and  C_13
    2  A    between atoms: C_3  and  C_17
    3  A    between atoms: C_5  and  C_26
    4  A    between atoms: C_13  and  N_33
    5  A    between atoms: C_14  and  O_20
    6  A    between atoms: C_17  and  C_29
    7  A    between atoms: O_20  and  C_34
    8  A    between atoms: C_26  and  C_28
    9  A    between atoms: N_33  and  C_34
                            x       y       z     vdW  Elec       q    Type
                         _______ _______ _______ _____ _____    ______ ____

>  <TORSDO>
F 9

$$$$
