=
 OpenBabel10272401153D

 27 31  0  0  1  0  0  0  0  0999 V2000
  186.2540  178.0660  144.5200 C   0  0  2  0  0  3  0  0  0  0  0  0
  188.3610  176.9440  143.7570 C   0  0  0  0  0  0  0  0  0  0  0  0
  186.8700  177.9570  142.1380 O   0  0  0  0  0  0  0  0  0  0  0  0
  189.5890  176.3920  143.8190 N   0  0  0  0  0  2  0  0  0  0  0  0
  183.5710  178.9100  143.6930 C   0  0  1  0  0  3  0  0  0  0  0  0
  187.3650  177.0500  144.8790 C   0  0  1  0  0  3  0  0  0  0  0  0
  189.1880  177.1120  141.7180 C   0  0  0  0  0  0  0  0  0  0  0  0
  185.0620  177.9270  145.4650 C   0  0  0  0  0  2  0  0  0  0  0  0
  188.0820  177.3680  142.4930 C   0  0  0  0  0  0  0  0  0  0  0  0
  184.7470  178.9730  142.7070 C   0  0  0  0  0  2  0  0  0  0  0  0
  190.1040  176.4990  142.5680 C   0  0  0  0  0  3  0  0  0  0  0  0
  184.0220  179.0010  145.1590 C   0  0  0  0  0  2  0  0  0  0  0  0
  185.7750  177.9030  143.0550 C   0  0  2  0  0  3  0  0  0  0  0  0
  190.2880  176.6470  139.5280 C   0  0  0  0  0  3  0  0  0  0  0  0
  189.7430  177.9360  137.5520 C   0  0  0  0  0  3  0  0  0  0  0  0
  188.8310  178.6890  138.2960 C   0  0  0  0  0  3  0  0  0  0  0  0
  188.6480  178.4220  139.6560 C   0  0  0  0  0  3  0  0  0  0  0  0
  189.3750  177.3990  140.2820 C   0  0  0  0  0  0  0  0  0  0  0  0
  190.4710  176.9140  138.1680 C   0  0  0  0  0  3  0  0  0  0  0  0
  189.2530  178.1050  148.5990 C   0  0  0  0  0  3  0  0  0  0  0  0
  188.0380  177.4140  146.1710 C   0  0  0  0  0  0  0  0  0  0  0  0
  187.3050  178.0770  147.1600 C   0  0  0  0  0  3  0  0  0  0  0  0
  187.9100  178.4220  148.3730 C   0  0  0  0  0  3  0  0  0  0  0  0
  189.9910  177.4410  147.6140 C   0  0  0  0  0  3  0  0  0  0  0  0
  189.3860  177.0960  146.4020 C   0  0  0  0  0  3  0  0  0  0  0  0
  181.4050  179.0950  142.9530 C   0  0  0  0  0  1  0  0  0  0  0  0
  182.5350  179.8160  143.3760 O   0  0  0  0  0  0  0  0  0  0  0  0
  1  6  1  0  0  0  0
  1  8  1  1  0  0  0
  2  4  1  0  0  0  0
  2  6  1  0  0  0  0
  3  9  1  0  0  0  0
  3 13  1  0  0  0  0
  5 27  1  6  0  0  0
  5 12  1  0  0  0  0
  6 21  1  1  0  0  0
  7  9  1  0  0  0  0
  7 11  2  0  0  0  0
  9  2  2  0  0  0  0
 10  5  1  0  0  0  0
 11  4  1  0  0  0  0
 12  8  1  0  0  0  0
 13 10  1  6  0  0  0
 13  1  1  0  0  0  0
 14 18  1  0  0  0  0
 15 19  1  0  0  0  0
 15 16  2  0  0  0  0
 16 17  1  0  0  0  0
 17 18  2  0  0  0  0
 18  7  1  0  0  0  0
 19 14  2  0  0  0  0
 21 25  2  0  0  0  0
 21 22  1  0  0  0  0
 22 23  2  0  0  0  0
 23 20  1  0  0  0  0
 24 20  2  0  0  0  0
 25 24  1  0  0  0  0
 26 27  1  0  0  0  0
M  END
>  <MODEL>
1

>  <REMARK>
 VINA RESULT:     -10.4      0.000      0.000
  Name = 
  3 active torsions:
  status: ('A' for Active; 'I' for Inactive)
    1  A    between atoms: C_9  and  C_15
    2  A    between atoms: C_13  and  O_22
    3  A    between atoms: C_14  and  C_17
                            x       y       z     vdW  Elec       q    Type
                         _______ _______ _______ _____ _____    ______ ____

>  <TORSDO>
F 3

$$$$
=
 OpenBabel10272401153D

 27 31  0  0  1  0  0  0  0  0999 V2000
  189.9480  177.3750  142.1250 C   0  0  2  0  0  3  0  0  0  0  0  0
  188.6710  177.9050  144.2160 C   0  0  0  0  0  0  0  0  0  0  0  0
  187.5970  178.1030  142.0530 O   0  0  0  0  0  0  0  0  0  0  0  0
  188.3590  177.9460  145.5260 N   0  0  0  0  0  2  0  0  0  0  0  0
  190.0880  177.8450  139.2350 C   0  0  1  0  0  3  0  0  0  0  0  0
  190.0460  177.7540  143.6230 C   0  0  1  0  0  3  0  0  0  0  0  0
  186.4860  178.1990  144.2930 C   0  0  0  0  0  0  0  0  0  0  0  0
  191.2930  177.5660  141.4260 C   0  0  0  0  0  2  0  0  0  0  0  0
  187.5610  178.0780  143.4460 C   0  0  0  0  0  0  0  0  0  0  0  0
  188.7290  177.7390  139.9440 C   0  0  0  0  0  2  0  0  0  0  0  0
  187.0140  178.1200  145.5780 C   0  0  0  0  0  3  0  0  0  0  0  0
  191.2040  177.0930  139.9780 C   0  0  0  0  0  2  0  0  0  0  0  0
  188.8600  178.1980  141.3910 C   0  0  2  0  0  3  0  0  0  0  0  0
  184.6570  178.2810  142.5990 C   0  0  0  0  0  3  0  0  0  0  0  0
  182.3740  178.7650  143.2410 C   0  0  0  0  0  3  0  0  0  0  0  0
  182.7730  178.8790  144.5750 C   0  0  0  0  0  3  0  0  0  0  0  0
  184.1150  178.6950  144.9210 C   0  0  0  0  0  3  0  0  0  0  0  0
  185.0670  178.3940  143.9360 C   0  0  0  0  0  0  0  0  0  0  0  0
  183.3150  178.4660  142.2530 C   0  0  0  0  0  3  0  0  0  0  0  0
  192.3710  174.9020  145.8520 C   0  0  0  0  0  3  0  0  0  0  0  0
  190.8600  176.7500  144.3870 C   0  0  0  0  0  0  0  0  0  0  0  0
  191.1780  177.0050  145.7250 C   0  0  0  0  0  3  0  0  0  0  0  0
  191.9310  176.0830  146.4570 C   0  0  0  0  0  3  0  0  0  0  0  0
  192.0550  174.6410  144.5150 C   0  0  0  0  0  3  0  0  0  0  0  0
  191.3020  175.5620  143.7830 C   0  0  0  0  0  3  0  0  0  0  0  0
  189.2220  178.4690  137.2020 C   0  0  0  0  0  1  0  0  0  0  0  0
  190.0220  177.5200  137.8630 O   0  0  0  0  0  0  0  0  0  0  0  0
  1  8  1  6  0  0  0
  1  6  1  0  0  0  0
  2  4  1  0  0  0  0
  3  9  1  0  0  0  0
  4 11  1  0  0  0  0
  5 27  1  6  0  0  0
  5 10  1  0  0  0  0
  5 12  1  0  0  0  0
  6  2  1  0  0  0  0
  6 21  1  1  0  0  0
  7 11  2  0  0  0  0
  9  2  2  0  0  0  0
  9  7  1  0  0  0  0
 12  8  1  0  0  0  0
 13 10  1  6  0  0  0
 13  3  1  0  0  0  0
 13  1  1  0  0  0  0
 14 18  1  0  0  0  0
 15 16  2  0  0  0  0
 16 17  1  0  0  0  0
 18  7  1  0  0  0  0
 18 17  2  0  0  0  0
 19 14  2  0  0  0  0
 19 15  1  0  0  0  0
 20 23  1  0  0  0  0
 21 22  1  0  0  0  0
 22 23  2  0  0  0  0
 24 20  2  0  0  0  0
 25 21  2  0  0  0  0
 25 24  1  0  0  0  0
 26 27  1  0  0  0  0
M  END
>  <MODEL>
2

>  <REMARK>
 VINA RESULT:     -10.0      1.961      6.013
  Name = 
  3 active torsions:
  status: ('A' for Active; 'I' for Inactive)
    1  A    between atoms: C_9  and  C_15
    2  A    between atoms: C_13  and  O_22
    3  A    between atoms: C_14  and  C_17
                            x       y       z     vdW  Elec       q    Type
                         _______ _______ _______ _____ _____    ______ ____

>  <TORSDO>
F 3

$$$$
=
 OpenBabel10272401153D

 27 31  0  0  1  0  0  0  0  0999 V2000
  189.2890  177.4430  143.2530 C   0  0  2  0  0  3  0  0  0  0  0  0
  188.8910  177.9410  140.8290 C   0  0  0  0  0  0  0  0  0  0  0  0
  190.8150  176.6300  141.4990 O   0  0  0  0  0  0  0  0  0  0  0  0
  188.2400  178.3140  139.7090 N   0  0  0  0  0  0  0  0  0  0  0  0
  191.3270  176.7210  145.2330 C   0  0  1  0  0  3  0  0  0  0  0  0
  188.5730  178.3650  142.2370 C   0  0  1  0  0  3  0  0  0  0  0  0
  189.9660  176.9640  139.1680 C   0  0  0  0  0  0  0  0  0  0  0  0
  189.2770  178.0570  144.6510 C   0  0  0  0  0  2  0  0  0  0  0  0
  189.9520  177.1420  140.5310 C   0  0  1  0  0  3  0  0  0  0  0  0
  191.3960  176.1630  143.8020 C   0  0  0  0  0  2  0  0  0  0  0  0
  188.8950  177.7100  138.6860 C   0  0  0  0  0  3  0  0  0  0  0  0
  189.8970  177.0900  145.6560 C   0  0  0  0  0  2  0  0  0  0  0  0
  190.7500  177.1430  142.8310 C   0  0  2  0  0  3  0  0  0  0  0  0
  190.4770  175.0350  137.6720 C   0  0  0  0  0  3  0  0  0  0  0  0
  192.7190  174.6520  136.8420 C   0  0  0  0  0  3  0  0  0  0  0  0
  193.1670  175.7820  137.5300 C   0  0  0  0  0  3  0  0  0  0  0  0
  192.2700  176.5390  138.2910 C   0  0  0  0  0  3  0  0  0  0  0  0
  190.9180  176.1710  138.3670 C   0  0  0  0  0  0  0  0  0  0  0  0
  191.3740  174.2780  136.9120 C   0  0  0  0  0  3  0  0  0  0  0  0
  184.3330  178.4340  142.9670 C   0  0  0  0  0  3  0  0  0  0  0  0
  187.0910  178.3920  142.4760 C   0  0  0  0  0  0  0  0  0  0  0  0
  186.5940  178.0180  143.7290 C   0  0  0  0  0  3  0  0  0  0  0  0
  185.2180  178.0390  143.9750 C   0  0  0  0  0  3  0  0  0  0  0  0
  184.8240  178.8100  141.7130 C   0  0  0  0  0  3  0  0  0  0  0  0
  186.1990  178.7890  141.4670 C   0  0  0  0  0  3  0  0  0  0  0  0
  191.6030  176.2900  147.4710 C   0  0  0  0  0  1  0  0  0  0  0  0
  191.9880  175.9040  146.1760 O   0  0  0  0  0  0  0  0  0  0  0  0
  1  8  1  1  0  0  0
  2  6  1  0  0  0  0
  3 13  1  0  0  0  0
  4  2  2  0  0  0  0
  5 12  1  0  0  0  0
  5 27  1  1  0  0  0
  6 21  1  1  0  0  0
  6  1  1  0  0  0  0
  8 12  1  0  0  0  0
  9  7  1  1  0  0  0
  9  2  1  0  0  0  0
  9  3  1  0  0  0  0
 10  5  1  0  0  0  0
 11  7  2  0  0  0  0
 11  4  1  0  0  0  0
 13  1  1  0  0  0  0
 13 10  1  1  0  0  0
 14 18  1  0  0  0  0
 15 19  1  0  0  0  0
 15 16  2  0  0  0  0
 16 17  1  0  0  0  0
 17 18  2  0  0  0  0
 18  7  1  0  0  0  0
 19 14  2  0  0  0  0
 20 23  1  0  0  0  0
 21 22  1  0  0  0  0
 22 23  2  0  0  0  0
 24 20  2  0  0  0  0
 25 24  1  0  0  0  0
 25 21  2  0  0  0  0
 27 26  1  0  0  0  0
M  END
>  <MODEL>
3

>  <REMARK>
 VINA RESULT:      -9.7      2.702      5.618
  Name = 
  3 active torsions:
  status: ('A' for Active; 'I' for Inactive)
    1  A    between atoms: C_9  and  C_15
    2  A    between atoms: C_13  and  O_22
    3  A    between atoms: C_14  and  C_17
                            x       y       z     vdW  Elec       q    Type
                         _______ _______ _______ _____ _____    ______ ____

>  <TORSDO>
F 3

$$$$
=
 OpenBabel10272401153D

 27 31  0  0  1  0  0  0  0  0999 V2000
  184.2470  178.5750  142.0740 C   0  0  2  0  0  3  0  0  0  0  0  0
  185.7020  178.6140  140.0330 C   0  0  0  0  0  0  0  0  0  0  0  0
  186.7020  178.4620  142.2350 O   0  0  0  0  0  0  0  0  0  0  0  0
  186.0560  178.5290  138.7360 N   0  0  0  0  0  0  0  0  0  0  0  0
  184.1730  179.1010  144.9570 C   0  0  1  0  0  3  0  0  0  0  0  0
  184.3380  178.9460  140.5740 C   0  0  1  0  0  3  0  0  0  0  0  0
  187.8580  178.1460  140.0380 C   0  0  0  0  0  0  0  0  0  0  0  0
  183.0240  179.2210  142.7220 C   0  0  0  0  0  2  0  0  0  0  0  0
  186.7770  178.4080  140.8440 C   0  0  1  0  0  3  0  0  0  0  0  0
  185.4390  178.5310  144.3000 C   0  0  0  0  0  2  0  0  0  0  0  0
  187.3810  178.2350  138.7340 C   0  0  0  0  0  3  0  0  0  0  0  0
  182.8950  178.7640  144.1720 C   0  0  0  0  0  2  0  0  0  0  0  0
  185.5230  178.9890  142.8490 C   0  0  2  0  0  3  0  0  0  0  0  0
  190.2210  177.5730  139.4810 C   0  0  0  0  0  3  0  0  0  0  0  0
  191.8850  177.2860  141.2170 C   0  0  0  0  0  3  0  0  0  0  0  0
  190.9190  177.5630  142.1880 C   0  0  0  0  0  3  0  0  0  0  0  0
  189.6040  177.8440  141.8050 C   0  0  0  0  0  3  0  0  0  0  0  0
  189.2450  177.8520  140.4490 C   0  0  0  0  0  0  0  0  0  0  0  0
  191.5360  177.2920  139.8630 C   0  0  0  0  0  3  0  0  0  0  0  0
  181.2490  176.9690  138.3230 C   0  0  0  0  0  3  0  0  0  0  0  0
  183.2580  178.2700  139.7790 C   0  0  0  0  0  0  0  0  0  0  0  0
  183.0150  176.9070  139.9800 C   0  0  0  0  0  3  0  0  0  0  0  0
  182.0120  176.2570  139.2540 C   0  0  0  0  0  3  0  0  0  0  0  0
  181.4870  178.3320  138.1190 C   0  0  0  0  0  3  0  0  0  0  0  0
  182.4900  178.9820  138.8440 C   0  0  0  0  0  3  0  0  0  0  0  0
  185.3420  178.4130  146.8090 C   0  0  0  0  0  1  0  0  0  0  0  0
  184.0760  178.7900  146.3310 O   0  0  0  0  0  0  0  0  0  0  0  0
  1  8  1  1  0  0  0
  1 13  1  0  0  0  0
  2  6  1  0  0  0  0
  3 13  1  0  0  0  0
  4  2  2  0  0  0  0
  5 27  1  1  0  0  0
  6 21  1  6  0  0  0
  6  1  1  0  0  0  0
  7 18  1  0  0  0  0
  7  9  1  0  0  0  0
  8 12  1  0  0  0  0
  9  2  1  1  0  0  0
  9  3  1  0  0  0  0
 10  5  1  0  0  0  0
 11  4  1  0  0  0  0
 11  7  2  0  0  0  0
 12  5  1  0  0  0  0
 13 10  1  1  0  0  0
 14 19  2  0  0  0  0
 14 18  1  0  0  0  0
 15 16  2  0  0  0  0
 17 16  1  0  0  0  0
 18 17  2  0  0  0  0
 19 15  1  0  0  0  0
 20 23  1  0  0  0  0
 21 22  1  0  0  0  0
 23 22  2  0  0  0  0
 24 20  2  0  0  0  0
 24 25  1  0  0  0  0
 25 21  2  0  0  0  0
 27 26  1  0  0  0  0
M  END
>  <MODEL>
4

>  <REMARK>
 VINA RESULT:      -9.5      2.793      5.966
  Name = 
  3 active torsions:
  status: ('A' for Active; 'I' for Inactive)
    1  A    between atoms: C_9  and  C_15
    2  A    between atoms: C_13  and  O_22
    3  A    between atoms: C_14  and  C_17
                            x       y       z     vdW  Elec       q    Type
                         _______ _______ _______ _____ _____    ______ ____

>  <TORSDO>
F 3

$$$$
=
 OpenBabel10272401153D

 27 31  0  0  1  0  0  0  0  0999 V2000
  188.7390  177.6550  139.4870 C   0  0  2  0  0  3  0  0  0  0  0  0
  190.4490  177.5370  141.3160 C   0  0  0  0  0  0  0  0  0  0  0  0
  188.1270  177.9780  141.8510 O   0  0  0  0  0  0  0  0  0  0  0  0
  191.6130  177.2630  141.9370 N   0  0  0  0  0  0  0  0  0  0  0  0
  186.1020  178.7080  138.7560 C   0  0  1  0  0  3  0  0  0  0  0  0
  190.2440  177.7400  139.8390 C   0  0  1  0  0  3  0  0  0  0  0  0
  189.9620  177.4380  143.4650 C   0  0  0  0  0  0  0  0  0  0  0  0
  188.4740  178.2050  138.0870 C   0  0  0  0  0  2  0  0  0  0  0  0
  189.4370  177.6700  142.2170 C   0  0  1  0  0  3  0  0  0  0  0  0
  186.3830  178.2360  140.1910 C   0  0  0  0  0  2  0  0  0  0  0  0
  191.3170  177.1950  143.2590 C   0  0  0  0  0  3  0  0  0  0  0  0
  187.0040  178.0210  137.7190 C   0  0  0  0  0  2  0  0  0  0  0  0
  187.8620  178.4130  140.5160 C   0  0  2  0  0  3  0  0  0  0  0  0
  189.9790  177.2880  145.9550 C   0  0  0  0  0  3  0  0  0  0  0  0
  187.9350  177.4920  147.2370 C   0  0  0  0  0  3  0  0  0  0  0  0
  187.2110  177.6630  146.0550 C   0  0  0  0  0  3  0  0  0  0  0  0
  187.8700  177.6460  144.8220 C   0  0  0  0  0  3  0  0  0  0  0  0
  189.2590  177.4590  144.7630 C   0  0  0  0  0  0  0  0  0  0  0  0
  189.3190  177.3060  147.1880 C   0  0  0  0  0  3  0  0  0  0  0  0
  192.5040  174.9000  137.5300 C   0  0  0  0  0  3  0  0  0  0  0  0
  191.0460  176.7560  139.0380 C   0  0  0  0  0  0  0  0  0  0  0  0
  190.4030  175.6530  138.4680 C   0  0  0  0  0  3  0  0  0  0  0  0
  191.1290  174.7260  137.7150 C   0  0  0  0  0  3  0  0  0  0  0  0
  193.1530  176.0010  138.0960 C   0  0  0  0  0  3  0  0  0  0  0  0
  192.4270  176.9280  138.8490 C   0  0  0  0  0  3  0  0  0  0  0  0
  184.0180  179.5380  139.2460 C   0  0  0  0  0  1  0  0  0  0  0  0
  184.7320  178.6560  138.4170 O   0  0  0  0  0  0  0  0  0  0  0  0
  1  8  1  6  0  0  0
  1  6  1  0  0  0  0
  1 13  1  0  0  0  0
  2  4  2  0  0  0  0
  3  9  1  0  0  0  0
  4 11  1  0  0  0  0
  5 27  1  6  0  0  0
  5 10  1  0  0  0  0
  6 21  1  6  0  0  0
  6  2  1  0  0  0  0
  7 18  1  0  0  0  0
  9  2  1  6  0  0  0
  9  7  1  0  0  0  0
 11  7  2  0  0  0  0
 12  8  1  0  0  0  0
 12  5  1  0  0  0  0
 13 10  1  6  0  0  0
 13  3  1  0  0  0  0
 14 19  1  0  0  0  0
 16 15  1  0  0  0  0
 17 16  2  0  0  0  0
 18 17  1  0  0  0  0
 18 14  2  0  0  0  0
 19 15  2  0  0  0  0
 20 23  2  0  0  0  0
 20 24  1  0  0  0  0
 22 21  2  0  0  0  0
 23 22  1  0  0  0  0
 24 25  2  0  0  0  0
 25 21  1  0  0  0  0
 27 26  1  0  0  0  0
M  END
>  <MODEL>
5

>  <REMARK>
 VINA RESULT:      -9.4      2.278      6.843
  Name = 
  3 active torsions:
  status: ('A' for Active; 'I' for Inactive)
    1  A    between atoms: C_9  and  C_15
    2  A    between atoms: C_13  and  O_22
    3  A    between atoms: C_14  and  C_17
                            x       y       z     vdW  Elec       q    Type
                         _______ _______ _______ _____ _____    ______ ____

>  <TORSDO>
F 3

$$$$
=
 OpenBabel10272401153D

 27 31  0  0  1  0  0  0  0  0999 V2000
  187.1200  178.1240  141.0400 C   0  0  2  0  0  3  0  0  0  0  0  0
  189.5830  177.9920  141.4820 C   0  0  0  0  0  0  0  0  0  0  0  0
  188.0090  177.8050  143.3150 O   0  0  0  0  0  0  0  0  0  0  0  0
  190.9010  177.8490  141.2410 N   0  0  0  0  0  0  0  0  0  0  0  0
  184.5130  178.7200  142.2410 C   0  0  1  0  0  3  0  0  0  0  0  0
  188.5350  178.4520  140.5060 C   0  0  1  0  0  3  0  0  0  0  0  0
  190.4670  177.3420  143.3960 C   0  0  0  0  0  0  0  0  0  0  0  0
  186.0520  178.8870  140.2580 C   0  0  0  0  0  2  0  0  0  0  0  0
  189.2950  177.7140  142.7840 C   0  0  1  0  0  3  0  0  0  0  0  0
  185.6110  178.0280  143.0630 C   0  0  0  0  0  2  0  0  0  0  0  0
  191.4480  177.4430  142.4150 C   0  0  0  0  0  3  0  0  0  0  0  0
  184.6600  178.4750  140.7310 C   0  0  0  0  0  2  0  0  0  0  0  0
  186.9840  178.4450  142.5500 C   0  0  2  0  0  3  0  0  0  0  0  0
  191.7870  176.1740  145.1620 C   0  0  0  0  0  3  0  0  0  0  0  0
  191.0580  176.1630  147.4710 C   0  0  0  0  0  3  0  0  0  0  0  0
  189.9410  176.9250  147.1210 C   0  0  0  0  0  3  0  0  0  0  0  0
  189.7450  177.3110  145.7920 C   0  0  0  0  0  3  0  0  0  0  0  0
  190.6670  176.9400  144.8020 C   0  0  0  0  0  0  0  0  0  0  0  0
  191.9820  175.7880  146.4910 C   0  0  0  0  0  3  0  0  0  0  0  0
  189.1820  176.7770  136.5960 C   0  0  0  0  0  3  0  0  0  0  0  0
  188.7570  177.8530  139.1470 C   0  0  0  0  0  0  0  0  0  0  0  0
  188.9820  178.6990  138.0560 C   0  0  0  0  0  3  0  0  0  0  0  0
  189.1950  178.1630  136.7830 C   0  0  0  0  0  3  0  0  0  0  0  0
  188.9590  175.9270  137.6830 C   0  0  0  0  0  3  0  0  0  0  0  0
  188.7460  176.4620  138.9560 C   0  0  0  0  0  3  0  0  0  0  0  0
  183.1420  178.7890  144.0820 C   0  0  0  0  0  1  0  0  0  0  0  0
  183.2120  178.4490  142.7200 O   0  0  0  0  0  0  0  0  0  0  0  0
  1  8  1  6  0  0  0
  1 13  1  0  0  0  0
  4  2  2  0  0  0  0
  4 11  1  0  0  0  0
  5 27  1  1  0  0  0
  5 10  1  0  0  0  0
  6 21  1  6  0  0  0
  6  1  1  0  0  0  0
  6  2  1  0  0  0  0
  7 18  1  0  0  0  0
  8 12  1  0  0  0  0
  9  2  1  6  0  0  0
  9  3  1  0  0  0  0
  9  7  1  0  0  0  0
 11  7  2  0  0  0  0
 12  5  1  0  0  0  0
 13 10  1  1  0  0  0
 13  3  1  0  0  0  0
 14 19  1  0  0  0  0
 16 15  1  0  0  0  0
 17 16  2  0  0  0  0
 18 14  2  0  0  0  0
 18 17  1  0  0  0  0
 19 15  2  0  0  0  0
 20 23  2  0  0  0  0
 20 24  1  0  0  0  0
 22 21  2  0  0  0  0
 23 22  1  0  0  0  0
 24 25  2  0  0  0  0
 25 21  1  0  0  0  0
 27 26  1  0  0  0  0
M  END
>  <MODEL>
6

>  <REMARK>
 VINA RESULT:      -9.4      1.709      6.265
  Name = 
  3 active torsions:
  status: ('A' for Active; 'I' for Inactive)
    1  A    between atoms: C_9  and  C_15
    2  A    between atoms: C_13  and  O_22
    3  A    between atoms: C_14  and  C_17
                            x       y       z     vdW  Elec       q    Type
                         _______ _______ _______ _____ _____    ______ ____

>  <TORSDO>
F 3

$$$$
=
 OpenBabel10272401153D

 27 31  0  0  1  0  0  0  0  0999 V2000
  189.2880  177.2170  138.4250 C   0  0  2  0  0  3  0  0  0  0  0  0
  190.7260  177.2820  140.4770 C   0  0  0  0  0  0  0  0  0  0  0  0
  188.3480  177.7110  140.6480 O   0  0  0  0  0  0  0  0  0  0  0  0
  191.7950  177.0840  141.2740 N   0  0  0  0  0  2  0  0  0  0  0  0
  186.7680  178.1490  137.2530 C   0  0  1  0  0  3  0  0  0  0  0  0
  190.7280  177.3630  138.9750 C   0  0  1  0  0  3  0  0  0  0  0  0
  189.9440  177.3420  142.5390 C   0  0  0  0  0  0  0  0  0  0  0  0
  189.2160  177.6490  136.9620 C   0  0  0  0  0  2  0  0  0  0  0  0
  189.5960  177.4630  141.2150 C   0  0  0  0  0  0  0  0  0  0  0  0
  186.8510  177.7980  138.7470 C   0  0  0  0  0  2  0  0  0  0  0  0
  191.3170  177.1140  142.5440 C   0  0  0  0  0  3  0  0  0  0  0  0
  187.8150  177.4040  136.4100 C   0  0  0  0  0  2  0  0  0  0  0  0
  188.2670  178.0340  139.2570 C   0  0  2  0  0  3  0  0  0  0  0  0
  189.6030  177.8090  144.9660 C   0  0  0  0  0  3  0  0  0  0  0  0
  187.4090  177.6520  145.9760 C   0  0  0  0  0  3  0  0  0  0  0  0
  186.8650  177.2930  144.7400 C   0  0  0  0  0  3  0  0  0  0  0  0
  187.6910  177.1910  143.6170 C   0  0  0  0  0  3  0  0  0  0  0  0
  189.0660  177.4490  143.7210 C   0  0  0  0  0  0  0  0  0  0  0  0
  188.7770  177.9110  146.0890 C   0  0  0  0  0  3  0  0  0  0  0  0
  193.3220  174.4000  137.2440 C   0  0  0  0  0  3  0  0  0  0  0  0
  191.6460  176.3380  138.3750 C   0  0  0  0  0  0  0  0  0  0  0  0
  191.1120  175.1300  137.9150 C   0  0  0  0  0  3  0  0  0  0  0  0
  191.9480  174.1620  137.3490 C   0  0  0  0  0  3  0  0  0  0  0  0
  193.8600  175.6060  137.7010 C   0  0  0  0  0  3  0  0  0  0  0  0
  193.0260  176.5740  138.2660 C   0  0  0  0  0  3  0  0  0  0  0  0
  184.5820  177.6670  137.7650 C   0  0  0  0  0  1  0  0  0  0  0  0
  185.4600  178.0400  136.7320 O   0  0  0  0  0  0  0  0  0  0  0  0
  1  8  1  6  0  0  0
  1  6  1  0  0  0  0
  1 13  1  0  0  0  0
  2  9  2  0  0  0  0
  2  4  1  0  0  0  0
  3  9  1  0  0  0  0
  4 11  1  0  0  0  0
  5 27  1  6  0  0  0
  5 10  1  0  0  0  0
  6 21  1  6  0  0  0
  6  2  1  0  0  0  0
  7 11  2  0  0  0  0
  7 18  1  0  0  0  0
  9  7  1  0  0  0  0
 12  8  1  0  0  0  0
 12  5  1  0  0  0  0
 13 10  1  6  0  0  0
 13  3  1  0  0  0  0
 14 19  1  0  0  0  0
 15 19  2  0  0  0  0
 16 15  1  0  0  0  0
 17 18  1  0  0  0  0
 17 16  2  0  0  0  0
 18 14  2  0  0  0  0
 20 23  2  0  0  0  0
 20 24  1  0  0  0  0
 22 21  2  0  0  0  0
 23 22  1  0  0  0  0
 24 25  2  0  0  0  0
 25 21  1  0  0  0  0
 27 26  1  0  0  0  0
M  END
>  <MODEL>
7

>  <REMARK>
 VINA RESULT:      -9.4      2.541      7.335
  Name = 
  3 active torsions:
  status: ('A' for Active; 'I' for Inactive)
    1  A    between atoms: C_9  and  C_15
    2  A    between atoms: C_13  and  O_22
    3  A    between atoms: C_14  and  C_17
                            x       y       z     vdW  Elec       q    Type
                         _______ _______ _______ _____ _____    ______ ____

>  <TORSDO>
F 3

$$$$
=
 OpenBabel10272401153D

 27 31  0  0  1  0  0  0  0  0999 V2000
  189.2990  177.3310  144.7290 C   0  0  2  0  0  3  0  0  0  0  0  0
  188.5310  178.2270  142.5180 C   0  0  0  0  0  0  0  0  0  0  0  0
  190.4930  176.8100  142.6380 O   0  0  0  0  0  0  0  0  0  0  0  0
  187.7210  178.7840  141.5960 N   0  0  0  0  0  0  0  0  0  0  0  0
  191.6050  176.2780  146.2010 C   0  0  1  0  0  3  0  0  0  0  0  0
  188.4590  178.4140  144.0090 C   0  0  1  0  0  3  0  0  0  0  0  0
  189.2890  177.5310  140.5660 C   0  0  0  0  0  0  0  0  0  0  0  0
  189.5340  177.7060  146.1910 C   0  0  0  0  0  2  0  0  0  0  0  0
  189.5030  177.4810  141.9230 C   0  0  1  0  0  3  0  0  0  0  0  0
  191.4230  175.9650  144.7080 C   0  0  0  0  0  2  0  0  0  0  0  0
  188.1800  178.3540  140.3940 C   0  0  0  0  0  3  0  0  0  0  0  0
  190.2750  176.5820  146.9090 C   0  0  0  0  0  2  0  0  0  0  0  0
  190.6620  177.0960  144.0290 C   0  0  2  0  0  3  0  0  0  0  0  0
  189.4170  176.2010  138.4600 C   0  0  0  0  0  3  0  0  0  0  0  0
  191.5490  175.6220  137.4700 C   0  0  0  0  0  3  0  0  0  0  0  0
  192.2100  176.2920  138.5020 C   0  0  0  0  0  3  0  0  0  0  0  0
  191.4740  176.9160  139.5140 C   0  0  0  0  0  3  0  0  0  0  0  0
  190.0720  176.8760  139.5000 C   0  0  0  0  0  0  0  0  0  0  0  0
  190.1520  175.5770  137.4480 C   0  0  0  0  0  3  0  0  0  0  0  0
  184.3700  178.3960  145.3440 C   0  0  0  0  0  3  0  0  0  0  0  0
  187.0380  178.4100  144.4900 C   0  0  0  0  0  0  0  0  0  0  0  0
  185.9990  178.4050  143.5530 C   0  0  0  0  0  3  0  0  0  0  0  0
  184.6670  178.3970  143.9780 C   0  0  0  0  0  3  0  0  0  0  0  0
  185.4030  178.4000  146.2860 C   0  0  0  0  0  3  0  0  0  0  0  0
  186.7350  178.4070  145.8610 C   0  0  0  0  0  3  0  0  0  0  0  0
  192.6940  175.7880  148.1620 C   0  0  0  0  0  1  0  0  0  0  0  0
  192.3830  175.3120  146.8770 O   0  0  0  0  0  0  0  0  0  0  0  0
  1  8  1  1  0  0  0
  2  6  1  0  0  0  0
  3 13  1  0  0  0  0
  4  2  2  0  0  0  0
  5 27  1  1  0  0  0
  5 12  1  0  0  0  0
  6 21  1  1  0  0  0
  6  1  1  0  0  0  0
  8 12  1  0  0  0  0
  9  7  1  1  0  0  0
  9  2  1  0  0  0  0
  9  3  1  0  0  0  0
 10  5  1  0  0  0  0
 11  7  2  0  0  0  0
 11  4  1  0  0  0  0
 13 10  1  1  0  0  0
 13  1  1  0  0  0  0
 14 18  1  0  0  0  0
 15 16  2  0  0  0  0
 16 17  1  0  0  0  0
 18 17  2  0  0  0  0
 18  7  1  0  0  0  0
 19 15  1  0  0  0  0
 19 14  2  0  0  0  0
 20 24  1  0  0  0  0
 21 25  1  0  0  0  0
 22 23  1  0  0  0  0
 22 21  2  0  0  0  0
 23 20  2  0  0  0  0
 25 24  2  0  0  0  0
 27 26  1  0  0  0  0
M  END
>  <MODEL>
8

>  <REMARK>
 VINA RESULT:      -9.3      2.423      5.252
  Name = 
  3 active torsions:
  status: ('A' for Active; 'I' for Inactive)
    1  A    between atoms: C_9  and  C_15
    2  A    between atoms: C_13  and  O_22
    3  A    between atoms: C_14  and  C_17
                            x       y       z     vdW  Elec       q    Type
                         _______ _______ _______ _____ _____    ______ ____

>  <TORSDO>
F 3

$$$$
=
 OpenBabel10272401153D

 27 31  0  0  1  0  0  0  0  0999 V2000
  185.9470  178.2640  144.2800 C   0  0  2  0  0  3  0  0  0  0  0  0
  186.0000  178.8340  141.8400 C   0  0  0  0  0  0  0  0  0  0  0  0
  187.9220  177.7920  142.8860 O   0  0  0  0  0  0  0  0  0  0  0  0
  185.5520  179.1670  140.6140 N   0  0  0  0  0  0  0  0  0  0  0  0
  187.6040  177.7470  146.6430 C   0  0  1  0  0  3  0  0  0  0  0  0
  185.3250  179.1240  143.1540 C   0  0  1  0  0  3  0  0  0  0  0  0
  187.5470  178.1270  140.4350 C   0  0  0  0  0  0  0  0  0  0  0  0
  185.5380  178.7890  145.6550 C   0  0  0  0  0  2  0  0  0  0  0  0
  187.2150  178.2230  141.7650 C   0  0  1  0  0  3  0  0  0  0  0  0
  188.0660  177.2890  145.2500 C   0  0  0  0  0  2  0  0  0  0  0  0
  186.4980  178.7290  139.7450 C   0  0  0  0  0  3  0  0  0  0  0  0
  186.0760  177.8710  146.7490 C   0  0  0  0  0  2  0  0  0  0  0  0
  187.4930  178.2140  144.1830 C   0  0  2  0  0  3  0  0  0  0  0  0
  188.7040  176.9150  138.5870 C   0  0  0  0  0  3  0  0  0  0  0  0
  191.0660  176.4000  138.7110 C   0  0  0  0  0  3  0  0  0  0  0  0
  191.1340  177.0150  139.9640 C   0  0  0  0  0  3  0  0  0  0  0  0
  189.9860  177.5800  140.5280 C   0  0  0  0  0  3  0  0  0  0  0  0
  188.7630  177.5350  139.8440 C   0  0  0  0  0  0  0  0  0  0  0  0
  189.8520  176.3510  138.0220 C   0  0  0  0  0  3  0  0  0  0  0  0
  181.0790  178.5020  142.8460 C   0  0  0  0  0  3  0  0  0  0  0  0
  183.8420  178.9120  143.0620 C   0  0  0  0  0  0  0  0  0  0  0  0
  183.2700  178.6180  141.8200 C   0  0  0  0  0  3  0  0  0  0  0  0
  181.8910  178.4130  141.7110 C   0  0  0  0  0  3  0  0  0  0  0  0
  181.6460  178.7940  144.0900 C   0  0  0  0  0  3  0  0  0  0  0  0
  183.0240  179.0000  144.1990 C   0  0  0  0  0  3  0  0  0  0  0  0
  189.5480  176.8340  147.4530 C   0  0  0  0  0  1  0  0  0  0  0  0
  188.1720  176.9870  147.6890 O   0  0  0  0  0  0  0  0  0  0  0  0
  1  8  1  1  0  0  0
  2  6  1  0  0  0  0
  3 13  1  0  0  0  0
  4  2  2  0  0  0  0
  5 12  1  0  0  0  0
  5 27  1  1  0  0  0
  6 21  1  6  0  0  0
  6  1  1  0  0  0  0
  8 12  1  0  0  0  0
  9  7  1  6  0  0  0
  9  2  1  0  0  0  0
  9  3  1  0  0  0  0
 10  5  1  0  0  0  0
 11  7  2  0  0  0  0
 11  4  1  0  0  0  0
 13  1  1  0  0  0  0
 13 10  1  1  0  0  0
 14 18  1  0  0  0  0
 15 16  2  0  0  0  0
 16 17  1  0  0  0  0
 18  7  1  0  0  0  0
 18 17  2  0  0  0  0
 19 14  2  0  0  0  0
 19 15  1  0  0  0  0
 20 24  1  0  0  0  0
 21 25  1  0  0  0  0
 22 21  2  0  0  0  0
 23 22  1  0  0  0  0
 23 20  2  0  0  0  0
 24 25  2  0  0  0  0
 26 27  1  0  0  0  0
M  END
>  <MODEL>
9

>  <REMARK>
 VINA RESULT:      -9.2      1.988      5.151
  Name = 
  3 active torsions:
  status: ('A' for Active; 'I' for Inactive)
    1  A    between atoms: C_9  and  C_15
    2  A    between atoms: C_13  and  O_22
    3  A    between atoms: C_14  and  C_17
                            x       y       z     vdW  Elec       q    Type
                         _______ _______ _______ _____ _____    ______ ____

>  <TORSDO>
F 3

$$$$
