=
 OpenBabel10272401513D

 28 32  0  0  1  0  0  0  0  0999 V2000
  187.4750  177.8680  144.1910 C   0  0  0  0  0  0  0  0  0  0  0  0
  186.3640  178.1570  143.3230 N   0  0  0  0  0  0  0  0  0  0  0  0
  187.9150  178.1630  141.3820 C   0  0  0  0  0  0  0  0  0  0  0  0
  191.7620  177.2580  139.6420 C   0  0  0  0  0  2  0  0  0  0  0  0
  190.5970  176.5610  146.5640 O   0  0  0  0  0  0  0  0  0  0  0  0
  186.6090  178.6430  141.9530 C   0  0  0  0  0  2  0  0  0  0  0  0
  189.4530  177.9600  137.9550 C   0  0  0  0  0  3  0  0  0  0  0  0
  190.2190  177.3900  141.6340 C   0  0  0  0  0  0  0  0  0  0  0  0
  190.6470  175.7790  137.8370 C   0  0  1  0  0  3  0  0  0  0  0  0
  190.4000  177.4800  140.2430 C   0  0  0  0  0  0  0  0  0  0  0  0
  188.1060  178.2490  140.0020 C   0  0  0  0  0  3  0  0  0  0  0  0
  190.0910  177.0340  137.2310 C   0  0  0  0  0  3  0  0  0  0  0  0
  189.8710  177.1850  144.3910 C   0  0  0  0  0  0  0  0  0  0  0  0
  188.9700  177.7260  142.2050 C   0  0  0  0  0  0  0  0  0  0  0  0
  189.3250  177.8870  139.4230 C   0  0  0  0  0  0  0  0  0  0  0  0
  188.4120  177.5110  146.4960 C   0  0  0  0  0  2  0  0  0  0  0  0
  191.0940  176.8770  143.7870 C   0  0  0  0  0  3  0  0  0  0  0  0
  189.6810  177.0410  145.8450 C   0  0  0  0  0  0  0  0  0  0  0  0
  191.0350  174.8090  136.7420 C   0  0  0  0  0  1  0  0  0  0  0  0
  191.8460  176.0060  138.7640 C   0  0  0  0  0  2  0  0  0  0  0  0
  191.2410  176.9860  142.4400 N   0  0  0  0  0  0  0  0  0  0  0  0
  187.2970  177.7740  145.5180 C   0  0  0  0  0  3  0  0  0  0  0  0
  188.8020  177.6160  143.5930 C   0  0  0  0  0  0  0  0  0  0  0  0
  184.1140  178.2030  142.7340 C   0  0  0  0  0  1  0  0  0  0  0  0
  185.0510  178.1300  143.8490 N   0  0  0  0  0  0  0  0  0  0  0  0
  184.8500  179.3000  144.7060 C   0  0  0  0  0  3  0  0  0  0  0  0
  184.7080  180.4370  143.9280 F   0  0  0  0  0  0  0  0  0  0  0  0
  183.7060  179.1400  145.4680 F   0  0  0  0  0  0  0  0  0  0  0  0
  1 22  2  0  0  0  0
  2 25  1  0  0  0  0
  2  1  1  0  0  0  0
  3  6  1  0  0  0  0
  3 14  1  0  0  0  0
  4 10  1  0  0  0  0
  6  2  1  0  0  0  0
  7 15  1  0  0  0  0
  8 14  2  0  0  0  0
  8 21  1  0  0  0  0
  9 19  1  6  0  0  0
  9 20  1  0  0  0  0
 10  8  1  0  0  0  0
 11  3  2  0  0  0  0
 12  9  1  0  0  0  0
 12  7  2  0  0  0  0
 13 18  1  0  0  0  0
 14 23  1  0  0  0  0
 15 11  1  0  0  0  0
 15 10  2  0  0  0  0
 17 13  1  0  0  0  0
 18 16  1  0  0  0  0
 18  5  2  0  0  0  0
 20  4  1  0  0  0  0
 21 17  2  0  0  0  0
 22 16  1  0  0  0  0
 23  1  1  0  0  0  0
 23 13  2  0  0  0  0
 24 25  1  0  0  0  0
 25 26  1  0  0  0  0
 26 28  1  0  0  0  0
 27 26  1  0  0  0  0
M  END
>  <MODEL>
1

>  <REMARK>
 VINA RESULT:     -10.0      0.000      0.000
  Name = 
  2 active torsions:
  status: ('A' for Active; 'I' for Inactive)
    1  A    between atoms: N_2  and  N_11
    2  A    between atoms: C_6  and  N_11
                            x       y       z     vdW  Elec       q    Type
                         _______ _______ _______ _____ _____    ______ ____

>  <TORSDO>
F 2

$$$$
=
 OpenBabel10272401513D

 28 32  0  0  1  0  0  0  0  0999 V2000
  189.3310  177.4770  144.5920 C   0  0  0  0  0  0  0  0  0  0  0  0
  188.4400  177.3800  145.7180 N   0  0  0  0  0  0  0  0  0  0  0  0
  186.5820  178.1970  144.2840 C   0  0  0  0  0  0  0  0  0  0  0  0
  184.9540  179.0840  140.3840 C   0  0  0  0  0  2  0  0  0  0  0  0
  191.7270  177.3040  141.2280 O   0  0  0  0  0  0  0  0  0  0  0  0
  187.1300  178.0550  145.6780 C   0  0  0  0  0  2  0  0  0  0  0  0
  183.2260  178.9630  142.7660 C   0  0  0  0  0  3  0  0  0  0  0  0
  186.8750  178.3910  141.8670 C   0  0  0  0  0  0  0  0  0  0  0  0
  182.9770  177.4670  140.7930 C   0  0  1  0  0  3  0  0  0  0  0  0
  185.5060  178.6820  141.7250 C   0  0  0  0  0  0  0  0  0  0  0  0
  185.2250  178.4880  144.1320 C   0  0  0  0  0  3  0  0  0  0  0  0
  182.4560  178.4470  141.8030 C   0  0  0  0  0  3  0  0  0  0  0  0
  189.5840  177.7950  142.1260 C   0  0  0  0  0  0  0  0  0  0  0  0
  187.4130  178.1410  143.1500 C   0  0  0  0  0  0  0  0  0  0  0  0
  184.6750  178.7020  142.8660 C   0  0  0  0  0  0  0  0  0  0  0  0
  191.6380  177.3010  143.6100 C   0  0  0  0  0  2  0  0  0  0  0  0
  189.0140  178.0640  140.8770 C   0  0  0  0  0  3  0  0  0  0  0  0
  191.0090  177.4450  142.2540 C   0  0  0  0  0  0  0  0  0  0  0  0
  181.8220  176.8460  140.0380 C   0  0  0  0  0  1  0  0  0  0  0  0
  183.9760  178.0630  139.7950 C   0  0  0  0  0  2  0  0  0  0  0  0
  187.6900  178.3540  140.7760 N   0  0  0  0  0  0  0  0  0  0  0  0
  190.6340  177.1890  144.7280 C   0  0  0  0  0  3  0  0  0  0  0  0
  188.7760  177.8370  143.2710 C   0  0  0  0  0  0  0  0  0  0  0  0
  187.7920  176.7520  147.8620 C   0  0  0  0  0  1  0  0  0  0  0  0
  188.8980  176.7780  146.9130 N   0  0  0  0  0  0  0  0  0  0  0  0
  189.9790  177.5880  147.4770 C   0  0  0  0  0  3  0  0  0  0  0  0
  189.5140  178.3080  148.5640 F   0  0  0  0  0  0  0  0  0  0  0  0
  191.0150  176.7720  147.8980 F   0  0  0  0  0  0  0  0  0  0  0  0
  1 22  2  0  0  0  0
  1  2  1  0  0  0  0
  2 25  1  0  0  0  0
  3  6  1  0  0  0  0
  4 10  1  0  0  0  0
  5 18  2  0  0  0  0
  6  2  1  0  0  0  0
  7 15  1  0  0  0  0
  8 14  1  0  0  0  0
  9 19  1  6  0  0  0
  9 12  1  0  0  0  0
 10  8  2  0  0  0  0
 10 15  1  0  0  0  0
 11  3  1  0  0  0  0
 12  7  2  0  0  0  0
 13 18  1  0  0  0  0
 13 23  2  0  0  0  0
 14 23  1  0  0  0  0
 14  3  2  0  0  0  0
 15 11  2  0  0  0  0
 16 22  1  0  0  0  0
 17 13  1  0  0  0  0
 18 16  1  0  0  0  0
 20  4  1  0  0  0  0
 20  9  1  0  0  0  0
 21 17  2  0  0  0  0
 21  8  1  0  0  0  0
 23  1  1  0  0  0  0
 25 26  1  0  0  0  0
 25 24  1  0  0  0  0
 26 28  1  0  0  0  0
 26 27  1  0  0  0  0
M  END
>  <MODEL>
2

>  <REMARK>
 VINA RESULT:      -9.6      3.149      5.688
  Name = 
  2 active torsions:
  status: ('A' for Active; 'I' for Inactive)
    1  A    between atoms: N_2  and  N_11
    2  A    between atoms: C_6  and  N_11
                            x       y       z     vdW  Elec       q    Type
                         _______ _______ _______ _____ _____    ______ ____

>  <TORSDO>
F 2

$$$$
=
 OpenBabel10272401513D

 28 32  0  0  1  0  0  0  0  0999 V2000
  187.8650  177.6720  144.6730 C   0  0  0  0  0  0  0  0  0  0  0  0
  186.5420  178.0320  145.1120 N   0  0  0  0  0  0  0  0  0  0  0  0
  185.9490  178.6040  142.7680 C   0  0  0  0  0  0  0  0  0  0  0  0
  186.7960  178.4710  138.5360 C   0  0  0  0  0  2  0  0  0  0  0  0
  191.4730  176.1950  143.3000 O   0  0  0  0  0  0  0  0  0  0  0  0
  185.6650  178.8220  144.2290 C   0  0  0  0  0  2  0  0  0  0  0  0
  184.1510  179.2920  139.5360 C   0  0  0  0  0  3  0  0  0  0  0  0
  187.4510  178.0220  140.9310 C   0  0  0  0  0  0  0  0  0  0  0  0
  184.5300  177.3140  138.0740 C   0  0  1  0  0  3  0  0  0  0  0  0
  186.4730  178.4260  140.0050 C   0  0  0  0  0  0  0  0  0  0  0  0
  184.9860  179.0040  141.8400 C   0  0  0  0  0  3  0  0  0  0  0  0
  183.8590  178.6100  138.4230 C   0  0  0  0  0  3  0  0  0  0  0  0
  189.3920  177.1980  142.7520 C   0  0  0  0  0  0  0  0  0  0  0  0
  187.1850  178.1050  142.3170 C   0  0  0  0  0  0  0  0  0  0  0  0
  185.2240  178.8940  140.4680 C   0  0  0  0  0  0  0  0  0  0  0  0
  190.2080  176.9210  145.1850 C   0  0  0  0  0  2  0  0  0  0  0  0
  189.6180  177.1470  141.3720 C   0  0  0  0  0  3  0  0  0  0  0  0
  190.4080  176.7270  143.7090 C   0  0  0  0  0  0  0  0  0  0  0  0
  183.7900  176.6440  136.9360 C   0  0  0  0  0  1  0  0  0  0  0  0
  186.0120  177.4510  137.7060 C   0  0  0  0  0  2  0  0  0  0  0  0
  188.6570  177.5560  140.5030 N   0  0  0  0  0  0  0  0  0  0  0  0
  188.7930  177.2780  145.5580 C   0  0  0  0  0  3  0  0  0  0  0  0
  188.1650  177.6840  143.2260 C   0  0  0  0  0  0  0  0  0  0  0  0
  184.7510  178.1030  146.5930 C   0  0  0  0  0  1  0  0  0  0  0  0
  186.1610  177.7650  146.4480 N   0  0  0  0  0  0  0  0  0  0  0  0
  186.9410  178.6140  147.3500 C   0  0  0  0  0  3  0  0  0  0  0  0
  186.1940  179.7180  147.7250 F   0  0  0  0  0  0  0  0  0  0  0  0
  187.2860  177.9070  148.4890 F   0  0  0  0  0  0  0  0  0  0  0  0
  1  2  1  0  0  0  0
  1 22  2  0  0  0  0
  2 25  1  0  0  0  0
  3  6  1  0  0  0  0
  4 10  1  0  0  0  0
  5 18  2  0  0  0  0
  6  2  1  0  0  0  0
  7 15  1  0  0  0  0
  8 14  1  0  0  0  0
  9 19  1  6  0  0  0
  9 12  1  0  0  0  0
 10 15  2  0  0  0  0
 10  8  1  0  0  0  0
 11  3  2  0  0  0  0
 12  7  2  0  0  0  0
 13 23  1  0  0  0  0
 13 18  1  0  0  0  0
 14  3  1  0  0  0  0
 14 23  2  0  0  0  0
 15 11  1  0  0  0  0
 16 22  1  0  0  0  0
 17 13  2  0  0  0  0
 18 16  1  0  0  0  0
 20  9  1  0  0  0  0
 20  4  1  0  0  0  0
 21  8  2  0  0  0  0
 21 17  1  0  0  0  0
 23  1  1  0  0  0  0
 25 24  1  0  0  0  0
 25 26  1  0  0  0  0
 26 27  1  0  0  0  0
 26 28  1  0  0  0  0
M  END
>  <MODEL>
3

>  <REMARK>
 VINA RESULT:      -8.6      2.586      3.941
  Name = 
  2 active torsions:
  status: ('A' for Active; 'I' for Inactive)
    1  A    between atoms: N_2  and  N_11
    2  A    between atoms: C_6  and  N_11
                            x       y       z     vdW  Elec       q    Type
                         _______ _______ _______ _____ _____    ______ ____

>  <TORSDO>
F 2

$$$$
=
 OpenBabel10272401513D

 28 32  0  0  1  0  0  0  0  0999 V2000
  184.4950  178.6190  142.0440 C   0  0  0  0  0  0  0  0  0  0  0  0
  184.9910  178.3970  140.7110 N   0  0  0  0  0  0  0  0  0  0  0  0
  187.3050  178.3180  141.6150 C   0  0  0  0  0  0  0  0  0  0  0  0
  190.0280  178.0120  144.9530 C   0  0  0  0  0  2  0  0  0  0  0  0
  183.0810  178.7620  145.9260 O   0  0  0  0  0  0  0  0  0  0  0  0
  186.4260  178.5780  140.4230 C   0  0  0  0  0  2  0  0  0  0  0  0
  190.9680  177.6750  142.1830 C   0  0  0  0  0  3  0  0  0  0  0  0
  187.6910  178.2360  144.0260 C   0  0  0  0  0  0  0  0  0  0  0  0
  191.1200  175.9060  143.9260 C   0  0  1  0  0  3  0  0  0  0  0  0
  189.0630  178.0250  143.7990 C   0  0  0  0  0  0  0  0  0  0  0  0
  188.6680  178.1090  141.4010 C   0  0  0  0  0  3  0  0  0  0  0  0
  191.7040  176.7920  142.8650 C   0  0  0  0  0  3  0  0  0  0  0  0
  184.9740  178.6320  144.4970 C   0  0  0  0  0  0  0  0  0  0  0  0
  186.8080  178.3760  142.9310 C   0  0  0  0  0  0  0  0  0  0  0  0
  189.5440  177.9350  142.4740 C   0  0  0  0  0  0  0  0  0  0  0  0
  182.5900  179.0850  143.6160 C   0  0  0  0  0  2  0  0  0  0  0  0
  185.8840  178.5030  145.5510 C   0  0  0  0  0  3  0  0  0  0  0  0
  183.5330  178.8050  144.7510 C   0  0  0  0  0  0  0  0  0  0  0  0
  192.1150  174.8270  144.2970 C   0  0  0  0  0  1  0  0  0  0  0  0
  190.6770  176.6460  145.1930 C   0  0  0  0  0  2  0  0  0  0  0  0
  187.2050  178.3120  145.2970 N   0  0  0  0  0  0  0  0  0  0  0  0
  183.1840  178.8110  142.2590 C   0  0  0  0  0  3  0  0  0  0  0  0
  185.4420  178.5700  143.1770 C   0  0  0  0  0  0  0  0  0  0  0  0
  184.8280  177.7930  138.4710 C   0  0  0  0  0  1  0  0  0  0  0  0
  184.0730  178.1700  139.6600 N   0  0  0  0  0  0  0  0  0  0  0  0
  183.3460  179.4100  139.3790 C   0  0  0  0  0  3  0  0  0  0  0  0
  184.2060  180.3510  138.8380 F   0  0  0  0  0  0  0  0  0  0  0  0
  182.3280  179.1680  138.4720 F   0  0  0  0  0  0  0  0  0  0  0  0
  1 22  2  0  0  0  0
  1 23  1  0  0  0  0
  2  1  1  0  0  0  0
  3 14  1  0  0  0  0
  4 20  1  0  0  0  0
  6  2  1  0  0  0  0
  6  3  1  0  0  0  0
  7 15  1  0  0  0  0
  7 12  2  0  0  0  0
  8 21  1  0  0  0  0
  9 19  1  1  0  0  0
  9 20  1  0  0  0  0
 10  8  1  0  0  0  0
 10  4  1  0  0  0  0
 11  3  2  0  0  0  0
 11 15  1  0  0  0  0
 12  9  1  0  0  0  0
 13 18  1  0  0  0  0
 13 17  1  0  0  0  0
 14 23  1  0  0  0  0
 14  8  2  0  0  0  0
 15 10  2  0  0  0  0
 16 18  1  0  0  0  0
 18  5  2  0  0  0  0
 21 17  2  0  0  0  0
 22 16  1  0  0  0  0
 23 13  2  0  0  0  0
 24 25  1  0  0  0  0
 25  2  1  0  0  0  0
 26 25  1  0  0  0  0
 27 26  1  0  0  0  0
 28 26  1  0  0  0  0
M  END
>  <MODEL>
4

>  <REMARK>
 VINA RESULT:      -8.4      3.344      5.054
  Name = 
  2 active torsions:
  status: ('A' for Active; 'I' for Inactive)
    1  A    between atoms: N_2  and  N_11
    2  A    between atoms: C_6  and  N_11
                            x       y       z     vdW  Elec       q    Type
                         _______ _______ _______ _____ _____    ______ ____

>  <TORSDO>
F 2

$$$$
=
 OpenBabel10272401513D

 28 32  0  0  1  0  0  0  0  0999 V2000
  190.5950  177.4500  140.6100 C   0  0  0  0  0  0  0  0  0  0  0  0
  190.2940  177.6180  142.0080 N   0  0  0  0  0  0  0  0  0  0  0  0
  187.9990  178.3520  141.3990 C   0  0  0  0  0  0  0  0  0  0  0  0
  184.8190  178.7340  138.5030 C   0  0  0  0  0  2  0  0  0  0  0  0
  191.2520  176.5210  136.6370 O   0  0  0  0  0  0  0  0  0  0  0  0
  189.1070  178.3910  142.4160 C   0  0  0  0  0  2  0  0  0  0  0  0
  184.3240  179.1570  141.3750 C   0  0  0  0  0  3  0  0  0  0  0  0
  187.1930  178.1240  139.1050 C   0  0  0  0  0  0  0  0  0  0  0  0
  183.2160  177.3880  140.0210 C   0  0  1  0  0  3  0  0  0  0  0  0
  185.9050  178.5080  139.5200 C   0  0  0  0  0  0  0  0  0  0  0  0
  186.7180  178.7340  141.8000 C   0  0  0  0  0  3  0  0  0  0  0  0
  183.2030  178.5610  140.9560 C   0  0  0  0  0  3  0  0  0  0  0  0
  189.7320  177.3400  138.2670 C   0  0  0  0  0  0  0  0  0  0  0  0
  188.2410  178.0390  140.0490 C   0  0  0  0  0  0  0  0  0  0  0  0
  185.6660  178.7880  140.8830 C   0  0  0  0  0  0  0  0  0  0  0  0
  192.2270  176.9130  138.7770 C   0  0  0  0  0  2  0  0  0  0  0  0
  188.6700  177.4510  137.3650 C   0  0  0  0  0  3  0  0  0  0  0  0
  191.0640  176.8900  137.8270 C   0  0  0  0  0  0  0  0  0  0  0  0
  181.8410  176.7570  139.9710 C   0  0  0  0  0  1  0  0  0  0  0  0
  183.6740  177.7220  138.5970 C   0  0  0  0  0  2  0  0  0  0  0  0
  187.4400  177.8370  137.7960 N   0  0  0  0  0  0  0  0  0  0  0  0
  191.8220  177.0750  140.2190 C   0  0  0  0  0  3  0  0  0  0  0  0
  189.5150  177.6390  139.6200 C   0  0  0  0  0  0  0  0  0  0  0  0
  190.8570  175.8320  143.3880 C   0  0  0  0  0  1  0  0  0  0  0  0
  191.2300  177.1800  142.9740 N   0  0  0  0  0  0  0  0  0  0  0  0
  191.1670  178.0610  144.1410 C   0  0  0  0  0  3  0  0  0  0  0  0
  191.5980  177.3850  145.2690 F   0  0  0  0  0  0  0  0  0  0  0  0
  191.9830  179.1630  143.9480 F   0  0  0  0  0  0  0  0  0  0  0  0
  1  2  1  0  0  0  0
  2  6  1  0  0  0  0
  2 25  1  0  0  0  0
  3 11  1  0  0  0  0
  3  6  1  0  0  0  0
  4 20  1  0  0  0  0
  4 10  1  0  0  0  0
  5 18  2  0  0  0  0
  8 10  2  0  0  0  0
  8 14  1  0  0  0  0
  9 19  1  6  0  0  0
  9 12  1  0  0  0  0
 10 15  1  0  0  0  0
 12  7  2  0  0  0  0
 13 23  2  0  0  0  0
 14  3  2  0  0  0  0
 15  7  1  0  0  0  0
 15 11  2  0  0  0  0
 16 22  1  0  0  0  0
 17 21  2  0  0  0  0
 17 13  1  0  0  0  0
 18 13  1  0  0  0  0
 18 16  1  0  0  0  0
 20  9  1  0  0  0  0
 21  8  1  0  0  0  0
 22  1  2  0  0  0  0
 23 14  1  0  0  0  0
 23  1  1  0  0  0  0
 25 24  1  0  0  0  0
 25 26  1  0  0  0  0
 26 27  1  0  0  0  0
 28 26  1  0  0  0  0
M  END
>  <MODEL>
5

>  <REMARK>
 VINA RESULT:      -8.4      3.480      6.510
  Name = 
  2 active torsions:
  status: ('A' for Active; 'I' for Inactive)
    1  A    between atoms: N_2  and  N_11
    2  A    between atoms: C_6  and  N_11
                            x       y       z     vdW  Elec       q    Type
                         _______ _______ _______ _____ _____    ______ ____

>  <TORSDO>
F 2

$$$$
=
 OpenBabel10272401513D

 28 32  0  0  1  0  0  0  0  0999 V2000
  186.6470  178.3320  140.6240 C   0  0  0  0  0  0  0  0  0  0  0  0
  187.8940  178.1270  139.9350 N   0  0  0  0  0  0  0  0  0  0  0  0
  189.0820  178.1980  142.1160 C   0  0  0  0  0  0  0  0  0  0  0  0
  189.0230  178.0960  146.4330 C   0  0  0  0  0  2  0  0  0  0  0  0
  183.0610  178.4310  142.6780 O   0  0  0  0  0  0  0  0  0  0  0  0
  189.1680  178.3920  140.6270 C   0  0  0  0  0  2  0  0  0  0  0  0
  191.5400  177.7870  144.9340 C   0  0  0  0  0  3  0  0  0  0  0  0
  187.8270  178.1660  144.2120 C   0  0  0  0  0  0  0  0  0  0  0  0
  190.6030  176.0480  146.4490 C   0  0  1  0  0  3  0  0  0  0  0  0
  189.0290  178.0370  144.9290 C   0  0  0  0  0  0  0  0  0  0  0  0
  190.2690  178.0710  142.8380 C   0  0  0  0  0  3  0  0  0  0  0  0
  191.6970  176.9570  145.9710 C   0  0  0  0  0  3  0  0  0  0  0  0
  185.4320  178.4010  142.8080 C   0  0  0  0  0  0  0  0  0  0  0  0
  187.8520  178.2400  142.8010 C   0  0  0  0  0  0  0  0  0  0  0  0
  190.2540  177.9620  144.2300 C   0  0  0  0  0  0  0  0  0  0  0  0
  184.1610  178.6980  140.5800 C   0  0  0  0  0  2  0  0  0  0  0  0
  185.4540  178.3390  144.2050 C   0  0  0  0  0  3  0  0  0  0  0  0
  184.1610  178.4880  142.0670 C   0  0  0  0  0  0  0  0  0  0  0  0
  191.1670  175.0360  147.4230 C   0  0  0  0  0  1  0  0  0  0  0  0
  189.4200  176.7740  147.0980 C   0  0  0  0  0  2  0  0  0  0  0  0
  186.6340  178.2260  144.8680 N   0  0  0  0  0  0  0  0  0  0  0  0
  185.5000  178.4460  139.9380 C   0  0  0  0  0  3  0  0  0  0  0  0
  186.6430  178.3540  142.1010 C   0  0  0  0  0  0  0  0  0  0  0  0
  188.5540  176.5570  138.3510 C   0  0  0  0  0  1  0  0  0  0  0  0
  187.8780  177.8340  138.5520 N   0  0  0  0  0  0  0  0  0  0  0  0
  188.6170  178.8710  137.8300 C   0  0  0  0  0  3  0  0  0  0  0  0
  189.7990  178.3500  137.3300 F   0  0  0  0  0  0  0  0  0  0  0  0
  187.8600  179.3450  136.7720 F   0  0  0  0  0  0  0  0  0  0  0  0
  1 23  1  0  0  0  0
  2  1  1  0  0  0  0
  2  6  1  0  0  0  0
  3 14  2  0  0  0  0
  3 11  1  0  0  0  0
  4 20  1  0  0  0  0
  6  3  1  0  0  0  0
  7 12  2  0  0  0  0
  8 21  1  0  0  0  0
  8 10  2  0  0  0  0
  9 20  1  0  0  0  0
  9 19  1  1  0  0  0
 10  4  1  0  0  0  0
 11 15  2  0  0  0  0
 12  9  1  0  0  0  0
 13 17  1  0  0  0  0
 14  8  1  0  0  0  0
 15 10  1  0  0  0  0
 15  7  1  0  0  0  0
 16 18  1  0  0  0  0
 17 21  2  0  0  0  0
 18  5  2  0  0  0  0
 18 13  1  0  0  0  0
 22 16  1  0  0  0  0
 22  1  2  0  0  0  0
 23 14  1  0  0  0  0
 23 13  2  0  0  0  0
 24 25  1  0  0  0  0
 25  2  1  0  0  0  0
 26 25  1  0  0  0  0
 27 26  1  0  0  0  0
 28 26  1  0  0  0  0
M  END
>  <MODEL>
6

>  <REMARK>
 VINA RESULT:      -8.4      3.378      6.480
  Name = 
  2 active torsions:
  status: ('A' for Active; 'I' for Inactive)
    1  A    between atoms: N_2  and  N_11
    2  A    between atoms: C_6  and  N_11
                            x       y       z     vdW  Elec       q    Type
                         _______ _______ _______ _____ _____    ______ ____

>  <TORSDO>
F 2

$$$$
=
 OpenBabel10272401513D

 28 32  0  0  1  0  0  0  0  0999 V2000
  188.1530  177.7480  143.5810 C   0  0  0  0  0  0  0  0  0  0  0  0
  187.4690  177.6590  144.8450 N   0  0  0  0  0  0  0  0  0  0  0  0
  185.3850  178.4410  143.7410 C   0  0  0  0  0  0  0  0  0  0  0  0
  183.1040  179.2640  140.1680 C   0  0  0  0  0  2  0  0  0  0  0  0
  189.9400  177.5520  139.8590 O   0  0  0  0  0  0  0  0  0  0  0  0
  186.1650  178.3220  145.0210 C   0  0  0  0  0  2  0  0  0  0  0  0
  181.8110  179.1610  142.8120 C   0  0  0  0  0  3  0  0  0  0  0  0
  185.2570  178.6070  141.3070 C   0  0  0  0  0  0  0  0  0  0  0  0
  181.2440  177.6370  140.9280 C   0  0  1  0  0  3  0  0  0  0  0  0
  183.8820  178.8840  141.3980 C   0  0  0  0  0  0  0  0  0  0  0  0
  184.0190  178.7190  143.8210 C   0  0  0  0  0  3  0  0  0  0  0  0
  180.8920  178.6250  142.0010 C   0  0  0  0  0  3  0  0  0  0  0  0
  187.9770  178.0360  141.1050 C   0  0  0  0  0  0  0  0  0  0  0  0
  186.0100  178.3780  142.4810 C   0  0  0  0  0  0  0  0  0  0  0  0
  183.2580  178.9130  142.6650 C   0  0  0  0  0  0  0  0  0  0  0  0
  190.2600  177.5790  142.2210 C   0  0  0  0  0  2  0  0  0  0  0  0
  187.1990  178.2840  139.9700 C   0  0  0  0  0  3  0  0  0  0  0  0
  189.4070  177.7000  140.9900 C   0  0  0  0  0  0  0  0  0  0  0  0
  179.9820  176.9970  140.3890 C   0  0  0  0  0  1  0  0  0  0  0  0
  182.0500  178.2280  139.7660 C   0  0  0  0  0  2  0  0  0  0  0  0
  185.8740  178.5620  140.0930 N   0  0  0  0  0  0  0  0  0  0  0  0
  189.4640  177.4740  143.4950 C   0  0  0  0  0  3  0  0  0  0  0  0
  187.3770  178.0870  142.3710 C   0  0  0  0  0  0  0  0  0  0  0  0
  187.1410  176.8150  146.9870 C   0  0  0  0  0  1  0  0  0  0  0  0
  188.1320  177.0760  145.9490 N   0  0  0  0  0  0  0  0  0  0  0  0
  189.1190  178.0220  146.4730 C   0  0  0  0  0  3  0  0  0  0  0  0
  188.7820  178.3920  147.7640 F   0  0  0  0  0  0  0  0  0  0  0  0
  190.3740  177.4360  146.4950 F   0  0  0  0  0  0  0  0  0  0  0  0
  1  2  1  0  0  0  0
  2  6  1  0  0  0  0
  2 25  1  0  0  0  0
  3 11  1  0  0  0  0
  3  6  1  0  0  0  0
  4 10  1  0  0  0  0
  5 18  2  0  0  0  0
  8 10  2  0  0  0  0
  8 14  1  0  0  0  0
  9 19  1  6  0  0  0
  9 12  1  0  0  0  0
 10 15  1  0  0  0  0
 12  7  2  0  0  0  0
 13 23  2  0  0  0  0
 14  3  2  0  0  0  0
 15  7  1  0  0  0  0
 15 11  2  0  0  0  0
 16 22  1  0  0  0  0
 17 21  2  0  0  0  0
 17 13  1  0  0  0  0
 18 13  1  0  0  0  0
 18 16  1  0  0  0  0
 20  4  1  0  0  0  0
 20  9  1  0  0  0  0
 21  8  1  0  0  0  0
 22  1  2  0  0  0  0
 23 14  1  0  0  0  0
 23  1  1  0  0  0  0
 25 26  1  0  0  0  0
 25 24  1  0  0  0  0
 26 28  1  0  0  0  0
 26 27  1  0  0  0  0
M  END
>  <MODEL>
7

>  <REMARK>
 VINA RESULT:      -8.2      3.019      6.390
  Name = 
  2 active torsions:
  status: ('A' for Active; 'I' for Inactive)
    1  A    between atoms: N_2  and  N_11
    2  A    between atoms: C_6  and  N_11
                            x       y       z     vdW  Elec       q    Type
                         _______ _______ _______ _____ _____    ______ ____

>  <TORSDO>
F 2

$$$$
=
 OpenBabel10272401513D

 28 32  0  0  1  0  0  0  0  0999 V2000
  188.1140  177.5970  143.7780 C   0  0  0  0  0  0  0  0  0  0  0  0
  186.7410  177.9440  143.5160 N   0  0  0  0  0  0  0  0  0  0  0  0
  187.2890  178.1820  141.1040 C   0  0  0  0  0  0  0  0  0  0  0  0
  189.9690  177.5510  137.7780 C   0  0  0  0  0  2  0  0  0  0  0  0
  191.9300  176.1380  144.4040 O   0  0  0  0  0  0  0  0  0  0  0  0
  186.3740  178.5700  142.2330 C   0  0  0  0  0  2  0  0  0  0  0  0
  187.1700  178.3600  137.3480 C   0  0  0  0  0  3  0  0  0  0  0  0
  189.4540  177.4450  140.2460 C   0  0  0  0  0  0  0  0  0  0  0  0
  188.1460  176.2330  136.5020 C   0  0  1  0  0  3  0  0  0  0  0  0
  189.0110  177.6780  138.9310 C   0  0  0  0  0  0  0  0  0  0  0  0
  186.8600  178.4110  139.7960 C   0  0  0  0  0  3  0  0  0  0  0  0
  187.4080  177.5280  136.3290 C   0  0  0  0  0  3  0  0  0  0  0  0
  190.3410  176.9580  142.8410 C   0  0  0  0  0  0  0  0  0  0  0  0
  188.5880  177.6910  141.3350 C   0  0  0  0  0  0  0  0  0  0  0  0
  187.6950  178.1390  138.7100 C   0  0  0  0  0  0  0  0  0  0  0  0
  189.9550  177.0360  145.3930 C   0  0  0  0  0  2  0  0  0  0  0  0
  191.1700  176.7420  141.7360 C   0  0  0  0  0  3  0  0  0  0  0  0
  190.8020  176.6640  144.2100 C   0  0  0  0  0  0  0  0  0  0  0  0
  187.9950  175.3870  135.2560 C   0  0  0  0  0  1  0  0  0  0  0  0
  189.6340  176.3950  136.8300 C   0  0  0  0  0  2  0  0  0  0  0  0
  190.7160  176.9890  140.4790 N   0  0  0  0  0  0  0  0  0  0  0  0
  188.5310  177.3670  145.0320 C   0  0  0  0  0  3  0  0  0  0  0  0
  189.0400  177.4390  142.6380 C   0  0  0  0  0  0  0  0  0  0  0  0
  184.5340  178.4030  144.0860 C   0  0  0  0  0  1  0  0  0  0  0  0
  185.7900  177.8320  144.5570 N   0  0  0  0  0  0  0  0  0  0  0  0
  186.2490  178.6020  145.7150 C   0  0  0  0  0  3  0  0  0  0  0  0
  185.4740  179.7390  145.8640 F   0  0  0  0  0  0  0  0  0  0  0  0
  186.1410  177.8390  146.8650 F   0  0  0  0  0  0  0  0  0  0  0  0
  1 22  2  0  0  0  0
  2  1  1  0  0  0  0
  2 25  1  0  0  0  0
  3 14  1  0  0  0  0
  3  6  1  0  0  0  0
  4 10  1  0  0  0  0
  6  2  1  0  0  0  0
  7 15  1  0  0  0  0
  8 21  2  0  0  0  0
  8 14  1  0  0  0  0
  9 19  1  6  0  0  0
  9 20  1  0  0  0  0
 10  8  1  0  0  0  0
 11  3  2  0  0  0  0
 12  9  1  0  0  0  0
 12  7  2  0  0  0  0
 13 18  1  0  0  0  0
 14 23  2  0  0  0  0
 15 10  2  0  0  0  0
 15 11  1  0  0  0  0
 17 13  2  0  0  0  0
 18  5  2  0  0  0  0
 18 16  1  0  0  0  0
 20  4  1  0  0  0  0
 21 17  1  0  0  0  0
 22 16  1  0  0  0  0
 23 13  1  0  0  0  0
 23  1  1  0  0  0  0
 24 25  1  0  0  0  0
 25 26  1  0  0  0  0
 26 27  1  0  0  0  0
 26 28  1  0  0  0  0
M  END
>  <MODEL>
8

>  <REMARK>
 VINA RESULT:      -8.1      1.587      2.005
  Name = 
  2 active torsions:
  status: ('A' for Active; 'I' for Inactive)
    1  A    between atoms: N_2  and  N_11
    2  A    between atoms: C_6  and  N_11
                            x       y       z     vdW  Elec       q    Type
                         _______ _______ _______ _____ _____    ______ ____

>  <TORSDO>
F 2

$$$$
=
 OpenBabel10272401513D

 28 32  0  0  1  0  0  0  0  0999 V2000
  184.2530  178.6380  141.8740 C   0  0  0  0  0  0  0  0  0  0  0  0
  183.6290  178.6880  140.5770 N   0  0  0  0  0  0  0  0  0  0  0  0
  185.8740  178.5490  139.5200 C   0  0  0  0  0  0  0  0  0  0  0  0
  190.1110  177.7620  139.7850 C   0  0  0  0  0  2  0  0  0  0  0  0
  186.0450  178.0020  145.5440 O   0  0  0  0  0  0  0  0  0  0  0  0
  184.4410  178.9840  139.3830 C   0  0  0  0  0  2  0  0  0  0  0  0
  188.7620  177.9820  137.1770 C   0  0  0  0  0  3  0  0  0  0  0  0
  187.8490  178.0440  140.8660 C   0  0  0  0  0  0  0  0  0  0  0  0
  189.9290  175.9310  137.9680 C   0  0  1  0  0  3  0  0  0  0  0  0
  188.6200  177.9410  139.6950 C   0  0  0  0  0  0  0  0  0  0  0  0
  186.6490  178.4460  138.3640 C   0  0  0  0  0  3  0  0  0  0  0  0
  189.6700  177.0230  136.9710 C   0  0  0  0  0  3  0  0  0  0  0  0
  186.3320  178.2220  143.1970 C   0  0  0  0  0  0  0  0  0  0  0  0
  186.4700  178.3420  140.7780 C   0  0  0  0  0  0  0  0  0  0  0  0
  188.0050  178.1180  138.4370 C   0  0  0  0  0  0  0  0  0  0  0  0
  184.0920  178.7200  144.3800 C   0  0  0  0  0  2  0  0  0  0  0  0
  187.7020  177.9440  143.2390 C   0  0  0  0  0  3  0  0  0  0  0  0
  185.5270  178.2800  144.4300 C   0  0  0  0  0  0  0  0  0  0  0  0
  190.7770  174.8490  137.3330 C   0  0  0  0  0  1  0  0  0  0  0  0
  190.5960  176.4060  139.2630 C   0  0  0  0  0  2  0  0  0  0  0  0
  188.4220  177.8640  142.0890 N   0  0  0  0  0  0  0  0  0  0  0  0
  183.5140  178.7270  142.9890 C   0  0  0  0  0  3  0  0  0  0  0  0
  185.7130  178.4260  141.9550 C   0  0  0  0  0  0  0  0  0  0  0  0
  181.8670  177.3120  139.9370 C   0  0  0  0  0  1  0  0  0  0  0  0
  182.2200  178.6160  140.4860 N   0  0  0  0  0  0  0  0  0  0  0  0
  181.7420  179.6530  139.5700 C   0  0  0  0  0  3  0  0  0  0  0  0
  181.2040  179.0710  138.4340 F   0  0  0  0  0  0  0  0  0  0  0  0
  180.7620  180.4140  140.1830 F   0  0  0  0  0  0  0  0  0  0  0  0
  1 23  1  0  0  0  0
  1 22  2  0  0  0  0
  2  1  1  0  0  0  0
  3 14  1  0  0  0  0
  6  3  1  0  0  0  0
  6  2  1  0  0  0  0
  7 15  1  0  0  0  0
  8 21  1  0  0  0  0
  9 19  1  6  0  0  0
  9 20  1  0  0  0  0
 10  4  1  0  0  0  0
 10  8  1  0  0  0  0
 11 15  1  0  0  0  0
 11  3  2  0  0  0  0
 12  7  2  0  0  0  0
 12  9  1  0  0  0  0
 13 17  1  0  0  0  0
 13 18  1  0  0  0  0
 14  8  2  0  0  0  0
 14 23  1  0  0  0  0
 15 10  2  0  0  0  0
 16 18  1  0  0  0  0
 18  5  2  0  0  0  0
 20  4  1  0  0  0  0
 21 17  2  0  0  0  0
 22 16  1  0  0  0  0
 23 13  2  0  0  0  0
 24 25  1  0  0  0  0
 25  2  1  0  0  0  0
 26 28  1  0  0  0  0
 26 25  1  0  0  0  0
 27 26  1  0  0  0  0
M  END
>  <MODEL>
9

>  <REMARK>
 VINA RESULT:      -8.0      2.714      3.670
  Name = 
  2 active torsions:
  status: ('A' for Active; 'I' for Inactive)
    1  A    between atoms: N_2  and  N_11
    2  A    between atoms: C_6  and  N_11
                            x       y       z     vdW  Elec       q    Type
                         _______ _______ _______ _____ _____    ______ ____

>  <TORSDO>
F 2

$$$$
