=
 OpenBabel10272400573D

 27 31  0  0  1  0  0  0  0  0999 V2000
  188.6040  176.3130  143.0960 O   0  0  0  0  0  0  0  0  0  0  0  0
  187.3220  177.9040  144.3260 C   0  0  0  0  0  0  0  0  0  0  0  0
  186.6540  178.0220  141.9140 N   0  0  0  0  0  2  0  0  0  0  0  0
  183.3040  179.0890  145.2140 C   0  0  0  0  0  2  0  0  0  0  0  0
  181.6780  178.1880  143.6250 N   0  0  0  0  0  1  0  0  0  0  0  0
  186.9610  178.0820  145.6820 C   0  0  0  0  0  3  0  0  0  0  0  0
  183.8950  178.8050  142.9100 C   0  0  0  0  0  0  0  0  0  0  0  0
  189.2840  178.7830  139.3900 C   0  0  0  0  0  2  0  0  0  0  0  0
  183.8580  178.7750  141.6520 O   0  0  0  0  0  0  0  0  0  0  0  0
  190.3070  177.7160  138.9860 C   0  0  0  0  0  2  0  0  0  0  0  0
  185.0610  178.5100  143.7130 C   0  0  0  0  0  0  0  0  0  0  0  0
  188.7090  177.4290  143.9470 C   0  0  1  0  0  3  0  0  0  0  0  0
  182.7380  179.1680  143.7810 C   0  0  2  0  0  3  0  0  0  0  0  0
  184.7270  178.6730  145.0320 C   0  0  0  0  0  0  0  0  0  0  0  0
  188.7600  176.7250  141.7520 C   0  0  2  0  0  3  0  0  0  0  0  0
  186.3540  178.1440  143.3130 C   0  0  0  0  0  0  0  0  0  0  0  0
  187.9560  178.2070  139.8600 C   0  0  0  0  0  2  0  0  0  0  0  0
  185.6630  178.4710  146.0410 C   0  0  0  0  0  3  0  0  0  0  0  0
  190.3580  176.4640  139.8700 C   0  0  0  0  0  2  0  0  0  0  0  0
  190.2340  176.7650  141.3570 C   0  0  0  0  0  2  0  0  0  0  0  0
  188.0060  178.0170  141.3690 C   0  0  1  0  0  3  0  0  0  0  0  0
  191.3370  176.5750  147.2440 C   0  0  0  0  0  3  0  0  0  0  0  0
  189.6110  177.1230  145.1070 C   0  0  0  0  0  0  0  0  0  0  0  0
  190.9180  176.6880  144.8610 C   0  0  0  0  0  3  0  0  0  0  0  0
  191.7790  176.4130  145.9280 C   0  0  0  0  0  3  0  0  0  0  0  0
  190.0320  177.0120  147.4940 C   0  0  0  0  0  3  0  0  0  0  0  0
  189.1710  177.2880  146.4280 C   0  0  0  0  0  3  0  0  0  0  0  0
  1 12  1  0  0  0  0
  2  6  1  0  0  0  0
  3 16  1  0  0  0  0
  6 18  2  0  0  0  0
  7 11  1  0  0  0  0
  7 13  1  0  0  0  0
  8 17  1  0  0  0  0
  9  7  2  0  0  0  0
 10  8  1  0  0  0  0
 10 19  1  0  0  0  0
 11 14  2  0  0  0  0
 12  2  1  0  0  0  0
 12 23  1  1  0  0  0
 13  5  1  1  0  0  0
 13  4  1  0  0  0  0
 14  4  1  0  0  0  0
 14 18  1  0  0  0  0
 15 20  1  1  0  0  0
 15  1  1  0  0  0  0
 16 11  1  0  0  0  0
 16  2  2  0  0  0  0
 19 20  1  0  0  0  0
 21 17  1  6  0  0  0
 21 15  1  0  0  0  0
 21  3  1  0  0  0  0
 22 26  1  0  0  0  0
 23 27  1  0  0  0  0
 24 23  2  0  0  0  0
 24 25  1  0  0  0  0
 25 22  2  0  0  0  0
 27 26  2  0  0  0  0
M  END
>  <MODEL>
1

>  <REMARK>
 VINA RESULT:     -11.1      0.000      0.000
  Name = 
  1 active torsions:
  status: ('A' for Active; 'I' for Inactive)
    1  A    between atoms: C_9  and  C_15
                            x       y       z     vdW  Elec       q    Type
                         _______ _______ _______ _____ _____    ______ ____

>  <TORSDO>
F 1

$$$$
=
 OpenBabel10272400573D

 27 31  0  0  1  0  0  0  0  0999 V2000
  187.5760  176.6770  143.7930 O   0  0  0  0  0  0  0  0  0  0  0  0
  185.8810  178.2880  144.2600 C   0  0  0  0  0  0  0  0  0  0  0  0
  186.0650  178.0080  141.7760 N   0  0  0  0  0  2  0  0  0  0  0  0
  181.7490  179.1830  143.5770 C   0  0  0  0  0  2  0  0  0  0  0  0
  180.8020  177.9170  141.7120 N   0  0  0  0  0  1  0  0  0  0  0  0
  185.0740  178.6130  145.3750 C   0  0  0  0  0  3  0  0  0  0  0  0
  183.0990  178.6450  141.6730 C   0  0  0  0  0  0  0  0  0  0  0  0
  189.3570  178.6710  140.1660 C   0  0  0  0  0  2  0  0  0  0  0  0
  183.4920  178.4400  140.4950 O   0  0  0  0  0  0  0  0  0  0  0  0
  190.5040  177.6630  140.2990 C   0  0  0  0  0  2  0  0  0  0  0  0
  183.9360  178.5790  142.8500 C   0  0  0  0  0  0  0  0  0  0  0  0
  187.3350  177.9040  144.4390 C   0  0  1  0  0  3  0  0  0  0  0  0
  181.7000  179.0090  142.0460 C   0  0  2  0  0  3  0  0  0  0  0  0
  183.1670  178.8870  143.9420 C   0  0  0  0  0  0  0  0  0  0  0  0
  188.1600  176.9130  142.5260 C   0  0  2  0  0  3  0  0  0  0  0  0
  185.3030  178.2900  142.9610 C   0  0  0  0  0  0  0  0  0  0  0  0
  187.9760  178.0370  140.2620 C   0  0  0  0  0  2  0  0  0  0  0  0
  183.7150  178.9190  145.2210 C   0  0  0  0  0  3  0  0  0  0  0  0
  190.3100  176.5560  141.3400 C   0  0  0  0  0  2  0  0  0  0  0  0
  189.6760  177.0440  142.6350 C   0  0  0  0  0  2  0  0  0  0  0  0
  187.5210  178.0600  141.7130 C   0  0  1  0  0  3  0  0  0  0  0  0
  188.7290  177.7610  148.5060 C   0  0  0  0  0  3  0  0  0  0  0  0
  187.8030  177.8490  145.8630 C   0  0  0  0  0  0  0  0  0  0  0  0
  189.0530  177.2880  146.1520 C   0  0  0  0  0  3  0  0  0  0  0  0
  189.5140  177.2430  147.4710 C   0  0  0  0  0  3  0  0  0  0  0  0
  187.4820  178.3250  148.2210 C   0  0  0  0  0  3  0  0  0  0  0  0
  187.0200  178.3720  146.9020 C   0  0  0  0  0  3  0  0  0  0  0  0
  1 12  1  0  0  0  0
  2 12  1  0  0  0  0
  2  6  1  0  0  0  0
  3 16  1  0  0  0  0
  4 14  1  0  0  0  0
  7 13  1  0  0  0  0
  7 11  1  0  0  0  0
  8 17  1  0  0  0  0
  8 10  1  0  0  0  0
  9  7  2  0  0  0  0
 10 19  1  0  0  0  0
 11 16  1  0  0  0  0
 11 14  2  0  0  0  0
 12 23  1  1  0  0  0
 13  5  1  1  0  0  0
 13  4  1  0  0  0  0
 14 18  1  0  0  0  0
 15 20  1  1  0  0  0
 15  1  1  0  0  0  0
 16  2  2  0  0  0  0
 18  6  2  0  0  0  0
 19 20  1  0  0  0  0
 21 17  1  6  0  0  0
 21  3  1  0  0  0  0
 21 15  1  0  0  0  0
 23 24  2  0  0  0  0
 23 27  1  0  0  0  0
 24 25  1  0  0  0  0
 25 22  2  0  0  0  0
 26 22  1  0  0  0  0
 27 26  2  0  0  0  0
M  END
>  <MODEL>
2

>  <REMARK>
 VINA RESULT:     -10.9      1.212      1.830
  Name = 
  1 active torsions:
  status: ('A' for Active; 'I' for Inactive)
    1  A    between atoms: C_9  and  C_15
                            x       y       z     vdW  Elec       q    Type
                         _______ _______ _______ _____ _____    ______ ____

>  <TORSDO>
F 1

$$$$
=
 OpenBabel10272400573D

 27 31  0  0  1  0  0  0  0  0999 V2000
  187.6040  179.0530  142.0120 O   0  0  0  0  0  0  0  0  0  0  0  0
  187.4490  177.6190  143.9110 C   0  0  0  0  0  0  0  0  0  0  0  0
  189.7400  177.3990  142.9210 N   0  0  0  0  0  2  0  0  0  0  0  0
  189.2890  176.7370  147.6760 C   0  0  0  0  0  2  0  0  0  0  0  0
  191.5530  177.6400  147.8580 N   0  0  0  0  0  1  0  0  0  0  0  0
  186.6240  177.5450  145.0580 C   0  0  0  0  0  3  0  0  0  0  0  0
  190.7030  176.8470  145.7470 C   0  0  0  0  0  0  0  0  0  0  0  0
  190.0300  176.3300  139.3660 C   0  0  0  0  0  2  0  0  0  0  0  0
  191.7020  176.8050  144.9820 O   0  0  0  0  0  0  0  0  0  0  0  0
  189.7060  177.3070  138.2310 C   0  0  0  0  0  2  0  0  0  0  0  0
  189.3480  177.1180  145.3250 C   0  0  0  0  0  0  0  0  0  0  0  0
  186.8700  177.9850  142.5600 C   0  0  1  0  0  3  0  0  0  0  0  0
  190.7560  176.6080  147.2200 C   0  0  2  0  0  3  0  0  0  0  0  0
  188.5340  177.0540  146.4260 C   0  0  0  0  0  0  0  0  0  0  0  0
  188.5460  178.5530  141.0810 C   0  0  2  0  0  3  0  0  0  0  0  0
  188.8440  177.3790  144.0440 C   0  0  0  0  0  0  0  0  0  0  0  0
  190.5090  177.0130  140.6390 C   0  0  0  0  0  2  0  0  0  0  0  0
  187.1620  177.2580  146.3200 C   0  0  0  0  0  3  0  0  0  0  0  0
  188.9980  178.6030  138.6410 C   0  0  0  0  0  2  0  0  0  0  0  0
  187.9210  178.3990  139.6970 C   0  0  0  0  0  2  0  0  0  0  0  0
  189.3100  177.2890  141.5330 C   0  0  1  0  0  3  0  0  0  0  0  0
  182.6570  178.8510  142.5510 C   0  0  0  0  0  3  0  0  0  0  0  0
  185.4040  178.3040  142.5660 C   0  0  0  0  0  0  0  0  0  0  0  0
  184.6330  178.0020  141.4380 C   0  0  0  0  0  3  0  0  0  0  0  0
  183.2620  178.2760  141.4290 C   0  0  0  0  0  3  0  0  0  0  0  0
  183.4230  179.1510  143.6820 C   0  0  0  0  0  3  0  0  0  0  0  0
  184.7930  178.8760  143.6910 C   0  0  0  0  0  3  0  0  0  0  0  0
  1 12  1  0  0  0  0
  2 16  2  0  0  0  0
  2  6  1  0  0  0  0
  3 16  1  0  0  0  0
  6 18  2  0  0  0  0
  7 13  1  0  0  0  0
  8 17  1  0  0  0  0
  9  7  2  0  0  0  0
 10 19  1  0  0  0  0
 10  8  1  0  0  0  0
 11  7  1  0  0  0  0
 11 14  2  0  0  0  0
 12 23  1  1  0  0  0
 12  2  1  0  0  0  0
 13  4  1  0  0  0  0
 13  5  1  1  0  0  0
 14  4  1  0  0  0  0
 15 20  1  6  0  0  0
 15 21  1  0  0  0  0
 15  1  1  0  0  0  0
 16 11  1  0  0  0  0
 18 14  1  0  0  0  0
 19 20  1  0  0  0  0
 21 17  1  6  0  0  0
 21  3  1  0  0  0  0
 22 26  1  0  0  0  0
 23 27  1  0  0  0  0
 24 23  2  0  0  0  0
 25 24  1  0  0  0  0
 25 22  2  0  0  0  0
 26 27  2  0  0  0  0
M  END
>  <MODEL>
3

>  <REMARK>
 VINA RESULT:     -10.9      2.104      5.680
  Name = 
  1 active torsions:
  status: ('A' for Active; 'I' for Inactive)
    1  A    between atoms: C_9  and  C_15
                            x       y       z     vdW  Elec       q    Type
                         _______ _______ _______ _____ _____    ______ ____

>  <TORSDO>
F 1

$$$$
=
 OpenBabel10272400573D

 27 31  0  0  1  0  0  0  0  0999 V2000
  187.4790  176.8730  143.2300 O   0  0  0  0  0  0  0  0  0  0  0  0
  186.9650  178.2770  141.3710 C   0  0  0  0  0  0  0  0  0  0  0  0
  189.3760  177.6090  141.2340 N   0  0  0  0  0  2  0  0  0  0  0  0
  187.0480  178.4340  137.0920 C   0  0  0  0  0  2  0  0  0  0  0  0
  188.5200  176.7460  136.1120 N   0  0  0  0  0  1  0  0  0  0  0  0
  185.7860  178.6670  140.6930 C   0  0  0  0  0  3  0  0  0  0  0  0
  189.0580  177.7820  138.2200 C   0  0  0  0  0  0  0  0  0  0  0  0
  191.6070  178.4590  144.0920 C   0  0  0  0  0  2  0  0  0  0  0  0
  190.2440  177.4380  138.4650 O   0  0  0  0  0  0  0  0  0  0  0  0
  191.5300  177.6670  145.4010 C   0  0  0  0  0  2  0  0  0  0  0  0
  188.0460  178.0380  139.2190 C   0  0  0  0  0  0  0  0  0  0  0  0
  186.9850  178.1440  142.8790 C   0  0  1  0  0  3  0  0  0  0  0  0
  188.5070  177.9970  136.8490 C   0  0  2  0  0  3  0  0  0  0  0  0
  186.8940  178.4130  138.5780 C   0  0  0  0  0  0  0  0  0  0  0  0
  188.8480  176.9740  143.5720 C   0  0  2  0  0  3  0  0  0  0  0  0
  188.1310  177.9750  140.6170 C   0  0  0  0  0  0  0  0  0  0  0  0
  191.1850  177.6570  142.8690 C   0  0  0  0  0  2  0  0  0  0  0  0
  185.7460  178.7410  139.2940 C   0  0  0  0  0  3  0  0  0  0  0  0
  190.3220  176.7360  145.5540 C   0  0  0  0  0  2  0  0  0  0  0  0
  189.0220  177.3390  145.0430 C   0  0  0  0  0  2  0  0  0  0  0  0
  189.6960  177.8610  142.6340 C   0  0  1  0  0  3  0  0  0  0  0  0
  183.2390  178.9160  144.8490 C   0  0  0  0  0  3  0  0  0  0  0  0
  185.6700  178.4010  143.5540 C   0  0  0  0  0  0  0  0  0  0  0  0
  185.6290  178.5330  144.9470 C   0  0  0  0  0  3  0  0  0  0  0  0
  184.4160  178.7880  145.5930 C   0  0  0  0  0  3  0  0  0  0  0  0
  183.2760  178.7880  143.4570 C   0  0  0  0  0  3  0  0  0  0  0  0
  184.4890  178.5340  142.8100 C   0  0  0  0  0  3  0  0  0  0  0  0
  1 15  1  0  0  0  0
  2 12  1  0  0  0  0
  3 21  1  0  0  0  0
  4 14  1  0  0  0  0
  6  2  1  0  0  0  0
  7  9  2  0  0  0  0
  7 11  1  0  0  0  0
  8 10  1  0  0  0  0
 10 19  1  0  0  0  0
 11 16  1  0  0  0  0
 12  1  1  0  0  0  0
 12 23  1  6  0  0  0
 13  5  1  6  0  0  0
 13  4  1  0  0  0  0
 13  7  1  0  0  0  0
 14 11  2  0  0  0  0
 14 18  1  0  0  0  0
 15 20  1  1  0  0  0
 16  3  1  0  0  0  0
 16  2  2  0  0  0  0
 17  8  1  0  0  0  0
 18  6  2  0  0  0  0
 20 19  1  0  0  0  0
 21 17  1  6  0  0  0
 21 15  1  0  0  0  0
 22 25  1  0  0  0  0
 23 24  1  0  0  0  0
 24 25  2  0  0  0  0
 26 22  2  0  0  0  0
 27 26  1  0  0  0  0
 27 23  2  0  0  0  0
M  END
>  <MODEL>
4

>  <REMARK>
 VINA RESULT:     -10.3      2.224      6.048
  Name = 
  1 active torsions:
  status: ('A' for Active; 'I' for Inactive)
    1  A    between atoms: C_9  and  C_15
                            x       y       z     vdW  Elec       q    Type
                         _______ _______ _______ _____ _____    ______ ____

>  <TORSDO>
F 1

$$$$
=
 OpenBabel10272400573D

 27 31  0  0  1  0  0  0  0  0999 V2000
  184.8610  179.6220  143.2430 O   0  0  0  0  0  0  0  0  0  0  0  0
  186.6100  178.2600  142.3620 C   0  0  0  0  0  0  0  0  0  0  0  0
  184.9100  178.6530  140.5630 N   0  0  0  0  0  2  0  0  0  0  0  0
  189.4970  178.0380  139.2060 C   0  0  0  0  0  2  0  0  0  0  0  0
  188.9820  179.5380  137.3460 N   0  0  0  0  0  1  0  0  0  0  0  0
  187.9570  177.9960  142.7050 C   0  0  0  0  0  3  0  0  0  0  0  0
  187.2210  178.4770  138.6020 C   0  0  0  0  0  0  0  0  0  0  0  0
  181.3960  177.5970  141.1960 C   0  0  0  0  0  2  0  0  0  0  0  0
  186.1690  178.6890  137.9430 O   0  0  0  0  0  0  0  0  0  0  0  0
  180.4960  178.4110  142.1320 C   0  0  0  0  0  2  0  0  0  0  0  0
  187.2860  178.3480  140.0400 C   0  0  0  0  0  0  0  0  0  0  0  0
  185.5510  178.4100  143.4340 C   0  0  1  0  0  3  0  0  0  0  0  0
  188.5760  178.3060  137.9990 C   0  0  2  0  0  3  0  0  0  0  0  0
  188.5870  178.0960  140.3910 C   0  0  0  0  0  0  0  0  0  0  0  0
  183.6430  179.3740  142.5680 C   0  0  2  0  0  3  0  0  0  0  0  0
  186.2610  178.4200  140.9930 C   0  0  0  0  0  0  0  0  0  0  0  0
  182.4830  178.4240  140.5250 C   0  0  0  0  0  2  0  0  0  0  0  0
  188.9510  177.9080  141.7210 C   0  0  0  0  0  3  0  0  0  0  0  0
  181.1980  179.4730  142.9860 C   0  0  0  0  0  2  0  0  0  0  0  0
  182.5340  179.0110  143.5520 C   0  0  0  0  0  2  0  0  0  0  0  0
  183.7360  178.3860  141.3850 C   0  0  1  0  0  3  0  0  0  0  0  0
  186.9540  178.1320  147.4910 C   0  0  0  0  0  3  0  0  0  0  0  0
  186.0580  178.3110  144.8420 C   0  0  0  0  0  0  0  0  0  0  0  0
  185.5340  179.1630  145.8210 C   0  0  0  0  0  3  0  0  0  0  0  0
  185.9820  179.0750  147.1430 C   0  0  0  0  0  3  0  0  0  0  0  0
  187.4780  177.2770  146.5170 C   0  0  0  0  0  3  0  0  0  0  0  0
  187.0300  177.3630  145.1960 C   0  0  0  0  0  3  0  0  0  0  0  0
  1 12  1  0  0  0  0
  2  6  1  0  0  0  0
  2 12  1  0  0  0  0
  3 16  1  0  0  0  0
  3 21  1  0  0  0  0
  4 14  1  0  0  0  0
  7 11  1  0  0  0  0
  8 10  1  0  0  0  0
  9  7  2  0  0  0  0
 10 19  1  0  0  0  0
 11 14  2  0  0  0  0
 11 16  1  0  0  0  0
 12 23  1  1  0  0  0
 13  5  1  1  0  0  0
 13  7  1  0  0  0  0
 13  4  1  0  0  0  0
 14 18  1  0  0  0  0
 15  1  1  0  0  0  0
 15 20  1  1  0  0  0
 16  2  2  0  0  0  0
 17  8  1  0  0  0  0
 18  6  2  0  0  0  0
 19 20  1  0  0  0  0
 21 17  1  6  0  0  0
 21 15  1  0  0  0  0
 23 27  2  0  0  0  0
 23 24  1  0  0  0  0
 24 25  2  0  0  0  0
 25 22  1  0  0  0  0
 26 22  2  0  0  0  0
 27 26  1  0  0  0  0
M  END
>  <MODEL>
5

>  <REMARK>
 VINA RESULT:     -10.3      2.314      6.053
  Name = 
  1 active torsions:
  status: ('A' for Active; 'I' for Inactive)
    1  A    between atoms: C_9  and  C_15
                            x       y       z     vdW  Elec       q    Type
                         _______ _______ _______ _____ _____    ______ ____

>  <TORSDO>
F 1

$$$$
=
 OpenBabel10272400573D

 27 31  0  0  1  0  0  0  0  0999 V2000
  186.7230  176.8490  144.4670 O   0  0  0  0  0  0  0  0  0  0  0  0
  187.2950  178.0670  142.4980 C   0  0  0  0  0  0  0  0  0  0  0  0
  189.4050  177.3300  143.6310 N   0  0  0  0  0  2  0  0  0  0  0  0
  189.4880  177.7830  138.8310 C   0  0  0  0  0  2  0  0  0  0  0  0
  191.1260  175.9680  138.8460 N   0  0  0  0  0  1  0  0  0  0  0  0
  186.6360  178.4140  141.2950 C   0  0  0  0  0  3  0  0  0  0  0  0
  190.6280  177.2010  140.8550 C   0  0  0  0  0  0  0  0  0  0  0  0
  189.9910  178.4130  147.1450 C   0  0  0  0  0  2  0  0  0  0  0  0
  191.5110  176.8560  141.6840 O   0  0  0  0  0  0  0  0  0  0  0  0
  189.2230  177.7610  148.2980 C   0  0  0  0  0  2  0  0  0  0  0  0
  189.2760  177.5830  141.1950 C   0  0  0  0  0  0  0  0  0  0  0  0
  186.5590  178.0880  143.8210 C   0  0  1  0  0  3  0  0  0  0  0  0
  190.8410  177.2890  139.3800 C   0  0  2  0  0  3  0  0  0  0  0  0
  188.6200  177.9190  140.0390 C   0  0  0  0  0  0  0  0  0  0  0  0
  187.7490  176.9500  145.4360 C   0  0  2  0  0  3  0  0  0  0  0  0
  188.6570  177.6610  142.4500 C   0  0  0  0  0  0  0  0  0  0  0  0
  190.1710  177.5010  145.9400 C   0  0  0  0  0  2  0  0  0  0  0  0
  187.2960  178.3450  140.0610 C   0  0  0  0  0  3  0  0  0  0  0  0
  188.0320  176.8800  147.9010 C   0  0  0  0  0  2  0  0  0  0  0  0
  187.2010  177.4600  146.7660 C   0  0  0  0  0  2  0  0  0  0  0  0
  189.0100  177.7160  144.9800 C   0  0  1  0  0  3  0  0  0  0  0  0
  182.3970  179.1520  143.5960 C   0  0  0  0  0  3  0  0  0  0  0  0
  185.1050  178.4450  143.7300 C   0  0  0  0  0  0  0  0  0  0  0  0
  184.4150  178.8120  144.8920 C   0  0  0  0  0  3  0  0  0  0  0  0
  183.0640  179.1640  144.8250 C   0  0  0  0  0  3  0  0  0  0  0  0
  183.0830  178.7880  142.4330 C   0  0  0  0  0  3  0  0  0  0  0  0
  184.4340  178.4380  142.4980 C   0  0  0  0  0  3  0  0  0  0  0  0
  1 15  1  0  0  0  0
  2 12  1  0  0  0  0
  3 21  1  0  0  0  0
  4 13  1  0  0  0  0
  4 14  1  0  0  0  0
  6  2  2  0  0  0  0
  7 11  1  0  0  0  0
  7  9  2  0  0  0  0
  8 10  1  0  0  0  0
 11 16  2  0  0  0  0
 12 23  1  6  0  0  0
 12  1  1  0  0  0  0
 13  5  1  6  0  0  0
 13  7  1  0  0  0  0
 14 18  2  0  0  0  0
 14 11  1  0  0  0  0
 15 20  1  1  0  0  0
 16  2  1  0  0  0  0
 16  3  1  0  0  0  0
 17  8  1  0  0  0  0
 18  6  1  0  0  0  0
 19 10  1  0  0  0  0
 20 19  1  0  0  0  0
 21 15  1  0  0  0  0
 21 17  1  1  0  0  0
 22 25  1  0  0  0  0
 23 24  1  0  0  0  0
 25 24  2  0  0  0  0
 26 27  1  0  0  0  0
 26 22  2  0  0  0  0
 27 23  2  0  0  0  0
M  END
>  <MODEL>
6

>  <REMARK>
 VINA RESULT:     -10.0      2.163      6.821
  Name = 
  1 active torsions:
  status: ('A' for Active; 'I' for Inactive)
    1  A    between atoms: C_9  and  C_15
                            x       y       z     vdW  Elec       q    Type
                         _______ _______ _______ _____ _____    ______ ____

>  <TORSDO>
F 1

$$$$
=
 OpenBabel10272400573D

 27 31  0  0  1  0  0  0  0  0999 V2000
  187.2880  179.2040  141.5940 O   0  0  0  0  0  0  0  0  0  0  0  0
  186.7150  177.9660  143.5500 C   0  0  0  0  0  0  0  0  0  0  0  0
  189.1600  177.6650  143.0940 N   0  0  0  0  0  2  0  0  0  0  0  0
  187.7050  177.4780  147.6880 C   0  0  0  0  0  2  0  0  0  0  0  0
  189.8920  178.4120  148.2540 N   0  0  0  0  0  1  0  0  0  0  0  0
  185.6650  178.0010  144.4970 C   0  0  0  0  0  3  0  0  0  0  0  0
  189.4960  177.4060  146.1000 C   0  0  0  0  0  0  0  0  0  0  0  0
  190.1800  176.2490  139.8050 C   0  0  0  0  0  2  0  0  0  0  0  0
  190.6340  177.2940  145.5720 O   0  0  0  0  0  0  0  0  0  0  0  0
  190.1170  177.1050  138.5360 C   0  0  0  0  0  2  0  0  0  0  0  0
  188.2650  177.6230  145.3760 C   0  0  0  0  0  0  0  0  0  0  0  0
  186.4400  178.1910  142.0780 C   0  0  1  0  0  3  0  0  0  0  0  0
  189.2330  177.3150  147.5670 C   0  0  2  0  0  3  0  0  0  0  0  0
  187.2360  177.6630  146.2810 C   0  0  0  0  0  0  0  0  0  0  0  0
  188.3980  178.6210  140.9370 C   0  0  2  0  0  3  0  0  0  0  0  0
  188.0470  177.7510  143.9980 C   0  0  0  0  0  0  0  0  0  0  0  0
  190.3890  177.0590  141.0770 C   0  0  0  0  0  2  0  0  0  0  0  0
  185.9200  177.8450  145.8670 C   0  0  0  0  0  3  0  0  0  0  0  0
  189.3570  178.4310  138.6560 C   0  0  0  0  0  2  0  0  0  0  0  0
  188.0780  178.3250  139.4750 C   0  0  0  0  0  2  0  0  0  0  0  0
  189.0310  177.4140  141.6640 C   0  0  1  0  0  3  0  0  0  0  0  0
  182.3460  179.0420  141.0670 C   0  0  0  0  0  3  0  0  0  0  0  0
  185.0100  178.4990  141.7410 C   0  0  0  0  0  0  0  0  0  0  0  0
  184.6640  178.7800  140.4150 C   0  0  0  0  0  3  0  0  0  0  0  0
  183.3350  179.0520  140.0780 C   0  0  0  0  0  3  0  0  0  0  0  0
  182.6870  178.7580  142.3930 C   0  0  0  0  0  3  0  0  0  0  0  0
  184.0160  178.4840  142.7300 C   0  0  0  0  0  3  0  0  0  0  0  0
  1 12  1  0  0  0  0
  2 16  2  0  0  0  0
  2  6  1  0  0  0  0
  3 16  1  0  0  0  0
  6 18  2  0  0  0  0
  7 13  1  0  0  0  0
  8 17  1  0  0  0  0
  9  7  2  0  0  0  0
 10 19  1  0  0  0  0
 10  8  1  0  0  0  0
 11  7  1  0  0  0  0
 11 14  2  0  0  0  0
 12 23  1  1  0  0  0
 12  2  1  0  0  0  0
 13  4  1  0  0  0  0
 13  5  1  1  0  0  0
 14  4  1  0  0  0  0
 15 20  1  6  0  0  0
 15  1  1  0  0  0  0
 15 21  1  0  0  0  0
 16 11  1  0  0  0  0
 18 14  1  0  0  0  0
 19 20  1  0  0  0  0
 21 17  1  6  0  0  0
 21  3  1  0  0  0  0
 22 26  1  0  0  0  0
 23 27  1  0  0  0  0
 24 23  2  0  0  0  0
 25 24  1  0  0  0  0
 25 22  2  0  0  0  0
 26 27  2  0  0  0  0
M  END
>  <MODEL>
7

>  <REMARK>
 VINA RESULT:     -10.0      2.131      5.590
  Name = 
  1 active torsions:
  status: ('A' for Active; 'I' for Inactive)
    1  A    between atoms: C_9  and  C_15
                            x       y       z     vdW  Elec       q    Type
                         _______ _______ _______ _____ _____    ______ ____

>  <TORSDO>
F 1

$$$$
=
 OpenBabel10272400573D

 27 31  0  0  1  0  0  0  0  0999 V2000
  186.0930  179.3420  143.8280 O   0  0  0  0  0  0  0  0  0  0  0  0
  187.4890  177.8710  142.5710 C   0  0  0  0  0  0  0  0  0  0  0  0
  185.6090  178.6460  141.1060 N   0  0  0  0  0  2  0  0  0  0  0  0
  189.8150  177.6140  138.9850 C   0  0  0  0  0  2  0  0  0  0  0  0
  189.2370  179.3440  137.3560 N   0  0  0  0  0  1  0  0  0  0  0  0
  188.8230  177.4110  142.6700 C   0  0  0  0  0  3  0  0  0  0  0  0
  187.5550  178.3850  138.7910 C   0  0  0  0  0  0  0  0  0  0  0  0
  182.1180  177.9680  142.2110 C   0  0  0  0  0  2  0  0  0  0  0  0
  186.4560  178.7880  138.3290 O   0  0  0  0  0  0  0  0  0  0  0  0
  181.4870  178.7880  143.3410 C   0  0  0  0  0  2  0  0  0  0  0  0
  187.8170  178.1070  140.1850 C   0  0  0  0  0  0  0  0  0  0  0  0
  186.6310  178.0420  143.8080 C   0  0  1  0  0  3  0  0  0  0  0  0
  188.7690  178.1110  137.9660 C   0  0  2  0  0  3  0  0  0  0  0  0
  189.1090  177.6640  140.3010 C   0  0  0  0  0  0  0  0  0  0  0  0
  184.7650  179.3130  143.3400 C   0  0  2  0  0  3  0  0  0  0  0  0
  186.9640  178.2080  141.2940 C   0  0  0  0  0  0  0  0  0  0  0  0
  183.1940  178.7200  141.4410 C   0  0  0  0  0  2  0  0  0  0  0  0
  189.6370  177.3020  141.5360 C   0  0  0  0  0  3  0  0  0  0  0  0
  182.4460  179.6660  144.1520 C   0  0  0  0  0  2  0  0  0  0  0  0
  183.7760  178.9910  144.4570 C   0  0  0  0  0  2  0  0  0  0  0  0
  184.5460  178.4430  142.0820 C   0  0  1  0  0  3  0  0  0  0  0  0
  188.6670  177.2020  147.5030 C   0  0  0  0  0  3  0  0  0  0  0  0
  187.3250  177.7410  145.1040 C   0  0  0  0  0  0  0  0  0  0  0  0
  188.6330  177.2430  145.0820 C   0  0  0  0  0  3  0  0  0  0  0  0
  189.3020  176.9730  146.2790 C   0  0  0  0  0  3  0  0  0  0  0  0
  187.3620  177.7020  147.5310 C   0  0  0  0  0  3  0  0  0  0  0  0
  186.6920  177.9740  146.3340 C   0  0  0  0  0  3  0  0  0  0  0  0
  2  6  1  0  0  0  0
  2 12  1  0  0  0  0
  3 16  1  0  0  0  0
  3 21  1  0  0  0  0
  4 14  1  0  0  0  0
  7 11  1  0  0  0  0
  8 10  1  0  0  0  0
  9  7  2  0  0  0  0
 10 19  1  0  0  0  0
 11 14  2  0  0  0  0
 11 16  1  0  0  0  0
 12  1  1  0  0  0  0
 12 23  1  1  0  0  0
 13  5  1  1  0  0  0
 13  7  1  0  0  0  0
 13  4  1  0  0  0  0
 14 18  1  0  0  0  0
 15  1  1  0  0  0  0
 15 20  1  1  0  0  0
 16  2  2  0  0  0  0
 17  8  1  0  0  0  0
 18  6  2  0  0  0  0
 19 20  1  0  0  0  0
 21 17  1  6  0  0  0
 21 15  1  0  0  0  0
 22 26  1  0  0  0  0
 23 27  1  0  0  0  0
 24 23  2  0  0  0  0
 24 25  1  0  0  0  0
 25 22  2  0  0  0  0
 27 26  2  0  0  0  0
M  END
>  <MODEL>
8

>  <REMARK>
 VINA RESULT:      -9.3      1.828      5.620
  Name = 
  1 active torsions:
  status: ('A' for Active; 'I' for Inactive)
    1  A    between atoms: C_9  and  C_15
                            x       y       z     vdW  Elec       q    Type
                         _______ _______ _______ _____ _____    ______ ____

>  <TORSDO>
F 1

$$$$
=
 OpenBabel10272400573D

 27 31  0  0  1  0  0  0  0  0999 V2000
  188.9200  178.4500  145.0050 O   0  0  0  0  0  0  0  0  0  0  0  0
  189.3990  177.0980  143.0990 C   0  0  0  0  0  0  0  0  0  0  0  0
  187.2040  178.2510  142.7380 N   0  0  0  0  0  2  0  0  0  0  0  0
  189.8660  177.2440  138.8450 C   0  0  0  0  0  2  0  0  0  0  0  0
  188.8960  179.2580  137.8560 N   0  0  0  0  0  1  0  0  0  0  0  0
  190.5610  176.5220  142.5340 C   0  0  0  0  0  3  0  0  0  0  0  0
  187.8870  178.2160  139.7800 C   0  0  0  0  0  0  0  0  0  0  0  0
  184.4850  177.6860  145.2190 C   0  0  0  0  0  2  0  0  0  0  0  0
  186.7680  178.7780  139.9130 O   0  0  0  0  0  0  0  0  0  0  0  0
  184.5360  178.3590  146.5950 C   0  0  0  0  0  2  0  0  0  0  0  0
  188.6860  177.6930  140.8650 C   0  0  0  0  0  0  0  0  0  0  0  0
  189.2010  177.1320  144.6010 C   0  0  1  0  0  3  0  0  0  0  0  0
  188.5670  177.9840  138.4710 C   0  0  2  0  0  3  0  0  0  0  0  0
  189.8190  177.1340  140.3350 C   0  0  0  0  0  0  0  0  0  0  0  0
  187.5240  178.6090  145.1700 C   0  0  2  0  0  3  0  0  0  0  0  0
  188.4260  177.6800  142.2430 C   0  0  0  0  0  0  0  0  0  0  0  0
  185.2160  178.4640  144.1340 C   0  0  0  0  0  2  0  0  0  0  0  0
  190.7740  176.5340  141.1490 C   0  0  0  0  0  3  0  0  0  0  0  0
  185.8700  179.0110  146.9760 C   0  0  0  0  0  2  0  0  0  0  0  0
  187.0850  178.1900  146.5710 C   0  0  0  0  0  2  0  0  0  0  0  0
  186.6550  177.9780  144.0600 C   0  0  1  0  0  3  0  0  0  0  0  0
  192.4260  175.5090  146.9390 C   0  0  0  0  0  3  0  0  0  0  0  0
  190.3380  176.5680  145.4010 C   0  0  0  0  0  0  0  0  0  0  0  0
  190.4620  176.9140  146.7520 C   0  0  0  0  0  3  0  0  0  0  0  0
  191.5050  176.3860  147.5190 C   0  0  0  0  0  3  0  0  0  0  0  0
  192.3040  175.1580  145.5910 C   0  0  0  0  0  3  0  0  0  0  0  0
  191.2610  175.6850  144.8230 C   0  0  0  0  0  3  0  0  0  0  0  0
  1 15  1  0  0  0  0
  2 12  1  0  0  0  0
  3 21  1  0  0  0  0
  4 14  1  0  0  0  0
  6  2  1  0  0  0  0
  7  9  2  0  0  0  0
  7 11  1  0  0  0  0
  8 10  1  0  0  0  0
 10 19  1  0  0  0  0
 11 16  1  0  0  0  0
 12  1  1  0  0  0  0
 12 23  1  1  0  0  0
 13  5  1  1  0  0  0
 13  4  1  0  0  0  0
 13  7  1  0  0  0  0
 14 11  2  0  0  0  0
 14 18  1  0  0  0  0
 15 20  1  1  0  0  0
 16  3  1  0  0  0  0
 16  2  2  0  0  0  0
 17  8  1  0  0  0  0
 18  6  2  0  0  0  0
 20 19  1  0  0  0  0
 21 17  1  6  0  0  0
 21 15  1  0  0  0  0
 22 25  1  0  0  0  0
 23 24  1  0  0  0  0
 24 25  2  0  0  0  0
 26 22  2  0  0  0  0
 27 23  2  0  0  0  0
 27 26  1  0  0  0  0
M  END
>  <MODEL>
9

>  <REMARK>
 VINA RESULT:      -8.9      1.749      5.435
  Name = 
  1 active torsions:
  status: ('A' for Active; 'I' for Inactive)
    1  A    between atoms: C_9  and  C_15
                            x       y       z     vdW  Elec       q    Type
                         _______ _______ _______ _____ _____    ______ ____

>  <TORSDO>
F 1

$$$$
