=
 OpenBabel10272401523D

 28 31  0  0  1  0  0  0  0  0999 V2000
  189.8510  177.0570  141.6220 C   0  0  0  0  0  0  0  0  0  0  0  0
  185.4780  178.4300  143.1820 C   0  0  0  0  0  2  0  0  0  0  0  0
  190.1490  178.5440  144.8570 O   0  0  0  0  0  1  0  0  0  0  0  0
  185.2190  178.5910  146.2960 C   0  0  0  0  0  3  0  0  0  0  0  0
  187.6990  177.5390  143.8230 C   0  0  2  0  0  3  0  0  0  0  0  0
  183.4220  178.8880  144.5620 C   0  0  0  0  0  0  0  0  0  0  0  0
  186.3070  177.9700  144.1170 C   0  0  1  0  0  3  0  0  0  0  0  0
  187.5270  178.0130  146.1010 O   0  0  0  0  0  0  0  0  0  0  0  0
  183.8250  178.6690  145.8150 C   0  0  0  0  0  3  0  0  0  0  0  0
  190.1840  176.2280  144.0640 C   0  0  2  0  0  3  0  0  0  0  0  0
  187.8660  176.3820  142.9590 N   0  0  0  0  0  2  0  0  0  0  0  0
  186.2810  178.2790  145.5480 C   0  0  0  0  0  0  0  0  0  0  0  0
  191.9720  177.5290  142.8730 C   0  0  0  0  0  2  0  0  0  0  0  0
  189.7340  177.2430  145.1550 C   0  0  2  0  0  3  0  0  0  0  0  0
  191.6780  176.3060  143.7400 C   0  0  0  0  0  2  0  0  0  0  0  0
  182.0920  178.8730  144.3030 F   0  0  0  0  0  0  0  0  0  0  0  0
  184.3390  179.3530  143.4760 C   0  0  0  0  0  2  0  0  0  0  0  0
  188.2260  177.1800  145.1900 C   0  0  2  0  0  3  0  0  0  0  0  0
  191.0860  177.5860  141.6600 C   0  0  0  0  0  3  0  0  0  0  0  0
  189.3200  176.1920  142.7500 C   0  0  1  0  0  3  0  0  0  0  0  0
  189.0890  177.1250  140.3330 C   0  0  0  0  0  2  0  0  0  0  0  0
  189.8950  177.8450  139.2570 C   0  0  0  0  0  2  0  0  0  0  0  0
  189.4370  177.4250  137.8650 C   0  0  2  0  0  3  0  0  0  0  0  0
  191.7500  176.5050  138.0540 C   0  0  0  0  0  1  0  0  0  0  0  0
  190.5360  176.6520  137.1520 C   0  0  0  0  0  2  0  0  0  0  0  0
  189.0660  178.6490  137.0420 C   0  0  0  0  0  2  0  0  0  0  0  0
  187.7860  179.0950  137.3840 O   0  0  0  0  0  0  0  0  0  0  0  0
  186.9280  178.0720  136.9750 C   0  0  0  0  0  1  0  0  0  0  0  0
  1 19  2  0  0  0  0
  2 17  1  0  0  0  0
  5 11  1  6  0  0  0
  5  7  1  0  0  0  0
  5 18  1  0  0  0  0
  6  9  2  0  0  0  0
  7  2  1  6  0  0  0
  7 12  1  0  0  0  0
  9  4  1  0  0  0  0
 10 15  1  6  0  0  0
 10 14  1  0  0  0  0
 12  8  1  0  0  0  0
 12  4  2  0  0  0  0
 13 15  1  0  0  0  0
 14  3  1  6  0  0  0
 14 18  1  0  0  0  0
 16  6  1  0  0  0  0
 17  6  1  0  0  0  0
 18  8  1  1  0  0  0
 19 13  1  0  0  0  0
 20  1  1  6  0  0  0
 20 11  1  0  0  0  0
 20 10  1  0  0  0  0
 21  1  1  0  0  0  0
 22 21  1  0  0  0  0
 23 26  1  6  0  0  0
 23 22  1  0  0  0  0
 25 23  1  0  0  0  0
 25 24  1  0  0  0  0
 26 27  1  0  0  0  0
 28 27  1  0  0  0  0
M  END
>  <MODEL>
1

>  <REMARK>
 VINA RESULT:      -8.8      0.000      0.000
  Name = 
  6 active torsions:
  status: ('A' for Active; 'I' for Inactive)
    1  A    between atoms: C_1  and  C_2
    2  A    between atoms: C_2  and  C_3
    3  A    between atoms: C_3  and  C_7
    4  A    between atoms: O_6  and  C_28
    5  A    between atoms: C_7  and  C_11
    6  A    between atoms: C_7  and  C_28
                            x       y       z     vdW  Elec       q    Type
                         _______ _______ _______ _____ _____    ______ ____

>  <TORSDO>
F 6

$$$$
=
 OpenBabel10272401523D

 28 31  0  0  1  0  0  0  0  0999 V2000
  189.8410  176.9120  141.6270 C   0  0  0  0  0  0  0  0  0  0  0  0
  185.4330  178.2950  143.0770 C   0  0  0  0  0  2  0  0  0  0  0  0
  190.0990  178.6550  144.7350 O   0  0  0  0  0  1  0  0  0  0  0  0
  185.1660  178.6920  146.1690 C   0  0  0  0  0  3  0  0  0  0  0  0
  187.6750  177.5120  143.7840 C   0  0  2  0  0  3  0  0  0  0  0  0
  183.3650  178.8090  144.4180 C   0  0  0  0  0  0  0  0  0  0  0  0
  186.2730  177.9300  144.0450 C   0  0  1  0  0  3  0  0  0  0  0  0
  187.4890  178.1580  146.0190 O   0  0  0  0  0  0  0  0  0  0  0  0
  183.7720  178.6990  145.6850 C   0  0  0  0  0  3  0  0  0  0  0  0
  190.1910  176.2860  144.1260 C   0  0  2  0  0  3  0  0  0  0  0  0
  187.8710  176.2960  143.0140 N   0  0  0  0  0  2  0  0  0  0  0  0
  186.2370  178.3490  145.4470 C   0  0  0  0  0  0  0  0  0  0  0  0
  191.9480  177.5330  142.8360 C   0  0  0  0  0  2  0  0  0  0  0  0
  189.7150  177.3710  145.1350 C   0  0  2  0  0  3  0  0  0  0  0  0
  191.6830  176.3750  143.7960 C   0  0  0  0  0  2  0  0  0  0  0  0
  182.0360  178.7410  144.1610 F   0  0  0  0  0  0  0  0  0  0  0  0
  184.2710  179.2090  143.2990 C   0  0  0  0  0  2  0  0  0  0  0  0
  188.2090  177.2740  145.1760 C   0  0  2  0  0  3  0  0  0  0  0  0
  191.0620  177.4730  141.6230 C   0  0  0  0  0  3  0  0  0  0  0  0
  189.3300  176.1250  142.8200 C   0  0  1  0  0  3  0  0  0  0  0  0
  189.0790  176.8600  140.3370 C   0  0  0  0  0  2  0  0  0  0  0  0
  189.0570  178.2270  139.6590 C   0  0  0  0  0  2  0  0  0  0  0  0
  189.6830  178.1510  138.2700 C   0  0  2  0  0  3  0  0  0  0  0  0
  187.6280  178.3670  136.8680 C   0  0  0  0  0  1  0  0  0  0  0  0
  188.9230  179.0370  137.2940 C   0  0  0  0  0  2  0  0  0  0  0  0
  189.6680  176.7160  137.7660 C   0  0  0  0  0  2  0  0  0  0  0  0
  190.7830  176.4720  136.9600 O   0  0  0  0  0  0  0  0  0  0  0  0
  191.8540  176.3680  137.8500 C   0  0  0  0  0  1  0  0  0  0  0  0
  2 17  1  0  0  0  0
  5 11  1  6  0  0  0
  5  7  1  0  0  0  0
  5 18  1  0  0  0  0
  6  9  2  0  0  0  0
  7  2  1  6  0  0  0
  7 12  1  0  0  0  0
  9  4  1  0  0  0  0
 10 15  1  6  0  0  0
 10 14  1  0  0  0  0
 12  8  1  0  0  0  0
 12  4  2  0  0  0  0
 13 15  1  0  0  0  0
 14  3  1  6  0  0  0
 14 18  1  0  0  0  0
 16  6  1  0  0  0  0
 17  6  1  0  0  0  0
 18  8  1  1  0  0  0
 19  1  2  0  0  0  0
 19 13  1  0  0  0  0
 20  1  1  6  0  0  0
 20 11  1  0  0  0  0
 20 10  1  0  0  0  0
 21  1  1  0  0  0  0
 22 21  1  0  0  0  0
 23 25  1  6  0  0  0
 23 22  1  0  0  0  0
 24 25  1  0  0  0  0
 26 23  1  0  0  0  0
 27 26  1  0  0  0  0
 27 28  1  0  0  0  0
M  END
>  <MODEL>
2

>  <REMARK>
 VINA RESULT:      -8.7      0.847      1.701
  Name = 
  6 active torsions:
  status: ('A' for Active; 'I' for Inactive)
    1  A    between atoms: C_1  and  C_2
    2  A    between atoms: C_2  and  C_3
    3  A    between atoms: C_3  and  C_7
    4  A    between atoms: O_6  and  C_28
    5  A    between atoms: C_7  and  C_11
    6  A    between atoms: C_7  and  C_28
                            x       y       z     vdW  Elec       q    Type
                         _______ _______ _______ _____ _____    ______ ____

>  <TORSDO>
F 6

$$$$
=
 OpenBabel10272401523D

 28 31  0  0  1  0  0  0  0  0999 V2000
  187.6180  177.8430  145.8830 C   0  0  0  0  0  0  0  0  0  0  0  0
  188.3000  177.9720  141.0910 C   0  0  0  0  0  2  0  0  0  0  0  0
  185.2410  180.0570  144.3970 O   0  0  0  0  0  1  0  0  0  0  0  0
  185.7530  178.7600  139.4540 C   0  0  0  0  0  3  0  0  0  0  0  0
  186.6450  178.0660  142.9320 C   0  0  2  0  0  3  0  0  0  0  0  0
  187.9940  178.0130  138.5910 C   0  0  0  0  0  0  0  0  0  0  0  0
  187.0340  178.0540  141.4970 C   0  0  1  0  0  3  0  0  0  0  0  0
  184.9000  178.9730  141.6740 O   0  0  0  0  0  0  0  0  0  0  0  0
  186.6880  178.2450  138.4350 C   0  0  0  0  0  3  0  0  0  0  0  0
  185.0930  177.7740  145.2680 C   0  0  2  0  0  3  0  0  0  0  0  0
  186.9220  176.8670  143.7040 N   0  0  0  0  0  2  0  0  0  0  0  0
  185.9140  178.6620  140.7760 C   0  0  0  0  0  0  0  0  0  0  0  0
  185.9540  179.2880  147.0780 C   0  0  0  0  0  2  0  0  0  0  0  0
  184.6670  178.8010  144.1780 C   0  0  2  0  0  3  0  0  0  0  0  0
  184.8740  178.2770  146.6970 C   0  0  0  0  0  2  0  0  0  0  0  0
  188.6820  177.4860  137.5510 F   0  0  0  0  0  0  0  0  0  0  0  0
  188.7750  178.4930  139.7720 C   0  0  0  0  0  2  0  0  0  0  0  0
  185.1470  178.2390  142.8620 C   0  0  2  0  0  3  0  0  0  0  0  0
  187.3370  178.7530  146.8300 C   0  0  0  0  0  3  0  0  0  0  0  0
  186.5220  177.1390  145.1040 C   0  0  1  0  0  3  0  0  0  0  0  0
  189.0280  177.3430  145.7740 C   0  0  0  0  0  2  0  0  0  0  0  0
  189.8740  178.2760  144.9140 C   0  0  0  0  0  2  0  0  0  0  0  0
  191.2440  177.6640  144.6400 C   0  0  2  0  0  3  0  0  0  0  0  0
  190.6050  175.8780  143.0150 C   0  0  0  0  0  1  0  0  0  0  0  0
  191.3390  177.1960  143.1950 C   0  0  0  0  0  2  0  0  0  0  0  0
  191.4870  176.4850  145.5690 C   0  0  0  0  0  2  0  0  0  0  0  0
  192.0830  176.9160  146.7570 O   0  0  0  0  0  0  0  0  0  0  0  0
  192.2470  175.7570  147.5190 C   0  0  0  0  0  1  0  0  0  0  0  0
  1 19  2  0  0  0  0
  4 12  2  0  0  0  0
  5 11  1  6  0  0  0
  6 17  1  0  0  0  0
  7  2  1  1  0  0  0
  7  5  1  0  0  0  0
  9  6  2  0  0  0  0
  9  4  1  0  0  0  0
 10 15  1  1  0  0  0
 12  7  1  0  0  0  0
 12  8  1  0  0  0  0
 14  3  1  1  0  0  0
 14 10  1  0  0  0  0
 15 13  1  0  0  0  0
 16  6  1  0  0  0  0
 17  2  1  0  0  0  0
 18  8  1  6  0  0  0
 18  5  1  0  0  0  0
 18 14  1  0  0  0  0
 19 13  1  0  0  0  0
 20 11  1  6  0  0  0
 20 10  1  0  0  0  0
 20  1  1  0  0  0  0
 21  1  1  0  0  0  0
 22 21  1  0  0  0  0
 23 25  1  6  0  0  0
 23 22  1  0  0  0  0
 23 26  1  0  0  0  0
 24 25  1  0  0  0  0
 26 27  1  0  0  0  0
 27 28  1  0  0  0  0
M  END
>  <MODEL>
3

>  <REMARK>
 VINA RESULT:      -8.3      2.717      6.487
  Name = 
  6 active torsions:
  status: ('A' for Active; 'I' for Inactive)
    1  A    between atoms: C_1  and  C_2
    2  A    between atoms: C_2  and  C_3
    3  A    between atoms: C_3  and  C_7
    4  A    between atoms: O_6  and  C_28
    5  A    between atoms: C_7  and  C_11
    6  A    between atoms: C_7  and  C_28
                            x       y       z     vdW  Elec       q    Type
                         _______ _______ _______ _____ _____    ______ ____

>  <TORSDO>
F 6

$$$$
=
 OpenBabel10272401523D

 28 31  0  0  1  0  0  0  0  0999 V2000
  187.2540  177.7800  142.8900 C   0  0  0  0  0  0  0  0  0  0  0  0
  187.7880  176.9790  138.1450 C   0  0  0  0  0  2  0  0  0  0  0  0
  190.1750  175.8000  142.3340 O   0  0  0  0  0  1  0  0  0  0  0  0
  190.7340  176.4050  137.2640 C   0  0  0  0  0  3  0  0  0  0  0  0
  188.9400  177.3610  140.3040 C   0  0  2  0  0  3  0  0  0  0  0  0
  188.6990  176.6880  135.8150 C   0  0  0  0  0  0  0  0  0  0  0  0
  188.9150  177.1420  138.8340 C   0  0  1  0  0  3  0  0  0  0  0  0
  191.0370  176.5920  139.6250 O   0  0  0  0  0  0  0  0  0  0  0  0
  190.0210  176.6450  135.9940 C   0  0  0  0  0  3  0  0  0  0  0  0
  189.8250  178.1650  142.8580 C   0  0  2  0  0  3  0  0  0  0  0  0
  188.3380  178.5860  140.8020 N   0  0  0  0  0  2  0  0  0  0  0  0
  190.2440  176.6340  138.4850 C   0  0  0  0  0  0  0  0  0  0  0  0
  188.7400  176.7620  144.6360 C   0  0  0  0  0  2  0  0  0  0  0  0
  190.6270  177.0950  142.0620 C   0  0  2  0  0  3  0  0  0  0  0  0
  189.7480  177.8760  144.3590 C   0  0  0  0  0  2  0  0  0  0  0  0
  188.2270  176.9750  134.5780 F   0  0  0  0  0  0  0  0  0  0  0  0
  187.7170  176.2370  136.8490 C   0  0  0  0  0  2  0  0  0  0  0  0
  190.4190  177.4150  140.6010 C   0  0  2  0  0  3  0  0  0  0  0  0
  187.4040  177.0430  144.0040 C   0  0  0  0  0  3  0  0  0  0  0  0
  188.4130  178.5480  142.2810 C   0  0  1  0  0  3  0  0  0  0  0  0
  185.8640  178.0390  142.3920 C   0  0  0  0  0  2  0  0  0  0  0  0
  185.1800  179.1240  143.2160 C   0  0  0  0  0  2  0  0  0  0  0  0
  184.0290  178.5400  144.0300 C   0  0  2  0  0  3  0  0  0  0  0  0
  182.3720  178.7390  142.1730 C   0  0  0  0  0  1  0  0  0  0  0  0
  182.7050  179.1520  143.5960 C   0  0  0  0  0  2  0  0  0  0  0  0
  184.2470  178.8060  145.5110 C   0  0  0  0  0  2  0  0  0  0  0  0
  185.5180  179.3440  145.7270 O   0  0  0  0  0  0  0  0  0  0  0  0
  185.9270  178.8200  146.9560 C   0  0  0  0  0  1  0  0  0  0  0  0
  1 19  2  0  0  0  0
  4 12  2  0  0  0  0
  5 18  1  0  0  0  0
  5 11  1  6  0  0  0
  6  9  2  0  0  0  0
  6 17  1  0  0  0  0
  7  2  1  1  0  0  0
  7  5  1  0  0  0  0
  9  4  1  0  0  0  0
 10 15  1  1  0  0  0
 12  7  1  0  0  0  0
 12  8  1  0  0  0  0
 14  3  1  6  0  0  0
 14 10  1  0  0  0  0
 15 13  1  0  0  0  0
 16  6  1  0  0  0  0
 17  2  1  0  0  0  0
 18  8  1  6  0  0  0
 18 14  1  0  0  0  0
 19 13  1  0  0  0  0
 20 11  1  6  0  0  0
 20 10  1  0  0  0  0
 20  1  1  0  0  0  0
 21  1  1  0  0  0  0
 21 22  1  0  0  0  0
 23 22  1  6  0  0  0
 23 26  1  0  0  0  0
 24 25  1  0  0  0  0
 25 23  1  0  0  0  0
 26 27  1  0  0  0  0
 27 28  1  0  0  0  0
M  END
>  <MODEL>
4

>  <REMARK>
 VINA RESULT:      -8.0      2.849      7.336
  Name = 
  6 active torsions:
  status: ('A' for Active; 'I' for Inactive)
    1  A    between atoms: C_1  and  C_2
    2  A    between atoms: C_2  and  C_3
    3  A    between atoms: C_3  and  C_7
    4  A    between atoms: O_6  and  C_28
    5  A    between atoms: C_7  and  C_11
    6  A    between atoms: C_7  and  C_28
                            x       y       z     vdW  Elec       q    Type
                         _______ _______ _______ _____ _____    ______ ____

>  <TORSDO>
F 6

$$$$
=
 OpenBabel10272401523D

 28 31  0  0  1  0  0  0  0  0999 V2000
  186.6780  177.9760  145.2240 C   0  0  0  0  0  0  0  0  0  0  0  0
  189.8260  177.3780  141.5940 C   0  0  0  0  0  2  0  0  0  0  0  0
  185.8520  180.1950  142.5490 O   0  0  0  0  0  1  0  0  0  0  0  0
  188.7140  178.1880  138.7850 C   0  0  0  0  0  3  0  0  0  0  0  0
  187.4840  177.8910  142.2150 C   0  0  2  0  0  3  0  0  0  0  0  0
  190.9160  177.1080  139.3400 C   0  0  0  0  0  0  0  0  0  0  0  0
  188.5720  177.6430  141.2340 C   0  0  1  0  0  3  0  0  0  0  0  0
  186.8530  178.7880  140.1560 O   0  0  0  0  0  0  0  0  0  0  0  0
  189.9530  177.4470  138.4790 C   0  0  0  0  0  3  0  0  0  0  0  0
  184.9000  178.0790  143.3300 C   0  0  2  0  0  3  0  0  0  0  0  0
  187.1100  176.7860  143.0830 N   0  0  0  0  0  2  0  0  0  0  0  0
  188.1250  178.2560  139.9820 C   0  0  0  0  0  0  0  0  0  0  0  0
  184.8870  179.7320  145.2210 C   0  0  0  0  0  2  0  0  0  0  0  0
  185.2930  178.9850  142.1260 C   0  0  2  0  0  3  0  0  0  0  0  0
  184.0340  178.7920  144.3710 C   0  0  0  0  0  2  0  0  0  0  0  0
  191.9600  176.3770  138.8810 F   0  0  0  0  0  0  0  0  0  0  0  0
  191.0090  177.6640  140.7250 C   0  0  0  0  0  2  0  0  0  0  0  0
  186.3050  178.2030  141.3250 C   0  0  2  0  0  3  0  0  0  0  0  0
  186.0830  179.0310  145.8050 C   0  0  0  0  0  3  0  0  0  0  0  0
  186.0730  177.2860  144.0150 C   0  0  1  0  0  3  0  0  0  0  0  0
  187.8260  177.3260  145.9360 C   0  0  0  0  0  2  0  0  0  0  0  0
  189.1570  177.9230  145.4880 C   0  0  0  0  0  2  0  0  0  0  0  0
  190.3020  176.9510  145.7530 C   0  0  2  0  0  3  0  0  0  0  0  0
  191.8310  176.1630  147.5620 C   0  0  0  0  0  1  0  0  0  0  0  0
  190.4400  176.6830  147.2440 C   0  0  0  0  0  2  0  0  0  0  0  0
  191.6070  177.5200  145.2190 C   0  0  0  0  0  2  0  0  0  0  0  0
  191.8920  176.9860  143.9590 O   0  0  0  0  0  0  0  0  0  0  0  0
  191.6820  175.6120  144.0960 C   0  0  0  0  0  1  0  0  0  0  0  0
  1 19  2  0  0  0  0
  1 21  1  0  0  0  0
  4 12  2  0  0  0  0
  5 11  1  6  0  0  0
  6 17  1  0  0  0  0
  7  2  1  1  0  0  0
  7  5  1  0  0  0  0
  9  4  1  0  0  0  0
  9  6  2  0  0  0  0
 10 20  1  0  0  0  0
 10 15  1  1  0  0  0
 12  8  1  0  0  0  0
 12  7  1  0  0  0  0
 13 19  1  0  0  0  0
 14  3  1  1  0  0  0
 14 10  1  0  0  0  0
 15 13  1  0  0  0  0
 16  6  1  0  0  0  0
 17  2  1  0  0  0  0
 18  8  1  6  0  0  0
 18 14  1  0  0  0  0
 18  5  1  0  0  0  0
 20 11  1  6  0  0  0
 20  1  1  0  0  0  0
 22 23  1  0  0  0  0
 22 21  1  0  0  0  0
 23 26  1  1  0  0  0
 23 25  1  0  0  0  0
 25 24  1  0  0  0  0
 27 28  1  0  0  0  0
 27 26  1  0  0  0  0
M  END
>  <MODEL>
5

>  <REMARK>
 VINA RESULT:      -7.9      2.765      7.097
  Name = 
  6 active torsions:
  status: ('A' for Active; 'I' for Inactive)
    1  A    between atoms: C_1  and  C_2
    2  A    between atoms: C_2  and  C_3
    3  A    between atoms: C_3  and  C_7
    4  A    between atoms: O_6  and  C_28
    5  A    between atoms: C_7  and  C_11
    6  A    between atoms: C_7  and  C_28
                            x       y       z     vdW  Elec       q    Type
                         _______ _______ _______ _____ _____    ______ ____

>  <TORSDO>
F 6

$$$$
=
 OpenBabel10272401523D

 28 31  0  0  1  0  0  0  0  0999 V2000
  187.5240  178.0200  142.9410 C   0  0  0  0  0  0  0  0  0  0  0  0
  187.8620  177.1030  138.1990 C   0  0  0  0  0  2  0  0  0  0  0  0
  190.2170  175.7470  142.3530 O   0  0  0  0  0  1  0  0  0  0  0  0
  190.7140  176.2230  137.2630 C   0  0  0  0  0  3  0  0  0  0  0  0
  189.0980  177.3970  140.3250 C   0  0  2  0  0  3  0  0  0  0  0  0
  188.6840  176.6900  135.8540 C   0  0  0  0  0  0  0  0  0  0  0  0
  189.0160  177.1610  138.8600 C   0  0  1  0  0  3  0  0  0  0  0  0
  191.0890  176.4100  139.6130 O   0  0  0  0  0  0  0  0  0  0  0  0
  189.9990  176.5160  136.0050 C   0  0  0  0  0  3  0  0  0  0  0  0
  190.1190  178.1430  142.8460 C   0  0  2  0  0  3  0  0  0  0  0  0
  188.6330  178.6830  140.8170 N   0  0  0  0  0  2  0  0  0  0  0  0
  190.2780  176.5170  138.4900 C   0  0  0  0  0  0  0  0  0  0  0  0
  188.9400  176.8810  144.6700 C   0  0  0  0  0  2  0  0  0  0  0  0
  190.7900  176.9860  142.0500 C   0  0  2  0  0  3  0  0  0  0  0  0
  190.0480  177.8830  144.3530 C   0  0  0  0  0  2  0  0  0  0  0  0
  188.2140  177.0060  134.6240 F   0  0  0  0  0  0  0  0  0  0  0  0
  187.6860  176.3550  136.9170 C   0  0  0  0  0  2  0  0  0  0  0  0
  190.5810  177.3050  140.5890 C   0  0  2  0  0  3  0  0  0  0  0  0
  187.6250  177.2870  144.0630 C   0  0  0  0  0  3  0  0  0  0  0  0
  188.7390  178.6580  142.2940 C   0  0  1  0  0  3  0  0  0  0  0  0
  186.1550  178.4110  142.4690 C   0  0  0  0  0  2  0  0  0  0  0  0
  185.0820  177.9140  143.4320 C   0  0  0  0  0  2  0  0  0  0  0  0
  184.7020  179.0050  144.4280 C   0  0  2  0  0  3  0  0  0  0  0  0
  185.7770  179.1520  146.6770 C   0  0  0  0  0  1  0  0  0  0  0  0
  184.7110  178.4570  145.8480 C   0  0  0  0  0  2  0  0  0  0  0  0
  183.3200  179.5520  144.1060 C   0  0  0  0  0  2  0  0  0  0  0  0
  182.7220  178.7960  143.0950 O   0  0  0  0  0  0  0  0  0  0  0  0
  181.3730  179.1570  143.1270 C   0  0  0  0  0  1  0  0  0  0  0  0
  1 19  2  0  0  0  0
  4 12  2  0  0  0  0
  5 18  1  0  0  0  0
  5 11  1  6  0  0  0
  6  9  2  0  0  0  0
  6 17  1  0  0  0  0
  7  2  1  1  0  0  0
  7  5  1  0  0  0  0
  9  4  1  0  0  0  0
 10 15  1  1  0  0  0
 12  7  1  0  0  0  0
 12  8  1  0  0  0  0
 14  3  1  1  0  0  0
 14 10  1  0  0  0  0
 15 13  1  0  0  0  0
 16  6  1  0  0  0  0
 17  2  1  0  0  0  0
 18  8  1  6  0  0  0
 18 14  1  0  0  0  0
 19 13  1  0  0  0  0
 20 11  1  6  0  0  0
 20 10  1  0  0  0  0
 20  1  1  0  0  0  0
 21  1  1  0  0  0  0
 21 22  1  0  0  0  0
 23 22  1  6  0  0  0
 23 25  1  0  0  0  0
 25 24  1  0  0  0  0
 26 23  1  0  0  0  0
 27 28  1  0  0  0  0
 27 26  1  0  0  0  0
M  END
>  <MODEL>
6

>  <REMARK>
 VINA RESULT:      -7.8      3.015      7.207
  Name = 
  6 active torsions:
  status: ('A' for Active; 'I' for Inactive)
    1  A    between atoms: C_1  and  C_2
    2  A    between atoms: C_2  and  C_3
    3  A    between atoms: C_3  and  C_7
    4  A    between atoms: O_6  and  C_28
    5  A    between atoms: C_7  and  C_11
    6  A    between atoms: C_7  and  C_28
                            x       y       z     vdW  Elec       q    Type
                         _______ _______ _______ _____ _____    ______ ____

>  <TORSDO>
F 6

$$$$
=
 OpenBabel10272401523D

 28 31  0  0  1  0  0  0  0  0999 V2000
  187.0010  177.7730  145.2370 C   0  0  0  0  0  0  0  0  0  0  0  0
  190.0740  177.3220  141.5240 C   0  0  0  0  0  2  0  0  0  0  0  0
  186.1220  180.0970  142.6710 O   0  0  0  0  0  1  0  0  0  0  0  0
  188.9060  178.2440  138.7720 C   0  0  0  0  0  3  0  0  0  0  0  0
  187.7450  177.8090  142.2120 C   0  0  2  0  0  3  0  0  0  0  0  0
  191.1180  177.1420  139.2380 C   0  0  0  0  0  0  0  0  0  0  0  0
  188.8130  177.6010  141.2000 C   0  0  1  0  0  3  0  0  0  0  0  0
  187.0740  178.7880  140.2030 O   0  0  0  0  0  0  0  0  0  0  0  0
  190.1380  177.5150  138.4120 C   0  0  0  0  0  3  0  0  0  0  0  0
  185.1850  177.9520  143.3860 C   0  0  2  0  0  3  0  0  0  0  0  0
  187.3890  176.6700  143.0420 N   0  0  0  0  0  2  0  0  0  0  0  0
  188.3410  178.2640  139.9820 C   0  0  0  0  0  0  0  0  0  0  0  0
  185.2120  179.5270  145.3410 C   0  0  0  0  0  2  0  0  0  0  0  0
  185.5540  178.9050  142.2120 C   0  0  2  0  0  3  0  0  0  0  0  0
  184.3410  178.6230  144.4720 C   0  0  0  0  0  2  0  0  0  0  0  0
  192.1520  176.4300  138.7300 F   0  0  0  0  0  0  0  0  0  0  0  0
  191.2390  177.6420  140.6430 C   0  0  0  0  0  2  0  0  0  0  0  0
  186.5490  178.1560  141.3590 C   0  0  2  0  0  3  0  0  0  0  0  0
  186.4180  178.8040  145.8730 C   0  0  0  0  0  3  0  0  0  0  0  0
  186.3710  177.1320  144.0140 C   0  0  1  0  0  3  0  0  0  0  0  0
  188.1630  177.0950  145.9000 C   0  0  0  0  0  2  0  0  0  0  0  0
  189.1940  178.1150  146.3720 C   0  0  0  0  0  2  0  0  0  0  0  0
  190.6100  177.6240  146.0870 C   0  0  2  0  0  3  0  0  0  0  0  0
  191.6070  175.8940  144.5880 C   0  0  0  0  0  1  0  0  0  0  0  0
  190.7220  177.1270  144.6530 C   0  0  0  0  0  2  0  0  0  0  0  0
  190.9770  176.4990  147.0420 C   0  0  0  0  0  2  0  0  0  0  0  0
  191.9600  176.9250  147.9390 O   0  0  0  0  0  0  0  0  0  0  0  0
  192.7310  175.7880  148.1940 C   0  0  0  0  0  1  0  0  0  0  0  0
  1 19  2  0  0  0  0
  1 21  1  0  0  0  0
  4 12  2  0  0  0  0
  5 11  1  6  0  0  0
  6 17  1  0  0  0  0
  7  2  1  1  0  0  0
  7  5  1  0  0  0  0
  9  4  1  0  0  0  0
  9  6  2  0  0  0  0
 10 20  1  0  0  0  0
 10 15  1  1  0  0  0
 12  8  1  0  0  0  0
 12  7  1  0  0  0  0
 13 19  1  0  0  0  0
 14  3  1  1  0  0  0
 14 10  1  0  0  0  0
 15 13  1  0  0  0  0
 16  6  1  0  0  0  0
 17  2  1  0  0  0  0
 18  8  1  6  0  0  0
 18  5  1  0  0  0  0
 18 14  1  0  0  0  0
 20 11  1  6  0  0  0
 20  1  1  0  0  0  0
 21 22  1  0  0  0  0
 23 25  1  6  0  0  0
 23 22  1  0  0  0  0
 23 26  1  0  0  0  0
 24 25  1  0  0  0  0
 26 27  1  0  0  0  0
 27 28  1  0  0  0  0
M  END
>  <MODEL>
7

>  <REMARK>
 VINA RESULT:      -7.8      2.899      7.354
  Name = 
  6 active torsions:
  status: ('A' for Active; 'I' for Inactive)
    1  A    between atoms: C_1  and  C_2
    2  A    between atoms: C_2  and  C_3
    3  A    between atoms: C_3  and  C_7
    4  A    between atoms: O_6  and  C_28
    5  A    between atoms: C_7  and  C_11
    6  A    between atoms: C_7  and  C_28
                            x       y       z     vdW  Elec       q    Type
                         _______ _______ _______ _____ _____    ______ ____

>  <TORSDO>
F 6

$$$$
=
 OpenBabel10272401523D

 28 31  0  0  1  0  0  0  0  0999 V2000
  185.0300  178.1000  138.4040 C   0  0  0  0  0  0  0  0  0  0  0  0
  186.2620  178.0400  143.0860 C   0  0  0  0  0  2  0  0  0  0  0  0
  182.1450  177.3930  140.3890 O   0  0  0  0  0  1  0  0  0  0  0  0
  183.9050  178.6780  145.0410 C   0  0  0  0  0  3  0  0  0  0  0  0
  184.5010  178.5940  141.4340 C   0  0  2  0  0  3  0  0  0  0  0  0
  186.3370  178.3430  145.5850 C   0  0  0  0  0  0  0  0  0  0  0  0
  185.0560  178.5330  142.8110 C   0  0  1  0  0  3  0  0  0  0  0  0
  182.7380  178.7190  142.9580 O   0  0  0  0  0  0  0  0  0  0  0  0
  185.1090  178.7680  145.8900 C   0  0  0  0  0  3  0  0  0  0  0  0
  182.9360  179.4000  139.2310 C   0  0  2  0  0  3  0  0  0  0  0  0
  185.1820  179.4550  140.4830 N   0  0  0  0  0  2  0  0  0  0  0  0
  183.9000  178.5840  143.7080 C   0  0  0  0  0  0  0  0  0  0  0  0
  182.7340  177.5230  137.5750 C   0  0  0  0  0  2  0  0  0  0  0  0
  182.2500  178.7840  140.4850 C   0  0  2  0  0  3  0  0  0  0  0  0
  182.3060  178.9500  137.9110 C   0  0  0  0  0  2  0  0  0  0  0  0
  187.3330  178.5620  146.4760 F   0  0  0  0  0  0  0  0  0  0  0  0
  186.6310  177.4600  144.4140 C   0  0  0  0  0  2  0  0  0  0  0  0
  183.1190  179.1540  141.6630 C   0  0  2  0  0  3  0  0  0  0  0  0
  184.2280  177.3590  137.6200 C   0  0  0  0  0  3  0  0  0  0  0  0
  184.5050  179.2960  139.1760 C   0  0  1  0  0  3  0  0  0  0  0  0
  186.5110  177.8810  138.3140 C   0  0  0  0  0  2  0  0  0  0  0  0
  187.0680  178.4380  137.0080 C   0  0  0  0  0  2  0  0  0  0  0  0
  188.5650  178.7040  137.1290 C   0  0  2  0  0  3  0  0  0  0  0  0
  188.4520  176.9650  135.3410 C   0  0  0  0  0  1  0  0  0  0  0  0
  189.3550  177.6730  136.3360 C   0  0  0  0  0  2  0  0  0  0  0  0
  188.9900  178.6530  138.5880 C   0  0  0  0  0  2  0  0  0  0  0  0
  190.0450  177.7520  138.7560 O   0  0  0  0  0  0  0  0  0  0  0  0
  189.9160  177.2880  140.0670 C   0  0  0  0  0  1  0  0  0  0  0  0
  2 17  1  0  0  0  0
  4  9  1  0  0  0  0
  5 11  1  6  0  0  0
  5 18  1  0  0  0  0
  5  7  1  0  0  0  0
  6  9  2  0  0  0  0
  6 16  1  0  0  0  0
  7  2  1  6  0  0  0
  7 12  1  0  0  0  0
  8 12  1  0  0  0  0
 10 15  1  6  0  0  0
 10 14  1  0  0  0  0
 12  4  2  0  0  0  0
 13 19  1  0  0  0  0
 13 15  1  0  0  0  0
 14  3  1  6  0  0  0
 14 18  1  0  0  0  0
 17  6  1  0  0  0  0
 18  8  1  1  0  0  0
 19  1  2  0  0  0  0
 20  1  1  1  0  0  0
 20 10  1  0  0  0  0
 20 11  1  0  0  0  0
 21  1  1  0  0  0  0
 22 23  1  0  0  0  0
 22 21  1  0  0  0  0
 23 25  1  6  0  0  0
 23 26  1  0  0  0  0
 24 25  1  0  0  0  0
 26 27  1  0  0  0  0
 27 28  1  0  0  0  0
M  END
>  <MODEL>
8

>  <REMARK>
 VINA RESULT:      -7.6      3.086      5.678
  Name = 
  6 active torsions:
  status: ('A' for Active; 'I' for Inactive)
    1  A    between atoms: C_1  and  C_2
    2  A    between atoms: C_2  and  C_3
    3  A    between atoms: C_3  and  C_7
    4  A    between atoms: O_6  and  C_28
    5  A    between atoms: C_7  and  C_11
    6  A    between atoms: C_7  and  C_28
                            x       y       z     vdW  Elec       q    Type
                         _______ _______ _______ _____ _____    ______ ____

>  <TORSDO>
F 6

$$$$
=
 OpenBabel10272401523D

 28 31  0  0  1  0  0  0  0  0999 V2000
  188.9440  177.6500  145.7740 C   0  0  0  0  0  0  0  0  0  0  0  0
  185.4410  178.4240  142.5230 C   0  0  0  0  0  2  0  0  0  0  0  0
  186.4230  179.7360  147.2080 O   0  0  0  0  0  1  0  0  0  0  0  0
  182.6550  179.1010  143.7750 C   0  0  0  0  0  3  0  0  0  0  0  0
  185.9830  178.1080  144.9190 C   0  0  2  0  0  3  0  0  0  0  0  0
  183.2300  178.7260  141.3560 C   0  0  0  0  0  0  0  0  0  0  0  0
  185.0410  178.3110  143.7880 C   0  0  1  0  0  3  0  0  0  0  0  0
  183.9760  178.9500  145.7590 O   0  0  0  0  0  0  0  0  0  0  0  0
  182.3530  178.8220  142.3570 C   0  0  0  0  0  3  0  0  0  0  0  0
  186.9780  177.3640  147.4510 C   0  0  2  0  0  3  0  0  0  0  0  0
  186.7370  176.8660  144.9380 N   0  0  0  0  0  2  0  0  0  0  0  0
  183.8230  178.8660  144.3800 C   0  0  0  0  0  0  0  0  0  0  0  0
  188.9960  178.7410  148.0310 C   0  0  0  0  0  2  0  0  0  0  0  0
  185.8750  178.4560  147.3420 C   0  0  2  0  0  3  0  0  0  0  0  0
  188.0290  177.6650  148.5210 C   0  0  0  0  0  2  0  0  0  0  0  0
  182.7660  178.4090  140.1230 F   0  0  0  0  0  0  0  0  0  0  0  0
  184.6590  179.1490  141.4750 C   0  0  0  0  0  2  0  0  0  0  0  0
  185.0640  178.1140  146.1160 C   0  0  2  0  0  3  0  0  0  0  0  0
  189.5800  178.4030  146.6870 C   0  0  0  0  0  3  0  0  0  0  0  0
  187.6540  176.9210  146.1010 C   0  0  1  0  0  3  0  0  0  0  0  0
  189.6580  177.3330  144.4940 C   0  0  0  0  0  2  0  0  0  0  0  0
  189.2440  178.2940  143.3840 C   0  0  0  0  0  2  0  0  0  0  0  0
  189.7950  177.8340  142.0380 C   0  0  2  0  0  3  0  0  0  0  0  0
  188.1670  178.4120  140.2350 C   0  0  0  0  0  1  0  0  0  0  0  0
  188.6730  177.3120  141.1530 C   0  0  0  0  0  2  0  0  0  0  0  0
  190.8300  176.7380  142.2420 C   0  0  0  0  0  2  0  0  0  0  0  0
  192.1190  177.2480  142.0720 O   0  0  0  0  0  0  0  0  0  0  0  0
  192.2550  177.4300  140.6940 C   0  0  0  0  0  1  0  0  0  0  0  0
  1 20  1  0  0  0  0
  1 19  2  0  0  0  0
  4 12  2  0  0  0  0
  5 11  1  6  0  0  0
  5 18  1  0  0  0  0
  6 17  1  0  0  0  0
  6  9  2  0  0  0  0
  7  2  1  6  0  0  0
  7 12  1  0  0  0  0
  7  5  1  0  0  0  0
  9  4  1  0  0  0  0
 10 15  1  1  0  0  0
 12  8  1  0  0  0  0
 13 15  1  0  0  0  0
 14  3  1  6  0  0  0
 14 10  1  0  0  0  0
 16  6  1  0  0  0  0
 17  2  1  0  0  0  0
 18  8  1  6  0  0  0
 18 14  1  0  0  0  0
 19 13  1  0  0  0  0
 20 11  1  6  0  0  0
 20 10  1  0  0  0  0
 21  1  1  0  0  0  0
 22 21  1  0  0  0  0
 23 25  1  6  0  0  0
 23 26  1  0  0  0  0
 23 22  1  0  0  0  0
 24 25  1  0  0  0  0
 27 26  1  0  0  0  0
 28 27  1  0  0  0  0
M  END
>  <MODEL>
9

>  <REMARK>
 VINA RESULT:      -7.6      2.459      4.314
  Name = 
  6 active torsions:
  status: ('A' for Active; 'I' for Inactive)
    1  A    between atoms: C_1  and  C_2
    2  A    between atoms: C_2  and  C_3
    3  A    between atoms: C_3  and  C_7
    4  A    between atoms: O_6  and  C_28
    5  A    between atoms: C_7  and  C_11
    6  A    between atoms: C_7  and  C_28
                            x       y       z     vdW  Elec       q    Type
                         _______ _______ _______ _____ _____    ______ ____

>  <TORSDO>
F 6

$$$$
