=
 OpenBabel10272400113D

 34 38  0  0  1  0  0  0  0  0999 V2000
  190.7910  177.2960  146.3130 C   0  0  0  0  0  0  0  0  0  0  0  0
  191.3470  175.3500  144.9080 C   0  0  0  0  0  0  0  0  0  0  0  0
  189.7530  177.1750  143.9950 C   0  0  0  0  0  0  0  0  0  0  0  0
  188.7050  177.6040  141.8140 C   0  0  0  0  0  0  0  0  0  0  0  0
  191.8050  176.9000  147.2420 N   0  0  0  0  0  0  0  0  0  0  0  0
  192.1550  174.9220  145.8890 C   0  0  0  0  0  3  0  0  0  0  0  0
  191.1530  176.9510  141.9720 C   0  0  0  0  0  3  0  0  0  0  0  0
  190.9250  176.8080  144.8880 C   0  0  1  0  0  3  0  0  0  0  0  0
  191.3200  177.2220  140.6750 C   0  0  0  0  0  3  0  0  0  0  0  0
  188.8200  177.5220  140.3220 C   0  0  0  0  0  2  0  0  0  0  0  0
  192.4690  175.7970  147.0440 C   0  0  0  0  0  3  0  0  0  0  0  0
  188.5040  177.6890  144.6070 C   0  0  0  0  0  0  0  0  0  0  0  0
  189.6730  177.8660  146.7650 C   0  0  0  0  0  3  0  0  0  0  0  0
  190.9460  174.2250  143.6210 Cl  0  0  0  0  0  0  0  0  0  0  0  0
  187.5610  177.9030  142.3500 N   0  0  0  0  0  0  0  0  0  0  0  0
  187.3690  177.9430  143.7470 N   0  0  0  0  0  0  0  0  0  0  0  0
  190.2380  177.8990  139.8710 C   0  0  2  0  0  3  0  0  0  0  0  0
  189.8700  177.2270  142.6540 C   0  0  0  0  0  0  0  0  0  0  0  0
  188.5040  178.0620  145.8940 C   0  0  0  0  0  3  0  0  0  0  0  0
  183.6840  178.6310  143.7990 C   0  0  0  0  0  0  0  0  0  0  0  0
  183.4310  178.6870  145.1710 C   0  0  0  0  0  3  0  0  0  0  0  0
  186.0420  178.2200  144.2410 C   0  0  0  0  0  0  0  0  0  0  0  0
  184.4740  178.5030  146.0820 C   0  0  0  0  0  3  0  0  0  0  0  0
  184.9830  178.3930  143.3370 C   0  0  0  0  0  3  0  0  0  0  0  0
  185.7710  178.2670  145.6200 C   0  0  0  0  0  3  0  0  0  0  0  0
  182.6730  178.8020  142.9150 F   0  0  0  0  0  0  0  0  0  0  0  0
  190.4300  177.7120  138.4310 N   0  0  0  0  0  2  0  0  0  0  0  0
  189.1540  177.4270  137.7780 C   0  0  0  0  0  2  0  0  0  0  0  0
  188.9660  179.7810  137.4210 O   0  0  0  0  0  1  0  0  0  0  0  0
  188.8090  178.5410  136.8020 C   0  0  2  0  0  3  0  0  0  0  0  0
  187.3930  178.3960  136.2430 C   0  0  0  0  0  2  0  0  0  0  0  0
  186.0540  178.7410  138.1900 O   0  0  0  0  0  0  0  0  0  0  0  0
  186.4070  177.9530  137.2750 C   0  0  0  0  0  0  0  0  0  0  0  0
  185.8470  176.6460  137.2100 N   0  0  0  0  0  1  0  0  0  0  0  0
  1 13  2  0  0  0  0
  1  5  1  0  0  0  0
  2  6  2  0  0  0  0
  3 12  1  0  0  0  0
  4 15  2  0  0  0  0
  4 18  1  0  0  0  0
  6 11  1  0  0  0  0
  7 18  1  0  0  0  0
  8  3  1  1  0  0  0
  8  2  1  0  0  0  0
  8  1  1  0  0  0  0
  9  7  2  0  0  0  0
 10  4  1  0  0  0  0
 11  5  2  0  0  0  0
 12 19  2  0  0  0  0
 14  2  1  0  0  0  0
 15 16  1  0  0  0  0
 16 22  1  0  0  0  0
 16 12  1  0  0  0  0
 17 27  1  6  0  0  0
 17 10  1  0  0  0  0
 17  9  1  0  0  0  0
 18  3  2  0  0  0  0
 19 13  1  0  0  0  0
 20 21  1  0  0  0  0
 21 23  2  0  0  0  0
 22 25  2  0  0  0  0
 24 20  2  0  0  0  0
 24 22  1  0  0  0  0
 25 23  1  0  0  0  0
 26 20  1  0  0  0  0
 28 27  1  0  0  0  0
 30 29  1  1  0  0  0
 30 28  1  0  0  0  0
 31 30  1  0  0  0  0
 31 33  1  0  0  0  0
 33 32  2  0  0  0  0
 34 33  1  0  0  0  0
M  END
>  <MODEL>
1

>  <REMARK>
 VINA RESULT:      -8.7      0.000      0.000
  Name = 
  6 active torsions:
  status: ('A' for Active; 'I' for Inactive)
    1  A    between atoms: N_3  and  C_13
    2  A    between atoms: N_3  and  C_29
    3  A    between atoms: C_12  and  N_28
    4  A    between atoms: C_13  and  C_33
    5  A    between atoms: C_20  and  C_22
    6  A    between atoms: C_22  and  C_33
                            x       y       z     vdW  Elec       q    Type
                         _______ _______ _______ _____ _____    ______ ____

>  <TORSDO>
F 6

$$$$
=
 OpenBabel10272400113D

 34 38  0  0  1  0  0  0  0  0999 V2000
  190.8970  177.3220  146.6570 C   0  0  0  0  0  0  0  0  0  0  0  0
  191.6450  175.3540  145.3770 C   0  0  0  0  0  0  0  0  0  0  0  0
  190.0820  177.0910  144.2600 C   0  0  0  0  0  0  0  0  0  0  0  0
  189.2280  177.4150  141.9790 C   0  0  0  0  0  0  0  0  0  0  0  0
  191.8330  176.9910  147.6880 N   0  0  0  0  0  0  0  0  0  0  0  0
  192.3710  174.9860  146.4420 C   0  0  0  0  0  3  0  0  0  0  0  0
  191.6710  176.8550  142.3820 C   0  0  0  0  0  3  0  0  0  0  0  0
  191.1780  176.7950  145.2690 C   0  0  1  0  0  3  0  0  0  0  0  0
  191.9470  177.0920  141.0980 C   0  0  0  0  0  3  0  0  0  0  0  0
  189.4830  177.2900  140.5070 C   0  0  0  0  0  2  0  0  0  0  0  0
  192.5480  175.9070  147.5900 C   0  0  0  0  0  3  0  0  0  0  0  0
  188.7660  177.5790  144.7370 C   0  0  0  0  0  0  0  0  0  0  0  0
  189.7240  177.8650  146.9860 C   0  0  0  0  0  3  0  0  0  0  0  0
  191.4020  174.1760  144.0980 Cl  0  0  0  0  0  0  0  0  0  0  0  0
  188.0290  177.6890  142.3980 N   0  0  0  0  0  0  0  0  0  0  0  0
  187.7080  177.7650  143.7690 N   0  0  0  0  0  0  0  0  0  0  0  0
  190.9230  177.7040  140.1750 C   0  0  2  0  0  3  0  0  0  0  0  0
  190.3210  177.1060  142.9340 C   0  0  0  0  0  0  0  0  0  0  0  0
  188.6340  177.9910  146.0050 C   0  0  0  0  0  3  0  0  0  0  0  0
  184.6350  178.2850  145.8530 C   0  0  0  0  0  0  0  0  0  0  0  0
  183.6770  178.5540  144.8730 C   0  0  0  0  0  3  0  0  0  0  0  0
  186.3330  178.0090  144.1300 C   0  0  0  0  0  0  0  0  0  0  0  0
  184.0400  178.5610  143.5240 C   0  0  0  0  0  3  0  0  0  0  0  0
  185.9570  178.0190  145.4820 C   0  0  0  0  0  3  0  0  0  0  0  0
  185.3610  178.2940  143.1550 C   0  0  0  0  0  3  0  0  0  0  0  0
  184.2850  178.2850  147.1610 F   0  0  0  0  0  0  0  0  0  0  0  0
  191.2530  177.4790  138.7660 N   0  0  0  0  0  2  0  0  0  0  0  0
  192.4190  176.6080  138.6470 C   0  0  0  0  0  2  0  0  0  0  0  0
  190.9050  174.8410  138.1070 O   0  0  0  0  0  1  0  0  0  0  0  0
  192.1050  175.4410  137.7230 C   0  0  2  0  0  3  0  0  0  0  0  0
  193.2350  174.4100  137.6940 C   0  0  0  0  0  2  0  0  0  0  0  0
  195.4170  174.9210  138.5190 O   0  0  0  0  0  0  0  0  0  0  0  0
  194.5860  175.0380  137.5810 C   0  0  0  0  0  0  0  0  0  0  0  0
  194.9460  175.7490  136.4010 N   0  0  0  0  0  1  0  0  0  0  0  0
  1 13  2  0  0  0  0
  1  5  1  0  0  0  0
  2  6  2  0  0  0  0
  3 12  1  0  0  0  0
  4 15  2  0  0  0  0
  4 18  1  0  0  0  0
  6 11  1  0  0  0  0
  7 18  1  0  0  0  0
  8  3  1  6  0  0  0
  8  2  1  0  0  0  0
  8  1  1  0  0  0  0
  9  7  2  0  0  0  0
 10  4  1  0  0  0  0
 11  5  2  0  0  0  0
 12 19  2  0  0  0  0
 14  2  1  0  0  0  0
 15 16  1  0  0  0  0
 16 22  1  0  0  0  0
 16 12  1  0  0  0  0
 17 27  1  6  0  0  0
 17 10  1  0  0  0  0
 17  9  1  0  0  0  0
 18  3  2  0  0  0  0
 19 13  1  0  0  0  0
 20 26  1  0  0  0  0
 21 20  2  0  0  0  0
 22 24  2  0  0  0  0
 23 21  1  0  0  0  0
 24 20  1  0  0  0  0
 25 23  2  0  0  0  0
 25 22  1  0  0  0  0
 28 27  1  0  0  0  0
 30 29  1  1  0  0  0
 30 28  1  0  0  0  0
 31 30  1  0  0  0  0
 33 31  1  0  0  0  0
 33 32  2  0  0  0  0
 34 33  1  0  0  0  0
M  END
>  <MODEL>
2

>  <REMARK>
 VINA RESULT:      -8.5      2.517      3.547
  Name = 
  6 active torsions:
  status: ('A' for Active; 'I' for Inactive)
    1  A    between atoms: N_3  and  C_13
    2  A    between atoms: N_3  and  C_29
    3  A    between atoms: C_12  and  N_28
    4  A    between atoms: C_13  and  C_33
    5  A    between atoms: C_20  and  C_22
    6  A    between atoms: C_22  and  C_33
                            x       y       z     vdW  Elec       q    Type
                         _______ _______ _______ _____ _____    ______ ____

>  <TORSDO>
F 6

$$$$
=
 OpenBabel10272400113D

 34 38  0  0  1  0  0  0  0  0999 V2000
  186.1780  176.7430  136.0850 C   0  0  0  0  0  0  0  0  0  0  0  0
  188.2410  178.0580  136.3780 C   0  0  0  0  0  0  0  0  0  0  0  0
  186.5320  177.9070  138.3180 C   0  0  0  0  0  0  0  0  0  0  0  0
  186.5260  178.6450  140.6610 C   0  0  0  0  0  0  0  0  0  0  0  0
  186.7020  176.2160  134.8620 N   0  0  0  0  0  2  0  0  0  0  0  0
  188.6100  177.6800  135.1460 C   0  0  0  0  0  3  0  0  0  0  0  0
  188.5630  177.5030  139.6660 C   0  0  0  0  0  3  0  0  0  0  0  0
  187.1710  177.2600  137.1010 C   0  0  0  0  0  0  0  0  0  0  0  0
  189.1190  177.4160  140.8770 C   0  0  0  0  0  3  0  0  0  0  0  0
  187.3200  178.8860  141.9100 C   0  0  0  0  0  2  0  0  0  0  0  0
  187.8550  176.6310  134.4200 C   0  0  0  0  0  3  0  0  0  0  0  0
  185.0870  178.2370  138.2930 C   0  0  0  0  0  0  0  0  0  0  0  0
  184.8690  176.9750  136.1920 C   0  0  0  0  0  3  0  0  0  0  0  0
  189.1270  179.3700  137.1380 Cl  0  0  0  0  0  0  0  0  0  0  0  0
  185.3040  179.0800  140.5890 N   0  0  0  0  0  0  0  0  0  0  0  0
  184.5200  178.9360  139.4250 N   0  0  0  0  0  0  0  0  0  0  0  0
  188.3410  177.7590  142.1230 C   0  0  2  0  0  3  0  0  0  0  0  0
  187.1890  178.0210  139.4890 C   0  0  0  0  0  0  0  0  0  0  0  0
  184.3130  177.7420  137.3170 C   0  0  0  0  0  3  0  0  0  0  0  0
  181.6540  181.2130  138.6160 C   0  0  0  0  0  0  0  0  0  0  0  0
  180.6160  180.6200  139.3390 C   0  0  0  0  0  3  0  0  0  0  0  0
  183.1980  179.5130  139.4230 C   0  0  0  0  0  0  0  0  0  0  0  0
  180.8590  179.4730  140.0970 C   0  0  0  0  0  3  0  0  0  0  0  0
  182.9370  180.6580  138.6550 C   0  0  0  0  0  3  0  0  0  0  0  0
  182.1410  178.9200  140.1350 C   0  0  0  0  0  3  0  0  0  0  0  0
  181.4180  182.3210  137.8750 F   0  0  0  0  0  0  0  0  0  0  0  0
  189.2220  178.0180  143.2630 N   0  0  0  0  0  2  0  0  0  0  0  0
  188.9000  177.1230  144.3720 C   0  0  0  0  0  2  0  0  0  0  0  0
  188.7440  177.6670  146.6930 O   0  0  0  0  0  1  0  0  0  0  0  0
  188.1430  177.8830  145.4520 C   0  0  2  0  0  3  0  0  0  0  0  0
  186.6640  177.4970  145.4970 C   0  0  0  0  0  2  0  0  0  0  0  0
  185.1820  179.1970  144.7120 O   0  0  0  0  0  0  0  0  0  0  0  0
  185.7660  178.6750  145.6970 C   0  0  0  0  0  0  0  0  0  0  0  0
  185.5500  179.1910  147.0050 N   0  0  0  0  0  1  0  0  0  0  0  0
  1 13  2  0  0  0  0
  1  8  1  0  0  0  0
  2  8  2  0  0  0  0
  2 14  1  0  0  0  0
  3 18  2  0  0  0  0
  4 10  1  0  0  0  0
  5  1  1  0  0  0  0
  6  2  1  0  0  0  0
  7  9  2  0  0  0  0
  8  3  1  0  0  0  0
  9 17  1  0  0  0  0
 10 17  1  0  0  0  0
 11  5  1  0  0  0  0
 11  6  2  0  0  0  0
 12  3  1  0  0  0  0
 12 16  1  0  0  0  0
 13 19  1  0  0  0  0
 15  4  2  0  0  0  0
 16 15  1  0  0  0  0
 17 27  1  1  0  0  0
 18  7  1  0  0  0  0
 18  4  1  0  0  0  0
 19 12  2  0  0  0  0
 20 24  2  0  0  0  0
 20 21  1  0  0  0  0
 21 23  2  0  0  0  0
 22 16  1  0  0  0  0
 22 25  2  0  0  0  0
 23 25  1  0  0  0  0
 24 22  1  0  0  0  0
 26 20  1  0  0  0  0
 27 28  1  0  0  0  0
 28 30  1  0  0  0  0
 30 31  1  0  0  0  0
 30 29  1  1  0  0  0
 31 33  1  0  0  0  0
 32 33  2  0  0  0  0
 33 34  1  0  0  0  0
M  END
>  <MODEL>
3

>  <REMARK>
 VINA RESULT:      -8.4      3.728      7.852
  Name = 
  6 active torsions:
  status: ('A' for Active; 'I' for Inactive)
    1  A    between atoms: N_3  and  C_13
    2  A    between atoms: N_3  and  C_29
    3  A    between atoms: C_12  and  N_28
    4  A    between atoms: C_13  and  C_33
    5  A    between atoms: C_20  and  C_22
    6  A    between atoms: C_22  and  C_33
                            x       y       z     vdW  Elec       q    Type
                         _______ _______ _______ _____ _____    ______ ____

>  <TORSDO>
F 6

$$$$
=
 OpenBabel10272400113D

 34 38  0  0  1  0  0  0  0  0999 V2000
  185.0820  179.1940  144.8250 C   0  0  0  0  0  0  0  0  0  0  0  0
  186.7000  177.3480  144.6190 C   0  0  0  0  0  0  0  0  0  0  0  0
  185.7640  178.4740  142.4830 C   0  0  0  0  0  0  0  0  0  0  0  0
  186.2650  178.2900  140.0850 C   0  0  0  0  0  0  0  0  0  0  0  0
  185.3350  179.2430  146.2320 N   0  0  0  0  0  0  0  0  0  0  0  0
  186.7680  177.3110  145.9580 C   0  0  0  0  0  3  0  0  0  0  0  0
  188.1360  178.4340  141.7940 C   0  0  0  0  0  3  0  0  0  0  0  0
  186.1560  178.5950  143.9460 C   0  0  1  0  0  3  0  0  0  0  0  0
  189.0330  178.5770  140.8160 C   0  0  0  0  0  3  0  0  0  0  0  0
  187.3020  178.0590  139.0280 C   0  0  0  0  0  2  0  0  0  0  0  0
  186.1420  178.3770  146.7750 C   0  0  0  0  0  3  0  0  0  0  0  0
  184.3460  178.6590  142.0920 C   0  0  0  0  0  0  0  0  0  0  0  0
  183.8550  179.4510  144.3700 C   0  0  0  0  0  3  0  0  0  0  0  0
  187.3830  176.0020  143.7210 Cl  0  0  0  0  0  0  0  0  0  0  0  0
  185.0090  178.2930  139.7570 N   0  0  0  0  0  0  0  0  0  0  0  0
  183.9800  178.4480  140.7090 N   0  0  0  0  0  0  0  0  0  0  0  0
  188.6050  178.7880  139.3850 C   0  0  2  0  0  3  0  0  0  0  0  0
  186.6870  178.3910  141.5050 C   0  0  0  0  0  0  0  0  0  0  0  0
  183.4780  179.1730  142.9750 C   0  0  0  0  0  3  0  0  0  0  0  0
  180.7500  179.3610  139.0380 C   0  0  0  0  0  0  0  0  0  0  0  0
  179.9820  178.2190  139.2770 C   0  0  0  0  0  3  0  0  0  0  0  0
  182.6150  178.3700  140.2500 C   0  0  0  0  0  0  0  0  0  0  0  0
  180.5230  177.1490  139.9920 C   0  0  0  0  0  3  0  0  0  0  0  0
  182.0620  179.4320  139.5190 C   0  0  0  0  0  3  0  0  0  0  0  0
  181.8340  177.2220  140.4720 C   0  0  0  0  0  3  0  0  0  0  0  0
  180.2280  180.3960  138.3400 F   0  0  0  0  0  0  0  0  0  0  0  0
  189.6840  178.4890  138.4420 N   0  0  0  0  0  2  0  0  0  0  0  0
  189.4990  177.1640  137.8560 C   0  0  0  0  0  2  0  0  0  0  0  0
  190.4560  174.9890  138.1020 O   0  0  0  0  0  1  0  0  0  0  0  0
  190.7720  176.3450  138.0090 C   0  0  2  0  0  3  0  0  0  0  0  0
  191.5990  176.7880  139.2160 C   0  0  0  0  0  2  0  0  0  0  0  0
  193.8640  177.2710  139.8000 O   0  0  0  0  0  0  0  0  0  0  0  0
  193.0570  176.9040  138.9060 C   0  0  0  0  0  0  0  0  0  0  0  0
  193.5380  176.5750  137.6080 N   0  0  0  0  0  1  0  0  0  0  0  0
  1  5  1  0  0  0  0
  2  6  2  0  0  0  0
  4 18  1  0  0  0  0
  5 11  2  0  0  0  0
  6 11  1  0  0  0  0
  8  3  1  6  0  0  0
  8  2  1  0  0  0  0
  8  1  1  0  0  0  0
  9  7  2  0  0  0  0
 10 17  1  0  0  0  0
 10  4  1  0  0  0  0
 12  3  1  0  0  0  0
 12 19  2  0  0  0  0
 13  1  2  0  0  0  0
 14  2  1  0  0  0  0
 15  4  2  0  0  0  0
 15 16  1  0  0  0  0
 16 12  1  0  0  0  0
 17 27  1  6  0  0  0
 17  9  1  0  0  0  0
 18  7  1  0  0  0  0
 18  3  2  0  0  0  0
 19 13  1  0  0  0  0
 20 21  2  0  0  0  0
 20 24  1  0  0  0  0
 21 23  1  0  0  0  0
 22 25  1  0  0  0  0
 22 16  1  0  0  0  0
 23 25  2  0  0  0  0
 24 22  2  0  0  0  0
 26 20  1  0  0  0  0
 28 30  1  0  0  0  0
 28 27  1  0  0  0  0
 30 29  1  1  0  0  0
 30 31  1  0  0  0  0
 33 31  1  0  0  0  0
 33 32  2  0  0  0  0
 34 33  1  0  0  0  0
M  END
>  <MODEL>
4

>  <REMARK>
 VINA RESULT:      -8.1      3.385      5.253
  Name = 
  6 active torsions:
  status: ('A' for Active; 'I' for Inactive)
    1  A    between atoms: N_3  and  C_13
    2  A    between atoms: N_3  and  C_29
    3  A    between atoms: C_12  and  N_28
    4  A    between atoms: C_13  and  C_33
    5  A    between atoms: C_20  and  C_22
    6  A    between atoms: C_22  and  C_33
                            x       y       z     vdW  Elec       q    Type
                         _______ _______ _______ _____ _____    ______ ____

>  <TORSDO>
F 6

$$$$
=
 OpenBabel10272400113D

 34 38  0  0  1  0  0  0  0  0999 V2000
  193.3000  176.5190  137.9980 C   0  0  0  0  0  0  0  0  0  0  0  0
  191.7420  174.8800  137.0190 C   0  0  0  0  0  0  0  0  0  0  0  0
  190.8390  176.7150  138.6080 C   0  0  0  0  0  0  0  0  0  0  0  0
  188.5950  177.4300  139.3060 C   0  0  0  0  0  0  0  0  0  0  0  0
  194.3280  176.0440  137.1230 N   0  0  0  0  0  2  0  0  0  0  0  0
  192.7780  174.3510  136.3530 C   0  0  0  0  0  3  0  0  0  0  0  0
  189.0990  176.9340  136.8680 C   0  0  0  0  0  3  0  0  0  0  0  0
  191.8670  176.2880  137.5750 C   0  0  0  0  0  0  0  0  0  0  0  0
  187.9120  177.4290  136.5110 C   0  0  0  0  0  3  0  0  0  0  0  0
  187.1540  177.6070  138.9310 C   0  0  0  0  0  2  0  0  0  0  0  0
  194.0900  175.0400  136.3290 C   0  0  0  0  0  3  0  0  0  0  0  0
  191.2820  177.0310  139.9880 C   0  0  0  0  0  0  0  0  0  0  0  0
  193.6200  176.9240  139.2270 C   0  0  0  0  0  3  0  0  0  0  0  0
  190.2460  173.9610  137.0820 Cl  0  0  0  0  0  0  0  0  0  0  0  0
  188.9500  177.5530  140.5490 N   0  0  0  0  0  0  0  0  0  0  0  0
  190.2770  177.3450  140.9790 N   0  0  0  0  0  0  0  0  0  0  0  0
  187.0350  178.1540  137.5010 C   0  0  2  0  0  3  0  0  0  0  0  0
  189.5670  177.0000  138.2700 C   0  0  0  0  0  0  0  0  0  0  0  0
  192.5890  177.1810  140.2450 C   0  0  0  0  0  3  0  0  0  0  0  0
  191.4580  176.4470  144.4220 C   0  0  0  0  0  0  0  0  0  0  0  0
  191.1760  177.6200  145.1270 C   0  0  0  0  0  3  0  0  0  0  0  0
  190.5540  177.4400  142.3920 C   0  0  0  0  0  0  0  0  0  0  0  0
  190.5930  178.7060  144.4710 C   0  0  0  0  0  3  0  0  0  0  0  0
  191.1520  176.3600  143.0600 C   0  0  0  0  0  3  0  0  0  0  0  0
  190.2880  178.6180  143.1100 C   0  0  0  0  0  3  0  0  0  0  0  0
  192.0290  175.3960  145.0560 F   0  0  0  0  0  0  0  0  0  0  0  0
  185.6440  178.2250  137.0500 N   0  0  0  0  0  2  0  0  0  0  0  0
  184.8300  177.2300  137.7420 C   0  0  0  0  0  2  0  0  0  0  0  0
  182.6500  177.9290  137.0580 O   0  0  0  0  0  1  0  0  0  0  0  0
  183.5010  177.8440  138.1600 C   0  0  2  0  0  3  0  0  0  0  0  0
  183.6810  179.2170  138.8080 C   0  0  0  0  0  2  0  0  0  0  0  0
  185.1420  179.6010  140.6580 O   0  0  0  0  0  0  0  0  0  0  0  0
  184.0460  179.1310  140.2550 C   0  0  0  0  0  0  0  0  0  0  0  0
  183.1450  178.5380  141.1830 N   0  0  0  0  0  1  0  0  0  0  0  0
  1 13  2  0  0  0  0
  2 14  1  0  0  0  0
  2  8  2  0  0  0  0
  3 12  1  0  0  0  0
  4 15  2  0  0  0  0
  5  1  1  0  0  0  0
  6  2  1  0  0  0  0
  7 18  1  0  0  0  0
  8  1  1  0  0  0  0
  8  3  1  0  0  0  0
  9  7  2  0  0  0  0
  9 17  1  0  0  0  0
 10  4  1  0  0  0  0
 11  6  2  0  0  0  0
 11  5  1  0  0  0  0
 12 19  2  0  0  0  0
 12 16  1  0  0  0  0
 13 19  1  0  0  0  0
 15 16  1  0  0  0  0
 16 22  1  0  0  0  0
 17 27  1  6  0  0  0
 17 10  1  0  0  0  0
 18  3  2  0  0  0  0
 18  4  1  0  0  0  0
 20 26  1  0  0  0  0
 20 21  1  0  0  0  0
 22 24  1  0  0  0  0
 22 25  2  0  0  0  0
 23 21  2  0  0  0  0
 24 20  2  0  0  0  0
 25 23  1  0  0  0  0
 27 28  1  0  0  0  0
 28 30  1  0  0  0  0
 30 29  1  6  0  0  0
 30 31  1  0  0  0  0
 31 33  1  0  0  0  0
 33 32  2  0  0  0  0
 33 34  1  0  0  0  0
M  END
>  <MODEL>
5

>  <REMARK>
 VINA RESULT:      -8.0      3.543      6.460
  Name = 
  6 active torsions:
  status: ('A' for Active; 'I' for Inactive)
    1  A    between atoms: N_3  and  C_13
    2  A    between atoms: N_3  and  C_29
    3  A    between atoms: C_12  and  N_28
    4  A    between atoms: C_13  and  C_33
    5  A    between atoms: C_20  and  C_22
    6  A    between atoms: C_22  and  C_33
                            x       y       z     vdW  Elec       q    Type
                         _______ _______ _______ _____ _____    ______ ____

>  <TORSDO>
F 6

$$$$
=
 OpenBabel10272400113D

 34 38  0  0  1  0  0  0  0  0999 V2000
  186.4570  176.5060  136.1020 C   0  0  0  0  0  0  0  0  0  0  0  0
  188.4330  177.9700  136.2610 C   0  0  0  0  0  0  0  0  0  0  0  0
  186.8300  177.7570  138.2840 C   0  0  0  0  0  0  0  0  0  0  0  0
  186.8780  178.5630  140.6040 C   0  0  0  0  0  0  0  0  0  0  0  0
  186.9620  175.9810  134.8700 N   0  0  0  0  0  2  0  0  0  0  0  0
  188.7710  177.5820  135.0230 C   0  0  0  0  0  3  0  0  0  0  0  0
  188.9440  177.5380  139.5440 C   0  0  0  0  0  3  0  0  0  0  0  0
  187.4570  177.1210  137.0550 C   0  0  0  0  0  0  0  0  0  0  0  0
  189.5590  177.5260  140.7280 C   0  0  0  0  0  3  0  0  0  0  0  0
  187.7090  178.8960  141.8070 C   0  0  0  0  0  2  0  0  0  0  0  0
  188.0600  176.4620  134.3620 C   0  0  0  0  0  3  0  0  0  0  0  0
  185.3650  177.9840  138.3190 C   0  0  0  0  0  0  0  0  0  0  0  0
  185.1420  176.6480  136.2650 C   0  0  0  0  0  3  0  0  0  0  0  0
  189.2560  179.3630  136.9430 Cl  0  0  0  0  0  0  0  0  0  0  0  0
  185.6260  178.9080  140.5780 N   0  0  0  0  0  0  0  0  0  0  0  0
  184.8020  178.6750  139.4580 N   0  0  0  0  0  0  0  0  0  0  0  0
  188.8160  177.8510  142.0000 C   0  0  2  0  0  3  0  0  0  0  0  0
  187.5290  177.9520  139.4190 C   0  0  0  0  0  0  0  0  0  0  0  0
  184.5840  177.4070  137.3950 C   0  0  0  0  0  3  0  0  0  0  0  0
  181.2010  179.0200  140.4410 C   0  0  0  0  0  0  0  0  0  0  0  0
  180.8070  180.1190  139.6740 C   0  0  0  0  0  3  0  0  0  0  0  0
  183.4430  179.1580  139.5040 C   0  0  0  0  0  0  0  0  0  0  0  0
  181.7250  180.7450  138.8280 C   0  0  0  0  0  3  0  0  0  0  0  0
  182.5140  178.5460  140.3600 C   0  0  0  0  0  3  0  0  0  0  0  0
  183.0370  180.2700  138.7470 C   0  0  0  0  0  3  0  0  0  0  0  0
  180.3130  178.4160  141.2660 F   0  0  0  0  0  0  0  0  0  0  0  0
  189.7270  178.2050  143.0910 N   0  0  0  0  0  2  0  0  0  0  0  0
  190.9870  177.4770  142.9610 C   0  0  0  0  0  2  0  0  0  0  0  0
  191.9220  175.5910  144.0900 O   0  0  0  0  0  1  0  0  0  0  0  0
  191.3700  176.8560  144.2960 C   0  0  2  0  0  3  0  0  0  0  0  0
  190.1800  176.7730  145.2530 C   0  0  0  0  0  2  0  0  0  0  0  0
  189.7290  177.5220  147.4760 O   0  0  0  0  0  0  0  0  0  0  0  0
  190.5640  177.0260  146.6750 C   0  0  0  0  0  0  0  0  0  0  0  0
  191.8670  176.6830  147.1330 N   0  0  0  0  0  1  0  0  0  0  0  0
  1 13  2  0  0  0  0
  1  8  1  0  0  0  0
  2 14  1  0  0  0  0
  2  8  2  0  0  0  0
  3 12  1  0  0  0  0
  3 18  2  0  0  0  0
  4 10  1  0  0  0  0
  5  1  1  0  0  0  0
  6  2  1  0  0  0  0
  7  9  2  0  0  0  0
  8  3  1  0  0  0  0
  9 17  1  0  0  0  0
 10 17  1  0  0  0  0
 11  5  1  0  0  0  0
 11  6  2  0  0  0  0
 12 16  1  0  0  0  0
 13 19  1  0  0  0  0
 15  4  2  0  0  0  0
 16 22  1  0  0  0  0
 16 15  1  0  0  0  0
 17 27  1  1  0  0  0
 18  7  1  0  0  0  0
 18  4  1  0  0  0  0
 19 12  2  0  0  0  0
 20 26  1  0  0  0  0
 21 20  2  0  0  0  0
 22 24  2  0  0  0  0
 23 21  1  0  0  0  0
 24 20  1  0  0  0  0
 25 23  2  0  0  0  0
 25 22  1  0  0  0  0
 28 27  1  0  0  0  0
 28 30  1  0  0  0  0
 30 29  1  6  0  0  0
 30 31  1  0  0  0  0
 31 33  1  0  0  0  0
 33 34  1  0  0  0  0
 33 32  2  0  0  0  0
M  END
>  <MODEL>
6

>  <REMARK>
 VINA RESULT:      -8.0      3.651      7.870
  Name = 
  6 active torsions:
  status: ('A' for Active; 'I' for Inactive)
    1  A    between atoms: N_3  and  C_13
    2  A    between atoms: N_3  and  C_29
    3  A    between atoms: C_12  and  N_28
    4  A    between atoms: C_13  and  C_33
    5  A    between atoms: C_20  and  C_22
    6  A    between atoms: C_22  and  C_33
                            x       y       z     vdW  Elec       q    Type
                         _______ _______ _______ _____ _____    ______ ____

>  <TORSDO>
F 6

$$$$
=
 OpenBabel10272400113D

 34 38  0  0  1  0  0  0  0  0999 V2000
  190.7040  177.3180  146.3850 C   0  0  0  0  0  0  0  0  0  0  0  0
  191.2540  175.3910  144.9510 C   0  0  0  0  0  0  0  0  0  0  0  0
  189.6790  177.2440  144.0590 C   0  0  0  0  0  0  0  0  0  0  0  0
  188.6490  177.7190  141.8800 C   0  0  0  0  0  0  0  0  0  0  0  0
  191.7090  176.8980  147.3130 N   0  0  0  0  0  0  0  0  0  0  0  0
  192.0510  174.9400  145.9300 C   0  0  0  0  0  3  0  0  0  0  0  0
  191.0910  177.0440  142.0410 C   0  0  0  0  0  3  0  0  0  0  0  0
  190.8430  176.8530  144.9530 C   0  0  1  0  0  3  0  0  0  0  0  0
  191.2680  177.3350  140.7510 C   0  0  0  0  0  3  0  0  0  0  0  0
  188.7730  177.6600  140.3870 C   0  0  0  0  0  2  0  0  0  0  0  0
  192.3650  175.7930  147.1010 C   0  0  0  0  0  3  0  0  0  0  0  0
  188.4310  177.7580  144.6720 C   0  0  0  0  0  0  0  0  0  0  0  0
  189.5880  177.8890  146.8400 C   0  0  0  0  0  3  0  0  0  0  0  0
  190.8520  174.2910  143.6420 Cl  0  0  0  0  0  0  0  0  0  0  0  0
  187.5030  178.0170  142.4130 N   0  0  0  0  0  0  0  0  0  0  0  0
  187.3040  178.0350  143.8090 N   0  0  0  0  0  0  0  0  0  0  0  0
  190.1970  178.0340  139.9510 C   0  0  2  0  0  3  0  0  0  0  0  0
  189.8050  177.3180  142.7200 C   0  0  0  0  0  0  0  0  0  0  0  0
  188.4250  178.1080  145.9650 C   0  0  0  0  0  3  0  0  0  0  0  0
  183.6280  178.7730  143.8490 C   0  0  0  0  0  0  0  0  0  0  0  0
  183.3620  178.7860  145.2200 C   0  0  0  0  0  3  0  0  0  0  0  0
  185.9760  178.3140  144.3000 C   0  0  0  0  0  0  0  0  0  0  0  0
  184.3920  178.5560  146.1340 C   0  0  0  0  0  3  0  0  0  0  0  0
  184.9280  178.5330  143.3920 C   0  0  0  0  0  3  0  0  0  0  0  0
  185.6910  178.3170  145.6760 C   0  0  0  0  0  3  0  0  0  0  0  0
  182.6280  178.9900  142.9620 F   0  0  0  0  0  0  0  0  0  0  0  0
  190.3960  177.8700  138.5090 N   0  0  0  0  0  2  0  0  0  0  0  0
  189.1100  177.7820  137.8220 C   0  0  0  0  0  2  0  0  0  0  0  0
  188.3620  177.3010  135.6050 O   0  0  0  0  0  1  0  0  0  0  0  0
  189.2280  176.8700  136.6110 C   0  0  2  0  0  3  0  0  0  0  0  0
  188.9550  175.4070  136.9640 C   0  0  0  0  0  2  0  0  0  0  0  0
  190.5030  173.7500  137.7140 O   0  0  0  0  0  0  0  0  0  0  0  0
  190.1600  174.5380  136.7940 C   0  0  0  0  0  0  0  0  0  0  0  0
  190.9050  174.5810  135.5830 N   0  0  0  0  0  1  0  0  0  0  0  0
  1 13  2  0  0  0  0
  1  5  1  0  0  0  0
  2  8  1  0  0  0  0
  2  6  2  0  0  0  0
  3 12  1  0  0  0  0
  4 15  2  0  0  0  0
  4 18  1  0  0  0  0
  6 11  1  0  0  0  0
  7 18  1  0  0  0  0
  8  3  1  6  0  0  0
  8  1  1  0  0  0  0
  9  7  2  0  0  0  0
 10  4  1  0  0  0  0
 11  5  2  0  0  0  0
 12 19  2  0  0  0  0
 14  2  1  0  0  0  0
 15 16  1  0  0  0  0
 16 22  1  0  0  0  0
 16 12  1  0  0  0  0
 17 27  1  6  0  0  0
 17 10  1  0  0  0  0
 17  9  1  0  0  0  0
 18  3  2  0  0  0  0
 19 13  1  0  0  0  0
 20 21  1  0  0  0  0
 21 23  2  0  0  0  0
 22 25  2  0  0  0  0
 24 20  2  0  0  0  0
 24 22  1  0  0  0  0
 25 23  1  0  0  0  0
 26 20  1  0  0  0  0
 28 27  1  0  0  0  0
 30 29  1  6  0  0  0
 30 31  1  0  0  0  0
 30 28  1  0  0  0  0
 33 31  1  0  0  0  0
 33 32  2  0  0  0  0
 34 33  1  0  0  0  0
M  END
>  <MODEL>
7

>  <REMARK>
 VINA RESULT:      -7.8      1.574      1.946
  Name = 
  6 active torsions:
  status: ('A' for Active; 'I' for Inactive)
    1  A    between atoms: N_3  and  C_13
    2  A    between atoms: N_3  and  C_29
    3  A    between atoms: C_12  and  N_28
    4  A    between atoms: C_13  and  C_33
    5  A    between atoms: C_20  and  C_22
    6  A    between atoms: C_22  and  C_33
                            x       y       z     vdW  Elec       q    Type
                         _______ _______ _______ _____ _____    ______ ____

>  <TORSDO>
F 6

$$$$
=
 OpenBabel10272400113D

 34 38  0  0  1  0  0  0  0  0999 V2000
  193.0550  176.5700  138.6490 C   0  0  0  0  0  0  0  0  0  0  0  0
  191.7500  174.8180  137.5080 C   0  0  0  0  0  0  0  0  0  0  0  0
  190.5190  176.7500  138.7170 C   0  0  0  0  0  0  0  0  0  0  0  0
  188.1720  177.4590  138.8720 C   0  0  0  0  0  0  0  0  0  0  0  0
  194.2480  176.0550  138.0490 N   0  0  0  0  0  0  0  0  0  0  0  0
  192.9080  174.2660  137.1180 C   0  0  0  0  0  3  0  0  0  0  0  0
  189.1800  176.7840  136.6410 C   0  0  0  0  0  3  0  0  0  0  0  0
  191.7440  176.2680  137.9580 C   0  0  1  0  0  3  0  0  0  0  0  0
  188.0890  177.2180  136.0060 C   0  0  0  0  0  3  0  0  0  0  0  0
  186.8400  177.5680  138.1920 C   0  0  0  0  0  2  0  0  0  0  0  0
  194.1900  174.9840  137.3090 C   0  0  0  0  0  3  0  0  0  0  0  0
  190.6610  177.1850  140.1270 C   0  0  0  0  0  0  0  0  0  0  0  0
  193.1070  177.0800  139.8800 C   0  0  0  0  0  3  0  0  0  0  0  0
  190.2830  173.8690  137.3350 Cl  0  0  0  0  0  0  0  0  0  0  0  0
  188.2580  177.6890  140.1470 N   0  0  0  0  0  0  0  0  0  0  0  0
  189.4680  177.5510  140.8580 N   0  0  0  0  0  0  0  0  0  0  0  0
  187.0180  177.9960  136.7280 C   0  0  2  0  0  3  0  0  0  0  0  0
  189.3430  176.9730  138.0990 C   0  0  0  0  0  0  0  0  0  0  0  0
  191.8840  177.3900  140.6360 C   0  0  0  0  0  3  0  0  0  0  0  0
  188.3470  177.4430  144.4340 C   0  0  0  0  0  0  0  0  0  0  0  0
  189.3990  178.1010  145.0750 C   0  0  0  0  0  3  0  0  0  0  0  0
  189.4430  177.7660  142.2850 C   0  0  0  0  0  0  0  0  0  0  0  0
  190.4770  178.5860  144.3310 C   0  0  0  0  0  3  0  0  0  0  0  0
  188.3720  177.2720  143.0460 C   0  0  0  0  0  3  0  0  0  0  0  0
  190.5010  178.4150  142.9440 C   0  0  0  0  0  3  0  0  0  0  0  0
  187.3050  176.9680  145.1560 F   0  0  0  0  0  0  0  0  0  0  0  0
  185.7510  177.9940  135.9940 N   0  0  0  0  0  2  0  0  0  0  0  0
  184.7310  177.2570  136.7340 C   0  0  0  0  0  2  0  0  0  0  0  0
  183.6140  175.9150  135.1040 O   0  0  0  0  0  1  0  0  0  0  0  0
  184.5530  175.8700  136.1350 C   0  0  2  0  0  3  0  0  0  0  0  0
  184.1460  174.8370  137.1870 C   0  0  0  0  0  2  0  0  0  0  0  0
  184.8890  172.6620  137.8350 O   0  0  0  0  0  0  0  0  0  0  0  0
  185.2050  173.8100  137.4290 C   0  0  0  0  0  0  0  0  0  0  0  0
  186.5700  174.1220  137.1770 N   0  0  0  0  0  1  0  0  0  0  0  0
  1 13  2  0  0  0  0
  3 12  1  0  0  0  0
  4 15  2  0  0  0  0
  5  1  1  0  0  0  0
  6 11  1  0  0  0  0
  6  2  2  0  0  0  0
  7 18  1  0  0  0  0
  8  2  1  1  0  0  0
  8  1  1  0  0  0  0
  8  3  1  0  0  0  0
  9  7  2  0  0  0  0
  9 17  1  0  0  0  0
 10  4  1  0  0  0  0
 11  5  2  0  0  0  0
 12 19  2  0  0  0  0
 12 16  1  0  0  0  0
 13 19  1  0  0  0  0
 14  2  1  0  0  0  0
 15 16  1  0  0  0  0
 16 22  1  0  0  0  0
 17 27  1  6  0  0  0
 17 10  1  0  0  0  0
 18  3  2  0  0  0  0
 18  4  1  0  0  0  0
 20 21  1  0  0  0  0
 20 26  1  0  0  0  0
 22 25  2  0  0  0  0
 22 24  1  0  0  0  0
 23 21  2  0  0  0  0
 24 20  2  0  0  0  0
 25 23  1  0  0  0  0
 27 28  1  0  0  0  0
 30 29  1  6  0  0  0
 30 28  1  0  0  0  0
 30 31  1  0  0  0  0
 31 33  1  0  0  0  0
 33 32  2  0  0  0  0
 34 33  1  0  0  0  0
M  END
>  <MODEL>
8

>  <REMARK>
 VINA RESULT:      -7.8      3.380      5.862
  Name = 
  6 active torsions:
  status: ('A' for Active; 'I' for Inactive)
    1  A    between atoms: N_3  and  C_13
    2  A    between atoms: N_3  and  C_29
    3  A    between atoms: C_12  and  N_28
    4  A    between atoms: C_13  and  C_33
    5  A    between atoms: C_20  and  C_22
    6  A    between atoms: C_22  and  C_33
                            x       y       z     vdW  Elec       q    Type
                         _______ _______ _______ _____ _____    ______ ____

>  <TORSDO>
F 6

$$$$
=
 OpenBabel10272400113D

 34 38  0  0  1  0  0  0  0  0999 V2000
  190.7520  177.3760  146.5770 C   0  0  0  0  0  0  0  0  0  0  0  0
  191.5430  175.3980  145.3390 C   0  0  0  0  0  0  0  0  0  0  0  0
  190.0170  177.1230  144.1550 C   0  0  0  0  0  0  0  0  0  0  0  0
  189.2390  177.4260  141.8450 C   0  0  0  0  0  0  0  0  0  0  0  0
  191.6530  177.0550  147.6410 N   0  0  0  0  0  0  0  0  0  0  0  0
  192.2330  175.0400  146.4310 C   0  0  0  0  0  3  0  0  0  0  0  0
  191.6670  176.8720  142.3340 C   0  0  0  0  0  3  0  0  0  0  0  0
  191.0790  176.8370  145.2030 C   0  0  1  0  0  3  0  0  0  0  0  0
  191.9870  177.0970  141.0580 C   0  0  0  0  0  3  0  0  0  0  0  0
  189.5430  177.2880  140.3830 C   0  0  0  0  0  2  0  0  0  0  0  0
  192.3720  175.9710  147.5760 C   0  0  0  0  0  3  0  0  0  0  0  0
  188.6860  177.6150  144.5840 C   0  0  0  0  0  0  0  0  0  0  0  0
  189.5680  177.9210  146.8610 C   0  0  0  0  0  3  0  0  0  0  0  0
  191.3430  174.2080  144.0630 Cl  0  0  0  0  0  0  0  0  0  0  0  0
  188.0270  177.7030  142.2210 N   0  0  0  0  0  0  0  0  0  0  0  0
  187.6600  177.7910  143.5800 N   0  0  0  0  0  0  0  0  0  0  0  0
  190.9930  177.7000  140.0960 C   0  0  2  0  0  3  0  0  0  0  0  0
  190.3000  177.1260  142.8380 C   0  0  0  0  0  0  0  0  0  0  0  0
  188.5110  178.0380  145.8440 C   0  0  0  0  0  3  0  0  0  0  0  0
  184.5260  178.3630  145.5560 C   0  0  0  0  0  0  0  0  0  0  0  0
  183.5940  178.5880  144.5400 C   0  0  0  0  0  3  0  0  0  0  0  0
  186.2740  178.0370  143.8930 C   0  0  0  0  0  0  0  0  0  0  0  0
  183.9950  178.5480  143.2030 C   0  0  0  0  0  3  0  0  0  0  0  0
  185.8600  178.0940  145.2330 C   0  0  0  0  0  3  0  0  0  0  0  0
  185.3280  178.2790  142.8810 C   0  0  0  0  0  3  0  0  0  0  0  0
  184.1390  178.4080  146.8520 F   0  0  0  0  0  0  0  0  0  0  0  0
  191.3700  177.4640  138.7000 N   0  0  0  0  0  2  0  0  0  0  0  0
  191.4980  176.0320  138.4410 C   0  0  0  0  0  2  0  0  0  0  0  0
  193.5470  176.9130  137.5870 O   0  0  0  0  0  1  0  0  0  0  0  0
  192.8810  175.7250  137.8870 C   0  0  2  0  0  3  0  0  0  0  0  0
  192.8190  174.8190  136.6570 C   0  0  0  0  0  2  0  0  0  0  0  0
  191.6690  176.1620  135.0500 O   0  0  0  0  0  0  0  0  0  0  0  0
  191.6560  175.1280  135.7690 C   0  0  0  0  0  0  0  0  0  0  0  0
  190.5440  174.2430  135.7170 N   0  0  0  0  0  1  0  0  0  0  0  0
  1 13  2  0  0  0  0
  1  5  1  0  0  0  0
  2  6  2  0  0  0  0
  3 12  1  0  0  0  0
  4 15  2  0  0  0  0
  4 18  1  0  0  0  0
  6 11  1  0  0  0  0
  7 18  1  0  0  0  0
  8  3  1  6  0  0  0
  8  2  1  0  0  0  0
  8  1  1  0  0  0  0
  9  7  2  0  0  0  0
 10  4  1  0  0  0  0
 11  5  2  0  0  0  0
 12 19  2  0  0  0  0
 14  2  1  0  0  0  0
 15 16  1  0  0  0  0
 16 22  1  0  0  0  0
 16 12  1  0  0  0  0
 17 27  1  6  0  0  0
 17 10  1  0  0  0  0
 17  9  1  0  0  0  0
 18  3  2  0  0  0  0
 19 13  1  0  0  0  0
 20 26  1  0  0  0  0
 21 20  2  0  0  0  0
 22 24  2  0  0  0  0
 23 21  1  0  0  0  0
 24 20  1  0  0  0  0
 25 23  2  0  0  0  0
 25 22  1  0  0  0  0
 28 27  1  0  0  0  0
 30 29  1  6  0  0  0
 30 28  1  0  0  0  0
 31 30  1  0  0  0  0
 32 33  2  0  0  0  0
 33 31  1  0  0  0  0
 34 33  1  0  0  0  0
M  END
>  <MODEL>
9

>  <REMARK>
 VINA RESULT:      -7.7      2.393      2.819
  Name = 
  6 active torsions:
  status: ('A' for Active; 'I' for Inactive)
    1  A    between atoms: N_3  and  C_13
    2  A    between atoms: N_3  and  C_29
    3  A    between atoms: C_12  and  N_28
    4  A    between atoms: C_13  and  C_33
    5  A    between atoms: C_20  and  C_22
    6  A    between atoms: C_22  and  C_33
                            x       y       z     vdW  Elec       q    Type
                         _______ _______ _______ _____ _____    ______ ____

>  <TORSDO>
F 6

$$$$
