=
 OpenBabel10272415323D

 34 39  0  0  1  0  0  0  0  0999 V2000
  184.2340  178.9340  141.2080 N   0  0  0  0  0  0  0  0  0  0  0  0
  184.4110  178.5520  143.6880 C   0  0  0  0  0  0  0  0  0  0  0  0
  182.1240  179.5160  143.0320 C   0  0  0  0  0  2  0  0  0  0  0  0
  184.8540  179.5440  140.1680 O   0  0  0  0  0  1  0  0  0  0  0  0
  182.7200  177.4670  139.9010 C   0  0  0  0  0  0  0  0  0  0  0  0
  180.4070  177.2090  140.5870 C   0  0  0  0  0  3  0  0  0  0  0  0
  181.4510  176.9080  139.7100 C   0  0  0  0  0  3  0  0  0  0  0  0
  181.8900  178.6270  141.8670 C   0  0  0  0  0  0  0  0  0  0  0  0
  182.9440  178.3440  140.9870 C   0  0  0  0  0  0  0  0  0  0  0  0
  180.6280  178.0640  141.6660 C   0  0  0  0  0  3  0  0  0  0  0  0
  185.2090  178.1800  144.7760 C   0  0  0  0  0  3  0  0  0  0  0  0
  186.5700  177.9200  144.6120 C   0  0  0  0  0  0  0  0  0  0  0  0
  187.1530  178.0390  143.3520 C   0  0  0  0  0  3  0  0  0  0  0  0
  183.0390  178.8720  143.9620 N   0  0  0  0  0  2  0  0  0  0  0  0
  186.3690  178.3960  142.2540 C   0  0  0  0  0  3  0  0  0  0  0  0
  184.9950  178.6410  142.3960 C   0  0  0  0  0  0  0  0  0  0  0  0
  187.3830  177.5360  145.7590 C   0  0  0  0  0  0  0  0  0  0  0  0
  187.4800  177.2310  147.0800 O   0  0  0  0  0  0  0  0  0  0  0  0
  188.5710  177.2280  146.2760 N   0  0  0  0  0  0  0  0  0  0  0  0
  183.8210  177.0490  138.9750 C   0  0  0  0  0  2  0  0  0  0  0  0
  183.5750  177.5370  137.5480 C   0  0  0  0  0  2  0  0  0  0  0  0
  184.9400  177.5120  135.6850 N   0  0  0  0  0  0  0  0  0  0  0  0
  185.2050  175.8620  137.3060 C   0  0  0  0  0  2  0  0  0  0  0  0
  188.4940  177.7110  136.9800 C   0  0  2  0  0  3  0  0  0  0  0  0
  188.2250  176.5930  137.8910 N   0  0  0  0  0  0  0  0  0  0  0  0
  187.1830  178.2400  136.4090 C   0  0  1  0  0  3  0  0  0  0  0  0
  189.4080  176.2100  138.4270 O   0  0  0  0  0  1  0  0  0  0  0  0
  186.3540  177.1300  135.7180 C   0  0  1  0  0  3  0  0  0  0  0  0
  189.3640  177.3370  135.9480 O   0  0  0  0  0  1  0  0  0  0  0  0
  187.7070  175.4530  137.1400 C   0  0  0  0  0  2  0  0  0  0  0  0
  186.3990  175.7880  136.4170 C   0  0  1  0  0  3  0  0  0  0  0  0
  186.4580  178.8640  137.4280 O   0  0  0  0  0  1  0  0  0  0  0  0
  184.2310  176.6720  136.5770 N   0  0  0  0  0  0  0  0  0  0  0  0
  184.4470  177.2260  134.3460 C   0  0  0  0  0  1  0  0  0  0  0  0
  1 16  1  0  0  0  0
  2 14  1  0  0  0  0
  2 11  1  0  0  0  0
  3 14  1  0  0  0  0
  4  1  1  0  0  0  0
  5  9  1  0  0  0  0
  6 10  2  0  0  0  0
  7  5  2  0  0  0  0
  7  6  1  0  0  0  0
  8  3  1  0  0  0  0
  9  1  1  0  0  0  0
  9  8  2  0  0  0  0
 10  8  1  0  0  0  0
 12 11  2  0  0  0  0
 12 17  1  0  0  0  0
 13 12  1  0  0  0  0
 15 16  1  0  0  0  0
 15 13  2  0  0  0  0
 16  2  2  0  0  0  0
 17 19  2  0  0  0  0
 17 18  1  0  0  0  0
 19 18  1  0  0  0  0
 20  5  1  0  0  0  0
 21 20  1  0  0  0  0
 22 33  1  0  0  0  0
 24 29  1  6  0  0  0
 24 25  1  0  0  0  0
 25 27  1  0  0  0  0
 26 24  1  0  0  0  0
 26 32  1  1  0  0  0
 28 22  1  1  0  0  0
 28 26  1  0  0  0  0
 28 31  1  0  0  0  0
 30 25  1  0  0  0  0
 31 30  1  1  0  0  0
 31 23  1  0  0  0  0
 33 23  1  0  0  0  0
 33 21  1  0  0  0  0
 34 22  1  0  0  0  0
M  END
>  <MODEL>
1

>  <REMARK>
 VINA RESULT:      -8.0      0.000      0.000
  Name = 
  4 active torsions:
  status: ('A' for Active; 'I' for Inactive)
    1  A    between atoms: C_3  and  C_25
    2  A    between atoms: C_8  and  C_10
    3  A    between atoms: C_8  and  C_18
    4  A    between atoms: C_18  and  N_30
                            x       y       z     vdW  Elec       q    Type
                         _______ _______ _______ _____ _____    ______ ____

>  <TORSDO>
F 4

$$$$
=
 OpenBabel10272415323D

 34 39  0  0  1  0  0  0  0  0999 V2000
  190.9570  177.1080  138.8500 N   0  0  0  0  0  0  0  0  0  0  0  0
  188.9560  177.8880  140.1600 C   0  0  0  0  0  0  0  0  0  0  0  0
  189.1100  179.0460  137.8750 C   0  0  0  0  0  2  0  0  0  0  0  0
  192.3020  176.9590  138.9290 O   0  0  0  0  0  1  0  0  0  0  0  0
  190.5680  175.7050  136.8410 C   0  0  0  0  0  0  0  0  0  0  0  0
  189.0410  176.4690  135.1170 C   0  0  0  0  0  3  0  0  0  0  0  0
  189.9290  175.5110  135.6120 C   0  0  0  0  0  3  0  0  0  0  0  0
  189.4120  177.8270  137.0840 C   0  0  0  0  0  0  0  0  0  0  0  0
  190.3150  176.8800  137.5850 C   0  0  0  0  0  0  0  0  0  0  0  0
  188.7800  177.6230  135.8550 C   0  0  0  0  0  3  0  0  0  0  0  0
  188.2400  177.8520  141.3620 C   0  0  0  0  0  3  0  0  0  0  0  0
  188.7350  177.1690  142.4730 C   0  0  0  0  0  0  0  0  0  0  0  0
  189.9640  176.5170  142.3960 C   0  0  0  0  0  3  0  0  0  0  0  0
  188.4080  178.6760  139.0940 N   0  0  0  0  0  2  0  0  0  0  0  0
  190.6860  176.5310  141.2020 C   0  0  0  0  0  3  0  0  0  0  0  0
  190.1950  177.1960  140.0690 C   0  0  0  0  0  0  0  0  0  0  0  0
  187.9730  177.1460  143.7160 C   0  0  0  0  0  0  0  0  0  0  0  0
  186.7900  176.9840  144.3640 O   0  0  0  0  0  0  0  0  0  0  0  0
  187.9280  177.2680  145.0400 N   0  0  0  0  0  0  0  0  0  0  0  0
  191.4510  174.6100  137.3570 C   0  0  0  0  0  2  0  0  0  0  0  0
  192.7490  174.5060  136.5590 C   0  0  0  0  0  2  0  0  0  0  0  0
  194.3920  173.0100  135.9300 N   0  0  0  0  0  0  0  0  0  0  0  0
  194.4030  173.8600  138.0970 C   0  0  0  0  0  2  0  0  0  0  0  0
  197.6940  174.7850  136.4670 C   0  0  2  0  0  3  0  0  0  0  0  0
  197.2900  175.1250  137.8350 N   0  0  0  0  0  0  0  0  0  0  0  0
  196.4880  174.2850  135.6790 C   0  0  1  0  0  3  0  0  0  0  0  0
  198.3740  175.6330  138.4680 O   0  0  0  0  0  1  0  0  0  0  0  0
  195.7840  173.0960  136.3760 C   0  0  1  0  0  3  0  0  0  0  0  0
  198.7190  173.8300  136.4560 O   0  0  0  0  0  1  0  0  0  0  0  0
  196.9020  173.9160  138.5550 C   0  0  0  0  0  2  0  0  0  0  0  0
  195.7240  173.2020  137.8850 C   0  0  1  0  0  3  0  0  0  0  0  0
  195.6090  175.3500  135.4650 O   0  0  0  0  0  1  0  0  0  0  0  0
  193.5540  173.3790  137.0100 N   0  0  0  0  0  0  0  0  0  0  0  0
  194.1190  171.6110  135.6360 C   0  0  0  0  0  1  0  0  0  0  0  0
  1  4  1  0  0  0  0
  1 16  1  0  0  0  0
  2 11  1  0  0  0  0
  3 14  1  0  0  0  0
  5 20  1  0  0  0  0
  5  9  1  0  0  0  0
  6  7  1  0  0  0  0
  6 10  2  0  0  0  0
  7  5  2  0  0  0  0
  8  9  2  0  0  0  0
  8  3  1  0  0  0  0
  9  1  1  0  0  0  0
 10  8  1  0  0  0  0
 11 12  2  0  0  0  0
 12 17  1  0  0  0  0
 13 12  1  0  0  0  0
 14  2  1  0  0  0  0
 15 13  2  0  0  0  0
 16  2  2  0  0  0  0
 16 15  1  0  0  0  0
 17 18  1  0  0  0  0
 17 19  2  0  0  0  0
 18 19  1  0  0  0  0
 21 33  1  0  0  0  0
 21 20  1  0  0  0  0
 22 33  1  0  0  0  0
 24 29  1  1  0  0  0
 24 25  1  0  0  0  0
 25 27  1  0  0  0  0
 25 30  1  0  0  0  0
 26 32  1  1  0  0  0
 26 28  1  0  0  0  0
 26 24  1  0  0  0  0
 28 22  1  6  0  0  0
 28 31  1  0  0  0  0
 31 23  1  6  0  0  0
 31 30  1  0  0  0  0
 33 23  1  0  0  0  0
 34 22  1  0  0  0  0
M  END
>  <MODEL>
2

>  <REMARK>
 VINA RESULT:      -7.7      5.621      8.311
  Name = 
  4 active torsions:
  status: ('A' for Active; 'I' for Inactive)
    1  A    between atoms: C_3  and  C_25
    2  A    between atoms: C_8  and  C_10
    3  A    between atoms: C_8  and  C_18
    4  A    between atoms: C_18  and  N_30
                            x       y       z     vdW  Elec       q    Type
                         _______ _______ _______ _____ _____    ______ ____

>  <TORSDO>
F 4

$$$$
=
 OpenBabel10272415323D

 34 39  0  0  1  0  0  0  0  0999 V2000
  190.9770  177.5960  140.4080 N   0  0  0  0  0  0  0  0  0  0  0  0
  189.4440  177.7580  142.3950 C   0  0  0  0  0  0  0  0  0  0  0  0
  188.4320  178.8740  140.3170 C   0  0  0  0  0  2  0  0  0  0  0  0
  192.2450  177.8610  140.0040 O   0  0  0  0  0  1  0  0  0  0  0  0
  190.3160  176.1110  138.5340 C   0  0  0  0  0  0  0  0  0  0  0  0
  188.1240  176.3530  137.5230 C   0  0  0  0  0  3  0  0  0  0  0  0
  189.3640  175.7150  137.5880 C   0  0  0  0  0  3  0  0  0  0  0  0
  188.7670  177.7900  139.3600 C   0  0  0  0  0  0  0  0  0  0  0  0
  190.0210  177.1670  139.4270 C   0  0  0  0  0  0  0  0  0  0  0  0
  187.8240  177.3870  138.4110 C   0  0  0  0  0  3  0  0  0  0  0  0
  189.2460  177.5260  143.7620 C   0  0  0  0  0  3  0  0  0  0  0  0
  190.2800  177.0410  144.5630 C   0  0  0  0  0  0  0  0  0  0  0  0
  191.5320  176.7890  144.0070 C   0  0  0  0  0  3  0  0  0  0  0  0
  188.3490  178.3280  141.6630 N   0  0  0  0  0  2  0  0  0  0  0  0
  191.7420  177.0010  142.6440 C   0  0  0  0  0  3  0  0  0  0  0  0
  190.7100  177.4700  141.8170 C   0  0  0  0  0  0  0  0  0  0  0  0
  190.0530  176.8090  145.9850 C   0  0  0  0  0  0  0  0  0  0  0  0
  190.5370  176.4910  147.2140 O   0  0  0  0  0  0  0  0  0  0  0  0
  189.2220  176.7530  147.0240 N   0  0  0  0  0  0  0  0  0  0  0  0
  191.5990  175.3410  138.6090 C   0  0  0  0  0  2  0  0  0  0  0  0
  192.4460  175.5300  137.3520 C   0  0  0  0  0  2  0  0  0  0  0  0
  193.5860  174.4620  135.6500 N   0  0  0  0  0  0  0  0  0  0  0  0
  194.2510  174.1110  137.8530 C   0  0  0  0  0  2  0  0  0  0  0  0
  197.2010  175.5470  135.9620 C   0  0  2  0  0  3  0  0  0  0  0  0
  197.1900  175.1780  137.3820 N   0  0  0  0  0  0  0  0  0  0  0  0
  195.7750  175.5760  135.4230 C   0  0  1  0  0  3  0  0  0  0  0  0
  198.4660  175.2400  137.8310 O   0  0  0  0  0  1  0  0  0  0  0  0
  195.0330  174.2380  135.6570 C   0  0  1  0  0  3  0  0  0  0  0  0
  197.9940  174.6720  135.2100 O   0  0  0  0  0  1  0  0  0  0  0  0
  196.7510  173.7940  137.5330 C   0  0  0  0  0  2  0  0  0  0  0  0
  195.3380  173.5760  136.9850 C   0  0  1  0  0  3  0  0  0  0  0  0
  195.0900  176.6500  135.9970 O   0  0  0  0  0  1  0  0  0  0  0  0
  193.1010  174.2860  136.9690 N   0  0  0  0  0  0  0  0  0  0  0  0
  192.9910  173.4160  134.8320 C   0  0  0  0  0  1  0  0  0  0  0  0
  1 16  1  0  0  0  0
  2 11  1  0  0  0  0
  3 14  1  0  0  0  0
  4  1  1  0  0  0  0
  5 20  1  0  0  0  0
  5  9  1  0  0  0  0
  6  7  1  0  0  0  0
  6 10  2  0  0  0  0
  7  5  2  0  0  0  0
  8  9  2  0  0  0  0
  8  3  1  0  0  0  0
  9  1  1  0  0  0  0
 10  8  1  0  0  0  0
 11 12  2  0  0  0  0
 12 17  1  0  0  0  0
 13 12  1  0  0  0  0
 14  2  1  0  0  0  0
 15 13  2  0  0  0  0
 16  2  2  0  0  0  0
 16 15  1  0  0  0  0
 17 19  2  0  0  0  0
 17 18  1  0  0  0  0
 19 18  1  0  0  0  0
 21 20  1  0  0  0  0
 22 33  1  0  0  0  0
 24 29  1  6  0  0  0
 24 25  1  0  0  0  0
 25 30  1  0  0  0  0
 25 27  1  0  0  0  0
 26 28  1  0  0  0  0
 26 24  1  0  0  0  0
 26 32  1  1  0  0  0
 28 22  1  1  0  0  0
 28 31  1  0  0  0  0
 31 30  1  1  0  0  0
 31 23  1  0  0  0  0
 33 21  1  0  0  0  0
 33 23  1  0  0  0  0
 34 22  1  0  0  0  0
M  END
>  <MODEL>
3

>  <REMARK>
 VINA RESULT:      -7.6      5.411      7.587
  Name = 
  4 active torsions:
  status: ('A' for Active; 'I' for Inactive)
    1  A    between atoms: C_3  and  C_25
    2  A    between atoms: C_8  and  C_10
    3  A    between atoms: C_8  and  C_18
    4  A    between atoms: C_18  and  N_30
                            x       y       z     vdW  Elec       q    Type
                         _______ _______ _______ _____ _____    ______ ____

>  <TORSDO>
F 4

$$$$
=
 OpenBabel10272415323D

 34 39  0  0  1  0  0  0  0  0999 V2000
  183.9540  179.1760  139.6890 N   0  0  0  0  0  0  0  0  0  0  0  0
  183.1520  178.7420  142.0330 C   0  0  0  0  0  0  0  0  0  0  0  0
  181.1970  179.0360  140.3950 C   0  0  0  0  0  2  0  0  0  0  0  0
  184.7610  179.9890  138.9620 O   0  0  0  0  0  1  0  0  0  0  0  0
  183.6240  177.4000  137.9890 C   0  0  0  0  0  0  0  0  0  0  0  0
  181.4170  176.4530  137.6510 C   0  0  0  0  0  3  0  0  0  0  0  0
  182.7730  176.5090  137.3260 C   0  0  0  0  0  3  0  0  0  0  0  0
  181.7450  178.1750  139.3170 C   0  0  0  0  0  0  0  0  0  0  0  0
  183.1060  178.2510  138.9920 C   0  0  0  0  0  0  0  0  0  0  0  0
  180.9040  177.2820  138.6490 C   0  0  0  0  0  3  0  0  0  0  0  0
  183.4770  178.5640  143.3830 C   0  0  0  0  0  3  0  0  0  0  0  0
  184.7890  178.7170  143.8310 C   0  0  0  0  0  0  0  0  0  0  0  0
  185.7950  179.0590  142.9310 C   0  0  0  0  0  3  0  0  0  0  0  0
  181.7660  178.6400  141.6740 N   0  0  0  0  0  2  0  0  0  0  0  0
  185.4920  179.2270  141.5790 C   0  0  0  0  0  3  0  0  0  0  0  0
  184.1820  179.0590  141.1060 C   0  0  0  0  0  0  0  0  0  0  0  0
  185.1050  178.5280  145.2420 C   0  0  0  0  0  0  0  0  0  0  0  0
  185.7460  177.8330  146.2180 O   0  0  0  0  0  0  0  0  0  0  0  0
  184.9770  178.9100  146.5110 N   0  0  0  0  0  0  0  0  0  0  0  0
  185.0840  177.3630  137.6520 C   0  0  0  0  0  2  0  0  0  0  0  0
  185.5170  175.9830  137.1630 C   0  0  0  0  0  2  0  0  0  0  0  0
  187.1720  177.2680  136.1920 N   0  0  0  0  0  0  0  0  0  0  0  0
  187.3210  174.9470  136.0710 C   0  0  0  0  0  2  0  0  0  0  0  0
  190.4190  176.2220  137.8380 C   0  0  2  0  0  3  0  0  0  0  0  0
  190.1120  174.8160  137.5510 N   0  0  0  0  0  0  0  0  0  0  0  0
  189.1780  177.0780  137.6160 C   0  0  1  0  0  3  0  0  0  0  0  0
  191.2200  174.0890  137.8340 O   0  0  0  0  0  1  0  0  0  0  0  0
  188.5910  176.9030  136.1940 C   0  0  1  0  0  3  0  0  0  0  0  0
  191.4840  176.6860  137.0550 O   0  0  0  0  0  1  0  0  0  0  0  0
  189.8430  174.6460  136.1260 C   0  0  0  0  0  2  0  0  0  0  0  0
  188.6500  175.4870  135.6630 C   0  0  1  0  0  3  0  0  0  0  0  0
  188.2340  176.7800  138.6020 O   0  0  0  0  0  1  0  0  0  0  0  0
  186.4090  176.0880  136.0170 N   0  0  0  0  0  0  0  0  0  0  0  0
  186.9430  178.1030  135.0230 C   0  0  0  0  0  1  0  0  0  0  0  0
  1 16  1  0  0  0  0
  2 11  1  0  0  0  0
  3 14  1  0  0  0  0
  4  1  1  0  0  0  0
  5  9  1  0  0  0  0
  6 10  2  0  0  0  0
  7  6  1  0  0  0  0
  7  5  2  0  0  0  0
  8  3  1  0  0  0  0
  9  8  2  0  0  0  0
  9  1  1  0  0  0  0
 10  8  1  0  0  0  0
 11 12  2  0  0  0  0
 12 17  1  0  0  0  0
 13 12  1  0  0  0  0
 14  2  1  0  0  0  0
 15 13  2  0  0  0  0
 16 15  1  0  0  0  0
 16  2  2  0  0  0  0
 17 18  1  0  0  0  0
 17 19  2  0  0  0  0
 18 19  1  0  0  0  0
 20  5  1  0  0  0  0
 21 20  1  0  0  0  0
 24 29  1  6  0  0  0
 25 27  1  0  0  0  0
 25 24  1  0  0  0  0
 26 24  1  0  0  0  0
 26 32  1  1  0  0  0
 28 22  1  1  0  0  0
 28 26  1  0  0  0  0
 30 25  1  0  0  0  0
 31 23  1  1  0  0  0
 31 30  1  0  0  0  0
 31 28  1  0  0  0  0
 33 23  1  0  0  0  0
 33 22  1  0  0  0  0
 33 21  1  0  0  0  0
 34 22  1  0  0  0  0
M  END
>  <MODEL>
4

>  <REMARK>
 VINA RESULT:      -7.5      1.776      2.456
  Name = 
  4 active torsions:
  status: ('A' for Active; 'I' for Inactive)
    1  A    between atoms: C_3  and  C_25
    2  A    between atoms: C_8  and  C_10
    3  A    between atoms: C_8  and  C_18
    4  A    between atoms: C_18  and  N_30
                            x       y       z     vdW  Elec       q    Type
                         _______ _______ _______ _____ _____    ______ ____

>  <TORSDO>
F 4

$$$$
=
 OpenBabel10272415323D

 34 39  0  0  1  0  0  0  0  0999 V2000
  187.5690  178.5580  139.1180 N   0  0  0  0  0  0  0  0  0  0  0  0
  186.5760  178.3440  141.4190 C   0  0  0  0  0  0  0  0  0  0  0  0
  184.8780  179.2670  139.7300 C   0  0  0  0  0  2  0  0  0  0  0  0
  188.6160  179.0950  138.4450 O   0  0  0  0  0  1  0  0  0  0  0  0
  186.7740  177.0100  137.3500 C   0  0  0  0  0  0  0  0  0  0  0  0
  184.3970  176.8040  136.9100 C   0  0  0  0  0  3  0  0  0  0  0  0
  185.7160  176.4420  136.6310 C   0  0  0  0  0  3  0  0  0  0  0  0
  185.1750  178.3020  138.6430 C   0  0  0  0  0  0  0  0  0  0  0  0
  186.5040  177.9580  138.3630 C   0  0  0  0  0  0  0  0  0  0  0  0
  184.1270  177.7290  137.9180 C   0  0  0  0  0  3  0  0  0  0  0  0
  186.7750  178.0450  142.7720 C   0  0  0  0  0  3  0  0  0  0  0  0
  188.0500  177.7720  143.2670 C   0  0  0  0  0  0  0  0  0  0  0  0
  189.1490  177.8040  142.4110 C   0  0  0  0  0  3  0  0  0  0  0  0
  185.2430  178.6860  141.0130 N   0  0  0  0  0  2  0  0  0  0  0  0
  188.9680  178.0870  141.0570 C   0  0  0  0  0  3  0  0  0  0  0  0
  187.6910  178.3450  140.5370 C   0  0  0  0  0  0  0  0  0  0  0  0
  188.2340  177.4640  144.6800 C   0  0  0  0  0  0  0  0  0  0  0  0
  188.9800  176.9130  145.6730 O   0  0  0  0  0  0  0  0  0  0  0  0
  187.7970  177.5180  145.9360 N   0  0  0  0  0  0  0  0  0  0  0  0
  188.1630  176.5280  137.0600 C   0  0  0  0  0  2  0  0  0  0  0  0
  188.1800  175.4980  135.9320 C   0  0  0  0  0  2  0  0  0  0  0  0
  189.8300  174.0970  135.1280 N   0  0  0  0  0  0  0  0  0  0  0  0
  189.9220  174.7980  137.3460 C   0  0  0  0  0  2  0  0  0  0  0  0
  193.1060  175.9280  135.6360 C   0  0  2  0  0  3  0  0  0  0  0  0
  192.7580  176.1630  137.0410 N   0  0  0  0  0  0  0  0  0  0  0  0
  191.8780  175.4470  134.8710 C   0  0  1  0  0  3  0  0  0  0  0  0
  193.8570  176.6580  137.6580 O   0  0  0  0  0  1  0  0  0  0  0  0
  191.2390  174.1940  135.5160 C   0  0  1  0  0  3  0  0  0  0  0  0
  194.1540  175.0070  135.5130 O   0  0  0  0  0  1  0  0  0  0  0  0
  192.4360  174.8960  137.6930 C   0  0  0  0  0  2  0  0  0  0  0  0
  191.2470  174.1950  137.0300 C   0  0  1  0  0  3  0  0  0  0  0  0
  190.9610  176.4980  134.7710 O   0  0  0  0  0  1  0  0  0  0  0  0
  189.0340  174.3670  136.2670 N   0  0  0  0  0  0  0  0  0  0  0  0
  189.5810  172.7140  134.7500 C   0  0  0  0  0  1  0  0  0  0  0  0
  1 16  1  0  0  0  0
  2 11  1  0  0  0  0
  3 14  1  0  0  0  0
  4  1  1  0  0  0  0
  5  9  1  0  0  0  0
  6 10  2  0  0  0  0
  7  6  1  0  0  0  0
  7  5  2  0  0  0  0
  8  3  1  0  0  0  0
  9  8  2  0  0  0  0
  9  1  1  0  0  0  0
 10  8  1  0  0  0  0
 11 12  2  0  0  0  0
 12 17  1  0  0  0  0
 13 12  1  0  0  0  0
 14  2  1  0  0  0  0
 15 13  2  0  0  0  0
 16 15  1  0  0  0  0
 16  2  2  0  0  0  0
 17 18  1  0  0  0  0
 17 19  2  0  0  0  0
 18 19  1  0  0  0  0
 20  5  1  0  0  0  0
 21 33  1  0  0  0  0
 21 20  1  0  0  0  0
 22 33  1  0  0  0  0
 24 29  1  1  0  0  0
 24 25  1  0  0  0  0
 25 27  1  0  0  0  0
 25 30  1  0  0  0  0
 26 32  1  1  0  0  0
 26 28  1  0  0  0  0
 26 24  1  0  0  0  0
 28 22  1  1  0  0  0
 28 31  1  0  0  0  0
 31 23  1  1  0  0  0
 31 30  1  0  0  0  0
 33 23  1  0  0  0  0
 34 22  1  0  0  0  0
M  END
>  <MODEL>
5

>  <REMARK>
 VINA RESULT:      -7.5      2.898      4.518
  Name = 
  4 active torsions:
  status: ('A' for Active; 'I' for Inactive)
    1  A    between atoms: C_3  and  C_25
    2  A    between atoms: C_8  and  C_10
    3  A    between atoms: C_8  and  C_18
    4  A    between atoms: C_18  and  N_30
                            x       y       z     vdW  Elec       q    Type
                         _______ _______ _______ _____ _____    ______ ____

>  <TORSDO>
F 4

$$$$
=
 OpenBabel10272415323D

 34 39  0  0  1  0  0  0  0  0999 V2000
  188.2170  177.8690  137.4440 N   0  0  0  0  0  0  0  0  0  0  0  0
  187.5610  175.7430  136.2710 C   0  0  0  0  0  0  0  0  0  0  0  0
  189.9980  176.3850  135.7870 C   0  0  0  0  0  2  0  0  0  0  0  0
  187.8490  179.1630  137.6090 O   0  0  0  0  0  1  0  0  0  0  0  0
  189.8230  177.7190  139.3300 C   0  0  0  0  0  0  0  0  0  0  0  0
  191.9430  176.5820  139.0180 C   0  0  0  0  0  3  0  0  0  0  0  0
  191.0560  177.2880  139.8320 C   0  0  0  0  0  3  0  0  0  0  0  0
  190.3690  176.7180  137.1850 C   0  0  0  0  0  0  0  0  0  0  0  0
  189.4750  177.4390  137.9880 C   0  0  0  0  0  0  0  0  0  0  0  0
  191.5980  176.2930  137.6970 C   0  0  0  0  0  3  0  0  0  0  0  0
  186.5500  174.8290  135.9520 C   0  0  0  0  0  3  0  0  0  0  0  0
  185.2260  175.0670  136.3210 C   0  0  0  0  0  0  0  0  0  0  0  0
  184.8940  176.2320  137.0090 C   0  0  0  0  0  3  0  0  0  0  0  0
  188.8800  175.4540  135.7870 N   0  0  0  0  0  2  0  0  0  0  0  0
  185.8910  177.1480  137.3460 C   0  0  0  0  0  3  0  0  0  0  0  0
  187.2310  176.9170  137.0010 C   0  0  0  0  0  0  0  0  0  0  0  0
  184.1880  174.1020  135.9780 C   0  0  0  0  0  0  0  0  0  0  0  0
  183.3070  173.5970  135.0750 O   0  0  0  0  0  0  0  0  0  0  0  0
  183.4130  173.0750  136.3200 N   0  0  0  0  0  0  0  0  0  0  0  0
  188.8790  178.4060  140.2700 C   0  0  0  0  0  2  0  0  0  0  0  0
  189.3260  178.2620  141.7240 C   0  0  0  0  0  2  0  0  0  0  0  0
  189.7050  176.6270  143.3110 N   0  0  0  0  0  0  0  0  0  0  0  0
  187.5370  177.4150  142.9910 C   0  0  0  0  0  2  0  0  0  0  0  0
  188.4860  178.0520  146.6020 C   0  0  2  0  0  3  0  0  0  0  0  0
  187.2030  178.3950  145.9790 N   0  0  0  0  0  0  0  0  0  0  0  0
  189.5050  177.6950  145.5260 C   0  0  1  0  0  3  0  0  0  0  0  0
  186.3570  178.7750  146.9660 O   0  0  0  0  0  1  0  0  0  0  0  0
  189.0040  176.5640  144.5960 C   0  0  1  0  0  3  0  0  0  0  0  0
  188.3480  177.0010  147.5170 O   0  0  0  0  0  1  0  0  0  0  0  0
  186.6220  177.2110  145.3520 C   0  0  0  0  0  2  0  0  0  0  0  0
  187.5290  176.6350  144.2610 C   0  0  1  0  0  3  0  0  0  0  0  0
  189.8310  178.8470  144.8040 O   0  0  0  0  0  1  0  0  0  0  0  0
  188.7840  177.0490  142.3210 N   0  0  0  0  0  0  0  0  0  0  0  0
  190.1060  175.2710  142.9710 C   0  0  0  0  0  1  0  0  0  0  0  0
  1  4  1  0  0  0  0
  1  9  1  0  0  0  0
  2 16  1  0  0  0  0
  3 14  1  0  0  0  0
  3  8  1  0  0  0  0
  5  7  1  0  0  0  0
  5 20  1  0  0  0  0
  6  7  2  0  0  0  0
  8 10  2  0  0  0  0
  8  9  1  0  0  0  0
  9  5  2  0  0  0  0
 10  6  1  0  0  0  0
 11  2  2  0  0  0  0
 11 12  1  0  0  0  0
 12 13  2  0  0  0  0
 13 15  1  0  0  0  0
 14  2  1  0  0  0  0
 16 15  2  0  0  0  0
 16  1  1  0  0  0  0
 17 19  2  0  0  0  0
 17 12  1  0  0  0  0
 18 17  1  0  0  0  0
 18 19  1  0  0  0  0
 20 21  1  0  0  0  0
 21 33  1  0  0  0  0
 24 29  1  1  0  0  0
 25 24  1  0  0  0  0
 25 27  1  0  0  0  0
 26 32  1  6  0  0  0
 26 24  1  0  0  0  0
 28 22  1  6  0  0  0
 28 26  1  0  0  0  0
 30 25  1  0  0  0  0
 31 23  1  6  0  0  0
 31 28  1  0  0  0  0
 31 30  1  0  0  0  0
 33 23  1  0  0  0  0
 33 22  1  0  0  0  0
 34 22  1  0  0  0  0
M  END
>  <MODEL>
6

>  <REMARK>
 VINA RESULT:      -7.4      3.309      9.026
  Name = 
  4 active torsions:
  status: ('A' for Active; 'I' for Inactive)
    1  A    between atoms: C_3  and  C_25
    2  A    between atoms: C_8  and  C_10
    3  A    between atoms: C_8  and  C_18
    4  A    between atoms: C_18  and  N_30
                            x       y       z     vdW  Elec       q    Type
                         _______ _______ _______ _____ _____    ______ ____

>  <TORSDO>
F 4

$$$$
=
 OpenBabel10272415323D

 34 39  0  0  1  0  0  0  0  0999 V2000
  185.5530  179.1070  142.0280 N   0  0  0  0  0  0  0  0  0  0  0  0
  187.0150  177.9790  143.7360 C   0  0  0  0  0  0  0  0  0  0  0  0
  185.2750  179.5130  144.8350 C   0  0  0  0  0  2  0  0  0  0  0  0
  185.6010  179.8690  140.9070 O   0  0  0  0  0  1  0  0  0  0  0  0
  183.1760  178.4140  141.8780 C   0  0  0  0  0  0  0  0  0  0  0  0
  181.7950  178.4100  143.8730 C   0  0  0  0  0  3  0  0  0  0  0  0
  181.9440  178.1900  142.5020 C   0  0  0  0  0  3  0  0  0  0  0  0
  184.1170  179.0730  144.0180 C   0  0  0  0  0  0  0  0  0  0  0  0
  184.2760  178.8680  142.6410 C   0  0  0  0  0  0  0  0  0  0  0  0
  182.8820  178.8470  144.6310 C   0  0  0  0  0  3  0  0  0  0  0  0
  188.1170  177.1550  143.9930 C   0  0  0  0  0  3  0  0  0  0  0  0
  188.9310  176.7010  142.9560 C   0  0  0  0  0  0  0  0  0  0  0  0
  188.6570  177.0750  141.6420 C   0  0  0  0  0  3  0  0  0  0  0  0
  186.2780  178.4600  144.8690 N   0  0  0  0  0  2  0  0  0  0  0  0
  187.5550  177.8850  141.3660 C   0  0  0  0  0  3  0  0  0  0  0  0
  186.7120  178.3350  142.3930 C   0  0  0  0  0  0  0  0  0  0  0  0
  190.0750  175.8450  143.2470 C   0  0  0  0  0  0  0  0  0  0  0  0
  190.6480  174.6130  143.2470 O   0  0  0  0  0  0  0  0  0  0  0  0
  191.3160  175.6980  143.7040 N   0  0  0  0  0  0  0  0  0  0  0  0
  183.2970  178.0880  140.4210 C   0  0  0  0  0  2  0  0  0  0  0  0
  182.4540  179.0260  139.5600 C   0  0  0  0  0  2  0  0  0  0  0  0
  182.1390  178.5070  137.3310 N   0  0  0  0  0  0  0  0  0  0  0  0
  181.7920  176.8580  138.9380 C   0  0  0  0  0  2  0  0  0  0  0  0
  184.4870  175.6330  136.5760 C   0  0  2  0  0  3  0  0  0  0  0  0
  183.9630  174.9010  137.7340 N   0  0  0  0  0  0  0  0  0  0  0  0
  184.0310  177.0870  136.6340 C   0  0  1  0  0  3  0  0  0  0  0  0
  184.4560  173.6400  137.6770 O   0  0  0  0  0  1  0  0  0  0  0  0
  182.4920  177.2150  136.7390 C   0  0  1  0  0  3  0  0  0  0  0  0
  184.0910  175.0410  135.3700 O   0  0  0  0  0  1  0  0  0  0  0  0
  182.5100  174.7960  137.6400 C   0  0  0  0  0  2  0  0  0  0  0  0
  181.8350  176.1700  137.6160 C   0  0  1  0  0  3  0  0  0  0  0  0
  184.6740  177.7260  137.6970 O   0  0  0  0  0  1  0  0  0  0  0  0
  181.6210  178.2770  138.6280 N   0  0  0  0  0  0  0  0  0  0  0  0
  181.0590  179.0670  136.5330 C   0  0  0  0  0  1  0  0  0  0  0  0
  1 16  1  0  0  0  0
  1  9  1  0  0  0  0
  2 11  1  0  0  0  0
  2 14  1  0  0  0  0
  3 14  1  0  0  0  0
  4  1  1  0  0  0  0
  5  7  2  0  0  0  0
  5  9  1  0  0  0  0
  6 10  2  0  0  0  0
  7  6  1  0  0  0  0
  8 10  1  0  0  0  0
  8  3  1  0  0  0  0
  9  8  2  0  0  0  0
 12 17  1  0  0  0  0
 12 11  2  0  0  0  0
 13 12  1  0  0  0  0
 15 13  2  0  0  0  0
 15 16  1  0  0  0  0
 16  2  2  0  0  0  0
 17 19  2  0  0  0  0
 18 17  1  0  0  0  0
 18 19  1  0  0  0  0
 20  5  1  0  0  0  0
 21 20  1  0  0  0  0
 22 33  1  0  0  0  0
 24 29  1  6  0  0  0
 24 26  1  0  0  0  0
 24 25  1  0  0  0  0
 26 28  1  0  0  0  0
 26 32  1  1  0  0  0
 27 25  1  0  0  0  0
 28 22  1  1  0  0  0
 28 31  1  0  0  0  0
 30 25  1  0  0  0  0
 31 30  1  1  0  0  0
 31 23  1  0  0  0  0
 33 23  1  0  0  0  0
 33 21  1  0  0  0  0
 34 22  1  0  0  0  0
M  END
>  <MODEL>
7

>  <REMARK>
 VINA RESULT:      -7.2      2.599      3.634
  Name = 
  4 active torsions:
  status: ('A' for Active; 'I' for Inactive)
    1  A    between atoms: C_3  and  C_25
    2  A    between atoms: C_8  and  C_10
    3  A    between atoms: C_8  and  C_18
    4  A    between atoms: C_18  and  N_30
                            x       y       z     vdW  Elec       q    Type
                         _______ _______ _______ _____ _____    ______ ____

>  <TORSDO>
F 4

$$$$
=
 OpenBabel10272415323D

 34 39  0  0  1  0  0  0  0  0999 V2000
  183.8460  178.9250  141.1130 N   0  0  0  0  0  0  0  0  0  0  0  0
  184.3080  178.5950  143.5640 C   0  0  0  0  0  0  0  0  0  0  0  0
  181.9560  179.5380  143.1560 C   0  0  0  0  0  2  0  0  0  0  0  0
  184.3380  179.5160  139.9970 O   0  0  0  0  0  1  0  0  0  0  0  0
  182.1990  177.4270  140.0190 C   0  0  0  0  0  0  0  0  0  0  0  0
  179.9820  177.1750  140.9710 C   0  0  0  0  0  3  0  0  0  0  0  0
  180.9200  176.8600  139.9870 C   0  0  0  0  0  3  0  0  0  0  0  0
  181.5950  178.6240  142.0440 C   0  0  0  0  0  0  0  0  0  0  0  0
  182.5410  178.3270  141.0540 C   0  0  0  0  0  0  0  0  0  0  0  0
  180.3210  178.0530  142.0010 C   0  0  0  0  0  3  0  0  0  0  0  0
  185.2290  178.2480  144.5600 C   0  0  0  0  0  3  0  0  0  0  0  0
  186.5630  177.9910  144.2450 C   0  0  0  0  0  0  0  0  0  0  0  0
  186.9960  178.0850  142.9240 C   0  0  0  0  0  3  0  0  0  0  0  0
  182.9760  178.9170  143.9870 N   0  0  0  0  0  2  0  0  0  0  0  0
  186.0900  178.4160  141.9170 C   0  0  0  0  0  3  0  0  0  0  0  0
  184.7400  178.6600  142.2110 C   0  0  0  0  0  0  0  0  0  0  0  0
  187.5050  177.6330  145.2980 C   0  0  0  0  0  0  0  0  0  0  0  0
  187.7870  177.4810  146.6190 O   0  0  0  0  0  0  0  0  0  0  0  0
  188.7150  177.2170  145.6680 N   0  0  0  0  0  0  0  0  0  0  0  0
  183.1890  176.9940  138.9810 C   0  0  0  0  0  2  0  0  0  0  0  0
  182.5050  176.6350  137.6630 C   0  0  0  0  0  2  0  0  0  0  0  0
  182.6960  175.0120  136.0300 N   0  0  0  0  0  0  0  0  0  0  0  0
  183.7400  174.6810  138.0850 C   0  0  0  0  0  2  0  0  0  0  0  0
  186.4050  174.5880  135.3950 C   0  0  2  0  0  3  0  0  0  0  0  0
  186.6330  174.4210  136.8350 N   0  0  0  0  0  0  0  0  0  0  0  0
  184.9980  175.1220  135.1520 C   0  0  1  0  0  3  0  0  0  0  0  0
  187.9150  174.0180  137.0020 O   0  0  0  0  0  1  0  0  0  0  0  0
  183.9120  174.2300  135.8000 C   0  0  1  0  0  3  0  0  0  0  0  0
  186.6030  173.3870  134.7010 O   0  0  0  0  0  1  0  0  0  0  0  0
  185.7800  173.3550  137.3530 C   0  0  0  0  0  2  0  0  0  0  0  0
  184.2930  173.6600  137.1500 C   0  0  1  0  0  3  0  0  0  0  0  0
  184.9230  176.4390  135.6130 O   0  0  0  0  0  1  0  0  0  0  0  0
  182.5430  175.1990  137.4260 N   0  0  0  0  0  0  0  0  0  0  0  0
  181.5720  174.2050  135.5810 C   0  0  0  0  0  1  0  0  0  0  0  0
  1 16  1  0  0  0  0
  2 14  1  0  0  0  0
  2 11  1  0  0  0  0
  3 14  1  0  0  0  0
  4  1  1  0  0  0  0
  5  9  1  0  0  0  0
  6 10  2  0  0  0  0
  7  5  2  0  0  0  0
  7  6  1  0  0  0  0
  8  3  1  0  0  0  0
  9  1  1  0  0  0  0
  9  8  2  0  0  0  0
 10  8  1  0  0  0  0
 12 11  2  0  0  0  0
 12 17  1  0  0  0  0
 13 12  1  0  0  0  0
 15 16  1  0  0  0  0
 15 13  2  0  0  0  0
 16  2  2  0  0  0  0
 17 19  2  0  0  0  0
 17 18  1  0  0  0  0
 19 18  1  0  0  0  0
 20  5  1  0  0  0  0
 21 20  1  0  0  0  0
 22 33  1  0  0  0  0
 24 29  1  6  0  0  0
 24 25  1  0  0  0  0
 25 27  1  0  0  0  0
 25 30  1  0  0  0  0
 26 24  1  0  0  0  0
 26 32  1  1  0  0  0
 26 28  1  0  0  0  0
 28 22  1  1  0  0  0
 28 31  1  0  0  0  0
 31 30  1  6  0  0  0
 31 23  1  0  0  0  0
 33 21  1  0  0  0  0
 33 23  1  0  0  0  0
 34 22  1  0  0  0  0
M  END
>  <MODEL>
8

>  <REMARK>
 VINA RESULT:      -7.2      1.889      2.201
  Name = 
  4 active torsions:
  status: ('A' for Active; 'I' for Inactive)
    1  A    between atoms: C_3  and  C_25
    2  A    between atoms: C_8  and  C_10
    3  A    between atoms: C_8  and  C_18
    4  A    between atoms: C_18  and  N_30
                            x       y       z     vdW  Elec       q    Type
                         _______ _______ _______ _____ _____    ______ ____

>  <TORSDO>
F 4

$$$$
=
 OpenBabel10272415323D

 34 39  0  0  1  0  0  0  0  0999 V2000
  184.0510  179.1770  140.2970 N   0  0  0  0  0  0  0  0  0  0  0  0
  184.5110  178.4070  142.6470 C   0  0  0  0  0  0  0  0  0  0  0  0
  182.0710  179.1420  142.3450 C   0  0  0  0  0  2  0  0  0  0  0  0
  184.4880  180.0350  139.3420 O   0  0  0  0  0  1  0  0  0  0  0  0
  182.6100  177.7590  138.8590 C   0  0  0  0  0  0  0  0  0  0  0  0
  180.4240  177.0700  139.6530 C   0  0  0  0  0  3  0  0  0  0  0  0
  181.4080  177.0700  138.6630 C   0  0  0  0  0  3  0  0  0  0  0  0
  181.8370  178.4410  141.0580 C   0  0  0  0  0  0  0  0  0  0  0  0
  182.8280  178.4610  140.0670 C   0  0  0  0  0  0  0  0  0  0  0  0
  180.6410  177.7510  140.8510 C   0  0  0  0  0  3  0  0  0  0  0  0
  185.4500  177.9690  143.5880 C   0  0  0  0  0  3  0  0  0  0  0  0
  186.8110  177.9330  143.2800 C   0  0  0  0  0  0  0  0  0  0  0  0
  187.2500  178.3440  142.0240 C   0  0  0  0  0  3  0  0  0  0  0  0
  183.1430  178.4830  143.0740 N   0  0  0  0  0  2  0  0  0  0  0  0
  186.3270  178.7700  141.0690 C   0  0  0  0  0  3  0  0  0  0  0  0
  184.9530  178.7950  141.3530 C   0  0  0  0  0  0  0  0  0  0  0  0
  187.7720  177.4750  144.2760 C   0  0  0  0  0  0  0  0  0  0  0  0
  188.8800  176.7550  144.5940 O   0  0  0  0  0  0  0  0  0  0  0  0
  188.2050  177.4570  145.5350 N   0  0  0  0  0  0  0  0  0  0  0  0
  183.6600  177.6620  137.7950 C   0  0  0  0  0  2  0  0  0  0  0  0
  184.2020  176.2400  137.6630 C   0  0  0  0  0  2  0  0  0  0  0  0
  185.4120  174.9770  136.1540 N   0  0  0  0  0  0  0  0  0  0  0  0
  183.0940  175.0680  135.9540 C   0  0  0  0  0  2  0  0  0  0  0  0
  184.0800  171.4430  136.4310 C   0  0  2  0  0  3  0  0  0  0  0  0
  182.7120  171.9440  136.2640 N   0  0  0  0  0  0  0  0  0  0  0  0
  185.0270  172.6040  136.7080 C   0  0  1  0  0  3  0  0  0  0  0  0
  181.9000  170.8730  136.0960 O   0  0  0  0  0  1  0  0  0  0  0  0
  184.9520  173.6960  135.6130 C   0  0  1  0  0  3  0  0  0  0  0  0
  184.5030  170.7190  135.3090 O   0  0  0  0  0  1  0  0  0  0  0  0
  182.6210  172.7440  135.0450 C   0  0  0  0  0  2  0  0  0  0  0  0
  183.5590  173.9530  135.0800 C   0  0  1  0  0  3  0  0  0  0  0  0
  184.7520  173.1270  137.9750 O   0  0  0  0  0  1  0  0  0  0  0  0
  184.2950  175.8400  136.2650 N   0  0  0  0  0  0  0  0  0  0  0  0
  186.3090  175.5640  135.1700 C   0  0  0  0  0  1  0  0  0  0  0  0
  1 16  1  0  0  0  0
  2 14  1  0  0  0  0
  2 11  1  0  0  0  0
  3 14  1  0  0  0  0
  4  1  1  0  0  0  0
  5  9  1  0  0  0  0
  6 10  2  0  0  0  0
  7  5  2  0  0  0  0
  7  6  1  0  0  0  0
  8  3  1  0  0  0  0
  9  1  1  0  0  0  0
  9  8  2  0  0  0  0
 10  8  1  0  0  0  0
 12 11  2  0  0  0  0
 12 17  1  0  0  0  0
 13 12  1  0  0  0  0
 15 16  1  0  0  0  0
 15 13  2  0  0  0  0
 16  2  2  0  0  0  0
 17 18  1  0  0  0  0
 17 19  2  0  0  0  0
 18 19  1  0  0  0  0
 20  5  1  0  0  0  0
 21 20  1  0  0  0  0
 22 33  1  0  0  0  0
 23 33  1  0  0  0  0
 24 29  1  6  0  0  0
 24 26  1  0  0  0  0
 25 24  1  0  0  0  0
 26 32  1  1  0  0  0
 27 25  1  0  0  0  0
 28 22  1  1  0  0  0
 28 26  1  0  0  0  0
 30 25  1  0  0  0  0
 31 30  1  1  0  0  0
 31 28  1  0  0  0  0
 31 23  1  0  0  0  0
 33 21  1  0  0  0  0
 34 22  1  0  0  0  0
M  END
>  <MODEL>
9

>  <REMARK>
 VINA RESULT:      -7.2      3.062      3.694
  Name = 
  4 active torsions:
  status: ('A' for Active; 'I' for Inactive)
    1  A    between atoms: C_3  and  C_25
    2  A    between atoms: C_8  and  C_10
    3  A    between atoms: C_8  and  C_18
    4  A    between atoms: C_18  and  N_30
                            x       y       z     vdW  Elec       q    Type
                         _______ _______ _______ _____ _____    ______ ____

>  <TORSDO>
F 4

$$$$
