=
 OpenBabel10272400123D

 34 38  0  0  1  0  0  0  0  0999 V2000
  189.7020  177.2810  146.4110 C   0  0  0  0  0  0  0  0  0  0  0  0
  191.1100  176.0680  144.8510 C   0  0  0  0  0  0  0  0  0  0  0  0
  189.0750  177.3250  144.0370 C   0  0  0  0  0  0  0  0  0  0  0  0
  188.4220  177.6590  141.6970 C   0  0  0  0  0  0  0  0  0  0  0  0
  190.6180  177.0240  147.4320 C   0  0  0  0  0  3  0  0  0  0  0  0
  192.0190  175.8250  145.8840 C   0  0  0  0  0  3  0  0  0  0  0  0
  190.8650  177.5880  142.2400 C   0  0  0  0  0  2  0  0  0  0  0  0
  189.9850  176.9140  145.0670 C   0  0  0  0  0  0  0  0  0  0  0  0
  191.1180  177.1490  140.8050 C   0  0  0  0  0  2  0  0  0  0  0  0
  188.6950  177.5980  140.2200 C   0  0  0  0  0  2  0  0  0  0  0  0
  191.7900  176.3250  147.1630 C   0  0  0  0  0  3  0  0  0  0  0  0
  187.7730  177.7710  144.4230 C   0  0  0  0  0  0  0  0  0  0  0  0
  188.4790  177.8490  146.7470 C   0  0  0  0  0  3  0  0  0  0  0  0
  191.2920  175.3740  143.6600 O   0  0  0  0  0  1  0  0  0  0  0  0
  187.1180  177.9190  142.0970 C   0  0  0  0  0  3  0  0  0  0  0  0
  186.7740  178.0060  143.4460 C   0  0  0  0  0  0  0  0  0  0  0  0
  190.1590  177.9000  139.8820 C   0  0  2  0  0  3  0  0  0  0  0  0
  189.4240  177.4040  142.6580 C   0  0  0  0  0  0  0  0  0  0  0  0
  187.5160  178.0550  145.7700 C   0  0  0  0  0  3  0  0  0  0  0  0
  183.0560  178.6700  143.0720 C   0  0  0  0  0  0  0  0  0  0  0  0
  182.6780  178.9100  144.3950 C   0  0  0  0  0  3  0  0  0  0  0  0
  185.3630  178.3430  143.7810 C   0  0  0  0  0  0  0  0  0  0  0  0
  183.6320  178.8600  145.4130 C   0  0  0  0  0  3  0  0  0  0  0  0
  184.3900  178.3840  142.7680 C   0  0  0  0  0  3  0  0  0  0  0  0
  184.9660  178.5740  145.1070 C   0  0  0  0  0  3  0  0  0  0  0  0
  182.1310  178.7120  142.0840 F   0  0  0  0  0  0  0  0  0  0  0  0
  190.4590  177.7300  138.5130 O   0  0  0  0  0  0  0  0  0  0  0  0
  189.2830  177.3930  137.8200 C   0  0  0  0  0  2  0  0  0  0  0  0
  189.0570  179.7330  137.3930 O   0  0  0  0  0  1  0  0  0  0  0  0
  188.9510  178.4730  136.8020 C   0  0  2  0  0  3  0  0  0  0  0  0
  187.5620  178.2800  136.1910 C   0  0  0  0  0  2  0  0  0  0  0  0
  186.0960  176.5630  137.2610 O   0  0  0  0  0  0  0  0  0  0  0  0
  186.5380  177.8780  137.2030 C   0  0  0  0  0  0  0  0  0  0  0  0
  186.0920  178.7250  138.0200 O   0  0  0  0  0  1  0  0  0  0  0  0
  1 13  1  0  0  0  0
  1  5  2  0  0  0  0
  2  8  2  0  0  0  0
  2  6  1  0  0  0  0
  3 12  1  0  0  0  0
  3  8  1  0  0  0  0
  4 15  2  0  0  0  0
  4 18  1  0  0  0  0
  6 11  2  0  0  0  0
  7 18  1  0  0  0  0
  8  1  1  0  0  0  0
  9  7  1  0  0  0  0
 10  4  1  0  0  0  0
 11  5  1  0  0  0  0
 12 19  1  0  0  0  0
 14  2  1  0  0  0  0
 15 16  1  0  0  0  0
 16 22  1  0  0  0  0
 16 12  2  0  0  0  0
 17 27  1  6  0  0  0
 17 10  1  0  0  0  0
 17  9  1  0  0  0  0
 18  3  2  0  0  0  0
 19 13  2  0  0  0  0
 20 21  1  0  0  0  0
 21 23  2  0  0  0  0
 22 25  2  0  0  0  0
 24 20  2  0  0  0  0
 24 22  1  0  0  0  0
 25 23  1  0  0  0  0
 26 20  1  0  0  0  0
 28 27  1  0  0  0  0
 30 29  1  1  0  0  0
 30 28  1  0  0  0  0
 31 30  1  0  0  0  0
 31 33  1  0  0  0  0
 33 32  2  0  0  0  0
 33 34  1  0  0  0  0
M  END
>  <MODEL>
1

>  <REMARK>
 VINA RESULT:     -11.2      0.000      0.000
  Name = 
  6 active torsions:
  status: ('A' for Active; 'I' for Inactive)
    1  A    between atoms: O_3  and  C_13
    2  A    between atoms: O_3  and  C_29
    3  A    between atoms: C_12  and  C_28
    4  A    between atoms: C_13  and  C_33
    5  A    between atoms: C_20  and  C_22
    6  A    between atoms: C_22  and  C_33
                            x       y       z     vdW  Elec       q    Type
                         _______ _______ _______ _____ _____    ______ ____

>  <TORSDO>
F 6

$$$$
=
 OpenBabel10272400123D

 34 38  0  0  1  0  0  0  0  0999 V2000
  189.6990  177.2730  146.3730 C   0  0  0  0  0  0  0  0  0  0  0  0
  191.1280  176.0480  144.8420 C   0  0  0  0  0  0  0  0  0  0  0  0
  189.1070  177.3010  143.9900 C   0  0  0  0  0  0  0  0  0  0  0  0
  188.4900  177.6210  141.6380 C   0  0  0  0  0  0  0  0  0  0  0  0
  190.5990  177.0220  147.4090 C   0  0  0  0  0  3  0  0  0  0  0  0
  192.0220  175.8110  145.8900 C   0  0  0  0  0  3  0  0  0  0  0  0
  190.9240  177.5500  142.2170 C   0  0  0  0  0  2  0  0  0  0  0  0
  190.0010  176.8960  145.0360 C   0  0  0  0  0  0  0  0  0  0  0  0
  191.1980  177.1010  140.7890 C   0  0  0  0  0  2  0  0  0  0  0  0
  188.7850  177.5490  140.1650 C   0  0  0  0  0  2  0  0  0  0  0  0
  191.7740  176.3190  147.1630 C   0  0  0  0  0  3  0  0  0  0  0  0
  187.8000  177.7520  144.3530 C   0  0  0  0  0  0  0  0  0  0  0  0
  188.4720  177.8450  146.6860 C   0  0  0  0  0  3  0  0  0  0  0  0
  191.3270  175.3450  143.6590 O   0  0  0  0  0  1  0  0  0  0  0  0
  187.1800  177.8850  142.0160 C   0  0  0  0  0  3  0  0  0  0  0  0
  186.8160  177.9810  143.3600 C   0  0  0  0  0  0  0  0  0  0  0  0
  190.2540  177.8470  139.8480 C   0  0  2  0  0  3  0  0  0  0  0  0
  189.4770  177.3710  142.6150 C   0  0  0  0  0  0  0  0  0  0  0  0
  187.5230  178.0450  145.6940 C   0  0  0  0  0  3  0  0  0  0  0  0
  183.1080  178.6610  142.9240 C   0  0  0  0  0  0  0  0  0  0  0  0
  182.7080  178.8970  144.2410 C   0  0  0  0  0  3  0  0  0  0  0  0
  185.4010  178.3220  143.6710 C   0  0  0  0  0  0  0  0  0  0  0  0
  183.6440  178.8400  145.2750 C   0  0  0  0  0  3  0  0  0  0  0  0
  184.4460  178.3710  142.6410 C   0  0  0  0  0  3  0  0  0  0  0  0
  184.9820  178.5500  144.9920 C   0  0  0  0  0  3  0  0  0  0  0  0
  182.2000  178.7110  141.9200 F   0  0  0  0  0  0  0  0  0  0  0  0
  190.5740  177.6680  138.4840 O   0  0  0  0  0  0  0  0  0  0  0  0
  189.9080  176.5290  137.9980 C   0  0  0  0  0  2  0  0  0  0  0  0
  191.1980  174.5250  138.1700 O   0  0  0  0  0  1  0  0  0  0  0  0
  190.9000  175.5940  137.3240 C   0  0  2  0  0  3  0  0  0  0  0  0
  192.1790  176.3200  136.9040 C   0  0  0  0  0  2  0  0  0  0  0  0
  194.0800  174.7040  137.0280 O   0  0  0  0  0  0  0  0  0  0  0  0
  193.3980  175.7800  137.5800 C   0  0  0  0  0  0  0  0  0  0  0  0
  193.8200  176.3140  138.6380 O   0  0  0  0  0  1  0  0  0  0  0  0
  1 13  1  0  0  0  0
  1  5  2  0  0  0  0
  2  8  2  0  0  0  0
  2  6  1  0  0  0  0
  3 12  1  0  0  0  0
  3  8  1  0  0  0  0
  4 15  2  0  0  0  0
  4 18  1  0  0  0  0
  6 11  2  0  0  0  0
  7 18  1  0  0  0  0
  8  1  1  0  0  0  0
  9  7  1  0  0  0  0
 10  4  1  0  0  0  0
 11  5  1  0  0  0  0
 12 19  1  0  0  0  0
 14  2  1  0  0  0  0
 15 16  1  0  0  0  0
 16 22  1  0  0  0  0
 16 12  2  0  0  0  0
 17 27  1  6  0  0  0
 17 10  1  0  0  0  0
 17  9  1  0  0  0  0
 18  3  2  0  0  0  0
 19 13  2  0  0  0  0
 20 21  1  0  0  0  0
 21 23  2  0  0  0  0
 22 25  2  0  0  0  0
 24 20  2  0  0  0  0
 24 22  1  0  0  0  0
 25 23  1  0  0  0  0
 26 20  1  0  0  0  0
 28 27  1  0  0  0  0
 30 28  1  0  0  0  0
 30 29  1  1  0  0  0
 31 30  1  0  0  0  0
 31 33  1  0  0  0  0
 32 33  2  0  0  0  0
 33 34  1  0  0  0  0
M  END
>  <MODEL>
2

>  <REMARK>
 VINA RESULT:     -10.9      1.582      2.747
  Name = 
  6 active torsions:
  status: ('A' for Active; 'I' for Inactive)
    1  A    between atoms: O_3  and  C_13
    2  A    between atoms: O_3  and  C_29
    3  A    between atoms: C_12  and  C_28
    4  A    between atoms: C_13  and  C_33
    5  A    between atoms: C_20  and  C_22
    6  A    between atoms: C_22  and  C_33
                            x       y       z     vdW  Elec       q    Type
                         _______ _______ _______ _____ _____    ______ ____

>  <TORSDO>
F 6

$$$$
=
 OpenBabel10272400123D

 34 38  0  0  1  0  0  0  0  0999 V2000
  187.1160  178.3700  147.0740 C   0  0  0  0  0  0  0  0  0  0  0  0
  189.0540  177.1370  146.2930 C   0  0  0  0  0  0  0  0  0  0  0  0
  187.3440  178.0160  144.6550 C   0  0  0  0  0  0  0  0  0  0  0  0
  187.5170  177.9510  142.2090 C   0  0  0  0  0  0  0  0  0  0  0  0
  187.6390  178.3660  148.3680 C   0  0  0  0  0  3  0  0  0  0  0  0
  189.5660  177.1470  147.5930 C   0  0  0  0  0  3  0  0  0  0  0  0
  189.6220  178.2500  143.5310 C   0  0  0  0  0  2  0  0  0  0  0  0
  187.8690  177.8610  145.9810 C   0  0  0  0  0  0  0  0  0  0  0  0
  190.3840  177.6550  142.3550 C   0  0  0  0  0  2  0  0  0  0  0  0
  188.2860  177.7240  140.9380 C   0  0  0  0  0  2  0  0  0  0  0  0
  188.8770  177.7840  148.6220 C   0  0  0  0  0  3  0  0  0  0  0  0
  185.9620  178.3500  144.5090 C   0  0  0  0  0  0  0  0  0  0  0  0
  185.8170  178.8260  146.8870 C   0  0  0  0  0  3  0  0  0  0  0  0
  189.6830  176.3160  145.3640 O   0  0  0  0  0  1  0  0  0  0  0  0
  186.1410  178.1020  142.1070 C   0  0  0  0  0  3  0  0  0  0  0  0
  185.3470  178.3280  143.2320 C   0  0  0  0  0  0  0  0  0  0  0  0
  189.7530  178.1530  141.0560 C   0  0  2  0  0  3  0  0  0  0  0  0
  188.1420  177.9510  143.4750 C   0  0  0  0  0  0  0  0  0  0  0  0
  185.2380  178.7800  145.6270 C   0  0  0  0  0  3  0  0  0  0  0  0
  181.9790  178.6500  141.5140 C   0  0  0  0  0  0  0  0  0  0  0  0
  181.1260  178.8510  142.6010 C   0  0  0  0  0  3  0  0  0  0  0  0
  183.8880  178.5340  143.0210 C   0  0  0  0  0  0  0  0  0  0  0  0
  181.6450  178.8880  143.8970 C   0  0  0  0  0  3  0  0  0  0  0  0
  183.3520  178.4870  141.7240 C   0  0  0  0  0  3  0  0  0  0  0  0
  183.0170  178.7260  144.1050 C   0  0  0  0  0  3  0  0  0  0  0  0
  181.4770  178.6080  140.2560 F   0  0  0  0  0  0  0  0  0  0  0  0
  190.5170  177.8380  139.9110 O   0  0  0  0  0  0  0  0  0  0  0  0
  190.4470  176.4530  139.6750 C   0  0  0  0  0  2  0  0  0  0  0  0
  190.2510  174.9310  137.8430 O   0  0  0  0  0  1  0  0  0  0  0  0
  189.8570  176.1900  138.2980 C   0  0  2  0  0  3  0  0  0  0  0  0
  190.2470  177.2720  137.2890 C   0  0  0  0  0  2  0  0  0  0  0  0
  188.8870  179.3650  137.3890 O   0  0  0  0  0  1  0  0  0  0  0  0
  189.0820  178.0990  136.8520 C   0  0  0  0  0  0  0  0  0  0  0  0
  188.2890  177.6600  135.9800 O   0  0  0  0  0  0  0  0  0  0  0  0
  1  5  2  0  0  0  0
  2  6  1  0  0  0  0
  3  8  1  0  0  0  0
  4 18  1  0  0  0  0
  5 11  1  0  0  0  0
  6 11  2  0  0  0  0
  8  2  2  0  0  0  0
  8  1  1  0  0  0  0
  9  7  1  0  0  0  0
 10 17  1  0  0  0  0
 10  4  1  0  0  0  0
 12  3  1  0  0  0  0
 12 19  1  0  0  0  0
 13  1  1  0  0  0  0
 14  2  1  0  0  0  0
 15  4  2  0  0  0  0
 15 16  1  0  0  0  0
 16 12  2  0  0  0  0
 17 27  1  6  0  0  0
 17  9  1  0  0  0  0
 18  7  1  0  0  0  0
 18  3  2  0  0  0  0
 19 13  2  0  0  0  0
 20 24  2  0  0  0  0
 20 21  1  0  0  0  0
 21 23  2  0  0  0  0
 22 16  1  0  0  0  0
 22 25  2  0  0  0  0
 23 25  1  0  0  0  0
 24 22  1  0  0  0  0
 26 20  1  0  0  0  0
 28 27  1  0  0  0  0
 30 29  1  6  0  0  0
 30 28  1  0  0  0  0
 31 30  1  0  0  0  0
 33 31  1  0  0  0  0
 33 32  1  0  0  0  0
 34 33  2  0  0  0  0
M  END
>  <MODEL>
3

>  <REMARK>
 VINA RESULT:     -10.7      1.559      2.498
  Name = 
  6 active torsions:
  status: ('A' for Active; 'I' for Inactive)
    1  A    between atoms: O_3  and  C_13
    2  A    between atoms: O_3  and  C_29
    3  A    between atoms: C_12  and  C_28
    4  A    between atoms: C_13  and  C_33
    5  A    between atoms: C_20  and  C_22
    6  A    between atoms: C_22  and  C_33
                            x       y       z     vdW  Elec       q    Type
                         _______ _______ _______ _____ _____    ______ ____

>  <TORSDO>
F 6

$$$$
=
 OpenBabel10272400123D

 34 38  0  0  1  0  0  0  0  0999 V2000
  187.0610  178.4110  147.0790 C   0  0  0  0  0  0  0  0  0  0  0  0
  189.0530  177.1490  146.5070 C   0  0  0  0  0  0  0  0  0  0  0  0
  187.5000  177.9890  144.7000 C   0  0  0  0  0  0  0  0  0  0  0  0
  187.8890  177.8540  142.2820 C   0  0  0  0  0  0  0  0  0  0  0  0
  187.4680  178.4420  148.4140 C   0  0  0  0  0  3  0  0  0  0  0  0
  189.4470  177.1940  147.8470 C   0  0  0  0  0  3  0  0  0  0  0  0
  189.8700  178.1810  143.7770 C   0  0  0  0  0  2  0  0  0  0  0  0
  187.9050  177.8690  146.0710 C   0  0  0  0  0  0  0  0  0  0  0  0
  190.7300  177.5500  142.6910 C   0  0  0  0  0  2  0  0  0  0  0  0
  188.7660  177.5890  141.0910 C   0  0  0  0  0  2  0  0  0  0  0  0
  188.6740  177.8620  148.7930 C   0  0  0  0  0  3  0  0  0  0  0  0
  186.1390  178.3240  144.4230 C   0  0  0  0  0  0  0  0  0  0  0  0
  185.7870  178.8670  146.7650 C   0  0  0  0  0  3  0  0  0  0  0  0
  189.7560  176.2990  145.6610 O   0  0  0  0  0  1  0  0  0  0  0  0
  186.5280  178.0080  142.0540 C   0  0  0  0  0  3  0  0  0  0  0  0
  185.6400  178.2690  143.0980 C   0  0  0  0  0  0  0  0  0  0  0  0
  190.2190  178.0140  141.3270 C   0  0  2  0  0  3  0  0  0  0  0  0
  188.3990  177.8870  143.5990 C   0  0  0  0  0  0  0  0  0  0  0  0
  185.3210  178.7880  145.4600 C   0  0  0  0  0  3  0  0  0  0  0  0
  182.4010  178.3630  141.1220 C   0  0  0  0  0  0  0  0  0  0  0  0
  181.4910  178.7900  142.0920 C   0  0  0  0  0  3  0  0  0  0  0  0
  184.2070  178.4750  142.7530 C   0  0  0  0  0  0  0  0  0  0  0  0
  181.9290  179.0530  143.3910 C   0  0  0  0  0  3  0  0  0  0  0  0
  183.7500  178.2020  141.4520 C   0  0  0  0  0  3  0  0  0  0  0  0
  183.2780  178.8920  143.7200 C   0  0  0  0  0  3  0  0  0  0  0  0
  181.9770  178.1020  139.8620 F   0  0  0  0  0  0  0  0  0  0  0  0
  191.0800  177.6640  140.2640 O   0  0  0  0  0  0  0  0  0  0  0  0
  190.3100  177.2280  139.1700 C   0  0  0  0  0  2  0  0  0  0  0  0
  190.8550  175.0240  138.4260 O   0  0  0  0  0  1  0  0  0  0  0  0
  191.1620  176.3730  138.2440 C   0  0  2  0  0  3  0  0  0  0  0  0
  192.6570  176.6180  138.4490 C   0  0  0  0  0  2  0  0  0  0  0  0
  194.4650  175.0140  137.8180 O   0  0  0  0  0  1  0  0  0  0  0  0
  193.5000  175.9300  137.4230 C   0  0  0  0  0  0  0  0  0  0  0  0
  193.3200  176.1630  136.2010 O   0  0  0  0  0  0  0  0  0  0  0  0
  1  5  2  0  0  0  0
  2  6  1  0  0  0  0
  3  8  1  0  0  0  0
  4 18  1  0  0  0  0
  5 11  1  0  0  0  0
  6 11  2  0  0  0  0
  8  2  2  0  0  0  0
  8  1  1  0  0  0  0
  9  7  1  0  0  0  0
 10 17  1  0  0  0  0
 10  4  1  0  0  0  0
 12  3  1  0  0  0  0
 12 19  1  0  0  0  0
 13  1  1  0  0  0  0
 14  2  1  0  0  0  0
 15  4  2  0  0  0  0
 15 16  1  0  0  0  0
 16 12  2  0  0  0  0
 17 27  1  6  0  0  0
 17  9  1  0  0  0  0
 18  7  1  0  0  0  0
 18  3  2  0  0  0  0
 19 13  2  0  0  0  0
 20 24  2  0  0  0  0
 20 21  1  0  0  0  0
 21 23  2  0  0  0  0
 22 16  1  0  0  0  0
 22 25  2  0  0  0  0
 23 25  1  0  0  0  0
 24 22  1  0  0  0  0
 26 20  1  0  0  0  0
 28 27  1  0  0  0  0
 30 29  1  1  0  0  0
 30 31  1  0  0  0  0
 30 28  1  0  0  0  0
 33 32  1  0  0  0  0
 33 31  1  0  0  0  0
 34 33  2  0  0  0  0
M  END
>  <MODEL>
4

>  <REMARK>
 VINA RESULT:     -10.5      2.319      3.445
  Name = 
  6 active torsions:
  status: ('A' for Active; 'I' for Inactive)
    1  A    between atoms: O_3  and  C_13
    2  A    between atoms: O_3  and  C_29
    3  A    between atoms: C_12  and  C_28
    4  A    between atoms: C_13  and  C_33
    5  A    between atoms: C_20  and  C_22
    6  A    between atoms: C_22  and  C_33
                            x       y       z     vdW  Elec       q    Type
                         _______ _______ _______ _____ _____    ______ ____

>  <TORSDO>
F 6

$$$$
=
 OpenBabel10272400123D

 34 38  0  0  1  0  0  0  0  0999 V2000
  191.1140  176.2800  145.0820 C   0  0  0  0  0  0  0  0  0  0  0  0
  189.7910  177.5550  146.6660 C   0  0  0  0  0  0  0  0  0  0  0  0
  189.0360  177.3050  144.2690 C   0  0  0  0  0  0  0  0  0  0  0  0
  186.8980  178.0660  143.3390 C   0  0  0  0  0  0  0  0  0  0  0  0
  191.9570  175.8730  146.1180 C   0  0  0  0  0  3  0  0  0  0  0  0
  190.6410  177.1330  147.6930 C   0  0  0  0  0  3  0  0  0  0  0  0
  186.9310  177.2570  145.7080 C   0  0  0  0  0  2  0  0  0  0  0  0
  189.9390  177.0330  145.3510 C   0  0  0  0  0  0  0  0  0  0  0  0
  185.7010  178.1160  145.9640 C   0  0  0  0  0  2  0  0  0  0  0  0
  185.5010  178.6010  143.4860 C   0  0  0  0  0  2  0  0  0  0  0  0
  191.7030  176.2730  147.4270 C   0  0  0  0  0  3  0  0  0  0  0  0
  189.5070  177.1200  142.9320 C   0  0  0  0  0  0  0  0  0  0  0  0
  191.4830  175.9850  143.7760 C   0  0  0  0  0  3  0  0  0  0  0  0
  188.8850  178.5670  146.9610 O   0  0  0  0  0  1  0  0  0  0  0  0
  187.4440  178.0430  142.0630 C   0  0  0  0  0  3  0  0  0  0  0  0
  188.7300  177.5530  141.8290 C   0  0  0  0  0  0  0  0  0  0  0  0
  184.7960  178.0600  144.7340 C   0  0  2  0  0  3  0  0  0  0  0  0
  187.6670  177.6570  144.4500 C   0  0  0  0  0  0  0  0  0  0  0  0
  190.7080  176.4330  142.7160 C   0  0  0  0  0  3  0  0  0  0  0  0
  189.1870  178.4340  138.1670 C   0  0  0  0  0  0  0  0  0  0  0  0
  190.1550  177.5080  137.7720 C   0  0  0  0  0  3  0  0  0  0  0  0
  189.2110  177.5150  140.4210 C   0  0  0  0  0  0  0  0  0  0  0  0
  190.6590  176.5900  138.6960 C   0  0  0  0  0  3  0  0  0  0  0  0
  188.7210  178.4400  139.4850 C   0  0  0  0  0  3  0  0  0  0  0  0
  190.1930  176.5970  140.0130 C   0  0  0  0  0  3  0  0  0  0  0  0
  188.7000  179.3280  137.2730 F   0  0  0  0  0  0  0  0  0  0  0  0
  183.5280  178.6430  144.9510 O   0  0  0  0  0  0  0  0  0  0  0  0
  183.2770  179.5920  143.9440 C   0  0  0  0  0  2  0  0  0  0  0  0
  181.1660  178.4830  144.1030 O   0  0  0  0  0  1  0  0  0  0  0  0
  181.9380  179.3050  143.2810 C   0  0  2  0  0  3  0  0  0  0  0  0
  182.1060  178.6770  141.8970 C   0  0  0  0  0  2  0  0  0  0  0  0
  181.0180  178.5980  139.6490 O   0  0  0  0  0  0  0  0  0  0  0  0
  181.0880  179.1630  140.9160 C   0  0  0  0  0  0  0  0  0  0  0  0
  180.2780  180.0670  141.2440 O   0  0  0  0  0  1  0  0  0  0  0  0
  1  8  1  0  0  0  0
  1  5  2  0  0  0  0
  2 14  1  0  0  0  0
  2  6  1  0  0  0  0
  3 18  1  0  0  0  0
  3  8  1  0  0  0  0
  4 10  1  0  0  0  0
  4 18  2  0  0  0  0
  5 11  1  0  0  0  0
  7  9  1  0  0  0  0
  8  2  2  0  0  0  0
 10 17  1  0  0  0  0
 11  6  2  0  0  0  0
 12  3  2  0  0  0  0
 13  1  1  0  0  0  0
 15  4  1  0  0  0  0
 16 15  2  0  0  0  0
 16 12  1  0  0  0  0
 17 27  1  1  0  0  0
 17  9  1  0  0  0  0
 18  7  1  0  0  0  0
 19 12  1  0  0  0  0
 19 13  2  0  0  0  0
 20 24  1  0  0  0  0
 21 20  2  0  0  0  0
 21 23  1  0  0  0  0
 22 16  1  0  0  0  0
 23 25  2  0  0  0  0
 24 22  2  0  0  0  0
 25 22  1  0  0  0  0
 26 20  1  0  0  0  0
 28 27  1  0  0  0  0
 30 28  1  0  0  0  0
 30 29  1  1  0  0  0
 31 30  1  0  0  0  0
 32 33  2  0  0  0  0
 33 34  1  0  0  0  0
 33 31  1  0  0  0  0
M  END
>  <MODEL>
5

>  <REMARK>
 VINA RESULT:     -10.2      3.149      6.133
  Name = 
  6 active torsions:
  status: ('A' for Active; 'I' for Inactive)
    1  A    between atoms: O_3  and  C_13
    2  A    between atoms: O_3  and  C_29
    3  A    between atoms: C_12  and  C_28
    4  A    between atoms: C_13  and  C_33
    5  A    between atoms: C_20  and  C_22
    6  A    between atoms: C_22  and  C_33
                            x       y       z     vdW  Elec       q    Type
                         _______ _______ _______ _____ _____    ______ ____

>  <TORSDO>
F 6

$$$$
=
 OpenBabel10272400123D

 34 38  0  0  1  0  0  0  0  0999 V2000
  188.6930  177.2120  146.2880 C   0  0  0  0  0  0  0  0  0  0  0  0
  186.8810  178.6520  147.0130 C   0  0  0  0  0  0  0  0  0  0  0  0
  187.1450  178.0480  144.5750 C   0  0  0  0  0  0  0  0  0  0  0  0
  185.5820  178.6040  142.7690 C   0  0  0  0  0  0  0  0  0  0  0  0
  189.0380  176.9800  147.6210 C   0  0  0  0  0  3  0  0  0  0  0  0
  187.2360  178.4040  148.3420 C   0  0  0  0  0  3  0  0  0  0  0  0
  184.6390  178.1340  145.0400 C   0  0  0  0  0  2  0  0  0  0  0  0
  187.5300  177.9570  145.9540 C   0  0  0  0  0  0  0  0  0  0  0  0
  183.4330  178.9810  144.6590 C   0  0  0  0  0  2  0  0  0  0  0  0
  184.2580  179.1100  142.2670 C   0  0  0  0  0  2  0  0  0  0  0  0
  188.2910  177.5490  148.6480 C   0  0  0  0  0  3  0  0  0  0  0  0
  188.1080  177.6940  143.5800 C   0  0  0  0  0  0  0  0  0  0  0  0
  189.5470  176.7500  145.2940 C   0  0  0  0  0  3  0  0  0  0  0  0
  185.9600  179.6660  146.7750 O   0  0  0  0  0  1  0  0  0  0  0  0
  186.5930  178.4210  141.8360 C   0  0  0  0  0  3  0  0  0  0  0  0
  187.8510  177.9450  142.2090 C   0  0  0  0  0  0  0  0  0  0  0  0
  183.0970  178.7260  143.1900 C   0  0  2  0  0  3  0  0  0  0  0  0
  185.8290  178.3780  144.1410 C   0  0  0  0  0  0  0  0  0  0  0  0
  189.2760  177.0220  143.9610 C   0  0  0  0  0  3  0  0  0  0  0  0
  189.5460  178.0070  138.8140 C   0  0  0  0  0  0  0  0  0  0  0  0
  190.7660  177.3880  139.0960 C   0  0  0  0  0  3  0  0  0  0  0  0
  188.8560  177.7270  141.1330 C   0  0  0  0  0  0  0  0  0  0  0  0
  191.0390  176.9450  140.3920 C   0  0  0  0  0  3  0  0  0  0  0  0
  188.5980  178.1790  139.8280 C   0  0  0  0  0  3  0  0  0  0  0  0
  190.0910  177.1170  141.4040 C   0  0  0  0  0  3  0  0  0  0  0  0
  189.2810  178.4420  137.5590 F   0  0  0  0  0  0  0  0  0  0  0  0
  181.8650  179.2930  142.7960 O   0  0  0  0  0  0  0  0  0  0  0  0
  181.2360  178.4380  141.8740 C   0  0  0  0  0  2  0  0  0  0  0  0
  179.9820  178.7020  139.8570 O   0  0  0  0  0  1  0  0  0  0  0  0
  181.1390  179.1180  140.5170 C   0  0  2  0  0  3  0  0  0  0  0  0
  182.3740  178.8580  139.6540 C   0  0  0  0  0  2  0  0  0  0  0  0
  181.9660  181.0300  138.4900 O   0  0  0  0  0  0  0  0  0  0  0  0
  182.8700  180.0900  138.9690 C   0  0  0  0  0  0  0  0  0  0  0  0
  184.1050  180.2900  138.8460 O   0  0  0  0  0  1  0  0  0  0  0  0
  1  5  2  0  0  0  0
  2  6  1  0  0  0  0
  3  8  1  0  0  0  0
  4 18  2  0  0  0  0
  5 11  1  0  0  0  0
  6 11  2  0  0  0  0
  8  1  1  0  0  0  0
  8  2  2  0  0  0  0
  9  7  1  0  0  0  0
 10  4  1  0  0  0  0
 10 17  1  0  0  0  0
 12 19  1  0  0  0  0
 12  3  2  0  0  0  0
 13  1  1  0  0  0  0
 14  2  1  0  0  0  0
 15 16  2  0  0  0  0
 15  4  1  0  0  0  0
 16 12  1  0  0  0  0
 17 27  1  6  0  0  0
 17  9  1  0  0  0  0
 18  3  1  0  0  0  0
 18  7  1  0  0  0  0
 19 13  2  0  0  0  0
 20 21  2  0  0  0  0
 20 24  1  0  0  0  0
 21 23  1  0  0  0  0
 22 25  1  0  0  0  0
 22 16  1  0  0  0  0
 23 25  2  0  0  0  0
 24 22  2  0  0  0  0
 26 20  1  0  0  0  0
 28 27  1  0  0  0  0
 30 29  1  6  0  0  0
 30 28  1  0  0  0  0
 31 30  1  0  0  0  0
 32 33  2  0  0  0  0
 33 31  1  0  0  0  0
 34 33  1  0  0  0  0
M  END
>  <MODEL>
6

>  <REMARK>
 VINA RESULT:     -10.2      3.021      6.076
  Name = 
  6 active torsions:
  status: ('A' for Active; 'I' for Inactive)
    1  A    between atoms: O_3  and  C_13
    2  A    between atoms: O_3  and  C_29
    3  A    between atoms: C_12  and  C_28
    4  A    between atoms: C_13  and  C_33
    5  A    between atoms: C_20  and  C_22
    6  A    between atoms: C_22  and  C_33
                            x       y       z     vdW  Elec       q    Type
                         _______ _______ _______ _____ _____    ______ ____

>  <TORSDO>
F 6

$$$$
=
 OpenBabel10272400123D

 34 38  0  0  1  0  0  0  0  0999 V2000
  185.8550  177.8580  143.5410 C   0  0  0  0  0  0  0  0  0  0  0  0
  186.1830  178.8870  141.3680 C   0  0  0  0  0  0  0  0  0  0  0  0
  188.0930  177.7200  142.5400 C   0  0  0  0  0  0  0  0  0  0  0  0
  190.3200  177.2950  141.6040 C   0  0  0  0  0  0  0  0  0  0  0  0
  184.4860  178.1130  143.4510 C   0  0  0  0  0  3  0  0  0  0  0  0
  184.8090  179.1290  141.2920 C   0  0  0  0  0  3  0  0  0  0  0  0
  188.3590  177.2400  140.0490 C   0  0  0  0  0  2  0  0  0  0  0  0
  186.7210  178.1290  142.4460 C   0  0  0  0  0  0  0  0  0  0  0  0
  189.3150  177.5800  138.9140 C   0  0  0  0  0  2  0  0  0  0  0  0
  191.2950  177.2550  140.4610 C   0  0  0  0  0  2  0  0  0  0  0  0
  183.9580  178.7190  142.3150 C   0  0  0  0  0  3  0  0  0  0  0  0
  188.6120  177.3800  143.8270 C   0  0  0  0  0  0  0  0  0  0  0  0
  186.3630  177.3900  144.7460 C   0  0  0  0  0  3  0  0  0  0  0  0
  186.9950  179.4990  140.4200 O   0  0  0  0  0  1  0  0  0  0  0  0
  190.8300  177.1430  142.8860 C   0  0  0  0  0  3  0  0  0  0  0  0
  190.0000  177.1550  144.0070 C   0  0  0  0  0  0  0  0  0  0  0  0
  190.6330  176.8410  139.1420 C   0  0  2  0  0  3  0  0  0  0  0  0
  188.9430  177.5400  141.4100 C   0  0  0  0  0  0  0  0  0  0  0  0
  187.7280  177.1910  144.8960 C   0  0  0  0  0  3  0  0  0  0  0  0
  190.6970  177.3730  147.7310 C   0  0  0  0  0  0  0  0  0  0  0  0
  191.7510  176.4700  147.8740 C   0  0  0  0  0  3  0  0  0  0  0  0
  190.6280  176.9290  145.3380 C   0  0  0  0  0  0  0  0  0  0  0  0
  192.2430  175.7890  146.7580 C   0  0  0  0  0  3  0  0  0  0  0  0
  190.1350  177.5980  146.4710 C   0  0  0  0  0  3  0  0  0  0  0  0
  191.6810  176.0150  145.4980 C   0  0  0  0  0  3  0  0  0  0  0  0
  190.2150  178.0310  148.8130 F   0  0  0  0  0  0  0  0  0  0  0  0
  191.5080  176.9120  138.0360 O   0  0  0  0  0  0  0  0  0  0  0  0
  192.0410  175.6360  137.7840 C   0  0  0  0  0  2  0  0  0  0  0  0
  194.0880  176.5700  136.9770 O   0  0  0  0  0  1  0  0  0  0  0  0
  193.5570  175.6730  137.9050 C   0  0  2  0  0  3  0  0  0  0  0  0
  194.1810  174.2870  137.7320 C   0  0  0  0  0  2  0  0  0  0  0  0
  195.7440  175.0390  139.5290 O   0  0  0  0  0  1  0  0  0  0  0  0
  195.2640  174.0140  138.7250 C   0  0  0  0  0  0  0  0  0  0  0  0
  195.7260  172.8510  138.8500 O   0  0  0  0  0  0  0  0  0  0  0  0
  1 13  1  0  0  0  0
  2  8  1  0  0  0  0
  3 12  1  0  0  0  0
  4 15  2  0  0  0  0
  5  1  1  0  0  0  0
  6  2  2  0  0  0  0
  6 11  1  0  0  0  0
  7 18  1  0  0  0  0
  8  3  1  0  0  0  0
  8  1  2  0  0  0  0
  9 17  1  0  0  0  0
  9  7  1  0  0  0  0
 10  4  1  0  0  0  0
 11  5  2  0  0  0  0
 12 16  2  0  0  0  0
 12 19  1  0  0  0  0
 13 19  2  0  0  0  0
 14  2  1  0  0  0  0
 15 16  1  0  0  0  0
 16 22  1  0  0  0  0
 17 27  1  6  0  0  0
 17 10  1  0  0  0  0
 18  4  1  0  0  0  0
 18  3  2  0  0  0  0
 20 21  1  0  0  0  0
 20 26  1  0  0  0  0
 22 25  2  0  0  0  0
 22 24  1  0  0  0  0
 23 21  2  0  0  0  0
 24 20  2  0  0  0  0
 25 23  1  0  0  0  0
 28 30  1  0  0  0  0
 28 27  1  0  0  0  0
 30 29  1  6  0  0  0
 31 30  1  0  0  0  0
 31 33  1  0  0  0  0
 33 34  2  0  0  0  0
 33 32  1  0  0  0  0
M  END
>  <MODEL>
7

>  <REMARK>
 VINA RESULT:     -10.1      3.105      6.436
  Name = 
  6 active torsions:
  status: ('A' for Active; 'I' for Inactive)
    1  A    between atoms: O_3  and  C_13
    2  A    between atoms: O_3  and  C_29
    3  A    between atoms: C_12  and  C_28
    4  A    between atoms: C_13  and  C_33
    5  A    between atoms: C_20  and  C_22
    6  A    between atoms: C_22  and  C_33
                            x       y       z     vdW  Elec       q    Type
                         _______ _______ _______ _____ _____    ______ ____

>  <TORSDO>
F 6

$$$$
=
 OpenBabel10272400123D

 34 38  0  0  1  0  0  0  0  0999 V2000
  185.0610  178.6770  144.9410 C   0  0  0  0  0  0  0  0  0  0  0  0
  187.0890  177.3820  144.6290 C   0  0  0  0  0  0  0  0  0  0  0  0
  185.8530  178.3340  142.6420 C   0  0  0  0  0  0  0  0  0  0  0  0
  186.6080  178.2820  140.3090 C   0  0  0  0  0  0  0  0  0  0  0  0
  185.2560  178.6440  146.3220 C   0  0  0  0  0  3  0  0  0  0  0  0
  187.2720  177.3650  146.0140 C   0  0  0  0  0  3  0  0  0  0  0  0
  188.3410  178.4960  142.1030 C   0  0  0  0  0  2  0  0  0  0  0  0
  186.0380  178.1500  144.0530 C   0  0  0  0  0  0  0  0  0  0  0  0
  189.3440  177.8830  141.1360 C   0  0  0  0  0  2  0  0  0  0  0  0
  187.6530  178.0370  139.2560 C   0  0  0  0  0  2  0  0  0  0  0  0
  186.3770  178.0170  146.8580 C   0  0  0  0  0  3  0  0  0  0  0  0
  184.5590  178.7180  142.1730 C   0  0  0  0  0  0  0  0  0  0  0  0
  183.8600  179.1800  144.4540 C   0  0  0  0  0  3  0  0  0  0  0  0
  187.8950  176.5460  143.8650 O   0  0  0  0  0  1  0  0  0  0  0  0
  185.3020  178.4820  139.8810 C   0  0  0  0  0  3  0  0  0  0  0  0
  184.2690  178.7270  140.7860 C   0  0  0  0  0  0  0  0  0  0  0  0
  189.0610  178.4130  139.7310 C   0  0  2  0  0  3  0  0  0  0  0  0
  186.9090  178.2490  141.6880 C   0  0  0  0  0  0  0  0  0  0  0  0
  183.6000  179.1640  143.0920 C   0  0  0  0  0  3  0  0  0  0  0  0
  181.4730  180.1600  138.6580 C   0  0  0  0  0  0  0  0  0  0  0  0
  180.3680  179.4450  139.1250 C   0  0  0  0  0  3  0  0  0  0  0  0
  182.9110  178.9860  140.2340 C   0  0  0  0  0  0  0  0  0  0  0  0
  180.5280  178.4970  140.1380 C   0  0  0  0  0  3  0  0  0  0  0  0
  182.7380  179.9280  139.2060 C   0  0  0  0  0  3  0  0  0  0  0  0
  181.7930  178.2670  140.6860 C   0  0  0  0  0  3  0  0  0  0  0  0
  181.3200  181.0760  137.6720 F   0  0  0  0  0  0  0  0  0  0  0  0
  190.0670  178.0800  138.7980 O   0  0  0  0  0  0  0  0  0  0  0  0
  190.9910  177.2110  139.4060 C   0  0  0  0  0  2  0  0  0  0  0  0
  192.7830  176.4230  138.0340 O   0  0  0  0  0  1  0  0  0  0  0  0
  191.4610  176.1680  138.4020 C   0  0  2  0  0  3  0  0  0  0  0  0
  190.5600  176.1110  137.1680 C   0  0  0  0  0  2  0  0  0  0  0  0
  188.2860  175.0980  136.9650 O   0  0  0  0  0  0  0  0  0  0  0  0
  189.6480  174.9280  137.1740 C   0  0  0  0  0  0  0  0  0  0  0  0
  190.1150  173.7730  137.3460 O   0  0  0  0  0  1  0  0  0  0  0  0
  1  5  2  0  0  0  0
  2  6  1  0  0  0  0
  3  8  1  0  0  0  0
  4 18  1  0  0  0  0
  5 11  1  0  0  0  0
  6 11  2  0  0  0  0
  8  2  2  0  0  0  0
  8  1  1  0  0  0  0
  9  7  1  0  0  0  0
 10 17  1  0  0  0  0
 10  4  1  0  0  0  0
 12  3  1  0  0  0  0
 12 19  1  0  0  0  0
 13  1  1  0  0  0  0
 14  2  1  0  0  0  0
 15  4  2  0  0  0  0
 15 16  1  0  0  0  0
 16 12  2  0  0  0  0
 17 27  1  6  0  0  0
 17  9  1  0  0  0  0
 18  7  1  0  0  0  0
 18  3  2  0  0  0  0
 19 13  2  0  0  0  0
 20 21  2  0  0  0  0
 20 24  1  0  0  0  0
 21 23  1  0  0  0  0
 22 25  1  0  0  0  0
 22 16  1  0  0  0  0
 23 25  2  0  0  0  0
 24 22  2  0  0  0  0
 26 20  1  0  0  0  0
 27 28  1  0  0  0  0
 30 29  1  6  0  0  0
 30 28  1  0  0  0  0
 31 33  1  0  0  0  0
 31 30  1  0  0  0  0
 32 33  2  0  0  0  0
 33 34  1  0  0  0  0
M  END
>  <MODEL>
8

>  <REMARK>
 VINA RESULT:      -9.6      2.515      4.238
  Name = 
  6 active torsions:
  status: ('A' for Active; 'I' for Inactive)
    1  A    between atoms: O_3  and  C_13
    2  A    between atoms: O_3  and  C_29
    3  A    between atoms: C_12  and  C_28
    4  A    between atoms: C_13  and  C_33
    5  A    between atoms: C_20  and  C_22
    6  A    between atoms: C_22  and  C_33
                            x       y       z     vdW  Elec       q    Type
                         _______ _______ _______ _____ _____    ______ ____

>  <TORSDO>
F 6

$$$$
=
 OpenBabel10272400123D

 34 38  0  0  1  0  0  0  0  0999 V2000
  182.5300  178.8150  141.6330 C   0  0  0  0  0  0  0  0  0  0  0  0
  183.4420  179.7080  139.5690 C   0  0  0  0  0  0  0  0  0  0  0  0
  184.9620  178.7010  141.3170 C   0  0  0  0  0  0  0  0  0  0  0  0
  187.3710  178.3040  141.0830 C   0  0  0  0  0  0  0  0  0  0  0  0
  181.2380  179.0080  141.1410 C   0  0  0  0  0  3  0  0  0  0  0  0
  182.1410  179.8890  139.0910 C   0  0  0  0  0  3  0  0  0  0  0  0
  185.9350  178.0650  139.0460 C   0  0  0  0  0  2  0  0  0  0  0  0
  183.6660  179.0470  140.8100 C   0  0  0  0  0  0  0  0  0  0  0  0
  187.1670  178.3660  138.2050 C   0  0  0  0  0  2  0  0  0  0  0  0
  188.6310  178.2260  140.2670 C   0  0  0  0  0  2  0  0  0  0  0  0
  181.0430  179.5150  139.8600 C   0  0  0  0  0  3  0  0  0  0  0  0
  185.1010  178.4700  142.7210 C   0  0  0  0  0  0  0  0  0  0  0  0
  182.6830  178.4500  142.9640 C   0  0  0  0  0  3  0  0  0  0  0  0
  184.4780  180.2880  138.8450 O   0  0  0  0  0  1  0  0  0  0  0  0
  187.4990  178.2590  142.4650 C   0  0  0  0  0  3  0  0  0  0  0  0
  186.3840  178.3130  143.3010 C   0  0  0  0  0  0  0  0  0  0  0  0
  188.3800  177.6980  138.8510 C   0  0  2  0  0  3  0  0  0  0  0  0
  186.1020  178.4790  140.4900 C   0  0  0  0  0  0  0  0  0  0  0  0
  183.9530  178.3170  143.5080 C   0  0  0  0  0  3  0  0  0  0  0  0
  187.9820  177.4360  146.6290 C   0  0  0  0  0  0  0  0  0  0  0  0
  187.1030  178.0380  147.5320 C   0  0  0  0  0  3  0  0  0  0  0  0
  186.6120  178.2030  144.7680 C   0  0  0  0  0  0  0  0  0  0  0  0
  185.9840  178.7280  147.0610 C   0  0  0  0  0  3  0  0  0  0  0  0
  187.7400  177.5220  145.2550 C   0  0  0  0  0  3  0  0  0  0  0  0
  185.7430  178.8130  145.6870 C   0  0  0  0  0  3  0  0  0  0  0  0
  189.0710  176.7700  147.0840 F   0  0  0  0  0  0  0  0  0  0  0  0
  189.5320  177.7300  138.0340 O   0  0  0  0  0  0  0  0  0  0  0  0
  189.5030  176.6370  137.1500 C   0  0  0  0  0  2  0  0  0  0  0  0
  190.3810  174.4890  137.7210 O   0  0  0  0  0  1  0  0  0  0  0  0
  190.7460  175.7810  137.3410 C   0  0  2  0  0  3  0  0  0  0  0  0
  191.7110  176.3890  138.3600 C   0  0  0  0  0  2  0  0  0  0  0  0
  194.1510  176.1630  138.8470 O   0  0  0  0  0  1  0  0  0  0  0  0
  193.1360  176.3260  137.9140 C   0  0  0  0  0  0  0  0  0  0  0  0
  193.4160  176.3980  136.6900 O   0  0  0  0  0  0  0  0  0  0  0  0
  1 13  1  0  0  0  0
  2  8  1  0  0  0  0
  3 12  1  0  0  0  0
  4 15  2  0  0  0  0
  5  1  1  0  0  0  0
  6  2  2  0  0  0  0
  6 11  1  0  0  0  0
  7 18  1  0  0  0  0
  8  3  1  0  0  0  0
  8  1  2  0  0  0  0
  9 17  1  0  0  0  0
  9  7  1  0  0  0  0
 10  4  1  0  0  0  0
 11  5  2  0  0  0  0
 12 16  2  0  0  0  0
 12 19  1  0  0  0  0
 13 19  2  0  0  0  0
 14  2  1  0  0  0  0
 15 16  1  0  0  0  0
 16 22  1  0  0  0  0
 17 27  1  6  0  0  0
 17 10  1  0  0  0  0
 18  4  1  0  0  0  0
 18  3  2  0  0  0  0
 20 26  1  0  0  0  0
 20 21  1  0  0  0  0
 22 24  1  0  0  0  0
 22 25  2  0  0  0  0
 23 21  2  0  0  0  0
 24 20  2  0  0  0  0
 25 23  1  0  0  0  0
 28 30  1  0  0  0  0
 28 27  1  0  0  0  0
 30 29  1  1  0  0  0
 30 31  1  0  0  0  0
 33 31  1  0  0  0  0
 33 32  1  0  0  0  0
 34 33  2  0  0  0  0
M  END
>  <MODEL>
9

>  <REMARK>
 VINA RESULT:      -9.5      2.715      6.434
  Name = 
  6 active torsions:
  status: ('A' for Active; 'I' for Inactive)
    1  A    between atoms: O_3  and  C_13
    2  A    between atoms: O_3  and  C_29
    3  A    between atoms: C_12  and  C_28
    4  A    between atoms: C_13  and  C_33
    5  A    between atoms: C_20  and  C_22
    6  A    between atoms: C_22  and  C_33
                            x       y       z     vdW  Elec       q    Type
                         _______ _______ _______ _____ _____    ______ ____

>  <TORSDO>
F 6

$$$$
