=
 OpenBabel10272414013D

 30 32  0  0  1  0  0  0  0  0999 V2000
  190.4450  173.9290  137.3160 C   0  0  1  0  0  3  0  0  0  0  0  0
  187.1620  173.7130  137.0180 C   0  0  0  0  0  2  0  0  0  0  0  0
  188.2710  177.4890  134.3460 C   0  0  0  0  0  1  0  0  0  0  0  0
  191.8010  174.3400  136.6670 C   0  0  2  0  0  3  0  0  0  0  0  0
  189.7290  175.0500  138.0950 C   0  0  0  0  0  2  0  0  0  0  0  0
  191.7030  176.6270  137.8760 C   0  0  2  0  0  3  0  0  0  0  0  0
  193.2290  175.1710  134.7050 C   0  0  0  0  0  2  0  0  0  0  0  0
  191.0350  176.9100  134.6540 O   0  0  0  0  0  0  0  0  0  0  0  0
  190.1910  176.4470  137.6940 C   0  0  0  0  0  2  0  0  0  0  0  0
  192.5270  175.3620  137.5730 C   0  0  2  0  0  3  0  0  0  0  0  0
  186.2630  173.4840  135.8060 C   0  0  0  0  0  2  0  0  0  0  0  0
  193.7840  176.2430  135.6320 C   0  0  2  0  0  3  0  0  0  0  0  0
  188.2380  172.6400  137.1440 C   0  0  0  0  0  2  0  0  0  0  0  0
  189.4250  175.2190  134.5340 N   0  0  0  0  0  2  0  0  0  0  0  0
  186.9210  173.9040  134.4970 C   0  0  0  0  0  2  0  0  0  0  0  0
  189.5220  173.0690  136.4420 C   0  0  0  0  0  2  0  0  0  0  0  0
  191.6290  173.3950  134.3460 C   0  0  0  0  0  1  0  0  0  0  0  0
  190.7660  175.6800  134.7390 C   0  0  0  0  0  0  0  0  0  0  0  0
  191.8340  174.6800  135.1350 C   0  0  1  0  0  0  0  0  0  0  0  0
  195.0530  176.8580  135.0710 C   0  0  0  0  0  1  0  0  0  0  0  0
  188.2300  176.0020  134.4170 C   0  0  0  0  0  0  0  0  0  0  0  0
  187.0470  175.3930  134.4000 C   0  0  0  0  0  3  0  0  0  0  0  0
  193.9350  175.7110  137.0670 C   0  0  2  0  0  3  0  0  0  0  0  0
  194.6120  173.8730  138.4270 C   0  0  0  0  0  1  0  0  0  0  0  0
  196.1050  174.9770  137.1820 O   0  0  0  0  0  1  0  0  0  0  0  0
  194.8250  174.5370  137.1470 N   0  0  0  0  0  0  0  0  0  0  0  0
  192.0340  177.1790  139.2580 C   0  0  0  0  0  2  0  0  0  0  0  0
  190.8760  177.6140  139.9090 O   0  0  0  0  0  0  0  0  0  0  0  0
  191.0710  177.2880  141.2090 N   0  0  0  0  0  2  0  0  0  0  0  0
  189.7560  177.1180  141.7990 C   0  0  0  0  0  1  0  0  0  0  0  0
  1 16  1  6  0  0  0
  1  5  1  0  0  0  0
  2 13  1  0  0  0  0
  3 21  1  0  0  0  0
  4  1  1  0  0  0  0
  4 10  1  0  0  0  0
  6 27  1  0  0  0  0
  7 19  1  0  0  0  0
  7 12  1  0  0  0  0
  8 18  2  0  0  0  0
  9  6  1  0  0  0  0
  9  5  1  0  0  0  0
 10  6  1  0  0  0  0
 11  2  1  0  0  0  0
 12 23  1  0  0  0  0
 14 18  1  0  0  0  0
 15 11  1  0  0  0  0
 16 13  1  0  0  0  0
 17 19  1  0  0  0  0
 18 19  1  0  0  0  0
 19  4  1  0  0  0  0
 20 12  1  0  0  0  0
 21 14  1  0  0  0  0
 22 21  2  0  0  0  0
 22 15  1  0  0  0  0
 23 26  1  0  0  0  0
 23 10  1  0  0  0  0
 26 25  1  0  0  0  0
 26 24  1  0  0  0  0
 27 28  1  0  0  0  0
 28 29  1  0  0  0  0
 29 30  1  0  0  0  0
M  END
>  <MODEL>
1

>  <REMARK>
 VINA RESULT:      -4.2      0.000      0.000
  Name = 
  4 active torsions:
  status: ('A' for Active; 'I' for Inactive)
    1  A    between atoms: C_6  and  C_8
    2  A    between atoms: C_6  and  O_21
    3  A    between atoms: N_9  and  O_21
    4  A    between atoms: N_27  and  C_30
                            x       y       z     vdW  Elec       q    Type
                         _______ _______ _______ _____ _____    ______ ____

>  <TORSDO>
F 4

$$$$
=
 OpenBabel10272414013D

 30 32  0  0  1  0  0  0  0  0999 V2000
  183.9210  176.6830  138.1300 C   0  0  1  0  0  3  0  0  0  0  0  0
  183.3540  179.8580  138.8430 C   0  0  0  0  0  2  0  0  0  0  0  0
  181.0190  179.2070  134.7500 C   0  0  0  0  0  1  0  0  0  0  0  0
  183.4070  175.3720  137.4610 C   0  0  2  0  0  3  0  0  0  0  0  0
  184.7100  177.6230  137.1990 C   0  0  0  0  0  2  0  0  0  0  0  0
  184.7460  175.9260  135.3160 C   0  0  2  0  0  3  0  0  0  0  0  0
  181.6190  173.9710  136.2690 C   0  0  0  0  0  2  0  0  0  0  0  0
  181.5060  176.4120  134.9030 O   0  0  0  0  0  0  0  0  0  0  0  0
  184.4350  177.3710  135.7210 C   0  0  0  0  0  2  0  0  0  0  0  0
  184.4300  174.8860  136.4080 C   0  0  2  0  0  3  0  0  0  0  0  0
  182.0630  180.6230  139.1210 C   0  0  0  0  0  2  0  0  0  0  0  0
  182.6530  173.6630  135.1950 C   0  0  2  0  0  3  0  0  0  0  0  0
  183.4960  178.6310  139.7380 C   0  0  0  0  0  2  0  0  0  0  0  0
  181.1540  177.7110  136.8150 N   0  0  0  0  0  0  0  0  0  0  0  0
  180.8380  179.9560  138.5060 C   0  0  0  0  0  2  0  0  0  0  0  0
  182.9250  177.3910  139.0580 C   0  0  0  0  0  2  0  0  0  0  0  0
  181.0260  175.2300  138.2460 C   0  0  0  0  0  1  0  0  0  0  0  0
  181.4930  176.4820  136.1630 C   0  0  0  0  0  0  0  0  0  0  0  0
  181.9070  175.2920  137.0060 C   0  0  1  0  0  0  0  0  0  0  0  0
  182.2330  172.4770  134.3460 C   0  0  0  0  0  1  0  0  0  0  0  0
  180.9930  179.0080  136.2250 C   0  0  0  0  0  0  0  0  0  0  0  0
  180.8450  180.0710  137.0120 C   0  0  0  0  0  2  0  0  0  0  0  0
  184.0590  173.5230  135.8020 C   0  0  2  0  0  3  0  0  0  0  0  0
  185.2340  172.7590  137.7300 C   0  0  0  0  0  1  0  0  0  0  0  0
  184.4830  171.3060  136.2060 O   0  0  0  0  0  1  0  0  0  0  0  0
  184.1350  172.4600  136.8220 N   0  0  0  0  0  0  0  0  0  0  0  0
  186.1820  175.7830  134.8230 C   0  0  0  0  0  2  0  0  0  0  0  0
  187.0100  175.2990  135.8400 O   0  0  0  0  0  0  0  0  0  0  0  0
  187.9040  176.2930  136.0550 N   0  0  0  0  0  2  0  0  0  0  0  0
  188.2000  176.2880  137.4760 C   0  0  0  0  0  1  0  0  0  0  0  0
  1  5  1  6  0  0  0
  1 16  1  0  0  0  0
  2 11  1  0  0  0  0
  2 13  1  0  0  0  0
  3 21  1  0  0  0  0
  4  1  1  0  0  0  0
  6  9  1  0  0  0  0
  6 10  1  0  0  0  0
  7 19  1  0  0  0  0
  8 18  2  0  0  0  0
  9  5  1  0  0  0  0
 10  4  1  0  0  0  0
 12 23  1  0  0  0  0
 12  7  1  0  0  0  0
 15 11  1  0  0  0  0
 16 13  1  0  0  0  0
 18 14  1  0  0  0  0
 18 19  1  0  0  0  0
 19  4  1  0  0  0  0
 19 17  1  0  0  0  0
 20 12  1  0  0  0  0
 21 14  2  0  0  0  0
 21 22  1  0  0  0  0
 22 15  1  0  0  0  0
 23 10  1  0  0  0  0
 23 26  1  0  0  0  0
 25 26  1  0  0  0  0
 26 24  1  0  0  0  0
 27  6  1  0  0  0  0
 27 28  1  0  0  0  0
 28 29  1  0  0  0  0
 29 30  1  0  0  0  0
M  END
>  <MODEL>
2

>  <REMARK>
 VINA RESULT:      -4.0      5.784      8.987
  Name = 
  4 active torsions:
  status: ('A' for Active; 'I' for Inactive)
    1  A    between atoms: C_6  and  C_8
    2  A    between atoms: C_6  and  O_21
    3  A    between atoms: N_9  and  O_21
    4  A    between atoms: N_27  and  C_30
                            x       y       z     vdW  Elec       q    Type
                         _______ _______ _______ _____ _____    ______ ____

>  <TORSDO>
F 4

$$$$
=
 OpenBabel10272414013D

 30 32  0  0  1  0  0  0  0  0999 V2000
  184.2870  173.9460  137.3660 C   0  0  1  0  0  3  0  0  0  0  0  0
  181.5310  172.1250  137.4350 C   0  0  0  0  0  2  0  0  0  0  0  0
  180.4940  175.5910  134.3460 C   0  0  0  0  0  1  0  0  0  0  0  0
  185.2280  174.8780  136.5460 C   0  0  2  0  0  3  0  0  0  0  0  0
  183.1500  174.6650  138.1170 C   0  0  0  0  0  2  0  0  0  0  0  0
  184.0700  176.9610  137.5570 C   0  0  2  0  0  3  0  0  0  0  0  0
  185.9600  176.0420  134.3800 C   0  0  0  0  0  2  0  0  0  0  0  0
  183.1940  176.4720  134.4110 O   0  0  0  0  0  0  0  0  0  0  0  0
  182.8400  176.0470  137.5510 C   0  0  0  0  0  2  0  0  0  0  0  0
  185.3970  176.2290  137.2790 C   0  0  2  0  0  3  0  0  0  0  0  0
  180.8060  171.3370  136.3480 C   0  0  0  0  0  2  0  0  0  0  0  0
  185.9560  177.3570  135.1490 C   0  0  2  0  0  3  0  0  0  0  0  0
  183.0020  171.7360  137.5390 C   0  0  0  0  0  2  0  0  0  0  0  0
  182.6280  174.2130  134.6060 N   0  0  0  0  0  0  0  0  0  0  0  0
  181.1050  171.8540  134.9460 C   0  0  0  0  0  2  0  0  0  0  0  0
  183.8690  172.6430  136.6720 C   0  0  0  0  0  2  0  0  0  0  0  0
  185.4330  173.6830  134.3460 C   0  0  0  0  0  1  0  0  0  0  0  0
  183.5720  175.2890  134.6290 C   0  0  0  0  0  0  0  0  0  0  0  0
  185.0140  174.9950  134.9950 C   0  0  1  0  0  0  0  0  0  0  0  0
  186.7260  178.4340  134.4070 C   0  0  0  0  0  1  0  0  0  0  0  0
  181.1980  174.2940  134.5490 C   0  0  0  0  0  0  0  0  0  0  0  0
  180.4720  173.1900  134.7080 C   0  0  0  0  0  2  0  0  0  0  0  0
  186.4210  177.1520  136.6000 C   0  0  2  0  0  3  0  0  0  0  0  0
  188.0080  176.1220  138.0510 C   0  0  0  0  0  1  0  0  0  0  0  0
  188.6720  177.5760  136.4890 O   0  0  0  0  0  1  0  0  0  0  0  0
  187.7780  176.5800  136.6870 N   0  0  0  0  0  0  0  0  0  0  0  0
  184.1520  177.7740  138.8440 C   0  0  0  0  0  2  0  0  0  0  0  0
  184.4740  179.1060  138.5700 O   0  0  0  0  0  0  0  0  0  0  0  0
  184.7710  179.6420  139.7770 N   0  0  0  0  0  2  0  0  0  0  0  0
  185.7540  178.7690  140.3930 C   0  0  0  0  0  1  0  0  0  0  0  0
  1 16  1  6  0  0  0
  1  5  1  0  0  0  0
  2 13  1  0  0  0  0
  3 21  1  0  0  0  0
  4 10  1  0  0  0  0
  4  1  1  0  0  0  0
  6 27  1  0  0  0  0
  7 19  1  0  0  0  0
  7 12  1  0  0  0  0
  8 18  2  0  0  0  0
  9  6  1  0  0  0  0
  9  5  1  0  0  0  0
 10  6  1  0  0  0  0
 11  2  1  0  0  0  0
 12 23  1  0  0  0  0
 14 18  1  0  0  0  0
 15 11  1  0  0  0  0
 16 13  1  0  0  0  0
 17 19  1  0  0  0  0
 18 19  1  0  0  0  0
 19  4  1  0  0  0  0
 20 12  1  0  0  0  0
 21 14  2  0  0  0  0
 21 22  1  0  0  0  0
 22 15  1  0  0  0  0
 23 26  1  0  0  0  0
 23 10  1  0  0  0  0
 25 26  1  0  0  0  0
 26 24  1  0  0  0  0
 28 27  1  0  0  0  0
 28 29  1  0  0  0  0
 29 30  1  0  0  0  0
M  END
>  <MODEL>
3

>  <REMARK>
 VINA RESULT:      -3.7      4.634      6.967
  Name = 
  4 active torsions:
  status: ('A' for Active; 'I' for Inactive)
    1  A    between atoms: C_6  and  C_8
    2  A    between atoms: C_6  and  O_21
    3  A    between atoms: N_9  and  O_21
    4  A    between atoms: N_27  and  C_30
                            x       y       z     vdW  Elec       q    Type
                         _______ _______ _______ _____ _____    ______ ____

>  <TORSDO>
F 4

$$$$
=
 OpenBabel10272414013D

 30 32  0  0  1  0  0  0  0  0999 V2000
  193.2340  176.2240  135.4290 C   0  0  1  0  0  3  0  0  0  0  0  0
  196.5260  176.3920  135.6510 C   0  0  0  0  0  2  0  0  0  0  0  0
  195.3670  173.0680  138.8500 C   0  0  0  0  0  1  0  0  0  0  0  0
  191.9500  175.3510  135.5530 C   0  0  2  0  0  3  0  0  0  0  0  0
  193.6810  176.9150  136.7320 C   0  0  0  0  0  2  0  0  0  0  0  0
  191.5820  176.2090  137.9680 C   0  0  2  0  0  3  0  0  0  0  0  0
  190.7380  173.1180  135.9090 C   0  0  0  0  0  2  0  0  0  0  0  0
  192.6820  173.0950  137.9240 O   0  0  0  0  0  0  0  0  0  0  0  0
  193.1140  176.2540  137.9840 C   0  0  0  0  0  2  0  0  0  0  0  0
  190.9760  175.9930  136.5680 C   0  0  2  0  0  3  0  0  0  0  0  0
  197.6160  175.3540  135.3990 C   0  0  0  0  0  2  0  0  0  0  0  0
  189.9220  173.7960  137.0010 C   0  0  2  0  0  3  0  0  0  0  0  0
  195.5850  176.5340  134.4590 C   0  0  0  0  0  2  0  0  0  0  0  0
  194.4890  173.4380  136.4810 N   0  0  0  0  0  0  0  0  0  0  0  0
  197.1140  173.9230  135.5460 C   0  0  0  0  0  2  0  0  0  0  0  0
  194.3760  175.6150  134.6050 C   0  0  0  0  0  2  0  0  0  0  0  0
  192.5820  173.2380  134.3500 C   0  0  0  0  0  1  0  0  0  0  0  0
  193.0860  173.3970  136.7680 C   0  0  0  0  0  0  0  0  0  0  0  0
  192.1030  173.7940  135.6840 C   0  0  1  0  0  0  0  0  0  0  0  0
  188.6840  172.9900  137.3490 C   0  0  0  0  0  1  0  0  0  0  0  0
  195.5810  173.3630  137.4060 C   0  0  0  0  0  0  0  0  0  0  0  0
  196.8200  173.5910  136.9770 C   0  0  0  0  0  2  0  0  0  0  0  0
  189.6260  175.2610  136.6430 C   0  0  2  0  0  3  0  0  0  0  0  0
  188.9670  176.7840  134.9310 C   0  0  0  0  0  1  0  0  0  0  0  0
  187.5740  175.1780  135.6210 O   0  0  0  0  0  1  0  0  0  0  0  0
  188.8860  175.3990  135.3740 N   0  0  0  0  0  0  0  0  0  0  0  0
  190.9820  177.4390  138.6400 C   0  0  0  0  0  2  0  0  0  0  0  0
  191.2220  177.4190  140.0170 O   0  0  0  0  0  0  0  0  0  0  0  0
  190.2880  176.5740  140.5150 N   0  0  0  0  0  2  0  0  0  0  0  0
  189.0270  177.2920  140.5040 C   0  0  0  0  0  1  0  0  0  0  0  0
  1 16  1  1  0  0  0
  1  4  1  0  0  0  0
  1  5  1  0  0  0  0
  4 19  1  0  0  0  0
  4 10  1  0  0  0  0
  5  9  1  0  0  0  0
  6  9  1  0  0  0  0
  6 27  1  0  0  0  0
  7 12  1  0  0  0  0
 10 23  1  0  0  0  0
 10  6  1  0  0  0  0
 11 15  1  0  0  0  0
 11  2  1  0  0  0  0
 12 20  1  0  0  0  0
 13 16  1  0  0  0  0
 13  2  1  0  0  0  0
 14 18  1  0  0  0  0
 14 21  2  0  0  0  0
 15 22  1  0  0  0  0
 17 19  1  0  0  0  0
 18  8  2  0  0  0  0
 19  7  1  0  0  0  0
 19 18  1  0  0  0  0
 21  3  1  0  0  0  0
 22 21  1  0  0  0  0
 23 12  1  0  0  0  0
 24 26  1  0  0  0  0
 26 25  1  0  0  0  0
 26 23  1  0  0  0  0
 27 28  1  0  0  0  0
 28 29  1  0  0  0  0
 30 29  1  0  0  0  0
M  END
>  <MODEL>
4

>  <REMARK>
 VINA RESULT:      -3.3      1.776      6.127
  Name = 
  4 active torsions:
  status: ('A' for Active; 'I' for Inactive)
    1  A    between atoms: C_6  and  C_8
    2  A    between atoms: C_6  and  O_21
    3  A    between atoms: N_9  and  O_21
    4  A    between atoms: N_27  and  C_30
                            x       y       z     vdW  Elec       q    Type
                         _______ _______ _______ _____ _____    ______ ____

>  <TORSDO>
F 4

$$$$
=
 OpenBabel10272414013D

 30 32  0  0  1  0  0  0  0  0999 V2000
  183.6240  175.4170  135.1840 C   0  0  1  0  0  3  0  0  0  0  0  0
  180.6080  176.6880  135.6300 C   0  0  0  0  0  2  0  0  0  0  0  0
  183.0070  178.1580  139.4650 C   0  0  0  0  0  1  0  0  0  0  0  0
  185.1580  175.5550  135.4200 C   0  0  2  0  0  3  0  0  0  0  0  0
  182.8570  174.6810  136.3000 C   0  0  0  0  0  2  0  0  0  0  0  0
  184.9930  174.0160  137.4950 C   0  0  2  0  0  3  0  0  0  0  0  0
  187.2340  176.8250  136.2330 C   0  0  0  0  0  2  0  0  0  0  0  0
  185.4260  177.1790  138.3410 O   0  0  0  0  0  0  0  0  0  0  0  0
  183.6070  174.6580  137.6270 C   0  0  0  0  0  2  0  0  0  0  0  0
  185.6910  174.3020  136.1520 C   0  0  2  0  0  3  0  0  0  0  0  0
  180.1170  178.1290  135.7440 C   0  0  0  0  0  2  0  0  0  0  0  0
  187.6060  175.5910  137.0420 C   0  0  2  0  0  3  0  0  0  0  0  0
  181.4320  176.4620  134.3680 C   0  0  0  0  0  2  0  0  0  0  0  0
  183.7230  178.0780  137.0150 N   0  0  0  0  0  2  0  0  0  0  0  0
  181.2070  179.0870  136.2100 C   0  0  0  0  0  2  0  0  0  0  0  0
  182.9180  176.6670  134.6420 C   0  0  0  0  0  2  0  0  0  0  0  0
  185.6040  177.9620  134.8550 C   0  0  0  0  0  1  0  0  0  0  0  0
  184.9790  177.4100  137.1840 C   0  0  0  0  0  0  0  0  0  0  0  0
  185.7210  176.9180  135.9570 C   0  0  1  0  0  0  0  0  0  0  0  0
  189.0580  175.6330  137.4800 C   0  0  0  0  0  1  0  0  0  0  0  0
  182.7450  178.3850  138.0170 C   0  0  0  0  0  0  0  0  0  0  0  0
  181.5570  178.8590  137.6490 C   0  0  0  0  0  3  0  0  0  0  0  0
  187.2210  174.3020  136.2970 C   0  0  2  0  0  3  0  0  0  0  0  0
  187.4440  172.9510  134.3460 C   0  0  0  0  0  1  0  0  0  0  0  0
  189.2040  174.0530  135.1730 O   0  0  0  0  0  1  0  0  0  0  0  0
  187.8710  174.1920  134.9780 N   0  0  0  0  0  0  0  0  0  0  0  0
  184.9400  172.5190  137.7780 C   0  0  0  0  0  2  0  0  0  0  0  0
  184.7360  171.7970  136.5980 O   0  0  0  0  0  0  0  0  0  0  0  0
  183.5370  171.1920  136.7690 N   0  0  0  0  0  2  0  0  0  0  0  0
  182.9470  171.0530  135.4500 C   0  0  0  0  0  1  0  0  0  0  0  0
  1 16  1  1  0  0  0
  1  4  1  0  0  0  0
  1  5  1  0  0  0  0
  2 11  1  0  0  0  0
  4 19  1  0  0  0  0
  4 10  1  0  0  0  0
  5  9  1  0  0  0  0
  6  9  1  0  0  0  0
  6 27  1  0  0  0  0
  7 12  1  0  0  0  0
 10 23  1  0  0  0  0
 10  6  1  0  0  0  0
 11 15  1  0  0  0  0
 12 20  1  0  0  0  0
 13 16  1  0  0  0  0
 13  2  1  0  0  0  0
 14 18  1  0  0  0  0
 14 21  1  0  0  0  0
 15 22  1  0  0  0  0
 17 19  1  0  0  0  0
 18  8  2  0  0  0  0
 19  7  1  0  0  0  0
 19 18  1  0  0  0  0
 21  3  1  0  0  0  0
 22 21  2  0  0  0  0
 23 12  1  0  0  0  0
 24 26  1  0  0  0  0
 26 25  1  0  0  0  0
 26 23  1  0  0  0  0
 28 29  1  0  0  0  0
 28 27  1  0  0  0  0
 30 29  1  0  0  0  0
M  END
>  <MODEL>
5

>  <REMARK>
 VINA RESULT:      -3.2      4.728      7.605
  Name = 
  4 active torsions:
  status: ('A' for Active; 'I' for Inactive)
    1  A    between atoms: C_6  and  C_8
    2  A    between atoms: C_6  and  O_21
    3  A    between atoms: N_9  and  O_21
    4  A    between atoms: N_27  and  C_30
                            x       y       z     vdW  Elec       q    Type
                         _______ _______ _______ _____ _____    ______ ____

>  <TORSDO>
F 4

$$$$
=
 OpenBabel10272414013D

 30 32  0  0  1  0  0  0  0  0999 V2000
  194.4800  172.5800  135.2430 C   0  0  1  0  0  3  0  0  0  0  0  0
  191.3600  173.4820  135.8430 C   0  0  0  0  0  2  0  0  0  0  0  0
  193.8470  175.8350  139.1450 C   0  0  0  0  0  1  0  0  0  0  0  0
  195.9910  172.9600  135.2850 C   0  0  2  0  0  3  0  0  0  0  0  0
  193.9370  171.9260  136.5290 C   0  0  0  0  0  2  0  0  0  0  0  0
  196.2470  171.7490  137.5590 C   0  0  2  0  0  3  0  0  0  0  0  0
  197.9160  174.6090  135.6780 C   0  0  0  0  0  2  0  0  0  0  0  0
  196.2740  175.0330  137.9050 O   0  0  0  0  0  0  0  0  0  0  0  0
  194.7990  172.2090  137.7550 C   0  0  0  0  0  2  0  0  0  0  0  0
  196.7700  171.9170  136.1200 C   0  0  2  0  0  3  0  0  0  0  0  0
  190.6700  174.8440  135.8100 C   0  0  0  0  0  2  0  0  0  0  0  0
  198.5420  173.5760  136.6050 C   0  0  2  0  0  3  0  0  0  0  0  0
  192.0910  173.1800  134.5400 C   0  0  0  0  0  2  0  0  0  0  0  0
  194.3430  175.4780  136.6660 N   0  0  0  0  0  2  0  0  0  0  0  0
  191.6410  176.0010  136.0140 C   0  0  0  0  0  2  0  0  0  0  0  0
  193.5480  173.6250  134.6160 C   0  0  0  0  0  2  0  0  0  0  0  0
  196.0170  175.2890  134.3460 C   0  0  0  0  0  1  0  0  0  0  0  0
  195.6950  175.0210  136.7850 C   0  0  0  0  0  0  0  0  0  0  0  0
  196.3890  174.4530  135.5620 C   0  0  1  0  0  0  0  0  0  0  0  0
  200.0050  173.8810  136.8680 C   0  0  0  0  0  1  0  0  0  0  0  0
  193.4230  175.8000  137.7180 C   0  0  0  0  0  0  0  0  0  0  0  0
  192.1490  176.0460  137.4220 C   0  0  0  0  0  3  0  0  0  0  0  0
  198.2900  172.1480  136.0930 C   0  0  2  0  0  3  0  0  0  0  0  0
  198.5600  170.5480  134.3460 C   0  0  0  0  0  1  0  0  0  0  0  0
  200.1770  172.0250  134.7950 O   0  0  0  0  0  1  0  0  0  0  0  0
  198.8280  171.9260  134.7380 N   0  0  0  0  0  0  0  0  0  0  0  0
  196.4470  170.3190  138.0510 C   0  0  0  0  0  2  0  0  0  0  0  0
  195.4320  169.9540  138.9400 O   0  0  0  0  0  0  0  0  0  0  0  0
  195.2070  168.6430  138.6830 N   0  0  0  0  0  2  0  0  0  0  0  0
  194.1750  168.2080  139.6060 C   0  0  0  0  0  1  0  0  0  0  0  0
  1 16  1  1  0  0  0
  1  4  1  0  0  0  0
  1  5  1  0  0  0  0
  4 19  1  0  0  0  0
  4 10  1  0  0  0  0
  5  9  1  0  0  0  0
  6  9  1  0  0  0  0
  6 27  1  0  0  0  0
  7 12  1  0  0  0  0
 10  6  1  0  0  0  0
 11  2  1  0  0  0  0
 11 15  1  0  0  0  0
 12 20  1  0  0  0  0
 13 16  1  0  0  0  0
 13  2  1  0  0  0  0
 14 18  1  0  0  0  0
 14 21  1  0  0  0  0
 15 22  1  0  0  0  0
 17 19  1  0  0  0  0
 18  8  2  0  0  0  0
 19  7  1  0  0  0  0
 19 18  1  0  0  0  0
 21  3  1  0  0  0  0
 22 21  2  0  0  0  0
 23 10  1  0  0  0  0
 23 12  1  0  0  0  0
 24 26  1  0  0  0  0
 26 25  1  0  0  0  0
 26 23  1  0  0  0  0
 27 28  1  0  0  0  0
 29 28  1  0  0  0  0
 29 30  1  0  0  0  0
M  END
>  <MODEL>
6

>  <REMARK>
 VINA RESULT:      -3.1      3.607      6.192
  Name = 
  4 active torsions:
  status: ('A' for Active; 'I' for Inactive)
    1  A    between atoms: C_6  and  C_8
    2  A    between atoms: C_6  and  O_21
    3  A    between atoms: N_9  and  O_21
    4  A    between atoms: N_27  and  C_30
                            x       y       z     vdW  Elec       q    Type
                         _______ _______ _______ _____ _____    ______ ____

>  <TORSDO>
F 4

$$$$
=
 OpenBabel10272414013D

 30 32  0  0  1  0  0  0  0  0999 V2000
  181.8320  176.7530  135.3080 C   0  0  1  0  0  3  0  0  0  0  0  0
  179.9830  179.3880  136.0480 C   0  0  0  0  0  2  0  0  0  0  0  0
  181.2380  177.6820  140.3080 C   0  0  0  0  0  1  0  0  0  0  0  0
  183.0130  175.8190  135.7100 C   0  0  2  0  0  3  0  0  0  0  0  0
  180.4570  176.3420  135.8670 C   0  0  0  0  0  2  0  0  0  0  0  0
  181.3470  174.1480  136.7760 C   0  0  2  0  0  3  0  0  0  0  0  0
  184.9930  175.1630  137.2040 C   0  0  0  0  0  2  0  0  0  0  0  0
  183.0150  175.8490  139.0630 O   0  0  0  0  0  0  0  0  0  0  0  0
  180.5540  175.4240  137.0810 C   0  0  0  0  0  2  0  0  0  0  0  0
  182.5180  174.3560  135.7970 C   0  0  2  0  0  3  0  0  0  0  0  0
  180.3050  180.6800  136.7940 C   0  0  0  0  0  2  0  0  0  0  0  0
  184.3550  173.7890  137.3540 C   0  0  2  0  0  3  0  0  0  0  0  0
  180.9590  179.1270  134.9060 C   0  0  0  0  0  2  0  0  0  0  0  0
  182.6300  177.9820  138.1880 N   0  0  0  0  0  2  0  0  0  0  0  0
  181.4820  180.5300  137.7520 C   0  0  0  0  0  2  0  0  0  0  0  0
  182.1230  178.2580  135.3700 C   0  0  0  0  0  2  0  0  0  0  0  0
  184.8060  177.4360  136.4020 C   0  0  0  0  0  1  0  0  0  0  0  0
  183.2010  176.6700  138.1230 C   0  0  0  0  0  0  0  0  0  0  0  0
  183.9630  176.2600  136.8780 C   0  0  1  0  0  0  0  0  0  0  0  0
  185.3510  172.7710  137.8810 C   0  0  0  0  0  1  0  0  0  0  0  0
  181.6690  178.4820  139.1270 C   0  0  0  0  0  0  0  0  0  0  0  0
  181.1220  179.6790  138.9310 C   0  0  0  0  0  3  0  0  0  0  0  0
  183.6560  173.3560  136.0550 C   0  0  2  0  0  3  0  0  0  0  0  0
  184.5570  171.9580  134.3470 C   0  0  0  0  0  1  0  0  0  0  0  0
  185.8380  173.4840  135.3610 O   0  0  0  0  0  1  0  0  0  0  0  0
  184.5770  173.3040  134.9040 N   0  0  0  0  0  0  0  0  0  0  0  0
  180.4310  173.0240  136.3040 C   0  0  0  0  0  2  0  0  0  0  0  0
  180.3410  172.0180  137.2700 O   0  0  0  0  0  0  0  0  0  0  0  0
  179.9820  170.9110  136.5790 N   0  0  0  0  0  2  0  0  0  0  0  0
  181.0490  170.6470  135.6300 C   0  0  0  0  0  1  0  0  0  0  0  0
  1 16  1  1  0  0  0
  1  4  1  0  0  0  0
  1  5  1  0  0  0  0
  2 11  1  0  0  0  0
  4 10  1  0  0  0  0
  4 19  1  0  0  0  0
  5  9  1  0  0  0  0
  6  9  1  0  0  0  0
  7 12  1  0  0  0  0
 10 23  1  0  0  0  0
 10  6  1  0  0  0  0
 11 15  1  0  0  0  0
 12 20  1  0  0  0  0
 13 16  1  0  0  0  0
 13  2  1  0  0  0  0
 14 21  1  0  0  0  0
 15 22  1  0  0  0  0
 17 19  1  0  0  0  0
 18 14  1  0  0  0  0
 18  8  2  0  0  0  0
 19  7  1  0  0  0  0
 19 18  1  0  0  0  0
 21  3  1  0  0  0  0
 22 21  2  0  0  0  0
 23 12  1  0  0  0  0
 24 26  1  0  0  0  0
 26 25  1  0  0  0  0
 26 23  1  0  0  0  0
 27  6  1  0  0  0  0
 27 28  1  0  0  0  0
 29 28  1  0  0  0  0
 30 29  1  0  0  0  0
M  END
>  <MODEL>
7

>  <REMARK>
 VINA RESULT:      -3.0      6.918      9.994
  Name = 
  4 active torsions:
  status: ('A' for Active; 'I' for Inactive)
    1  A    between atoms: C_6  and  C_8
    2  A    between atoms: C_6  and  O_21
    3  A    between atoms: N_9  and  O_21
    4  A    between atoms: N_27  and  C_30
                            x       y       z     vdW  Elec       q    Type
                         _______ _______ _______ _____ _____    ______ ____

>  <TORSDO>
F 4

$$$$
=
 OpenBabel10272414013D

 30 32  0  0  1  0  0  0  0  0999 V2000
  185.0210  175.8970  135.1950 C   0  0  1  0  0  3  0  0  0  0  0  0
  181.7880  176.4870  135.5290 C   0  0  0  0  0  2  0  0  0  0  0  0
  183.5600  177.5650  139.8100 C   0  0  0  0  0  1  0  0  0  0  0  0
  186.4750  176.2590  135.6200 C   0  0  2  0  0  3  0  0  0  0  0  0
  184.3350  174.8260  136.0650 C   0  0  0  0  0  2  0  0  0  0  0  0
  186.4660  174.3300  137.3470 C   0  0  2  0  0  3  0  0  0  0  0  0
  188.1920  177.6920  136.8770 C   0  0  0  0  0  2  0  0  0  0  0  0
  186.2000  177.2830  138.8010 O   0  0  0  0  0  0  0  0  0  0  0  0
  184.9750  174.6720  137.4410 C   0  0  0  0  0  2  0  0  0  0  0  0
  187.1910  175.0000  136.1650 C   0  0  2  0  0  3  0  0  0  0  0  0
  181.0150  177.7630  135.8500 C   0  0  0  0  0  2  0  0  0  0  0  0
  188.7410  176.4080  137.4830 C   0  0  2  0  0  3  0  0  0  0  0  0
  182.7310  176.6710  134.3460 C   0  0  0  0  0  2  0  0  0  0  0  0
  184.4560  178.1090  137.4820 N   0  0  0  0  0  2  0  0  0  0  0  0
  181.8550  178.7890  136.6020 C   0  0  0  0  0  2  0  0  0  0  0  0
  184.1230  177.0820  134.8160 C   0  0  0  0  0  2  0  0  0  0  0  0
  186.4760  178.7700  135.5580 C   0  0  0  0  0  1  0  0  0  0  0  0
  185.8030  177.6570  137.6640 C   0  0  0  0  0  0  0  0  0  0  0  0
  186.7160  177.5650  136.4570 C   0  0  1  0  0  0  0  0  0  0  0  0
  190.1200  176.6230  138.0790 C   0  0  0  0  0  1  0  0  0  0  0  0
  183.3650  178.0270  138.4080 C   0  0  0  0  0  0  0  0  0  0  0  0
  182.1370  178.3430  138.0040 C   0  0  0  0  0  3  0  0  0  0  0  0
  188.6750  175.2470  136.4770 C   0  0  2  0  0  3  0  0  0  0  0  0
  189.3020  174.3790  134.3470 C   0  0  0  0  0  1  0  0  0  0  0  0
  190.7460  175.5880  135.5520 O   0  0  0  0  0  1  0  0  0  0  0  0
  189.4300  175.5230  135.2400 N   0  0  0  0  0  0  0  0  0  0  0  0
  186.6910  172.8220  137.3440 C   0  0  0  0  0  2  0  0  0  0  0  0
  186.8730  172.3500  136.0410 O   0  0  0  0  0  0  0  0  0  0  0  0
  187.8380  171.4070  136.1500 N   0  0  0  0  0  2  0  0  0  0  0  0
  187.5790  170.4230  135.1140 C   0  0  0  0  0  1  0  0  0  0  0  0
  1 16  1  1  0  0  0
  1  4  1  0  0  0  0
  1  5  1  0  0  0  0
  2 11  1  0  0  0  0
  4 10  1  0  0  0  0
  4 19  1  0  0  0  0
  5  9  1  0  0  0  0
  6  9  1  0  0  0  0
  7 12  1  0  0  0  0
 10 23  1  0  0  0  0
 10  6  1  0  0  0  0
 11 15  1  0  0  0  0
 12 20  1  0  0  0  0
 13 16  1  0  0  0  0
 13  2  1  0  0  0  0
 14 18  1  0  0  0  0
 14 21  1  0  0  0  0
 15 22  1  0  0  0  0
 17 19  1  0  0  0  0
 18  8  2  0  0  0  0
 19  7  1  0  0  0  0
 19 18  1  0  0  0  0
 21  3  1  0  0  0  0
 22 21  2  0  0  0  0
 23 12  1  0  0  0  0
 24 26  1  0  0  0  0
 26 25  1  0  0  0  0
 26 23  1  0  0  0  0
 27  6  1  0  0  0  0
 28 29  1  0  0  0  0
 28 27  1  0  0  0  0
 30 29  1  0  0  0  0
M  END
>  <MODEL>
8

>  <REMARK>
 VINA RESULT:      -2.9      3.965      6.597
  Name = 
  4 active torsions:
  status: ('A' for Active; 'I' for Inactive)
    1  A    between atoms: C_6  and  C_8
    2  A    between atoms: C_6  and  O_21
    3  A    between atoms: N_9  and  O_21
    4  A    between atoms: N_27  and  C_30
                            x       y       z     vdW  Elec       q    Type
                         _______ _______ _______ _____ _____    ______ ____

>  <TORSDO>
F 4

$$$$
=
 OpenBabel10272414013D

 30 32  0  0  1  0  0  0  0  0999 V2000
  185.0510  178.2500  137.4370 C   0  0  1  0  0  3  0  0  0  0  0  0
  187.9470  177.1420  138.5770 C   0  0  0  0  0  2  0  0  0  0  0  0
  185.5430  173.1560  137.6010 C   0  0  0  0  0  1  0  0  0  0  0  0
  183.8300  178.0150  136.4980 C   0  0  2  0  0  3  0  0  0  0  0  0
  184.9130  177.6470  138.8490 C   0  0  0  0  0  2  0  0  0  0  0  0
  182.4860  177.0130  138.4710 C   0  0  2  0  0  3  0  0  0  0  0  0
  182.5730  176.7200  134.6750 C   0  0  0  0  0  2  0  0  0  0  0  0
  183.4930  174.6820  136.3600 O   0  0  0  0  0  0  0  0  0  0  0  0
  183.8710  176.5370  138.9260 C   0  0  0  0  0  2  0  0  0  0  0  0
  182.5220  178.0390  137.3230 C   0  0  2  0  0  3  0  0  0  0  0  0
  189.0390  176.2970  137.9290 C   0  0  0  0  0  2  0  0  0  0  0  0
  181.3770  176.6630  135.6140 C   0  0  2  0  0  3  0  0  0  0  0  0
  187.5930  178.3630  137.7360 C   0  0  0  0  0  2  0  0  0  0  0  0
  185.7400  175.3200  136.2600 N   0  0  0  0  0  2  0  0  0  0  0  0
  188.5170  175.4340  136.7860 C   0  0  0  0  0  2  0  0  0  0  0  0
  186.4320  178.0600  136.7950 C   0  0  0  0  0  2  0  0  0  0  0  0
  184.9010  177.2830  134.3470 C   0  0  0  0  0  1  0  0  0  0  0  0
  184.3460  175.5470  136.0200 C   0  0  0  0  0  0  0  0  0  0  0  0
  183.9090  176.8710  135.4250 C   0  0  1  0  0  0  0  0  0  0  0  0
  180.1050  176.3020  134.8700 C   0  0  0  0  0  1  0  0  0  0  0  0
  186.3430  174.2780  137.0380 C   0  0  0  0  0  0  0  0  0  0  0  0
  187.6490  174.3230  137.2920 C   0  0  0  0  0  3  0  0  0  0  0  0
  181.2630  177.9520  136.4450 C   0  0  2  0  0  3  0  0  0  0  0  0
  180.9080  180.3090  136.4750 C   0  0  0  0  0  1  0  0  0  0  0  0
  179.9900  179.0410  134.8790 O   0  0  0  0  0  1  0  0  0  0  0  0
  181.1250  179.1580  135.6080 N   0  0  0  0  0  0  0  0  0  0  0  0
  181.6640  177.5330  139.6450 C   0  0  0  0  0  2  0  0  0  0  0  0
  181.8020  178.9180  139.7730 O   0  0  0  0  0  0  0  0  0  0  0  0
  181.5210  179.1720  141.0730 N   0  0  0  0  0  2  0  0  0  0  0  0
  182.6400  178.6690  141.8490 C   0  0  0  0  0  1  0  0  0  0  0  0
  1 16  1  6  0  0  0
  1  5  1  0  0  0  0
  4 10  1  0  0  0  0
  4  1  1  0  0  0  0
  5  9  1  0  0  0  0
  6  9  1  0  0  0  0
  6 27  1  0  0  0  0
  7 19  1  0  0  0  0
  7 12  1  0  0  0  0
 10  6  1  0  0  0  0
 11  2  1  0  0  0  0
 12 23  1  0  0  0  0
 13  2  1  0  0  0  0
 14 21  1  0  0  0  0
 15 22  1  0  0  0  0
 15 11  1  0  0  0  0
 16 13  1  0  0  0  0
 17 19  1  0  0  0  0
 18 14  1  0  0  0  0
 18  8  2  0  0  0  0
 19 18  1  0  0  0  0
 19  4  1  0  0  0  0
 20 12  1  0  0  0  0
 21 22  2  0  0  0  0
 21  3  1  0  0  0  0
 23 10  1  0  0  0  0
 25 26  1  0  0  0  0
 26 23  1  0  0  0  0
 26 24  1  0  0  0  0
 27 28  1  0  0  0  0
 28 29  1  0  0  0  0
 29 30  1  0  0  0  0
M  END
>  <MODEL>
9

>  <REMARK>
 VINA RESULT:      -2.9      5.813      9.203
  Name = 
  4 active torsions:
  status: ('A' for Active; 'I' for Inactive)
    1  A    between atoms: C_6  and  C_8
    2  A    between atoms: C_6  and  O_21
    3  A    between atoms: N_9  and  O_21
    4  A    between atoms: N_27  and  C_30
                            x       y       z     vdW  Elec       q    Type
                         _______ _______ _______ _____ _____    ______ ____

>  <TORSDO>
F 4

$$$$
