=
 OpenBabel10272415053D

 37 39  0  0  1  0  0  0  0  0999 V2000
  185.3370  179.2690  141.7980 C   0  0  0  0  0  2  0  0  0  0  0  0
  186.1710  178.1340  142.3810 C   0  0  1  0  0  3  0  0  0  0  0  0
  187.6980  177.5610  137.7750 C   0  0  1  0  0  3  0  0  0  0  0  0
  186.9800  176.3170  137.2510 C   0  0  0  0  0  2  0  0  0  0  0  0
  183.4240  177.2060  138.1220 C   0  0  2  0  0  3  0  0  0  0  0  0
  188.1890  177.1390  140.1980 C   0  0  0  0  0  2  0  0  0  0  0  0
  188.4190  177.5650  143.0280 O   0  0  0  0  0  1  0  0  0  0  0  0
  184.6380  179.2850  138.7350 C   0  0  0  0  0  1  0  0  0  0  0  0
  184.6710  176.3210  138.1200 C   0  0  0  0  0  2  0  0  0  0  0  0
  187.6570  178.4730  142.2890 C   0  0  1  0  0  3  0  0  0  0  0  0
  183.4730  178.3700  139.1400 C   0  0  2  0  0  0  0  0  0  0  0  0
  185.8110  177.9350  143.7150 O   0  0  0  0  0  1  0  0  0  0  0  0
  188.1480  178.5190  140.8420 C   0  0  0  0  0  2  0  0  0  0  0  0
  183.7210  177.8050  140.5490 C   0  0  0  0  0  2  0  0  0  0  0  0
  185.5380  176.6490  136.9230 C   0  0  0  0  0  2  0  0  0  0  0  0
  188.7920  177.2580  138.8060 C   0  0  1  0  0  3  0  0  0  0  0  0
  183.8800  178.8610  141.6400 C   0  0  0  0  0  2  0  0  0  0  0  0
  181.6400  179.2890  137.8070 O   0  0  0  0  0  0  0  0  0  0  0  0
  182.1020  180.4290  138.4950 C   0  0  2  0  0  3  0  0  0  0  0  0
  182.0970  179.0840  139.1230 C   0  0  2  0  0  3  0  0  0  0  0  0
  180.9150  181.2230  138.9940 C   0  0  0  0  0  2  0  0  0  0  0  0
  181.7080  183.6250  137.7040 O   0  0  0  0  0  0  0  0  0  0  0  0
  180.6900  183.0330  137.2590 C   0  0  0  0  0  0  0  0  0  0  0  0
  179.9840  183.5790  136.1530 N   0  0  0  0  0  1  0  0  0  0  0  0
  180.2280  181.8250  137.8640 N   0  0  0  0  0  2  0  0  0  0  0  0
  188.6220  179.5390  136.8620 O   0  0  0  0  0  0  0  0  0  0  0  0
  188.2270  178.4030  136.6510 C   0  0  0  0  0  0  0  0  0  0  0  0
  189.5890  177.9430  134.7870 O   0  0  0  0  0  0  0  0  0  0  0  0
  188.3030  177.8350  135.2710 C   0  0  0  0  0  3  0  0  0  0  0  0
  189.1650  176.7610  135.2560 O   0  0  0  0  0  0  0  0  0  0  0  0
  182.2150  176.4390  138.1800 O   0  0  0  0  0  0  0  0  0  0  0  0
  181.7990  175.5100  137.2160 C   0  0  0  0  0  0  0  0  0  0  0  0
  181.9790  174.2730  137.3730 O   0  0  0  0  0  0  0  0  0  0  0  0
  181.1530  175.9980  135.9710 C   0  0  0  0  0  1  0  0  0  0  0  0
  189.6270  176.0300  138.4540 C   0  0  0  0  0  2  0  0  0  0  0  0
  191.0790  176.3680  138.4550 C   0  0  0  0  0  3  0  0  0  0  0  0
  191.5510  177.0280  139.3650 O   0  0  0  0  0  0  0  0  0  0  0  0
  1  2  1  0  0  0  0
  2 12  1  1  0  0  0
  3 27  1  6  0  0  0
  3 16  1  0  0  0  0
  4  3  1  0  0  0  0
  5 31  1  1  0  0  0
  5 11  1  0  0  0  0
  6 13  1  0  0  0  0
  9  5  1  0  0  0  0
 10  2  1  0  0  0  0
 10  7  1  1  0  0  0
 11  8  1  6  0  0  0
 11 14  1  0  0  0  0
 13 10  1  0  0  0  0
 14 17  1  0  0  0  0
 15  4  1  0  0  0  0
 15  9  1  0  0  0  0
 16 35  1  6  0  0  0
 16  6  1  0  0  0  0
 17  1  1  0  0  0  0
 18 19  1  0  0  0  0
 19 21  1  1  0  0  0
 19 20  1  0  0  0  0
 20 18  1  6  0  0  0
 20 11  1  0  0  0  0
 23 22  2  0  0  0  0
 23 25  1  0  0  0  0
 24 23  1  0  0  0  0
 25 21  1  0  0  0  0
 27 26  2  0  0  0  0
 28 30  1  0  0  0  0
 28 29  1  0  0  0  0
 29 27  1  0  0  0  0
 30 29  1  0  0  0  0
 32 33  2  0  0  0  0
 32 31  1  0  0  0  0
 34 32  1  0  0  0  0
 35 36  1  0  0  0  0
 36 37  2  0  0  0  0
M  END
>  <MODEL>
1

>  <REMARK>
 VINA RESULT:      -5.0      0.000      0.000
  Name = 
  9 active torsions:
  status: ('A' for Active; 'I' for Inactive)
    1  A    between atoms: C_4  and  O_22
    2  A    between atoms: C_6  and  C_19
    3  A    between atoms: C_7  and  C_33
    4  A    between atoms: C_10  and  O_22
    5  A    between atoms: C_16  and  C_30
    6  A    between atoms: C_18  and  C_19
    7  A    between atoms: C_20  and  C_24
    8  A    between atoms: C_30  and  N_32
    9  A    between atoms: C_33  and  C_34
                            x       y       z     vdW  Elec       q    Type
                         _______ _______ _______ _____ _____    ______ ____

>  <TORSDO>
F 9

$$$$
=
 OpenBabel10272415053D

 37 39  0  0  1  0  0  0  0  0999 V2000
  189.9160  177.6890  138.3520 C   0  0  0  0  0  2  0  0  0  0  0  0
  190.4800  177.0000  139.5900 C   0  0  1  0  0  3  0  0  0  0  0  0
  193.4970  174.8490  136.4050 C   0  0  1  0  0  3  0  0  0  0  0  0
  192.9860  173.4160  136.2510 C   0  0  0  0  0  2  0  0  0  0  0  0
  189.3620  174.0990  135.4810 C   0  0  2  0  0  3  0  0  0  0  0  0
  193.1140  175.4960  138.7970 C   0  0  0  0  0  2  0  0  0  0  0  0
  192.3560  177.0390  141.0970 O   0  0  0  0  0  1  0  0  0  0  0  0
  190.3190  176.3920  135.5180 C   0  0  0  0  0  1  0  0  0  0  0  0
  190.5200  173.4600  136.2490 C   0  0  0  0  0  2  0  0  0  0  0  0
  191.9110  177.4690  139.8450 C   0  0  1  0  0  3  0  0  0  0  0  0
  189.0730  175.5680  135.8740 C   0  0  2  0  0  0  0  0  0  0  0  0
  189.6780  177.3030  140.6920 O   0  0  0  0  0  1  0  0  0  0  0  0
  192.8720  176.9990  138.7530 C   0  0  0  0  0  2  0  0  0  0  0  0
  188.8100  175.6480  137.3880 C   0  0  0  0  0  2  0  0  0  0  0  0
  191.7520  173.3970  135.3730 C   0  0  0  0  0  2  0  0  0  0  0  0
  194.1620  175.1300  137.7580 C   0  0  1  0  0  3  0  0  0  0  0  0
  188.5970  177.0620  137.9220 C   0  0  0  0  0  2  0  0  0  0  0  0
  188.0440  177.1780  134.3480 O   0  0  0  0  0  0  0  0  0  0  0  0
  187.2850  177.3610  135.5210 C   0  0  2  0  0  3  0  0  0  0  0  0
  187.7980  176.0270  135.1200 C   0  0  2  0  0  3  0  0  0  0  0  0
  185.8210  177.4690  135.1540 C   0  0  0  0  0  2  0  0  0  0  0  0
  184.4120  175.0730  135.7380 O   0  0  0  0  0  0  0  0  0  0  0  0
  184.3340  176.0140  136.5720 C   0  0  0  0  0  0  0  0  0  0  0  0
  183.5550  175.8490  137.7500 N   0  0  0  0  0  1  0  0  0  0  0  0
  185.0090  177.2500  136.3390 N   0  0  0  0  0  2  0  0  0  0  0  0
  195.1070  174.4030  134.7280 O   0  0  0  0  0  0  0  0  0  0  0  0
  194.3940  175.2370  135.2660 C   0  0  0  0  0  0  0  0  0  0  0  0
  195.2240  177.4220  135.5410 O   0  0  0  0  0  0  0  0  0  0  0  0
  194.3910  176.6440  134.7650 C   0  0  0  0  0  3  0  0  0  0  0  0
  195.6560  176.9930  134.3470 O   0  0  0  0  0  0  0  0  0  0  0  0
  188.1960  173.2660  135.4650 O   0  0  0  0  0  0  0  0  0  0  0  0
  188.0170  172.1100  136.2360 C   0  0  0  0  0  0  0  0  0  0  0  0
  187.7220  172.1720  137.4590 O   0  0  0  0  0  0  0  0  0  0  0  0
  188.2050  170.7800  135.6010 C   0  0  0  0  0  1  0  0  0  0  0  0
  195.0490  173.9860  138.2400 C   0  0  0  0  0  2  0  0  0  0  0  0
  196.3520  174.5100  138.7410 C   0  0  0  0  0  3  0  0  0  0  0  0
  196.4010  175.1040  139.8050 O   0  0  0  0  0  0  0  0  0  0  0  0
  1  2  1  0  0  0  0
  2 10  1  0  0  0  0
  2 12  1  1  0  0  0
  3 27  1  6  0  0  0
  3 16  1  0  0  0  0
  4  3  1  0  0  0  0
  5 31  1  1  0  0  0
  5 11  1  0  0  0  0
  5  9  1  0  0  0  0
 10  7  1  1  0  0  0
 11  8  1  6  0  0  0
 11 14  1  0  0  0  0
 13  6  1  0  0  0  0
 13 10  1  0  0  0  0
 14 17  1  0  0  0  0
 15  9  1  0  0  0  0
 15  4  1  0  0  0  0
 16 35  1  1  0  0  0
 16  6  1  0  0  0  0
 17  1  1  0  0  0  0
 18 19  1  0  0  0  0
 19 21  1  6  0  0  0
 20 18  1  6  0  0  0
 20 19  1  0  0  0  0
 20 11  1  0  0  0  0
 21 25  1  0  0  0  0
 22 23  2  0  0  0  0
 23 24  1  0  0  0  0
 25 23  1  0  0  0  0
 26 27  2  0  0  0  0
 29 27  1  0  0  0  0
 29 28  1  0  0  0  0
 30 29  1  0  0  0  0
 30 28  1  0  0  0  0
 31 32  1  0  0  0  0
 32 33  2  0  0  0  0
 34 32  1  0  0  0  0
 35 36  1  0  0  0  0
 36 37  2  0  0  0  0
M  END
>  <MODEL>
2

>  <REMARK>
 VINA RESULT:      -4.5      4.249      6.725
  Name = 
  9 active torsions:
  status: ('A' for Active; 'I' for Inactive)
    1  A    between atoms: C_4  and  O_22
    2  A    between atoms: C_6  and  C_19
    3  A    between atoms: C_7  and  C_33
    4  A    between atoms: C_10  and  O_22
    5  A    between atoms: C_16  and  C_30
    6  A    between atoms: C_18  and  C_19
    7  A    between atoms: C_20  and  C_24
    8  A    between atoms: C_30  and  N_32
    9  A    between atoms: C_33  and  C_34
                            x       y       z     vdW  Elec       q    Type
                         _______ _______ _______ _____ _____    ______ ____

>  <TORSDO>
F 9

$$$$
=
 OpenBabel10272415053D

 37 39  0  0  1  0  0  0  0  0999 V2000
  185.9790  174.1440  135.6740 C   0  0  0  0  0  2  0  0  0  0  0  0
  185.3490  173.3820  136.8350 C   0  0  1  0  0  3  0  0  0  0  0  0
  182.5100  177.3390  137.2350 C   0  0  1  0  0  3  0  0  0  0  0  0
  183.0280  178.1000  138.4550 C   0  0  0  0  0  2  0  0  0  0  0  0
  186.6890  178.3000  137.5870 C   0  0  2  0  0  3  0  0  0  0  0  0
  182.7620  174.8970  137.7510 C   0  0  0  0  0  2  0  0  0  0  0  0
  183.3930  172.1140  137.4360 O   0  0  0  0  0  1  0  0  0  0  0  0
  185.7310  177.2730  135.5370 C   0  0  0  0  0  1  0  0  0  0  0  0
  185.4910  177.9630  138.4760 C   0  0  0  0  0  2  0  0  0  0  0  0
  183.9060  173.0120  136.4970 C   0  0  1  0  0  3  0  0  0  0  0  0
  186.9560  177.2700  136.4630 C   0  0  2  0  0  0  0  0  0  0  0  0
  186.0900  172.2250  137.0840 O   0  0  0  0  0  1  0  0  0  0  0  0
  183.0060  174.2430  136.3980 C   0  0  0  0  0  2  0  0  0  0  0  0
  187.1360  175.8740  137.0840 C   0  0  0  0  0  2  0  0  0  0  0  0
  184.3090  178.8310  138.1050 C   0  0  0  0  0  2  0  0  0  0  0  0
  181.7720  176.0400  137.5810 C   0  0  1  0  0  3  0  0  0  0  0  0
  187.3190  174.7460  136.0710 C   0  0  0  0  0  2  0  0  0  0  0  0
  188.0330  178.0340  134.4050 O   0  0  0  0  0  0  0  0  0  0  0  0
  188.6560  176.7870  134.6160 C   0  0  2  0  0  3  0  0  0  0  0  0
  188.2700  177.6710  135.7440 C   0  0  2  0  0  3  0  0  0  0  0  0
  190.1400  176.9220  134.3540 C   0  0  0  0  0  2  0  0  0  0  0  0
  191.3640  176.3820  136.8590 O   0  0  0  0  0  0  0  0  0  0  0  0
  191.3930  175.4740  135.9870 C   0  0  0  0  0  0  0  0  0  0  0  0
  192.0310  174.2370  136.2800 N   0  0  0  0  0  1  0  0  0  0  0  0
  190.8060  175.6790  134.7020 N   0  0  0  0  0  2  0  0  0  0  0  0
  181.7650  178.1410  135.1360 O   0  0  0  0  0  0  0  0  0  0  0  0
  181.6760  178.2200  136.3510 C   0  0  0  0  0  0  0  0  0  0  0  0
  181.1540  180.4700  136.8040 O   0  0  0  0  0  0  0  0  0  0  0  0
  180.7050  179.1760  136.9630 C   0  0  0  0  0  3  0  0  0  0  0  0
  180.1930  180.0070  135.9910 O   0  0  0  0  0  0  0  0  0  0  0  0
  187.8540  178.6350  138.3510 O   0  0  0  0  0  0  0  0  0  0  0  0
  188.0930  178.2460  139.6760 C   0  0  0  0  0  0  0  0  0  0  0  0
  187.4970  178.7940  140.6410 O   0  0  0  0  0  0  0  0  0  0  0  0
  189.0890  177.1780  139.9490 C   0  0  0  0  0  1  0  0  0  0  0  0
  180.8600  176.1720  138.7970 C   0  0  0  0  0  2  0  0  0  0  0  0
  180.4680  174.8260  139.3060 C   0  0  0  0  0  3  0  0  0  0  0  0
  179.9960  174.7110  140.4250 O   0  0  0  0  0  0  0  0  0  0  0  0
  1 17  1  0  0  0  0
  1  2  1  0  0  0  0
  2 12  1  6  0  0  0
  3 27  1  1  0  0  0
  3 16  1  0  0  0  0
  3  4  1  0  0  0  0
  5 31  1  1  0  0  0
  5  9  1  0  0  0  0
 10  2  1  0  0  0  0
 10  7  1  1  0  0  0
 11  8  1  6  0  0  0
 11 14  1  0  0  0  0
 11  5  1  0  0  0  0
 13 10  1  0  0  0  0
 13  6  1  0  0  0  0
 15  4  1  0  0  0  0
 15  9  1  0  0  0  0
 16  6  1  0  0  0  0
 16 35  1  1  0  0  0
 17 14  1  0  0  0  0
 18 19  1  0  0  0  0
 19 21  1  6  0  0  0
 19 20  1  0  0  0  0
 20 18  1  6  0  0  0
 20 11  1  0  0  0  0
 21 25  1  0  0  0  0
 23 24  1  0  0  0  0
 23 22  2  0  0  0  0
 25 23  1  0  0  0  0
 26 27  2  0  0  0  0
 27 29  1  0  0  0  0
 28 29  1  0  0  0  0
 30 28  1  0  0  0  0
 30 29  1  0  0  0  0
 31 32  1  0  0  0  0
 32 34  1  0  0  0  0
 32 33  2  0  0  0  0
 35 36  1  0  0  0  0
 36 37  2  0  0  0  0
M  END
>  <MODEL>
3

>  <REMARK>
 VINA RESULT:      -4.5      3.773      8.412
  Name = 
  9 active torsions:
  status: ('A' for Active; 'I' for Inactive)
    1  A    between atoms: C_4  and  O_22
    2  A    between atoms: C_6  and  C_19
    3  A    between atoms: C_7  and  C_33
    4  A    between atoms: C_10  and  O_22
    5  A    between atoms: C_16  and  C_30
    6  A    between atoms: C_18  and  C_19
    7  A    between atoms: C_20  and  C_24
    8  A    between atoms: C_30  and  N_32
    9  A    between atoms: C_33  and  C_34
                            x       y       z     vdW  Elec       q    Type
                         _______ _______ _______ _____ _____    ______ ____

>  <TORSDO>
F 9

$$$$
=
 OpenBabel10272415053D

 37 39  0  0  1  0  0  0  0  0999 V2000
  185.2170  179.0570  141.1320 C   0  0  0  0  0  2  0  0  0  0  0  0
  186.1210  178.0750  141.8700 C   0  0  1  0  0  3  0  0  0  0  0  0
  187.7550  176.9910  137.3950 C   0  0  1  0  0  3  0  0  0  0  0  0
  187.1370  175.6380  137.0430 C   0  0  0  0  0  2  0  0  0  0  0  0
  183.5130  176.3750  137.7640 C   0  0  2  0  0  3  0  0  0  0  0  0
  188.2390  176.9420  139.8560 C   0  0  0  0  0  2  0  0  0  0  0  0
  188.3930  177.7660  142.6020 O   0  0  0  0  0  1  0  0  0  0  0  0
  184.5650  178.6020  138.0920 C   0  0  0  0  0  1  0  0  0  0  0  0
  184.8210  175.5920  137.8900 C   0  0  0  0  0  2  0  0  0  0  0  0
  187.5790  178.5070  141.7400 C   0  0  1  0  0  3  0  0  0  0  0  0
  183.4630  177.6680  138.6130 C   0  0  2  0  0  0  0  0  0  0  0  0
  185.7550  178.0350  143.2170 O   0  0  0  0  0  1  0  0  0  0  0  0
  188.0880  178.3900  140.3040 C   0  0  0  0  0  2  0  0  0  0  0  0
  183.7290  177.3210  140.0870 C   0  0  0  0  0  2  0  0  0  0  0  0
  185.6800  175.8160  136.6650 C   0  0  0  0  0  2  0  0  0  0  0  0
  188.8520  176.9130  138.4640 C   0  0  1  0  0  3  0  0  0  0  0  0
  183.7950  178.5250  141.0230 C   0  0  0  0  0  2  0  0  0  0  0  0
  181.9000  179.0240  137.3100 O   0  0  0  0  0  0  0  0  0  0  0  0
  181.9880  179.7540  138.5120 C   0  0  2  0  0  3  0  0  0  0  0  0
  182.0400  178.2710  138.4900 C   0  0  2  0  0  3  0  0  0  0  0  0
  180.6030  180.2040  138.9230 C   0  0  0  0  0  2  0  0  0  0  0  0
  179.9820  178.6510  141.2180 O   0  0  0  0  0  0  0  0  0  0  0  0
  180.3230  179.8490  141.3990 C   0  0  0  0  0  0  0  0  0  0  0  0
  180.3780  180.3740  142.7190 N   0  0  0  0  0  1  0  0  0  0  0  0
  180.6400  180.6910  140.2910 N   0  0  0  0  0  2  0  0  0  0  0  0
  188.2790  177.1350  135.0910 O   0  0  0  0  0  0  0  0  0  0  0  0
  188.2400  177.7080  136.1690 C   0  0  0  0  0  0  0  0  0  0  0  0
  187.5690  179.9120  136.6500 O   0  0  0  0  0  0  0  0  0  0  0  0
  188.6450  179.1430  136.2610 C   0  0  0  0  0  3  0  0  0  0  0  0
  188.5010  179.5860  137.5570 O   0  0  0  0  0  0  0  0  0  0  0  0
  182.3610  175.5370  137.9200 O   0  0  0  0  0  0  0  0  0  0  0  0
  181.8700  174.6490  136.9540 C   0  0  0  0  0  0  0  0  0  0  0  0
  181.8140  173.4090  137.1670 O   0  0  0  0  0  0  0  0  0  0  0  0
  181.4280  175.1810  135.6390 C   0  0  0  0  0  1  0  0  0  0  0  0
  189.7780  175.7140  138.2890 C   0  0  0  0  0  2  0  0  0  0  0  0
  191.2050  176.1310  138.4170 C   0  0  0  0  0  3  0  0  0  0  0  0
  191.9090  176.2030  137.4240 O   0  0  0  0  0  0  0  0  0  0  0  0
  1  2  1  0  0  0  0
  2 12  1  1  0  0  0
  3 27  1  6  0  0  0
  3 16  1  0  0  0  0
  4  3  1  0  0  0  0
  5  9  1  0  0  0  0
  5 31  1  1  0  0  0
  5 11  1  0  0  0  0
  6 13  1  0  0  0  0
 10  2  1  0  0  0  0
 10  7  1  1  0  0  0
 11  8  1  6  0  0  0
 11 14  1  0  0  0  0
 13 10  1  0  0  0  0
 14 17  1  0  0  0  0
 15  4  1  0  0  0  0
 15  9  1  0  0  0  0
 16 35  1  6  0  0  0
 16  6  1  0  0  0  0
 17  1  1  0  0  0  0
 18 19  1  0  0  0  0
 19 21  1  1  0  0  0
 20 18  1  6  0  0  0
 20 19  1  0  0  0  0
 20 11  1  0  0  0  0
 21 25  1  0  0  0  0
 22 23  2  0  0  0  0
 23 24  1  0  0  0  0
 25 23  1  0  0  0  0
 26 27  2  0  0  0  0
 27 29  1  0  0  0  0
 28 30  1  0  0  0  0
 29 28  1  0  0  0  0
 29 30  1  0  0  0  0
 32 33  2  0  0  0  0
 32 31  1  0  0  0  0
 34 32  1  0  0  0  0
 35 36  1  0  0  0  0
 37 36  2  0  0  0  0
M  END
>  <MODEL>
4

>  <REMARK>
 VINA RESULT:      -4.3      1.556      2.239
  Name = 
  9 active torsions:
  status: ('A' for Active; 'I' for Inactive)
    1  A    between atoms: C_4  and  O_22
    2  A    between atoms: C_6  and  C_19
    3  A    between atoms: C_7  and  C_33
    4  A    between atoms: C_10  and  O_22
    5  A    between atoms: C_16  and  C_30
    6  A    between atoms: C_18  and  C_19
    7  A    between atoms: C_20  and  C_24
    8  A    between atoms: C_30  and  N_32
    9  A    between atoms: C_33  and  C_34
                            x       y       z     vdW  Elec       q    Type
                         _______ _______ _______ _____ _____    ______ ____

>  <TORSDO>
F 9

$$$$
=
 OpenBabel10272415053D

 37 39  0  0  1  0  0  0  0  0999 V2000
  184.9720  179.0620  139.6750 C   0  0  0  0  0  2  0  0  0  0  0  0
  185.9620  178.3720  140.6070 C   0  0  1  0  0  3  0  0  0  0  0  0
  187.2980  175.9530  136.5770 C   0  0  1  0  0  3  0  0  0  0  0  0
  186.7030  174.5520  136.7170 C   0  0  0  0  0  2  0  0  0  0  0  0
  183.1190  175.4420  137.4640 C   0  0  2  0  0  3  0  0  0  0  0  0
  187.9630  176.6850  138.8820 C   0  0  0  0  0  2  0  0  0  0  0  0
  188.2910  178.3310  141.2120 O   0  0  0  0  0  1  0  0  0  0  0  0
  184.1130  177.6700  136.9930 C   0  0  0  0  0  1  0  0  0  0  0  0
  184.4580  174.7510  137.7210 C   0  0  0  0  0  2  0  0  0  0  0  0
  187.3910  178.7550  140.2310 C   0  0  1  0  0  3  0  0  0  0  0  0
  183.0860  176.9350  137.8670 C   0  0  2  0  0  0  0  0  0  0  0  0
  185.6980  178.7530  141.9240 O   0  0  0  0  0  1  0  0  0  0  0  0
  187.7960  178.1980  138.8660 C   0  0  0  0  0  2  0  0  0  0  0  0
  183.4730  177.0710  139.3500 C   0  0  0  0  0  2  0  0  0  0  0  0
  185.2170  174.5880  136.4220 C   0  0  0  0  0  2  0  0  0  0  0  0
  188.4730  176.2260  137.5250 C   0  0  1  0  0  3  0  0  0  0  0  0
  183.5650  178.5090  139.8540 C   0  0  0  0  0  2  0  0  0  0  0  0
  181.1850  177.2490  136.3610 O   0  0  0  0  0  0  0  0  0  0  0  0
  181.4990  178.5770  136.7170 C   0  0  2  0  0  3  0  0  0  0  0  0
  181.6370  177.4540  137.6780 C   0  0  2  0  0  3  0  0  0  0  0  0
  180.2190  179.3310  137.0020 C   0  0  0  0  0  2  0  0  0  0  0  0
  181.0300  181.0870  139.0820 O   0  0  0  0  0  0  0  0  0  0  0  0
  180.8690  181.5780  137.9330 C   0  0  0  0  0  0  0  0  0  0  0  0
  181.0880  182.9670  137.7230 N   0  0  0  0  0  1  0  0  0  0  0  0
  180.4530  180.7560  136.8420 N   0  0  0  0  0  2  0  0  0  0  0  0
  187.8060  175.3480  134.3460 O   0  0  0  0  0  0  0  0  0  0  0  0
  187.6650  176.2540  135.1530 C   0  0  0  0  0  0  0  0  0  0  0  0
  186.6030  178.1920  134.3460 O   0  0  0  0  0  0  0  0  0  0  0  0
  187.8250  177.6720  134.7130 C   0  0  0  0  0  3  0  0  0  0  0  0
  187.1110  178.5030  135.5470 O   0  0  0  0  0  0  0  0  0  0  0  0
  182.0110  174.6840  137.9670 O   0  0  0  0  0  0  0  0  0  0  0  0
  181.2480  173.7750  137.2210 C   0  0  0  0  0  0  0  0  0  0  0  0
  180.4160  173.0060  137.7720 O   0  0  0  0  0  0  0  0  0  0  0  0
  181.4430  173.7010  135.7500 C   0  0  0  0  0  1  0  0  0  0  0  0
  189.4250  175.0420  137.6580 C   0  0  0  0  0  2  0  0  0  0  0  0
  190.7960  175.4200  137.2100 C   0  0  0  0  0  3  0  0  0  0  0  0
  191.2710  176.4920  137.5420 O   0  0  0  0  0  0  0  0  0  0  0  0
  1 17  1  0  0  0  0
  1  2  1  0  0  0  0
  2 12  1  1  0  0  0
  3 27  1  6  0  0  0
  3  4  1  0  0  0  0
  3 16  1  0  0  0  0
  5  9  1  0  0  0  0
  5 11  1  0  0  0  0
  5 31  1  1  0  0  0
 10  2  1  0  0  0  0
 10  7  1  1  0  0  0
 11  8  1  6  0  0  0
 11 14  1  0  0  0  0
 13  6  1  0  0  0  0
 13 10  1  0  0  0  0
 14 17  1  0  0  0  0
 15  4  1  0  0  0  0
 15  9  1  0  0  0  0
 16 35  1  1  0  0  0
 16  6  1  0  0  0  0
 18 19  1  0  0  0  0
 19 21  1  1  0  0  0
 19 20  1  0  0  0  0
 20 18  1  6  0  0  0
 20 11  1  0  0  0  0
 23 22  2  0  0  0  0
 24 23  1  0  0  0  0
 25 21  1  0  0  0  0
 25 23  1  0  0  0  0
 26 27  2  0  0  0  0
 28 29  1  0  0  0  0
 28 30  1  0  0  0  0
 29 27  1  0  0  0  0
 29 30  1  0  0  0  0
 32 33  2  0  0  0  0
 32 31  1  0  0  0  0
 34 32  1  0  0  0  0
 36 37  2  0  0  0  0
 36 35  1  0  0  0  0
M  END
>  <MODEL>
5

>  <REMARK>
 VINA RESULT:      -4.3      1.734      2.204
  Name = 
  9 active torsions:
  status: ('A' for Active; 'I' for Inactive)
    1  A    between atoms: C_4  and  O_22
    2  A    between atoms: C_6  and  C_19
    3  A    between atoms: C_7  and  C_33
    4  A    between atoms: C_10  and  O_22
    5  A    between atoms: C_16  and  C_30
    6  A    between atoms: C_18  and  C_19
    7  A    between atoms: C_20  and  C_24
    8  A    between atoms: C_30  and  N_32
    9  A    between atoms: C_33  and  C_34
                            x       y       z     vdW  Elec       q    Type
                         _______ _______ _______ _____ _____    ______ ____

>  <TORSDO>
F 9

$$$$
=
 OpenBabel10272415053D

 37 39  0  0  1  0  0  0  0  0999 V2000
  192.0050  175.5600  137.8580 C   0  0  0  0  0  2  0  0  0  0  0  0
  192.8260  176.7760  138.2770 C   0  0  1  0  0  3  0  0  0  0  0  0
  189.3180  177.3640  141.6270 C   0  0  1  0  0  3  0  0  0  0  0  0
  188.4630  178.5300  141.1330 C   0  0  0  0  0  2  0  0  0  0  0  0
  187.7490  177.3670  137.6210 C   0  0  2  0  0  3  0  0  0  0  0  0
  191.6850  177.8830  140.9780 C   0  0  0  0  0  2  0  0  0  0  0  0
  194.3520  177.5470  139.9700 O   0  0  0  0  0  1  0  0  0  0  0  0
  188.9490  175.4120  138.5760 C   0  0  0  0  0  1  0  0  0  0  0  0
  188.2380  178.3530  138.6830 C   0  0  0  0  0  2  0  0  0  0  0  0
  193.4090  176.5600  139.6710 C   0  0  1  0  0  3  0  0  0  0  0  0
  188.7530  176.2360  137.2950 C   0  0  2  0  0  0  0  0  0  0  0  0
  193.8550  176.9760  137.3560 O   0  0  0  0  0  1  0  0  0  0  0  0
  192.3260  176.5210  140.7480 C   0  0  0  0  0  2  0  0  0  0  0  0
  190.0940  176.8540  136.8620 C   0  0  0  0  0  2  0  0  0  0  0  0
  187.5600  178.0710  140.0060 C   0  0  0  0  0  2  0  0  0  0  0  0
  190.7030  177.7820  142.1360 C   0  0  1  0  0  3  0  0  0  0  0  0
  191.2050  175.8410  136.5950 C   0  0  0  0  0  2  0  0  0  0  0  0
  187.0950  174.6120  136.5240 O   0  0  0  0  0  0  0  0  0  0  0  0
  188.3060  173.9380  136.2680 C   0  0  2  0  0  3  0  0  0  0  0  0
  188.1810  175.4090  136.1150 C   0  0  2  0  0  3  0  0  0  0  0  0
  188.2300  173.2800  134.9070 C   0  0  0  0  0  2  0  0  0  0  0  0
  186.3280  171.2450  135.4580 O   0  0  0  0  0  0  0  0  0  0  0  0
  187.5290  170.8960  135.3070 C   0  0  0  0  0  0  0  0  0  0  0  0
  187.8830  169.5240  135.4210 N   0  0  0  0  0  1  0  0  0  0  0  0
  188.5400  171.8670  135.0370 N   0  0  0  0  0  2  0  0  0  0  0  0
  188.9780  175.4210  142.9360 O   0  0  0  0  0  0  0  0  0  0  0  0
  188.5880  176.5420  142.6490 C   0  0  0  0  0  0  0  0  0  0  0  0
  187.3700  176.6930  144.6580 O   0  0  0  0  0  0  0  0  0  0  0  0
  187.3960  177.1140  143.3450 C   0  0  0  0  0  3  0  0  0  0  0  0
  187.8050  177.9300  144.3760 O   0  0  0  0  0  0  0  0  0  0  0  0
  187.2300  178.0310  136.4620 O   0  0  0  0  0  0  0  0  0  0  0  0
  186.0150  177.7270  135.8320 C   0  0  0  0  0  0  0  0  0  0  0  0
  185.8740  177.8400  134.5860 O   0  0  0  0  0  0  0  0  0  0  0  0
  184.8620  177.2840  136.6570 C   0  0  0  0  0  1  0  0  0  0  0  0
  190.6790  179.0670  142.9590 C   0  0  0  0  0  2  0  0  0  0  0  0
  191.5820  178.9480  144.1400 C   0  0  0  0  0  3  0  0  0  0  0  0
  191.5920  177.9220  144.7990 O   0  0  0  0  0  0  0  0  0  0  0  0
  1  2  1  0  0  0  0
  2 12  1  6  0  0  0
  2 10  1  0  0  0  0
  3 16  1  0  0  0  0
  3 27  1  1  0  0  0
  4  3  1  0  0  0  0
  5 31  1  6  0  0  0
  5  9  1  0  0  0  0
  6 16  1  0  0  0  0
  9 15  1  0  0  0  0
 10  7  1  1  0  0  0
 10 13  1  0  0  0  0
 11  5  1  0  0  0  0
 11  8  1  1  0  0  0
 13  6  1  0  0  0  0
 14 11  1  0  0  0  0
 15  4  1  0  0  0  0
 16 35  1  6  0  0  0
 17 14  1  0  0  0  0
 17  1  1  0  0  0  0
 19 21  1  6  0  0  0
 19 18  1  0  0  0  0
 20 19  1  0  0  0  0
 20 18  1  1  0  0  0
 20 11  1  0  0  0  0
 21 25  1  0  0  0  0
 23 24  1  0  0  0  0
 23 22  2  0  0  0  0
 25 23  1  0  0  0  0
 27 26  2  0  0  0  0
 27 29  1  0  0  0  0
 29 30  1  0  0  0  0
 29 28  1  0  0  0  0
 30 28  1  0  0  0  0
 32 31  1  0  0  0  0
 32 34  1  0  0  0  0
 33 32  2  0  0  0  0
 35 36  1  0  0  0  0
 36 37  2  0  0  0  0
M  END
>  <MODEL>
6

>  <REMARK>
 VINA RESULT:      -4.1      4.682      8.034
  Name = 
  9 active torsions:
  status: ('A' for Active; 'I' for Inactive)
    1  A    between atoms: C_4  and  O_22
    2  A    between atoms: C_6  and  C_19
    3  A    between atoms: C_7  and  C_33
    4  A    between atoms: C_10  and  O_22
    5  A    between atoms: C_16  and  C_30
    6  A    between atoms: C_18  and  C_19
    7  A    between atoms: C_20  and  C_24
    8  A    between atoms: C_30  and  N_32
    9  A    between atoms: C_33  and  C_34
                            x       y       z     vdW  Elec       q    Type
                         _______ _______ _______ _____ _____    ______ ____

>  <TORSDO>
F 9

$$$$
=
 OpenBabel10272415053D

 37 39  0  0  1  0  0  0  0  0999 V2000
  185.2110  172.8150  137.0020 C   0  0  0  0  0  2  0  0  0  0  0  0
  186.1560  172.3130  135.9160 C   0  0  1  0  0  3  0  0  0  0  0  0
  188.1050  176.7810  136.2520 C   0  0  1  0  0  3  0  0  0  0  0  0
  187.6240  177.5390  135.0150 C   0  0  0  0  0  2  0  0  0  0  0  0
  183.9180  176.9090  135.2710 C   0  0  2  0  0  3  0  0  0  0  0  0
  188.4640  174.4020  135.5440 C   0  0  0  0  0  2  0  0  0  0  0  0
  188.4060  171.5320  135.5680 O   0  0  0  0  0  1  0  0  0  0  0  0
  184.7570  175.9010  137.3810 C   0  0  0  0  0  1  0  0  0  0  0  0
  185.2790  176.9100  134.5750 C   0  0  0  0  0  2  0  0  0  0  0  0
  187.5770  172.2110  136.4650 C   0  0  1  0  0  3  0  0  0  0  0  0
  183.7140  175.7410  136.2660 C   0  0  2  0  0  0  0  0  0  0  0  0
  185.7270  171.0610  135.4730 O   0  0  0  0  0  1  0  0  0  0  0  0
  188.1670  173.5830  136.7920 C   0  0  0  0  0  2  0  0  0  0  0  0
  183.9330  174.4060  135.5350 C   0  0  0  0  0  2  0  0  0  0  0  0
  186.1790  177.9580  135.1930 C   0  0  0  0  0  2  0  0  0  0  0  0
  189.1480  175.6980  135.9500 C   0  0  1  0  0  3  0  0  0  0  0  0
  183.8470  173.1700  136.4280 C   0  0  0  0  0  2  0  0  0  0  0  0
  182.1490  176.5670  137.9540 O   0  0  0  0  0  0  0  0  0  0  0  0
  182.0370  175.1700  138.1090 C   0  0  2  0  0  3  0  0  0  0  0  0
  182.2520  175.7960  136.7800 C   0  0  2  0  0  3  0  0  0  0  0  0
  180.5770  174.8030  138.2630 C   0  0  0  0  0  2  0  0  0  0  0  0
  179.9830  173.3790  135.8780 O   0  0  0  0  0  0  0  0  0  0  0  0
  180.1400  172.7100  136.9340 C   0  0  0  0  0  0  0  0  0  0  0  0
  180.0110  171.2950  136.8960 N   0  0  0  0  0  1  0  0  0  0  0  0
  180.4310  173.3600  138.1710 N   0  0  0  0  0  2  0  0  0  0  0  0
  189.3540  178.6330  137.0380 O   0  0  0  0  0  0  0  0  0  0  0  0
  188.5890  177.7220  137.3170 C   0  0  0  0  0  0  0  0  0  0  0  0
  188.2840  178.7390  139.4170 O   0  0  0  0  0  0  0  0  0  0  0  0
  188.1060  177.5630  138.7220 C   0  0  0  0  0  3  0  0  0  0  0  0
  187.0630  178.4310  138.9570 O   0  0  0  0  0  0  0  0  0  0  0  0
  182.8350  177.0760  134.3480 O   0  0  0  0  0  0  0  0  0  0  0  0
  181.8540  178.0750  134.4230 C   0  0  0  0  0  0  0  0  0  0  0  0
  182.1600  179.2910  134.5420 O   0  0  0  0  0  0  0  0  0  0  0  0
  180.4210  177.6860  134.3870 C   0  0  0  0  0  1  0  0  0  0  0  0
  190.1810  176.1310  134.9140 C   0  0  0  0  0  2  0  0  0  0  0  0
  191.5580  176.0480  135.4820 C   0  0  0  0  0  3  0  0  0  0  0  0
  192.0770  174.9600  135.6660 O   0  0  0  0  0  0  0  0  0  0  0  0
  2 12  1  1  0  0  0
  2 10  1  0  0  0  0
  2  1  1  0  0  0  0
  3 27  1  1  0  0  0
  4 15  1  0  0  0  0
  4  3  1  0  0  0  0
  5 31  1  6  0  0  0
  5 11  1  0  0  0  0
  6 16  1  0  0  0  0
  6 13  1  0  0  0  0
  9 15  1  0  0  0  0
  9  5  1  0  0  0  0
 10  7  1  6  0  0  0
 10 13  1  0  0  0  0
 11 20  1  0  0  0  0
 11  8  1  1  0  0  0
 14 11  1  0  0  0  0
 14 17  1  0  0  0  0
 16 35  1  6  0  0  0
 16  3  1  0  0  0  0
 17  1  1  0  0  0  0
 18 19  1  0  0  0  0
 19 21  1  6  0  0  0
 20 18  1  1  0  0  0
 20 19  1  0  0  0  0
 22 23  2  0  0  0  0
 23 25  1  0  0  0  0
 24 23  1  0  0  0  0
 25 21  1  0  0  0  0
 26 27  2  0  0  0  0
 27 29  1  0  0  0  0
 29 30  1  0  0  0  0
 29 28  1  0  0  0  0
 30 28  1  0  0  0  0
 31 32  1  0  0  0  0
 32 33  2  0  0  0  0
 34 32  1  0  0  0  0
 35 36  1  0  0  0  0
 36 37  2  0  0  0  0
M  END
>  <MODEL>
7

>  <REMARK>
 VINA RESULT:      -4.1      3.842      6.078
  Name = 
  9 active torsions:
  status: ('A' for Active; 'I' for Inactive)
    1  A    between atoms: C_4  and  O_22
    2  A    between atoms: C_6  and  C_19
    3  A    between atoms: C_7  and  C_33
    4  A    between atoms: C_10  and  O_22
    5  A    between atoms: C_16  and  C_30
    6  A    between atoms: C_18  and  C_19
    7  A    between atoms: C_20  and  C_24
    8  A    between atoms: C_30  and  N_32
    9  A    between atoms: C_33  and  C_34
                            x       y       z     vdW  Elec       q    Type
                         _______ _______ _______ _____ _____    ______ ____

>  <TORSDO>
F 9

$$$$
=
 OpenBabel10272415053D

 37 39  0  0  1  0  0  0  0  0999 V2000
  189.2610  177.5930  139.1910 C   0  0  0  0  0  2  0  0  0  0  0  0
  188.6650  176.3550  138.5310 C   0  0  1  0  0  3  0  0  0  0  0  0
  184.3960  178.5880  139.3490 C   0  0  1  0  0  3  0  0  0  0  0  0
  183.7620  177.8530  140.5300 C   0  0  0  0  0  2  0  0  0  0  0  0
  186.6240  177.9700  142.9780 C   0  0  2  0  0  3  0  0  0  0  0  0
  185.6170  176.8620  138.0000 C   0  0  0  0  0  2  0  0  0  0  0  0
  187.6860  175.5840  136.4720 O   0  0  0  0  0  1  0  0  0  0  0  0
  187.4940  179.3520  141.1050 C   0  0  0  0  0  1  0  0  0  0  0  0
  185.5390  177.2860  142.1450 C   0  0  0  0  0  2  0  0  0  0  0  0
  188.0210  176.7300  137.1990 C   0  0  1  0  0  3  0  0  0  0  0  0
  187.9000  178.3350  142.1820 C   0  0  2  0  0  0  0  0  0  0  0  0
  189.6740  175.4130  138.3230 O   0  0  0  0  0  1  0  0  0  0  0  0
  186.7890  177.6150  137.3850 C   0  0  0  0  0  2  0  0  0  0  0  0
  188.4660  177.0690  141.5170 C   0  0  0  0  0  2  0  0  0  0  0  0
  184.4350  178.2700  141.8220 C   0  0  0  0  0  2  0  0  0  0  0  0
  184.4050  177.7790  138.0460 C   0  0  1  0  0  3  0  0  0  0  0  0
  189.6820  177.3080  140.6260 C   0  0  0  0  0  2  0  0  0  0  0  0
  190.2610  178.6880  142.7120 O   0  0  0  0  0  0  0  0  0  0  0  0
  189.8430  177.8620  143.7740 C   0  0  2  0  0  3  0  0  0  0  0  0
  188.9490  178.8870  143.1810 C   0  0  2  0  0  3  0  0  0  0  0  0
  190.4230  178.3860  145.0700 C   0  0  0  0  0  2  0  0  0  0  0  0
  190.2710  176.8680  147.4650 O   0  0  0  0  0  0  0  0  0  0  0  0
  191.3020  176.7350  146.7550 C   0  0  0  0  0  0  0  0  0  0  0  0
  192.3350  175.8510  147.1710 N   0  0  0  0  0  1  0  0  0  0  0  0
  191.4500  177.4730  145.5420 N   0  0  0  0  0  2  0  0  0  0  0  0
  184.4680  180.9000  138.8460 O   0  0  0  0  0  0  0  0  0  0  0  0
  183.7760  179.9400  139.1470 C   0  0  0  0  0  0  0  0  0  0  0  0
  181.8980  181.2840  138.6900 O   0  0  0  0  0  0  0  0  0  0  0  0
  182.2970  180.1030  139.2810 C   0  0  0  0  0  3  0  0  0  0  0  0
  181.7160  180.1290  138.0320 O   0  0  0  0  0  0  0  0  0  0  0  0
  186.8870  177.2750  144.2030 O   0  0  0  0  0  0  0  0  0  0  0  0
  186.5260  177.7230  145.4810 C   0  0  0  0  0  0  0  0  0  0  0  0
  187.1940  177.4090  146.5020 O   0  0  0  0  0  0  0  0  0  0  0  0
  185.3130  178.5670  145.6370 C   0  0  0  0  0  1  0  0  0  0  0  0
  183.1110  177.0040  137.8110 C   0  0  0  0  0  2  0  0  0  0  0  0
  183.3140  175.5520  138.0850 C   0  0  0  0  0  3  0  0  0  0  0  0
  182.7670  174.7180  137.3840 O   0  0  0  0  0  0  0  0  0  0  0  0
  1 17  1  0  0  0  0
  2 12  1  6  0  0  0
  2  1  1  0  0  0  0
  3 27  1  6  0  0  0
  3  4  1  0  0  0  0
  4 15  1  0  0  0  0
  5 31  1  1  0  0  0
  6 16  1  0  0  0  0
  9  5  1  0  0  0  0
 10  7  1  1  0  0  0
 10 13  1  0  0  0  0
 10  2  1  0  0  0  0
 11  8  1  6  0  0  0
 11  5  1  0  0  0  0
 11 20  1  0  0  0  0
 13  6  1  0  0  0  0
 14 11  1  0  0  0  0
 15  9  1  0  0  0  0
 16 35  1  1  0  0  0
 16  3  1  0  0  0  0
 17 14  1  0  0  0  0
 18 19  1  0  0  0  0
 19 21  1  1  0  0  0
 20 18  1  6  0  0  0
 20 19  1  0  0  0  0
 21 25  1  0  0  0  0
 23 24  1  0  0  0  0
 23 22  2  0  0  0  0
 25 23  1  0  0  0  0
 26 27  2  0  0  0  0
 27 29  1  0  0  0  0
 28 29  1  0  0  0  0
 30 28  1  0  0  0  0
 30 29  1  0  0  0  0
 31 32  1  0  0  0  0
 32 34  1  0  0  0  0
 32 33  2  0  0  0  0
 35 36  1  0  0  0  0
 37 36  2  0  0  0  0
M  END
>  <MODEL>
8

>  <REMARK>
 VINA RESULT:      -4.0      4.178      8.515
  Name = 
  9 active torsions:
  status: ('A' for Active; 'I' for Inactive)
    1  A    between atoms: C_4  and  O_22
    2  A    between atoms: C_6  and  C_19
    3  A    between atoms: C_7  and  C_33
    4  A    between atoms: C_10  and  O_22
    5  A    between atoms: C_16  and  C_30
    6  A    between atoms: C_18  and  C_19
    7  A    between atoms: C_20  and  C_24
    8  A    between atoms: C_30  and  N_32
    9  A    between atoms: C_33  and  C_34
                            x       y       z     vdW  Elec       q    Type
                         _______ _______ _______ _____ _____    ______ ____

>  <TORSDO>
F 9

$$$$
=
 OpenBabel10272415053D

 37 39  0  0  1  0  0  0  0  0999 V2000
  184.1830  177.7390  138.5410 C   0  0  0  0  0  2  0  0  0  0  0  0
  182.9610  178.0990  137.7040 C   0  0  1  0  0  3  0  0  0  0  0  0
  183.6100  173.6640  135.7600 C   0  0  1  0  0  3  0  0  0  0  0  0
  184.2120  173.9010  134.3750 C   0  0  0  0  0  2  0  0  0  0  0  0
  187.0830  176.1610  135.2960 C   0  0  2  0  0  3  0  0  0  0  0  0
  181.9970  175.5390  136.1730 C   0  0  0  0  0  2  0  0  0  0  0  0
  180.6010  177.6670  137.5030 O   0  0  0  0  0  1  0  0  0  0  0  0
  186.1830  175.5390  137.5270 C   0  0  0  0  0  1  0  0  0  0  0  0
  185.8200  175.7660  134.5290 C   0  0  0  0  0  2  0  0  0  0  0  0
  181.7850  177.2000  138.0790 C   0  0  1  0  0  3  0  0  0  0  0  0
  186.8190  176.6860  136.7270 C   0  0  2  0  0  0  0  0  0  0  0  0
  182.6260  179.4360  137.9270 O   0  0  0  0  0  1  0  0  0  0  0  0
  182.0260  175.7440  137.6820 C   0  0  0  0  0  2  0  0  0  0  0  0
  185.8470  177.8760  136.6630 C   0  0  0  0  0  2  0  0  0  0  0  0
  185.6790  174.2600  134.5010 C   0  0  0  0  0  2  0  0  0  0  0  0
  182.1310  174.0550  135.8690 C   0  0  1  0  0  3  0  0  0  0  0  0
  185.4340  178.4350  138.0220 C   0  0  0  0  0  2  0  0  0  0  0  0
  188.7870  176.1650  138.0830 O   0  0  0  0  0  0  0  0  0  0  0  0
  188.2110  177.2330  138.8010 C   0  0  2  0  0  3  0  0  0  0  0  0
  188.1670  177.1720  137.3190 C   0  0  2  0  0  3  0  0  0  0  0  0
  189.3020  178.1860  139.2360 C   0  0  0  0  0  2  0  0  0  0  0  0
  190.2460  176.1950  141.0280 O   0  0  0  0  0  0  0  0  0  0  0  0
  189.7940  177.2600  141.5240 C   0  0  0  0  0  0  0  0  0  0  0  0
  189.7670  177.4230  142.9370 N   0  0  0  0  0  1  0  0  0  0  0  0
  189.2940  178.3000  140.6840 N   0  0  0  0  0  2  0  0  0  0  0  0
  184.0850  172.0190  137.3940 O   0  0  0  0  0  0  0  0  0  0  0  0
  183.8360  172.2540  136.2220 C   0  0  0  0  0  0  0  0  0  0  0  0
  184.9750  170.7500  134.8150 O   0  0  0  0  0  0  0  0  0  0  0  0
  183.7220  171.1270  135.2470 C   0  0  0  0  0  3  0  0  0  0  0  0
  184.3560  170.0120  135.7480 O   0  0  0  0  0  0  0  0  0  0  0  0
  187.9460  177.0040  134.5220 O   0  0  0  0  0  0  0  0  0  0  0  0
  189.3350  176.8550  134.4120 C   0  0  0  0  0  0  0  0  0  0  0  0
  190.1010  177.8530  134.3460 O   0  0  0  0  0  0  0  0  0  0  0  0
  189.9150  175.4890  134.3470 C   0  0  0  0  0  1  0  0  0  0  0  0
  181.3130  173.6610  134.6430 C   0  0  0  0  0  2  0  0  0  0  0  0
  180.1880  172.7630  135.0310 C   0  0  0  0  0  3  0  0  0  0  0  0
  180.1660  172.2590  136.1410 O   0  0  0  0  0  0  0  0  0  0  0  0
  2 12  1  1  0  0  0
  2 10  1  0  0  0  0
  2  1  1  0  0  0  0
  3 16  1  0  0  0  0
  3 27  1  6  0  0  0
  4 15  1  0  0  0  0
  4  3  1  0  0  0  0
  5 31  1  6  0  0  0
  5 11  1  0  0  0  0
  6 13  1  0  0  0  0
  9  5  1  0  0  0  0
 10  7  1  6  0  0  0
 11 20  1  0  0  0  0
 11  8  1  1  0  0  0
 13 10  1  0  0  0  0
 14 11  1  0  0  0  0
 14 17  1  0  0  0  0
 15  9  1  0  0  0  0
 16 35  1  6  0  0  0
 16  6  1  0  0  0  0
 17  1  1  0  0  0  0
 18 19  1  0  0  0  0
 19 21  1  6  0  0  0
 20 18  1  1  0  0  0
 20 19  1  0  0  0  0
 21 25  1  0  0  0  0
 22 23  2  0  0  0  0
 23 24  1  0  0  0  0
 25 23  1  0  0  0  0
 27 26  2  0  0  0  0
 28 29  1  0  0  0  0
 28 30  1  0  0  0  0
 29 30  1  0  0  0  0
 29 27  1  0  0  0  0
 32 31  1  0  0  0  0
 33 32  2  0  0  0  0
 34 32  1  0  0  0  0
 35 36  1  0  0  0  0
 36 37  2  0  0  0  0
M  END
>  <MODEL>
9

>  <REMARK>
 VINA RESULT:      -4.0      3.583      8.052
  Name = 
  9 active torsions:
  status: ('A' for Active; 'I' for Inactive)
    1  A    between atoms: C_4  and  O_22
    2  A    between atoms: C_6  and  C_19
    3  A    between atoms: C_7  and  C_33
    4  A    between atoms: C_10  and  O_22
    5  A    between atoms: C_16  and  C_30
    6  A    between atoms: C_18  and  C_19
    7  A    between atoms: C_20  and  C_24
    8  A    between atoms: C_30  and  N_32
    9  A    between atoms: C_33  and  C_34
                            x       y       z     vdW  Elec       q    Type
                         _______ _______ _______ _____ _____    ______ ____

>  <TORSDO>
F 9

$$$$
