=
 OpenBabel10272400443D

 25 27  0  0  1  0  0  0  0  0999 V2000
  183.0980  178.7050  140.7330 C   0  0  1  0  0  3  0  0  0  0  0  0
  181.8790  175.9130  138.3120 S   0  0  0  0  0  0  0  0  0  0  0  0
  182.1380  178.5870  137.4740 C   0  0  0  0  0  3  0  0  0  0  0  0
  182.7380  176.5620  139.7820 C   0  0  0  0  0  2  0  0  0  0  0  0
  181.0410  178.4290  139.8140 C   0  0  1  0  0  0  0  0  0  0  0  0
  180.3280  179.3740  140.7850 C   0  0  0  0  0  1  0  0  0  0  0  0
  182.3270  177.2790  137.2040 C   0  0  0  0  0  0  0  0  0  0  0  0
  183.1120  179.5890  139.4880 C   0  0  0  0  0  2  0  0  0  0  0  0
  180.0330  177.6360  139.2590 O   0  0  0  0  0  1  0  0  0  0  0  0
  181.7980  179.2680  138.7840 C   0  0  1  0  0  3  0  0  0  0  0  0
  182.0770  177.6590  140.5400 N   0  0  2  0  0  0  0  0  0  0  0  0
  184.4600  178.2410  141.2890 C   0  0  1  0  0  3  0  0  0  0  0  0
  185.6630  178.8700  140.5940 C   0  0  0  0  0  1  0  0  0  0  0  0
  184.5290  178.3890  142.7800 C   0  0  0  0  0  0  0  0  0  0  0  0
  184.5720  178.7490  145.5610 C   0  0  0  0  0  3  0  0  0  0  0  0
  185.6560  177.9960  143.5290 C   0  0  0  0  0  0  0  0  0  0  0  0
  185.6700  178.1760  144.9150 C   0  0  0  0  0  3  0  0  0  0  0  0
  183.4550  179.1450  144.8220 C   0  0  0  0  0  3  0  0  0  0  0  0
  186.7330  177.4330  142.9280 F   0  0  0  0  0  0  0  0  0  0  0  0
  183.4350  178.9660  143.4360 C   0  0  0  0  0  3  0  0  0  0  0  0
  182.8370  176.9480  135.8340 C   0  0  1  0  0  3  0  0  0  0  0  0
  182.1990  177.8290  134.7730 C   0  0  0  0  0  1  0  0  0  0  0  0
  184.3290  177.0120  135.7690 C   0  0  0  0  0  0  0  0  0  0  0  0
  185.1020  176.6730  136.8730 O   0  0  0  0  0  1  0  0  0  0  0  0
  184.8910  177.3530  134.6970 O   0  0  0  0  0  0  0  0  0  0  0  0
  1 12  1  6  0  0  0
  2  4  1  0  0  0  0
  5 11  1  0  0  0  0
  5  6  1  1  0  0  0
  7  3  2  0  0  0  0
  7  2  1  0  0  0  0
  8  1  1  0  0  0  0
  9  5  1  0  0  0  0
 10  3  1  6  0  0  0
 10  8  1  0  0  0  0
 10  5  1  0  0  0  0
 11  4  1  6  0  0  0
 11  1  1  0  0  0  0
 12 13  1  6  0  0  0
 12 14  1  0  0  0  0
 14 20  2  0  0  0  0
 14 16  1  0  0  0  0
 16 17  2  0  0  0  0
 17 15  1  0  0  0  0
 18 15  2  0  0  0  0
 19 16  1  0  0  0  0
 20 18  1  0  0  0  0
 21 22  1  6  0  0  0
 21  7  1  0  0  0  0
 23 21  1  0  0  0  0
 23 24  1  0  0  0  0
 25 23  2  0  0  0  0
M  END
>  <MODEL>
1

>  <REMARK>
 VINA RESULT:      -6.2      0.000      0.000
  Name = 
  4 active torsions:
  status: ('A' for Active; 'I' for Inactive)
    1  A    between atoms: C_1  and  C_3
    2  A    between atoms: C_1  and  C_5
    3  A    between atoms: C_2  and  C_21
    4  A    between atoms: C_15  and  C_21
                            x       y       z     vdW  Elec       q    Type
                         _______ _______ _______ _____ _____    ______ ____

>  <TORSDO>
F 4

$$$$
=
 OpenBabel10272400443D

 25 27  0  0  1  0  0  0  0  0999 V2000
  189.1340  177.3160  143.6590 C   0  0  1  0  0  3  0  0  0  0  0  0
  189.2810  178.7840  140.0580 S   0  0  0  0  0  0  0  0  0  0  0  0
  189.8740  176.0830  140.5780 C   0  0  0  0  0  3  0  0  0  0  0  0
  188.7380  178.7310  141.7970 C   0  0  0  0  0  2  0  0  0  0  0  0
  190.9510  177.6460  142.3390 C   0  0  1  0  0  0  0  0  0  0  0  0
  191.9700  177.5220  143.4740 C   0  0  0  0  0  1  0  0  0  0  0  0
  189.2590  176.9900  139.7900 C   0  0  0  0  0  0  0  0  0  0  0  0
  189.3590  175.9700  142.9720 C   0  0  0  0  0  2  0  0  0  0  0  0
  191.6230  178.3040  141.3050 O   0  0  0  0  0  1  0  0  0  0  0  0
  190.4680  176.2440  141.9620 C   0  0  1  0  0  3  0  0  0  0  0  0
  189.7500  178.3640  142.8250 N   0  0  2  0  0  0  0  0  0  0  0  0
  187.7180  177.6100  144.1960 C   0  0  1  0  0  3  0  0  0  0  0  0
  186.6590  176.6130  143.7360 C   0  0  0  0  0  1  0  0  0  0  0  0
  187.7170  177.7870  145.6850 C   0  0  0  0  0  0  0  0  0  0  0  0
  187.7950  178.0300  148.4790 C   0  0  0  0  0  3  0  0  0  0  0  0
  186.6560  178.4090  146.3730 C   0  0  0  0  0  0  0  0  0  0  0  0
  186.7020  178.5290  147.7650 C   0  0  0  0  0  3  0  0  0  0  0  0
  188.8460  177.4090  147.8010 C   0  0  0  0  0  3  0  0  0  0  0  0
  185.5850  178.9040  145.7060 F   0  0  0  0  0  0  0  0  0  0  0  0
  188.8060  177.2880  146.4090 C   0  0  0  0  0  3  0  0  0  0  0  0
  188.6140  176.4620  138.5440 C   0  0  1  0  0  3  0  0  0  0  0  0
  187.7670  177.5220  137.8620 C   0  0  0  0  0  1  0  0  0  0  0  0
  189.6210  175.8810  137.6040 C   0  0  0  0  0  0  0  0  0  0  0  0
  189.8260  174.5080  137.5440 O   0  0  0  0  0  1  0  0  0  0  0  0
  190.2720  176.6410  136.8430 O   0  0  0  0  0  0  0  0  0  0  0  0
  1 12  1  6  0  0  0
  2  4  1  0  0  0  0
  5 11  1  0  0  0  0
  5  6  1  1  0  0  0
  7  2  1  0  0  0  0
  7  3  2  0  0  0  0
  8  1  1  0  0  0  0
  9  5  1  0  0  0  0
 10  3  1  6  0  0  0
 10  5  1  0  0  0  0
 10  8  1  0  0  0  0
 11  4  1  6  0  0  0
 11  1  1  0  0  0  0
 12 13  1  1  0  0  0
 12 14  1  0  0  0  0
 14 16  2  0  0  0  0
 14 20  1  0  0  0  0
 16 17  1  0  0  0  0
 17 15  2  0  0  0  0
 18 15  1  0  0  0  0
 19 16  1  0  0  0  0
 20 18  2  0  0  0  0
 21 22  1  6  0  0  0
 21  7  1  0  0  0  0
 23 21  1  0  0  0  0
 24 23  1  0  0  0  0
 25 23  2  0  0  0  0
M  END
>  <MODEL>
2

>  <REMARK>
 VINA RESULT:      -5.8      5.528      7.107
  Name = 
  4 active torsions:
  status: ('A' for Active; 'I' for Inactive)
    1  A    between atoms: C_1  and  C_3
    2  A    between atoms: C_1  and  C_5
    3  A    between atoms: C_2  and  C_21
    4  A    between atoms: C_15  and  C_21
                            x       y       z     vdW  Elec       q    Type
                         _______ _______ _______ _____ _____    ______ ____

>  <TORSDO>
F 4

$$$$
=
 OpenBabel10272400443D

 25 27  0  0  1  0  0  0  0  0999 V2000
  186.8360  178.0690  142.3900 C   0  0  1  0  0  3  0  0  0  0  0  0
  189.9630  175.8580  143.0850 S   0  0  0  0  0  0  0  0  0  0  0  0
  190.1740  178.6370  142.6940 C   0  0  0  0  0  3  0  0  0  0  0  0
  188.1850  176.2600  143.1210 C   0  0  0  0  0  2  0  0  0  0  0  0
  188.5490  177.5610  140.9900 C   0  0  1  0  0  0  0  0  0  0  0  0
  187.8160  177.9870  139.7160 C   0  0  0  0  0  1  0  0  0  0  0  0
  190.5520  177.5470  143.3930 C   0  0  0  0  0  0  0  0  0  0  0  0
  187.8040  179.2420  142.5270 C   0  0  0  0  0  2  0  0  0  0  0  0
  189.5890  176.7320  140.5620 O   0  0  0  0  0  1  0  0  0  0  0  0
  189.0270  178.8170  141.7210 C   0  0  1  0  0  3  0  0  0  0  0  0
  187.5980  176.9000  141.9130 N   0  0  2  0  0  0  0  0  0  0  0  0
  185.8550  177.8200  143.5540 C   0  0  1  0  0  3  0  0  0  0  0  0
  186.2980  178.4260  144.8820 C   0  0  0  0  0  1  0  0  0  0  0  0
  184.4550  178.2180  143.1920 C   0  0  0  0  0  0  0  0  0  0  0  0
  181.8730  178.9800  142.4030 C   0  0  0  0  0  3  0  0  0  0  0  0
  183.5150  178.6420  144.1530 C   0  0  0  0  0  0  0  0  0  0  0  0
  182.2300  179.0180  143.7530 C   0  0  0  0  0  3  0  0  0  0  0  0
  182.8030  178.5640  141.4470 C   0  0  0  0  0  3  0  0  0  0  0  0
  183.8340  178.6860  145.4700 F   0  0  0  0  0  0  0  0  0  0  0  0
  184.0890  178.1860  141.8410 C   0  0  0  0  0  3  0  0  0  0  0  0
  191.6260  177.7520  144.4190 C   0  0  1  0  0  3  0  0  0  0  0  0
  192.0790  179.2020  144.4690 C   0  0  0  0  0  1  0  0  0  0  0  0
  191.2040  177.2660  145.7670 C   0  0  0  0  0  0  0  0  0  0  0  0
  189.9160  177.4990  146.2340 O   0  0  0  0  0  0  0  0  0  0  0  0
  192.0150  176.6180  146.4770 O   0  0  0  0  0  1  0  0  0  0  0  0
  1  8  1  0  0  0  0
  1 12  1  1  0  0  0
  2  4  1  0  0  0  0
  2  7  1  0  0  0  0
  3  7  2  0  0  0  0
  5  6  1  6  0  0  0
  5 10  1  0  0  0  0
  5 11  1  0  0  0  0
  7 21  1  0  0  0  0
  9  5  1  0  0  0  0
 10  8  1  1  0  0  0
 10  3  1  0  0  0  0
 11  1  1  0  0  0  0
 11  4  1  1  0  0  0
 12 13  1  1  0  0  0
 14 12  1  0  0  0  0
 14 16  1  0  0  0  0
 15 17  1  0  0  0  0
 16 19  1  0  0  0  0
 17 16  2  0  0  0  0
 18 20  1  0  0  0  0
 18 15  2  0  0  0  0
 20 14  2  0  0  0  0
 21 22  1  1  0  0  0
 21 23  1  0  0  0  0
 23 24  2  0  0  0  0
 23 25  1  0  0  0  0
M  END
>  <MODEL>
3

>  <REMARK>
 VINA RESULT:      -5.7      5.039      7.925
  Name = 
  4 active torsions:
  status: ('A' for Active; 'I' for Inactive)
    1  A    between atoms: C_1  and  C_3
    2  A    between atoms: C_1  and  C_5
    3  A    between atoms: C_2  and  C_21
    4  A    between atoms: C_15  and  C_21
                            x       y       z     vdW  Elec       q    Type
                         _______ _______ _______ _____ _____    ______ ____

>  <TORSDO>
F 4

$$$$
=
 OpenBabel10272400443D

 25 27  0  0  1  0  0  0  0  0999 V2000
  190.1650  177.3230  142.4230 C   0  0  1  0  0  3  0  0  0  0  0  0
  187.2430  176.2420  144.7540 S   0  0  0  0  0  0  0  0  0  0  0  0
  188.5340  178.7240  145.0560 C   0  0  0  0  0  3  0  0  0  0  0  0
  188.2330  176.2060  143.2240 C   0  0  0  0  0  2  0  0  0  0  0  0
  190.2340  176.8170  144.6350 C   0  0  1  0  0  0  0  0  0  0  0  0
  191.7530  176.6370  144.6880 C   0  0  0  0  0  1  0  0  0  0  0  0
  187.3770  178.0300  145.0330 C   0  0  0  0  0  0  0  0  0  0  0  0
  190.0490  178.6730  143.1290 C   0  0  0  0  0  2  0  0  0  0  0  0
  189.7410  176.1640  145.7670 O   0  0  0  0  0  1  0  0  0  0  0  0
  189.9210  178.3140  144.6060 C   0  0  1  0  0  3  0  0  0  0  0  0
  189.7130  176.2770  143.3580 N   0  0  2  0  0  0  0  0  0  0  0  0
  189.6330  177.2300  140.9780 C   0  0  1  0  0  3  0  0  0  0  0  0
  188.7660  178.4140  140.5570 C   0  0  0  0  0  1  0  0  0  0  0  0
  190.7350  176.9630  139.9980 C   0  0  0  0  0  0  0  0  0  0  0  0
  192.8660  176.5390  138.2240 C   0  0  0  0  0  3  0  0  0  0  0  0
  190.4960  176.4240  138.7170 C   0  0  0  0  0  0  0  0  0  0  0  0
  191.5640  176.2140  137.8390 C   0  0  0  0  0  3  0  0  0  0  0  0
  193.1070  177.0770  139.4900 C   0  0  0  0  0  3  0  0  0  0  0  0
  189.2420  176.0970  138.3200 F   0  0  0  0  0  0  0  0  0  0  0  0
  192.0440  177.2880  140.3730 C   0  0  0  0  0  3  0  0  0  0  0  0
  186.1350  178.7930  145.3810 C   0  0  1  0  0  3  0  0  0  0  0  0
  185.0110  178.5080  144.3990 C   0  0  0  0  0  1  0  0  0  0  0  0
  185.7050  178.5370  146.7900 C   0  0  0  0  0  0  0  0  0  0  0  0
  186.6410  178.4620  147.8150 O   0  0  0  0  0  1  0  0  0  0  0  0
  184.4820  178.4130  147.0540 O   0  0  0  0  0  0  0  0  0  0  0  0
  1 12  1  6  0  0  0
  1  8  1  0  0  0  0
  1 11  1  0  0  0  0
  2  7  1  0  0  0  0
  4  2  1  0  0  0  0
  5  6  1  6  0  0  0
  5  9  1  0  0  0  0
  7  3  2  0  0  0  0
  7 21  1  0  0  0  0
 10  8  1  6  0  0  0
 10  5  1  0  0  0  0
 10  3  1  0  0  0  0
 11  4  1  1  0  0  0
 11  5  1  0  0  0  0
 12 13  1  6  0  0  0
 14 20  1  0  0  0  0
 14 12  1  0  0  0  0
 15 18  1  0  0  0  0
 16 14  2  0  0  0  0
 17 15  2  0  0  0  0
 17 16  1  0  0  0  0
 18 20  2  0  0  0  0
 19 16  1  0  0  0  0
 21 22  1  6  0  0  0
 21 23  1  0  0  0  0
 23 25  2  0  0  0  0
 23 24  1  0  0  0  0
M  END
>  <MODEL>
4

>  <REMARK>
 VINA RESULT:      -5.4      6.358      9.361
  Name = 
  4 active torsions:
  status: ('A' for Active; 'I' for Inactive)
    1  A    between atoms: C_1  and  C_3
    2  A    between atoms: C_1  and  C_5
    3  A    between atoms: C_2  and  C_21
    4  A    between atoms: C_15  and  C_21
                            x       y       z     vdW  Elec       q    Type
                         _______ _______ _______ _____ _____    ______ ____

>  <TORSDO>
F 4

$$$$
=
 OpenBabel10272400443D

 25 27  0  0  1  0  0  0  0  0999 V2000
  188.6990  177.5810  139.0770 C   0  0  1  0  0  3  0  0  0  0  0  0
  189.4240  174.6700  136.5970 S   0  0  0  0  0  0  0  0  0  0  0  0
  190.4430  177.2600  136.1770 C   0  0  0  0  0  3  0  0  0  0  0  0
  188.9740  175.3900  138.2110 C   0  0  0  0  0  2  0  0  0  0  0  0
  187.9700  177.3280  136.9420 C   0  0  1  0  0  0  0  0  0  0  0  0
  186.8580  178.3730  137.0510 C   0  0  0  0  0  1  0  0  0  0  0  0
  190.6570  175.9270  136.1580 C   0  0  0  0  0  0  0  0  0  0  0  0
  189.7010  178.3670  138.2340 C   0  0  0  0  0  2  0  0  0  0  0  0
  187.6350  176.5400  135.8380 O   0  0  0  0  0  1  0  0  0  0  0  0
  189.3090  178.0520  136.7940 C   0  0  1  0  0  3  0  0  0  0  0  0
  188.0660  176.5690  138.2110 N   0  0  2  0  0  0  0  0  0  0  0  0
  189.1640  177.1000  140.4670 C   0  0  1  0  0  3  0  0  0  0  0  0
  190.5640  177.5700  140.8510 C   0  0  0  0  0  1  0  0  0  0  0  0
  188.1540  177.4160  141.5290 C   0  0  0  0  0  0  0  0  0  0  0  0
  186.2450  178.1100  143.4630 C   0  0  0  0  0  3  0  0  0  0  0  0
  188.1260  176.7490  142.7710 C   0  0  0  0  0  0  0  0  0  0  0  0
  187.1710  177.0990  143.7290 C   0  0  0  0  0  3  0  0  0  0  0  0
  186.2710  178.7760  142.2360 C   0  0  0  0  0  3  0  0  0  0  0  0
  189.0110  175.7620  143.0540 F   0  0  0  0  0  0  0  0  0  0  0  0
  187.2230  178.4300  141.2730 C   0  0  0  0  0  3  0  0  0  0  0  0
  191.9800  175.4720  135.6210 C   0  0  1  0  0  3  0  0  0  0  0  0
  192.3480  176.2130  134.3460 C   0  0  0  0  0  1  0  0  0  0  0  0
  193.0610  175.5820  136.6470 C   0  0  0  0  0  0  0  0  0  0  0  0
  194.0120  176.5920  136.5700 O   0  0  0  0  0  0  0  0  0  0  0  0
  193.0950  174.7660  137.6030 O   0  0  0  0  0  1  0  0  0  0  0  0
  1 12  1  1  0  0  0
  2  4  1  0  0  0  0
  5  6  1  1  0  0  0
  5 11  1  0  0  0  0
  7  3  2  0  0  0  0
  7  2  1  0  0  0  0
  8  1  1  0  0  0  0
  9  5  1  0  0  0  0
 10  3  1  1  0  0  0
 10  5  1  0  0  0  0
 10  8  1  0  0  0  0
 11  4  1  6  0  0  0
 11  1  1  0  0  0  0
 12 13  1  1  0  0  0
 12 14  1  0  0  0  0
 14 16  1  0  0  0  0
 15 17  1  0  0  0  0
 16 19  1  0  0  0  0
 16 17  2  0  0  0  0
 18 15  2  0  0  0  0
 20 14  2  0  0  0  0
 20 18  1  0  0  0  0
 21 22  1  6  0  0  0
 21  7  1  0  0  0  0
 21 23  1  0  0  0  0
 23 25  1  0  0  0  0
 24 23  2  0  0  0  0
M  END
>  <MODEL>
5

>  <REMARK>
 VINA RESULT:      -5.4      5.427      6.875
  Name = 
  4 active torsions:
  status: ('A' for Active; 'I' for Inactive)
    1  A    between atoms: C_1  and  C_3
    2  A    between atoms: C_1  and  C_5
    3  A    between atoms: C_2  and  C_21
    4  A    between atoms: C_15  and  C_21
                            x       y       z     vdW  Elec       q    Type
                         _______ _______ _______ _____ _____    ______ ____

>  <TORSDO>
F 4

$$$$
=
 OpenBabel10272400443D

 25 27  0  0  1  0  0  0  0  0999 V2000
  188.8790  177.5200  138.7870 C   0  0  1  0  0  3  0  0  0  0  0  0
  188.8290  174.5150  136.3140 S   0  0  0  0  0  0  0  0  0  0  0  0
  189.9390  177.0010  135.5990 C   0  0  0  0  0  3  0  0  0  0  0  0
  188.7900  175.2990  137.9590 C   0  0  0  0  0  2  0  0  0  0  0  0
  187.6980  177.2920  136.8620 C   0  0  1  0  0  0  0  0  0  0  0  0
  186.7200  178.4300  137.1640 C   0  0  0  0  0  1  0  0  0  0  0  0
  190.0370  175.6550  135.5830 C   0  0  0  0  0  0  0  0  0  0  0  0
  189.7390  178.2030  137.7250 C   0  0  0  0  0  2  0  0  0  0  0  0
  187.0740  176.5160  135.8810 O   0  0  0  0  0  1  0  0  0  0  0  0
  189.0280  177.8970  136.4110 C   0  0  1  0  0  3  0  0  0  0  0  0
  187.9990  176.5510  138.1080 N   0  0  2  0  0  0  0  0  0  0  0  0
  189.5890  177.0260  140.0640 C   0  0  1  0  0  3  0  0  0  0  0  0
  190.9910  177.5960  140.2560 C   0  0  0  0  0  1  0  0  0  0  0  0
  188.7330  177.2140  141.2810 C   0  0  0  0  0  0  0  0  0  0  0  0
  187.0970  177.6720  143.5140 C   0  0  0  0  0  3  0  0  0  0  0  0
  188.9490  176.5020  142.4780 C   0  0  0  0  0  0  0  0  0  0  0  0
  188.1290  176.7330  143.5850 C   0  0  0  0  0  3  0  0  0  0  0  0
  186.8820  178.3840  142.3310 C   0  0  0  0  0  3  0  0  0  0  0  0
  189.9410  175.5820  142.5740 F   0  0  0  0  0  0  0  0  0  0  0  0
  187.6980  178.1560  141.2200 C   0  0  0  0  0  3  0  0  0  0  0  0
  191.1760  175.0790  134.7960 C   0  0  1  0  0  3  0  0  0  0  0  0
  192.1450  176.1600  134.3460 C   0  0  0  0  0  1  0  0  0  0  0  0
  191.8790  173.9970  135.5510 C   0  0  0  0  0  0  0  0  0  0  0  0
  192.3940  174.2360  136.8190 O   0  0  0  0  0  1  0  0  0  0  0  0
  191.9830  172.8520  135.0430 O   0  0  0  0  0  0  0  0  0  0  0  0
  1 12  1  1  0  0  0
  2  4  1  0  0  0  0
  5  6  1  1  0  0  0
  5 11  1  0  0  0  0
  7  3  2  0  0  0  0
  7  2  1  0  0  0  0
  8  1  1  0  0  0  0
  9  5  1  0  0  0  0
 10  3  1  6  0  0  0
 10  5  1  0  0  0  0
 10  8  1  0  0  0  0
 11  4  1  6  0  0  0
 11  1  1  0  0  0  0
 12 13  1  1  0  0  0
 12 14  1  0  0  0  0
 14 16  1  0  0  0  0
 15 17  1  0  0  0  0
 16 19  1  0  0  0  0
 16 17  2  0  0  0  0
 18 15  2  0  0  0  0
 20 14  2  0  0  0  0
 20 18  1  0  0  0  0
 21 22  1  1  0  0  0
 21 23  1  0  0  0  0
 21  7  1  0  0  0  0
 23 24  1  0  0  0  0
 25 23  2  0  0  0  0
M  END
>  <MODEL>
6

>  <REMARK>
 VINA RESULT:      -5.4      5.273      6.732
  Name = 
  4 active torsions:
  status: ('A' for Active; 'I' for Inactive)
    1  A    between atoms: C_1  and  C_3
    2  A    between atoms: C_1  and  C_5
    3  A    between atoms: C_2  and  C_21
    4  A    between atoms: C_15  and  C_21
                            x       y       z     vdW  Elec       q    Type
                         _______ _______ _______ _____ _____    ______ ____

>  <TORSDO>
F 4

$$$$
=
 OpenBabel10272400443D

 25 27  0  0  1  0  0  0  0  0999 V2000
  189.0660  176.8180  144.2770 C   0  0  1  0  0  3  0  0  0  0  0  0
  191.0780  178.7830  141.5880 S   0  0  0  0  0  0  0  0  0  0  0  0
  190.2100  176.1420  141.1480 C   0  0  0  0  0  3  0  0  0  0  0  0
  190.0010  178.6180  143.0490 C   0  0  0  0  0  2  0  0  0  0  0  0
  191.1760  176.4380  143.5320 C   0  0  1  0  0  0  0  0  0  0  0  0
  191.5750  175.5340  144.7010 C   0  0  0  0  0  1  0  0  0  0  0  0
  190.3690  177.3920  140.6630 C   0  0  0  0  0  0  0  0  0  0  0  0
  188.9040  175.7610  143.1870 C   0  0  0  0  0  2  0  0  0  0  0  0
  192.3800  176.8640  142.9630 O   0  0  0  0  0  1  0  0  0  0  0  0
  190.2950  175.6360  142.5740 C   0  0  1  0  0  3  0  0  0  0  0  0
  190.3250  177.5440  144.0270 N   0  0  2  0  0  0  0  0  0  0  0  0
  187.8330  177.6790  144.6200 C   0  0  1  0  0  3  0  0  0  0  0  0
  186.5320  177.1780  143.9980 C   0  0  0  0  0  1  0  0  0  0  0  0
  187.7040  177.8970  146.0980 C   0  0  0  0  0  0  0  0  0  0  0  0
  187.5270  178.2080  148.8800 C   0  0  0  0  0  3  0  0  0  0  0  0
  186.6840  178.6920  146.6600 C   0  0  0  0  0  0  0  0  0  0  0  0
  186.6040  178.8440  148.0470 C   0  0  0  0  0  3  0  0  0  0  0  0
  188.5360  177.4160  148.3270 C   0  0  0  0  0  3  0  0  0  0  0  0
  185.7770  179.3230  145.8750 F   0  0  0  0  0  0  0  0  0  0  0  0
  188.6220  177.2610  146.9410 C   0  0  0  0  0  3  0  0  0  0  0  0
  190.0360  177.5920  139.2160 C   0  0  1  0  0  3  0  0  0  0  0  0
  189.7420  176.2720  138.5230 C   0  0  0  0  0  1  0  0  0  0  0  0
  188.9140  178.5640  139.0360 C   0  0  0  0  0  0  0  0  0  0  0  0
  187.8210  178.5530  139.8940 O   0  0  0  0  0  1  0  0  0  0  0  0
  188.9720  179.4160  138.1130 O   0  0  0  0  0  0  0  0  0  0  0  0
  1 12  1  6  0  0  0
  2  4  1  0  0  0  0
  5 11  1  0  0  0  0
  5  6  1  1  0  0  0
  7  3  2  0  0  0  0
  7  2  1  0  0  0  0
  8  1  1  0  0  0  0
  9  5  1  0  0  0  0
 10  3  1  6  0  0  0
 10  8  1  0  0  0  0
 10  5  1  0  0  0  0
 11  4  1  6  0  0  0
 11  1  1  0  0  0  0
 12 13  1  1  0  0  0
 12 14  1  0  0  0  0
 14 16  2  0  0  0  0
 14 20  1  0  0  0  0
 16 17  1  0  0  0  0
 17 15  2  0  0  0  0
 18 15  1  0  0  0  0
 19 16  1  0  0  0  0
 20 18  2  0  0  0  0
 21 22  1  1  0  0  0
 21  7  1  0  0  0  0
 23 21  1  0  0  0  0
 23 24  1  0  0  0  0
 25 23  2  0  0  0  0
M  END
>  <MODEL>
7

>  <REMARK>
 VINA RESULT:      -5.3      5.906      7.725
  Name = 
  4 active torsions:
  status: ('A' for Active; 'I' for Inactive)
    1  A    between atoms: C_1  and  C_3
    2  A    between atoms: C_1  and  C_5
    3  A    between atoms: C_2  and  C_21
    4  A    between atoms: C_15  and  C_21
                            x       y       z     vdW  Elec       q    Type
                         _______ _______ _______ _____ _____    ______ ____

>  <TORSDO>
F 4

$$$$
=
 OpenBabel10272400443D

 25 27  0  0  1  0  0  0  0  0999 V2000
  189.2420  177.9880  141.0910 C   0  0  1  0  0  3  0  0  0  0  0  0
  189.1800  175.9040  144.3780 S   0  0  0  0  0  0  0  0  0  0  0  0
  190.0040  178.5950  144.3480 C   0  0  0  0  0  3  0  0  0  0  0  0
  188.6860  176.3070  142.6700 C   0  0  0  0  0  2  0  0  0  0  0  0
  190.9930  177.2790  142.3500 C   0  0  1  0  0  0  0  0  0  0  0  0
  192.0460  177.5120  141.2640 C   0  0  0  0  0  1  0  0  0  0  0  0
  189.2980  177.6200  144.9580 C   0  0  0  0  0  0  0  0  0  0  0  0
  189.5600  179.1690  142.0070 C   0  0  0  0  0  2  0  0  0  0  0  0
  191.5830  176.3950  143.2570 O   0  0  0  0  0  1  0  0  0  0  0  0
  190.6170  178.6290  142.9630 C   0  0  1  0  0  3  0  0  0  0  0  0
  189.7490  176.7620  141.7330 N   0  0  2  0  0  0  0  0  0  0  0  0
  187.8200  177.9140  140.4970 C   0  0  1  0  0  3  0  0  0  0  0  0
  186.8050  178.8120  141.1980 C   0  0  0  0  0  1  0  0  0  0  0  0
  187.8290  178.1260  139.0130 C   0  0  0  0  0  0  0  0  0  0  0  0
  187.9470  178.5830  136.2470 C   0  0  0  0  0  3  0  0  0  0  0  0
  186.6660  178.0120  138.2240 C   0  0  0  0  0  0  0  0  0  0  0  0
  186.7330  178.2390  136.8460 C   0  0  0  0  0  3  0  0  0  0  0  0
  189.1010  178.7020  137.0260 C   0  0  0  0  0  3  0  0  0  0  0  0
  185.4760  177.6760  138.7790 F   0  0  0  0  0  0  0  0  0  0  0  0
  189.0400  178.4750  138.4040 C   0  0  0  0  0  3  0  0  0  0  0  0
  188.6690  177.9740  146.2710 C   0  0  1  0  0  3  0  0  0  0  0  0
  187.1520  177.9420  146.1890 C   0  0  0  0  0  1  0  0  0  0  0  0
  189.1740  177.1060  147.3780 C   0  0  0  0  0  0  0  0  0  0  0  0
  190.5350  176.8710  147.5310 O   0  0  0  0  0  0  0  0  0  0  0  0
  188.3600  176.6040  148.1950 O   0  0  0  0  0  1  0  0  0  0  0  0
  1 12  1  1  0  0  0
  1 11  1  0  0  0  0
  1  8  1  0  0  0  0
  2  7  1  0  0  0  0
  3  7  2  0  0  0  0
  4  2  1  0  0  0  0
  5  6  1  6  0  0  0
  5 10  1  0  0  0  0
  5  9  1  0  0  0  0
  7 21  1  0  0  0  0
 10  8  1  6  0  0  0
 10  3  1  0  0  0  0
 11  5  1  0  0  0  0
 11  4  1  1  0  0  0
 12 13  1  1  0  0  0
 14 12  1  0  0  0  0
 15 17  2  0  0  0  0
 15 18  1  0  0  0  0
 16 19  1  0  0  0  0
 16 14  2  0  0  0  0
 17 16  1  0  0  0  0
 18 20  2  0  0  0  0
 20 14  1  0  0  0  0
 21 22  1  6  0  0  0
 21 23  1  0  0  0  0
 23 24  2  0  0  0  0
 23 25  1  0  0  0  0
M  END
>  <MODEL>
8

>  <REMARK>
 VINA RESULT:      -5.2      5.783      9.359
  Name = 
  4 active torsions:
  status: ('A' for Active; 'I' for Inactive)
    1  A    between atoms: C_1  and  C_3
    2  A    between atoms: C_1  and  C_5
    3  A    between atoms: C_2  and  C_21
    4  A    between atoms: C_15  and  C_21
                            x       y       z     vdW  Elec       q    Type
                         _______ _______ _______ _____ _____    ______ ____

>  <TORSDO>
F 4

$$$$
=
 OpenBabel10272400443D

 25 27  0  0  1  0  0  0  0  0999 V2000
  189.7080  176.6190  138.4620 C   0  0  1  0  0  3  0  0  0  0  0  0
  191.5050  173.8070  136.4620 S   0  0  0  0  0  0  0  0  0  0  0  0
  191.5310  176.4850  135.5970 C   0  0  0  0  0  3  0  0  0  0  0  0
  190.7810  174.5670  137.9520 C   0  0  0  0  0  2  0  0  0  0  0  0
  189.1810  175.7780  136.4210 C   0  0  1  0  0  0  0  0  0  0  0  0
  187.7630  176.3540  136.3960 C   0  0  0  0  0  1  0  0  0  0  0  0
  192.2130  175.3350  135.7860 C   0  0  0  0  0  0  0  0  0  0  0  0
  190.3810  177.5670  137.4710 C   0  0  0  0  0  2  0  0  0  0  0  0
  189.1840  174.7540  135.4700 O   0  0  0  0  0  1  0  0  0  0  0  0
  190.1700  176.9030  136.1150 C   0  0  1  0  0  3  0  0  0  0  0  0
  189.5080  175.3220  137.7920 N   0  0  2  0  0  0  0  0  0  0  0  0
  190.2760  176.5710  139.8960 C   0  0  1  0  0  3  0  0  0  0  0  0
  191.6020  177.3070  140.0640 C   0  0  0  0  0  1  0  0  0  0  0  0
  189.2590  177.0040  140.9090 C   0  0  0  0  0  0  0  0  0  0  0  0
  187.3370  177.9100  142.7400 C   0  0  0  0  0  3  0  0  0  0  0  0
  189.2410  176.5020  142.2270 C   0  0  0  0  0  0  0  0  0  0  0  0
  188.2790  176.9570  143.1330 C   0  0  0  0  0  3  0  0  0  0  0  0
  187.3540  178.4130  141.4370 C   0  0  0  0  0  3  0  0  0  0  0  0
  190.1420  175.5740  142.6330 F   0  0  0  0  0  0  0  0  0  0  0  0
  188.3130  177.9620  140.5260 C   0  0  0  0  0  3  0  0  0  0  0  0
  193.6250  175.3080  135.2860 C   0  0  1  0  0  3  0  0  0  0  0  0
  193.9070  176.4690  134.3460 C   0  0  0  0  0  1  0  0  0  0  0  0
  194.6100  175.2660  136.4100 C   0  0  0  0  0  0  0  0  0  0  0  0
  194.3080  175.8400  137.6390 O   0  0  0  0  0  1  0  0  0  0  0  0
  195.7120  174.6820  136.2500 O   0  0  0  0  0  0  0  0  0  0  0  0
  1 12  1  1  0  0  0
  2  4  1  0  0  0  0
  3  7  2  0  0  0  0
  5  6  1  1  0  0  0
  5 11  1  0  0  0  0
  7  2  1  0  0  0  0
  8  1  1  0  0  0  0
  9  5  1  0  0  0  0
 10  3  1  1  0  0  0
 10  5  1  0  0  0  0
 10  8  1  0  0  0  0
 11  4  1  6  0  0  0
 11  1  1  0  0  0  0
 12 13  1  6  0  0  0
 12 14  1  0  0  0  0
 14 16  1  0  0  0  0
 15 17  1  0  0  0  0
 16 19  1  0  0  0  0
 16 17  2  0  0  0  0
 18 15  2  0  0  0  0
 20 14  2  0  0  0  0
 20 18  1  0  0  0  0
 21 22  1  1  0  0  0
 21  7  1  0  0  0  0
 21 23  1  0  0  0  0
 23 24  1  0  0  0  0
 25 23  2  0  0  0  0
M  END
>  <MODEL>
9

>  <REMARK>
 VINA RESULT:      -5.1      6.706      8.288
  Name = 
  4 active torsions:
  status: ('A' for Active; 'I' for Inactive)
    1  A    between atoms: C_1  and  C_3
    2  A    between atoms: C_1  and  C_5
    3  A    between atoms: C_2  and  C_21
    4  A    between atoms: C_15  and  C_21
                            x       y       z     vdW  Elec       q    Type
                         _______ _______ _______ _____ _____    ______ ____

>  <TORSDO>
F 4

$$$$
