=
 OpenBabel10272401023D

 27 31  0  0  1  0  0  0  0  0999 V2000
  187.8080  176.5220  143.3570 C   0  0  0  0  0  2  0  0  0  0  0  0
  186.4090  178.6740  143.5870 C   0  0  1  0  0  3  0  0  0  0  0  0
  187.1460  179.2810  141.4460 C   0  0  0  0  0  2  0  0  0  0  0  0
  182.3340  178.7070  142.1910 C   0  0  0  0  0  3  0  0  0  0  0  0
  182.5570  177.3580  140.0460 C   0  0  0  0  0  2  0  0  0  0  0  0
  185.2880  179.3670  144.3880 C   0  0  0  0  0  2  0  0  0  0  0  0
  184.5540  178.7880  140.3140 N   0  0  0  0  0  2  0  0  0  0  0  0
  188.8380  177.5410  138.5500 C   0  0  0  0  0  3  0  0  0  0  0  0
  184.0910  177.4240  140.0720 C   0  0  0  0  0  2  0  0  0  0  0  0
  189.6950  176.6480  139.1980 C   0  0  0  0  0  3  0  0  0  0  0  0
  184.7980  179.0070  141.7510 C   0  0  1  0  0  3  0  0  0  0  0  0
  186.8340  177.3360  144.2220 C   0  0  2  0  0  3  0  0  0  0  0  0
  181.8390  178.2670  141.0230 C   0  0  0  0  0  3  0  0  0  0  0  0
  183.7180  178.3730  142.6530 C   0  0  1  0  0  3  0  0  0  0  0  0
  188.9790  177.3550  142.8440 C   0  0  0  0  0  2  0  0  0  0  0  0
  186.1260  178.5100  142.1440 N   0  0  2  0  0  0  0  0  0  0  0  0
  188.0200  178.3920  139.2970 C   0  0  0  0  0  3  0  0  0  0  0  0
  183.9140  178.7480  144.1220 C   0  0  0  0  0  2  0  0  0  0  0  0
  189.7340  176.6060  140.5950 C   0  0  0  0  0  3  0  0  0  0  0  0
  188.9220  177.4590  141.3520 C   0  0  0  0  0  0  0  0  0  0  0  0
  188.0540  178.3600  140.6940 C   0  0  0  0  0  0  0  0  0  0  0  0
  188.3550  177.8280  148.1900 C   0  0  0  0  0  3  0  0  0  0  0  0
  187.3600  177.5060  145.6170 C   0  0  0  0  0  0  0  0  0  0  0  0
  186.5280  177.9020  146.6730 C   0  0  0  0  0  3  0  0  0  0  0  0
  187.0390  178.0520  147.9260 N   0  0  0  0  0  0  0  0  0  0  0  0
  189.2180  177.4350  147.1640 C   0  0  0  0  0  3  0  0  0  0  0  0
  188.7140  177.2760  145.8730 C   0  0  0  0  0  3  0  0  0  0  0  0
  1 12  1  0  0  0  0
  2 12  1  0  0  0  0
  2  6  1  1  0  0  0
  5  9  1  0  0  0  0
  5 13  1  0  0  0  0
  8 10  2  0  0  0  0
  8 17  1  0  0  0  0
  9  7  1  0  0  0  0
 10 19  1  0  0  0  0
 11  7  1  6  0  0  0
 11 16  1  0  0  0  0
 11 14  1  0  0  0  0
 12 23  1  1  0  0  0
 13  4  2  0  0  0  0
 14  4  1  6  0  0  0
 14 18  1  0  0  0  0
 15  1  1  0  0  0  0
 16  3  1  6  0  0  0
 16  2  1  0  0  0  0
 17 21  2  0  0  0  0
 18  6  1  0  0  0  0
 19 20  2  0  0  0  0
 20 15  1  0  0  0  0
 21 20  1  0  0  0  0
 21  3  1  0  0  0  0
 23 27  2  0  0  0  0
 23 24  1  0  0  0  0
 24 25  2  0  0  0  0
 25 22  1  0  0  0  0
 26 22  2  0  0  0  0
 27 26  1  0  0  0  0
M  END
>  <MODEL>
1

>  <REMARK>
 VINA RESULT:      -9.1      0.000      0.000
  Name = 
  1 active torsions:
  status: ('A' for Active; 'I' for Inactive)
    1  A    between atoms: C_9  and  C_15
                            x       y       z     vdW  Elec       q    Type
                         _______ _______ _______ _____ _____    ______ ____

>  <TORSDO>
F 1

$$$$
=
 OpenBabel10272401023D

 27 31  0  0  1  0  0  0  0  0999 V2000
  189.1730  178.4520  145.5910 C   0  0  0  0  0  2  0  0  0  0  0  0
  189.7300  176.4300  144.0940 C   0  0  1  0  0  3  0  0  0  0  0  0
  187.4620  176.3520  143.5030 C   0  0  0  0  0  2  0  0  0  0  0  0
  190.7810  177.0800  139.9670 C   0  0  0  0  0  3  0  0  0  0  0  0
  189.1440  178.9240  139.3460 C   0  0  0  0  0  2  0  0  0  0  0  0
  190.8690  175.6390  143.4180 C   0  0  0  0  0  2  0  0  0  0  0  0
  188.0240  177.3230  140.8600 N   0  0  0  0  0  2  0  0  0  0  0  0
  184.4830  178.6560  143.8110 C   0  0  0  0  0  3  0  0  0  0  0  0
  188.3230  178.7350  140.6290 C   0  0  0  0  0  2  0  0  0  0  0  0
  184.7140  179.2780  145.0400 C   0  0  0  0  0  3  0  0  0  0  0  0
  189.0330  176.7170  141.7470 C   0  0  1  0  0  3  0  0  0  0  0  0
  190.2630  177.5170  145.0470 C   0  0  2  0  0  3  0  0  0  0  0  0
  190.1700  177.8480  139.0520 C   0  0  0  0  0  3  0  0  0  0  0  0
  190.4730  177.1730  141.4290 C   0  0  1  0  0  3  0  0  0  0  0  0
  187.9680  177.6960  146.1410 C   0  0  0  0  0  2  0  0  0  0  0  0
  188.7280  176.9890  143.1600 N   0  0  2  0  0  0  0  0  0  0  0  0
  185.3860  177.7050  143.3280 C   0  0  0  0  0  3  0  0  0  0  0  0
  191.5050  176.4110  142.2600 C   0  0  0  0  0  2  0  0  0  0  0  0
  185.8480  178.9490  145.7880 C   0  0  0  0  0  3  0  0  0  0  0  0
  186.7540  177.9920  145.3170 C   0  0  0  0  0  0  0  0  0  0  0  0
  186.5210  177.3660  144.0710 C   0  0  0  0  0  0  0  0  0  0  0  0
  192.6480  175.8850  148.2000 C   0  0  0  0  0  3  0  0  0  0  0  0
  191.0940  176.9470  146.1590 C   0  0  0  0  0  0  0  0  0  0  0  0
  191.1450  177.5510  147.4230 C   0  0  0  0  0  3  0  0  0  0  0  0
  191.9130  177.0110  148.4070 N   0  0  0  0  0  0  0  0  0  0  0  0
  192.6270  175.2540  146.9540 C   0  0  0  0  0  3  0  0  0  0  0  0
  191.8460  175.7920  145.9300 C   0  0  0  0  0  3  0  0  0  0  0  0
  1 15  1  0  0  0  0
  2  6  1  6  0  0  0
  2 12  1  0  0  0  0
  3 21  1  0  0  0  0
  5  9  1  0  0  0  0
  8 10  1  0  0  0  0
  9  7  1  0  0  0  0
 10 19  2  0  0  0  0
 11  7  1  6  0  0  0
 11 16  1  0  0  0  0
 12  1  1  0  0  0  0
 12 23  1  1  0  0  0
 13  5  1  0  0  0  0
 13  4  2  0  0  0  0
 14  4  1  6  0  0  0
 14 11  1  0  0  0  0
 14 18  1  0  0  0  0
 16  3  1  1  0  0  0
 16  2  1  0  0  0  0
 17  8  2  0  0  0  0
 17 21  1  0  0  0  0
 18  6  1  0  0  0  0
 20 19  1  0  0  0  0
 20 15  1  0  0  0  0
 21 20  2  0  0  0  0
 22 25  1  0  0  0  0
 23 24  1  0  0  0  0
 24 25  2  0  0  0  0
 26 22  2  0  0  0  0
 27 23  2  0  0  0  0
 27 26  1  0  0  0  0
M  END
>  <MODEL>
2

>  <REMARK>
 VINA RESULT:      -9.1      2.209      5.526
  Name = 
  1 active torsions:
  status: ('A' for Active; 'I' for Inactive)
    1  A    between atoms: C_9  and  C_15
                            x       y       z     vdW  Elec       q    Type
                         _______ _______ _______ _____ _____    ______ ____

>  <TORSDO>
F 1

$$$$
=
 OpenBabel10272401023D

 27 31  0  0  1  0  0  0  0  0999 V2000
  187.0050  176.8580  144.4140 C   0  0  0  0  0  2  0  0  0  0  0  0
  187.3120  178.7140  142.6540 C   0  0  1  0  0  3  0  0  0  0  0  0
  189.4980  178.9930  143.4530 C   0  0  0  0  0  2  0  0  0  0  0  0
  188.8650  177.7040  138.7650 C   0  0  0  0  0  3  0  0  0  0  0  0
  190.6510  176.0060  139.3950 C   0  0  0  0  0  2  0  0  0  0  0  0
  186.7330  179.3380  141.3670 C   0  0  0  0  0  2  0  0  0  0  0  0
  190.6110  177.8060  141.0880 N   0  0  0  0  0  2  0  0  0  0  0  0
  191.8660  177.0370  145.6550 C   0  0  0  0  0  3  0  0  0  0  0  0
  190.5710  176.3600  140.8860 C   0  0  0  0  0  2  0  0  0  0  0  0
  191.0010  176.4710  146.5940 C   0  0  0  0  0  3  0  0  0  0  0  0
  189.2470  178.3580  141.1700 C   0  0  1  0  0  3  0  0  0  0  0  0
  186.3830  177.6380  143.2470 C   0  0  2  0  0  3  0  0  0  0  0  0
  189.9290  176.9480  138.4520 C   0  0  0  0  0  3  0  0  0  0  0  0
  188.2780  177.7340  140.1420 C   0  0  1  0  0  3  0  0  0  0  0  0
  187.6330  177.7690  145.4650 C   0  0  0  0  0  2  0  0  0  0  0  0
  188.6950  178.2070  142.5250 N   0  0  2  0  0  0  0  0  0  0  0  0
  191.3610  177.8570  144.6420 C   0  0  0  0  0  3  0  0  0  0  0  0
  186.9190  178.4330  140.1480 C   0  0  0  0  0  2  0  0  0  0  0  0
  189.6290  176.7260  146.5220 C   0  0  0  0  0  3  0  0  0  0  0  0
  189.1130  177.5510  145.5160 C   0  0  0  0  0  0  0  0  0  0  0  0
  189.9890  178.1210  144.5650 C   0  0  0  0  0  0  0  0  0  0  0  0
  182.5320  179.1830  144.2880 C   0  0  0  0  0  3  0  0  0  0  0  0
  185.0350  178.1860  143.6180 C   0  0  0  0  0  0  0  0  0  0  0  0
  184.7500  178.6180  144.9210 C   0  0  0  0  0  3  0  0  0  0  0  0
  183.5160  179.1040  145.2240 N   0  0  0  0  0  0  0  0  0  0  0  0
  182.7750  178.7610  142.9790 C   0  0  0  0  0  3  0  0  0  0  0  0
  184.0340  178.2590  142.6470 C   0  0  0  0  0  3  0  0  0  0  0  0
  1 15  1  0  0  0  0
  2  6  1  6  0  0  0
  2 12  1  0  0  0  0
  3 21  1  0  0  0  0
  5  9  1  0  0  0  0
  8 10  1  0  0  0  0
  9  7  1  0  0  0  0
 11  7  1  1  0  0  0
 11 16  1  0  0  0  0
 12 23  1  1  0  0  0
 12  1  1  0  0  0  0
 13  4  2  0  0  0  0
 13  5  1  0  0  0  0
 14  4  1  6  0  0  0
 14 18  1  0  0  0  0
 14 11  1  0  0  0  0
 15 20  1  0  0  0  0
 16  2  1  0  0  0  0
 16  3  1  1  0  0  0
 17  8  2  0  0  0  0
 18  6  1  0  0  0  0
 19 10  2  0  0  0  0
 20 19  1  0  0  0  0
 21 17  1  0  0  0  0
 21 20  2  0  0  0  0
 22 25  1  0  0  0  0
 23 24  1  0  0  0  0
 24 25  2  0  0  0  0
 26 22  2  0  0  0  0
 27 26  1  0  0  0  0
 27 23  2  0  0  0  0
M  END
>  <MODEL>
3

>  <REMARK>
 VINA RESULT:      -8.4      1.912      5.455
  Name = 
  1 active torsions:
  status: ('A' for Active; 'I' for Inactive)
    1  A    between atoms: C_9  and  C_15
                            x       y       z     vdW  Elec       q    Type
                         _______ _______ _______ _____ _____    ______ ____

>  <TORSDO>
F 1

$$$$
=
 OpenBabel10272401023D

 27 31  0  0  1  0  0  0  0  0999 V2000
  189.7060  175.4350  138.0280 C   0  0  0  0  0  2  0  0  0  0  0  0
  190.8930  177.2750  139.3840 C   0  0  1  0  0  3  0  0  0  0  0  0
  188.9540  178.5730  139.1610 C   0  0  0  0  0  2  0  0  0  0  0  0
  190.4530  177.3600  143.6690 C   0  0  0  0  0  3  0  0  0  0  0  0
  187.9930  176.7580  143.9040 C   0  0  0  0  0  2  0  0  0  0  0  0
  192.0870  177.5840  140.3120 C   0  0  0  0  0  2  0  0  0  0  0  0
  188.2850  178.2150  141.9290 N   0  0  0  0  0  2  0  0  0  0  0  0
  185.3710  177.9660  138.1260 C   0  0  0  0  0  3  0  0  0  0  0  0
  187.7210  176.9540  142.4060 C   0  0  0  0  0  2  0  0  0  0  0  0
  185.5090  176.9990  137.1260 C   0  0  0  0  0  3  0  0  0  0  0  0
  189.6330  178.0050  141.3740 C   0  0  1  0  0  3  0  0  0  0  0  0
  190.9660  175.8520  138.7990 C   0  0  2  0  0  3  0  0  0  0  0  0
  189.3350  177.2550  144.4050 C   0  0  0  0  0  3  0  0  0  0  0  0
  190.4890  177.0290  142.2100 C   0  0  1  0  0  3  0  0  0  0  0  0
  189.2550  176.4880  137.0200 C   0  0  0  0  0  2  0  0  0  0  0  0
  189.5650  177.5350  139.9810 N   0  0  2  0  0  0  0  0  0  0  0  0
  186.5020  178.4680  138.7740 C   0  0  0  0  0  3  0  0  0  0  0  0
  191.9260  176.9520  141.6960 C   0  0  0  0  0  2  0  0  0  0  0  0
  186.7800  176.5360  136.7740 C   0  0  0  0  0  3  0  0  0  0  0  0
  187.9200  177.0380  137.4130 C   0  0  0  0  0  0  0  0  0  0  0  0
  187.7780  178.0130  138.4260 C   0  0  0  0  0  0  0  0  0  0  0  0
  194.4790  175.2120  136.4430 C   0  0  0  0  0  3  0  0  0  0  0  0
  192.2030  175.6340  137.9770 C   0  0  0  0  0  0  0  0  0  0  0  0
  193.0030  176.7040  137.5540 C   0  0  0  0  0  3  0  0  0  0  0  0
  194.1150  176.4720  136.8050 N   0  0  0  0  0  0  0  0  0  0  0  0
  193.7060  174.1180  136.8410 C   0  0  0  0  0  3  0  0  0  0  0  0
  192.5620  174.3350  137.6100 C   0  0  0  0  0  3  0  0  0  0  0  0
  1 12  1  0  0  0  0
  2 16  1  0  0  0  0
  2  6  1  1  0  0  0
  4 13  2  0  0  0  0
  5 13  1  0  0  0  0
  6 18  1  0  0  0  0
  7  9  1  0  0  0  0
  8 17  1  0  0  0  0
  9  5  1  0  0  0  0
 10  8  2  0  0  0  0
 11  7  1  1  0  0  0
 11 14  1  0  0  0  0
 12 23  1  6  0  0  0
 12  2  1  0  0  0  0
 14 18  1  6  0  0  0
 14  4  1  0  0  0  0
 15 20  1  0  0  0  0
 15  1  1  0  0  0  0
 16  3  1  6  0  0  0
 16 11  1  0  0  0  0
 19 10  1  0  0  0  0
 19 20  2  0  0  0  0
 20 21  1  0  0  0  0
 21 17  2  0  0  0  0
 21  3  1  0  0  0  0
 22 25  2  0  0  0  0
 22 26  1  0  0  0  0
 24 23  2  0  0  0  0
 25 24  1  0  0  0  0
 26 27  2  0  0  0  0
 27 23  1  0  0  0  0
M  END
>  <MODEL>
4

>  <REMARK>
 VINA RESULT:      -7.8      3.241      7.443
  Name = 
  1 active torsions:
  status: ('A' for Active; 'I' for Inactive)
    1  A    between atoms: C_9  and  C_15
                            x       y       z     vdW  Elec       q    Type
                         _______ _______ _______ _____ _____    ______ ____

>  <TORSDO>
F 1

$$$$
=
 OpenBabel10272401023D

 27 31  0  0  1  0  0  0  0  0999 V2000
  187.1070  176.8160  143.6550 C   0  0  0  0  0  2  0  0  0  0  0  0
  186.8380  178.7830  142.0130 C   0  0  1  0  0  3  0  0  0  0  0  0
  189.1720  179.0000  142.0230 C   0  0  0  0  0  2  0  0  0  0  0  0
  186.9300  178.0260  137.7730 C   0  0  0  0  0  3  0  0  0  0  0  0
  188.7780  176.2840  137.6430 C   0  0  0  0  0  2  0  0  0  0  0  0
  185.8680  179.4930  141.0460 C   0  0  0  0  0  2  0  0  0  0  0  0
  189.3710  177.9680  139.3520 N   0  0  0  0  0  2  0  0  0  0  0  0
  192.1010  176.8940  143.1490 C   0  0  0  0  0  3  0  0  0  0  0  0
  189.2260  176.5380  139.0890 C   0  0  0  0  0  2  0  0  0  0  0  0
  191.5970  176.2700  144.2930 C   0  0  0  0  0  3  0  0  0  0  0  0
  188.1340  178.5180  139.9330 C   0  0  1  0  0  3  0  0  0  0  0  0
  186.1420  177.6740  142.8240 C   0  0  2  0  0  3  0  0  0  0  0  0
  187.8010  177.2890  137.0660 C   0  0  0  0  0  3  0  0  0  0  0  0
  186.8540  177.9680  139.2670 C   0  0  1  0  0  3  0  0  0  0  0  0
  188.0820  177.6530  144.4770 C   0  0  0  0  0  2  0  0  0  0  0  0
  188.0790  178.2800  141.3840 N   0  0  2  0  0  0  0  0  0  0  0  0
  191.3000  177.7810  142.4250 C   0  0  0  0  0  3  0  0  0  0  0  0
  185.5990  178.6710  139.7840 C   0  0  0  0  0  2  0  0  0  0  0  0
  190.2910  176.5350  144.7150 C   0  0  0  0  0  3  0  0  0  0  0  0
  189.4830  177.4260  144.0010 C   0  0  0  0  0  0  0  0  0  0  0  0
  189.9930  178.0540  142.8420 C   0  0  0  0  0  0  0  0  0  0  0  0
  182.9270  179.1630  145.2210 C   0  0  0  0  0  3  0  0  0  0  0  0
  185.0190  178.2020  143.6700 C   0  0  0  0  0  0  0  0  0  0  0  0
  185.1920  178.4780  145.0330 C   0  0  0  0  0  3  0  0  0  0  0  0
  184.1520  178.9500  145.7720 N   0  0  0  0  0  0  0  0  0  0  0  0
  182.7120  178.8980  143.8660 C   0  0  0  0  0  3  0  0  0  0  0  0
  183.7660  178.4130  143.0910 C   0  0  0  0  0  3  0  0  0  0  0  0
  1 15  1  0  0  0  0
  2  6  1  6  0  0  0
  2 12  1  0  0  0  0
  3 21  1  0  0  0  0
  5  9  1  0  0  0  0
  8 10  1  0  0  0  0
  9  7  1  0  0  0  0
 10 19  2  0  0  0  0
 11  7  1  6  0  0  0
 11 16  1  0  0  0  0
 12  1  1  0  0  0  0
 12 23  1  1  0  0  0
 13  5  1  0  0  0  0
 13  4  2  0  0  0  0
 14  4  1  6  0  0  0
 14 18  1  0  0  0  0
 14 11  1  0  0  0  0
 16  2  1  0  0  0  0
 16  3  1  1  0  0  0
 17 21  1  0  0  0  0
 17  8  2  0  0  0  0
 18  6  1  0  0  0  0
 20 15  1  0  0  0  0
 20 19  1  0  0  0  0
 21 20  2  0  0  0  0
 22 25  1  0  0  0  0
 23 24  1  0  0  0  0
 24 25  2  0  0  0  0
 26 22  2  0  0  0  0
 27 23  2  0  0  0  0
 27 26  1  0  0  0  0
M  END
>  <MODEL>
5

>  <REMARK>
 VINA RESULT:      -7.8      1.988      4.525
  Name = 
  1 active torsions:
  status: ('A' for Active; 'I' for Inactive)
    1  A    between atoms: C_9  and  C_15
                            x       y       z     vdW  Elec       q    Type
                         _______ _______ _______ _____ _____    ______ ____

>  <TORSDO>
F 1

$$$$
=
 OpenBabel10272401023D

 27 31  0  0  1  0  0  0  0  0999 V2000
  189.2010  176.2010  142.3850 C   0  0  0  0  0  2  0  0  0  0  0  0
  187.9650  178.3300  143.1460 C   0  0  1  0  0  3  0  0  0  0  0  0
  188.3400  179.2110  141.0060 C   0  0  0  0  0  2  0  0  0  0  0  0
  183.7130  178.6420  142.5270 C   0  0  0  0  0  3  0  0  0  0  0  0
  183.4930  177.5970  140.2190 C   0  0  0  0  0  2  0  0  0  0  0  0
  187.0350  178.9310  144.2210 C   0  0  0  0  0  2  0  0  0  0  0  0
  185.5690  178.9340  140.3070 N   0  0  0  0  0  2  0  0  0  0  0  0
  189.4130  177.8490  137.6480 C   0  0  0  0  0  3  0  0  0  0  0  0
  185.0080  177.6260  139.9750 C   0  0  0  0  0  2  0  0  0  0  0  0
  190.3290  176.8580  138.0080 C   0  0  0  0  0  3  0  0  0  0  0  0
  186.0730  178.9470  141.6920 C   0  0  1  0  0  3  0  0  0  0  0  0
  188.4340  176.9090  143.5120 C   0  0  2  0  0  3  0  0  0  0  0  0
  183.0000  178.3780  141.4200 C   0  0  0  0  0  3  0  0  0  0  0  0
  185.1400  178.2180  142.6830 C   0  0  1  0  0  3  0  0  0  0  0  0
  190.3000  177.0710  141.7830 C   0  0  0  0  0  2  0  0  0  0  0  0
  187.4250  178.3720  141.7700 N   0  0  2  0  0  0  0  0  0  0  0  0
  188.7790  178.6070  138.6360 C   0  0  0  0  0  3  0  0  0  0  0  0
  185.6090  178.3830  144.1280 C   0  0  0  0  0  2  0  0  0  0  0  0
  190.6110  176.6230  139.3560 C   0  0  0  0  0  3  0  0  0  0  0  0
  189.9860  177.3810  140.3530 C   0  0  0  0  0  0  0  0  0  0  0  0
  189.0580  178.3820  139.9880 C   0  0  0  0  0  0  0  0  0  0  0  0
  190.6480  176.8230  147.1710 C   0  0  0  0  0  3  0  0  0  0  0  0
  189.2050  176.8740  144.7990 C   0  0  0  0  0  0  0  0  0  0  0  0
  188.5580  176.8270  146.0420 C   0  0  0  0  0  3  0  0  0  0  0  0
  189.2880  176.8010  147.1900 N   0  0  0  0  0  0  0  0  0  0  0  0
  191.3300  176.8730  145.9530 C   0  0  0  0  0  3  0  0  0  0  0  0
  190.6010  176.9000  144.7630 C   0  0  0  0  0  3  0  0  0  0  0  0
  1 12  1  0  0  0  0
  2 12  1  0  0  0  0
  2  6  1  1  0  0  0
  5 13  1  0  0  0  0
  8 10  2  0  0  0  0
  8 17  1  0  0  0  0
  9  5  1  0  0  0  0
  9  7  1  0  0  0  0
 10 19  1  0  0  0  0
 11  7  1  6  0  0  0
 11 16  1  0  0  0  0
 11 14  1  0  0  0  0
 12 23  1  1  0  0  0
 13  4  2  0  0  0  0
 14  4  1  1  0  0  0
 14 18  1  0  0  0  0
 15  1  1  0  0  0  0
 16  3  1  6  0  0  0
 16  2  1  0  0  0  0
 17 21  2  0  0  0  0
 18  6  1  0  0  0  0
 19 20  2  0  0  0  0
 20 15  1  0  0  0  0
 21 20  1  0  0  0  0
 21  3  1  0  0  0  0
 22 25  1  0  0  0  0
 23 24  1  0  0  0  0
 24 25  2  0  0  0  0
 26 22  2  0  0  0  0
 27 23  2  0  0  0  0
 27 26  1  0  0  0  0
M  END
>  <MODEL>
6

>  <REMARK>
 VINA RESULT:      -7.6      1.338      1.696
  Name = 
  1 active torsions:
  status: ('A' for Active; 'I' for Inactive)
    1  A    between atoms: C_9  and  C_15
                            x       y       z     vdW  Elec       q    Type
                         _______ _______ _______ _____ _____    ______ ____

>  <TORSDO>
F 1

$$$$
=
 OpenBabel10272401023D

 27 31  0  0  1  0  0  0  0  0999 V2000
  189.2340  176.2510  141.2050 C   0  0  0  0  0  2  0  0  0  0  0  0
  188.0350  178.5300  141.1330 C   0  0  1  0  0  3  0  0  0  0  0  0
  188.8850  178.8130  138.9660 C   0  0  0  0  0  2  0  0  0  0  0  0
  184.0210  178.7580  139.5850 C   0  0  0  0  0  3  0  0  0  0  0  0
  184.1790  177.1510  137.6200 C   0  0  0  0  0  2  0  0  0  0  0  0
  186.9590  179.4100  141.8040 C   0  0  0  0  0  2  0  0  0  0  0  0
  186.2910  178.4210  137.7990 N   0  0  0  0  0  2  0  0  0  0  0  0
  190.4900  176.6000  136.3570 C   0  0  0  0  0  3  0  0  0  0  0  0
  185.7110  177.0840  137.6970 C   0  0  0  0  0  2  0  0  0  0  0  0
  191.2420  175.7180  137.1370 C   0  0  0  0  0  3  0  0  0  0  0  0
  186.5140  178.7850  139.2100 C   0  0  1  0  0  3  0  0  0  0  0  0
  188.3160  177.2440  141.9330 C   0  0  2  0  0  3  0  0  0  0  0  0
  183.5200  178.2290  138.4570 C   0  0  0  0  0  3  0  0  0  0  0  0
  185.3540  178.3600  140.1360 C   0  0  1  0  0  3  0  0  0  0  0  0
  190.4920  176.9100  140.6460 C   0  0  0  0  0  2  0  0  0  0  0  0
  187.7780  178.2230  139.7090 N   0  0  2  0  0  0  0  0  0  0  0  0
  189.7320  177.6020  136.9690 C   0  0  0  0  0  3  0  0  0  0  0  0
  185.5430  178.8860  141.5580 C   0  0  0  0  0  2  0  0  0  0  0  0
  191.2370  175.8380  138.5290 C   0  0  0  0  0  3  0  0  0  0  0  0
  190.4870  176.8420  139.1510 C   0  0  0  0  0  0  0  0  0  0  0  0
  189.7240  177.7330  138.3610 C   0  0  0  0  0  0  0  0  0  0  0  0
  189.7330  178.0360  145.8910 C   0  0  0  0  0  3  0  0  0  0  0  0
  188.8160  177.5300  143.3190 C   0  0  0  0  0  0  0  0  0  0  0  0
  189.9860  178.2700  143.5410 C   0  0  0  0  0  3  0  0  0  0  0  0
  190.4140  178.5060  144.8100 N   0  0  0  0  0  0  0  0  0  0  0  0
  188.5640  177.2920  145.7120 C   0  0  0  0  0  3  0  0  0  0  0  0
  188.1080  177.0390  144.4180 C   0  0  0  0  0  3  0  0  0  0  0  0
  1 12  1  0  0  0  0
  2  6  1  1  0  0  0
  2 12  1  0  0  0  0
  5  9  1  0  0  0  0
  5 13  1  0  0  0  0
  8 17  2  0  0  0  0
  8 10  1  0  0  0  0
  9  7  1  0  0  0  0
 10 19  2  0  0  0  0
 11  7  1  6  0  0  0
 11 16  1  0  0  0  0
 11 14  1  0  0  0  0
 12 23  1  1  0  0  0
 13  4  2  0  0  0  0
 14  4  1  6  0  0  0
 14 18  1  0  0  0  0
 15  1  1  0  0  0  0
 16  3  1  6  0  0  0
 16  2  1  0  0  0  0
 17 21  1  0  0  0  0
 18  6  1  0  0  0  0
 19 20  1  0  0  0  0
 20 15  1  0  0  0  0
 21  3  1  0  0  0  0
 21 20  2  0  0  0  0
 23 24  2  0  0  0  0
 23 27  1  0  0  0  0
 24 25  1  0  0  0  0
 25 22  2  0  0  0  0
 26 22  1  0  0  0  0
 27 26  2  0  0  0  0
M  END
>  <MODEL>
7

>  <REMARK>
 VINA RESULT:      -7.5      2.046      2.995
  Name = 
  1 active torsions:
  status: ('A' for Active; 'I' for Inactive)
    1  A    between atoms: C_9  and  C_15
                            x       y       z     vdW  Elec       q    Type
                         _______ _______ _______ _____ _____    ______ ____

>  <TORSDO>
F 1

$$$$
=
 OpenBabel10272401023D

 27 31  0  0  1  0  0  0  0  0999 V2000
  186.6250  179.1680  142.4000 C   0  0  0  0  0  2  0  0  0  0  0  0
  186.0190  177.4750  144.2450 C   0  0  1  0  0  3  0  0  0  0  0  0
  187.8770  176.2110  143.5780 C   0  0  0  0  0  2  0  0  0  0  0  0
  187.7360  177.9210  148.1710 C   0  0  0  0  0  3  0  0  0  0  0  0
  190.1090  178.6120  147.5740 C   0  0  0  0  0  2  0  0  0  0  0  0
  185.1830  177.2490  145.5220 C   0  0  0  0  0  2  0  0  0  0  0  0
  189.3270  176.9200  145.9520 N   0  0  0  0  0  2  0  0  0  0  0  0
  190.9370  176.7830  141.4340 C   0  0  0  0  0  3  0  0  0  0  0  0
  189.9280  178.2430  146.0950 C   0  0  0  0  0  2  0  0  0  0  0  0
  190.4430  177.6170  140.4280 C   0  0  0  0  0  3  0  0  0  0  0  0
  187.8630  177.0250  145.8180 C   0  0  1  0  0  3  0  0  0  0  0  0
  185.6850  178.8140  143.5610 C   0  0  2  0  0  3  0  0  0  0  0  0
  189.0150  178.1440  148.5120 C   0  0  0  0  0  3  0  0  0  0  0  0
  187.2410  178.0720  146.7660 C   0  0  1  0  0  3  0  0  0  0  0  0
  186.8160  178.0130  141.4210 C   0  0  0  0  0  2  0  0  0  0  0  0
  187.4790  177.3240  144.4290 N   0  0  2  0  0  0  0  0  0  0  0  0
  190.0870  176.3330  142.4480 C   0  0  0  0  0  3  0  0  0  0  0  0
  185.7140  178.0470  146.7140 C   0  0  0  0  0  2  0  0  0  0  0  0
  189.0990  178.0010  140.4350 C   0  0  0  0  0  3  0  0  0  0  0  0
  188.2390  177.5500  141.4420 C   0  0  0  0  0  0  0  0  0  0  0  0
  188.7400  176.7090  142.4610 C   0  0  0  0  0  0  0  0  0  0  0  0
  181.5830  179.0730  142.3730 C   0  0  0  0  0  3  0  0  0  0  0  0
  184.2470  178.8980  143.1390 C   0  0  0  0  0  0  0  0  0  0  0  0
  183.8470  178.6070  141.8270 C   0  0  0  0  0  3  0  0  0  0  0  0
  182.5360  178.6980  141.4770 N   0  0  0  0  0  0  0  0  0  0  0  0
  181.9410  179.3750  143.6900 C   0  0  0  0  0  3  0  0  0  0  0  0
  183.2810  179.2870  144.0690 C   0  0  0  0  0  3  0  0  0  0  0  0
  1 12  1  0  0  0  0
  2 16  1  0  0  0  0
  2  6  1  1  0  0  0
  4 13  2  0  0  0  0
  5 13  1  0  0  0  0
  6 18  1  0  0  0  0
  7  9  1  0  0  0  0
  8 17  1  0  0  0  0
  9  5  1  0  0  0  0
 10 19  1  0  0  0  0
 10  8  2  0  0  0  0
 11  7  1  6  0  0  0
 11 14  1  0  0  0  0
 12 23  1  6  0  0  0
 12  2  1  0  0  0  0
 14 18  1  1  0  0  0
 14  4  1  0  0  0  0
 15 20  1  0  0  0  0
 15  1  1  0  0  0  0
 16  3  1  6  0  0  0
 16 11  1  0  0  0  0
 17 21  2  0  0  0  0
 19 20  2  0  0  0  0
 20 21  1  0  0  0  0
 21  3  1  0  0  0  0
 22 26  1  0  0  0  0
 23 27  1  0  0  0  0
 24 23  2  0  0  0  0
 25 24  1  0  0  0  0
 25 22  2  0  0  0  0
 26 27  2  0  0  0  0
M  END
>  <MODEL>
8

>  <REMARK>
 VINA RESULT:      -7.4      1.524      5.710
  Name = 
  1 active torsions:
  status: ('A' for Active; 'I' for Inactive)
    1  A    between atoms: C_9  and  C_15
                            x       y       z     vdW  Elec       q    Type
                         _______ _______ _______ _____ _____    ______ ____

>  <TORSDO>
F 1

$$$$
=
 OpenBabel10272401023D

 27 31  0  0  1  0  0  0  0  0999 V2000
  186.8070  179.4110  141.3870 C   0  0  0  0  0  2  0  0  0  0  0  0
  187.0170  177.4210  143.0100 C   0  0  1  0  0  3  0  0  0  0  0  0
  188.4840  176.4310  141.4710 C   0  0  0  0  0  2  0  0  0  0  0  0
  190.1410  177.4310  145.9760 C   0  0  0  0  0  3  0  0  0  0  0  0
  192.0690  178.4020  144.6310 C   0  0  0  0  0  2  0  0  0  0  0  0
  186.7610  176.9390  144.4530 C   0  0  0  0  0  2  0  0  0  0  0  0
  190.7420  176.9050  143.1800 N   0  0  0  0  0  2  0  0  0  0  0  0
  190.4290  177.5700  138.4380 C   0  0  0  0  0  3  0  0  0  0  0  0
  191.3230  178.2400  143.2990 C   0  0  0  0  0  2  0  0  0  0  0  0
  189.5600  178.4980  137.8580 C   0  0  0  0  0  3  0  0  0  0  0  0
  189.3430  176.9040  143.6440 C   0  0  1  0  0  3  0  0  0  0  0  0
  186.4120  178.8120  142.7450 C   0  0  2  0  0  3  0  0  0  0  0  0
  191.4460  177.7110  145.8270 C   0  0  0  0  0  3  0  0  0  0  0  0
  189.1270  177.7440  144.9210 C   0  0  1  0  0  3  0  0  0  0  0  0
  186.6170  178.4320  140.2320 C   0  0  0  0  0  2  0  0  0  0  0  0
  188.4340  177.3700  142.5850 N   0  0  2  0  0  0  0  0  0  0  0  0
  190.0610  176.9060  139.6110 C   0  0  0  0  0  3  0  0  0  0  0  0
  187.7050  177.5970  145.4620 C   0  0  0  0  0  2  0  0  0  0  0  0
  188.3220  178.7600  138.4500 C   0  0  0  0  0  3  0  0  0  0  0  0
  187.9410  178.0950  139.6210 C   0  0  0  0  0  0  0  0  0  0  0  0
  188.8230  177.1590  140.2090 C   0  0  0  0  0  0  0  0  0  0  0  0
  182.1710  178.8940  143.3010 C   0  0  0  0  0  3  0  0  0  0  0  0
  184.9230  178.8340  142.9350 C   0  0  0  0  0  0  0  0  0  0  0  0
  184.0430  178.5340  141.8850 C   0  0  0  0  0  3  0  0  0  0  0  0
  182.6990  178.5690  142.0900 N   0  0  0  0  0  0  0  0  0  0  0  0
  183.0130  179.2020  144.3720 C   0  0  0  0  0  3  0  0  0  0  0  0
  184.3950  179.1720  144.1830 C   0  0  0  0  0  3  0  0  0  0  0  0
  1 12  1  0  0  0  0
  2  6  1  1  0  0  0
  5 13  1  0  0  0  0
  6 18  1  0  0  0  0
  7  9  1  0  0  0  0
  8 17  1  0  0  0  0
  9  5  1  0  0  0  0
 10  8  2  0  0  0  0
 10 19  1  0  0  0  0
 11  7  1  6  0  0  0
 11 14  1  0  0  0  0
 12 23  1  6  0  0  0
 12  2  1  0  0  0  0
 13  4  2  0  0  0  0
 14 18  1  1  0  0  0
 14  4  1  0  0  0  0
 15  1  1  0  0  0  0
 16  3  1  6  0  0  0
 16  2  1  0  0  0  0
 16 11  1  0  0  0  0
 17 21  2  0  0  0  0
 19 20  2  0  0  0  0
 20 21  1  0  0  0  0
 20 15  1  0  0  0  0
 21  3  1  0  0  0  0
 22 26  1  0  0  0  0
 23 27  1  0  0  0  0
 24 25  1  0  0  0  0
 24 23  2  0  0  0  0
 25 22  2  0  0  0  0
 27 26  2  0  0  0  0
M  END
>  <MODEL>
9

>  <REMARK>
 VINA RESULT:      -7.3      1.824      5.529
  Name = 
  1 active torsions:
  status: ('A' for Active; 'I' for Inactive)
    1  A    between atoms: C_9  and  C_15
                            x       y       z     vdW  Elec       q    Type
                         _______ _______ _______ _____ _____    ______ ____

>  <TORSDO>
F 1

$$$$
