=
 OpenBabel10272414253D

 43 48  0  0  1  0  0  0  0  0999 V2000
  193.6470  174.4130  137.0380 C   0  0  0  0  0  0  0  0  0  0  0  0
  189.0380  176.2030  137.8880 C   0  0  0  0  0  0  0  0  0  0  0  0
  191.2440  174.7000  137.1240 C   0  0  0  0  0  0  0  0  0  0  0  0
  193.8230  175.6280  137.7140 C   0  0  0  0  0  3  0  0  0  0  0  0
  195.0420  173.4710  136.5630 Cl  0  0  0  0  0  0  0  0  0  0  0  0
  191.4250  175.9310  137.8070 C   0  0  0  0  0  0  0  0  0  0  0  0
  192.3600  173.9500  136.7440 C   0  0  0  0  0  3  0  0  0  0  0  0
  192.7140  176.3880  138.1000 C   0  0  0  0  0  3  0  0  0  0  0  0
  190.2150  177.8640  138.8760 N   0  0  0  0  0  2  0  0  0  0  0  0
  190.2850  176.6480  138.1690 C   0  0  0  0  0  0  0  0  0  0  0  0
  188.8210  174.9920  137.2270 C   0  0  0  0  0  3  0  0  0  0  0  0
  188.0590  177.1790  138.4440 C   0  0  1  0  0  3  0  0  0  0  0  0
  188.8710  178.2410  139.0810 N   0  0  0  0  0  0  0  0  0  0  0  0
  189.9430  174.2380  136.8390 C   0  0  0  0  0  3  0  0  0  0  0  0
  187.2250  177.7770  137.3230 C   0  0  0  0  0  2  0  0  0  0  0  0
  186.3500  178.7650  137.8500 O   0  0  0  0  0  0  0  0  0  0  0  0
  183.6210  178.7530  140.3390 C   0  0  0  0  0  3  0  0  0  0  0  0
  182.9970  177.0810  137.8700 C   0  0  0  0  0  3  0  0  0  0  0  0
  182.4180  177.0180  139.0680 C   0  0  0  0  0  3  0  0  0  0  0  0
  184.5010  179.2210  139.4540 C   0  0  0  0  0  3  0  0  0  0  0  0
  185.0630  178.4680  138.3040 C   0  0  0  0  0  0  0  0  0  0  0  0
  183.1340  177.3440  140.3350 C   0  0  0  0  0  2  0  0  0  0  0  0
  184.3710  177.5530  137.6080 C   0  0  0  0  0  3  0  0  0  0  0  0
  188.6210  178.1630  140.5180 C   0  0  0  0  0  2  0  0  0  0  0  0
  189.8830  177.8880  141.3480 C   0  0  1  0  0  3  0  0  0  0  0  0
  189.4640  177.4950  142.7570 C   0  0  1  0  0  3  0  0  0  0  0  0
  190.0430  176.4480  141.8270 C   0  0  0  0  0  2  0  0  0  0  0  0
  190.4730  177.9370  143.8360 C   0  0  1  0  0  3  0  0  0  0  0  0
  190.6040  179.3320  143.9150 O   0  0  0  0  0  1  0  0  0  0  0  0
  189.5020  176.1140  145.0590 O   0  0  0  0  0  1  0  0  0  0  0  0
  190.1530  177.3450  145.2230 C   0  0  1  0  0  0  0  0  0  0  0  0
  191.4490  177.1790  146.0460 C   0  0  0  0  0  2  0  0  0  0  0  0
  192.5500  175.6140  147.6540 C   0  0  0  0  0  1  0  0  0  0  0  0
  191.2860  176.3900  147.3420 C   0  0  0  0  0  2  0  0  0  0  0  0
  189.2660  178.2840  145.9210 N   0  0  0  0  0  2  0  0  0  0  0  0
  188.0040  177.6410  146.2900 C   0  0  1  0  0  3  0  0  0  0  0  0
  187.8520  177.6940  147.6780 O   0  0  0  0  0  1  0  0  0  0  0  0
  186.8360  178.3510  145.6090 C   0  0  0  0  0  3  0  0  0  0  0  0
  184.3010  178.6720  145.9220 C   0  0  0  0  0  2  0  0  0  0  0  0
  185.2680  178.3290  143.6170 C   0  0  0  0  0  2  0  0  0  0  0  0
  184.4260  179.2480  144.5140 C   0  0  0  0  0  2  0  0  0  0  0  0
  186.3690  177.5750  144.3750 C   0  0  0  0  0  2  0  0  0  0  0  0
  185.6740  178.5530  146.5980 C   0  0  0  0  0  2  0  0  0  0  0  0
  1  4  1  0  0  0  0
  2 10  1  0  0  0  0
  2 12  1  0  0  0  0
  3  6  1  0  0  0  0
  4  8  2  0  0  0  0
  5  1  1  0  0  0  0
  6  8  1  0  0  0  0
  6 10  2  0  0  0  0
  7  1  2  0  0  0  0
  7  3  1  0  0  0  0
  9 13  1  0  0  0  0
 10  9  1  0  0  0  0
 11  2  2  0  0  0  0
 12 15  1  6  0  0  0
 12 13  1  0  0  0  0
 13 24  1  0  0  0  0
 14  3  2  0  0  0  0
 14 11  1  0  0  0  0
 15 16  1  0  0  0  0
 16 21  1  0  0  0  0
 18 19  2  0  0  0  0
 19 22  1  0  0  0  0
 20 17  2  0  0  0  0
 21 20  1  0  0  0  0
 22 17  1  0  0  0  0
 23 18  1  0  0  0  0
 23 21  2  0  0  0  0
 25 24  1  6  0  0  0
 25 27  1  0  0  0  0
 25 26  1  0  0  0  0
 26 28  1  1  0  0  0
 27 26  1  0  0  0  0
 28 29  1  1  0  0  0
 28 31  1  0  0  0  0
 31 30  1  6  0  0  0
 31 35  1  0  0  0  0
 31 32  1  0  0  0  0
 32 34  1  0  0  0  0
 34 33  1  0  0  0  0
 35 36  1  0  0  0  0
 36 37  1  1  0  0  0
 38 36  1  0  0  0  0
 38 43  1  0  0  0  0
 39 43  1  0  0  0  0
 40 42  1  0  0  0  0
 40 41  1  0  0  0  0
 41 39  1  0  0  0  0
 42 38  1  0  0  0  0
M  END
>  <MODEL>
1

>  <REMARK>
 VINA RESULT:      -9.0      0.000      0.000
  Name = 
  12 active torsions:
  status: ('A' for Active; 'I' for Inactive)
    1  A    between atoms: C_1  and  O_28
    2  A    between atoms: C_1  and  C_34
    3  A    between atoms: C_2  and  C_13
    4  A    between atoms: C_4  and  C_12
    5  A    between atoms: C_4  and  C_15
    6  A    between atoms: C_4  and  N_22
    7  A    between atoms: C_6  and  C_12
    8  A    between atoms: C_11  and  C_14
    9  A    between atoms: C_13  and  N_38
   10  A    between atoms: C_14  and  N_22
   11  A    between atoms: C_15  and  C_42
   12  A    between atoms: O_28  and  C_35
                            x       y       z     vdW  Elec       q    Type
                         _______ _______ _______ _____ _____    ______ ____

>  <TORSDO>
F 12

$$$$
=
 OpenBabel10272414253D

 43 48  0  0  1  0  0  0  0  0999 V2000
  191.5350  176.3720  146.8100 C   0  0  0  0  0  0  0  0  0  0  0  0
  189.1230  177.1250  142.4770 C   0  0  0  0  0  0  0  0  0  0  0  0
  190.8390  176.2880  144.4930 C   0  0  0  0  0  0  0  0  0  0  0  0
  190.5130  177.2880  147.0920 C   0  0  0  0  0  3  0  0  0  0  0  0
  192.6100  175.8480  148.0870 Cl  0  0  0  0  0  0  0  0  0  0  0  0
  189.8060  177.2190  144.7800 C   0  0  0  0  0  0  0  0  0  0  0  0
  191.6970  175.8730  145.5140 C   0  0  0  0  0  3  0  0  0  0  0  0
  189.6470  177.7120  146.0790 C   0  0  0  0  0  3  0  0  0  0  0  0
  187.8680  178.4810  143.7840 N   0  0  0  0  0  2  0  0  0  0  0  0
  188.9710  177.6070  143.7330 C   0  0  0  0  0  0  0  0  0  0  0  0
  190.1210  176.2010  142.1600 C   0  0  0  0  0  3  0  0  0  0  0  0
  188.0510  177.7080  141.6220 C   0  0  1  0  0  3  0  0  0  0  0  0
  187.2560  178.5810  142.5160 N   0  0  0  0  0  0  0  0  0  0  0  0
  190.9890  175.7850  143.1850 C   0  0  0  0  0  3  0  0  0  0  0  0
  188.6660  178.5410  140.5100 C   0  0  0  0  0  2  0  0  0  0  0  0
  187.7810  178.5900  139.3990 O   0  0  0  0  0  0  0  0  0  0  0  0
  189.3210  175.9440  137.3340 C   0  0  0  0  0  3  0  0  0  0  0  0
  187.8810  178.0630  135.6860 C   0  0  0  0  0  3  0  0  0  0  0  0
  188.8080  177.1980  135.2760 C   0  0  0  0  0  3  0  0  0  0  0  0
  188.5330  176.5170  138.2430 C   0  0  0  0  0  3  0  0  0  0  0  0
  188.0330  177.9150  138.2030 C   0  0  0  0  0  0  0  0  0  0  0  0
  189.8870  176.6790  136.1670 C   0  0  0  0  0  2  0  0  0  0  0  0
  187.7280  178.5610  137.0670 C   0  0  0  0  0  3  0  0  0  0  0  0
  185.9320  177.9760  142.6330 C   0  0  0  0  0  2  0  0  0  0  0  0
  184.8000  178.8640  142.0950 C   0  0  1  0  0  3  0  0  0  0  0  0
  184.1200  178.1420  140.9420 C   0  0  1  0  0  3  0  0  0  0  0  0
  183.3950  178.2940  142.2620 C   0  0  0  0  0  2  0  0  0  0  0  0
  183.5740  179.1000  139.8640 C   0  0  1  0  0  3  0  0  0  0  0  0
  184.5580  179.9630  139.3580 O   0  0  0  0  0  1  0  0  0  0  0  0
  182.1160  177.2950  139.2460 O   0  0  0  0  0  1  0  0  0  0  0  0
  182.8650  178.3560  138.7150 C   0  0  1  0  0  0  0  0  0  0  0  0
  181.9640  179.3270  137.9230 C   0  0  0  0  0  2  0  0  0  0  0  0
  181.4490  181.7280  138.3880 C   0  0  0  0  0  1  0  0  0  0  0  0
  181.1560  180.2940  138.7830 C   0  0  0  0  0  2  0  0  0  0  0  0
  183.8980  177.8280  137.8140 N   0  0  0  0  0  2  0  0  0  0  0  0
  183.4820  176.5550  137.2240 C   0  0  1  0  0  3  0  0  0  0  0  0
  183.1840  176.7520  135.8740 O   0  0  0  0  0  1  0  0  0  0  0  0
  184.5980  175.5220  137.3680 C   0  0  0  0  0  3  0  0  0  0  0  0
  186.2630  174.2340  135.8860 C   0  0  0  0  0  2  0  0  0  0  0  0
  185.1280  173.0860  137.8240 C   0  0  0  0  0  2  0  0  0  0  0  0
  186.4730  173.4570  137.1820 C   0  0  0  0  0  2  0  0  0  0  0  0
  184.0220  174.1190  137.5690 C   0  0  0  0  0  2  0  0  0  0  0  0
  185.5300  175.5580  136.1420 C   0  0  0  0  0  2  0  0  0  0  0  0
  1  4  1  0  0  0  0
  1  5  1  0  0  0  0
  2 10  1  0  0  0  0
  3  6  1  0  0  0  0
  3  7  1  0  0  0  0
  6  8  1  0  0  0  0
  7  1  2  0  0  0  0
  8  4  2  0  0  0  0
 10  9  1  0  0  0  0
 10  6  2  0  0  0  0
 11  2  2  0  0  0  0
 11 14  1  0  0  0  0
 12 15  1  6  0  0  0
 12  2  1  0  0  0  0
 12 13  1  0  0  0  0
 13 24  1  0  0  0  0
 13  9  1  0  0  0  0
 14  3  2  0  0  0  0
 16 15  1  0  0  0  0
 17 20  2  0  0  0  0
 18 23  1  0  0  0  0
 19 18  2  0  0  0  0
 19 22  1  0  0  0  0
 21 20  1  0  0  0  0
 21 16  1  0  0  0  0
 22 17  1  0  0  0  0
 23 21  2  0  0  0  0
 25 27  1  0  0  0  0
 25 24  1  1  0  0  0
 26 28  1  6  0  0  0
 26 25  1  0  0  0  0
 26 27  1  0  0  0  0
 28 29  1  6  0  0  0
 31 30  1  1  0  0  0
 31 28  1  0  0  0  0
 32 31  1  0  0  0  0
 32 34  1  0  0  0  0
 33 34  1  0  0  0  0
 35 31  1  0  0  0  0
 36 37  1  6  0  0  0
 36 38  1  0  0  0  0
 36 35  1  0  0  0  0
 38 42  1  0  0  0  0
 39 43  1  0  0  0  0
 39 41  1  0  0  0  0
 41 40  1  0  0  0  0
 42 40  1  0  0  0  0
 43 38  1  0  0  0  0
M  END
>  <MODEL>
2

>  <REMARK>
 VINA RESULT:      -8.5      3.376      8.332
  Name = 
  12 active torsions:
  status: ('A' for Active; 'I' for Inactive)
    1  A    between atoms: C_1  and  O_28
    2  A    between atoms: C_1  and  C_34
    3  A    between atoms: C_2  and  C_13
    4  A    between atoms: C_4  and  C_12
    5  A    between atoms: C_4  and  C_15
    6  A    between atoms: C_4  and  N_22
    7  A    between atoms: C_6  and  C_12
    8  A    between atoms: C_11  and  C_14
    9  A    between atoms: C_13  and  N_38
   10  A    between atoms: C_14  and  N_22
   11  A    between atoms: C_15  and  C_42
   12  A    between atoms: O_28  and  C_35
                            x       y       z     vdW  Elec       q    Type
                         _______ _______ _______ _____ _____    ______ ____

>  <TORSDO>
F 12

$$$$
=
 OpenBabel10272414253D

 43 48  0  0  1  0  0  0  0  0999 V2000
  185.3570  170.6990  135.2650 C   0  0  0  0  0  0  0  0  0  0  0  0
  186.3500  175.2230  137.1900 C   0  0  0  0  0  0  0  0  0  0  0  0
  185.1800  172.8370  136.3880 C   0  0  0  0  0  0  0  0  0  0  0  0
  186.6980  170.9640  134.9550 C   0  0  0  0  0  3  0  0  0  0  0  0
  184.6290  169.1910  134.7590 Cl  0  0  0  0  0  0  0  0  0  0  0  0
  186.5380  173.1040  136.0710 C   0  0  0  0  0  0  0  0  0  0  0  0
  184.6010  171.6330  135.9800 C   0  0  0  0  0  3  0  0  0  0  0  0
  187.2910  172.1650  135.3580 C   0  0  0  0  0  3  0  0  0  0  0  0
  188.3970  174.7830  136.3320 N   0  0  0  0  0  2  0  0  0  0  0  0
  187.0790  174.3170  136.4970 C   0  0  0  0  0  0  0  0  0  0  0  0
  185.0160  174.9900  137.5290 C   0  0  0  0  0  3  0  0  0  0  0  0
  187.2340  176.3770  137.5210 C   0  0  1  0  0  3  0  0  0  0  0  0
  188.5580  176.0430  136.9450 N   0  0  0  0  0  0  0  0  0  0  0  0
  184.4280  173.7810  137.1150 C   0  0  0  0  0  3  0  0  0  0  0  0
  186.7010  177.6440  136.8740 C   0  0  0  0  0  2  0  0  0  0  0  0
  186.2500  178.5440  137.8780 O   0  0  0  0  0  0  0  0  0  0  0  0
  183.8600  178.1570  140.6670 C   0  0  0  0  0  3  0  0  0  0  0  0
  182.5180  178.1680  137.9320 C   0  0  0  0  0  3  0  0  0  0  0  0
  182.0260  177.7120  139.0830 C   0  0  0  0  0  3  0  0  0  0  0  0
  184.8000  178.7030  139.8960 C   0  0  0  0  0  3  0  0  0  0  0  0
  184.9740  178.4700  138.4390 C   0  0  0  0  0  0  0  0  0  0  0  0
  182.8820  177.1490  140.1680 C   0  0  0  0  0  2  0  0  0  0  0  0
  183.9520  178.2650  137.5940 C   0  0  0  0  0  3  0  0  0  0  0  0
  189.4740  175.8580  138.0670 C   0  0  0  0  0  2  0  0  0  0  0  0
  189.6790  177.1250  138.9100 C   0  0  1  0  0  3  0  0  0  0  0  0
  189.9180  176.7160  140.3560 C   0  0  1  0  0  3  0  0  0  0  0  0
  191.0630  177.2710  139.5350 C   0  0  0  0  0  2  0  0  0  0  0  0
  189.3800  177.7420  141.3740 C   0  0  1  0  0  3  0  0  0  0  0  0
  188.0880  178.1900  141.0600 O   0  0  0  0  0  1  0  0  0  0  0  0
  189.1270  175.8530  142.8330 O   0  0  0  0  0  1  0  0  0  0  0  0
  189.4340  177.2210  142.8230 C   0  0  1  0  0  0  0  0  0  0  0  0
  190.8290  177.4790  143.4340 C   0  0  0  0  0  2  0  0  0  0  0  0
  191.7960  176.2240  145.3670 C   0  0  0  0  0  1  0  0  0  0  0  0
  191.5780  176.2220  143.8670 C   0  0  0  0  0  2  0  0  0  0  0  0
  188.4330  177.9580  143.6060 N   0  0  0  0  0  2  0  0  0  0  0  0
  187.8490  177.1090  144.6460 C   0  0  1  0  0  3  0  0  0  0  0  0
  188.5820  177.2610  145.8250 O   0  0  0  0  0  1  0  0  0  0  0  0
  186.3920  177.5000  144.8830 C   0  0  0  0  0  3  0  0  0  0  0  0
  184.7280  179.3340  144.1800 C   0  0  0  0  0  2  0  0  0  0  0  0
  184.7440  178.4680  146.5480 C   0  0  0  0  0  2  0  0  0  0  0  0
  183.8970  178.6940  145.2880 C   0  0  0  0  0  2  0  0  0  0  0  0
  186.2190  178.1670  146.2490 C   0  0  0  0  0  2  0  0  0  0  0  0
  185.8900  178.4240  143.7580 C   0  0  0  0  0  2  0  0  0  0  0  0
  1  7  1  0  0  0  0
  2 12  1  0  0  0  0
  2 11  1  0  0  0  0
  3 14  1  0  0  0  0
  4  1  2  0  0  0  0
  4  8  1  0  0  0  0
  5  1  1  0  0  0  0
  6  3  1  0  0  0  0
  6 10  1  0  0  0  0
  7  3  2  0  0  0  0
  8  6  2  0  0  0  0
  9 10  1  0  0  0  0
  9 13  1  0  0  0  0
 10  2  2  0  0  0  0
 12 15  1  6  0  0  0
 13 12  1  0  0  0  0
 13 24  1  0  0  0  0
 14 11  2  0  0  0  0
 15 16  1  0  0  0  0
 16 21  1  0  0  0  0
 18 19  2  0  0  0  0
 19 22  1  0  0  0  0
 20 17  2  0  0  0  0
 21 20  1  0  0  0  0
 22 17  1  0  0  0  0
 23 18  1  0  0  0  0
 23 21  2  0  0  0  0
 25 24  1  6  0  0  0
 25 27  1  0  0  0  0
 25 26  1  0  0  0  0
 26 28  1  1  0  0  0
 27 26  1  0  0  0  0
 28 29  1  6  0  0  0
 28 31  1  0  0  0  0
 31 30  1  1  0  0  0
 31 32  1  0  0  0  0
 31 35  1  0  0  0  0
 32 34  1  0  0  0  0
 34 33  1  0  0  0  0
 35 36  1  0  0  0  0
 36 38  1  0  0  0  0
 36 37  1  1  0  0  0
 38 42  1  0  0  0  0
 39 41  1  0  0  0  0
 41 40  1  0  0  0  0
 42 40  1  0  0  0  0
 43 39  1  0  0  0  0
 43 38  1  0  0  0  0
M  END
>  <MODEL>
3

>  <REMARK>
 VINA RESULT:      -8.4      2.949      4.129
  Name = 
  12 active torsions:
  status: ('A' for Active; 'I' for Inactive)
    1  A    between atoms: C_1  and  O_28
    2  A    between atoms: C_1  and  C_34
    3  A    between atoms: C_2  and  C_13
    4  A    between atoms: C_4  and  C_12
    5  A    between atoms: C_4  and  C_15
    6  A    between atoms: C_4  and  N_22
    7  A    between atoms: C_6  and  C_12
    8  A    between atoms: C_11  and  C_14
    9  A    between atoms: C_13  and  N_38
   10  A    between atoms: C_14  and  N_22
   11  A    between atoms: C_15  and  C_42
   12  A    between atoms: O_28  and  C_35
                            x       y       z     vdW  Elec       q    Type
                         _______ _______ _______ _____ _____    ______ ____

>  <TORSDO>
F 12

$$$$
=
 OpenBabel10272414253D

 43 48  0  0  1  0  0  0  0  0999 V2000
  186.8400  177.9600  146.6550 C   0  0  0  0  0  0  0  0  0  0  0  0
  183.6370  178.7550  142.8770 C   0  0  0  0  0  0  0  0  0  0  0  0
  184.9010  178.5770  145.3420 C   0  0  0  0  0  0  0  0  0  0  0  0
  187.4970  177.5270  145.4950 C   0  0  0  0  0  3  0  0  0  0  0  0
  187.6450  177.8480  148.2040 Cl  0  0  0  0  0  0  0  0  0  0  0  0
  185.5670  178.1360  144.1690 C   0  0  0  0  0  0  0  0  0  0  0  0
  185.5460  178.4850  146.5790 C   0  0  0  0  0  3  0  0  0  0  0  0
  186.8630  177.6150  144.2510 C   0  0  0  0  0  3  0  0  0  0  0  0
  185.3550  177.9110  141.6700 N   0  0  0  0  0  2  0  0  0  0  0  0
  184.8890  178.2470  142.9560 C   0  0  0  0  0  0  0  0  0  0  0  0
  182.9550  179.2090  144.0080 C   0  0  0  0  0  3  0  0  0  0  0  0
  183.2280  178.7680  141.4440 C   0  0  1  0  0  3  0  0  0  0  0  0
  184.3800  178.2130  140.6960 N   0  0  0  0  0  0  0  0  0  0  0  0
  183.6000  179.1110  145.2540 C   0  0  0  0  0  3  0  0  0  0  0  0
  182.0120  177.8810  141.2410 C   0  0  0  0  0  2  0  0  0  0  0  0
  181.0430  178.5660  140.4580 O   0  0  0  0  0  0  0  0  0  0  0  0
  181.1810  180.9440  137.6370 C   0  0  0  0  0  3  0  0  0  0  0  0
  181.5680  178.0470  136.7800 C   0  0  0  0  0  3  0  0  0  0  0  0
  181.2190  179.0850  136.0210 C   0  0  0  0  0  3  0  0  0  0  0  0
  181.5020  180.3530  138.7870 C   0  0  0  0  0  3  0  0  0  0  0  0
  181.2650  178.9270  139.1280 C   0  0  0  0  0  0  0  0  0  0  0  0
  180.4470  180.2500  136.5410 C   0  0  0  0  0  2  0  0  0  0  0  0
  181.3270  177.9300  138.2320 C   0  0  0  0  0  3  0  0  0  0  0  0
  184.9170  179.2970  139.8770 C   0  0  0  0  0  2  0  0  0  0  0  0
  185.1220  178.9140  138.4050 C   0  0  1  0  0  3  0  0  0  0  0  0
  186.3680  178.0470  138.2960 C   0  0  1  0  0  3  0  0  0  0  0  0
  185.0010  177.4240  138.1010 C   0  0  0  0  0  2  0  0  0  0  0  0
  187.1200  178.2310  136.9620 C   0  0  1  0  0  3  0  0  0  0  0  0
  187.4020  179.5760  136.6800 O   0  0  0  0  0  1  0  0  0  0  0  0
  188.0750  176.0300  137.0620 O   0  0  0  0  0  1  0  0  0  0  0  0
  188.4040  177.3820  136.8860 C   0  0  1  0  0  0  0  0  0  0  0  0
  189.1150  177.6060  135.5340 C   0  0  0  0  0  2  0  0  0  0  0  0
  190.4930  175.7200  134.6430 C   0  0  0  0  0  1  0  0  0  0  0  0
  189.1330  176.3890  134.6130 C   0  0  0  0  0  2  0  0  0  0  0  0
  189.2980  177.8170  137.9670 N   0  0  0  0  0  2  0  0  0  0  0  0
  190.1130  176.7050  138.4580 C   0  0  1  0  0  3  0  0  0  0  0  0
  191.3910  176.7930  137.9020 O   0  0  0  0  0  1  0  0  0  0  0  0
  190.2000  176.7520  139.9820 C   0  0  0  0  0  3  0  0  0  0  0  0
  189.2280  178.1010  141.9480 C   0  0  0  0  0  2  0  0  0  0  0  0
  191.6490  177.3930  141.9610 C   0  0  0  0  0  2  0  0  0  0  0  0
  190.3110  177.3440  142.7120 C   0  0  0  0  0  2  0  0  0  0  0  0
  191.4940  177.4330  140.4350 C   0  0  0  0  0  2  0  0  0  0  0  0
  188.9720  177.4690  140.5720 C   0  0  0  0  0  2  0  0  0  0  0  0
  1  5  1  0  0  0  0
  2 10  2  0  0  0  0
  2 11  1  0  0  0  0
  3  7  2  0  0  0  0
  4  1  2  0  0  0  0
  6  8  2  0  0  0  0
  6  3  1  0  0  0  0
  7  1  1  0  0  0  0
  8  4  1  0  0  0  0
  9 10  1  0  0  0  0
 10  6  1  0  0  0  0
 11 14  2  0  0  0  0
 12 15  1  1  0  0  0
 12  2  1  0  0  0  0
 13 12  1  0  0  0  0
 13  9  1  0  0  0  0
 14  3  1  0  0  0  0
 16 15  1  0  0  0  0
 17 20  2  0  0  0  0
 18 23  1  0  0  0  0
 19 22  1  0  0  0  0
 19 18  2  0  0  0  0
 20 21  1  0  0  0  0
 21 16  1  0  0  0  0
 22 17  1  0  0  0  0
 23 21  2  0  0  0  0
 24 13  1  0  0  0  0
 25 24  1  1  0  0  0
 26 28  1  6  0  0  0
 26 25  1  0  0  0  0
 27 26  1  0  0  0  0
 27 25  1  0  0  0  0
 28 29  1  1  0  0  0
 31 28  1  0  0  0  0
 31 30  1  1  0  0  0
 31 35  1  0  0  0  0
 32 31  1  0  0  0  0
 34 33  1  0  0  0  0
 34 32  1  0  0  0  0
 35 36  1  0  0  0  0
 36 37  1  6  0  0  0
 36 38  1  0  0  0  0
 38 42  1  0  0  0  0
 38 43  1  0  0  0  0
 39 41  1  0  0  0  0
 40 41  1  0  0  0  0
 42 40  1  0  0  0  0
 43 39  1  0  0  0  0
M  END
>  <MODEL>
4

>  <REMARK>
 VINA RESULT:      -8.4      3.790      8.152
  Name = 
  12 active torsions:
  status: ('A' for Active; 'I' for Inactive)
    1  A    between atoms: C_1  and  O_28
    2  A    between atoms: C_1  and  C_34
    3  A    between atoms: C_2  and  C_13
    4  A    between atoms: C_4  and  C_12
    5  A    between atoms: C_4  and  C_15
    6  A    between atoms: C_4  and  N_22
    7  A    between atoms: C_6  and  C_12
    8  A    between atoms: C_11  and  C_14
    9  A    between atoms: C_13  and  N_38
   10  A    between atoms: C_14  and  N_22
   11  A    between atoms: C_15  and  C_42
   12  A    between atoms: O_28  and  C_35
                            x       y       z     vdW  Elec       q    Type
                         _______ _______ _______ _____ _____    ______ ____

>  <TORSDO>
F 12

$$$$
=
 OpenBabel10272414253D

 43 48  0  0  1  0  0  0  0  0999 V2000
  193.5510  175.3130  135.8010 C   0  0  0  0  0  0  0  0  0  0  0  0
  191.2700  177.0550  139.9150 C   0  0  0  0  0  0  0  0  0  0  0  0
  193.0920  176.3280  137.9510 C   0  0  0  0  0  0  0  0  0  0  0  0
  192.1880  175.0350  135.6330 C   0  0  0  0  0  3  0  0  0  0  0  0
  194.6910  174.8550  134.5560 Cl  0  0  0  0  0  0  0  0  0  0  0  0
  191.7120  176.0430  137.7800 C   0  0  0  0  0  0  0  0  0  0  0  0
  194.0020  175.9590  136.9560 C   0  0  0  0  0  3  0  0  0  0  0  0
  191.2670  175.4000  136.6210 C   0  0  0  0  0  3  0  0  0  0  0  0
  189.4380  176.2850  138.8330 N   0  0  0  0  0  2  0  0  0  0  0  0
  190.8380  176.4290  138.7950 C   0  0  0  0  0  0  0  0  0  0  0  0
  192.6180  177.3610  140.1130 C   0  0  0  0  0  3  0  0  0  0  0  0
  190.0850  177.3590  140.7650 C   0  0  1  0  0  3  0  0  0  0  0  0
  188.9140  176.8430  140.0190 N   0  0  0  0  0  0  0  0  0  0  0  0
  193.5360  176.9850  139.1150 C   0  0  0  0  0  3  0  0  0  0  0  0
  190.2000  176.6370  142.0970 C   0  0  0  0  0  2  0  0  0  0  0  0
  189.7400  177.4820  143.1440 O   0  0  0  0  0  0  0  0  0  0  0  0
  188.6160  177.2740  146.6550 C   0  0  0  0  0  3  0  0  0  0  0  0
  191.5510  176.5410  146.2920 C   0  0  0  0  0  3  0  0  0  0  0  0
  190.9310  176.9030  147.4140 C   0  0  0  0  0  3  0  0  0  0  0  0
  188.6810  177.0200  145.3500 C   0  0  0  0  0  3  0  0  0  0  0  0
  189.8880  177.1590  144.4940 C   0  0  0  0  0  0  0  0  0  0  0  0
  189.7610  177.8280  147.4350 C   0  0  0  0  0  2  0  0  0  0  0  0
  191.1340  176.9160  144.9260 C   0  0  0  0  0  3  0  0  0  0  0  0
  188.1150  178.0020  139.6280 C   0  0  0  0  0  2  0  0  0  0  0  0
  187.1230  177.7110  138.4930 C   0  0  1  0  0  3  0  0  0  0  0  0
  186.0390  178.7790  138.5070 C   0  0  1  0  0  3  0  0  0  0  0  0
  187.0670  178.7680  137.3950 C   0  0  0  0  0  2  0  0  0  0  0  0
  184.6670  178.2560  138.0370 C   0  0  1  0  0  3  0  0  0  0  0  0
  184.5710  176.8580  138.0940 O   0  0  0  0  0  1  0  0  0  0  0  0
  183.8770  180.1890  139.2210 O   0  0  0  0  0  1  0  0  0  0  0  0
  183.4940  178.9090  138.7950 C   0  0  1  0  0  0  0  0  0  0  0  0
  182.2440  178.9790  137.8910 C   0  0  0  0  0  2  0  0  0  0  0  0
  180.2060  180.2240  137.1520 C   0  0  0  0  0  1  0  0  0  0  0  0
  181.2900  180.1270  138.2080 C   0  0  0  0  0  2  0  0  0  0  0  0
  183.1870  178.0710  139.9610 N   0  0  0  0  0  2  0  0  0  0  0  0
  182.9430  178.8910  141.1490 C   0  0  1  0  0  3  0  0  0  0  0  0
  181.5950  178.7940  141.5030 O   0  0  0  0  0  1  0  0  0  0  0  0
  183.8220  178.4140  142.3040 C   0  0  0  0  0  3  0  0  0  0  0  0
  184.3590  179.0590  144.7370 C   0  0  0  0  0  2  0  0  0  0  0  0
  186.1930  178.2790  143.1910 C   0  0  0  0  0  2  0  0  0  0  0  0
  185.4750  178.0390  144.5270 C   0  0  0  0  0  2  0  0  0  0  0  0
  185.2770  178.8410  142.0960 C   0  0  0  0  0  2  0  0  0  0  0  0
  183.2850  178.9430  143.6460 C   0  0  0  0  0  2  0  0  0  0  0  0
  1  7  1  0  0  0  0
  2 11  1  0  0  0  0
  2 12  1  0  0  0  0
  3 14  1  0  0  0  0
  4  1  2  0  0  0  0
  4  8  1  0  0  0  0
  5  1  1  0  0  0  0
  6  3  1  0  0  0  0
  6 10  1  0  0  0  0
  7  3  2  0  0  0  0
  8  6  2  0  0  0  0
  9 13  1  0  0  0  0
 10  9  1  0  0  0  0
 10  2  2  0  0  0  0
 12 15  1  1  0  0  0
 13 12  1  0  0  0  0
 14 11  2  0  0  0  0
 15 16  1  0  0  0  0
 16 21  1  0  0  0  0
 17 22  1  0  0  0  0
 18 19  2  0  0  0  0
 19 22  1  0  0  0  0
 20 17  2  0  0  0  0
 21 23  2  0  0  0  0
 21 20  1  0  0  0  0
 23 18  1  0  0  0  0
 24 13  1  0  0  0  0
 25 26  1  0  0  0  0
 25 24  1  1  0  0  0
 26 28  1  6  0  0  0
 27 25  1  0  0  0  0
 27 26  1  0  0  0  0
 28 29  1  1  0  0  0
 28 31  1  0  0  0  0
 31 30  1  1  0  0  0
 31 35  1  0  0  0  0
 32 34  1  0  0  0  0
 32 31  1  0  0  0  0
 33 34  1  0  0  0  0
 35 36  1  0  0  0  0
 36 37  1  1  0  0  0
 36 38  1  0  0  0  0
 38 43  1  0  0  0  0
 40 41  1  0  0  0  0
 41 39  1  0  0  0  0
 42 38  1  0  0  0  0
 42 40  1  0  0  0  0
 43 39  1  0  0  0  0
M  END
>  <MODEL>
5

>  <REMARK>
 VINA RESULT:      -8.1      2.066      7.057
  Name = 
  12 active torsions:
  status: ('A' for Active; 'I' for Inactive)
    1  A    between atoms: C_1  and  O_28
    2  A    between atoms: C_1  and  C_34
    3  A    between atoms: C_2  and  C_13
    4  A    between atoms: C_4  and  C_12
    5  A    between atoms: C_4  and  C_15
    6  A    between atoms: C_4  and  N_22
    7  A    between atoms: C_6  and  C_12
    8  A    between atoms: C_11  and  C_14
    9  A    between atoms: C_13  and  N_38
   10  A    between atoms: C_14  and  N_22
   11  A    between atoms: C_15  and  C_42
   12  A    between atoms: O_28  and  C_35
                            x       y       z     vdW  Elec       q    Type
                         _______ _______ _______ _____ _____    ______ ____

>  <TORSDO>
F 12

$$$$
=
 OpenBabel10272414253D

 43 48  0  0  1  0  0  0  0  0999 V2000
  191.8380  176.2590  147.2910 C   0  0  0  0  0  0  0  0  0  0  0  0
  189.4840  176.7880  142.8930 C   0  0  0  0  0  0  0  0  0  0  0  0
  191.1490  176.0300  144.9810 C   0  0  0  0  0  0  0  0  0  0  0  0
  190.8590  177.2400  147.4940 C   0  0  0  0  0  3  0  0  0  0  0  0
  192.8810  175.7850  148.6140 Cl  0  0  0  0  0  0  0  0  0  0  0  0
  190.1590  177.0260  145.1880 C   0  0  0  0  0  0  0  0  0  0  0  0
  191.9820  175.6550  146.0380 C   0  0  0  0  0  3  0  0  0  0  0  0
  190.0180  177.6250  146.4440 C   0  0  0  0  0  3  0  0  0  0  0  0
  188.2870  178.2970  144.0820 N   0  0  0  0  0  2  0  0  0  0  0  0
  189.3480  177.3720  144.1080 C   0  0  0  0  0  0  0  0  0  0  0  0
  190.4390  175.7980  142.6560 C   0  0  0  0  0  3  0  0  0  0  0  0
  188.4440  177.3520  141.9870 C   0  0  1  0  0  3  0  0  0  0  0  0
  187.6870  178.3270  142.8060 N   0  0  0  0  0  0  0  0  0  0  0  0
  191.2820  175.4220  143.7170 C   0  0  0  0  0  3  0  0  0  0  0  0
  189.1030  178.0690  140.8200 C   0  0  0  0  0  2  0  0  0  0  0  0
  189.1400  177.2100  139.6880 O   0  0  0  0  0  0  0  0  0  0  0  0
  191.0560  175.9270  136.8030 C   0  0  0  0  0  3  0  0  0  0  0  0
  192.8290  176.9070  139.0780 C   0  0  0  0  0  3  0  0  0  0  0  0
  193.1580  176.0900  138.0780 C   0  0  0  0  0  3  0  0  0  0  0  0
  190.2170  176.6880  137.5040 C   0  0  0  0  0  3  0  0  0  0  0  0
  190.3070  176.9710  138.9600 C   0  0  0  0  0  0  0  0  0  0  0  0
  192.1820  175.1720  137.4240 C   0  0  0  0  0  2  0  0  0  0  0  0
  191.4680  177.0890  139.6210 C   0  0  0  0  0  3  0  0  0  0  0  0
  186.3350  177.7950  142.9580 C   0  0  0  0  0  2  0  0  0  0  0  0
  185.2340  178.7850  142.5510 C   0  0  1  0  0  3  0  0  0  0  0  0
  184.1640  178.0330  141.7740 C   0  0  1  0  0  3  0  0  0  0  0  0
  183.8670  178.5260  143.1750 C   0  0  0  0  0  2  0  0  0  0  0  0
  183.4780  178.8950  140.6960 C   0  0  1  0  0  3  0  0  0  0  0  0
  184.3820  179.7090  139.9970 O   0  0  0  0  0  1  0  0  0  0  0  0
  182.8520  176.6930  139.9720 O   0  0  0  0  0  1  0  0  0  0  0  0
  182.6380  178.0550  139.7140 C   0  0  1  0  0  0  0  0  0  0  0  0
  181.1410  178.4140  139.8460 C   0  0  0  0  0  2  0  0  0  0  0  0
  180.2090  178.5850  142.1580 C   0  0  0  0  0  1  0  0  0  0  0  0
  180.4040  177.6770  140.9610 C   0  0  0  0  0  2  0  0  0  0  0  0
  183.0810  178.3750  138.3510 N   0  0  0  0  0  2  0  0  0  0  0  0
  183.6140  177.1900  137.6780 C   0  0  1  0  0  3  0  0  0  0  0  0
  182.6240  176.6460  136.8570 O   0  0  0  0  0  1  0  0  0  0  0  0
  184.8370  177.5660  136.8440 C   0  0  0  0  0  3  0  0  0  0  0  0
  186.6990  176.4160  135.4880 C   0  0  0  0  0  2  0  0  0  0  0  0
  187.2200  178.4260  136.9200 C   0  0  0  0  0  2  0  0  0  0  0  0
  187.2780  177.8280  135.5070 C   0  0  0  0  0  2  0  0  0  0  0  0
  186.0180  177.9420  137.7420 C   0  0  0  0  0  2  0  0  0  0  0  0
  185.2180  176.4160  135.8940 C   0  0  0  0  0  2  0  0  0  0  0  0
  1  4  1  0  0  0  0
  1  5  1  0  0  0  0
  2 10  1  0  0  0  0
  3  6  1  0  0  0  0
  3  7  1  0  0  0  0
  6  8  1  0  0  0  0
  7  1  2  0  0  0  0
  8  4  2  0  0  0  0
  9 10  1  0  0  0  0
 10  6  2  0  0  0  0
 11  2  2  0  0  0  0
 11 14  1  0  0  0  0
 12 15  1  6  0  0  0
 12 13  1  0  0  0  0
 12  2  1  0  0  0  0
 13 24  1  0  0  0  0
 13  9  1  0  0  0  0
 14  3  2  0  0  0  0
 16 15  1  0  0  0  0
 17 22  1  0  0  0  0
 17 20  2  0  0  0  0
 18 23  1  0  0  0  0
 19 18  2  0  0  0  0
 20 21  1  0  0  0  0
 21 23  2  0  0  0  0
 21 16  1  0  0  0  0
 22 19  1  0  0  0  0
 25 24  1  1  0  0  0
 25 27  1  0  0  0  0
 26 28  1  6  0  0  0
 26 25  1  0  0  0  0
 26 27  1  0  0  0  0
 28 29  1  6  0  0  0
 31 32  1  0  0  0  0
 31 30  1  1  0  0  0
 31 28  1  0  0  0  0
 32 34  1  0  0  0  0
 34 33  1  0  0  0  0
 35 31  1  0  0  0  0
 36 37  1  6  0  0  0
 36 35  1  0  0  0  0
 38 36  1  0  0  0  0
 38 42  1  0  0  0  0
 39 41  1  0  0  0  0
 39 43  1  0  0  0  0
 40 42  1  0  0  0  0
 41 40  1  0  0  0  0
 43 38  1  0  0  0  0
M  END
>  <MODEL>
6

>  <REMARK>
 VINA RESULT:      -8.1      3.080      8.530
  Name = 
  12 active torsions:
  status: ('A' for Active; 'I' for Inactive)
    1  A    between atoms: C_1  and  O_28
    2  A    between atoms: C_1  and  C_34
    3  A    between atoms: C_2  and  C_13
    4  A    between atoms: C_4  and  C_12
    5  A    between atoms: C_4  and  C_15
    6  A    between atoms: C_4  and  N_22
    7  A    between atoms: C_6  and  C_12
    8  A    between atoms: C_11  and  C_14
    9  A    between atoms: C_13  and  N_38
   10  A    between atoms: C_14  and  N_22
   11  A    between atoms: C_15  and  C_42
   12  A    between atoms: O_28  and  C_35
                            x       y       z     vdW  Elec       q    Type
                         _______ _______ _______ _____ _____    ______ ____

>  <TORSDO>
F 12

$$$$
=
 OpenBabel10272414253D

 43 48  0  0  1  0  0  0  0  0999 V2000
  192.1400  175.8150  146.5850 C   0  0  0  0  0  0  0  0  0  0  0  0
  189.9220  178.1070  142.7130 C   0  0  0  0  0  0  0  0  0  0  0  0
  190.9960  177.4210  145.1800 C   0  0  0  0  0  0  0  0  0  0  0  0
  192.2020  174.9110  145.5150 C   0  0  0  0  0  3  0  0  0  0  0  0
  192.8230  175.3750  148.1340 Cl  0  0  0  0  0  0  0  0  0  0  0  0
  191.0570  176.5030  144.0980 C   0  0  0  0  0  0  0  0  0  0  0  0
  191.5400  177.0660  146.4170 C   0  0  0  0  0  3  0  0  0  0  0  0
  191.6610  175.2540  144.2710 C   0  0  0  0  0  3  0  0  0  0  0  0
  190.4760  176.1770  141.6700 N   0  0  0  0  0  2  0  0  0  0  0  0
  190.5030  176.8960  142.8800 C   0  0  0  0  0  0  0  0  0  0  0  0
  189.8530  179.0390  143.7510 C   0  0  0  0  0  3  0  0  0  0  0  0
  189.4750  178.2180  141.2960 C   0  0  1  0  0  3  0  0  0  0  0  0
  189.8600  176.9400  140.6550 N   0  0  0  0  0  0  0  0  0  0  0  0
  190.3950  178.6820  144.9990 C   0  0  0  0  0  3  0  0  0  0  0  0
  187.9660  178.3840  141.2370 C   0  0  0  0  0  2  0  0  0  0  0  0
  187.3400  177.3720  142.0140 O   0  0  0  0  0  0  0  0  0  0  0  0
  184.3050  178.9060  143.4550 C   0  0  0  0  0  3  0  0  0  0  0  0
  186.1250  177.6540  145.5530 C   0  0  0  0  0  3  0  0  0  0  0  0
  185.1690  178.5630  145.7370 C   0  0  0  0  0  3  0  0  0  0  0  0
  185.0630  178.0950  142.7190 C   0  0  0  0  0  3  0  0  0  0  0  0
  186.4450  177.6600  143.0480 C   0  0  0  0  0  0  0  0  0  0  0  0
  184.7900  179.5670  144.7010 C   0  0  0  0  0  2  0  0  0  0  0  0
  186.8780  177.4470  144.3000 C   0  0  0  0  0  3  0  0  0  0  0  0
  190.8940  177.2530  139.6710 C   0  0  0  0  0  2  0  0  0  0  0  0
  191.6460  176.0180  139.1530 C   0  0  1  0  0  3  0  0  0  0  0  0
  191.4500  175.9240  137.6470 C   0  0  1  0  0  3  0  0  0  0  0  0
  192.8020  176.3160  138.2040 C   0  0  0  0  0  2  0  0  0  0  0  0
  191.4320  174.4720  137.1280 C   0  0  1  0  0  3  0  0  0  0  0  0
  190.3130  173.7510  137.5730 O   0  0  0  0  0  1  0  0  0  0  0  0
  190.6900  173.3930  135.1160 O   0  0  0  0  0  1  0  0  0  0  0  0
  191.5510  174.3920  135.5930 C   0  0  1  0  0  0  0  0  0  0  0  0
  191.2160  175.7590  134.9570 C   0  0  0  0  0  2  0  0  0  0  0  0
  189.1660  177.1740  134.7530 C   0  0  0  0  0  1  0  0  0  0  0  0
  189.8150  175.8610  134.3630 C   0  0  0  0  0  2  0  0  0  0  0  0
  192.9390  174.0460  135.2650 N   0  0  0  0  0  2  0  0  0  0  0  0
  193.4360  172.9780  136.1340 C   0  0  1  0  0  3  0  0  0  0  0  0
  193.4420  171.7750  135.4240 O   0  0  0  0  0  1  0  0  0  0  0  0
  194.8470  173.3080  136.6160 C   0  0  0  0  0  3  0  0  0  0  0  0
  196.0370  174.1100  138.7540 C   0  0  0  0  0  2  0  0  0  0  0  0
  196.7440  174.9850  136.4960 C   0  0  0  0  0  2  0  0  0  0  0  0
  197.1990  174.2730  137.7780 C   0  0  0  0  0  2  0  0  0  0  0  0
  195.2900  174.6830  136.1110 C   0  0  0  0  0  2  0  0  0  0  0  0
  194.9230  173.2410  138.1520 C   0  0  0  0  0  2  0  0  0  0  0  0
  1  5  1  0  0  0  0
  2 10  2  0  0  0  0
  2 11  1  0  0  0  0
  3  7  2  0  0  0  0
  4  1  2  0  0  0  0
  6  8  2  0  0  0  0
  6  3  1  0  0  0  0
  7  1  1  0  0  0  0
  8  4  1  0  0  0  0
  9 10  1  0  0  0  0
 10  6  1  0  0  0  0
 11 14  2  0  0  0  0
 12 15  1  1  0  0  0
 12  2  1  0  0  0  0
 13 12  1  0  0  0  0
 13  9  1  0  0  0  0
 14  3  1  0  0  0  0
 15 16  1  0  0  0  0
 16 21  1  0  0  0  0
 17 22  1  0  0  0  0
 18 19  2  0  0  0  0
 20 21  1  0  0  0  0
 20 17  2  0  0  0  0
 21 23  2  0  0  0  0
 22 19  1  0  0  0  0
 23 18  1  0  0  0  0
 24 13  1  0  0  0  0
 25 24  1  6  0  0  0
 26 28  1  1  0  0  0
 26 27  1  0  0  0  0
 26 25  1  0  0  0  0
 27 25  1  0  0  0  0
 28 29  1  6  0  0  0
 31 30  1  6  0  0  0
 31 28  1  0  0  0  0
 32 31  1  0  0  0  0
 34 33  1  0  0  0  0
 34 32  1  0  0  0  0
 35 31  1  0  0  0  0
 35 36  1  0  0  0  0
 36 37  1  6  0  0  0
 36 38  1  0  0  0  0
 38 43  1  0  0  0  0
 40 41  1  0  0  0  0
 41 39  1  0  0  0  0
 42 40  1  0  0  0  0
 42 38  1  0  0  0  0
 43 39  1  0  0  0  0
M  END
>  <MODEL>
7

>  <REMARK>
 VINA RESULT:      -8.0      3.465      9.176
  Name = 
  12 active torsions:
  status: ('A' for Active; 'I' for Inactive)
    1  A    between atoms: C_1  and  O_28
    2  A    between atoms: C_1  and  C_34
    3  A    between atoms: C_2  and  C_13
    4  A    between atoms: C_4  and  C_12
    5  A    between atoms: C_4  and  C_15
    6  A    between atoms: C_4  and  N_22
    7  A    between atoms: C_6  and  C_12
    8  A    between atoms: C_11  and  C_14
    9  A    between atoms: C_13  and  N_38
   10  A    between atoms: C_14  and  N_22
   11  A    between atoms: C_15  and  C_42
   12  A    between atoms: O_28  and  C_35
                            x       y       z     vdW  Elec       q    Type
                         _______ _______ _______ _____ _____    ______ ____

>  <TORSDO>
F 12

$$$$
=
 OpenBabel10272414253D

 43 48  0  0  1  0  0  0  0  0999 V2000
  191.6580  176.2030  146.8910 C   0  0  0  0  0  0  0  0  0  0  0  0
  187.7190  177.7930  144.2210 C   0  0  0  0  0  0  0  0  0  0  0  0
  189.5180  177.1200  146.2270 C   0  0  0  0  0  0  0  0  0  0  0  0
  191.9810  175.9660  145.5480 C   0  0  0  0  0  3  0  0  0  0  0  0
  192.7990  175.7800  148.1480 Cl  0  0  0  0  0  0  0  0  0  0  0  0
  189.8460  176.8770  144.8670 C   0  0  0  0  0  0  0  0  0  0  0  0
  190.4300  176.7800  147.2290 C   0  0  0  0  0  3  0  0  0  0  0  0
  191.0770  176.3030  144.5350 C   0  0  0  0  0  3  0  0  0  0  0  0
  189.0250  177.1210  142.4990 N   0  0  0  0  0  2  0  0  0  0  0  0
  188.9090  177.2330  143.8980 C   0  0  0  0  0  0  0  0  0  0  0  0
  187.3660  178.0560  145.5470 C   0  0  0  0  0  3  0  0  0  0  0  0
  186.9830  178.0820  142.9590 C   0  0  1  0  0  3  0  0  0  0  0  0
  187.8730  177.6320  141.8640 N   0  0  0  0  0  0  0  0  0  0  0  0
  188.2810  177.7090  146.5580 C   0  0  0  0  0  3  0  0  0  0  0  0
  185.6850  177.2920  142.9190 C   0  0  0  0  0  2  0  0  0  0  0  0
  184.6560  178.0250  143.5710 O   0  0  0  0  0  0  0  0  0  0  0  0
  181.1500  179.1630  143.3520 C   0  0  0  0  0  3  0  0  0  0  0  0
  182.4750  178.8380  140.6280 C   0  0  0  0  0  3  0  0  0  0  0  0
  181.1720  178.8870  140.9040 C   0  0  0  0  0  3  0  0  0  0  0  0
  182.4440  179.1640  143.6690 C   0  0  0  0  0  3  0  0  0  0  0  0
  183.5280  178.5020  142.8990 C   0  0  0  0  0  0  0  0  0  0  0  0
  180.5950  178.4070  142.1930 C   0  0  0  0  0  2  0  0  0  0  0  0
  183.5300  178.3970  141.5620 C   0  0  0  0  0  3  0  0  0  0  0  0
  188.2850  178.8270  141.1330 C   0  0  0  0  0  2  0  0  0  0  0  0
  189.3550  178.5580  140.0650 C   0  0  1  0  0  3  0  0  0  0  0  0
  188.8120  177.5360  139.0770 C   0  0  1  0  0  3  0  0  0  0  0  0
  188.9770  178.9790  138.6480 C   0  0  0  0  0  2  0  0  0  0  0  0
  189.9060  176.6240  138.4850 C   0  0  1  0  0  3  0  0  0  0  0  0
  190.4720  175.7670  139.4410 O   0  0  0  0  0  1  0  0  0  0  0  0
  189.5980  176.5840  136.1040 O   0  0  0  0  0  1  0  0  0  0  0  0
  189.4100  175.8210  137.2660 C   0  0  1  0  0  0  0  0  0  0  0  0
  190.1600  174.4750  137.1700 C   0  0  0  0  0  2  0  0  0  0  0  0
  192.2250  174.3630  135.7670 C   0  0  0  0  0  1  0  0  0  0  0  0
  190.7240  174.1550  135.7890 C   0  0  0  0  0  2  0  0  0  0  0  0
  187.9790  175.5530  137.4530 N   0  0  0  0  0  2  0  0  0  0  0  0
  187.2550  175.6410  136.1840 C   0  0  1  0  0  3  0  0  0  0  0  0
  187.1730  174.3680  135.6150 O   0  0  0  0  0  1  0  0  0  0  0  0
  185.8530  176.2000  136.4180 C   0  0  0  0  0  3  0  0  0  0  0  0
  184.6940  178.0320  137.8080 C   0  0  0  0  0  2  0  0  0  0  0  0
  183.6020  175.7790  137.5040 C   0  0  0  0  0  2  0  0  0  0  0  0
  183.4470  177.2960  137.3270 C   0  0  0  0  0  2  0  0  0  0  0  0
  185.0470  175.2880  137.3450 C   0  0  0  0  0  2  0  0  0  0  0  0
  185.9300  177.6280  136.9910 C   0  0  0  0  0  2  0  0  0  0  0  0
  1  7  1  0  0  0  0
  1  5  1  0  0  0  0
  2 11  1  0  0  0  0
  3 14  1  0  0  0  0
  3  7  2  0  0  0  0
  4  1  2  0  0  0  0
  6  3  1  0  0  0  0
  8  6  2  0  0  0  0
  8  4  1  0  0  0  0
  9 10  1  0  0  0  0
 10  2  2  0  0  0  0
 10  6  1  0  0  0  0
 11 14  2  0  0  0  0
 12 15  1  1  0  0  0
 12  2  1  0  0  0  0
 13  9  1  0  0  0  0
 13 12  1  0  0  0  0
 15 16  1  0  0  0  0
 17 20  2  0  0  0  0
 18 19  2  0  0  0  0
 18 23  1  0  0  0  0
 19 22  1  0  0  0  0
 21 16  1  0  0  0  0
 21 20  1  0  0  0  0
 22 17  1  0  0  0  0
 23 21  2  0  0  0  0
 24 13  1  0  0  0  0
 25 24  1  1  0  0  0
 26 28  1  6  0  0  0
 26 25  1  0  0  0  0
 27 26  1  0  0  0  0
 27 25  1  0  0  0  0
 28 29  1  1  0  0  0
 31 30  1  6  0  0  0
 31 35  1  0  0  0  0
 31 28  1  0  0  0  0
 32 31  1  0  0  0  0
 33 34  1  0  0  0  0
 34 32  1  0  0  0  0
 36 37  1  1  0  0  0
 36 38  1  0  0  0  0
 36 35  1  0  0  0  0
 38 43  1  0  0  0  0
 38 42  1  0  0  0  0
 41 40  1  0  0  0  0
 41 39  1  0  0  0  0
 42 40  1  0  0  0  0
 43 39  1  0  0  0  0
M  END
>  <MODEL>
8

>  <REMARK>
 VINA RESULT:      -8.0      2.934      7.605
  Name = 
  12 active torsions:
  status: ('A' for Active; 'I' for Inactive)
    1  A    between atoms: C_1  and  O_28
    2  A    between atoms: C_1  and  C_34
    3  A    between atoms: C_2  and  C_13
    4  A    between atoms: C_4  and  C_12
    5  A    between atoms: C_4  and  C_15
    6  A    between atoms: C_4  and  N_22
    7  A    between atoms: C_6  and  C_12
    8  A    between atoms: C_11  and  C_14
    9  A    between atoms: C_13  and  N_38
   10  A    between atoms: C_14  and  N_22
   11  A    between atoms: C_15  and  C_42
   12  A    between atoms: O_28  and  C_35
                            x       y       z     vdW  Elec       q    Type
                         _______ _______ _______ _____ _____    ______ ____

>  <TORSDO>
F 12

$$$$
=
 OpenBabel10272414253D

 43 48  0  0  1  0  0  0  0  0999 V2000
  188.1720  177.5000  146.4950 C   0  0  0  0  0  0  0  0  0  0  0  0
  184.3350  178.7140  143.5000 C   0  0  0  0  0  0  0  0  0  0  0  0
  186.0480  178.2930  145.6440 C   0  0  0  0  0  0  0  0  0  0  0  0
  188.5640  177.1350  145.2000 C   0  0  0  0  0  3  0  0  0  0  0  0
  189.2590  177.2340  147.8390 Cl  0  0  0  0  0  0  0  0  0  0  0  0
  186.4460  177.9210  144.3330 C   0  0  0  0  0  0  0  0  0  0  0  0
  186.9180  178.0780  146.7160 C   0  0  0  0  0  3  0  0  0  0  0  0
  187.7030  177.3460  144.1170 C   0  0  0  0  0  3  0  0  0  0  0  0
  185.7350  177.9030  141.9170 N   0  0  0  0  0  2  0  0  0  0  0  0
  185.5500  178.1540  143.2900 C   0  0  0  0  0  0  0  0  0  0  0  0
  183.9140  179.1020  144.7740 C   0  0  0  0  0  3  0  0  0  0  0  0
  183.6550  178.8560  142.1820 C   0  0  1  0  0  3  0  0  0  0  0  0
  184.6050  178.3190  141.1810 N   0  0  0  0  0  0  0  0  0  0  0  0
  184.7860  178.8820  145.8560 C   0  0  0  0  0  3  0  0  0  0  0  0
  182.3760  178.0350  142.1650 C   0  0  0  0  0  2  0  0  0  0  0  0
  181.3330  178.7830  141.5540 O   0  0  0  0  0  0  0  0  0  0  0  0
  180.3180  176.9660  138.5030 C   0  0  0  0  0  3  0  0  0  0  0  0
  181.1930  179.8320  137.9540 C   0  0  0  0  0  3  0  0  0  0  0  0
  181.1070  178.8230  137.0880 C   0  0  0  0  0  3  0  0  0  0  0  0
  180.2320  177.5210  139.7110 C   0  0  0  0  0  3  0  0  0  0  0  0
  181.0260  178.6790  140.1950 C   0  0  0  0  0  0  0  0  0  0  0  0
  181.3110  177.3980  137.4770 C   0  0  0  0  0  2  0  0  0  0  0  0
  181.4120  179.6950  139.4080 C   0  0  0  0  0  3  0  0  0  0  0  0
  185.0280  179.4430  140.3500 C   0  0  0  0  0  2  0  0  0  0  0  0
  185.0480  179.1250  138.8480 C   0  0  1  0  0  3  0  0  0  0  0  0
  186.0360  177.9950  138.6010 C   0  0  1  0  0  3  0  0  0  0  0  0
  184.5500  177.7320  138.4740 C   0  0  0  0  0  2  0  0  0  0  0  0
  186.7310  178.0870  137.2280 C   0  0  1  0  0  3  0  0  0  0  0  0
  186.9830  179.4100  136.8350 O   0  0  0  0  0  1  0  0  0  0  0  0
  188.9990  177.9600  136.4500 O   0  0  0  0  0  1  0  0  0  0  0  0
  188.0230  177.2480  137.1630 C   0  0  1  0  0  0  0  0  0  0  0  0
  188.5160  176.9110  138.5870 C   0  0  0  0  0  2  0  0  0  0  0  0
  189.0980  178.1240  140.6930 C   0  0  0  0  0  1  0  0  0  0  0  0
  189.4150  177.9700  139.2190 C   0  0  0  0  0  2  0  0  0  0  0  0
  187.7140  175.9960  136.4610 N   0  0  0  0  0  2  0  0  0  0  0  0
  186.4420  176.0940  135.7430 C   0  0  1  0  0  3  0  0  0  0  0  0
  186.6970  176.1950  134.3740 O   0  0  0  0  0  1  0  0  0  0  0  0
  185.5850  174.8620  136.0270 C   0  0  0  0  0  3  0  0  0  0  0  0
  183.2300  174.2850  136.8930 C   0  0  0  0  0  2  0  0  0  0  0  0
  185.2190  172.8990  137.5890 C   0  0  0  0  0  2  0  0  0  0  0  0
  183.8310  172.8830  136.9330 C   0  0  0  0  0  2  0  0  0  0  0  0
  185.9970  174.1990  137.3430 C   0  0  0  0  0  2  0  0  0  0  0  0
  184.0920  175.2370  136.0500 C   0  0  0  0  0  2  0  0  0  0  0  0
  1  7  1  0  0  0  0
  1  5  1  0  0  0  0
  2 11  1  0  0  0  0
  3 14  1  0  0  0  0
  3  7  2  0  0  0  0
  4  1  2  0  0  0  0
  6  3  1  0  0  0  0
  8  6  2  0  0  0  0
  8  4  1  0  0  0  0
  9 10  1  0  0  0  0
 10  2  2  0  0  0  0
 10  6  1  0  0  0  0
 11 14  2  0  0  0  0
 12 15  1  1  0  0  0
 12  2  1  0  0  0  0
 13  9  1  0  0  0  0
 13 12  1  0  0  0  0
 16 15  1  0  0  0  0
 17 20  2  0  0  0  0
 18 23  1  0  0  0  0
 19 22  1  0  0  0  0
 19 18  2  0  0  0  0
 20 21  1  0  0  0  0
 21 16  1  0  0  0  0
 22 17  1  0  0  0  0
 23 21  2  0  0  0  0
 24 13  1  0  0  0  0
 25 24  1  1  0  0  0
 26 28  1  6  0  0  0
 26 25  1  0  0  0  0
 27 26  1  0  0  0  0
 27 25  1  0  0  0  0
 28 29  1  1  0  0  0
 31 30  1  6  0  0  0
 31 28  1  0  0  0  0
 31 32  1  0  0  0  0
 32 34  1  0  0  0  0
 34 33  1  0  0  0  0
 35 31  1  0  0  0  0
 36 37  1  6  0  0  0
 36 38  1  0  0  0  0
 36 35  1  0  0  0  0
 38 43  1  0  0  0  0
 38 42  1  0  0  0  0
 39 41  1  0  0  0  0
 41 40  1  0  0  0  0
 42 40  1  0  0  0  0
 43 39  1  0  0  0  0
M  END
>  <MODEL>
9

>  <REMARK>
 VINA RESULT:      -7.8      4.000      8.270
  Name = 
  12 active torsions:
  status: ('A' for Active; 'I' for Inactive)
    1  A    between atoms: C_1  and  O_28
    2  A    between atoms: C_1  and  C_34
    3  A    between atoms: C_2  and  C_13
    4  A    between atoms: C_4  and  C_12
    5  A    between atoms: C_4  and  C_15
    6  A    between atoms: C_4  and  N_22
    7  A    between atoms: C_6  and  C_12
    8  A    between atoms: C_11  and  C_14
    9  A    between atoms: C_13  and  N_38
   10  A    between atoms: C_14  and  N_22
   11  A    between atoms: C_15  and  C_42
   12  A    between atoms: O_28  and  C_35
                            x       y       z     vdW  Elec       q    Type
                         _______ _______ _______ _____ _____    ______ ____

>  <TORSDO>
F 12

$$$$
