=
 OpenBabel10272413593D

 30 33  0  0  1  0  0  0  0  0999 V2000
  188.6620  177.8840  145.9440 C   0  0  0  0  0  0  0  0  0  0  0  0
  186.3220  177.8080  146.5660 C   0  0  0  0  0  3  0  0  0  0  0  0
  185.0730  179.0980  142.7340 O   0  0  0  0  0  0  0  0  0  0  0  0
  188.0400  176.5290  142.9050 C   0  0  0  0  0  2  0  0  0  0  0  0
  189.6370  178.5870  145.1670 N   0  0  0  0  0  0  0  0  0  0  0  0
  191.3800  175.8140  143.8820 C   0  0  1  0  0  3  0  0  0  0  0  0
  190.9440  176.6660  144.9300 O   0  0  0  0  0  0  0  0  0  0  0  0
  191.6660  178.8340  143.9000 C   0  0  0  0  0  1  0  0  0  0  0  0
  188.1010  178.4880  140.5450 C   0  0  2  0  0  3  0  0  0  0  0  0
  185.9040  179.0670  141.6240 C   0  0  0  0  0  0  0  0  0  0  0  0
  190.7160  178.0270  144.7160 C   0  0  0  0  0  0  0  0  0  0  0  0
  189.4220  176.3170  142.4750 N   0  0  0  0  0  0  0  0  0  0  0  0
  184.8570  177.8540  146.2600 C   0  0  0  0  0  2  0  0  0  0  0  0
  189.5850  178.3410  140.8970 C   0  0  0  0  0  2  0  0  0  0  0  0
  192.1690  174.6630  144.4710 C   0  0  0  0  0  1  0  0  0  0  0  0
  189.0300  177.1940  146.9350 O   0  0  0  0  0  0  0  0  0  0  0  0
  185.5120  178.7170  144.0040 C   0  0  0  0  0  0  0  0  0  0  0  0
  184.5780  178.8960  145.1800 C   0  0  1  0  0  3  0  0  0  0  0  0
  190.1690  175.2550  143.1410 C   0  0  0  0  0  2  0  0  0  0  0  0
  187.2310  177.9720  145.5960 C   0  0  0  0  0  0  0  0  0  0  0  0
  187.7100  178.0140  143.0280 C   0  0  1  0  0  3  0  0  0  0  0  0
  185.4890  179.5380  140.5330 O   0  0  0  0  0  0  0  0  0  0  0  0
  187.2270  178.5190  141.7330 N   0  0  0  0  0  0  0  0  0  0  0  0
  190.8650  176.3610  140.6370 O   0  0  0  0  0  0  0  0  0  0  0  0
  183.1250  178.7880  144.7550 C   0  0  0  0  0  1  0  0  0  0  0  0
  186.7740  178.2690  144.2000 C   0  0  0  0  0  0  0  0  0  0  0  0
  189.9760  176.9500  141.3060 C   0  0  0  0  0  0  0  0  0  0  0  0
  187.6670  177.4710  139.4770 C   0  0  2  0  0  3  0  0  0  0  0  0
  188.7670  177.2500  138.4600 C   0  0  0  0  0  1  0  0  0  0  0  0
  186.4890  177.8580  138.8340 O   0  0  0  0  0  1  0  0  0  0  0  0
  1 16  2  0  0  0  0
  3 17  1  0  0  0  0
  5  1  1  0  0  0  0
  6 15  1  1  0  0  0
  6  7  1  0  0  0  0
  8 11  1  0  0  0  0
  9 28  1  6  0  0  0
  9 14  1  0  0  0  0
  9 23  1  0  0  0  0
 10 23  1  0  0  0  0
 10  3  1  0  0  0  0
 11  7  1  0  0  0  0
 11  5  2  0  0  0  0
 12  4  1  0  0  0  0
 12 19  1  0  0  0  0
 13  2  1  0  0  0  0
 14 27  1  0  0  0  0
 17 26  2  0  0  0  0
 17 18  1  0  0  0  0
 18 25  1  6  0  0  0
 18 13  1  0  0  0  0
 19  6  1  0  0  0  0
 20  1  1  0  0  0  0
 20  2  2  0  0  0  0
 21  4  1  6  0  0  0
 21 26  1  0  0  0  0
 22 10  2  0  0  0  0
 23 21  1  0  0  0  0
 24 27  2  0  0  0  0
 26 20  1  0  0  0  0
 27 12  1  0  0  0  0
 28 29  1  6  0  0  0
 30 28  1  0  0  0  0
M  END
>  <MODEL>
1

>  <REMARK>
 VINA RESULT:     -10.3      0.000      0.000
  Name = 
  1 active torsions:
  status: ('A' for Active; 'I' for Inactive)
    1  A    between atoms: C_7  and  C_10
                            x       y       z     vdW  Elec       q    Type
                         _______ _______ _______ _____ _____    ______ ____

>  <TORSDO>
F 1

$$$$
