=
 OpenBabel10272415303D

 34 38  0  0  1  0  0  0  0  0999 V2000
  184.4990  178.5720  139.8860 C   0  0  1  0  0  0  0  0  0  0  0  0
  185.6890  177.1670  136.7360 O   0  0  0  0  0  0  0  0  0  0  0  0
  183.5220  177.8870  137.6980 C   0  0  1  0  0  3  0  0  0  0  0  0
  184.7780  179.9420  139.9560 O   0  0  0  0  0  1  0  0  0  0  0  0
  183.1760  178.3100  139.1330 C   0  0  2  0  0  3  0  0  0  0  0  0
  187.7840  177.4670  135.6450 C   0  0  0  0  0  1  0  0  0  0  0  0
  187.1050  177.1580  136.9640 C   0  0  1  0  0  0  0  0  0  0  0  0
  187.6200  178.2170  137.9920 C   0  0  0  0  0  2  0  0  0  0  0  0
  185.0340  178.0640  137.6060 C   0  0  1  0  0  3  0  0  0  0  0  0
  186.8560  178.3610  139.1880 O   0  0  0  0  0  0  0  0  0  0  0  0
  185.5380  177.8820  139.0190 C   0  0  1  0  0  3  0  0  0  0  0  0
  187.6000  175.7680  137.4110 C   0  0  1  0  0  3  0  0  0  0  0  0
  186.6710  174.6600  137.0820 C   0  0  0  0  0  2  0  0  0  0  0  0
  187.8050  174.9340  136.2940 O   0  0  0  0  0  0  0  0  0  0  0  0
  181.8070  179.9060  137.9390 O   0  0  0  0  0  1  0  0  0  0  0  0
  182.1480  179.4440  139.2130 C   0  0  1  0  0  3  0  0  0  0  0  0
  180.9010  178.9730  139.9350 C   0  0  0  0  0  1  0  0  0  0  0  0
  183.1130  176.4870  137.5020 C   0  0  0  0  0  0  0  0  0  0  0  0
  182.7810  175.3390  137.3400 C   0  0  0  0  0  3  0  0  0  0  0  0
  184.4790  177.9890  141.3010 C   0  0  0  0  0  2  0  0  0  0  0  0
  185.5580  178.5780  142.2060 C   0  0  2  0  0  3  0  0  0  0  0  0
  186.2830  177.4610  142.9380 C   0  0  0  0  0  2  0  0  0  0  0  0
  189.4630  177.8310  145.8790 C   0  0  2  0  0  3  0  0  0  0  0  0
  189.6410  176.8880  147.0550 C   0  0  0  0  0  2  0  0  0  0  0  0
  188.0180  178.0940  146.3260 C   0  0  1  0  0  3  0  0  0  0  0  0
  188.1950  177.9150  148.7930 C   0  0  0  0  0  1  0  0  0  0  0  0
  186.9770  177.5380  145.3500 C   0  0  0  0  0  2  0  0  0  0  0  0
  188.2050  177.1400  147.4890 C   0  0  2  0  0  3  0  0  0  0  0  0
  188.7090  177.7020  143.4770 C   0  0  0  0  0  2  0  0  0  0  0  0
  187.2780  178.0310  143.9340 C   0  0  1  0  0  3  0  0  0  0  0  0
  189.5580  177.0460  144.5670 C   0  0  0  0  0  2  0  0  0  0  0  0
  184.9480  179.4800  143.1700 N   0  0  0  0  0  2  0  0  0  0  0  0
  183.5000  178.9530  145.0380 C   0  0  0  0  0  1  0  0  0  0  0  0
  183.6650  178.9040  143.5340 C   0  0  0  0  0  2  0  0  0  0  0  0
  1  4  1  1  0  0  0
  1 20  1  0  0  0  0
  2  7  1  0  0  0  0
  3 18  1  1  0  0  0
  3  5  1  0  0  0  0
  5 16  1  6  0  0  0
  5  1  1  0  0  0  0
  7  6  1  6  0  0  0
  7 12  1  0  0  0  0
  7  8  1  0  0  0  0
  8 10  1  0  0  0  0
  9  2  1  6  0  0  0
  9  3  1  0  0  0  0
  9 11  1  0  0  0  0
 11 10  1  6  0  0  0
 11  1  1  0  0  0  0
 12 13  1  1  0  0  0
 14 13  1  0  0  0  0
 14 12  1  0  0  0  0
 15 16  1  0  0  0  0
 16 17  1  6  0  0  0
 19 18  3  0  0  0  0
 21 20  1  6  0  0  0
 21 22  1  0  0  0  0
 21 32  1  0  0  0  0
 23 31  1  6  0  0  0
 23 25  1  0  0  0  0
 23 24  1  0  0  0  0
 24 28  1  0  0  0  0
 25 27  1  6  0  0  0
 25 28  1  0  0  0  0
 28 26  1  1  0  0  0
 29 30  1  0  0  0  0
 29 31  1  0  0  0  0
 30 22  1  6  0  0  0
 30 27  1  0  0  0  0
 32 34  1  0  0  0  0
 34 33  1  0  0  0  0
M  END
>  <MODEL>
1

>  <REMARK>
 VINA RESULT:      -7.8      0.000      0.000
  Name = 
  9 active torsions:
  status: ('A' for Active; 'I' for Inactive)
    1  A    between atoms: C_1  and  C_8
    2  A    between atoms: C_3  and  C_25
    3  A    between atoms: C_5  and  C_19
    4  A    between atoms: C_6  and  C_18
    5  A    between atoms: C_6  and  C_28
    6  A    between atoms: C_8  and  C_18
    7  A    between atoms: C_12  and  C_20
    8  A    between atoms: C_18  and  N_30
    9  A    between atoms: N_30  and  C_31
                            x       y       z     vdW  Elec       q    Type
                         _______ _______ _______ _____ _____    ______ ____

>  <TORSDO>
F 9

$$$$
=
 OpenBabel10272415303D

 34 38  0  0  1  0  0  0  0  0999 V2000
  189.1450  177.4160  138.5430 C   0  0  1  0  0  0  0  0  0  0  0  0
  191.1350  175.7210  135.9980 O   0  0  0  0  0  0  0  0  0  0  0  0
  188.8530  176.6700  136.1840 C   0  0  1  0  0  3  0  0  0  0  0  0
  189.5150  178.7620  138.6510 O   0  0  0  0  0  1  0  0  0  0  0  0
  188.1100  177.2110  137.4140 C   0  0  2  0  0  3  0  0  0  0  0  0
  193.4870  175.7850  135.6310 C   0  0  0  0  0  1  0  0  0  0  0  0
  192.3970  175.6160  136.6710 C   0  0  1  0  0  0  0  0  0  0  0  0
  192.6570  176.6960  137.7720 C   0  0  0  0  0  2  0  0  0  0  0  0
  190.3260  176.7220  136.5780 C   0  0  1  0  0  3  0  0  0  0  0  0
  191.5700  176.9760  138.6510 O   0  0  0  0  0  0  0  0  0  0  0  0
  190.3340  176.5920  138.0830 C   0  0  1  0  0  3  0  0  0  0  0  0
  192.5900  174.2230  137.3030 C   0  0  1  0  0  3  0  0  0  0  0  0
  192.0150  173.1120  136.5070 C   0  0  0  0  0  2  0  0  0  0  0  0
  193.3910  173.4120  136.4750 O   0  0  0  0  0  0  0  0  0  0  0  0
  187.0980  178.6330  135.7420 O   0  0  0  0  0  1  0  0  0  0  0  0
  187.2230  178.4250  137.1170 C   0  0  1  0  0  3  0  0  0  0  0  0
  185.8510  178.2350  137.7320 C   0  0  0  0  0  1  0  0  0  0  0  0
  188.3970  175.2970  135.9160 C   0  0  0  0  0  0  0  0  0  0  0  0
  188.0240  174.1710  135.6950 C   0  0  0  0  0  3  0  0  0  0  0  0
  188.6200  176.9290  139.8970 C   0  0  0  0  0  2  0  0  0  0  0  0
  189.3140  177.5950  141.0820 C   0  0  2  0  0  3  0  0  0  0  0  0
  189.5740  176.5670  142.1710 C   0  0  0  0  0  2  0  0  0  0  0  0
  191.1730  177.2460  146.1560 C   0  0  2  0  0  3  0  0  0  0  0  0
  190.6870  176.5180  147.3970 C   0  0  0  0  0  2  0  0  0  0  0  0
  189.7300  177.6790  145.8620 C   0  0  1  0  0  3  0  0  0  0  0  0
  188.7870  177.9320  148.1420 C   0  0  0  0  0  1  0  0  0  0  0  0
  189.1520  177.0280  144.6020 C   0  0  0  0  0  2  0  0  0  0  0  0
  189.2570  176.9380  147.0970 C   0  0  2  0  0  3  0  0  0  0  0  0
  191.5300  176.7400  143.7120 C   0  0  0  0  0  2  0  0  0  0  0  0
  190.1050  177.2390  143.4250 C   0  0  1  0  0  3  0  0  0  0  0  0
  191.7200  176.2340  145.1440 C   0  0  0  0  0  2  0  0  0  0  0  0
  188.4730  178.6600  141.6050 N   0  0  0  0  0  2  0  0  0  0  0  0
  186.2620  178.2910  142.5220 C   0  0  0  0  0  1  0  0  0  0  0  0
  187.1020  178.3210  141.2630 C   0  0  0  0  0  2  0  0  0  0  0  0
  1  4  1  1  0  0  0
  1 20  1  0  0  0  0
  2  7  1  0  0  0  0
  3 18  1  1  0  0  0
  3  9  1  0  0  0  0
  3  5  1  0  0  0  0
  5 16  1  6  0  0  0
  5  1  1  0  0  0  0
  7  6  1  6  0  0  0
  7 12  1  0  0  0  0
  7  8  1  0  0  0  0
  8 10  1  0  0  0  0
  9  2  1  6  0  0  0
  9 11  1  0  0  0  0
 11  1  1  0  0  0  0
 11 10  1  1  0  0  0
 12 13  1  6  0  0  0
 14 13  1  0  0  0  0
 14 12  1  0  0  0  0
 15 16  1  0  0  0  0
 16 17  1  6  0  0  0
 19 18  3  0  0  0  0
 21 20  1  6  0  0  0
 21 32  1  0  0  0  0
 21 22  1  0  0  0  0
 23 31  1  6  0  0  0
 23 24  1  0  0  0  0
 25 27  1  6  0  0  0
 25 23  1  0  0  0  0
 25 28  1  0  0  0  0
 28 24  1  0  0  0  0
 28 26  1  1  0  0  0
 29 31  1  0  0  0  0
 30 22  1  6  0  0  0
 30 29  1  0  0  0  0
 30 27  1  0  0  0  0
 34 32  1  0  0  0  0
 34 33  1  0  0  0  0
M  END
>  <MODEL>
2

>  <REMARK>
 VINA RESULT:      -7.1      3.007      4.550
  Name = 
  9 active torsions:
  status: ('A' for Active; 'I' for Inactive)
    1  A    between atoms: C_1  and  C_8
    2  A    between atoms: C_3  and  C_25
    3  A    between atoms: C_5  and  C_19
    4  A    between atoms: C_6  and  C_18
    5  A    between atoms: C_6  and  C_28
    6  A    between atoms: C_8  and  C_18
    7  A    between atoms: C_12  and  C_20
    8  A    between atoms: C_18  and  N_30
    9  A    between atoms: N_30  and  C_31
                            x       y       z     vdW  Elec       q    Type
                         _______ _______ _______ _____ _____    ______ ____

>  <TORSDO>
F 9

$$$$
=
 OpenBabel10272415303D

 34 38  0  0  1  0  0  0  0  0999 V2000
  184.1950  178.5530  139.4720 C   0  0  1  0  0  0  0  0  0  0  0  0
  185.2210  177.0450  136.3130 O   0  0  0  0  0  0  0  0  0  0  0  0
  183.0940  177.6700  137.4190 C   0  0  1  0  0  3  0  0  0  0  0  0
  184.3760  179.9410  139.4430 O   0  0  0  0  0  1  0  0  0  0  0  0
  182.8370  178.1540  138.8540 C   0  0  2  0  0  3  0  0  0  0  0  0
  187.1910  177.4230  135.0280 C   0  0  0  0  0  1  0  0  0  0  0  0
  186.6480  177.1480  136.4170 C   0  0  1  0  0  0  0  0  0  0  0  0
  187.1670  178.3020  137.3370 C   0  0  0  0  0  2  0  0  0  0  0  0
  184.5760  177.9460  137.1860 C   0  0  1  0  0  3  0  0  0  0  0  0
  186.4960  178.4650  138.5850 O   0  0  0  0  0  0  0  0  0  0  0  0
  185.2070  177.8850  138.5580 C   0  0  1  0  0  3  0  0  0  0  0  0
  187.2820  175.8260  136.8940 C   0  0  1  0  0  3  0  0  0  0  0  0
  186.3230  174.6990  136.9940 C   0  0  0  0  0  2  0  0  0  0  0  0
  187.1860  174.8420  135.8900 O   0  0  0  0  0  0  0  0  0  0  0  0
  181.3520  179.6700  137.6970 O   0  0  0  0  0  1  0  0  0  0  0  0
  181.7380  179.2160  138.9600 C   0  0  1  0  0  3  0  0  0  0  0  0
  180.5350  178.6550  139.6910 C   0  0  0  0  0  1  0  0  0  0  0  0
  182.7760  176.2350  137.3360 C   0  0  0  0  0  0  0  0  0  0  0  0
  182.5140  175.0600  137.2690 C   0  0  0  0  0  3  0  0  0  0  0  0
  184.3360  178.0570  140.9140 C   0  0  0  0  0  2  0  0  0  0  0  0
  184.2670  179.1830  141.9430 C   0  0  2  0  0  3  0  0  0  0  0  0
  185.6280  179.3730  142.5910 C   0  0  0  0  0  2  0  0  0  0  0  0
  188.8380  176.4600  142.9300 C   0  0  2  0  0  3  0  0  0  0  0  0
  190.3120  176.8230  142.9300 C   0  0  0  0  0  2  0  0  0  0  0  0
  188.6660  177.2110  141.6010 C   0  0  1  0  0  3  0  0  0  0  0  0
  190.8620  176.8420  140.5080 C   0  0  0  0  0  1  0  0  0  0  0  0
  187.8080  178.4720  141.7310 C   0  0  0  0  0  2  0  0  0  0  0  0
  190.1380  177.5770  141.6200 C   0  0  2  0  0  3  0  0  0  0  0  0
  186.6720  177.4370  143.7730 C   0  0  0  0  0  2  0  0  0  0  0  0
  186.4830  178.1300  142.4140 C   0  0  1  0  0  3  0  0  0  0  0  0
  188.1370  177.1440  144.1070 C   0  0  0  0  0  2  0  0  0  0  0  0
  183.2820  178.8530  142.9610 N   0  0  0  0  0  2  0  0  0  0  0  0
  183.6440  178.7970  145.3550 C   0  0  0  0  0  1  0  0  0  0  0  0
  183.5830  179.6730  144.1220 C   0  0  0  0  0  2  0  0  0  0  0  0
  1  4  1  6  0  0  0
  1 20  1  0  0  0  0
  2  7  1  0  0  0  0
  3 18  1  1  0  0  0
  3  5  1  0  0  0  0
  5 16  1  6  0  0  0
  5  1  1  0  0  0  0
  7  6  1  6  0  0  0
  7 12  1  0  0  0  0
  7  8  1  0  0  0  0
  8 10  1  0  0  0  0
  9  2  1  6  0  0  0
  9  3  1  0  0  0  0
  9 11  1  0  0  0  0
 11 10  1  6  0  0  0
 11  1  1  0  0  0  0
 12 13  1  1  0  0  0
 14 12  1  0  0  0  0
 14 13  1  0  0  0  0
 15 16  1  0  0  0  0
 16 17  1  6  0  0  0
 19 18  3  0  0  0  0
 21 20  1  6  0  0  0
 21 22  1  0  0  0  0
 21 32  1  0  0  0  0
 23 24  1  1  0  0  0
 23 31  1  0  0  0  0
 25 28  1  0  0  0  0
 25 27  1  1  0  0  0
 25 23  1  0  0  0  0
 27 30  1  0  0  0  0
 28 26  1  6  0  0  0
 28 24  1  0  0  0  0
 29 31  1  0  0  0  0
 30 22  1  1  0  0  0
 30 29  1  0  0  0  0
 32 34  1  0  0  0  0
 34 33  1  0  0  0  0
M  END
>  <MODEL>
3

>  <REMARK>
 VINA RESULT:      -7.0      1.494      2.481
  Name = 
  9 active torsions:
  status: ('A' for Active; 'I' for Inactive)
    1  A    between atoms: C_1  and  C_8
    2  A    between atoms: C_3  and  C_25
    3  A    between atoms: C_5  and  C_19
    4  A    between atoms: C_6  and  C_18
    5  A    between atoms: C_6  and  C_28
    6  A    between atoms: C_8  and  C_18
    7  A    between atoms: C_12  and  C_20
    8  A    between atoms: C_18  and  N_30
    9  A    between atoms: N_30  and  C_31
                            x       y       z     vdW  Elec       q    Type
                         _______ _______ _______ _____ _____    ______ ____

>  <TORSDO>
F 9

$$$$
=
 OpenBabel10272415303D

 34 38  0  0  1  0  0  0  0  0999 V2000
  185.0410  177.9450  138.6640 C   0  0  1  0  0  0  0  0  0  0  0  0
  187.7990  176.5170  136.7490 O   0  0  0  0  0  0  0  0  0  0  0  0
  185.3220  176.4310  136.7050 C   0  0  1  0  0  3  0  0  0  0  0  0
  184.8190  179.2780  138.2980 O   0  0  0  0  0  1  0  0  0  0  0  0
  184.3020  176.9760  137.7150 C   0  0  2  0  0  3  0  0  0  0  0  0
  189.9450  177.4340  136.2790 C   0  0  0  0  0  1  0  0  0  0  0  0
  188.9180  177.1700  137.3620 C   0  0  1  0  0  0  0  0  0  0  0  0
  188.6020  178.5510  138.0250 C   0  0  0  0  0  2  0  0  0  0  0  0
  186.5980  177.2160  136.9950 C   0  0  1  0  0  3  0  0  0  0  0  0
  187.4110  178.6180  138.8070 O   0  0  0  0  0  0  0  0  0  0  0  0
  186.5040  177.5930  138.4550 C   0  0  1  0  0  3  0  0  0  0  0  0
  189.5960  176.2710  138.4150 C   0  0  1  0  0  3  0  0  0  0  0  0
  191.0030  176.6370  138.7080 C   0  0  0  0  0  2  0  0  0  0  0  0
  189.9460  177.0220  139.5550 O   0  0  0  0  0  0  0  0  0  0  0  0
  183.1660  177.6160  135.6790 O   0  0  0  0  0  1  0  0  0  0  0  0
  183.0340  177.5420  137.0680 C   0  0  1  0  0  3  0  0  0  0  0  0
  181.8360  176.6830  137.4210 C   0  0  0  0  0  1  0  0  0  0  0  0
  185.4950  174.9870  136.9330 C   0  0  0  0  0  0  0  0  0  0  0  0
  185.6350  173.8030  137.1180 C   0  0  0  0  0  3  0  0  0  0  0  0
  184.6250  177.7480  140.1240 C   0  0  0  0  0  2  0  0  0  0  0  0
  184.2720  179.0550  140.8270 C   0  0  2  0  0  3  0  0  0  0  0  0
  185.3700  179.4230  141.8110 C   0  0  0  0  0  2  0  0  0  0  0  0
  187.5780  176.7630  144.4480 C   0  0  2  0  0  3  0  0  0  0  0  0
  189.0270  176.9770  144.8430 C   0  0  0  0  0  2  0  0  0  0  0  0
  187.9850  176.8340  142.9680 C   0  0  1  0  0  3  0  0  0  0  0  0
  190.2610  175.8470  143.0080 C   0  0  0  0  0  1  0  0  0  0  0  0
  187.4400  178.0730  142.2540 C   0  0  0  0  0  2  0  0  0  0  0  0
  189.4280  177.0590  143.3780 C   0  0  2  0  0  3  0  0  0  0  0  0
  185.5440  178.1720  143.9650 C   0  0  0  0  0  2  0  0  0  0  0  0
  185.9300  178.1790  142.4770 C   0  0  1  0  0  3  0  0  0  0  0  0
  186.7350  177.9590  144.9020 C   0  0  0  0  0  2  0  0  0  0  0  0
  183.0110  178.9040  141.5350 N   0  0  0  0  0  2  0  0  0  0  0  0
  180.9440  177.8610  140.8230 C   0  0  0  0  0  1  0  0  0  0  0  0
  181.9570  178.9480  140.5350 C   0  0  0  0  0  2  0  0  0  0  0  0
  1  4  1  6  0  0  0
  1 20  1  0  0  0  0
  2  7  1  0  0  0  0
  3 18  1  1  0  0  0
  3  9  1  0  0  0  0
  3  5  1  0  0  0  0
  5 16  1  6  0  0  0
  5  1  1  0  0  0  0
  7  6  1  6  0  0  0
  7  8  1  0  0  0  0
  7 12  1  0  0  0  0
  8 10  1  0  0  0  0
  9  2  1  1  0  0  0
  9 11  1  0  0  0  0
 11  1  1  0  0  0  0
 11 10  1  6  0  0  0
 12 13  1  6  0  0  0
 12 14  1  0  0  0  0
 13 14  1  0  0  0  0
 15 16  1  0  0  0  0
 16 17  1  6  0  0  0
 18 19  3  0  0  0  0
 21 20  1  1  0  0  0
 21 32  1  0  0  0  0
 21 22  1  0  0  0  0
 23 24  1  1  0  0  0
 23 31  1  0  0  0  0
 25 27  1  1  0  0  0
 25 28  1  0  0  0  0
 25 23  1  0  0  0  0
 27 30  1  0  0  0  0
 28 26  1  6  0  0  0
 28 24  1  0  0  0  0
 29 31  1  0  0  0  0
 30 22  1  1  0  0  0
 30 29  1  0  0  0  0
 34 33  1  0  0  0  0
 34 32  1  0  0  0  0
M  END
>  <MODEL>
4

>  <REMARK>
 VINA RESULT:      -6.5      1.737      3.036
  Name = 
  9 active torsions:
  status: ('A' for Active; 'I' for Inactive)
    1  A    between atoms: C_1  and  C_8
    2  A    between atoms: C_3  and  C_25
    3  A    between atoms: C_5  and  C_19
    4  A    between atoms: C_6  and  C_18
    5  A    between atoms: C_6  and  C_28
    6  A    between atoms: C_8  and  C_18
    7  A    between atoms: C_12  and  C_20
    8  A    between atoms: C_18  and  N_30
    9  A    between atoms: N_30  and  C_31
                            x       y       z     vdW  Elec       q    Type
                         _______ _______ _______ _____ _____    ______ ____

>  <TORSDO>
F 9

$$$$
=
 OpenBabel10272415303D

 34 38  0  0  1  0  0  0  0  0999 V2000
  189.6990  177.0720  139.5360 C   0  0  1  0  0  0  0  0  0  0  0  0
  191.6460  176.1340  136.5970 O   0  0  0  0  0  0  0  0  0  0  0  0
  189.3110  176.8030  137.0900 C   0  0  1  0  0  3  0  0  0  0  0  0
  189.9630  178.3960  139.9070 O   0  0  0  0  0  1  0  0  0  0  0  0
  188.6110  177.0050  138.4410 C   0  0  2  0  0  3  0  0  0  0  0  0
  193.9540  176.4960  136.1370 C   0  0  0  0  0  1  0  0  0  0  0  0
  192.9560  176.0140  137.1700 C   0  0  1  0  0  0  0  0  0  0  0  0
  193.1990  176.8640  138.4590 C   0  0  0  0  0  2  0  0  0  0  0  0
  190.7980  176.9120  137.4140 C   0  0  1  0  0  3  0  0  0  0  0  0
  192.1550  176.8530  139.4300 O   0  0  0  0  0  0  0  0  0  0  0  0
  190.9190  176.4770  138.8550 C   0  0  1  0  0  3  0  0  0  0  0  0
  193.3070  174.5460  137.4840 C   0  0  1  0  0  3  0  0  0  0  0  0
  192.3330  173.5640  136.9490 C   0  0  0  0  0  2  0  0  0  0  0  0
  193.5510  173.8310  136.2950 O   0  0  0  0  0  0  0  0  0  0  0  0
  187.9870  179.1660  137.5540 O   0  0  0  0  0  1  0  0  0  0  0  0
  187.6090  178.1640  138.4500 C   0  0  1  0  0  3  0  0  0  0  0  0
  186.2230  177.6610  138.0990 C   0  0  0  0  0  1  0  0  0  0  0  0
  188.9540  175.4760  136.5620 C   0  0  0  0  0  0  0  0  0  0  0  0
  188.6630  174.3890  136.1270 C   0  0  0  0  0  3  0  0  0  0  0  0
  189.3100  176.2690  140.7810 C   0  0  0  0  0  2  0  0  0  0  0  0
  189.3240  177.1040  142.0590 C   0  0  2  0  0  3  0  0  0  0  0  0
  188.0130  177.8620  142.1930 C   0  0  0  0  0  2  0  0  0  0  0  0
  185.8260  177.8950  145.9510 C   0  0  2  0  0  3  0  0  0  0  0  0
  186.1820  178.7840  147.1280 C   0  0  0  0  0  2  0  0  0  0  0  0
  187.2630  177.3520  145.9430 C   0  0  1  0  0  3  0  0  0  0  0  0
  187.8560  177.4170  148.3510 C   0  0  0  0  0  1  0  0  0  0  0  0
  188.0560  177.7700  144.7020 C   0  0  0  0  0  2  0  0  0  0  0  0
  187.6080  178.2550  147.1120 C   0  0  2  0  0  3  0  0  0  0  0  0
  185.8520  178.0260  143.4330 C   0  0  0  0  0  2  0  0  0  0  0  0
  187.2660  177.4210  143.4400 C   0  0  1  0  0  3  0  0  0  0  0  0
  185.4990  178.7590  144.7290 C   0  0  0  0  0  2  0  0  0  0  0  0
  190.4320  178.0440  142.0160 N   0  0  0  0  0  2  0  0  0  0  0  0
  191.6070  178.6670  144.0400 C   0  0  0  0  0  1  0  0  0  0  0  0
  191.4070  177.5920  142.9930 C   0  0  0  0  0  2  0  0  0  0  0  0
  1  4  1  1  0  0  0
  1 20  1  0  0  0  0
  2  7  1  0  0  0  0
  3 18  1  1  0  0  0
  3  9  1  0  0  0  0
  3  5  1  0  0  0  0
  5 16  1  6  0  0  0
  5  1  1  0  0  0  0
  7  6  1  6  0  0  0
  7 12  1  0  0  0  0
  7  8  1  0  0  0  0
  8 10  1  0  0  0  0
  9  2  1  6  0  0  0
  9 11  1  0  0  0  0
 11 10  1  1  0  0  0
 11  1  1  0  0  0  0
 12 13  1  6  0  0  0
 14 13  1  0  0  0  0
 14 12  1  0  0  0  0
 15 16  1  0  0  0  0
 16 17  1  6  0  0  0
 19 18  3  0  0  0  0
 21 20  1  6  0  0  0
 21 22  1  0  0  0  0
 23 31  1  6  0  0  0
 23 24  1  0  0  0  0
 25 27  1  6  0  0  0
 25 23  1  0  0  0  0
 25 28  1  0  0  0  0
 28 24  1  0  0  0  0
 28 26  1  1  0  0  0
 29 30  1  0  0  0  0
 29 31  1  0  0  0  0
 30 22  1  6  0  0  0
 30 27  1  0  0  0  0
 32 21  1  0  0  0  0
 32 34  1  0  0  0  0
 34 33  1  0  0  0  0
M  END
>  <MODEL>
5

>  <REMARK>
 VINA RESULT:      -6.3      3.358      5.191
  Name = 
  9 active torsions:
  status: ('A' for Active; 'I' for Inactive)
    1  A    between atoms: C_1  and  C_8
    2  A    between atoms: C_3  and  C_25
    3  A    between atoms: C_5  and  C_19
    4  A    between atoms: C_6  and  C_18
    5  A    between atoms: C_6  and  C_28
    6  A    between atoms: C_8  and  C_18
    7  A    between atoms: C_12  and  C_20
    8  A    between atoms: C_18  and  N_30
    9  A    between atoms: N_30  and  C_31
                            x       y       z     vdW  Elec       q    Type
                         _______ _______ _______ _____ _____    ______ ____

>  <TORSDO>
F 9

$$$$
=
 OpenBabel10272415303D

 34 38  0  0  1  0  0  0  0  0999 V2000
  186.0500  177.8400  137.7880 C   0  0  1  0  0  0  0  0  0  0  0  0
  189.3560  176.3130  137.5690 O   0  0  0  0  0  0  0  0  0  0  0  0
  187.1910  176.1340  136.3760 C   0  0  1  0  0  3  0  0  0  0  0  0
  186.0520  179.1170  137.2140 O   0  0  0  0  0  1  0  0  0  0  0  0
  185.8260  176.7470  136.7200 C   0  0  2  0  0  3  0  0  0  0  0  0
  191.4880  177.2520  138.0630 C   0  0  0  0  0  1  0  0  0  0  0  0
  190.0670  177.0700  138.5590 C   0  0  1  0  0  0  0  0  0  0  0  0
  189.5020  178.5020  138.8350 C   0  0  0  0  0  2  0  0  0  0  0  0
  188.1950  176.9910  137.1410 C   0  0  1  0  0  3  0  0  0  0  0  0
  188.0850  178.6100  138.9520 O   0  0  0  0  0  0  0  0  0  0  0  0
  187.4310  177.5210  138.3330 C   0  0  1  0  0  3  0  0  0  0  0  0
  190.1510  176.3150  139.9000 C   0  0  1  0  0  3  0  0  0  0  0  0
  191.1570  176.8650  140.8410 C   0  0  0  0  0  2  0  0  0  0  0  0
  189.7860  177.1600  140.9660 O   0  0  0  0  0  0  0  0  0  0  0  0
  185.3660  176.4440  134.3660 O   0  0  0  0  0  1  0  0  0  0  0  0
  185.0230  177.1940  135.4930 C   0  0  1  0  0  3  0  0  0  0  0  0
  183.5380  177.0620  135.7620 C   0  0  0  0  0  1  0  0  0  0  0  0
  187.2080  174.7310  136.8200 C   0  0  0  0  0  0  0  0  0  0  0  0
  187.2200  173.5800  137.1810 C   0  0  0  0  0  3  0  0  0  0  0  0
  184.9910  177.7870  138.8930 C   0  0  0  0  0  2  0  0  0  0  0  0
  184.9470  179.0550  139.7410 C   0  0  2  0  0  3  0  0  0  0  0  0
  184.3020  178.7540  141.0840 C   0  0  0  0  0  2  0  0  0  0  0  0
  187.0080  178.1910  144.4400 C   0  0  2  0  0  3  0  0  0  0  0  0
  186.7200  177.2700  145.6120 C   0  0  0  0  0  2  0  0  0  0  0  0
  185.6690  178.9020  144.6890 C   0  0  1  0  0  3  0  0  0  0  0  0
  185.4440  178.7390  147.1540 C   0  0  0  0  0  1  0  0  0  0  0  0
  184.6500  178.6730  143.5690 C   0  0  0  0  0  2  0  0  0  0  0  0
  185.3900  177.9670  145.8490 C   0  0  2  0  0  3  0  0  0  0  0  0
  186.5850  178.2420  141.9550 C   0  0  0  0  0  2  0  0  0  0  0  0
  185.2800  179.0120  142.2170 C   0  0  1  0  0  3  0  0  0  0  0  0
  187.0310  177.3820  143.1400 C   0  0  0  0  0  2  0  0  0  0  0  0
  184.1820  180.0790  139.0490 N   0  0  0  0  0  2  0  0  0  0  0  0
  181.9330  180.7150  138.4120 C   0  0  0  0  0  1  0  0  0  0  0  0
  182.7830  179.6990  139.1450 C   0  0  0  0  0  2  0  0  0  0  0  0
  1  4  1  6  0  0  0
  1 11  1  0  0  0  0
  1 20  1  0  0  0  0
  2  7  1  0  0  0  0
  3  5  1  0  0  0  0
  3 18  1  1  0  0  0
  3  9  1  0  0  0  0
  5 16  1  6  0  0  0
  5  1  1  0  0  0  0
  7  6  1  6  0  0  0
  7  8  1  0  0  0  0
  7 12  1  0  0  0  0
  8 10  1  0  0  0  0
  9  2  1  1  0  0  0
  9 11  1  0  0  0  0
 11 10  1  6  0  0  0
 12 13  1  1  0  0  0
 12 14  1  0  0  0  0
 13 14  1  0  0  0  0
 15 16  1  0  0  0  0
 16 17  1  1  0  0  0
 18 19  3  0  0  0  0
 21 20  1  6  0  0  0
 21 22  1  0  0  0  0
 23 31  1  6  0  0  0
 23 25  1  0  0  0  0
 23 24  1  0  0  0  0
 24 28  1  0  0  0  0
 25 27  1  6  0  0  0
 25 28  1  0  0  0  0
 28 26  1  1  0  0  0
 29 30  1  0  0  0  0
 29 31  1  0  0  0  0
 30 22  1  6  0  0  0
 30 27  1  0  0  0  0
 32 34  1  0  0  0  0
 32 21  1  0  0  0  0
 33 34  1  0  0  0  0
M  END
>  <MODEL>
6

>  <REMARK>
 VINA RESULT:      -5.8      2.051      3.948
  Name = 
  9 active torsions:
  status: ('A' for Active; 'I' for Inactive)
    1  A    between atoms: C_1  and  C_8
    2  A    between atoms: C_3  and  C_25
    3  A    between atoms: C_5  and  C_19
    4  A    between atoms: C_6  and  C_18
    5  A    between atoms: C_6  and  C_28
    6  A    between atoms: C_8  and  C_18
    7  A    between atoms: C_12  and  C_20
    8  A    between atoms: C_18  and  N_30
    9  A    between atoms: N_30  and  C_31
                            x       y       z     vdW  Elec       q    Type
                         _______ _______ _______ _____ _____    ______ ____

>  <TORSDO>
F 9

$$$$
=
 OpenBabel10272415303D

 34 38  0  0  1  0  0  0  0  0999 V2000
  187.7760  177.6680  144.1510 C   0  0  1  0  0  0  0  0  0  0  0  0
  190.5350  177.5600  141.7670 O   0  0  0  0  0  0  0  0  0  0  0  0
  190.2650  177.6130  144.2300 C   0  0  1  0  0  3  0  0  0  0  0  0
  187.1950  176.4030  144.2980 O   0  0  0  0  0  1  0  0  0  0  0  0
  189.0030  177.8300  145.0760 C   0  0  2  0  0  3  0  0  0  0  0  0
  190.6330  176.5390  139.6170 C   0  0  0  0  0  1  0  0  0  0  0  0
  189.8170  177.4310  140.5320 C   0  0  1  0  0  0  0  0  0  0  0  0
  188.4020  176.7760  140.6490 C   0  0  0  0  0  2  0  0  0  0  0  0
  189.7370  177.1780  142.8660 C   0  0  1  0  0  3  0  0  0  0  0  0
  187.5880  177.2220  141.7320 O   0  0  0  0  0  0  0  0  0  0  0  0
  188.3660  177.8020  142.7590 C   0  0  1  0  0  3  0  0  0  0  0  0
  189.6640  178.7890  139.8170 C   0  0  1  0  0  3  0  0  0  0  0  0
  189.3570  178.6800  138.3710 C   0  0  0  0  0  2  0  0  0  0  0  0
  188.3540  178.9430  139.3230 O   0  0  0  0  0  0  0  0  0  0  0  0
  190.2370  176.5110  146.6830 O   0  0  0  0  0  1  0  0  0  0  0  0
  188.9660  176.9890  146.3570 C   0  0  1  0  0  3  0  0  0  0  0  0
  188.4190  177.8100  147.5070 C   0  0  0  0  0  1  0  0  0  0  0  0
  191.0140  178.8780  144.1570 C   0  0  0  0  0  0  0  0  0  0  0  0
  191.6280  179.9140  144.0950 C   0  0  0  0  0  3  0  0  0  0  0  0
  186.7160  178.7420  144.4120 C   0  0  0  0  0  2  0  0  0  0  0  0
  185.3300  178.3500  143.9050 C   0  0  2  0  0  3  0  0  0  0  0  0
  184.9080  179.2880  142.7860 C   0  0  0  0  0  2  0  0  0  0  0  0
  182.9990  178.1990  139.0340 C   0  0  2  0  0  3  0  0  0  0  0  0
  181.6140  178.6670  138.6250 C   0  0  0  0  0  2  0  0  0  0  0  0
  182.4110  177.6500  140.3430 C   0  0  1  0  0  3  0  0  0  0  0  0
  180.1410  176.9420  139.6370 C   0  0  0  0  0  1  0  0  0  0  0  0
  182.8850  178.4140  141.5820 C   0  0  0  0  0  2  0  0  0  0  0  0
  181.0360  178.1320  139.9260 C   0  0  2  0  0  3  0  0  0  0  0  0
  184.9820  179.1110  140.2960 C   0  0  0  0  0  2  0  0  0  0  0  0
  184.4130  178.4990  141.5870 C   0  0  1  0  0  3  0  0  0  0  0  0
  183.9130  179.4110  139.2430 C   0  0  0  0  0  2  0  0  0  0  0  0
  184.3720  178.4270  144.9960 N   0  0  0  0  0  2  0  0  0  0  0  0
  184.8560  178.0390  147.3370 C   0  0  0  0  0  1  0  0  0  0  0  0
  185.0850  178.9490  146.1490 C   0  0  0  0  0  2  0  0  0  0  0  0
  1  4  1  1  0  0  0
  1 20  1  0  0  0  0
  1  5  1  0  0  0  0
  3 18  1  6  0  0  0
  3  5  1  0  0  0  0
  5 16  1  1  0  0  0
  7  6  1  6  0  0  0
  7  8  1  0  0  0  0
  7  2  1  0  0  0  0
  8 10  1  0  0  0  0
  9  2  1  6  0  0  0
  9  3  1  0  0  0  0
 11 10  1  6  0  0  0
 11  9  1  0  0  0  0
 11  1  1  0  0  0  0
 12 13  1  6  0  0  0
 12  7  1  0  0  0  0
 13 14  1  0  0  0  0
 14 12  1  0  0  0  0
 16 15  1  0  0  0  0
 16 17  1  1  0  0  0
 19 18  3  0  0  0  0
 21 22  1  6  0  0  0
 21 20  1  0  0  0  0
 21 32  1  0  0  0  0
 23 24  1  6  0  0  0
 23 31  1  0  0  0  0
 23 25  1  0  0  0  0
 24 28  1  0  0  0  0
 25 27  1  1  0  0  0
 27 30  1  0  0  0  0
 28 26  1  6  0  0  0
 28 25  1  0  0  0  0
 29 30  1  0  0  0  0
 30 22  1  1  0  0  0
 31 29  1  0  0  0  0
 32 34  1  0  0  0  0
 34 33  1  0  0  0  0
M  END
>  <MODEL>
7

>  <REMARK>
 VINA RESULT:      -5.6      2.642      7.378
  Name = 
  9 active torsions:
  status: ('A' for Active; 'I' for Inactive)
    1  A    between atoms: C_1  and  C_8
    2  A    between atoms: C_3  and  C_25
    3  A    between atoms: C_5  and  C_19
    4  A    between atoms: C_6  and  C_18
    5  A    between atoms: C_6  and  C_28
    6  A    between atoms: C_8  and  C_18
    7  A    between atoms: C_12  and  C_20
    8  A    between atoms: C_18  and  N_30
    9  A    between atoms: N_30  and  C_31
                            x       y       z     vdW  Elec       q    Type
                         _______ _______ _______ _____ _____    ______ ____

>  <TORSDO>
F 9

$$$$
=
 OpenBabel10272415303D

 34 38  0  0  1  0  0  0  0  0999 V2000
  185.6930  178.0470  138.4510 C   0  0  1  0  0  0  0  0  0  0  0  0
  188.3390  176.3870  136.5650 O   0  0  0  0  0  0  0  0  0  0  0  0
  185.8610  176.4290  136.5630 C   0  0  1  0  0  3  0  0  0  0  0  0
  185.5340  179.3710  138.0260 O   0  0  0  0  0  1  0  0  0  0  0  0
  184.8880  177.0740  137.5600 C   0  0  2  0  0  3  0  0  0  0  0  0
  190.5220  177.1680  136.0200 C   0  0  0  0  0  1  0  0  0  0  0  0
  189.5020  177.0090  137.1300 C   0  0  1  0  0  0  0  0  0  0  0  0
  189.2690  178.4340  137.7310 C   0  0  0  0  0  2  0  0  0  0  0  0
  187.1810  177.1590  136.7960 C   0  0  1  0  0  3  0  0  0  0  0  0
  188.0970  178.6000  138.5260 O   0  0  0  0  0  0  0  0  0  0  0  0
  187.1320  177.6090  138.2370 C   0  0  1  0  0  3  0  0  0  0  0  0
  190.1500  176.1260  138.2140 C   0  0  1  0  0  3  0  0  0  0  0  0
  190.9010  174.9650  137.6780 C   0  0  0  0  0  2  0  0  0  0  0  0
  191.5530  176.1420  138.0910 O   0  0  0  0  0  0  0  0  0  0  0  0
  183.4930  177.2250  135.5920 O   0  0  0  0  0  1  0  0  0  0  0  0
  183.6400  177.6750  136.9060 C   0  0  1  0  0  3  0  0  0  0  0  0
  182.4040  177.3190  137.7080 C   0  0  0  0  0  1  0  0  0  0  0  0
  185.9630  174.9910  136.8570 C   0  0  0  0  0  0  0  0  0  0  0  0
  186.0440  173.8120  137.0990 C   0  0  0  0  0  3  0  0  0  0  0  0
  185.2920  177.9400  139.9250 C   0  0  0  0  0  2  0  0  0  0  0  0
  186.2940  178.6020  140.8670 C   0  0  2  0  0  3  0  0  0  0  0  0
  186.7780  177.5940  141.8960 C   0  0  0  0  0  2  0  0  0  0  0  0
  190.8570  177.5920  143.4020 C   0  0  2  0  0  3  0  0  0  0  0  0
  191.4290  176.5020  144.2880 C   0  0  0  0  0  2  0  0  0  0  0  0
  189.7060  177.7820  144.4010 C   0  0  1  0  0  3  0  0  0  0  0  0
  190.8080  177.2760  146.5650 C   0  0  0  0  0  1  0  0  0  0  0  0
  188.3470  177.3530  143.8410 C   0  0  0  0  0  2  0  0  0  0  0  0
  190.2830  176.6830  145.2710 C   0  0  2  0  0  3  0  0  0  0  0  0
  189.2330  177.7800  141.4820 C   0  0  0  0  0  2  0  0  0  0  0  0
  188.1030  178.0340  142.4930 C   0  0  1  0  0  3  0  0  0  0  0  0
  190.4060  176.9900  142.0670 C   0  0  0  0  0  2  0  0  0  0  0  0
  185.6610  179.7250  141.5400 N   0  0  0  0  0  2  0  0  0  0  0  0
  184.7190  179.7690  143.7710 C   0  0  0  0  0  1  0  0  0  0  0  0
  184.6130  179.1750  142.3830 C   0  0  0  0  0  2  0  0  0  0  0  0
  1  4  1  6  0  0  0
  1 20  1  0  0  0  0
  2  7  1  0  0  0  0
  3  9  1  0  0  0  0
  3 18  1  1  0  0  0
  3  5  1  0  0  0  0
  5 16  1  6  0  0  0
  5  1  1  0  0  0  0
  7  6  1  6  0  0  0
  7  8  1  0  0  0  0
  7 12  1  0  0  0  0
  8 10  1  0  0  0  0
  9  2  1  1  0  0  0
  9 11  1  0  0  0  0
 11  1  1  0  0  0  0
 11 10  1  6  0  0  0
 12 13  1  6  0  0  0
 13 14  1  0  0  0  0
 14 12  1  0  0  0  0
 15 16  1  0  0  0  0
 16 17  1  1  0  0  0
 18 19  3  0  0  0  0
 21 20  1  6  0  0  0
 21 32  1  0  0  0  0
 21 22  1  0  0  0  0
 23 31  1  6  0  0  0
 23 24  1  0  0  0  0
 23 25  1  0  0  0  0
 24 28  1  0  0  0  0
 25 27  1  6  0  0  0
 25 28  1  0  0  0  0
 28 26  1  1  0  0  0
 29 31  1  0  0  0  0
 29 30  1  0  0  0  0
 30 22  1  6  0  0  0
 30 27  1  0  0  0  0
 32 34  1  0  0  0  0
 34 33  1  0  0  0  0
M  END
>  <MODEL>
8

>  <REMARK>
 VINA RESULT:      -5.4      1.842      2.685
  Name = 
  9 active torsions:
  status: ('A' for Active; 'I' for Inactive)
    1  A    between atoms: C_1  and  C_8
    2  A    between atoms: C_3  and  C_25
    3  A    between atoms: C_5  and  C_19
    4  A    between atoms: C_6  and  C_18
    5  A    between atoms: C_6  and  C_28
    6  A    between atoms: C_8  and  C_18
    7  A    between atoms: C_12  and  C_20
    8  A    between atoms: C_18  and  N_30
    9  A    between atoms: N_30  and  C_31
                            x       y       z     vdW  Elec       q    Type
                         _______ _______ _______ _____ _____    ______ ____

>  <TORSDO>
F 9

$$$$
=
 OpenBabel10272415303D

 34 38  0  0  1  0  0  0  0  0999 V2000
  183.6140  178.2920  141.2460 C   0  0  1  0  0  0  0  0  0  0  0  0
  182.0330  177.4870  138.0580 O   0  0  0  0  0  0  0  0  0  0  0  0
  181.3030  178.1870  140.3200 C   0  0  1  0  0  3  0  0  0  0  0  0
  184.1550  179.5830  141.2210 O   0  0  0  0  0  1  0  0  0  0  0  0
  182.1140  178.3240  141.6160 C   0  0  2  0  0  3  0  0  0  0  0  0
  182.8470  177.8140  135.8440 C   0  0  0  0  0  1  0  0  0  0  0  0
  183.1870  177.2950  137.2280 C   0  0  1  0  0  0  0  0  0  0  0  0
  184.4730  178.0570  137.6880 C   0  0  0  0  0  2  0  0  0  0  0  0
  182.3500  178.2350  139.2120 C   0  0  1  0  0  3  0  0  0  0  0  0
  184.7670  178.0130  139.0830 O   0  0  0  0  0  0  0  0  0  0  0  0
  183.6160  177.7080  139.8440 C   0  0  1  0  0  3  0  0  0  0  0  0
  183.5370  175.8010  137.0750 C   0  0  1  0  0  3  0  0  0  0  0  0
  182.5010  174.8810  137.6040 C   0  0  0  0  0  2  0  0  0  0  0  0
  182.6100  175.1610  136.2280 O   0  0  0  0  0  0  0  0  0  0  0  0
  180.5710  180.1540  141.9550 O   0  0  0  0  0  1  0  0  0  0  0  0
  181.6860  179.5070  142.4920 C   0  0  1  0  0  3  0  0  0  0  0  0
  181.3740  179.0340  143.8970 C   0  0  0  0  0  1  0  0  0  0  0  0
  180.5780  176.9070  140.3440 C   0  0  0  0  0  0  0  0  0  0  0  0
  179.9820  175.8580  140.3620 C   0  0  0  0  0  3  0  0  0  0  0  0
  184.4250  177.4250  142.2120 C   0  0  0  0  0  2  0  0  0  0  0  0
  185.7020  178.1040  142.6980 C   0  0  2  0  0  3  0  0  0  0  0  0
  185.4260  178.8560  143.9900 C   0  0  0  0  0  2  0  0  0  0  0  0
  187.3930  177.8150  147.7250 C   0  0  2  0  0  3  0  0  0  0  0  0
  188.7670  178.3210  148.1260 C   0  0  0  0  0  2  0  0  0  0  0  0
  187.9860  177.2850  146.4110 C   0  0  1  0  0  3  0  0  0  0  0  0
  190.2810  176.6420  147.0990 C   0  0  0  0  0  1  0  0  0  0  0  0
  187.4820  178.0380  145.1770 C   0  0  0  0  0  2  0  0  0  0  0  0
  189.3510  177.8060  146.8190 C   0  0  2  0  0  3  0  0  0  0  0  0
  185.3750  178.6720  146.4800 C   0  0  0  0  0  2  0  0  0  0  0  0
  185.9530  178.0790  145.1840 C   0  0  1  0  0  3  0  0  0  0  0  0
  186.4430  179.0000  147.5260 C   0  0  0  0  0  2  0  0  0  0  0  0
  186.1780  179.0310  141.6840 N   0  0  0  0  0  2  0  0  0  0  0  0
  187.8970  178.3560  140.1180 C   0  0  0  0  0  1  0  0  0  0  0  0
  187.6040  178.7990  141.5360 C   0  0  0  0  0  2  0  0  0  0  0  0
  1  4  1  6  0  0  0
  1  5  1  0  0  0  0
  1 20  1  0  0  0  0
  3 18  1  1  0  0  0
  3  5  1  0  0  0  0
  5 16  1  6  0  0  0
  7  6  1  6  0  0  0
  7  8  1  0  0  0  0
  7  2  1  0  0  0  0
  8 10  1  0  0  0  0
  9  2  1  6  0  0  0
  9 11  1  0  0  0  0
  9  3  1  0  0  0  0
 11 10  1  6  0  0  0
 11  1  1  0  0  0  0
 12  7  1  0  0  0  0
 12 13  1  1  0  0  0
 14 12  1  0  0  0  0
 14 13  1  0  0  0  0
 15 16  1  0  0  0  0
 16 17  1  1  0  0  0
 18 19  3  0  0  0  0
 21 20  1  6  0  0  0
 21 22  1  0  0  0  0
 23 31  1  6  0  0  0
 23 24  1  0  0  0  0
 25 27  1  6  0  0  0
 25 28  1  0  0  0  0
 25 23  1  0  0  0  0
 27 30  1  0  0  0  0
 28 26  1  1  0  0  0
 28 24  1  0  0  0  0
 29 31  1  0  0  0  0
 30 22  1  6  0  0  0
 30 29  1  0  0  0  0
 32 21  1  0  0  0  0
 33 34  1  0  0  0  0
 34 32  1  0  0  0  0
M  END
>  <MODEL>
9

>  <REMARK>
 VINA RESULT:      -5.4      2.029      3.383
  Name = 
  9 active torsions:
  status: ('A' for Active; 'I' for Inactive)
    1  A    between atoms: C_1  and  C_8
    2  A    between atoms: C_3  and  C_25
    3  A    between atoms: C_5  and  C_19
    4  A    between atoms: C_6  and  C_18
    5  A    between atoms: C_6  and  C_28
    6  A    between atoms: C_8  and  C_18
    7  A    between atoms: C_12  and  C_20
    8  A    between atoms: C_18  and  N_30
    9  A    between atoms: N_30  and  C_31
                            x       y       z     vdW  Elec       q    Type
                         _______ _______ _______ _____ _____    ______ ____

>  <TORSDO>
F 9

$$$$
