=
 OpenBabel10272401043D

 27 31  0  0  1  0  0  0  0  0999 V2000
  187.7560  176.4910  144.0920 C   0  0  0  0  0  2  0  0  0  0  0  0
  185.8560  178.0190  144.5580 C   0  0  0  0  0  0  0  0  0  0  0  0
  186.2780  178.0990  142.0680 N   0  0  0  0  0  2  0  0  0  0  0  0
  181.6920  179.1850  143.6110 S   0  0  0  0  0  0  0  0  0  0  0  0
  181.0920  179.4110  140.8710 C   0  0  0  0  0  1  0  0  0  0  0  0
  184.9540  178.2560  145.6160 C   0  0  0  0  0  3  0  0  0  0  0  0
  183.3940  178.7530  141.7950 C   0  0  0  0  0  0  0  0  0  0  0  0
  189.6820  177.9650  140.5700 C   0  0  0  0  0  3  0  0  0  0  0  0
  183.9980  178.6080  140.5120 N   0  0  0  0  0  1  0  0  0  0  0  0
  190.3990  177.2390  141.5200 C   0  0  0  0  0  0  0  0  0  0  0  0
  184.0650  178.5370  143.0130 C   0  0  0  0  0  0  0  0  0  0  0  0
  187.1850  177.5730  144.8650 N   0  0  0  0  0  0  0  0  0  0  0  0
  182.0590  179.1180  141.9630 C   0  0  0  0  0  0  0  0  0  0  0  0
  183.2350  178.7440  144.1030 C   0  0  0  0  0  0  0  0  0  0  0  0
  188.4020  177.0450  142.8800 C   0  0  0  0  0  0  0  0  0  0  0  0
  185.4100  178.1750  143.2150 C   0  0  0  0  0  0  0  0  0  0  0  0
  188.3270  178.2370  140.7770 C   0  0  0  0  0  3  0  0  0  0  0  0
  183.6640  178.6170  145.3790 N   0  0  0  0  0  0  0  0  0  0  0  0
  191.7130  176.9750  141.3230 F   0  0  0  0  0  0  0  0  0  0  0  0
  189.7570  176.7740  142.6700 C   0  0  0  0  0  3  0  0  0  0  0  0
  187.6760  177.7960  141.9360 C   0  0  0  0  0  0  0  0  0  0  0  0
  189.3890  178.0640  148.4030 C   0  0  0  0  0  3  0  0  0  0  0  0
  187.9700  178.1200  145.9700 C   0  0  1  0  0  3  0  0  0  0  0  0
  187.1890  178.0720  147.2900 C   0  0  0  0  0  2  0  0  0  0  0  0
  188.0980  178.4020  148.4410 C   0  0  0  0  0  3  0  0  0  0  0  0
  189.9440  177.4380  147.1900 C   0  0  0  0  0  3  0  0  0  0  0  0
  189.2630  177.4350  146.0810 N   0  0  0  0  0  0  0  0  0  0  0  0
  1 12  1  0  0  0  0
  2 12  1  0  0  0  0
  2  6  1  0  0  0  0
  3 16  1  0  0  0  0
  4 14  1  0  0  0  0
  5 13  1  0  0  0  0
  7 13  2  0  0  0  0
  7 11  1  0  0  0  0
  8 17  2  0  0  0  0
  8 10  1  0  0  0  0
  9  7  1  0  0  0  0
 10 20  2  0  0  0  0
 11 16  1  0  0  0  0
 11 14  2  0  0  0  0
 13  4  1  0  0  0  0
 14 18  1  0  0  0  0
 15  1  1  0  0  0  0
 16  2  2  0  0  0  0
 17 21  1  0  0  0  0
 18  6  2  0  0  0  0
 19 10  1  0  0  0  0
 20 15  1  0  0  0  0
 21  3  1  0  0  0  0
 21 15  2  0  0  0  0
 22 25  2  0  0  0  0
 23 12  1  6  0  0  0
 23 27  1  0  0  0  0
 23 24  1  0  0  0  0
 24 25  1  0  0  0  0
 26 22  1  0  0  0  0
 27 26  2  0  0  0  0
M  END
>  <MODEL>
1

>  <REMARK>
 VINA RESULT:      -9.6      0.000      0.000
  Name = 
  1 active torsions:
  status: ('A' for Active; 'I' for Inactive)
    1  A    between atoms: C_9  and  N_15
                            x       y       z     vdW  Elec       q    Type
                         _______ _______ _______ _____ _____    ______ ____

>  <TORSDO>
F 1

$$$$
=
 OpenBabel10272401043D

 27 31  0  0  1  0  0  0  0  0999 V2000
  190.0570  178.7380  143.3340 C   0  0  0  0  0  2  0  0  0  0  0  0
  187.9970  178.1950  142.0590 C   0  0  0  0  0  0  0  0  0  0  0  0
  187.4510  177.9030  144.5100 N   0  0  0  0  0  2  0  0  0  0  0  0
  183.6740  178.9390  141.4680 S   0  0  0  0  0  0  0  0  0  0  0  0
  182.1170  178.9580  143.8120 C   0  0  0  0  0  1  0  0  0  0  0  0
  187.5090  178.3870  140.7500 C   0  0  0  0  0  3  0  0  0  0  0  0
  184.6530  178.5630  143.7650 C   0  0  0  0  0  0  0  0  0  0  0  0
  189.8600  176.5240  146.9880 C   0  0  0  0  0  3  0  0  0  0  0  0
  184.7730  178.4130  145.1780 N   0  0  0  0  0  1  0  0  0  0  0  0
  191.0920  176.8810  146.4390 C   0  0  0  0  0  0  0  0  0  0  0  0
  185.7330  178.4840  142.8680 C   0  0  0  0  0  0  0  0  0  0  0  0
  189.4080  178.0230  142.2560 N   0  0  0  0  0  0  0  0  0  0  0  0
  183.4350  178.8160  143.1350 C   0  0  0  0  0  0  0  0  0  0  0  0
  185.3290  178.6730  141.5560 C   0  0  0  0  0  0  0  0  0  0  0  0
  189.9560  177.9420  144.5780 C   0  0  0  0  0  0  0  0  0  0  0  0
  187.0880  178.2290  143.1540 C   0  0  0  0  0  0  0  0  0  0  0  0
  188.6770  176.8710  146.3300 C   0  0  0  0  0  3  0  0  0  0  0  0
  186.1890  178.6190  140.5140 N   0  0  0  0  0  0  0  0  0  0  0  0
  192.2410  176.5460  147.0730 F   0  0  0  0  0  0  0  0  0  0  0  0
  191.1380  177.5940  145.2390 C   0  0  0  0  0  3  0  0  0  0  0  0
  188.7100  177.5670  145.1160 C   0  0  0  0  0  0  0  0  0  0  0  0
  192.0160  176.6880  139.2500 C   0  0  0  0  0  3  0  0  0  0  0  0
  190.2390  177.2050  141.3750 C   0  0  1  0  0  3  0  0  0  0  0  0
  189.7070  177.2140  139.9350 C   0  0  0  0  0  2  0  0  0  0  0  0
  190.7070  176.5800  139.0100 C   0  0  0  0  0  3  0  0  0  0  0  0
  192.4790  177.3620  140.4760 C   0  0  0  0  0  3  0  0  0  0  0  0
  191.6420  177.6320  141.4350 N   0  0  0  0  0  0  0  0  0  0  0  0
  1 15  1  0  0  0  0
  2 12  1  0  0  0  0
  2 16  1  0  0  0  0
  3 21  1  0  0  0  0
  4 14  1  0  0  0  0
  4 13  1  0  0  0  0
  6  2  2  0  0  0  0
  7  9  1  0  0  0  0
 10  8  1  0  0  0  0
 10 19  1  0  0  0  0
 11 16  2  0  0  0  0
 11  7  1  0  0  0  0
 12  1  1  0  0  0  0
 13  7  2  0  0  0  0
 13  5  1  0  0  0  0
 14 11  1  0  0  0  0
 15 21  2  0  0  0  0
 15 20  1  0  0  0  0
 16  3  1  0  0  0  0
 17  8  2  0  0  0  0
 18  6  1  0  0  0  0
 18 14  2  0  0  0  0
 20 10  2  0  0  0  0
 21 17  1  0  0  0  0
 22 26  1  0  0  0  0
 23 24  1  6  0  0  0
 23 27  1  0  0  0  0
 23 12  1  0  0  0  0
 25 22  2  0  0  0  0
 25 24  1  0  0  0  0
 26 27  2  0  0  0  0
M  END
>  <MODEL>
2

>  <REMARK>
 VINA RESULT:      -9.5      2.229      5.045
  Name = 
  1 active torsions:
  status: ('A' for Active; 'I' for Inactive)
    1  A    between atoms: C_9  and  N_15
                            x       y       z     vdW  Elec       q    Type
                         _______ _______ _______ _____ _____    ______ ____

>  <TORSDO>
F 1

$$$$
=
 OpenBabel10272401043D

 27 31  0  0  1  0  0  0  0  0999 V2000
  186.7320  176.7770  144.5770 C   0  0  0  0  0  2  0  0  0  0  0  0
  187.5680  177.8140  142.4830 C   0  0  0  0  0  0  0  0  0  0  0  0
  189.5540  177.5490  144.0240 N   0  0  0  0  0  2  0  0  0  0  0  0
  190.4820  177.6630  139.1530 S   0  0  0  0  0  0  0  0  0  0  0  0
  193.1580  177.2250  139.9050 C   0  0  0  0  0  1  0  0  0  0  0  0
  187.1080  177.9960  141.1620 C   0  0  0  0  0  3  0  0  0  0  0  0
  191.1980  177.3680  141.5570 C   0  0  0  0  0  0  0  0  0  0  0  0
  189.3590  178.0380  147.7070 C   0  0  0  0  0  3  0  0  0  0  0  0
  192.0050  177.1560  142.7130 N   0  0  0  0  0  1  0  0  0  0  0  0
  188.0320  177.7090  147.9830 C   0  0  0  0  0  0  0  0  0  0  0  0
  189.8050  177.5590  141.5900 C   0  0  0  0  0  0  0  0  0  0  0  0
  186.6140  177.7940  143.5540 N   0  0  0  0  0  0  0  0  0  0  0  0
  191.7240  177.3970  140.2660 C   0  0  0  0  0  0  0  0  0  0  0  0
  189.2780  177.7360  140.3210 C   0  0  0  0  0  0  0  0  0  0  0  0
  187.6560  177.2510  145.6330 C   0  0  0  0  0  0  0  0  0  0  0  0
  188.9570  177.6020  142.7140 C   0  0  0  0  0  0  0  0  0  0  0  0
  189.8330  177.9800  146.3940 C   0  0  0  0  0  3  0  0  0  0  0  0
  187.9620  177.9590  140.1040 N   0  0  0  0  0  0  0  0  0  0  0  0
  187.5690  177.7650  149.2550 F   0  0  0  0  0  0  0  0  0  0  0  0
  187.1850  177.3090  146.9480 C   0  0  0  0  0  3  0  0  0  0  0  0
  188.9880  177.6030  145.3430 C   0  0  0  0  0  0  0  0  0  0  0  0
  182.8200  179.5020  144.1040 C   0  0  0  0  0  3  0  0  0  0  0  0
  185.4830  178.7170  143.6280 C   0  0  1  0  0  3  0  0  0  0  0  0
  184.4040  178.3650  142.5950 C   0  0  0  0  0  2  0  0  0  0  0  0
  183.1580  179.1630  142.8570 C   0  0  0  0  0  3  0  0  0  0  0  0
  183.7190  179.1630  145.2210 C   0  0  0  0  0  3  0  0  0  0  0  0
  184.9350  178.7640  144.9890 N   0  0  0  0  0  0  0  0  0  0  0  0
  1 15  1  0  0  0  0
  2 16  1  0  0  0  0
  2 12  1  0  0  0  0
  3 21  1  0  0  0  0
  4 13  1  0  0  0  0
  4 14  1  0  0  0  0
  5 13  1  0  0  0  0
  6  2  2  0  0  0  0
  7 11  1  0  0  0  0
  7  9  1  0  0  0  0
  8 10  1  0  0  0  0
 10 19  1  0  0  0  0
 11 16  2  0  0  0  0
 12 23  1  0  0  0  0
 12  1  1  0  0  0  0
 13  7  2  0  0  0  0
 14 11  1  0  0  0  0
 15 20  1  0  0  0  0
 16  3  1  0  0  0  0
 17  8  2  0  0  0  0
 18 14  2  0  0  0  0
 18  6  1  0  0  0  0
 20 10  2  0  0  0  0
 21 15  2  0  0  0  0
 21 17  1  0  0  0  0
 22 26  1  0  0  0  0
 23 24  1  6  0  0  0
 23 27  1  0  0  0  0
 24 25  1  0  0  0  0
 25 22  2  0  0  0  0
 27 26  2  0  0  0  0
M  END
>  <MODEL>
3

>  <REMARK>
 VINA RESULT:      -9.4      2.995      6.585
  Name = 
  1 active torsions:
  status: ('A' for Active; 'I' for Inactive)
    1  A    between atoms: C_9  and  N_15
                            x       y       z     vdW  Elec       q    Type
                         _______ _______ _______ _____ _____    ______ ____

>  <TORSDO>
F 1

$$$$
=
 OpenBabel10272401043D

 27 31  0  0  1  0  0  0  0  0999 V2000
  187.6580  179.1630  141.4710 C   0  0  0  0  0  2  0  0  0  0  0  0
  187.4270  177.9820  143.6420 C   0  0  0  0  0  0  0  0  0  0  0  0
  189.6220  177.2470  142.6280 N   0  0  0  0  0  2  0  0  0  0  0  0
  189.2290  177.0060  147.5650 S   0  0  0  0  0  0  0  0  0  0  0  0
  191.9130  176.1630  147.4890 C   0  0  0  0  0  1  0  0  0  0  0  0
  186.6380  178.0980  144.8050 C   0  0  0  0  0  3  0  0  0  0  0  0
  190.5440  176.8150  145.4180 C   0  0  0  0  0  0  0  0  0  0  0  0
  190.1000  176.6890  138.9800 C   0  0  0  0  0  3  0  0  0  0  0  0
  191.6070  176.5800  144.4970 N   0  0  0  0  0  1  0  0  0  0  0  0
  189.1650  177.5600  138.4190 C   0  0  0  0  0  0  0  0  0  0  0  0
  189.2630  177.2630  145.0480 C   0  0  0  0  0  0  0  0  0  0  0  0
  186.8630  178.3640  142.3790 N   0  0  0  0  0  0  0  0  0  0  0  0
  190.6820  176.6270  146.7920 C   0  0  0  0  0  0  0  0  0  0  0  0
  188.4310  177.4110  146.1450 C   0  0  0  0  0  0  0  0  0  0  0  0
  188.4930  178.2690  140.6370 C   0  0  0  0  0  0  0  0  0  0  0  0
  188.7750  177.5390  143.7560 C   0  0  0  0  0  0  0  0  0  0  0  0
  190.2270  176.6040  140.3690 C   0  0  0  0  0  3  0  0  0  0  0  0
  187.1440  177.8100  146.0350 N   0  0  0  0  0  0  0  0  0  0  0  0
  189.0390  177.6440  137.0730 F   0  0  0  0  0  0  0  0  0  0  0  0
  188.3690  178.3520  139.2470 C   0  0  0  0  0  3  0  0  0  0  0  0
  189.4190  177.3770  141.2110 C   0  0  0  0  0  0  0  0  0  0  0  0
  182.8420  178.5660  141.1920 C   0  0  0  0  0  3  0  0  0  0  0  0
  185.4920  178.0390  141.9900 C   0  0  1  0  0  3  0  0  0  0  0  0
  184.4810  178.5350  143.0330 C   0  0  0  0  0  2  0  0  0  0  0  0
  183.0820  178.4140  142.4960 C   0  0  0  0  0  3  0  0  0  0  0  0
  183.9670  178.7710  140.2620 C   0  0  0  0  0  3  0  0  0  0  0  0
  185.1900  178.5630  140.6530 N   0  0  0  0  0  0  0  0  0  0  0  0
  1 12  1  0  0  0  0
  2 16  2  0  0  0  0
  2  6  1  0  0  0  0
  3 16  1  0  0  0  0
  6 18  2  0  0  0  0
  7 13  2  0  0  0  0
  8 17  1  0  0  0  0
  9  7  1  0  0  0  0
 10  8  2  0  0  0  0
 10 20  1  0  0  0  0
 11  7  1  0  0  0  0
 11 14  2  0  0  0  0
 12  2  1  0  0  0  0
 13  5  1  0  0  0  0
 13  4  1  0  0  0  0
 14  4  1  0  0  0  0
 15 21  1  0  0  0  0
 15  1  1  0  0  0  0
 16 11  1  0  0  0  0
 17 21  2  0  0  0  0
 18 14  1  0  0  0  0
 19 10  1  0  0  0  0
 20 15  2  0  0  0  0
 21  3  1  0  0  0  0
 22 25  2  0  0  0  0
 23 12  1  1  0  0  0
 23 24  1  0  0  0  0
 25 24  1  0  0  0  0
 26 27  2  0  0  0  0
 26 22  1  0  0  0  0
 27 23  1  0  0  0  0
M  END
>  <MODEL>
4

>  <REMARK>
 VINA RESULT:      -9.1      2.487      6.205
  Name = 
  1 active torsions:
  status: ('A' for Active; 'I' for Inactive)
    1  A    between atoms: C_9  and  N_15
                            x       y       z     vdW  Elec       q    Type
                         _______ _______ _______ _____ _____    ______ ____

>  <TORSDO>
F 1

$$$$
=
 OpenBabel10272401043D

 27 31  0  0  1  0  0  0  0  0999 V2000
  190.1760  178.6790  144.4730 C   0  0  0  0  0  2  0  0  0  0  0  0
  190.5190  177.6280  142.2510 C   0  0  0  0  0  0  0  0  0  0  0  0
  188.0290  177.9370  142.5480 N   0  0  0  0  0  2  0  0  0  0  0  0
  189.7390  177.7770  137.8960 S   0  0  0  0  0  0  0  0  0  0  0  0
  187.0660  178.2600  137.1610 C   0  0  0  0  0  1  0  0  0  0  0  0
  191.5910  177.4240  141.3560 C   0  0  0  0  0  3  0  0  0  0  0  0
  187.8930  178.1100  139.5860 C   0  0  0  0  0  0  0  0  0  0  0  0
  186.2910  177.4900  145.8080 C   0  0  0  0  0  3  0  0  0  0  0  0
  186.6090  178.3470  140.1610 N   0  0  0  0  0  1  0  0  0  0  0  0
  187.2920  177.8060  146.7270 C   0  0  0  0  0  0  0  0  0  0  0  0
  189.0660  177.9020  140.3330 C   0  0  0  0  0  0  0  0  0  0  0  0
  190.7860  177.6480  143.6600 N   0  0  0  0  0  0  0  0  0  0  0  0
  188.1060  178.0730  138.2090 C   0  0  0  0  0  0  0  0  0  0  0  0
  190.1680  177.7020  139.5170 C   0  0  0  0  0  0  0  0  0  0  0  0
  188.8330  178.2300  144.9040 C   0  0  0  0  0  0  0  0  0  0  0  0
  189.2140  177.8610  141.7320 C   0  0  0  0  0  0  0  0  0  0  0  0
  186.5620  177.5390  144.4380 C   0  0  0  0  0  3  0  0  0  0  0  0
  191.4040  177.4600  140.0090 N   0  0  0  0  0  0  0  0  0  0  0  0
  187.0340  177.7590  148.0550 F   0  0  0  0  0  0  0  0  0  0  0  0
  188.5580  178.1810  146.2730 C   0  0  0  0  0  3  0  0  0  0  0  0
  187.8340  177.8920  143.9710 C   0  0  0  0  0  0  0  0  0  0  0  0
  192.4360  174.4450  145.8120 C   0  0  0  0  0  3  0  0  0  0  0  0
  191.7010  176.7110  144.3100 C   0  0  1  0  0  3  0  0  0  0  0  0
  191.5450  176.7430  145.8360 C   0  0  0  0  0  2  0  0  0  0  0  0
  192.3070  175.6060  146.4570 C   0  0  0  0  0  3  0  0  0  0  0  0
  191.9000  174.3050  144.4460 C   0  0  0  0  0  3  0  0  0  0  0  0
  191.5260  175.3560  143.7760 N   0  0  0  0  0  0  0  0  0  0  0  0
  1 15  1  0  0  0  0
  2 12  1  0  0  0  0
  3 21  1  0  0  0  0
  4 13  1  0  0  0  0
  4 14  1  0  0  0  0
  5 13  1  0  0  0  0
  6  2  2  0  0  0  0
  7  9  1  0  0  0  0
  7 11  1  0  0  0  0
  8 10  1  0  0  0  0
 10 19  1  0  0  0  0
 11 16  2  0  0  0  0
 12  1  1  0  0  0  0
 13  7  2  0  0  0  0
 14 18  2  0  0  0  0
 14 11  1  0  0  0  0
 15 20  1  0  0  0  0
 16  2  1  0  0  0  0
 16  3  1  0  0  0  0
 17  8  2  0  0  0  0
 18  6  1  0  0  0  0
 20 10  2  0  0  0  0
 21 17  1  0  0  0  0
 21 15  2  0  0  0  0
 22 25  2  0  0  0  0
 23 12  1  6  0  0  0
 23 24  1  0  0  0  0
 24 25  1  0  0  0  0
 26 22  1  0  0  0  0
 27 23  1  0  0  0  0
 27 26  2  0  0  0  0
M  END
>  <MODEL>
5

>  <REMARK>
 VINA RESULT:      -9.0      3.676      5.729
  Name = 
  1 active torsions:
  status: ('A' for Active; 'I' for Inactive)
    1  A    between atoms: C_9  and  N_15
                            x       y       z     vdW  Elec       q    Type
                         _______ _______ _______ _____ _____    ______ ____

>  <TORSDO>
F 1

$$$$
=
 OpenBabel10272401043D

 27 31  0  0  1  0  0  0  0  0999 V2000
  187.5660  176.6690  143.5870 C   0  0  0  0  0  2  0  0  0  0  0  0
  186.8890  178.0220  141.6190 C   0  0  0  0  0  0  0  0  0  0  0  0
  189.4010  177.7640  141.5130 N   0  0  0  0  0  2  0  0  0  0  0  0
  187.0330  178.5430  137.2250 S   0  0  0  0  0  0  0  0  0  0  0  0
  189.5790  178.2720  136.0570 C   0  0  0  0  0  1  0  0  0  0  0  0
  185.6970  178.3150  140.9250 C   0  0  0  0  0  3  0  0  0  0  0  0
  189.1100  178.0330  138.5690 C   0  0  0  0  0  0  0  0  0  0  0  0
  191.5840  177.7920  144.5260 C   0  0  0  0  0  3  0  0  0  0  0  0
  190.4660  177.7620  138.9150 N   0  0  0  0  0  1  0  0  0  0  0  0
  190.7320  177.3080  145.5180 C   0  0  0  0  0  0  0  0  0  0  0  0
  188.0530  178.0860  139.4960 C   0  0  0  0  0  0  0  0  0  0  0  0
  186.8290  177.7850  143.0330 N   0  0  0  0  0  0  0  0  0  0  0  0
  188.6990  178.2650  137.2580 C   0  0  0  0  0  0  0  0  0  0  0  0
  186.8420  178.3630  138.8830 C   0  0  0  0  0  0  0  0  0  0  0  0
  188.9510  177.0990  143.8870 C   0  0  0  0  0  0  0  0  0  0  0  0
  188.1090  177.9160  140.8930 C   0  0  0  0  0  0  0  0  0  0  0  0
  191.1190  177.9350  143.2160 C   0  0  0  0  0  3  0  0  0  0  0  0
  185.6870  178.4850  139.5750 N   0  0  0  0  0  0  0  0  0  0  0  0
  191.1790  177.1690  146.7890 F   0  0  0  0  0  0  0  0  0  0  0  0
  189.4200  176.9560  145.1960 C   0  0  0  0  0  3  0  0  0  0  0  0
  189.7990  177.6070  142.8840 C   0  0  0  0  0  0  0  0  0  0  0  0
  184.1450  179.0420  146.0050 C   0  0  0  0  0  3  0  0  0  0  0  0
  186.0030  178.5820  143.9380 C   0  0  1  0  0  3  0  0  0  0  0  0
  184.5080  178.3770  143.6590 C   0  0  0  0  0  2  0  0  0  0  0  0
  183.6880  179.0030  144.7510 C   0  0  0  0  0  3  0  0  0  0  0  0
  185.5000  178.5420  146.3030 C   0  0  0  0  0  3  0  0  0  0  0  0
  186.3360  178.2950  145.3380 N   0  0  0  0  0  0  0  0  0  0  0  0
  1 15  1  0  0  0  0
  2 12  1  0  0  0  0
  3 21  1  0  0  0  0
  4 13  1  0  0  0  0
  4 14  1  0  0  0  0
  5 13  1  0  0  0  0
  6  2  1  0  0  0  0
  7  9  1  0  0  0  0
  7 11  1  0  0  0  0
  8 10  1  0  0  0  0
 10 19  1  0  0  0  0
 11 16  1  0  0  0  0
 12  1  1  0  0  0  0
 13  7  2  0  0  0  0
 14 11  2  0  0  0  0
 14 18  1  0  0  0  0
 15 20  1  0  0  0  0
 16  3  1  0  0  0  0
 16  2  2  0  0  0  0
 17  8  2  0  0  0  0
 18  6  2  0  0  0  0
 20 10  2  0  0  0  0
 21 17  1  0  0  0  0
 21 15  2  0  0  0  0
 22 26  1  0  0  0  0
 23 12  1  6  0  0  0
 23 27  1  0  0  0  0
 24 23  1  0  0  0  0
 24 25  1  0  0  0  0
 25 22  2  0  0  0  0
 27 26  2  0  0  0  0
M  END
>  <MODEL>
6

>  <REMARK>
 VINA RESULT:      -8.8      2.856      5.122
  Name = 
  1 active torsions:
  status: ('A' for Active; 'I' for Inactive)
    1  A    between atoms: C_9  and  N_15
                            x       y       z     vdW  Elec       q    Type
                         _______ _______ _______ _____ _____    ______ ____

>  <TORSDO>
F 1

$$$$
=
 OpenBabel10272401043D

 27 31  0  0  1  0  0  0  0  0999 V2000
  188.6450  179.0760  141.4500 C   0  0  0  0  0  2  0  0  0  0  0  0
  186.3940  178.4270  140.6290 C   0  0  0  0  0  0  0  0  0  0  0  0
  186.3870  178.1140  143.1370 N   0  0  0  0  0  2  0  0  0  0  0  0
  182.0110  178.9510  140.9570 S   0  0  0  0  0  0  0  0  0  0  0  0
  180.9790  178.8970  143.5750 C   0  0  0  0  0  1  0  0  0  0  0  0
  185.6350  178.5910  139.4520 C   0  0  0  0  0  3  0  0  0  0  0  0
  183.4650  178.6310  142.9970 C   0  0  0  0  0  0  0  0  0  0  0  0
  189.3250  176.8630  145.0460 C   0  0  0  0  0  3  0  0  0  0  0  0
  183.8850  178.4900  144.3530 N   0  0  0  0  0  1  0  0  0  0  0  0
  190.3960  177.2800  144.2550 C   0  0  0  0  0  0  0  0  0  0  0  0
  184.3370  178.6030  141.8940 C   0  0  0  0  0  0  0  0  0  0  0  0
  187.8220  178.3260  140.5250 N   0  0  0  0  0  0  0  0  0  0  0  0
  182.1320  178.8210  142.6370 C   0  0  0  0  0  0  0  0  0  0  0  0
  183.6600  178.7690  140.6970 C   0  0  0  0  0  0  0  0  0  0  0  0
  188.8460  178.2780  142.6820 C   0  0  0  0  0  0  0  0  0  0  0  0
  185.7330  178.4170  141.8890 C   0  0  0  0  0  0  0  0  0  0  0  0
  188.0150  177.1490  144.6530 C   0  0  0  0  0  3  0  0  0  0  0  0
  184.2850  178.7560  139.4980 N   0  0  0  0  0  0  0  0  0  0  0  0
  191.6670  177.0040  144.6340 F   0  0  0  0  0  0  0  0  0  0  0  0
  190.1550  177.9920  143.0790 C   0  0  0  0  0  3  0  0  0  0  0  0
  187.7590  177.8420  143.4640 C   0  0  0  0  0  0  0  0  0  0  0  0
  190.6270  176.7480  137.8320 C   0  0  0  0  0  3  0  0  0  0  0  0
  188.4910  177.5490  139.4830 C   0  0  1  0  0  3  0  0  0  0  0  0
  188.8880  178.4330  138.2930 C   0  0  0  0  0  2  0  0  0  0  0  0
  189.7850  177.6700  137.3590 C   0  0  0  0  0  3  0  0  0  0  0  0
  190.6170  176.4170  139.2680 C   0  0  0  0  0  3  0  0  0  0  0  0
  189.6450  176.8260  140.0290 N   0  0  0  0  0  0  0  0  0  0  0  0
  1 15  1  0  0  0  0
  2 16  1  0  0  0  0
  3 21  1  0  0  0  0
  4 13  1  0  0  0  0
  6 18  1  0  0  0  0
  6  2  2  0  0  0  0
  7  9  1  0  0  0  0
 10 19  1  0  0  0  0
 10  8  2  0  0  0  0
 11  7  1  0  0  0  0
 12  2  1  0  0  0  0
 12  1  1  0  0  0  0
 13  7  2  0  0  0  0
 13  5  1  0  0  0  0
 14  4  1  0  0  0  0
 14 11  1  0  0  0  0
 15 20  2  0  0  0  0
 15 21  1  0  0  0  0
 16 11  2  0  0  0  0
 16  3  1  0  0  0  0
 17  8  1  0  0  0  0
 18 14  2  0  0  0  0
 20 10  1  0  0  0  0
 21 17  2  0  0  0  0
 22 26  1  0  0  0  0
 23 24  1  6  0  0  0
 23 27  1  0  0  0  0
 23 12  1  0  0  0  0
 25 22  2  0  0  0  0
 25 24  1  0  0  0  0
 26 27  2  0  0  0  0
M  END
>  <MODEL>
7

>  <REMARK>
 VINA RESULT:      -8.7      2.146      5.102
  Name = 
  1 active torsions:
  status: ('A' for Active; 'I' for Inactive)
    1  A    between atoms: C_9  and  N_15
                            x       y       z     vdW  Elec       q    Type
                         _______ _______ _______ _____ _____    ______ ____

>  <TORSDO>
F 1

$$$$
=
 OpenBabel10272401043D

 27 31  0  0  1  0  0  0  0  0999 V2000
  188.5420  176.4640  142.4610 C   0  0  0  0  0  2  0  0  0  0  0  0
  186.8760  177.8670  143.6520 C   0  0  0  0  0  0  0  0  0  0  0  0
  186.4610  178.1640  141.1770 N   0  0  0  0  0  2  0  0  0  0  0  0
  182.6160  178.9270  144.2140 S   0  0  0  0  0  0  0  0  0  0  0  0
  181.1500  179.3450  141.8480 C   0  0  0  0  0  1  0  0  0  0  0  0
  186.3660  177.9810  144.9620 C   0  0  0  0  0  3  0  0  0  0  0  0
  183.6370  178.7140  141.9140 C   0  0  0  0  0  0  0  0  0  0  0  0
  189.1900  178.2960  138.6510 C   0  0  0  0  0  3  0  0  0  0  0  0
  183.7900  178.6990  140.4970 N   0  0  0  0  0  1  0  0  0  0  0  0
  190.1890  177.5270  139.2480 C   0  0  0  0  0  0  0  0  0  0  0  0
  184.6720  178.4310  142.8240 C   0  0  0  0  0  0  0  0  0  0  0  0
  188.2390  177.4560  143.4700 N   0  0  0  0  0  0  0  0  0  0  0  0
  182.4250  179.0080  142.5380 C   0  0  0  0  0  0  0  0  0  0  0  0
  184.2410  178.5150  144.1380 C   0  0  0  0  0  0  0  0  0  0  0  0
  188.7480  177.1400  141.1590 C   0  0  0  0  0  0  0  0  0  0  0  0
  186.0140  178.1110  142.5460 C   0  0  0  0  0  0  0  0  0  0  0  0
  187.9730  178.4920  139.3090 C   0  0  0  0  0  3  0  0  0  0  0  0
  185.0650  178.3050  145.1890 N   0  0  0  0  0  0  0  0  0  0  0  0
  191.3690  177.3350  138.6130 F   0  0  0  0  0  0  0  0  0  0  0  0
  189.9640  176.9450  140.4970 C   0  0  0  0  0  3  0  0  0  0  0  0
  187.7430  177.9330  140.5720 C   0  0  0  0  0  0  0  0  0  0  0  0
  192.0170  178.3950  145.0400 C   0  0  0  0  0  3  0  0  0  0  0  0
  189.3350  177.9460  144.3050 C   0  0  1  0  0  3  0  0  0  0  0  0
  190.1540  176.7870  144.8900 C   0  0  0  0  0  2  0  0  0  0  0  0
  191.4080  177.3120  145.5300 C   0  0  0  0  0  3  0  0  0  0  0  0
  191.4080  179.1280  143.9160 C   0  0  0  0  0  3  0  0  0  0  0  0
  190.1810  178.8840  143.5590 N   0  0  0  0  0  0  0  0  0  0  0  0
  1 12  1  0  0  0  0
  2  6  1  0  0  0  0
  3 16  1  0  0  0  0
  5 13  1  0  0  0  0
  6 18  2  0  0  0  0
  7 13  2  0  0  0  0
  7 11  1  0  0  0  0
  8 10  2  0  0  0  0
  8 17  1  0  0  0  0
  9  7  1  0  0  0  0
 10 20  1  0  0  0  0
 11 14  2  0  0  0  0
 12  2  1  0  0  0  0
 13  4  1  0  0  0  0
 14  4  1  0  0  0  0
 14 18  1  0  0  0  0
 15  1  1  0  0  0  0
 16 11  1  0  0  0  0
 16  2  2  0  0  0  0
 17 21  2  0  0  0  0
 19 10  1  0  0  0  0
 20 15  2  0  0  0  0
 21 15  1  0  0  0  0
 21  3  1  0  0  0  0
 22 25  2  0  0  0  0
 23 12  1  6  0  0  0
 23 24  1  0  0  0  0
 24 25  1  0  0  0  0
 26 22  1  0  0  0  0
 27 26  2  0  0  0  0
 27 23  1  0  0  0  0
M  END
>  <MODEL>
8

>  <REMARK>
 VINA RESULT:      -8.4      1.744      2.217
  Name = 
  1 active torsions:
  status: ('A' for Active; 'I' for Inactive)
    1  A    between atoms: C_9  and  N_15
                            x       y       z     vdW  Elec       q    Type
                         _______ _______ _______ _____ _____    ______ ____

>  <TORSDO>
F 1

$$$$
=
 OpenBabel10272401043D

 27 31  0  0  1  0  0  0  0  0999 V2000
  188.8590  178.6780  144.6670 C   0  0  0  0  0  2  0  0  0  0  0  0
  189.7290  177.4210  142.7120 C   0  0  0  0  0  0  0  0  0  0  0  0
  187.3340  178.0370  142.1910 N   0  0  0  0  0  2  0  0  0  0  0  0
  190.3640  177.3120  138.3320 S   0  0  0  0  0  0  0  0  0  0  0  0
  188.1410  178.0390  136.7680 C   0  0  0  0  0  1  0  0  0  0  0  0
  190.9870  177.0250  142.2120 C   0  0  0  0  0  3  0  0  0  0  0  0
  188.1470  177.9890  139.3340 C   0  0  0  0  0  0  0  0  0  0  0  0
  184.6290  178.0530  144.7450 C   0  0  0  0  0  3  0  0  0  0  0  0
  186.7930  178.4160  139.4620 N   0  0  0  0  0  1  0  0  0  0  0  0
  185.3290  178.3240  145.9210 C   0  0  0  0  0  0  0  0  0  0  0  0
  188.9930  177.7070  140.4230 C   0  0  0  0  0  0  0  0  0  0  0  0
  189.5460  177.5230  144.1310 N   0  0  0  0  0  0  0  0  0  0  0  0
  188.7690  177.8180  138.0990 C   0  0  0  0  0  0  0  0  0  0  0  0
  190.2550  177.3170  140.0070 C   0  0  0  0  0  0  0  0  0  0  0  0
  187.4000  178.4220  144.6660 C   0  0  0  0  0  0  0  0  0  0  0  0
  188.6920  177.7600  141.7970 C   0  0  0  0  0  0  0  0  0  0  0  0
  185.3140  177.9620  143.5310 C   0  0  0  0  0  3  0  0  0  0  0  0
  191.2340  176.9740  140.8750 N   0  0  0  0  0  0  0  0  0  0  0  0
  184.6670  178.4130  147.1000 F   0  0  0  0  0  0  0  0  0  0  0  0
  186.7110  178.5140  145.8790 C   0  0  0  0  0  3  0  0  0  0  0  0
  186.7040  178.1280  143.4780 C   0  0  0  0  0  0  0  0  0  0  0  0
  191.4560  175.6450  147.3630 C   0  0  0  0  0  3  0  0  0  0  0  0
  190.0800  176.5410  145.0730 C   0  0  1  0  0  3  0  0  0  0  0  0
  191.6150  176.5410  145.0720 C   0  0  0  0  0  2  0  0  0  0  0  0
  192.1330  175.7140  146.2150 C   0  0  0  0  0  3  0  0  0  0  0  0
  190.1490  176.3160  147.4800 C   0  0  0  0  0  3  0  0  0  0  0  0
  189.5410  176.7620  146.4200 N   0  0  0  0  0  0  0  0  0  0  0  0
  2 12  1  0  0  0  0
  3 21  1  0  0  0  0
  4 14  1  0  0  0  0
  5 13  1  0  0  0  0
  6  2  1  0  0  0  0
  7  9  1  0  0  0  0
  7 11  1  0  0  0  0
  8 10  1  0  0  0  0
 10 19  1  0  0  0  0
 11 16  1  0  0  0  0
 12  1  1  0  0  0  0
 13  4  1  0  0  0  0
 13  7  2  0  0  0  0
 14 11  2  0  0  0  0
 14 18  1  0  0  0  0
 15  1  1  0  0  0  0
 15 20  1  0  0  0  0
 16  3  1  0  0  0  0
 16  2  2  0  0  0  0
 17  8  2  0  0  0  0
 18  6  2  0  0  0  0
 20 10  2  0  0  0  0
 21 17  1  0  0  0  0
 21 15  2  0  0  0  0
 22 26  1  0  0  0  0
 23 12  1  6  0  0  0
 23 27  1  0  0  0  0
 24 23  1  0  0  0  0
 24 25  1  0  0  0  0
 25 22  2  0  0  0  0
 27 26  2  0  0  0  0
M  END
>  <MODEL>
9

>  <REMARK>
 VINA RESULT:      -8.3      3.422      5.608
  Name = 
  1 active torsions:
  status: ('A' for Active; 'I' for Inactive)
    1  A    between atoms: C_9  and  N_15
                            x       y       z     vdW  Elec       q    Type
                         _______ _______ _______ _____ _____    ______ ____

>  <TORSDO>
F 1

$$$$
