=
 OpenBabel10272413093D

 32 36  0  0  1  0  0  0  0  0999 V2000
  187.0630  177.9270  140.2130 C   0  0  1  0  0  3  0  0  0  0  0  0
  184.9810  179.2240  141.0780 C   0  0  2  0  0  3  0  0  0  0  0  0
  188.5740  177.8670  140.4820 C   0  0  0  0  0  2  0  0  0  0  0  0
  186.4500  178.8220  141.2910 C   0  0  1  0  0  3  0  0  0  0  0  0
  184.0540  178.2290  141.8050 C   0  0  2  0  0  3  0  0  0  0  0  0
  180.1860  179.4590  138.0280 N   0  0  0  0  0  1  0  0  0  0  0  0
  184.6000  179.3890  139.6390 C   0  0  1  0  0  3  0  0  0  0  0  0
  181.1610  177.9630  139.6900 C   0  0  0  0  0  2  0  0  0  0  0  0
  182.3590  177.5230  140.5480 C   0  0  0  0  0  2  0  0  0  0  0  0
  186.6020  178.0480  142.6020 C   0  0  2  0  0  3  0  0  0  0  0  0
  182.6830  178.4480  141.5550 O   0  0  0  0  0  0  0  0  0  0  0  0
  185.7630  178.5880  143.5940 O   0  0  0  0  0  0  0  0  0  0  0  0
  188.0740  178.0300  142.9840 C   0  0  0  0  0  2  0  0  0  0  0  0
  185.2070  178.4710  138.6150 C   0  0  0  0  0  2  0  0  0  0  0  0
  186.7240  178.4190  138.8010 C   0  0  2  0  0  3  0  0  0  0  0  0
  183.4850  179.9950  139.4380 N   0  0  0  0  0  2  0  0  0  0  0  0
  184.4280  178.1670  143.3210 C   0  0  1  0  0  3  0  0  0  0  0  0
  188.8570  177.2940  141.8830 C   0  0  0  0  0  2  0  0  0  0  0  0
  181.2410  179.3470  139.0160 C   0  0  1  0  0  3  0  0  0  0  0  0
  182.5840  179.6770  138.3690 C   0  0  0  0  0  2  0  0  0  0  0  0
  188.9070  177.2610  135.9070 C   0  0  0  0  0  0  0  0  0  0  0  0
  189.8680  177.7560  135.0890 F   0  0  0  0  0  0  0  0  0  0  0  0
  187.3390  177.5510  137.7390 C   0  0  0  0  0  0  0  0  0  0  0  0
  188.4930  175.9350  135.7610 C   0  0  0  0  0  3  0  0  0  0  0  0
  186.9290  176.2180  137.5840 C   0  0  0  0  0  3  0  0  0  0  0  0
  188.3340  178.0720  136.8950 C   0  0  0  0  0  0  0  0  0  0  0  0
  188.7550  179.3900  137.0330 O   0  0  0  0  0  1  0  0  0  0  0  0
  187.4990  175.4060  136.5990 C   0  0  0  0  0  0  0  0  0  0  0  0
  186.0910  173.5140  137.3420 C   0  0  0  0  0  1  0  0  0  0  0  0
  187.0630  174.0840  136.4760 O   0  0  0  0  0  0  0  0  0  0  0  0
  183.4790  178.9850  144.1860 C   0  0  0  0  0  2  0  0  0  0  0  0
  183.9920  179.1020  145.4770 O   0  0  0  0  0  1  0  0  0  0  0  0
  1  3  1  6  0  0  0
  1  4  1  0  0  0  0
  2  4  1  0  0  0  0
  2  5  1  0  0  0  0
  3 18  1  0  0  0  0
  4 10  1  0  0  0  0
  5 17  1  0  0  0  0
  6 19  1  0  0  0  0
  7  2  1  0  0  0  0
  8  9  1  0  0  0  0
  9 11  1  0  0  0  0
 10 13  1  0  0  0  0
 10 12  1  0  0  0  0
 11  5  1  0  0  0  0
 14 15  1  0  0  0  0
 14  7  1  0  0  0  0
 15  1  1  0  0  0  0
 16  7  1  0  0  0  0
 17 12  1  0  0  0  0
 17 31  1  0  0  0  0
 18 13  1  0  0  0  0
 19  8  1  0  0  0  0
 20 19  1  0  0  0  0
 20 16  1  0  0  0  0
 21 26  1  0  0  0  0
 22 21  1  0  0  0  0
 23 15  1  0  0  0  0
 24 21  2  0  0  0  0
 24 28  1  0  0  0  0
 25 23  1  0  0  0  0
 26 27  1  0  0  0  0
 26 23  2  0  0  0  0
 28 25  2  0  0  0  0
 30 28  1  0  0  0  0
 30 29  1  0  0  0  0
 31 32  1  0  0  0  0
M  END
>  <MODEL>
1

>  <REMARK>
 VINA RESULT:      -7.2      0.000      0.000
  Name = 
  3 active torsions:
  status: ('A' for Active; 'I' for Inactive)
    1  A    between atoms: C_13  and  C_29
    2  A    between atoms: O_15  and  C_26
    3  A    between atoms: C_16  and  C_27
                            x       y       z     vdW  Elec       q    Type
                         _______ _______ _______ _____ _____    ______ ____

>  <TORSDO>
F 3

$$$$
=
 OpenBabel10272413093D

 32 36  0  0  1  0  0  0  0  0999 V2000
  187.3820  178.0270  140.3280 C   0  0  1  0  0  3  0  0  0  0  0  0
  188.3160  177.7110  137.9210 C   0  0  2  0  0  3  0  0  0  0  0  0
  186.4510  178.9870  141.0830 C   0  0  0  0  0  2  0  0  0  0  0  0
  187.2830  178.3810  138.8430 C   0  0  1  0  0  3  0  0  0  0  0  0
  187.7320  176.4080  137.3380 C   0  0  2  0  0  3  0  0  0  0  0  0
  192.9380  174.5420  136.9510 N   0  0  0  0  0  1  0  0  0  0  0  0
  189.6480  177.4840  138.5660 C   0  0  1  0  0  3  0  0  0  0  0  0
  190.5330  174.1690  137.1200 C   0  0  0  0  0  2  0  0  0  0  0  0
  189.1260  174.6790  137.4720 C   0  0  0  0  0  2  0  0  0  0  0  0
  185.8660  177.9910  138.4210 C   0  0  2  0  0  3  0  0  0  0  0  0
  188.6600  175.6620  136.5820 O   0  0  0  0  0  0  0  0  0  0  0  0
  185.7680  177.9220  137.0190 O   0  0  0  0  0  0  0  0  0  0  0  0
  184.8870  178.9640  139.0600 C   0  0  0  0  0  2  0  0  0  0  0  0
  189.6980  177.1120  140.0220 C   0  0  0  0  0  2  0  0  0  0  0  0
  188.8290  178.0750  140.8320 C   0  0  2  0  0  3  0  0  0  0  0  0
  190.6030  177.1990  137.7550 N   0  0  0  0  0  2  0  0  0  0  0  0
  186.3940  176.7150  136.5920 C   0  0  1  0  0  3  0  0  0  0  0  0
  184.9990  178.8390  140.5890 C   0  0  0  0  0  2  0  0  0  0  0  0
  191.6550  175.2160  136.9830 C   0  0  1  0  0  3  0  0  0  0  0  0
  191.6720  176.2940  138.0650 C   0  0  0  0  0  2  0  0  0  0  0  0
  190.2730  177.3910  144.2850 C   0  0  0  0  0  0  0  0  0  0  0  0
  191.4820  177.3430  144.8980 F   0  0  0  0  0  0  0  0  0  0  0  0
  188.9280  177.7450  142.2950 C   0  0  0  0  0  0  0  0  0  0  0  0
  189.1160  177.1360  145.0240 C   0  0  0  0  0  3  0  0  0  0  0  0
  187.7700  177.4860  143.0450 C   0  0  0  0  0  3  0  0  0  0  0  0
  190.1840  177.6970  142.9220 C   0  0  0  0  0  0  0  0  0  0  0  0
  191.3430  177.9510  142.1960 O   0  0  0  0  0  1  0  0  0  0  0  0
  187.8560  177.1810  144.4070 C   0  0  0  0  0  0  0  0  0  0  0  0
  186.2750  177.7140  146.2310 C   0  0  0  0  0  1  0  0  0  0  0  0
  186.6800  176.9290  145.1180 O   0  0  0  0  0  0  0  0  0  0  0  0
  186.5750  176.7760  135.0810 C   0  0  0  0  0  2  0  0  0  0  0  0
  186.8060  178.0920  134.6820 O   0  0  0  0  0  1  0  0  0  0  0  0
  1 15  1  0  0  0  0
  1  3  1  1  0  0  0
  2  7  1  0  0  0  0
  2  4  1  0  0  0  0
  4  1  1  0  0  0  0
  5  2  1  0  0  0  0
  6 19  1  0  0  0  0
  7 14  1  0  0  0  0
  8  9  1  0  0  0  0
 10  4  1  0  0  0  0
 10 13  1  0  0  0  0
 11  5  1  0  0  0  0
 11  9  1  0  0  0  0
 12 10  1  0  0  0  0
 13 18  1  0  0  0  0
 14 15  1  0  0  0  0
 15 23  1  0  0  0  0
 16 20  1  0  0  0  0
 16  7  1  0  0  0  0
 17 12  1  0  0  0  0
 17  5  1  0  0  0  0
 18  3  1  0  0  0  0
 19  8  1  0  0  0  0
 19 20  1  0  0  0  0
 21 22  1  0  0  0  0
 21 24  1  0  0  0  0
 23 26  1  0  0  0  0
 23 25  2  0  0  0  0
 25 28  1  0  0  0  0
 26 21  2  0  0  0  0
 27 26  1  0  0  0  0
 28 24  2  0  0  0  0
 28 30  1  0  0  0  0
 30 29  1  0  0  0  0
 31 17  1  0  0  0  0
 32 31  1  0  0  0  0
M  END
>  <MODEL>
2

>  <REMARK>
 VINA RESULT:      -6.9      3.706      7.632
  Name = 
  3 active torsions:
  status: ('A' for Active; 'I' for Inactive)
    1  A    between atoms: C_13  and  C_29
    2  A    between atoms: O_15  and  C_26
    3  A    between atoms: C_16  and  C_27
                            x       y       z     vdW  Elec       q    Type
                         _______ _______ _______ _____ _____    ______ ____

>  <TORSDO>
F 3

$$$$
=
 OpenBabel10272413093D

 32 36  0  0  1  0  0  0  0  0999 V2000
  189.7330  177.1370  139.0250 C   0  0  1  0  0  3  0  0  0  0  0  0
  189.5930  178.2020  141.3950 C   0  0  2  0  0  3  0  0  0  0  0  0
  190.6810  177.1430  137.8170 C   0  0  0  0  0  2  0  0  0  0  0  0
  190.4500  177.8700  140.1610 C   0  0  1  0  0  3  0  0  0  0  0  0
  189.7250  177.0780  142.4420 C   0  0  2  0  0  3  0  0  0  0  0  0
  184.6590  178.4720  144.2110 N   0  0  0  0  0  1  0  0  0  0  0  0
  188.1610  178.4990  141.0770 C   0  0  1  0  0  3  0  0  0  0  0  0
  186.4800  176.8660  143.9700 C   0  0  0  0  0  2  0  0  0  0  0  0
  187.7710  176.4100  143.2710 C   0  0  0  0  0  2  0  0  0  0  0  0
  191.6200  176.9690  140.5570 C   0  0  2  0  0  3  0  0  0  0  0  0
  188.8710  177.2380  143.5530 O   0  0  0  0  0  0  0  0  0  0  0  0
  192.1300  177.3440  141.8130 O   0  0  0  0  0  0  0  0  0  0  0  0
  192.6520  177.0000  139.4400 C   0  0  0  0  0  2  0  0  0  0  0  0
  187.4870  177.7370  139.9690 C   0  0  0  0  0  2  0  0  0  0  0  0
  188.3660  177.7590  138.7170 C   0  0  2  0  0  3  0  0  0  0  0  0
  187.4960  179.0530  142.0260 N   0  0  0  0  0  2  0  0  0  0  0  0
  191.2300  176.8740  142.8130 C   0  0  1  0  0  3  0  0  0  0  0  0
  192.0070  176.4380  138.1610 C   0  0  0  0  0  2  0  0  0  0  0  0
  186.0190  178.3170  143.7320 C   0  0  1  0  0  3  0  0  0  0  0  0
  186.1090  178.7990  142.2860 C   0  0  0  0  0  2  0  0  0  0  0  0
  186.4970  177.1290  135.4630 C   0  0  0  0  0  0  0  0  0  0  0  0
  185.9930  177.8330  134.4200 F   0  0  0  0  0  0  0  0  0  0  0  0
  187.6660  177.0520  137.5900 C   0  0  0  0  0  0  0  0  0  0  0  0
  186.3670  175.7380  135.4830 C   0  0  0  0  0  3  0  0  0  0  0  0
  187.5300  175.6550  137.6020 C   0  0  0  0  0  3  0  0  0  0  0  0
  187.1460  177.7890  136.5130 C   0  0  0  0  0  0  0  0  0  0  0  0
  187.2720  179.1740  136.4820 O   0  0  0  0  0  1  0  0  0  0  0  0
  186.8830  174.9930  136.5550 C   0  0  0  0  0  0  0  0  0  0  0  0
  185.8210  172.9390  137.4310 C   0  0  0  0  0  1  0  0  0  0  0  0
  186.7680  173.6010  136.6040 O   0  0  0  0  0  0  0  0  0  0  0  0
  191.5940  177.5330  144.1370 C   0  0  0  0  0  2  0  0  0  0  0  0
  191.9050  178.8760  143.9310 O   0  0  0  0  0  1  0  0  0  0  0  0
  1  3  1  6  0  0  0
  1  4  1  0  0  0  0
  2  5  1  0  0  0  0
  3 18  1  0  0  0  0
  4 10  1  0  0  0  0
  4  2  1  0  0  0  0
  5 17  1  0  0  0  0
  5 11  1  0  0  0  0
  7  2  1  0  0  0  0
  7 16  1  0  0  0  0
  9 11  1  0  0  0  0
  9  8  1  0  0  0  0
 10 12  1  0  0  0  0
 12 17  1  0  0  0  0
 13 10  1  0  0  0  0
 14  7  1  0  0  0  0
 15  1  1  0  0  0  0
 15 14  1  0  0  0  0
 16 20  1  0  0  0  0
 17 31  1  0  0  0  0
 18 13  1  0  0  0  0
 19  8  1  0  0  0  0
 19  6  1  0  0  0  0
 20 19  1  0  0  0  0
 21 24  2  0  0  0  0
 21 26  1  0  0  0  0
 22 21  1  0  0  0  0
 23 25  1  0  0  0  0
 23 15  1  0  0  0  0
 24 28  1  0  0  0  0
 26 23  2  0  0  0  0
 27 26  1  0  0  0  0
 28 30  1  0  0  0  0
 28 25  2  0  0  0  0
 30 29  1  0  0  0  0
 32 31  1  0  0  0  0
M  END
>  <MODEL>
3

>  <REMARK>
 VINA RESULT:      -6.7      3.337      4.866
  Name = 
  3 active torsions:
  status: ('A' for Active; 'I' for Inactive)
    1  A    between atoms: C_13  and  C_29
    2  A    between atoms: O_15  and  C_26
    3  A    between atoms: C_16  and  C_27
                            x       y       z     vdW  Elec       q    Type
                         _______ _______ _______ _____ _____    ______ ____

>  <TORSDO>
F 3

$$$$
=
 OpenBabel10272413093D

 32 36  0  0  1  0  0  0  0  0999 V2000
  185.0870  178.4520  142.7090 C   0  0  1  0  0  3  0  0  0  0  0  0
  183.8190  178.9570  140.4950 C   0  0  2  0  0  3  0  0  0  0  0  0
  185.1570  178.9960  144.1440 C   0  0  0  0  0  2  0  0  0  0  0  0
  183.9240  179.1630  142.0160 C   0  0  1  0  0  3  0  0  0  0  0  0
  182.8800  177.7730  140.1900 C   0  0  2  0  0  3  0  0  0  0  0  0
  185.7420  177.0340  135.4990 N   0  0  0  0  0  1  0  0  0  0  0  0
  185.1420  178.8080  139.8100 C   0  0  1  0  0  3  0  0  0  0  0  0
  184.2970  176.2070  137.2830 C   0  0  0  0  0  2  0  0  0  0  0  0
  183.7140  176.3470  138.6980 C   0  0  0  0  0  2  0  0  0  0  0  0
  182.6600  178.6530  142.7070 C   0  0  2  0  0  3  0  0  0  0  0  0
  182.8270  177.4310  138.8230 O   0  0  0  0  0  0  0  0  0  0  0  0
  181.5210  178.9420  141.9330 O   0  0  0  0  0  0  0  0  0  0  0  0
  182.6110  179.2320  144.1130 C   0  0  0  0  0  2  0  0  0  0  0  0
  186.2500  178.0790  140.5180 C   0  0  0  0  0  2  0  0  0  0  0  0
  186.4020  178.6220  141.9390 C   0  0  2  0  0  3  0  0  0  0  0  0
  185.1090  178.9230  138.5310 N   0  0  0  0  0  2  0  0  0  0  0  0
  181.4830  178.0230  140.8440 C   0  0  1  0  0  3  0  0  0  0  0  0
  183.8380  178.7280  144.8930 C   0  0  0  0  0  2  0  0  0  0  0  0
  185.0080  177.4360  136.6840 C   0  0  1  0  0  3  0  0  0  0  0  0
  185.9440  178.1740  137.6380 C   0  0  0  0  0  2  0  0  0  0  0  0
  189.7490  176.9120  142.5330 C   0  0  0  0  0  0  0  0  0  0  0  0
  190.8420  176.5290  141.8280 F   0  0  0  0  0  0  0  0  0  0  0  0
  187.5510  177.9390  142.6270 C   0  0  0  0  0  0  0  0  0  0  0  0
  189.6970  176.6710  143.9080 C   0  0  0  0  0  3  0  0  0  0  0  0
  187.5070  177.6930  144.0090 C   0  0  0  0  0  3  0  0  0  0  0  0
  188.6790  177.5460  141.8900 C   0  0  0  0  0  0  0  0  0  0  0  0
  188.7420  177.7820  140.5200 O   0  0  0  0  0  1  0  0  0  0  0  0
  188.5740  177.0600  144.6540 C   0  0  0  0  0  0  0  0  0  0  0  0
  187.6470  177.5920  146.8840 C   0  0  0  0  0  1  0  0  0  0  0  0
  188.4920  176.8330  146.0300 O   0  0  0  0  0  0  0  0  0  0  0  0
  180.4510  178.5130  139.8360 C   0  0  0  0  0  2  0  0  0  0  0  0
  180.4430  179.9080  139.8040 O   0  0  0  0  0  1  0  0  0  0  0  0
  1  3  1  1  0  0  0
  2  4  1  0  0  0  0
  3 18  1  0  0  0  0
  4 10  1  0  0  0  0
  4  1  1  0  0  0  0
  5  2  1  0  0  0  0
  5 17  1  0  0  0  0
  6 19  1  0  0  0  0
  7  2  1  0  0  0  0
  7 14  1  0  0  0  0
  8  9  1  0  0  0  0
  9 11  1  0  0  0  0
 10 13  1  0  0  0  0
 11  5  1  0  0  0  0
 12 10  1  0  0  0  0
 13 18  1  0  0  0  0
 14 15  1  0  0  0  0
 15 23  1  0  0  0  0
 15  1  1  0  0  0  0
 16  7  1  0  0  0  0
 17 12  1  0  0  0  0
 19  8  1  0  0  0  0
 19 20  1  0  0  0  0
 20 16  1  0  0  0  0
 21 24  1  0  0  0  0
 22 21  1  0  0  0  0
 23 25  2  0  0  0  0
 24 28  2  0  0  0  0
 25 28  1  0  0  0  0
 26 21  2  0  0  0  0
 26 23  1  0  0  0  0
 27 26  1  0  0  0  0
 28 30  1  0  0  0  0
 30 29  1  0  0  0  0
 31 17  1  0  0  0  0
 32 31  1  0  0  0  0
M  END
>  <MODEL>
4

>  <REMARK>
 VINA RESULT:      -6.7      2.776      5.383
  Name = 
  3 active torsions:
  status: ('A' for Active; 'I' for Inactive)
    1  A    between atoms: C_13  and  C_29
    2  A    between atoms: O_15  and  C_26
    3  A    between atoms: C_16  and  C_27
                            x       y       z     vdW  Elec       q    Type
                         _______ _______ _______ _____ _____    ______ ____

>  <TORSDO>
F 3

$$$$
=
 OpenBabel10272413093D

 32 36  0  0  1  0  0  0  0  0999 V2000
  185.5820  178.2010  139.5220 C   0  0  1  0  0  3  0  0  0  0  0  0
  187.0010  178.9590  141.5660 C   0  0  2  0  0  3  0  0  0  0  0  0
  185.5850  178.3680  137.9950 C   0  0  0  0  0  2  0  0  0  0  0  0
  186.8940  178.7930  140.0400 C   0  0  1  0  0  3  0  0  0  0  0  0
  187.6700  177.7130  142.1820 C   0  0  2  0  0  3  0  0  0  0  0  0
  184.8710  178.8230  146.8380 N   0  0  0  0  0  1  0  0  0  0  0  0
  185.7000  179.2790  142.2350 C   0  0  1  0  0  3  0  0  0  0  0  0
  186.0420  177.2780  145.3560 C   0  0  0  0  0  2  0  0  0  0  0  0
  186.5960  176.9260  143.9660 C   0  0  0  0  0  2  0  0  0  0  0  0
  187.9940  177.8610  139.5310 C   0  0  2  0  0  3  0  0  0  0  0  0
  187.6920  177.7240  143.5930 O   0  0  0  0  0  0  0  0  0  0  0  0
  189.1930  178.0800  140.2340 O   0  0  0  0  0  0  0  0  0  0  0  0
  188.1210  178.0430  138.0260 C   0  0  0  0  0  2  0  0  0  0  0  0
  184.4380  178.6550  141.7080 C   0  0  0  0  0  2  0  0  0  0  0  0
  184.3610  178.8430  140.1920 C   0  0  2  0  0  3  0  0  0  0  0  0
  185.8000  179.7020  143.4430 N   0  0  0  0  0  2  0  0  0  0  0  0
  189.0660  177.4790  141.5210 C   0  0  1  0  0  3  0  0  0  0  0  0
  186.7900  177.6390  137.3690 C   0  0  0  0  0  2  0  0  0  0  0  0
  185.6350  178.7430  145.6080 C   0  0  1  0  0  3  0  0  0  0  0  0
  184.8510  179.4040  144.4760 C   0  0  0  0  0  2  0  0  0  0  0  0
  180.9970  178.5540  138.4380 C   0  0  0  0  0  0  0  0  0  0  0  0
  180.1500  179.3280  137.7150 F   0  0  0  0  0  0  0  0  0  0  0  0
  183.0700  178.2760  139.6720 C   0  0  0  0  0  0  0  0  0  0  0  0
  180.6640  177.2220  138.6950 C   0  0  0  0  0  3  0  0  0  0  0  0
  182.7260  176.9390  139.9250 C   0  0  0  0  0  3  0  0  0  0  0  0
  182.1980  179.0840  138.9240 C   0  0  0  0  0  0  0  0  0  0  0  0
  182.5210  180.4120  138.6610 O   0  0  0  0  0  1  0  0  0  0  0  0
  181.5280  176.4060  139.4420 C   0  0  0  0  0  0  0  0  0  0  0  0
  179.9950  174.6710  140.3090 C   0  0  0  0  0  1  0  0  0  0  0  0
  181.2230  175.0710  139.7160 O   0  0  0  0  0  0  0  0  0  0  0  0
  190.2120  177.9700  142.3960 C   0  0  0  0  0  2  0  0  0  0  0  0
  191.4310  177.5570  141.8610 O   0  0  0  0  0  1  0  0  0  0  0  0
  1  3  1  6  0  0  0
  1  4  1  0  0  0  0
  1 15  1  0  0  0  0
  2  5  1  0  0  0  0
  2  7  1  0  0  0  0
  4  2  1  0  0  0  0
  5 11  1  0  0  0  0
  7 16  1  0  0  0  0
  8 19  1  0  0  0  0
  9  8  1  0  0  0  0
 10  4  1  0  0  0  0
 10 12  1  0  0  0  0
 11  9  1  0  0  0  0
 12 17  1  0  0  0  0
 13 10  1  0  0  0  0
 14  7  1  0  0  0  0
 15 14  1  0  0  0  0
 16 20  1  0  0  0  0
 17  5  1  0  0  0  0
 17 31  1  0  0  0  0
 18  3  1  0  0  0  0
 18 13  1  0  0  0  0
 19  6  1  0  0  0  0
 20 19  1  0  0  0  0
 21 24  2  0  0  0  0
 21 26  1  0  0  0  0
 22 21  1  0  0  0  0
 23 25  1  0  0  0  0
 23 15  1  0  0  0  0
 24 28  1  0  0  0  0
 26 23  2  0  0  0  0
 27 26  1  0  0  0  0
 28 30  1  0  0  0  0
 28 25  2  0  0  0  0
 30 29  1  0  0  0  0
 32 31  1  0  0  0  0
M  END
>  <MODEL>
5

>  <REMARK>
 VINA RESULT:      -6.7      3.207      5.999
  Name = 
  3 active torsions:
  status: ('A' for Active; 'I' for Inactive)
    1  A    between atoms: C_13  and  C_29
    2  A    between atoms: O_15  and  C_26
    3  A    between atoms: C_16  and  C_27
                            x       y       z     vdW  Elec       q    Type
                         _______ _______ _______ _____ _____    ______ ____

>  <TORSDO>
F 3

$$$$
=
 OpenBabel10272413093D

 32 36  0  0  1  0  0  0  0  0999 V2000
  186.4140  178.3410  140.7180 C   0  0  1  0  0  3  0  0  0  0  0  0
  189.0110  178.2130  140.8030 C   0  0  2  0  0  3  0  0  0  0  0  0
  185.3210  178.9130  139.8030 C   0  0  0  0  0  2  0  0  0  0  0  0
  187.7430  178.4940  139.9770 C   0  0  1  0  0  3  0  0  0  0  0  0
  189.4320  176.7390  140.6320 C   0  0  2  0  0  3  0  0  0  0  0  0
  191.7430  177.0780  145.6600 N   0  0  0  0  0  1  0  0  0  0  0  0
  188.8920  178.5940  142.2450 C   0  0  1  0  0  3  0  0  0  0  0  0
  190.7630  175.7930  143.8320 C   0  0  0  0  0  2  0  0  0  0  0  0
  189.9070  175.7290  142.5570 C   0  0  0  0  0  2  0  0  0  0  0  0
  187.6640  177.5360  138.7880 C   0  0  2  0  0  3  0  0  0  0  0  0
  190.5110  176.3610  141.4570 O   0  0  0  0  0  0  0  0  0  0  0  0
  188.9430  177.3100  138.2470 O   0  0  0  0  0  0  0  0  0  0  0  0
  186.6620  178.0900  137.7880 C   0  0  0  0  0  2  0  0  0  0  0  0
  187.5730  178.4030  142.9420 C   0  0  0  0  0  2  0  0  0  0  0  0
  186.4500  179.0070  142.0980 C   0  0  2  0  0  3  0  0  0  0  0  0
  190.0030  178.6430  142.8890 N   0  0  0  0  0  2  0  0  0  0  0  0
  189.6390  176.4200  139.1160 C   0  0  1  0  0  3  0  0  0  0  0  0
  185.2800  178.1560  138.4620 C   0  0  0  0  0  2  0  0  0  0  0  0
  191.2190  177.1850  144.3120 C   0  0  1  0  0  3  0  0  0  0  0  0
  190.1470  178.2710  144.2660 C   0  0  0  0  0  2  0  0  0  0  0  0
  183.8910  178.6860  144.8970 C   0  0  0  0  0  0  0  0  0  0  0  0
  183.8590  178.6200  146.2510 F   0  0  0  0  0  0  0  0  0  0  0  0
  185.1390  178.8750  142.8220 C   0  0  0  0  0  0  0  0  0  0  0  0
  182.6960  178.6340  144.1750 C   0  0  0  0  0  3  0  0  0  0  0  0
  183.9330  178.8210  142.1050 C   0  0  0  0  0  3  0  0  0  0  0  0
  185.1140  178.8070  144.2250 C   0  0  0  0  0  0  0  0  0  0  0  0
  186.2970  178.8590  144.9530 O   0  0  0  0  0  1  0  0  0  0  0  0
  182.7110  178.7000  142.7730 C   0  0  0  0  0  0  0  0  0  0  0  0
  181.4920  178.9640  140.6380 C   0  0  0  0  0  1  0  0  0  0  0  0
  181.5330  178.6500  142.0240 O   0  0  0  0  0  0  0  0  0  0  0  0
  191.1100  176.4140  138.7210 C   0  0  0  0  0  2  0  0  0  0  0  0
  191.5030  175.1240  138.3650 O   0  0  0  0  0  1  0  0  0  0  0  0
  1  3  1  6  0  0  0
  1 15  1  0  0  0  0
  2  7  1  0  0  0  0
  4  1  1  0  0  0  0
  4  2  1  0  0  0  0
  5  2  1  0  0  0  0
  5 11  1  0  0  0  0
  7 16  1  0  0  0  0
  7 14  1  0  0  0  0
  8 19  1  0  0  0  0
  9  8  1  0  0  0  0
 10  4  1  0  0  0  0
 11  9  1  0  0  0  0
 12 10  1  0  0  0  0
 12 17  1  0  0  0  0
 13 18  1  0  0  0  0
 13 10  1  0  0  0  0
 15 23  1  0  0  0  0
 15 14  1  0  0  0  0
 16 20  1  0  0  0  0
 17  5  1  0  0  0  0
 18  3  1  0  0  0  0
 19  6  1  0  0  0  0
 20 19  1  0  0  0  0
 21 22  1  0  0  0  0
 23 26  2  0  0  0  0
 24 21  2  0  0  0  0
 25 28  2  0  0  0  0
 25 23  1  0  0  0  0
 26 21  1  0  0  0  0
 26 27  1  0  0  0  0
 28 24  1  0  0  0  0
 29 30  1  0  0  0  0
 30 28  1  0  0  0  0
 31 17  1  0  0  0  0
 32 31  1  0  0  0  0
M  END
>  <MODEL>
6

>  <REMARK>
 VINA RESULT:      -6.5      3.815      7.959
  Name = 
  3 active torsions:
  status: ('A' for Active; 'I' for Inactive)
    1  A    between atoms: C_13  and  C_29
    2  A    between atoms: O_15  and  C_26
    3  A    between atoms: C_16  and  C_27
                            x       y       z     vdW  Elec       q    Type
                         _______ _______ _______ _____ _____    ______ ____

>  <TORSDO>
F 3

$$$$
=
 OpenBabel10272413093D

 32 36  0  0  1  0  0  0  0  0999 V2000
  185.6740  178.1340  144.1970 C   0  0  1  0  0  3  0  0  0  0  0  0
  187.9640  177.1060  144.8760 C   0  0  2  0  0  3  0  0  0  0  0  0
  184.2130  178.0990  144.6680 C   0  0  0  0  0  2  0  0  0  0  0  0
  186.5050  177.4090  145.2560 C   0  0  1  0  0  3  0  0  0  0  0  0
  188.8810  178.2430  145.3710 C   0  0  2  0  0  3  0  0  0  0  0  0
  192.3160  176.9420  141.2180 N   0  0  0  0  0  1  0  0  0  0  0  0
  188.1660  176.8230  143.4200 C   0  0  1  0  0  3  0  0  0  0  0  0
  191.4320  178.5200  142.8550 C   0  0  0  0  0  2  0  0  0  0  0  0
  190.3220  178.9490  143.8280 C   0  0  0  0  0  2  0  0  0  0  0  0
  186.4550  178.2990  146.4980 C   0  0  2  0  0  3  0  0  0  0  0  0
  190.2220  178.1100  144.9520 O   0  0  0  0  0  0  0  0  0  0  0  0
  187.4650  177.9360  147.4080 O   0  0  0  0  0  0  0  0  0  0  0  0
  185.0520  178.2380  147.0800 C   0  0  0  0  0  2  0  0  0  0  0  0
  187.3460  177.5780  142.4110 C   0  0  0  0  0  2  0  0  0  0  0  0
  185.8690  177.5270  142.8020 C   0  0  2  0  0  3  0  0  0  0  0  0
  189.2970  176.2920  143.1200 N   0  0  0  0  0  2  0  0  0  0  0  0
  188.7060  178.4320  146.9120 C   0  0  1  0  0  3  0  0  0  0  0  0
  184.0640  178.7910  146.0370 C   0  0  0  0  0  2  0  0  0  0  0  0
  191.3950  177.0720  142.3300 C   0  0  1  0  0  3  0  0  0  0  0  0
  190.0150  176.5680  141.9100 C   0  0  0  0  0  2  0  0  0  0  0  0
  184.8640  179.3350  139.6090 C   0  0  0  0  0  0  0  0  0  0  0  0
  185.4350  179.7820  138.4630 F   0  0  0  0  0  0  0  0  0  0  0  0
  185.0400  178.2260  141.7620 C   0  0  0  0  0  0  0  0  0  0  0  0
  183.4950  179.5250  139.8170 C   0  0  0  0  0  3  0  0  0  0  0  0
  183.6640  178.4220  141.9620 C   0  0  0  0  0  3  0  0  0  0  0  0
  185.6380  178.6860  140.5780 C   0  0  0  0  0  0  0  0  0  0  0  0
  187.0000  178.5010  140.3600 O   0  0  0  0  0  1  0  0  0  0  0  0
  182.8880  179.0700  140.9970 C   0  0  0  0  0  0  0  0  0  0  0  0
  180.9580  179.2010  142.5380 C   0  0  0  0  0  1  0  0  0  0  0  0
  181.5220  179.2460  141.2340 O   0  0  0  0  0  0  0  0  0  0  0  0
  189.8340  177.7870  147.7070 C   0  0  0  0  0  2  0  0  0  0  0  0
  189.7690  176.3990  147.5860 O   0  0  0  0  0  1  0  0  0  0  0  0
  1  3  1  1  0  0  0
  1  4  1  0  0  0  0
  2  4  1  0  0  0  0
  2  5  1  0  0  0  0
  3 18  1  0  0  0  0
  4 10  1  0  0  0  0
  5 17  1  0  0  0  0
  6 19  1  0  0  0  0
  7  2  1  0  0  0  0
  8  9  1  0  0  0  0
  9 11  1  0  0  0  0
 10 13  1  0  0  0  0
 10 12  1  0  0  0  0
 11  5  1  0  0  0  0
 14 15  1  0  0  0  0
 14  7  1  0  0  0  0
 15  1  1  0  0  0  0
 16  7  1  0  0  0  0
 17 12  1  0  0  0  0
 17 31  1  0  0  0  0
 18 13  1  0  0  0  0
 19  8  1  0  0  0  0
 20 19  1  0  0  0  0
 20 16  1  0  0  0  0
 21 24  2  0  0  0  0
 21 26  1  0  0  0  0
 22 21  1  0  0  0  0
 23 25  1  0  0  0  0
 23 15  1  0  0  0  0
 24 28  1  0  0  0  0
 26 23  2  0  0  0  0
 27 26  1  0  0  0  0
 28 30  1  0  0  0  0
 28 25  2  0  0  0  0
 30 29  1  0  0  0  0
 32 31  1  0  0  0  0
M  END
>  <MODEL>
7

>  <REMARK>
 VINA RESULT:      -6.4      4.062      6.976
  Name = 
  3 active torsions:
  status: ('A' for Active; 'I' for Inactive)
    1  A    between atoms: C_13  and  C_29
    2  A    between atoms: O_15  and  C_26
    3  A    between atoms: C_16  and  C_27
                            x       y       z     vdW  Elec       q    Type
                         _______ _______ _______ _____ _____    ______ ____

>  <TORSDO>
F 3

$$$$
=
 OpenBabel10272413093D

 32 36  0  0  1  0  0  0  0  0999 V2000
  186.4500  178.0380  139.2240 C   0  0  1  0  0  3  0  0  0  0  0  0
  187.5940  178.7820  141.4390 C   0  0  2  0  0  3  0  0  0  0  0  0
  186.6900  178.1530  137.7120 C   0  0  0  0  0  2  0  0  0  0  0  0
  187.7040  178.5710  139.9190 C   0  0  1  0  0  3  0  0  0  0  0  0
  188.0860  177.5210  142.1800 C   0  0  2  0  0  3  0  0  0  0  0  0
  184.7000  178.9460  146.3330 N   0  0  0  0  0  1  0  0  0  0  0  0
  186.2310  179.1980  141.8970 C   0  0  1  0  0  3  0  0  0  0  0  0
  185.9810  177.2880  145.0830 C   0  0  0  0  0  2  0  0  0  0  0  0
  186.7120  176.8580  143.8010 C   0  0  0  0  0  2  0  0  0  0  0  0
  188.8080  177.5610  139.6040 C   0  0  2  0  0  3  0  0  0  0  0  0
  187.8980  177.5780  143.5770 O   0  0  0  0  0  0  0  0  0  0  0  0
  189.9010  177.7350  140.4740 O   0  0  0  0  0  0  0  0  0  0  0  0
  189.1690  177.6840  138.1320 C   0  0  0  0  0  2  0  0  0  0  0  0
  185.0240  178.6310  141.2020 C   0  0  0  0  0  2  0  0  0  0  0  0
  185.1850  178.7710  139.6880 C   0  0  2  0  0  3  0  0  0  0  0  0
  186.1750  179.6560  143.0960 N   0  0  0  0  0  2  0  0  0  0  0  0
  189.5480  177.1860  141.7410 C   0  0  1  0  0  3  0  0  0  0  0  0
  187.9270  177.3360  137.2930 C   0  0  0  0  0  2  0  0  0  0  0  0
  185.6320  178.7820  145.2340 C   0  0  1  0  0  3  0  0  0  0  0  0
  185.0670  179.4470  143.9820 C   0  0  0  0  0  2  0  0  0  0  0  0
  181.8020  178.6840  137.9490 C   0  0  0  0  0  0  0  0  0  0  0  0
  180.8270  179.5440  137.5630 F   0  0  0  0  0  0  0  0  0  0  0  0
  183.9530  178.2620  138.9930 C   0  0  0  0  0  0  0  0  0  0  0  0
  181.6560  177.3180  137.6930 C   0  0  0  0  0  3  0  0  0  0  0  0
  183.7980  176.8910  138.7330 C   0  0  0  0  0  3  0  0  0  0  0  0
  182.9480  179.1590  138.5980 C   0  0  0  0  0  0  0  0  0  0  0  0
  183.0830  180.5210  138.8450 O   0  0  0  0  0  1  0  0  0  0  0  0
  182.6550  176.4130  138.0860 C   0  0  0  0  0  0  0  0  0  0  0  0
  183.6600  174.2150  137.5640 C   0  0  0  0  0  1  0  0  0  0  0  0
  182.5390  175.0420  137.8450 O   0  0  0  0  0  0  0  0  0  0  0  0
  190.5780  177.6400  142.7660 C   0  0  0  0  0  2  0  0  0  0  0  0
  191.8640  177.3560  142.3070 O   0  0  0  0  0  1  0  0  0  0  0  0
  1  3  1  6  0  0  0
  1 15  1  0  0  0  0
  1  4  1  0  0  0  0
  2  7  1  0  0  0  0
  2  5  1  0  0  0  0
  4  2  1  0  0  0  0
  5 11  1  0  0  0  0
  7 16  1  0  0  0  0
  8 19  1  0  0  0  0
  9  8  1  0  0  0  0
 10  4  1  0  0  0  0
 10 12  1  0  0  0  0
 11  9  1  0  0  0  0
 12 17  1  0  0  0  0
 13 10  1  0  0  0  0
 14  7  1  0  0  0  0
 15 14  1  0  0  0  0
 16 20  1  0  0  0  0
 17  5  1  0  0  0  0
 17 31  1  0  0  0  0
 18  3  1  0  0  0  0
 18 13  1  0  0  0  0
 19  6  1  0  0  0  0
 20 19  1  0  0  0  0
 21 26  1  0  0  0  0
 22 21  1  0  0  0  0
 23 15  1  0  0  0  0
 24 21  2  0  0  0  0
 24 28  1  0  0  0  0
 25 23  1  0  0  0  0
 26 27  1  0  0  0  0
 26 23  2  0  0  0  0
 28 25  2  0  0  0  0
 29 30  1  0  0  0  0
 30 28  1  0  0  0  0
 32 31  1  0  0  0  0
M  END
>  <MODEL>
8

>  <REMARK>
 VINA RESULT:      -6.3      3.147      5.529
  Name = 
  3 active torsions:
  status: ('A' for Active; 'I' for Inactive)
    1  A    between atoms: C_13  and  C_29
    2  A    between atoms: O_15  and  C_26
    3  A    between atoms: C_16  and  C_27
                            x       y       z     vdW  Elec       q    Type
                         _______ _______ _______ _____ _____    ______ ____

>  <TORSDO>
F 3

$$$$
=
 OpenBabel10272413093D

 32 36  0  0  1  0  0  0  0  0999 V2000
  187.7440  177.7750  140.4780 C   0  0  1  0  0  3  0  0  0  0  0  0
  185.6390  179.0580  141.3060 C   0  0  2  0  0  3  0  0  0  0  0  0
  189.2460  177.7050  140.7930 C   0  0  0  0  0  2  0  0  0  0  0  0
  187.1000  178.6460  141.5570 C   0  0  1  0  0  3  0  0  0  0  0  0
  184.6870  178.0480  141.9800 C   0  0  2  0  0  3  0  0  0  0  0  0
  180.9440  179.3800  138.1120 N   0  0  0  0  0  1  0  0  0  0  0  0
  185.3040  179.2590  139.8610 C   0  0  1  0  0  3  0  0  0  0  0  0
  181.8630  177.8410  139.7680 C   0  0  0  0  0  2  0  0  0  0  0  0
  183.0310  177.3770  140.6520 C   0  0  0  0  0  2  0  0  0  0  0  0
  187.2070  177.8410  142.8530 C   0  0  2  0  0  3  0  0  0  0  0  0
  183.3250  178.2770  141.6910 O   0  0  0  0  0  0  0  0  0  0  0  0
  186.3380  178.3590  143.8310 O   0  0  0  0  0  0  0  0  0  0  0  0
  188.6660  177.8100  143.2810 C   0  0  0  0  0  2  0  0  0  0  0  0
  185.9420  178.3630  138.8350 C   0  0  0  0  0  2  0  0  0  0  0  0
  187.4520  178.3020  139.0680 C   0  0  2  0  0  3  0  0  0  0  0  0
  184.1980  179.8720  139.6390 N   0  0  0  0  0  2  0  0  0  0  0  0
  185.0120  177.9490  143.5050 C   0  0  1  0  0  3  0  0  0  0  0  0
  189.4830  177.0980  142.1890 C   0  0  0  0  0  2  0  0  0  0  0  0
  181.9670  179.2410  139.1300 C   0  0  1  0  0  3  0  0  0  0  0  0
  183.3300  179.5830  138.5340 C   0  0  0  0  0  2  0  0  0  0  0  0
  188.5850  177.0320  135.6650 C   0  0  0  0  0  0  0  0  0  0  0  0
  188.4750  177.3720  134.3570 F   0  0  0  0  0  0  0  0  0  0  0  0
  188.0990  177.4590  138.0050 C   0  0  0  0  0  0  0  0  0  0  0  0
  189.3100  175.8920  136.0220 C   0  0  0  0  0  3  0  0  0  0  0  0
  188.8280  176.3110  138.3550 C   0  0  0  0  0  3  0  0  0  0  0  0
  187.9800  177.8170  136.6530 C   0  0  0  0  0  0  0  0  0  0  0  0
  187.2620  178.9510  136.2870 O   0  0  0  0  0  1  0  0  0  0  0  0
  189.4340  175.5240  137.3710 C   0  0  0  0  0  0  0  0  0  0  0  0
  191.4900  174.1510  137.3490 C   0  0  0  0  0  1  0  0  0  0  0  0
  190.1510  174.3900  137.7590 O   0  0  0  0  0  0  0  0  0  0  0  0
  184.0370  178.7490  144.3580 C   0  0  0  0  0  2  0  0  0  0  0  0
  184.6040  179.0180  145.6040 O   0  0  0  0  0  1  0  0  0  0  0  0
  1  3  1  1  0  0  0
  1  4  1  0  0  0  0
  2  4  1  0  0  0  0
  2  5  1  0  0  0  0
  3 18  1  0  0  0  0
  4 10  1  0  0  0  0
  5 17  1  0  0  0  0
  6 19  1  0  0  0  0
  7  2  1  0  0  0  0
  8  9  1  0  0  0  0
  9 11  1  0  0  0  0
 10 13  1  0  0  0  0
 10 12  1  0  0  0  0
 11  5  1  0  0  0  0
 14 15  1  0  0  0  0
 14  7  1  0  0  0  0
 15  1  1  0  0  0  0
 16  7  1  0  0  0  0
 17 12  1  0  0  0  0
 17 31  1  0  0  0  0
 18 13  1  0  0  0  0
 19  8  1  0  0  0  0
 20 19  1  0  0  0  0
 20 16  1  0  0  0  0
 21 24  2  0  0  0  0
 21 26  1  0  0  0  0
 22 21  1  0  0  0  0
 23 25  1  0  0  0  0
 23 15  1  0  0  0  0
 24 28  1  0  0  0  0
 26 23  2  0  0  0  0
 27 26  1  0  0  0  0
 28 30  1  0  0  0  0
 28 25  2  0  0  0  0
 29 30  1  0  0  0  0
 31 32  1  0  0  0  0
M  END
>  <MODEL>
9

>  <REMARK>
 VINA RESULT:      -6.3      1.281      1.459
  Name = 
  3 active torsions:
  status: ('A' for Active; 'I' for Inactive)
    1  A    between atoms: C_13  and  C_29
    2  A    between atoms: O_15  and  C_26
    3  A    between atoms: C_16  and  C_27
                            x       y       z     vdW  Elec       q    Type
                         _______ _______ _______ _____ _____    ______ ____

>  <TORSDO>
F 3

$$$$
