=
 OpenBabel10272400433D

 25 27  0  0  1  0  0  0  0  0999 V2000
  187.2640  177.5510  145.0640 C   0  0  1  0  0  3  0  0  0  0  0  0
  187.9730  176.6860  144.0080 C   0  0  1  0  0  3  0  0  0  0  0  0
  189.6320  178.3320  145.6540 C   0  0  0  0  0  2  0  0  0  0  0  0
  189.8720  176.8270  145.7460 C   0  0  0  0  0  2  0  0  0  0  0  0
  190.2200  175.9580  143.3070 C   0  0  1  0  0  0  0  0  0  0  0  0
  190.2050  174.6290  142.8870 O   0  0  0  0  0  1  0  0  0  0  0  0
  188.3250  177.4620  142.7520 C   0  0  0  0  0  2  0  0  0  0  0  0
  188.1360  178.6620  145.6700 C   0  0  0  0  0  2  0  0  0  0  0  0
  191.6720  176.3320  143.6110 C   0  0  0  0  0  1  0  0  0  0  0  0
  189.5750  176.8090  142.1980 C   0  0  1  0  0  3  0  0  0  0  0  0
  189.2860  176.0810  144.5250 C   0  0  2  0  0  3  0  0  0  0  0  0
  185.8960  178.0150  144.6500 C   0  0  0  0  0  0  0  0  0  0  0  0
  183.3870  178.9050  143.7660 C   0  0  0  0  0  3  0  0  0  0  0  0
  184.9490  178.5010  145.5750 C   0  0  0  0  0  0  0  0  0  0  0  0
  183.6990  178.9410  145.1270 C   0  0  0  0  0  3  0  0  0  0  0  0
  184.3260  178.4290  142.8470 C   0  0  0  0  0  3  0  0  0  0  0  0
  185.2240  178.5470  146.9010 F   0  0  0  0  0  0  0  0  0  0  0  0
  185.5750  177.9880  143.2880 C   0  0  0  0  0  3  0  0  0  0  0  0
  190.6480  177.9870  141.2830 S   0  0  0  0  0  0  0  0  0  0  0  0
  190.3050  177.3000  139.6300 C   0  0  0  0  0  2  0  0  0  0  0  0
  189.0170  177.8770  139.0700 C   0  0  1  0  0  3  0  0  0  0  0  0
  188.5880  178.9120  139.8780 F   0  0  0  0  0  0  0  0  0  0  0  0
  189.2320  178.3830  137.6820 C   0  0  0  0  0  0  0  0  0  0  0  0
  188.9660  179.7120  137.3730 O   0  0  0  0  0  1  0  0  0  0  0  0
  189.6700  177.6080  136.7940 O   0  0  0  0  0  0  0  0  0  0  0  0
  1 12  1  6  0  0  0
  1  8  1  0  0  0  0
  2  7  1  6  0  0  0
  2 11  1  0  0  0  0
  2  1  1  0  0  0  0
  3  8  1  0  0  0  0
  3  4  1  0  0  0  0
  5  9  1  1  0  0  0
  5 11  1  0  0  0  0
  6  5  1  0  0  0  0
 10 19  1  1  0  0  0
 10  7  1  0  0  0  0
 10  5  1  0  0  0  0
 11  4  1  1  0  0  0
 12 14  1  0  0  0  0
 13 15  1  0  0  0  0
 14 17  1  0  0  0  0
 15 14  2  0  0  0  0
 16 18  1  0  0  0  0
 16 13  2  0  0  0  0
 18 12  2  0  0  0  0
 20 19  1  0  0  0  0
 21 20  1  0  0  0  0
 21 22  1  1  0  0  0
 23 21  1  0  0  0  0
 24 23  1  0  0  0  0
 25 23  2  0  0  0  0
M  END
>  <MODEL>
1

>  <REMARK>
 VINA RESULT:      -7.2      0.000      0.000
  Name = 
  5 active torsions:
  status: ('A' for Active; 'I' for Inactive)
    1  A    between atoms: C_1  and  C_5
    2  A    between atoms: C_2  and  C_21
    3  A    between atoms: S_6  and  C_15
    4  A    between atoms: S_6  and  C_23
    5  A    between atoms: C_15  and  C_21
                            x       y       z     vdW  Elec       q    Type
                         _______ _______ _______ _____ _____    ______ ____

>  <TORSDO>
F 5

$$$$
=
 OpenBabel10272400433D

 25 27  0  0  1  0  0  0  0  0999 V2000
  189.2080  177.3830  143.7390 C   0  0  1  0  0  3  0  0  0  0  0  0
  189.1080  176.8380  142.3040 C   0  0  1  0  0  3  0  0  0  0  0  0
  191.3020  178.5780  142.8740 C   0  0  0  0  0  2  0  0  0  0  0  0
  191.6620  177.1640  142.4290 C   0  0  0  0  0  2  0  0  0  0  0  0
  190.3800  176.7150  140.1970 C   0  0  1  0  0  0  0  0  0  0  0  0
  190.1970  175.4800  139.5760 O   0  0  0  0  0  1  0  0  0  0  0  0
  188.4790  177.8290  141.3410 C   0  0  0  0  0  2  0  0  0  0  0  0
  190.1700  178.5700  143.9070 C   0  0  0  0  0  2  0  0  0  0  0  0
  191.6350  177.3530  139.6000 C   0  0  0  0  0  1  0  0  0  0  0  0
  189.0980  177.5410  139.9880 C   0  0  1  0  0  3  0  0  0  0  0  0
  190.4790  176.4720  141.7150 C   0  0  2  0  0  3  0  0  0  0  0  0
  187.8770  177.5870  144.4050 C   0  0  0  0  0  0  0  0  0  0  0  0
  185.3540  178.0330  145.5490 C   0  0  0  0  0  3  0  0  0  0  0  0
  187.7160  177.5480  145.8050 C   0  0  0  0  0  0  0  0  0  0  0  0
  186.4540  177.7690  146.3680 C   0  0  0  0  0  3  0  0  0  0  0  0
  185.5120  178.0780  144.1620 C   0  0  0  0  0  3  0  0  0  0  0  0
  188.7650  177.2930  146.6240 F   0  0  0  0  0  0  0  0  0  0  0  0
  186.7680  177.8590  143.5940 C   0  0  0  0  0  3  0  0  0  0  0  0
  189.2000  179.0330  138.9210 S   0  0  0  0  0  0  0  0  0  0  0  0
  188.7570  178.1810  137.3720 C   0  0  0  0  0  2  0  0  0  0  0  0
  187.4340  178.7000  136.8370 C   0  0  1  0  0  3  0  0  0  0  0  0
  187.3100  178.3550  135.5050 F   0  0  0  0  0  0  0  0  0  0  0  0
  186.2960  178.1230  137.6100 C   0  0  0  0  0  0  0  0  0  0  0  0
  185.6160  178.8990  138.5410 O   0  0  0  0  0  1  0  0  0  0  0  0
  185.9410  176.9330  137.4060 O   0  0  0  0  0  0  0  0  0  0  0  0
  1  8  1  0  0  0  0
  1 12  1  6  0  0  0
  2  7  1  6  0  0  0
  2  1  1  0  0  0  0
  3  8  1  0  0  0  0
  4  3  1  0  0  0  0
  5  9  1  6  0  0  0
  5 11  1  0  0  0  0
  6  5  1  0  0  0  0
 10 19  1  1  0  0  0
 10  5  1  0  0  0  0
 10  7  1  0  0  0  0
 11  2  1  0  0  0  0
 11  4  1  1  0  0  0
 12 14  1  0  0  0  0
 13 15  1  0  0  0  0
 14 15  2  0  0  0  0
 14 17  1  0  0  0  0
 16 13  2  0  0  0  0
 18 16  1  0  0  0  0
 18 12  2  0  0  0  0
 20 19  1  0  0  0  0
 21 22  1  6  0  0  0
 21 20  1  0  0  0  0
 21 23  1  0  0  0  0
 23 24  1  0  0  0  0
 25 23  2  0  0  0  0
M  END
>  <MODEL>
2

>  <REMARK>
 VINA RESULT:      -7.0      2.218      3.042
  Name = 
  5 active torsions:
  status: ('A' for Active; 'I' for Inactive)
    1  A    between atoms: C_1  and  C_5
    2  A    between atoms: C_2  and  C_21
    3  A    between atoms: S_6  and  C_15
    4  A    between atoms: S_6  and  C_23
    5  A    between atoms: C_15  and  C_21
                            x       y       z     vdW  Elec       q    Type
                         _______ _______ _______ _____ _____    ______ ____

>  <TORSDO>
F 5

$$$$
=
 OpenBabel10272400433D

 25 27  0  0  1  0  0  0  0  0999 V2000
  185.8900  178.2170  145.9320 C   0  0  1  0  0  3  0  0  0  0  0  0
  187.1650  177.3600  145.8420 C   0  0  1  0  0  3  0  0  0  0  0  0
  187.2140  179.5590  147.6670 C   0  0  0  0  0  2  0  0  0  0  0  0
  187.4040  178.1730  148.2770 C   0  0  0  0  0  2  0  0  0  0  0  0
  189.3360  177.0140  146.9540 C   0  0  1  0  0  0  0  0  0  0  0  0
  189.6700  175.6610  146.9830 O   0  0  0  0  0  1  0  0  0  0  0  0
  188.2280  177.9810  144.9540 C   0  0  0  0  0  2  0  0  0  0  0  0
  186.0770  179.5690  146.6400 C   0  0  0  0  0  2  0  0  0  0  0  0
  190.1910  177.7260  148.0030 C   0  0  0  0  0  1  0  0  0  0  0  0
  189.5580  177.5220  145.5180 C   0  0  1  0  0  3  0  0  0  0  0  0
  187.8220  177.1340  147.2110 C   0  0  2  0  0  3  0  0  0  0  0  0
  185.1300  178.3130  144.6400 C   0  0  0  0  0  0  0  0  0  0  0  0
  183.8180  178.5080  142.1690 C   0  0  0  0  0  3  0  0  0  0  0  0
  183.7820  178.7220  144.5830 C   0  0  0  0  0  0  0  0  0  0  0  0
  183.1330  178.8150  143.3470 C   0  0  0  0  0  3  0  0  0  0  0  0
  185.1550  178.1070  142.2220 C   0  0  0  0  0  3  0  0  0  0  0  0
  183.0930  179.0250  145.7100 F   0  0  0  0  0  0  0  0  0  0  0  0
  185.8080  178.0130  143.4520 C   0  0  0  0  0  3  0  0  0  0  0  0
  190.9080  178.7340  145.2320 S   0  0  0  0  0  0  0  0  0  0  0  0
  190.9000  178.5930  143.4150 C   0  0  0  0  0  2  0  0  0  0  0  0
  191.5630  177.2980  142.9790 C   0  0  1  0  0  3  0  0  0  0  0  0
  192.0440  176.6320  144.0890 F   0  0  0  0  0  0  0  0  0  0  0  0
  190.5850  176.4280  142.2610 C   0  0  0  0  0  0  0  0  0  0  0  0
  190.0920  176.8050  141.0180 O   0  0  0  0  0  0  0  0  0  0  0  0
  190.2180  175.3420  142.7780 O   0  0  0  0  0  1  0  0  0  0  0  0
  1 12  1  6  0  0  0
  1  8  1  0  0  0  0
  2  7  1  6  0  0  0
  2  1  1  0  0  0  0
  2 11  1  0  0  0  0
  3  4  1  0  0  0  0
  5  6  1  0  0  0  0
  5 11  1  0  0  0  0
  5  9  1  1  0  0  0
  7 10  1  0  0  0  0
  8  3  1  0  0  0  0
 10 19  1  1  0  0  0
 10  5  1  0  0  0  0
 11  4  1  1  0  0  0
 13 16  2  0  0  0  0
 13 15  1  0  0  0  0
 14 12  1  0  0  0  0
 14 17  1  0  0  0  0
 15 14  2  0  0  0  0
 16 18  1  0  0  0  0
 18 12  2  0  0  0  0
 20 19  1  0  0  0  0
 21 20  1  0  0  0  0
 21 22  1  1  0  0  0
 23 25  1  0  0  0  0
 23 21  1  0  0  0  0
 24 23  2  0  0  0  0
M  END
>  <MODEL>
3

>  <REMARK>
 VINA RESULT:      -6.9      2.603      3.580
  Name = 
  5 active torsions:
  status: ('A' for Active; 'I' for Inactive)
    1  A    between atoms: C_1  and  C_5
    2  A    between atoms: C_2  and  C_21
    3  A    between atoms: S_6  and  C_15
    4  A    between atoms: S_6  and  C_23
    5  A    between atoms: C_15  and  C_21
                            x       y       z     vdW  Elec       q    Type
                         _______ _______ _______ _____ _____    ______ ____

>  <TORSDO>
F 5

$$$$
=
 OpenBabel10272400433D

 25 27  0  0  1  0  0  0  0  0999 V2000
  189.3930  177.6150  144.6080 C   0  0  1  0  0  3  0  0  0  0  0  0
  189.2530  176.9710  143.2170 C   0  0  1  0  0  3  0  0  0  0  0  0
  191.3380  178.8980  143.5440 C   0  0  0  0  0  2  0  0  0  0  0  0
  191.7780  177.4870  143.1640 C   0  0  0  0  0  2  0  0  0  0  0  0
  190.4080  176.8030  141.0480 C   0  0  1  0  0  0  0  0  0  0  0  0
  190.2840  175.5200  140.5150 O   0  0  0  0  0  1  0  0  0  0  0  0
  188.4970  177.8490  142.2360 C   0  0  0  0  0  2  0  0  0  0  0  0
  190.2710  178.8760  144.6430 C   0  0  0  0  0  2  0  0  0  0  0  0
  191.5750  177.4890  140.3360 C   0  0  0  0  0  1  0  0  0  0  0  0
  189.0580  177.5190  140.8680 C   0  0  1  0  0  3  0  0  0  0  0  0
  190.6110  176.6670  142.5680 C   0  0  2  0  0  3  0  0  0  0  0  0
  188.0910  177.7650  145.3410 C   0  0  0  0  0  0  0  0  0  0  0  0
  185.6090  178.0950  146.6070 C   0  0  0  0  0  3  0  0  0  0  0  0
  188.0200  177.8780  146.7440 C   0  0  0  0  0  0  0  0  0  0  0  0
  186.7780  178.0400  147.3700 C   0  0  0  0  0  3  0  0  0  0  0  0
  185.6770  177.9900  145.2160 C   0  0  0  0  0  3  0  0  0  0  0  0
  189.1370  177.8260  147.5090 F   0  0  0  0  0  0  0  0  0  0  0  0
  186.9130  177.8290  144.5870 C   0  0  0  0  0  3  0  0  0  0  0  0
  188.9850  178.9420  139.7080 S   0  0  0  0  0  0  0  0  0  0  0  0
  187.9210  178.1200  138.4770 C   0  0  0  0  0  2  0  0  0  0  0  0
  188.6580  177.9540  137.1610 C   0  0  1  0  0  3  0  0  0  0  0  0
  189.4510  179.0630  136.9360 F   0  0  0  0  0  0  0  0  0  0  0  0
  189.5110  176.7300  137.1910 C   0  0  0  0  0  0  0  0  0  0  0  0
  188.9430  175.4860  137.4400 O   0  0  0  0  0  1  0  0  0  0  0  0
  190.7470  176.8230  136.9750 O   0  0  0  0  0  0  0  0  0  0  0  0
  1  8  1  0  0  0  0
  1 12  1  6  0  0  0
  2  7  1  6  0  0  0
  2  1  1  0  0  0  0
  3  8  1  0  0  0  0
  4  3  1  0  0  0  0
  5  9  1  6  0  0  0
  5 11  1  0  0  0  0
  6  5  1  0  0  0  0
 10 19  1  6  0  0  0
 10  5  1  0  0  0  0
 10  7  1  0  0  0  0
 11  4  1  1  0  0  0
 11  2  1  0  0  0  0
 12 14  1  0  0  0  0
 13 15  1  0  0  0  0
 14 15  2  0  0  0  0
 14 17  1  0  0  0  0
 16 13  2  0  0  0  0
 18 16  1  0  0  0  0
 18 12  2  0  0  0  0
 20 19  1  0  0  0  0
 21 22  1  1  0  0  0
 21 23  1  0  0  0  0
 21 20  1  0  0  0  0
 23 24  1  0  0  0  0
 25 23  2  0  0  0  0
M  END
>  <MODEL>
4

>  <REMARK>
 VINA RESULT:      -6.9      1.958      2.736
  Name = 
  5 active torsions:
  status: ('A' for Active; 'I' for Inactive)
    1  A    between atoms: C_1  and  C_5
    2  A    between atoms: C_2  and  C_21
    3  A    between atoms: S_6  and  C_15
    4  A    between atoms: S_6  and  C_23
    5  A    between atoms: C_15  and  C_21
                            x       y       z     vdW  Elec       q    Type
                         _______ _______ _______ _____ _____    ______ ____

>  <TORSDO>
F 5

$$$$
=
 OpenBabel10272400433D

 25 27  0  0  1  0  0  0  0  0999 V2000
  187.5440  177.7030  143.8590 C   0  0  1  0  0  3  0  0  0  0  0  0
  188.9250  178.2430  144.2710 C   0  0  1  0  0  3  0  0  0  0  0  0
  188.8880  175.8440  142.7180 C   0  0  0  0  0  2  0  0  0  0  0  0
  189.6020  177.0400  142.0940 C   0  0  0  0  0  2  0  0  0  0  0  0
  191.3290  177.9020  143.8540 C   0  0  1  0  0  0  0  0  0  0  0  0
  192.0080  179.1200  143.8260 O   0  0  0  0  0  1  0  0  0  0  0  0
  189.4960  177.5330  145.4850 C   0  0  0  0  0  2  0  0  0  0  0  0
  187.5520  176.2540  143.3450 C   0  0  0  0  0  2  0  0  0  0  0  0
  192.2180  176.8610  143.1720 C   0  0  0  0  0  1  0  0  0  0  0  0
  191.0020  177.5790  145.3220 C   0  0  1  0  0  3  0  0  0  0  0  0
  189.9710  178.1010  143.1550 C   0  0  2  0  0  3  0  0  0  0  0  0
  186.4600  177.9830  144.8600 C   0  0  0  0  0  0  0  0  0  0  0  0
  184.4830  178.4180  146.8010 C   0  0  0  0  0  3  0  0  0  0  0  0
  185.2170  178.5380  144.4950 C   0  0  0  0  0  0  0  0  0  0  0  0
  184.2360  178.7550  145.4690 C   0  0  0  0  0  3  0  0  0  0  0  0
  185.7110  177.8630  147.1660 C   0  0  0  0  0  3  0  0  0  0  0  0
  184.9500  178.8760  143.2090 F   0  0  0  0  0  0  0  0  0  0  0  0
  186.6940  177.6440  146.1980 C   0  0  0  0  0  3  0  0  0  0  0  0
  191.8450  176.1430  146.0970 S   0  0  0  0  0  0  0  0  0  0  0  0
  191.6180  176.7030  147.8170 C   0  0  0  0  0  2  0  0  0  0  0  0
  192.6670  176.0830  148.7220 C   0  0  1  0  0  3  0  0  0  0  0  0
  193.6060  175.4230  147.9520 F   0  0  0  0  0  0  0  0  0  0  0  0
  193.3410  177.1350  149.5370 C   0  0  0  0  0  0  0  0  0  0  0  0
  194.5970  176.9010  150.0830 O   0  0  0  0  0  1  0  0  0  0  0  0
  192.7760  178.2450  149.7170 O   0  0  0  0  0  0  0  0  0  0  0  0
  1  2  1  0  0  0  0
  1 12  1  1  0  0  0
  2  7  1  1  0  0  0
  3  8  1  0  0  0  0
  4  3  1  0  0  0  0
  5  9  1  6  0  0  0
  5 10  1  0  0  0  0
  6  5  1  0  0  0  0
  8  1  1  0  0  0  0
 10  7  1  0  0  0  0
 10 19  1  6  0  0  0
 11  4  1  6  0  0  0
 11  5  1  0  0  0  0
 11  2  1  0  0  0  0
 12 18  1  0  0  0  0
 13 16  1  0  0  0  0
 14 12  2  0  0  0  0
 14 15  1  0  0  0  0
 15 13  2  0  0  0  0
 17 14  1  0  0  0  0
 18 16  2  0  0  0  0
 19 20  1  0  0  0  0
 20 21  1  0  0  0  0
 21 22  1  6  0  0  0
 21 23  1  0  0  0  0
 23 25  2  0  0  0  0
 23 24  1  0  0  0  0
M  END
>  <MODEL>
5

>  <REMARK>
 VINA RESULT:      -6.9      3.818      6.347
  Name = 
  5 active torsions:
  status: ('A' for Active; 'I' for Inactive)
    1  A    between atoms: C_1  and  C_5
    2  A    between atoms: C_2  and  C_21
    3  A    between atoms: S_6  and  C_15
    4  A    between atoms: S_6  and  C_23
    5  A    between atoms: C_15  and  C_21
                            x       y       z     vdW  Elec       q    Type
                         _______ _______ _______ _____ _____    ______ ____

>  <TORSDO>
F 5

$$$$
=
 OpenBabel10272400433D

 25 27  0  0  1  0  0  0  0  0999 V2000
  188.3130  177.3960  142.5200 C   0  0  1  0  0  3  0  0  0  0  0  0
  189.2380  178.1310  143.5060 C   0  0  1  0  0  3  0  0  0  0  0  0
  189.5860  175.3040  143.2700 C   0  0  0  0  0  2  0  0  0  0  0  0
  190.7890  176.1640  142.8930 C   0  0  0  0  0  2  0  0  0  0  0  0
  191.2360  177.7730  144.9020 C   0  0  1  0  0  0  0  0  0  0  0  0
  192.0550  178.9010  144.8990 O   0  0  0  0  0  1  0  0  0  0  0  0
  188.7670  178.0250  144.9450 C   0  0  0  0  0  2  0  0  0  0  0  0
  188.2880  175.8680  142.6840 C   0  0  0  0  0  2  0  0  0  0  0  0
  192.0790  176.5910  145.3820 C   0  0  0  0  0  1  0  0  0  0  0  0
  190.0200  178.0780  145.7950 C   0  0  1  0  0  3  0  0  0  0  0  0
  190.6760  177.5900  143.4800 C   0  0  2  0  0  3  0  0  0  0  0  0
  186.9480  178.0120  142.3950 C   0  0  0  0  0  0  0  0  0  0  0  0
  184.3600  179.0850  142.2490 C   0  0  0  0  0  3  0  0  0  0  0  0
  186.5090  178.6480  141.2160 C   0  0  0  0  0  0  0  0  0  0  0  0
  185.2180  179.1830  141.1510 C   0  0  0  0  0  3  0  0  0  0  0  0
  184.7900  178.4500  143.4170 C   0  0  0  0  0  3  0  0  0  0  0  0
  187.3200  178.7590  140.1360 F   0  0  0  0  0  0  0  0  0  0  0  0
  186.0780  177.9150  143.4880 C   0  0  0  0  0  3  0  0  0  0  0  0
  189.8520  177.1430  147.3680 S   0  0  0  0  0  0  0  0  0  0  0  0
  188.0360  176.9970  147.3000 C   0  0  0  0  0  2  0  0  0  0  0  0
  187.3840  178.0400  148.1900 C   0  0  1  0  0  3  0  0  0  0  0  0
  188.3080  179.0180  148.5040 F   0  0  0  0  0  0  0  0  0  0  0  0
  186.2170  178.6610  147.4970 C   0  0  0  0  0  0  0  0  0  0  0  0
  185.9840  180.0270  147.6040 O   0  0  0  0  0  1  0  0  0  0  0  0
  185.4520  177.9470  146.7990 O   0  0  0  0  0  0  0  0  0  0  0  0
  1 12  1  1  0  0  0
  1  8  1  0  0  0  0
  1  2  1  0  0  0  0
  2  7  1  1  0  0  0
  4  3  1  0  0  0  0
  5  9  1  1  0  0  0
  5 10  1  0  0  0  0
  6  5  1  0  0  0  0
  7 10  1  0  0  0  0
  8  3  1  0  0  0  0
 10 19  1  1  0  0  0
 11  4  1  1  0  0  0
 11  2  1  0  0  0  0
 11  5  1  0  0  0  0
 12 18  1  0  0  0  0
 13 16  1  0  0  0  0
 14 12  2  0  0  0  0
 15 14  1  0  0  0  0
 15 13  2  0  0  0  0
 16 18  2  0  0  0  0
 17 14  1  0  0  0  0
 20 19  1  0  0  0  0
 20 21  1  0  0  0  0
 21 22  1  6  0  0  0
 23 24  1  0  0  0  0
 23 21  1  0  0  0  0
 25 23  2  0  0  0  0
M  END
>  <MODEL>
6

>  <REMARK>
 VINA RESULT:      -6.8      3.404      5.706
  Name = 
  5 active torsions:
  status: ('A' for Active; 'I' for Inactive)
    1  A    between atoms: C_1  and  C_5
    2  A    between atoms: C_2  and  C_21
    3  A    between atoms: S_6  and  C_15
    4  A    between atoms: S_6  and  C_23
    5  A    between atoms: C_15  and  C_21
                            x       y       z     vdW  Elec       q    Type
                         _______ _______ _______ _____ _____    ______ ____

>  <TORSDO>
F 5

$$$$
=
 OpenBabel10272400433D

 25 27  0  0  1  0  0  0  0  0999 V2000
  189.9080  177.5720  145.1070 C   0  0  1  0  0  3  0  0  0  0  0  0
  189.5160  176.9550  143.7520 C   0  0  1  0  0  3  0  0  0  0  0  0
  191.5430  178.9700  143.7160 C   0  0  0  0  0  2  0  0  0  0  0  0
  191.9550  177.5910  143.2100 C   0  0  0  0  0  2  0  0  0  0  0  0
  190.2150  176.8940  141.3900 C   0  0  1  0  0  0  0  0  0  0  0  0
  190.0390  175.6200  140.8520 O   0  0  0  0  0  1  0  0  0  0  0  0
  188.5420  177.8200  142.9730 C   0  0  0  0  0  2  0  0  0  0  0  0
  190.7220  178.8710  145.0060 C   0  0  0  0  0  2  0  0  0  0  0  0
  191.1840  177.6510  140.4810 C   0  0  0  0  0  1  0  0  0  0  0  0
  188.8270  177.5500  141.5090 C   0  0  1  0  0  3  0  0  0  0  0  0
  190.7270  176.7310  142.8340 C   0  0  2  0  0  3  0  0  0  0  0  0
  188.7760  177.6430  146.0910 C   0  0  0  0  0  0  0  0  0  0  0  0
  186.5950  177.8370  147.8450 C   0  0  0  0  0  3  0  0  0  0  0  0
  188.9800  177.5990  147.4850 C   0  0  0  0  0  0  0  0  0  0  0  0
  187.8870  177.6930  148.3540 C   0  0  0  0  0  3  0  0  0  0  0  0
  186.3900  177.8870  146.4640 C   0  0  0  0  0  3  0  0  0  0  0  0
  190.2230  177.4580  148.0080 F   0  0  0  0  0  0  0  0  0  0  0  0
  187.4760  177.7930  145.5920 C   0  0  0  0  0  3  0  0  0  0  0  0
  188.4630  178.9950  140.4350 S   0  0  0  0  0  0  0  0  0  0  0  0
  186.8200  178.4150  139.8990 C   0  0  0  0  0  2  0  0  0  0  0  0
  185.7690  178.7580  140.9390 C   0  0  1  0  0  3  0  0  0  0  0  0
  186.2250  179.7970  141.7270 F   0  0  0  0  0  0  0  0  0  0  0  0
  184.4920  179.1570  140.2770 C   0  0  0  0  0  0  0  0  0  0  0  0
  183.2770  178.6800  140.7540 O   0  0  0  0  0  1  0  0  0  0  0  0
  184.5160  179.9420  139.2940 O   0  0  0  0  0  0  0  0  0  0  0  0
  1 12  1  1  0  0  0
  2  7  1  6  0  0  0
  2  1  1  0  0  0  0
  3  8  1  0  0  0  0
  4  3  1  0  0  0  0
  5  9  1  6  0  0  0
  5 10  1  0  0  0  0
  5 11  1  0  0  0  0
  6  5  1  0  0  0  0
  8  1  1  0  0  0  0
 10 19  1  6  0  0  0
 10  7  1  0  0  0  0
 11  4  1  1  0  0  0
 11  2  1  0  0  0  0
 12 14  1  0  0  0  0
 13 15  1  0  0  0  0
 14 17  1  0  0  0  0
 14 15  2  0  0  0  0
 16 13  2  0  0  0  0
 18 12  2  0  0  0  0
 18 16  1  0  0  0  0
 20 19  1  0  0  0  0
 20 21  1  0  0  0  0
 21 22  1  6  0  0  0
 23 24  1  0  0  0  0
 23 21  1  0  0  0  0
 25 23  2  0  0  0  0
M  END
>  <MODEL>
7

>  <REMARK>
 VINA RESULT:      -6.7      2.680      3.820
  Name = 
  5 active torsions:
  status: ('A' for Active; 'I' for Inactive)
    1  A    between atoms: C_1  and  C_5
    2  A    between atoms: C_2  and  C_21
    3  A    between atoms: S_6  and  C_15
    4  A    between atoms: S_6  and  C_23
    5  A    between atoms: C_15  and  C_21
                            x       y       z     vdW  Elec       q    Type
                         _______ _______ _______ _____ _____    ______ ____

>  <TORSDO>
F 5

$$$$
=
 OpenBabel10272400433D

 25 27  0  0  1  0  0  0  0  0999 V2000
  184.9160  177.4840  137.5480 C   0  0  1  0  0  3  0  0  0  0  0  0
  186.1270  178.3740  137.8790 C   0  0  1  0  0  3  0  0  0  0  0  0
  186.6770  175.8360  136.6840 C   0  0  0  0  0  2  0  0  0  0  0  0
  187.1250  177.0640  135.8950 C   0  0  0  0  0  2  0  0  0  0  0  0
  188.5580  178.5310  137.5140 C   0  0  1  0  0  0  0  0  0  0  0  0
  188.9470  179.8540  137.3120 O   0  0  0  0  0  1  0  0  0  0  0  0
  186.8030  177.9870  139.1820 C   0  0  0  0  0  2  0  0  0  0  0  0
  185.2630  176.0170  137.2470 C   0  0  0  0  0  2  0  0  0  0  0  0
  189.6790  177.6330  136.9870 C   0  0  0  0  0  1  0  0  0  0  0  0
  188.2640  178.3500  139.0130 C   0  0  1  0  0  3  0  0  0  0  0  0
  187.2130  178.3180  136.7940 C   0  0  2  0  0  3  0  0  0  0  0  0
  183.7650  177.6480  138.4990 C   0  0  0  0  0  0  0  0  0  0  0  0
  181.5690  177.8480  140.2340 C   0  0  0  0  0  3  0  0  0  0  0  0
  183.3430  178.9090  138.9680 C   0  0  0  0  0  0  0  0  0  0  0  0
  182.2490  179.0010  139.8350 C   0  0  0  0  0  3  0  0  0  0  0  0
  181.9810  176.5980  139.7670 C   0  0  0  0  0  3  0  0  0  0  0  0
  183.9840  180.0450  138.5980 F   0  0  0  0  0  0  0  0  0  0  0  0
  183.0720  176.5000  138.9020 C   0  0  0  0  0  3  0  0  0  0  0  0
  189.3830  177.2630  139.9850 S   0  0  0  0  0  0  0  0  0  0  0  0
  189.0440  178.0460  141.5960 C   0  0  0  0  0  2  0  0  0  0  0  0
  189.9370  177.4570  142.6730 C   0  0  1  0  0  3  0  0  0  0  0  0
  189.8370  178.2200  143.8200 F   0  0  0  0  0  0  0  0  0  0  0  0
  189.5350  176.0520  142.9730 C   0  0  0  0  0  0  0  0  0  0  0  0
  188.2050  175.7440  143.2340 O   0  0  0  0  0  1  0  0  0  0  0  0
  190.4010  175.1400  142.9750 O   0  0  0  0  0  0  0  0  0  0  0  0
  1  2  1  0  0  0  0
  1 12  1  1  0  0  0
  2  7  1  1  0  0  0
  3  8  1  0  0  0  0
  4  3  1  0  0  0  0
  5  9  1  6  0  0  0
  5 10  1  0  0  0  0
  6  5  1  0  0  0  0
  8  1  1  0  0  0  0
 10  7  1  0  0  0  0
 10 19  1  6  0  0  0
 11  4  1  1  0  0  0
 11  5  1  0  0  0  0
 11  2  1  0  0  0  0
 12 18  2  0  0  0  0
 12 14  1  0  0  0  0
 14 15  2  0  0  0  0
 15 13  1  0  0  0  0
 16 13  2  0  0  0  0
 17 14  1  0  0  0  0
 18 16  1  0  0  0  0
 19 20  1  0  0  0  0
 20 21  1  0  0  0  0
 21 23  1  0  0  0  0
 21 22  1  1  0  0  0
 23 25  2  0  0  0  0
 23 24  1  0  0  0  0
M  END
>  <MODEL>
8

>  <REMARK>
 VINA RESULT:      -6.4      3.169      6.537
  Name = 
  5 active torsions:
  status: ('A' for Active; 'I' for Inactive)
    1  A    between atoms: C_1  and  C_5
    2  A    between atoms: C_2  and  C_21
    3  A    between atoms: S_6  and  C_15
    4  A    between atoms: S_6  and  C_23
    5  A    between atoms: C_15  and  C_21
                            x       y       z     vdW  Elec       q    Type
                         _______ _______ _______ _____ _____    ______ ____

>  <TORSDO>
F 5

$$$$
=
 OpenBabel10272400433D

 25 27  0  0  1  0  0  0  0  0999 V2000
  187.2610  177.6650  143.4180 C   0  0  1  0  0  3  0  0  0  0  0  0
  188.5330  178.3970  143.8810 C   0  0  1  0  0  3  0  0  0  0  0  0
  188.8520  175.7080  142.9670 C   0  0  0  0  0  2  0  0  0  0  0  0
  189.6020  176.7800  142.1810 C   0  0  0  0  0  2  0  0  0  0  0  0
  190.9850  178.1680  143.9090 C   0  0  1  0  0  0  0  0  0  0  0  0
  191.6040  179.3970  143.6860 O   0  0  0  0  0  1  0  0  0  0  0  0
  188.9340  178.0390  145.3000 C   0  0  0  0  0  2  0  0  0  0  0  0
  187.4160  176.1420  143.2780 C   0  0  0  0  0  2  0  0  0  0  0  0
  192.0180  177.0730  143.6360 C   0  0  0  0  0  1  0  0  0  0  0  0
  190.4430  178.1700  145.3500 C   0  0  1  0  0  3  0  0  0  0  0  0
  189.7490  178.0860  142.9960 C   0  0  2  0  0  3  0  0  0  0  0  0
  186.0200  178.0800  144.1540 C   0  0  0  0  0  0  0  0  0  0  0  0
  183.7390  178.7890  145.6260 C   0  0  0  0  0  3  0  0  0  0  0  0
  184.8340  178.4540  143.4890 C   0  0  0  0  0  0  0  0  0  0  0  0
  183.7010  178.8090  144.2300 C   0  0  0  0  0  3  0  0  0  0  0  0
  184.9100  178.4130  146.2880 C   0  0  0  0  0  3  0  0  0  0  0  0
  184.7680  178.4840  142.1360 F   0  0  0  0  0  0  0  0  0  0  0  0
  186.0440  178.0580  145.5540 C   0  0  0  0  0  3  0  0  0  0  0  0
  191.2160  177.0270  146.5630 S   0  0  0  0  0  0  0  0  0  0  0  0
  189.6600  176.5480  147.3810 C   0  0  0  0  0  2  0  0  0  0  0  0
  189.4190  177.4040  148.6110 C   0  0  1  0  0  3  0  0  0  0  0  0
  190.2540  178.5030  148.5760 F   0  0  0  0  0  0  0  0  0  0  0  0
  187.9980  177.8590  148.6600 C   0  0  0  0  0  0  0  0  0  0  0  0
  187.6680  179.1620  148.3090 O   0  0  0  0  0  0  0  0  0  0  0  0
  187.0950  177.0540  149.0050 O   0  0  0  0  0  1  0  0  0  0  0  0
  1  2  1  0  0  0  0
  1 12  1  1  0  0  0
  2  7  1  1  0  0  0
  3  8  1  0  0  0  0
  4  3  1  0  0  0  0
  5  9  1  6  0  0  0
  5 10  1  0  0  0  0
  6  5  1  0  0  0  0
  7 10  1  0  0  0  0
  8  1  1  0  0  0  0
 10 19  1  1  0  0  0
 11  4  1  1  0  0  0
 11  2  1  0  0  0  0
 11  5  1  0  0  0  0
 12 18  1  0  0  0  0
 13 16  1  0  0  0  0
 14 12  2  0  0  0  0
 14 15  1  0  0  0  0
 15 13  2  0  0  0  0
 17 14  1  0  0  0  0
 18 16  2  0  0  0  0
 19 20  1  0  0  0  0
 20 21  1  0  0  0  0
 21 22  1  6  0  0  0
 21 23  1  0  0  0  0
 23 25  1  0  0  0  0
 24 23  2  0  0  0  0
M  END
>  <MODEL>
9

>  <REMARK>
 VINA RESULT:      -6.4      3.208      5.706
  Name = 
  5 active torsions:
  status: ('A' for Active; 'I' for Inactive)
    1  A    between atoms: C_1  and  C_5
    2  A    between atoms: C_2  and  C_21
    3  A    between atoms: S_6  and  C_15
    4  A    between atoms: S_6  and  C_23
    5  A    between atoms: C_15  and  C_21
                            x       y       z     vdW  Elec       q    Type
                         _______ _______ _______ _____ _____    ______ ____

>  <TORSDO>
F 5

$$$$
