=
 OpenBabel10272415133D

 34 38  0  0  1  0  0  0  0  0999 V2000
  187.7390  177.6640  144.3950 C   0  0  2  0  0  3  0  0  0  0  0  0
  183.8730  178.2320  144.9370 C   0  0  0  0  0  2  0  0  0  0  0  0
  182.6650  179.0300  142.0040 C   0  0  0  0  0  0  0  0  0  0  0  0
  185.7630  178.0950  146.4550 O   0  0  0  0  0  0  0  0  0  0  0  0
  189.4560  177.7700  146.2320 C   0  0  0  0  0  3  0  0  0  0  0  0
  188.8150  178.1070  148.5430 C   0  0  0  0  0  3  0  0  0  0  0  0
  182.7790  178.7310  140.6150 N   0  0  0  0  0  1  0  0  0  0  0  0
  189.8060  177.9110  147.5780 C   0  0  0  0  0  3  0  0  0  0  0  0
  187.1120  178.0180  146.8230 C   0  0  0  0  0  0  0  0  0  0  0  0
  188.1120  177.8260  145.8460 C   0  0  0  0  0  0  0  0  0  0  0  0
  187.4700  178.1630  148.1660 C   0  0  0  0  0  3  0  0  0  0  0  0
  183.7280  179.5650  144.2140 C   0  0  0  0  0  2  0  0  0  0  0  0
  181.5280  179.0170  142.5450 O   0  0  0  0  0  0  0  0  0  0  0  0
  183.8330  179.3460  142.7760 N   0  0  0  0  0  0  0  0  0  0  0  0
  185.1540  179.2990  142.1630 C   0  0  0  0  0  2  0  0  0  0  0  0
  185.3250  177.7830  145.1340 C   0  0  2  0  0  3  0  0  0  0  0  0
  185.9300  178.0840  142.6490 C   0  0  0  0  0  2  0  0  0  0  0  0
  186.3580  178.2810  144.1010 C   0  0  2  0  0  3  0  0  0  0  0  0
  187.8940  176.2110  143.9140 C   0  0  0  0  0  2  0  0  0  0  0  0
  189.0580  176.0310  142.9450 C   0  0  0  0  0  2  0  0  0  0  0  0
  189.4180  177.2650  142.3920 O   0  0  0  0  0  0  0  0  0  0  0  0
  188.4010  178.1370  138.8810 C   0  0  0  0  0  2  0  0  0  0  0  0
  190.6290  176.7310  140.3740 C   0  0  0  0  0  2  0  0  0  0  0  0
  190.4340  176.3250  136.1300 C   0  0  1  0  0  3  0  0  0  0  0  0
  189.3870  177.2680  136.7410 C   0  0  0  0  0  2  0  0  0  0  0  0
  189.2910  177.0620  138.2470 C   0  0  1  0  0  3  0  0  0  0  0  0
  191.5470  176.0330  138.1440 C   0  0  0  0  0  2  0  0  0  0  0  0
  190.6860  177.0570  138.8750 C   0  0  2  0  0  3  0  0  0  0  0  0
  191.6920  176.3850  136.7830 O   0  0  0  0  0  0  0  0  0  0  0  0
  189.2790  177.0920  141.0120 C   0  0  2  0  0  3  0  0  0  0  0  0
  188.6820  178.3470  140.3780 C   0  0  0  0  0  2  0  0  0  0  0  0
  189.9460  174.9230  135.9010 C   0  0  0  0  0  0  0  0  0  0  0  0
  188.7280  174.6590  136.0670 O   0  0  0  0  0  0  0  0  0  0  0  0
  190.8360  173.8960  135.4790 N   0  0  0  0  0  1  0  0  0  0  0  0
  1 19  1  1  0  0  0
  1 10  1  0  0  0  0
  3 13  2  0  0  0  0
  3 14  1  0  0  0  0
  4  9  1  0  0  0  0
  5  8  1  0  0  0  0
  7  3  1  0  0  0  0
  8  6  2  0  0  0  0
  9 11  2  0  0  0  0
 10  5  2  0  0  0  0
 10  9  1  0  0  0  0
 11  6  1  0  0  0  0
 12  2  1  0  0  0  0
 14 12  1  0  0  0  0
 15 17  1  0  0  0  0
 15 14  1  0  0  0  0
 16  2  1  6  0  0  0
 16  4  1  0  0  0  0
 18 17  1  6  0  0  0
 18  1  1  0  0  0  0
 18 16  1  0  0  0  0
 20 19  1  0  0  0  0
 21 20  1  0  0  0  0
 22 31  1  0  0  0  0
 23 30  1  0  0  0  0
 24 32  1  1  0  0  0
 24 25  1  0  0  0  0
 24 29  1  0  0  0  0
 26 25  1  6  0  0  0
 26 28  1  0  0  0  0
 26 22  1  0  0  0  0
 28 27  1  6  0  0  0
 28 23  1  0  0  0  0
 29 27  1  0  0  0  0
 30 21  1  1  0  0  0
 31 30  1  0  0  0  0
 32 33  2  0  0  0  0
 34 32  1  0  0  0  0
M  END
>  <MODEL>
1

>  <REMARK>
 VINA RESULT:      -9.1      0.000      0.000
  Name = 
  5 active torsions:
  status: ('A' for Active; 'I' for Inactive)
    1  A    between atoms: C_1  and  C_9
    2  A    between atoms: C_7  and  C_11
    3  A    between atoms: C_8  and  C_9
    4  A    between atoms: C_8  and  O_18
    5  A    between atoms: O_18  and  C_30
                            x       y       z     vdW  Elec       q    Type
                         _______ _______ _______ _____ _____    ______ ____

>  <TORSDO>
F 5

$$$$
=
 OpenBabel10272415133D

 34 38  0  0  1  0  0  0  0  0999 V2000
  185.2430  178.2400  142.6580 C   0  0  2  0  0  3  0  0  0  0  0  0
  185.6340  179.1980  146.4650 C   0  0  0  0  0  2  0  0  0  0  0  0
  188.4410  177.8360  147.4480 C   0  0  0  0  0  0  0  0  0  0  0  0
  183.7610  179.2490  144.9210 O   0  0  0  0  0  0  0  0  0  0  0  0
  183.0560  178.2500  141.4140 C   0  0  0  0  0  3  0  0  0  0  0  0
  181.0060  178.9970  142.4660 C   0  0  0  0  0  3  0  0  0  0  0  0
  189.7730  177.5590  147.0230 N   0  0  0  0  0  1  0  0  0  0  0  0
  181.6820  178.4980  141.3490 C   0  0  0  0  0  3  0  0  0  0  0  0
  183.0780  179.0100  143.7220 C   0  0  0  0  0  0  0  0  0  0  0  0
  183.7600  178.5000  142.5970 C   0  0  0  0  0  0  0  0  0  0  0  0
  181.7030  179.2510  143.6510 C   0  0  0  0  0  3  0  0  0  0  0  0
  185.9670  177.8190  147.0200 C   0  0  0  0  0  2  0  0  0  0  0  0
  188.2550  178.4130  148.5520 O   0  0  0  0  0  0  0  0  0  0  0  0
  187.3250  177.4580  146.6290 N   0  0  0  0  0  0  0  0  0  0  0  0
  187.5450  176.8480  145.3240 C   0  0  0  0  0  2  0  0  0  0  0  0
  185.1840  179.1880  145.0000 C   0  0  2  0  0  3  0  0  0  0  0  0
  187.2250  177.8320  144.2080 C   0  0  0  0  0  2  0  0  0  0  0  0
  185.7170  178.0440  144.1120 C   0  0  2  0  0  3  0  0  0  0  0  0
  186.0490  179.2850  141.8700 C   0  0  0  0  0  2  0  0  0  0  0  0
  186.9730  178.6580  140.8310 C   0  0  0  0  0  2  0  0  0  0  0  0
  186.3540  178.6540  139.5770 O   0  0  0  0  0  0  0  0  0  0  0  0
  187.9150  177.4450  136.3790 C   0  0  0  0  0  2  0  0  0  0  0  0
  188.6460  177.9650  139.2710 C   0  0  0  0  0  2  0  0  0  0  0  0
  191.4040  175.8250  136.8150 C   0  0  1  0  0  3  0  0  0  0  0  0
  190.1510  176.3390  136.0900 C   0  0  0  0  0  2  0  0  0  0  0  0
  189.0780  176.7460  137.0910 C   0  0  1  0  0  3  0  0  0  0  0  0
  190.8810  176.9270  138.7880 C   0  0  0  0  0  2  0  0  0  0  0  0
  189.6770  177.6380  138.1810 C   0  0  2  0  0  3  0  0  0  0  0  0
  191.8790  176.7160  137.8100 O   0  0  0  0  0  0  0  0  0  0  0  0
  187.1980  177.8910  138.7650 C   0  0  2  0  0  3  0  0  0  0  0  0
  187.0920  178.3490  137.3110 C   0  0  0  0  0  2  0  0  0  0  0  0
  191.3080  174.4010  137.2830 C   0  0  0  0  0  0  0  0  0  0  0  0
  192.3460  173.8090  137.6760 O   0  0  0  0  0  0  0  0  0  0  0  0
  190.0590  173.7190  137.3080 N   0  0  0  0  0  1  0  0  0  0  0  0
  1 19  1  1  0  0  0
  1 18  1  0  0  0  0
  2 12  1  0  0  0  0
  3 13  2  0  0  0  0
  4 16  1  0  0  0  0
  5 10  1  0  0  0  0
  6 11  2  0  0  0  0
  7  3  1  0  0  0  0
  8  5  2  0  0  0  0
  8  6  1  0  0  0  0
  9  4  1  0  0  0  0
 10  1  1  0  0  0  0
 10  9  2  0  0  0  0
 11  9  1  0  0  0  0
 14 12  1  0  0  0  0
 14  3  1  0  0  0  0
 15 14  1  0  0  0  0
 16  2  1  1  0  0  0
 17 15  1  0  0  0  0
 18 17  1  6  0  0  0
 18 16  1  0  0  0  0
 20 19  1  0  0  0  0
 21 20  1  0  0  0  0
 22 26  1  0  0  0  0
 22 31  1  0  0  0  0
 24 32  1  1  0  0  0
 24 29  1  0  0  0  0
 25 24  1  0  0  0  0
 26 25  1  6  0  0  0
 26 28  1  0  0  0  0
 28 27  1  1  0  0  0
 28 23  1  0  0  0  0
 29 27  1  0  0  0  0
 30 23  1  0  0  0  0
 30 21  1  1  0  0  0
 31 30  1  0  0  0  0
 32 34  1  0  0  0  0
 32 33  2  0  0  0  0
M  END
>  <MODEL>
2

>  <REMARK>
 VINA RESULT:      -9.0      2.369      4.964
  Name = 
  5 active torsions:
  status: ('A' for Active; 'I' for Inactive)
    1  A    between atoms: C_1  and  C_9
    2  A    between atoms: C_7  and  C_11
    3  A    between atoms: C_8  and  C_9
    4  A    between atoms: C_8  and  O_18
    5  A    between atoms: O_18  and  C_30
                            x       y       z     vdW  Elec       q    Type
                         _______ _______ _______ _____ _____    ______ ____

>  <TORSDO>
F 5

$$$$
=
 OpenBabel10272415133D

 34 38  0  0  1  0  0  0  0  0999 V2000
  184.9280  178.3590  142.7520 C   0  0  2  0  0  3  0  0  0  0  0  0
  185.7640  179.0770  146.5410 C   0  0  0  0  0  2  0  0  0  0  0  0
  188.7090  177.7560  147.0740 C   0  0  0  0  0  0  0  0  0  0  0  0
  183.7120  179.1610  145.2450 O   0  0  0  0  0  0  0  0  0  0  0  0
  182.6030  178.3720  141.7900 C   0  0  0  0  0  3  0  0  0  0  0  0
  180.6810  178.9720  143.1350 C   0  0  0  0  0  3  0  0  0  0  0  0
  189.9850  177.5580  146.4700 N   0  0  0  0  0  1  0  0  0  0  0  0
  181.2250  178.5730  141.9110 C   0  0  0  0  0  3  0  0  0  0  0  0
  182.8920  178.9770  144.1250 C   0  0  0  0  0  0  0  0  0  0  0  0
  183.4420  178.5690  142.8920 C   0  0  0  0  0  0  0  0  0  0  0  0
  181.5120  179.1720  144.2410 C   0  0  0  0  0  3  0  0  0  0  0  0
  186.2020  177.6780  146.9530 C   0  0  0  0  0  2  0  0  0  0  0  0
  188.6460  178.2510  148.2300 O   0  0  0  0  0  0  0  0  0  0  0  0
  187.5100  177.3930  146.3730 N   0  0  0  0  0  0  0  0  0  0  0  0
  187.5830  176.8790  145.0110 C   0  0  0  0  0  2  0  0  0  0  0  0
  185.1350  179.1470  145.1440 C   0  0  2  0  0  3  0  0  0  0  0  0
  187.0980  177.9230  144.0150 C   0  0  0  0  0  2  0  0  0  0  0  0
  185.5850  178.0850  144.1200 C   0  0  2  0  0  3  0  0  0  0  0  0
  185.5990  179.4840  141.9470 C   0  0  0  0  0  2  0  0  0  0  0  0
  186.0990  179.0160  140.5830 C   0  0  0  0  0  2  0  0  0  0  0  0
  185.1960  179.3970  139.5850 O   0  0  0  0  0  0  0  0  0  0  0  0
  183.0930  176.9970  137.6000 C   0  0  0  0  0  2  0  0  0  0  0  0
  185.9820  177.8480  137.9090 C   0  0  0  0  0  2  0  0  0  0  0  0
  185.1150  174.3310  135.6520 C   0  0  1  0  0  3  0  0  0  0  0  0
  183.8850  175.0970  136.1600 C   0  0  0  0  0  2  0  0  0  0  0  0
  184.2790  176.0940  137.2420 C   0  0  1  0  0  3  0  0  0  0  0  0
  186.5970  175.9660  136.3650 C   0  0  0  0  0  2  0  0  0  0  0  0
  185.4870  176.9190  136.7920 C   0  0  2  0  0  3  0  0  0  0  0  0
  186.1840  175.1790  135.2670 O   0  0  0  0  0  0  0  0  0  0  0  0
  184.8810  178.2100  138.9180 C   0  0  2  0  0  3  0  0  0  0  0  0
  183.5200  178.3300  138.2350 C   0  0  0  0  0  2  0  0  0  0  0  0
  185.5430  173.1940  136.5350 C   0  0  0  0  0  0  0  0  0  0  0  0
  186.4970  172.4570  136.1740 O   0  0  0  0  0  0  0  0  0  0  0  0
  184.9020  172.9520  137.7830 N   0  0  0  0  0  1  0  0  0  0  0  0
  1 19  1  1  0  0  0
  1 10  1  0  0  0  0
  1 18  1  0  0  0  0
  2 12  1  0  0  0  0
  3 13  2  0  0  0  0
  5  8  2  0  0  0  0
  5 10  1  0  0  0  0
  6 11  2  0  0  0  0
  7  3  1  0  0  0  0
  8  6  1  0  0  0  0
  9 11  1  0  0  0  0
  9  4  1  0  0  0  0
 10  9  2  0  0  0  0
 14 12  1  0  0  0  0
 14  3  1  0  0  0  0
 15 14  1  0  0  0  0
 16  4  1  0  0  0  0
 16  2  1  1  0  0  0
 17 15  1  0  0  0  0
 18 17  1  6  0  0  0
 18 16  1  0  0  0  0
 20 19  1  0  0  0  0
 21 20  1  0  0  0  0
 22 31  1  0  0  0  0
 23 30  1  0  0  0  0
 24 25  1  0  0  0  0
 24 32  1  1  0  0  0
 26 25  1  6  0  0  0
 26 22  1  0  0  0  0
 28 27  1  1  0  0  0
 28 26  1  0  0  0  0
 28 23  1  0  0  0  0
 29 24  1  0  0  0  0
 29 27  1  0  0  0  0
 30 21  1  6  0  0  0
 31 30  1  0  0  0  0
 32 34  1  0  0  0  0
 33 32  2  0  0  0  0
M  END
>  <MODEL>
3

>  <REMARK>
 VINA RESULT:      -8.4      3.437      5.849
  Name = 
  5 active torsions:
  status: ('A' for Active; 'I' for Inactive)
    1  A    between atoms: C_1  and  C_9
    2  A    between atoms: C_7  and  C_11
    3  A    between atoms: C_8  and  C_9
    4  A    between atoms: C_8  and  O_18
    5  A    between atoms: O_18  and  C_30
                            x       y       z     vdW  Elec       q    Type
                         _______ _______ _______ _____ _____    ______ ____

>  <TORSDO>
F 5

$$$$
=
 OpenBabel10272415133D

 34 38  0  0  1  0  0  0  0  0999 V2000
  188.5500  178.3430  141.4650 C   0  0  2  0  0  3  0  0  0  0  0  0
  190.8050  175.7410  143.3920 C   0  0  0  0  0  2  0  0  0  0  0  0
  190.8810  176.7520  146.5020 C   0  0  0  0  0  0  0  0  0  0  0  0
  190.4800  176.2380  141.0370 O   0  0  0  0  0  0  0  0  0  0  0  0
  188.6160  178.7010  138.9750 C   0  0  0  0  0  3  0  0  0  0  0  0
  190.0140  177.3420  137.5390 C   0  0  0  0  0  3  0  0  0  0  0  0
  190.0710  177.3300  147.5230 N   0  0  0  0  0  1  0  0  0  0  0  0
  189.0880  178.3760  137.7000 C   0  0  0  0  0  3  0  0  0  0  0  0
  190.0000  176.9460  139.9290 C   0  0  0  0  0  0  0  0  0  0  0  0
  189.0690  177.9930  140.0940 C   0  0  0  0  0  0  0  0  0  0  0  0
  190.4710  176.6290  138.6510 C   0  0  0  0  0  3  0  0  0  0  0  0
  191.7090  176.7180  144.1320 C   0  0  0  0  0  2  0  0  0  0  0  0
  191.5340  175.7060  146.7540 O   0  0  0  0  0  0  0  0  0  0  0  0
  190.9520  177.3570  145.2030 N   0  0  0  0  0  0  0  0  0  0  0  0
  190.1460  178.5310  144.8940 C   0  0  0  0  0  2  0  0  0  0  0  0
  189.9100  176.3990  142.3350 C   0  0  2  0  0  3  0  0  0  0  0  0
  188.9950  178.1660  143.9680 C   0  0  0  0  0  2  0  0  0  0  0  0
  189.5210  177.8740  142.5660 C   0  0  2  0  0  3  0  0  0  0  0  0
  187.0970  177.8830  141.6700 C   0  0  0  0  0  2  0  0  0  0  0  0
  186.1450  179.0410  141.9470 C   0  0  0  0  0  2  0  0  0  0  0  0
  185.6340  179.5410  140.7450 O   0  0  0  0  0  0  0  0  0  0  0  0
  182.8120  177.1330  140.1450 C   0  0  0  0  0  2  0  0  0  0  0  0
  185.0130  178.5570  138.6300 C   0  0  0  0  0  2  0  0  0  0  0  0
  182.8810  175.4190  136.6740 C   0  0  1  0  0  3  0  0  0  0  0  0
  182.3740  175.7710  138.0810 C   0  0  0  0  0  2  0  0  0  0  0  0
  183.3990  176.6120  138.8290 C   0  0  1  0  0  3  0  0  0  0  0  0
  184.3770  177.1910  136.6220 C   0  0  0  0  0  2  0  0  0  0  0  0
  183.8900  177.7640  137.9480 C   0  0  2  0  0  3  0  0  0  0  0  0
  183.3200  176.5490  135.9380 O   0  0  0  0  0  0  0  0  0  0  0  0
  184.9670  178.4590  140.1630 C   0  0  2  0  0  3  0  0  0  0  0  0
  183.5290  178.3860  140.6720 C   0  0  0  0  0  2  0  0  0  0  0  0
  183.8450  174.2680  136.6340 C   0  0  0  0  0  0  0  0  0  0  0  0
  184.1580  173.6870  137.7050 O   0  0  0  0  0  0  0  0  0  0  0  0
  184.3920  173.8110  135.4020 N   0  0  0  0  0  1  0  0  0  0  0  0
  1 19  1  1  0  0  0
  1 18  1  0  0  0  0
  2 12  1  0  0  0  0
  3 13  2  0  0  0  0
  3  7  1  0  0  0  0
  4 16  1  0  0  0  0
  5 10  1  0  0  0  0
  6  8  1  0  0  0  0
  6 11  2  0  0  0  0
  8  5  2  0  0  0  0
  9 10  2  0  0  0  0
  9  4  1  0  0  0  0
 10  1  1  0  0  0  0
 11  9  1  0  0  0  0
 12 14  1  0  0  0  0
 14  3  1  0  0  0  0
 15 14  1  0  0  0  0
 16 18  1  0  0  0  0
 16  2  1  1  0  0  0
 17 15  1  0  0  0  0
 18 17  1  1  0  0  0
 19 20  1  0  0  0  0
 21 20  1  0  0  0  0
 22 31  1  0  0  0  0
 23 30  1  0  0  0  0
 24 32  1  1  0  0  0
 24 25  1  0  0  0  0
 26 25  1  6  0  0  0
 26 22  1  0  0  0  0
 28 27  1  6  0  0  0
 28 23  1  0  0  0  0
 28 26  1  0  0  0  0
 29 27  1  0  0  0  0
 29 24  1  0  0  0  0
 30 31  1  0  0  0  0
 30 21  1  1  0  0  0
 32 33  2  0  0  0  0
 34 32  1  0  0  0  0
M  END
>  <MODEL>
4

>  <REMARK>
 VINA RESULT:      -8.3      3.833      7.128
  Name = 
  5 active torsions:
  status: ('A' for Active; 'I' for Inactive)
    1  A    between atoms: C_1  and  C_9
    2  A    between atoms: C_7  and  C_11
    3  A    between atoms: C_8  and  C_9
    4  A    between atoms: C_8  and  O_18
    5  A    between atoms: O_18  and  C_30
                            x       y       z     vdW  Elec       q    Type
                         _______ _______ _______ _____ _____    ______ ____

>  <TORSDO>
F 5

$$$$
=
 OpenBabel10272415133D

 34 38  0  0  1  0  0  0  0  0999 V2000
  187.5580  177.5520  144.7640 C   0  0  2  0  0  3  0  0  0  0  0  0
  191.2030  178.3170  143.4610 C   0  0  0  0  0  2  0  0  0  0  0  0
  191.3160  177.1780  140.3970 C   0  0  0  0  0  0  0  0  0  0  0  0
  190.2000  178.2770  145.6730 O   0  0  0  0  0  0  0  0  0  0  0  0
  186.9230  177.4230  147.1950 C   0  0  0  0  0  3  0  0  0  0  0  0
  188.5240  177.9050  148.9480 C   0  0  0  0  0  3  0  0  0  0  0  0
  190.5420  177.0580  139.2060 N   0  0  0  0  0  1  0  0  0  0  0  0
  187.2330  177.5400  148.5530 C   0  0  0  0  0  3  0  0  0  0  0  0
  189.2020  178.0440  146.6260 C   0  0  0  0  0  0  0  0  0  0  0  0
  187.9010  177.6700  146.2270 C   0  0  0  0  0  0  0  0  0  0  0  0
  189.5070  178.1540  147.9860 C   0  0  0  0  0  3  0  0  0  0  0  0
  191.5380  176.9470  142.8870 C   0  0  0  0  0  2  0  0  0  0  0  0
  192.4740  177.6690  140.3300 O   0  0  0  0  0  0  0  0  0  0  0  0
  190.7830  176.7430  141.6560 N   0  0  0  0  0  0  0  0  0  0  0  0
  189.4190  176.2350  141.7400 C   0  0  0  0  0  2  0  0  0  0  0  0
  189.9060  178.3500  144.2780 C   0  0  2  0  0  3  0  0  0  0  0  0
  188.5080  177.2480  142.4180 C   0  0  0  0  0  2  0  0  0  0  0  0
  188.8200  177.3170  143.9100 C   0  0  2  0  0  3  0  0  0  0  0  0
  186.6780  178.7150  144.2780 C   0  0  0  0  0  2  0  0  0  0  0  0
  185.2370  178.2930  144.0070 C   0  0  0  0  0  2  0  0  0  0  0  0
  184.6030  179.2410  143.1970 O   0  0  0  0  0  0  0  0  0  0  0  0
  182.1580  177.9120  140.6720 C   0  0  0  0  0  2  0  0  0  0  0  0
  185.0250  178.8710  140.8500 C   0  0  0  0  0  2  0  0  0  0  0  0
  183.7450  176.8940  137.2900 C   0  0  1  0  0  3  0  0  0  0  0  0
  182.6450  177.1250  138.3360 C   0  0  0  0  0  2  0  0  0  0  0  0
  183.2510  177.4820  139.6870 C   0  0  1  0  0  3  0  0  0  0  0  0
  185.3160  178.1280  138.4690 C   0  0  0  0  0  2  0  0  0  0  0  0
  184.3100  178.5750  139.5230 C   0  0  2  0  0  3  0  0  0  0  0  0
  184.6820  177.9560  137.2180 O   0  0  0  0  0  0  0  0  0  0  0  0
  184.1710  178.5220  142.0790 C   0  0  2  0  0  3  0  0  0  0  0  0
  182.6890  178.7860  141.8190 C   0  0  0  0  0  2  0  0  0  0  0  0
  184.3850  175.5360  137.3550 C   0  0  0  0  0  0  0  0  0  0  0  0
  183.8740  174.6470  138.0830 O   0  0  0  0  0  0  0  0  0  0  0  0
  185.5470  175.2350  136.5900 N   0  0  0  0  0  1  0  0  0  0  0  0
  1 19  1  6  0  0  0
  1 10  1  0  0  0  0
  3 14  1  0  0  0  0
  4  9  1  0  0  0  0
  5  8  1  0  0  0  0
  7  3  1  0  0  0  0
  8  6  2  0  0  0  0
  9 11  2  0  0  0  0
 10  9  1  0  0  0  0
 10  5  2  0  0  0  0
 11  6  1  0  0  0  0
 12  2  1  0  0  0  0
 13  3  2  0  0  0  0
 14 15  1  0  0  0  0
 14 12  1  0  0  0  0
 15 17  1  0  0  0  0
 16  2  1  6  0  0  0
 16  4  1  0  0  0  0
 18 17  1  6  0  0  0
 18 16  1  0  0  0  0
 18  1  1  0  0  0  0
 20 19  1  0  0  0  0
 21 20  1  0  0  0  0
 22 31  1  0  0  0  0
 23 30  1  0  0  0  0
 24 32  1  1  0  0  0
 24 25  1  0  0  0  0
 26 25  1  6  0  0  0
 26 22  1  0  0  0  0
 28 27  1  6  0  0  0
 28 26  1  0  0  0  0
 28 23  1  0  0  0  0
 29 24  1  0  0  0  0
 29 27  1  0  0  0  0
 30 21  1  1  0  0  0
 31 30  1  0  0  0  0
 32 33  2  0  0  0  0
 34 32  1  0  0  0  0
M  END
>  <MODEL>
5

>  <REMARK>
 VINA RESULT:      -8.2      3.094      5.763
  Name = 
  5 active torsions:
  status: ('A' for Active; 'I' for Inactive)
    1  A    between atoms: C_1  and  C_9
    2  A    between atoms: C_7  and  C_11
    3  A    between atoms: C_8  and  C_9
    4  A    between atoms: C_8  and  O_18
    5  A    between atoms: O_18  and  C_30
                            x       y       z     vdW  Elec       q    Type
                         _______ _______ _______ _____ _____    ______ ____

>  <TORSDO>
F 5

$$$$
=
 OpenBabel10272415133D

 34 38  0  0  1  0  0  0  0  0999 V2000
  184.2980  179.1030  139.5120 C   0  0  2  0  0  3  0  0  0  0  0  0
  185.5840  176.3280  137.0200 C   0  0  0  0  0  2  0  0  0  0  0  0
  188.8200  176.1510  137.4690 C   0  0  0  0  0  0  0  0  0  0  0  0
  183.5150  177.5890  137.1820 O   0  0  0  0  0  0  0  0  0  0  0  0
  182.1230  180.3400  139.2520 C   0  0  0  0  0  3  0  0  0  0  0  0
  180.5670  179.8010  137.4760 C   0  0  0  0  0  3  0  0  0  0  0  0
  189.8250  176.2010  138.4780 N   0  0  0  0  0  1  0  0  0  0  0  0
  180.9100  180.5660  138.5950 C   0  0  0  0  0  3  0  0  0  0  0  0
  182.6460  178.5730  137.6680 C   0  0  0  0  0  0  0  0  0  0  0  0
  182.9970  179.3480  138.7930 C   0  0  0  0  0  0  0  0  0  0  0  0
  181.4340  178.8080  137.0120 C   0  0  0  0  0  3  0  0  0  0  0  0
  186.7500  177.0900  136.4030 C   0  0  0  0  0  2  0  0  0  0  0  0
  188.8100  175.1870  136.6580 O   0  0  0  0  0  0  0  0  0  0  0  0
  187.8310  177.1870  137.3770 N   0  0  0  0  0  0  0  0  0  0  0  0
  187.8060  178.2670  138.3550 C   0  0  0  0  0  2  0  0  0  0  0  0
  184.6770  177.1890  137.9070 C   0  0  2  0  0  3  0  0  0  0  0  0
  186.6330  178.1010  139.3100 C   0  0  0  0  0  2  0  0  0  0  0  0
  185.3230  178.4110  138.5920 C   0  0  2  0  0  3  0  0  0  0  0  0
  184.0910  178.4000  140.8640 C   0  0  0  0  0  2  0  0  0  0  0  0
  184.7200  179.1610  142.0280 C   0  0  0  0  0  2  0  0  0  0  0  0
  184.6430  178.3980  143.1970 O   0  0  0  0  0  0  0  0  0  0  0  0
  187.4210  178.0390  145.7020 C   0  0  0  0  0  2  0  0  0  0  0  0
  186.7390  177.2490  142.8600 C   0  0  0  0  0  2  0  0  0  0  0  0
  190.7480  176.7230  144.2240 C   0  0  1  0  0  3  0  0  0  0  0  0
  189.7610  177.2250  145.2870 C   0  0  0  0  0  2  0  0  0  0  0  0
  188.4800  177.7310  144.6370 C   0  0  1  0  0  3  0  0  0  0  0  0
  189.0850  176.3820  142.6440 C   0  0  0  0  0  2  0  0  0  0  0  0
  187.9610  176.7140  143.6190 C   0  0  2  0  0  3  0  0  0  0  0  0
  190.1740  175.7910  143.3220 O   0  0  0  0  0  0  0  0  0  0  0  0
  185.9620  178.3110  143.6530 C   0  0  2  0  0  3  0  0  0  0  0  0
  185.9870  178.0150  145.1520 C   0  0  0  0  0  2  0  0  0  0  0  0
  191.5300  177.8090  143.5430 C   0  0  0  0  0  0  0  0  0  0  0  0
  192.0580  177.5820  142.4230 O   0  0  0  0  0  0  0  0  0  0  0  0
  191.6650  179.0970  144.1340 N   0  0  0  0  0  1  0  0  0  0  0  0
  1 19  1  1  0  0  0
  3  7  1  0  0  0  0
  4  9  1  0  0  0  0
  4 16  1  0  0  0  0
  6  8  1  0  0  0  0
  8  5  2  0  0  0  0
  9 10  2  0  0  0  0
 10  5  1  0  0  0  0
 10  1  1  0  0  0  0
 11  6  2  0  0  0  0
 11  9  1  0  0  0  0
 12  2  1  0  0  0  0
 12 14  1  0  0  0  0
 13  3  2  0  0  0  0
 14  3  1  0  0  0  0
 14 15  1  0  0  0  0
 15 17  1  0  0  0  0
 16  2  1  6  0  0  0
 16 18  1  0  0  0  0
 18 17  1  1  0  0  0
 18  1  1  0  0  0  0
 19 20  1  0  0  0  0
 20 21  1  0  0  0  0
 23 28  1  0  0  0  0
 23 30  1  0  0  0  0
 24 32  1  6  0  0  0
 24 25  1  0  0  0  0
 26 25  1  1  0  0  0
 26 22  1  0  0  0  0
 27 29  1  0  0  0  0
 28 27  1  6  0  0  0
 28 26  1  0  0  0  0
 29 24  1  0  0  0  0
 30 21  1  6  0  0  0
 30 31  1  0  0  0  0
 31 22  1  0  0  0  0
 32 34  1  0  0  0  0
 33 32  2  0  0  0  0
M  END
>  <MODEL>
6

>  <REMARK>
 VINA RESULT:      -8.1      3.213      8.047
  Name = 
  5 active torsions:
  status: ('A' for Active; 'I' for Inactive)
    1  A    between atoms: C_1  and  C_9
    2  A    between atoms: C_7  and  C_11
    3  A    between atoms: C_8  and  C_9
    4  A    between atoms: C_8  and  O_18
    5  A    between atoms: O_18  and  C_30
                            x       y       z     vdW  Elec       q    Type
                         _______ _______ _______ _____ _____    ______ ____

>  <TORSDO>
F 5

$$$$
=
 OpenBabel10272415133D

 34 38  0  0  1  0  0  0  0  0999 V2000
  188.6240  178.2040  141.8440 C   0  0  2  0  0  3  0  0  0  0  0  0
  191.0180  175.6440  143.6550 C   0  0  0  0  0  2  0  0  0  0  0  0
  191.1910  176.6280  146.7700 C   0  0  0  0  0  0  0  0  0  0  0  0
  190.5880  176.1540  141.3200 O   0  0  0  0  0  0  0  0  0  0  0  0
  188.5820  178.5870  139.3570 C   0  0  0  0  0  3  0  0  0  0  0  0
  189.9570  177.2770  137.8540 C   0  0  0  0  0  3  0  0  0  0  0  0
  190.4070  177.1750  147.8270 N   0  0  0  0  0  1  0  0  0  0  0  0
  189.0110  178.2850  138.0620 C   0  0  0  0  0  3  0  0  0  0  0  0
  190.0470  176.8590  140.2380 C   0  0  0  0  0  0  0  0  0  0  0  0
  189.0970  177.8810  140.4500 C   0  0  0  0  0  0  0  0  0  0  0  0
  190.4750  176.5670  138.9400 C   0  0  0  0  0  3  0  0  0  0  0  0
  191.9250  176.6370  144.3690 C   0  0  0  0  0  2  0  0  0  0  0  0
  191.8800  175.5960  146.9850 O   0  0  0  0  0  0  0  0  0  0  0  0
  191.1950  177.2460  145.4750 N   0  0  0  0  0  0  0  0  0  0  0  0
  190.3480  178.4020  145.2100 C   0  0  0  0  0  2  0  0  0  0  0  0
  190.0660  176.2870  142.6410 C   0  0  2  0  0  3  0  0  0  0  0  0
  189.1710  178.0150  144.3260 C   0  0  0  0  0  2  0  0  0  0  0  0
  189.6490  177.7500  142.9020 C   0  0  2  0  0  3  0  0  0  0  0  0
  187.1920  177.7040  142.1010 C   0  0  0  0  0  2  0  0  0  0  0  0
  186.1790  178.8400  142.2020 C   0  0  0  0  0  2  0  0  0  0  0  0
  185.3940  178.6830  143.3490 O   0  0  0  0  0  0  0  0  0  0  0  0
  181.6410  178.8440  143.2470 C   0  0  0  0  0  2  0  0  0  0  0  0
  184.0150  178.7560  141.3690 C   0  0  0  0  0  2  0  0  0  0  0  0
  180.1060  178.1880  139.7540 C   0  0  1  0  0  3  0  0  0  0  0  0
  180.1480  178.5110  141.2550 C   0  0  0  0  0  2  0  0  0  0  0  0
  181.5550  178.3270  141.8060 C   0  0  1  0  0  3  0  0  0  0  0  0
  182.3820  178.5370  139.4750 C   0  0  0  0  0  2  0  0  0  0  0  0
  182.5760  179.0260  140.9060 C   0  0  2  0  0  3  0  0  0  0  0  0
  181.0930  178.8760  139.0040 O   0  0  0  0  0  0  0  0  0  0  0  0
  184.1080  178.4250  142.8670 C   0  0  2  0  0  3  0  0  0  0  0  0
  183.0720  179.2060  143.6740 C   0  0  0  0  0  2  0  0  0  0  0  0
  180.0310  176.7210  139.4390 C   0  0  0  0  0  0  0  0  0  0  0  0
  179.9820  175.8880  140.3810 O   0  0  0  0  0  0  0  0  0  0  0  0
  179.9940  176.2600  138.0920 N   0  0  0  0  0  1  0  0  0  0  0  0
  1 19  1  1  0  0  0
  1 18  1  0  0  0  0
  2 12  1  0  0  0  0
  3 13  2  0  0  0  0
  3  7  1  0  0  0  0
  4 16  1  0  0  0  0
  5 10  1  0  0  0  0
  6  8  1  0  0  0  0
  6 11  2  0  0  0  0
  8  5  2  0  0  0  0
  9 10  2  0  0  0  0
  9  4  1  0  0  0  0
 10  1  1  0  0  0  0
 11  9  1  0  0  0  0
 12 14  1  0  0  0  0
 14  3  1  0  0  0  0
 15 14  1  0  0  0  0
 16 18  1  0  0  0  0
 16  2  1  1  0  0  0
 17 15  1  0  0  0  0
 18 17  1  1  0  0  0
 19 20  1  0  0  0  0
 20 21  1  0  0  0  0
 22 31  1  0  0  0  0
 23 30  1  0  0  0  0
 24 32  1  1  0  0  0
 24 25  1  0  0  0  0
 26 25  1  6  0  0  0
 26 22  1  0  0  0  0
 28 27  1  6  0  0  0
 28 23  1  0  0  0  0
 28 26  1  0  0  0  0
 29 27  1  0  0  0  0
 29 24  1  0  0  0  0
 30 21  1  1  0  0  0
 30 31  1  0  0  0  0
 32 33  2  0  0  0  0
 34 32  1  0  0  0  0
M  END
>  <MODEL>
7

>  <REMARK>
 VINA RESULT:      -8.0      3.231      8.243
  Name = 
  5 active torsions:
  status: ('A' for Active; 'I' for Inactive)
    1  A    between atoms: C_1  and  C_9
    2  A    between atoms: C_7  and  C_11
    3  A    between atoms: C_8  and  C_9
    4  A    between atoms: C_8  and  O_18
    5  A    between atoms: O_18  and  C_30
                            x       y       z     vdW  Elec       q    Type
                         _______ _______ _______ _____ _____    ______ ____

>  <TORSDO>
F 5

$$$$
=
 OpenBabel10272415133D

 34 38  0  0  1  0  0  0  0  0999 V2000
  189.6310  177.6610  143.0580 C   0  0  2  0  0  3  0  0  0  0  0  0
  185.7210  177.5050  143.5650 C   0  0  0  0  0  2  0  0  0  0  0  0
  184.4240  179.1140  141.0300 C   0  0  0  0  0  0  0  0  0  0  0  0
  187.6080  177.0910  145.0370 O   0  0  0  0  0  0  0  0  0  0  0  0
  191.3110  177.3390  144.9030 C   0  0  0  0  0  3  0  0  0  0  0  0
  190.6230  176.7650  147.1530 C   0  0  0  0  0  3  0  0  0  0  0  0
  184.5820  179.3350  139.6300 N   0  0  0  0  0  1  0  0  0  0  0  0
  191.6350  177.0450  146.2310 C   0  0  0  0  0  3  0  0  0  0  0  0
  188.9530  177.0640  145.4240 C   0  0  0  0  0  0  0  0  0  0  0  0
  189.9740  177.3530  144.4930 C   0  0  0  0  0  0  0  0  0  0  0  0
  189.2850  176.7760  146.7510 C   0  0  0  0  0  3  0  0  0  0  0  0
  185.3980  178.9760  143.3400 C   0  0  0  0  0  2  0  0  0  0  0  0
  183.2980  178.7680  141.4750 O   0  0  0  0  0  0  0  0  0  0  0  0
  185.5350  179.2870  141.9220 N   0  0  0  0  0  0  0  0  0  0  0  0
  186.8520  179.6260  141.3980 C   0  0  0  0  0  2  0  0  0  0  0  0
  187.2210  177.2060  143.6690 C   0  0  2  0  0  3  0  0  0  0  0  0
  187.7870  178.4280  141.4750 C   0  0  0  0  0  2  0  0  0  0  0  0
  188.1790  178.1600  142.9250 C   0  0  2  0  0  3  0  0  0  0  0  0
  189.9860  176.4990  142.1150 C   0  0  0  0  0  2  0  0  0  0  0  0
  190.8870  176.9290  140.9610 C   0  0  0  0  0  2  0  0  0  0  0  0
  190.7630  176.0330  139.8950 O   0  0  0  0  0  0  0  0  0  0  0  0
  188.9020  178.6760  137.9790 C   0  0  0  0  0  2  0  0  0  0  0  0
  189.5630  175.7260  137.8230 C   0  0  0  0  0  2  0  0  0  0  0  0
  186.6200  177.3060  135.1670 C   0  0  1  0  0  3  0  0  0  0  0  0
  187.3110  178.3440  136.0640 C   0  0  0  0  0  2  0  0  0  0  0  0
  188.0480  177.6620  137.2080 C   0  0  1  0  0  3  0  0  0  0  0  0
  188.0180  175.5850  135.8500 C   0  0  0  0  0  2  0  0  0  0  0  0
  188.9030  176.5080  136.6800 C   0  0  2  0  0  3  0  0  0  0  0  0
  187.4890  176.2730  134.7340 O   0  0  0  0  0  0  0  0  0  0  0  0
  189.7510  176.5690  139.0940 C   0  0  2  0  0  3  0  0  0  0  0  0
  190.0590  178.0260  138.7530 C   0  0  0  0  0  2  0  0  0  0  0  0
  185.3110  176.8000  135.7020 C   0  0  0  0  0  0  0  0  0  0  0  0
  184.7240  177.4440  136.6100 O   0  0  0  0  0  0  0  0  0  0  0  0
  184.7130  175.6170  135.1820 N   0  0  0  0  0  1  0  0  0  0  0  0
  1 19  1  6  0  0  0
  1 10  1  0  0  0  0
  3 13  2  0  0  0  0
  3 14  1  0  0  0  0
  4  9  1  0  0  0  0
  5  8  1  0  0  0  0
  7  3  1  0  0  0  0
  8  6  2  0  0  0  0
  9 11  2  0  0  0  0
 10  5  2  0  0  0  0
 10  9  1  0  0  0  0
 11  6  1  0  0  0  0
 12  2  1  0  0  0  0
 14 12  1  0  0  0  0
 15 17  1  0  0  0  0
 15 14  1  0  0  0  0
 16  2  1  1  0  0  0
 16  4  1  0  0  0  0
 18 17  1  6  0  0  0
 18  1  1  0  0  0  0
 18 16  1  0  0  0  0
 20 19  1  0  0  0  0
 21 20  1  0  0  0  0
 22 31  1  0  0  0  0
 23 30  1  0  0  0  0
 24 32  1  1  0  0  0
 24 25  1  0  0  0  0
 26 25  1  6  0  0  0
 26 22  1  0  0  0  0
 28 27  1  1  0  0  0
 28 26  1  0  0  0  0
 28 23  1  0  0  0  0
 29 24  1  0  0  0  0
 29 27  1  0  0  0  0
 30 21  1  6  0  0  0
 31 30  1  0  0  0  0
 32 33  2  0  0  0  0
 34 32  1  0  0  0  0
M  END
>  <MODEL>
8

>  <REMARK>
 VINA RESULT:      -8.0      2.327      2.980
  Name = 
  5 active torsions:
  status: ('A' for Active; 'I' for Inactive)
    1  A    between atoms: C_1  and  C_9
    2  A    between atoms: C_7  and  C_11
    3  A    between atoms: C_8  and  C_9
    4  A    between atoms: C_8  and  O_18
    5  A    between atoms: O_18  and  C_30
                            x       y       z     vdW  Elec       q    Type
                         _______ _______ _______ _____ _____    ______ ____

>  <TORSDO>
F 5

$$$$
=
 OpenBabel10272415133D

 34 38  0  0  1  0  0  0  0  0999 V2000
  186.4850  178.0300  142.7570 C   0  0  2  0  0  3  0  0  0  0  0  0
  187.4190  178.5410  146.5570 C   0  0  0  0  0  2  0  0  0  0  0  0
  190.3480  177.1390  146.9550 C   0  0  0  0  0  0  0  0  0  0  0  0
  185.3410  178.7290  145.3140 O   0  0  0  0  0  0  0  0  0  0  0  0
  184.1400  178.1360  141.8510 C   0  0  0  0  0  3  0  0  0  0  0  0
  182.2610  178.7030  143.2690 C   0  0  0  0  0  3  0  0  0  0  0  0
  191.6060  176.9470  146.3120 N   0  0  0  0  0  1  0  0  0  0  0  0
  182.7700  178.3570  142.0140 C   0  0  0  0  0  3  0  0  0  0  0  0
  184.4930  178.6170  144.2060 C   0  0  0  0  0  0  0  0  0  0  0  0
  185.0070  178.2610  142.9420 C   0  0  0  0  0  0  0  0  0  0  0  0
  183.1200  178.8320  144.3630 C   0  0  0  0  0  3  0  0  0  0  0  0
  187.8390  177.1140  146.8880 C   0  0  0  0  0  2  0  0  0  0  0  0
  190.3210  177.5770  148.1350 O   0  0  0  0  0  0  0  0  0  0  0  0
  189.1270  176.8350  146.2650 N   0  0  0  0  0  0  0  0  0  0  0  0
  189.1590  176.3890  144.8780 C   0  0  0  0  0  2  0  0  0  0  0  0
  186.7610  178.6930  145.1800 C   0  0  2  0  0  3  0  0  0  0  0  0
  188.6740  177.4900  143.9470 C   0  0  0  0  0  2  0  0  0  0  0  0
  187.1670  177.6750  144.0940 C   0  0  2  0  0  3  0  0  0  0  0  0
  187.1610  179.1810  141.9930 C   0  0  0  0  0  2  0  0  0  0  0  0
  187.9380  178.7020  140.7710 C   0  0  0  0  0  2  0  0  0  0  0  0
  187.0840  178.5970  139.6700 O   0  0  0  0  0  0  0  0  0  0  0  0
  188.1580  177.3070  136.3070 C   0  0  0  0  0  2  0  0  0  0  0  0
  189.2740  177.7690  139.0830 C   0  0  0  0  0  2  0  0  0  0  0  0
  191.5680  175.4730  136.3110 C   0  0  1  0  0  3  0  0  0  0  0  0
  190.2680  176.0660  135.7460 C   0  0  0  0  0  2  0  0  0  0  0  0
  189.3550  176.5340  136.8710 C   0  0  1  0  0  3  0  0  0  0  0  0
  191.3630  176.5970  138.3300 C   0  0  0  0  0  2  0  0  0  0  0  0
  190.1390  177.3830  137.8740 C   0  0  2  0  0  3  0  0  0  0  0  0
  192.2170  176.3290  137.2360 O   0  0  0  0  0  0  0  0  0  0  0  0
  187.7720  177.7860  138.7620 C   0  0  2  0  0  3  0  0  0  0  0  0
  187.5150  178.2560  137.3310 C   0  0  0  0  0  2  0  0  0  0  0  0
  191.4440  174.0560  136.7920 C   0  0  0  0  0  0  0  0  0  0  0  0
  190.3860  173.6890  137.3650 O   0  0  0  0  0  0  0  0  0  0  0  0
  192.4950  173.1180  136.5920 N   0  0  0  0  0  1  0  0  0  0  0  0
  1 19  1  1  0  0  0
  1 10  1  0  0  0  0
  1 18  1  0  0  0  0
  2 12  1  0  0  0  0
  3 13  2  0  0  0  0
  5  8  2  0  0  0  0
  5 10  1  0  0  0  0
  6 11  2  0  0  0  0
  7  3  1  0  0  0  0
  8  6  1  0  0  0  0
  9 11  1  0  0  0  0
  9  4  1  0  0  0  0
 10  9  2  0  0  0  0
 14 12  1  0  0  0  0
 14  3  1  0  0  0  0
 15 14  1  0  0  0  0
 16  4  1  0  0  0  0
 16  2  1  1  0  0  0
 17 15  1  0  0  0  0
 18 17  1  6  0  0  0
 18 16  1  0  0  0  0
 20 19  1  0  0  0  0
 21 20  1  0  0  0  0
 22 26  1  0  0  0  0
 22 31  1  0  0  0  0
 24 32  1  1  0  0  0
 24 29  1  0  0  0  0
 25 24  1  0  0  0  0
 26 25  1  6  0  0  0
 26 28  1  0  0  0  0
 28 27  1  1  0  0  0
 28 23  1  0  0  0  0
 29 27  1  0  0  0  0
 30 23  1  0  0  0  0
 30 21  1  1  0  0  0
 31 30  1  0  0  0  0
 32 33  2  0  0  0  0
 34 32  1  0  0  0  0
M  END
>  <MODEL>
9

>  <REMARK>
 VINA RESULT:      -7.9      2.499      4.896
  Name = 
  5 active torsions:
  status: ('A' for Active; 'I' for Inactive)
    1  A    between atoms: C_1  and  C_9
    2  A    between atoms: C_7  and  C_11
    3  A    between atoms: C_8  and  C_9
    4  A    between atoms: C_8  and  O_18
    5  A    between atoms: O_18  and  C_30
                            x       y       z     vdW  Elec       q    Type
                         _______ _______ _______ _____ _____    ______ ____

>  <TORSDO>
F 5

$$$$
