=
 OpenBabel10272413103D

 32 37  0  0  1  0  0  0  0  0999 V2000
  187.2300  178.1080  140.7730 C   0  0  1  0  0  3  0  0  0  0  0  0
  188.2980  177.7240  138.4580 C   0  0  2  0  0  3  0  0  0  0  0  0
  186.3310  179.1420  141.4560 C   0  0  0  0  0  2  0  0  0  0  0  0
  187.1800  178.3920  139.2780 C   0  0  1  0  0  3  0  0  0  0  0  0
  187.8310  176.4100  137.8300 C   0  0  2  0  0  3  0  0  0  0  0  0
  192.9950  176.0590  138.0760 C   0  0  0  0  0  2  0  0  0  0  0  0
  189.6100  177.5900  139.2590 C   0  0  1  0  0  3  0  0  0  0  0  0
  191.3570  175.0910  136.8680 C   0  0  0  0  0  2  0  0  0  0  0  0
  190.2840  175.8700  137.5800 C   0  0  0  0  0  0  0  0  0  0  0  0
  185.7750  178.0010  138.8330 C   0  0  2  0  0  3  0  0  0  0  0  0
  188.9340  175.7900  137.1080 N   0  0  0  0  0  2  0  0  0  0  0  0
  185.7020  177.8100  137.3230 C   0  0  0  0  0  2  0  0  0  0  0  0
  184.7980  179.0220  139.4030 C   0  0  0  0  0  2  0  0  0  0  0  0
  189.3800  177.0930  140.5550 O   0  0  0  0  0  0  0  0  0  0  0  0
  188.6820  178.0940  141.2560 C   0  0  2  0  0  3  0  0  0  0  0  0
  190.6340  176.7430  138.5490 C   0  0  0  0  0  0  0  0  0  0  0  0
  186.6350  176.6570  136.8820 C   0  0  2  0  0  3  0  0  0  0  0  0
  184.8850  179.0030  140.9430 C   0  0  0  0  0  2  0  0  0  0  0  0
  192.4360  174.8170  137.7300 O   0  0  0  0  0  0  0  0  0  0  0  0
  192.0580  176.7970  139.0370 C   0  0  0  0  0  2  0  0  0  0  0  0
  190.1060  177.4590  144.7260 C   0  0  0  0  0  0  0  0  0  0  0  0
  191.4260  177.3120  145.3960 C   0  0  0  0  0  1  0  0  0  0  0  0
  188.7700  177.8320  142.7310 C   0  0  0  0  0  0  0  0  0  0  0  0
  188.9380  177.3550  145.4870 C   0  0  0  0  0  3  0  0  0  0  0  0
  187.6040  177.7280  143.5030 C   0  0  0  0  0  3  0  0  0  0  0  0
  190.0250  177.6990  143.3460 C   0  0  0  0  0  0  0  0  0  0  0  0
  191.1600  177.8020  142.6060 F   0  0  0  0  0  0  0  0  0  0  0  0
  187.6880  177.4940  144.8780 C   0  0  0  0  0  0  0  0  0  0  0  0
  185.4790  178.4850  145.3480 C   0  0  0  0  0  1  0  0  0  0  0  0
  186.4450  177.3660  145.6900 C   0  0  0  0  0  2  0  0  0  0  0  0
  185.8450  175.3740  136.6580 C   0  0  0  0  0  2  0  0  0  0  0  0
  186.0500  174.8840  135.3660 O   0  0  0  0  0  1  0  0  0  0  0  0
  1 15  1  0  0  0  0
  1  3  1  1  0  0  0
  2  7  1  0  0  0  0
  2  4  1  0  0  0  0
  4  1  1  0  0  0  0
  5  2  1  0  0  0  0
  6 20  1  0  0  0  0
  7 14  1  0  0  0  0
  8  9  1  0  0  0  0
  8 19  1  0  0  0  0
  9 16  2  0  0  0  0
 10  4  1  0  0  0  0
 10 13  1  0  0  0  0
 11  9  1  0  0  0  0
 11  5  1  0  0  0  0
 12 10  1  0  0  0  0
 13 18  1  0  0  0  0
 14 15  1  0  0  0  0
 15 23  1  0  0  0  0
 16 20  1  0  0  0  0
 16  7  1  0  0  0  0
 17 12  1  0  0  0  0
 17  5  1  0  0  0  0
 18  3  1  0  0  0  0
 19  6  1  0  0  0  0
 21 22  1  0  0  0  0
 21 24  1  0  0  0  0
 23 26  1  0  0  0  0
 23 25  2  0  0  0  0
 25 28  1  0  0  0  0
 26 21  2  0  0  0  0
 27 26  1  0  0  0  0
 28 24  2  0  0  0  0
 28 30  1  0  0  0  0
 29 30  1  0  0  0  0
 31 17  1  0  0  0  0
 32 31  1  0  0  0  0
M  END
>  <MODEL>
1

>  <REMARK>
 VINA RESULT:      -9.4      0.000      0.000
  Name = 
  3 active torsions:
  status: ('A' for Active; 'I' for Inactive)
    1  A    between atoms: C_13  and  C_29
    2  A    between atoms: C_15  and  C_26
    3  A    between atoms: C_16  and  C_27
                            x       y       z     vdW  Elec       q    Type
                         _______ _______ _______ _____ _____    ______ ____

>  <TORSDO>
F 3

$$$$
=
 OpenBabel10272413103D

 32 37  0  0  1  0  0  0  0  0999 V2000
  184.9260  178.5420  142.4030 C   0  0  1  0  0  3  0  0  0  0  0  0
  184.0350  178.7040  139.9890 C   0  0  2  0  0  3  0  0  0  0  0  0
  184.7510  179.2780  143.7350 C   0  0  0  0  0  2  0  0  0  0  0  0
  183.8160  179.0230  141.4790 C   0  0  1  0  0  3  0  0  0  0  0  0
  183.3030  177.4280  139.5700 C   0  0  2  0  0  3  0  0  0  0  0  0
  187.1050  178.0350  136.1020 C   0  0  0  0  0  2  0  0  0  0  0  0
  185.5300  178.7090  139.6040 C   0  0  1  0  0  3  0  0  0  0  0  0
  185.1280  176.9570  136.1720 C   0  0  0  0  0  2  0  0  0  0  0  0
  184.8590  177.4070  137.5830 C   0  0  0  0  0  0  0  0  0  0  0  0
  182.5280  178.4390  142.0480 C   0  0  2  0  0  3  0  0  0  0  0  0
  183.5800  177.1400  138.1690 N   0  0  0  0  0  2  0  0  0  0  0  0
  181.4060  178.4560  141.0170 C   0  0  0  0  0  2  0  0  0  0  0  0
  182.2170  179.1630  143.3520 C   0  0  0  0  0  2  0  0  0  0  0  0
  186.3100  177.9970  140.5350 O   0  0  0  0  0  0  0  0  0  0  0  0
  186.2880  178.7360  141.7330 C   0  0  2  0  0  3  0  0  0  0  0  0
  185.7680  178.1820  138.2130 C   0  0  0  0  0  0  0  0  0  0  0  0
  181.7820  177.5770  139.8010 C   0  0  2  0  0  3  0  0  0  0  0  0
  183.3770  178.9410  144.3450 C   0  0  0  0  0  2  0  0  0  0  0  0
  186.5070  176.7720  135.9570 O   0  0  0  0  0  0  0  0  0  0  0  0
  187.1110  178.4360  137.5800 C   0  0  0  0  0  2  0  0  0  0  0  0
  189.7560  177.7390  142.9350 C   0  0  0  0  0  0  0  0  0  0  0  0
  191.1370  177.5880  142.4020 C   0  0  0  0  0  1  0  0  0  0  0  0
  187.4100  178.2870  142.6220 C   0  0  0  0  0  0  0  0  0  0  0  0
  189.5100  177.4620  144.2830 C   0  0  0  0  0  3  0  0  0  0  0  0
  187.1730  178.0090  143.9760 C   0  0  0  0  0  3  0  0  0  0  0  0
  188.7070  178.1530  142.1020 C   0  0  0  0  0  0  0  0  0  0  0  0
  188.9460  178.4250  140.7920 F   0  0  0  0  0  0  0  0  0  0  0  0
  188.2210  177.6010  144.8050 C   0  0  0  0  0  0  0  0  0  0  0  0
  186.7260  178.0300  146.7180 C   0  0  0  0  0  1  0  0  0  0  0  0
  187.9590  177.2880  146.2380 C   0  0  0  0  0  2  0  0  0  0  0  0
  181.1100  176.2120  139.8880 C   0  0  0  0  0  2  0  0  0  0  0  0
  179.9820  176.2650  140.7090 O   0  0  0  0  0  1  0  0  0  0  0  0
  1  3  1  1  0  0  0
  2  4  1  0  0  0  0
  3 18  1  0  0  0  0
  4 10  1  0  0  0  0
  4  1  1  0  0  0  0
  5 17  1  0  0  0  0
  5  2  1  0  0  0  0
  6 20  1  0  0  0  0
  7  2  1  0  0  0  0
  7 14  1  0  0  0  0
  8  9  1  0  0  0  0
  9 11  1  0  0  0  0
  9 16  2  0  0  0  0
 10 13  1  0  0  0  0
 11  5  1  0  0  0  0
 12 10  1  0  0  0  0
 13 18  1  0  0  0  0
 14 15  1  0  0  0  0
 15  1  1  0  0  0  0
 15 23  1  0  0  0  0
 16  7  1  0  0  0  0
 17 31  1  0  0  0  0
 17 12  1  0  0  0  0
 19  6  1  0  0  0  0
 19  8  1  0  0  0  0
 20 16  1  0  0  0  0
 21 24  1  0  0  0  0
 22 21  1  0  0  0  0
 23 25  2  0  0  0  0
 24 28  2  0  0  0  0
 25 28  1  0  0  0  0
 26 23  1  0  0  0  0
 26 21  2  0  0  0  0
 27 26  1  0  0  0  0
 28 30  1  0  0  0  0
 30 29  1  0  0  0  0
 31 32  1  0  0  0  0
M  END
>  <MODEL>
2

>  <REMARK>
 VINA RESULT:      -9.0      2.734      4.395
  Name = 
  3 active torsions:
  status: ('A' for Active; 'I' for Inactive)
    1  A    between atoms: C_13  and  C_29
    2  A    between atoms: C_15  and  C_26
    3  A    between atoms: C_16  and  C_27
                            x       y       z     vdW  Elec       q    Type
                         _______ _______ _______ _____ _____    ______ ____

>  <TORSDO>
F 3

$$$$
=
 OpenBabel10272413103D

 32 37  0  0  1  0  0  0  0  0999 V2000
  184.9410  178.4370  141.6030 C   0  0  1  0  0  3  0  0  0  0  0  0
  185.0210  178.5980  139.0310 C   0  0  2  0  0  3  0  0  0  0  0  0
  184.2610  179.1590  142.7700 C   0  0  0  0  0  2  0  0  0  0  0  0
  184.2500  178.9010  140.3290 C   0  0  1  0  0  3  0  0  0  0  0  0
  184.5300  177.3110  138.3680 C   0  0  2  0  0  3  0  0  0  0  0  0
  189.3440  178.0250  136.5880 C   0  0  0  0  0  2  0  0  0  0  0  0
  186.5510  178.6380  139.2380 C   0  0  1  0  0  3  0  0  0  0  0  0
  187.5110  176.9040  135.9080 C   0  0  0  0  0  2  0  0  0  0  0  0
  186.7210  177.3380  137.1140 C   0  0  0  0  0  0  0  0  0  0  0  0
  182.8560  178.2860  140.3700 C   0  0  2  0  0  3  0  0  0  0  0  0
  185.3210  177.0390  137.1750 N   0  0  0  0  0  2  0  0  0  0  0  0
  182.2050  178.2870  138.9930 C   0  0  0  0  0  2  0  0  0  0  0  0
  182.0610  178.9930  141.4610 C   0  0  0  0  0  2  0  0  0  0  0  0
  186.9380  177.9350  140.3940 O   0  0  0  0  0  0  0  0  0  0  0  0
  186.4500  178.6650  141.4950 C   0  0  2  0  0  3  0  0  0  0  0  0
  187.3070  178.1270  138.0390 C   0  0  0  0  0  0  0  0  0  0  0  0
  183.0310  177.4260  138.0080 C   0  0  2  0  0  3  0  0  0  0  0  0
  182.7650  178.7880  142.8170 C   0  0  0  0  0  2  0  0  0  0  0  0
  188.8730  176.7500  136.2290 O   0  0  0  0  0  0  0  0  0  0  0  0
  188.7840  178.4140  137.9590 C   0  0  0  0  0  2  0  0  0  0  0  0
  189.2230  177.6460  143.8920 C   0  0  0  0  0  0  0  0  0  0  0  0
  190.6960  177.4390  143.8930 C   0  0  0  0  0  1  0  0  0  0  0  0
  187.1640  178.2320  142.7420 C   0  0  0  0  0  0  0  0  0  0  0  0
  188.5030  177.4380  145.0720 C   0  0  0  0  0  3  0  0  0  0  0  0
  186.4510  178.0230  143.9300 C   0  0  0  0  0  3  0  0  0  0  0  0
  188.5550  178.0450  142.7250 C   0  0  0  0  0  0  0  0  0  0  0  0
  189.2550  178.2490  141.5780 F   0  0  0  0  0  0  0  0  0  0  0  0
  187.1180  177.6310  145.0940 C   0  0  0  0  0  0  0  0  0  0  0  0
  185.2430  178.4170  146.4870 C   0  0  0  0  0  1  0  0  0  0  0  0
  186.3520  177.3920  146.3490 C   0  0  0  0  0  2  0  0  0  0  0  0
  182.4070  176.0460  137.8360 C   0  0  0  0  0  2  0  0  0  0  0  0
  182.9660  175.1320  138.7320 O   0  0  0  0  0  1  0  0  0  0  0  0
  1  3  1  1  0  0  0
  2  7  1  0  0  0  0
  2  4  1  0  0  0  0
  3 18  1  0  0  0  0
  4 10  1  0  0  0  0
  4  1  1  0  0  0  0
  5  2  1  0  0  0  0
  6 20  1  0  0  0  0
  7 14  1  0  0  0  0
  8 19  1  0  0  0  0
  8  9  1  0  0  0  0
  9 11  1  0  0  0  0
  9 16  2  0  0  0  0
 10 13  1  0  0  0  0
 11  5  1  0  0  0  0
 12 10  1  0  0  0  0
 13 18  1  0  0  0  0
 14 15  1  0  0  0  0
 15  1  1  0  0  0  0
 15 23  1  0  0  0  0
 16  7  1  0  0  0  0
 17  5  1  0  0  0  0
 17 12  1  0  0  0  0
 19  6  1  0  0  0  0
 20 16  1  0  0  0  0
 21 22  1  0  0  0  0
 21 24  1  0  0  0  0
 23 25  2  0  0  0  0
 24 28  2  0  0  0  0
 25 28  1  0  0  0  0
 26 23  1  0  0  0  0
 26 21  2  0  0  0  0
 27 26  1  0  0  0  0
 28 30  1  0  0  0  0
 30 29  1  0  0  0  0
 31 17  1  0  0  0  0
 31 32  1  0  0  0  0
M  END
>  <MODEL>
3

>  <REMARK>
 VINA RESULT:      -8.4      2.128      3.047
  Name = 
  3 active torsions:
  status: ('A' for Active; 'I' for Inactive)
    1  A    between atoms: C_13  and  C_29
    2  A    between atoms: C_15  and  C_26
    3  A    between atoms: C_16  and  C_27
                            x       y       z     vdW  Elec       q    Type
                         _______ _______ _______ _____ _____    ______ ____

>  <TORSDO>
F 3

$$$$
=
 OpenBabel10272413103D

 32 37  0  0  1  0  0  0  0  0999 V2000
  186.0440  178.4380  140.3710 C   0  0  1  0  0  3  0  0  0  0  0  0
  188.6040  178.3110  140.0920 C   0  0  2  0  0  3  0  0  0  0  0  0
  184.8570  179.1350  139.6980 C   0  0  0  0  0  2  0  0  0  0  0  0
  187.2390  178.5970  139.4410 C   0  0  1  0  0  3  0  0  0  0  0  0
  189.0730  176.8820  139.8200 C   0  0  2  0  0  3  0  0  0  0  0  0
  191.5950  178.3660  144.0960 C   0  0  0  0  0  2  0  0  0  0  0  0
  188.6280  178.6910  141.5880 C   0  0  1  0  0  3  0  0  0  0  0  0
  191.8990  176.8180  142.4870 C   0  0  0  0  0  2  0  0  0  0  0  0
  190.6330  177.2160  141.7760 C   0  0  0  0  0  0  0  0  0  0  0  0
  186.9390  177.7160  138.2340 C   0  0  2  0  0  3  0  0  0  0  0  0
  190.3410  176.6430  140.4960 N   0  0  0  0  0  2  0  0  0  0  0  0
  188.2010  177.4210  137.4330 C   0  0  0  0  0  2  0  0  0  0  0  0
  185.8100  178.3650  137.4440 C   0  0  0  0  0  2  0  0  0  0  0  0
  187.4840  178.2240  142.2630 O   0  0  0  0  0  0  0  0  0  0  0  0
  186.3920  178.9600  141.7670 C   0  0  2  0  0  3  0  0  0  0  0  0
  189.8760  178.2120  142.2840 C   0  0  0  0  0  0  0  0  0  0  0  0
  189.2180  176.6400  138.3000 C   0  0  2  0  0  3  0  0  0  0  0  0
  184.5580  178.4700  138.3400 C   0  0  0  0  0  2  0  0  0  0  0  0
  191.7690  176.9880  143.8780 O   0  0  0  0  0  0  0  0  0  0  0  0
  190.1960  178.7880  143.6390 C   0  0  0  0  0  2  0  0  0  0  0  0
  184.3700  178.5730  144.9660 C   0  0  0  0  0  0  0  0  0  0  0  0
  184.5900  178.4130  146.4290 C   0  0  0  0  0  1  0  0  0  0  0  0
  185.2300  178.8340  142.7080 C   0  0  0  0  0  0  0  0  0  0  0  0
  183.0630  178.6110  144.4710 C   0  0  0  0  0  3  0  0  0  0  0  0
  183.9160  178.8720  142.2210 C   0  0  0  0  0  3  0  0  0  0  0  0
  185.4570  178.6860  144.0860 C   0  0  0  0  0  0  0  0  0  0  0  0
  186.7270  178.6510  144.5670 F   0  0  0  0  0  0  0  0  0  0  0  0
  182.8350  178.7650  143.1010 C   0  0  0  0  0  0  0  0  0  0  0  0
  180.4500  178.6230  143.7120 C   0  0  0  0  0  1  0  0  0  0  0  0
  181.4410  178.7880  142.5750 C   0  0  0  0  0  2  0  0  0  0  0  0
  189.1750  175.1510  137.9800 C   0  0  0  0  0  2  0  0  0  0  0  0
  190.4590  174.6580  137.7360 O   0  0  0  0  0  1  0  0  0  0  0  0
  1  3  1  6  0  0  0
  1 15  1  0  0  0  0
  2  7  1  0  0  0  0
  4  2  1  0  0  0  0
  4  1  1  0  0  0  0
  5  2  1  0  0  0  0
  5 11  1  0  0  0  0
  7 14  1  0  0  0  0
  7 16  1  0  0  0  0
  8 19  1  0  0  0  0
  9 16  2  0  0  0  0
  9  8  1  0  0  0  0
 10  4  1  0  0  0  0
 11  9  1  0  0  0  0
 12 10  1  0  0  0  0
 12 17  1  0  0  0  0
 13 10  1  0  0  0  0
 13 18  1  0  0  0  0
 15 14  1  0  0  0  0
 15 23  1  0  0  0  0
 16 20  1  0  0  0  0
 17  5  1  0  0  0  0
 18  3  1  0  0  0  0
 19  6  1  0  0  0  0
 20  6  1  0  0  0  0
 21 22  1  0  0  0  0
 23 26  1  0  0  0  0
 24 21  1  0  0  0  0
 25 23  2  0  0  0  0
 25 28  1  0  0  0  0
 26 27  1  0  0  0  0
 26 21  2  0  0  0  0
 28 24  2  0  0  0  0
 30 28  1  0  0  0  0
 30 29  1  0  0  0  0
 31 17  1  0  0  0  0
 32 31  1  0  0  0  0
M  END
>  <MODEL>
4

>  <REMARK>
 VINA RESULT:      -8.3      2.273      4.313
  Name = 
  3 active torsions:
  status: ('A' for Active; 'I' for Inactive)
    1  A    between atoms: C_13  and  C_29
    2  A    between atoms: C_15  and  C_26
    3  A    between atoms: C_16  and  C_27
                            x       y       z     vdW  Elec       q    Type
                         _______ _______ _______ _____ _____    ______ ____

>  <TORSDO>
F 3

$$$$
=
 OpenBabel10272413103D

 32 37  0  0  1  0  0  0  0  0999 V2000
  188.5210  177.2250  139.1210 C   0  0  1  0  0  3  0  0  0  0  0  0
  189.9280  176.3740  137.1350 C   0  0  2  0  0  3  0  0  0  0  0  0
  187.5480  178.3690  139.4210 C   0  0  0  0  0  2  0  0  0  0  0  0
  188.7100  177.1860  137.6110 C   0  0  1  0  0  3  0  0  0  0  0  0
  189.5390  174.9500  136.7360 C   0  0  2  0  0  3  0  0  0  0  0  0
  194.5930  174.7310  137.8530 C   0  0  0  0  0  2  0  0  0  0  0  0
  191.0970  176.4310  138.1420 C   0  0  1  0  0  3  0  0  0  0  0  0
  193.1450  173.5060  136.6360 C   0  0  0  0  0  2  0  0  0  0  0  0
  191.9890  174.4040  136.9910 C   0  0  0  0  0  0  0  0  0  0  0  0
  187.3840  176.6900  137.0450 C   0  0  2  0  0  3  0  0  0  0  0  0
  190.7280  174.2070  136.3420 N   0  0  0  0  0  2  0  0  0  0  0  0
  187.5430  176.1820  135.6180 C   0  0  0  0  0  2  0  0  0  0  0  0
  186.3510  177.7950  137.2260 C   0  0  0  0  0  2  0  0  0  0  0  0
  190.6590  176.2180  139.4620 O   0  0  0  0  0  0  0  0  0  0  0  0
  189.8800  177.3350  139.8170 C   0  0  2  0  0  3  0  0  0  0  0  0
  192.2020  175.4670  137.7960 C   0  0  0  0  0  0  0  0  0  0  0  0
  188.5100  174.9740  135.5820 C   0  0  2  0  0  3  0  0  0  0  0  0
  186.1960  178.1040  138.7300 C   0  0  0  0  0  2  0  0  0  0  0  0
  194.0700  173.4360  137.6950 O   0  0  0  0  0  0  0  0  0  0  0  0
  193.5340  175.6430  138.4770 C   0  0  0  0  0  2  0  0  0  0  0  0
  190.6930  177.7950  143.5040 C   0  0  0  0  0  0  0  0  0  0  0  0
  191.8480  178.1550  144.3710 C   0  0  0  0  0  1  0  0  0  0  0  0
  189.7330  177.3930  141.3090 C   0  0  0  0  0  0  0  0  0  0  0  0
  189.4570  177.5140  144.0950 C   0  0  0  0  0  3  0  0  0  0  0  0
  188.4970  177.1150  141.9100 C   0  0  0  0  0  3  0  0  0  0  0  0
  190.8330  177.7360  142.1100 C   0  0  0  0  0  0  0  0  0  0  0  0
  192.0330  178.0110  141.5360 F   0  0  0  0  0  0  0  0  0  0  0  0
  188.3580  177.1790  143.3000 C   0  0  0  0  0  0  0  0  0  0  0  0
  186.7470  177.8600  145.0370 C   0  0  0  0  0  1  0  0  0  0  0  0
  187.0470  176.8640  143.9330 C   0  0  0  0  0  2  0  0  0  0  0  0
  187.7390  173.6620  135.5140 C   0  0  0  0  0  2  0  0  0  0  0  0
  187.5300  173.1420  136.7930 O   0  0  0  0  0  1  0  0  0  0  0  0
  1  3  1  6  0  0  0
  1 15  1  0  0  0  0
  2  4  1  0  0  0  0
  2  7  1  0  0  0  0
  4  1  1  0  0  0  0
  5  2  1  0  0  0  0
  6 20  1  0  0  0  0
  7 14  1  0  0  0  0
  8  9  1  0  0  0  0
  8 19  1  0  0  0  0
  9 16  2  0  0  0  0
 10 13  1  0  0  0  0
 10  4  1  0  0  0  0
 11  5  1  0  0  0  0
 11  9  1  0  0  0  0
 12 10  1  0  0  0  0
 13 18  1  0  0  0  0
 14 15  1  0  0  0  0
 15 23  1  0  0  0  0
 16  7  1  0  0  0  0
 16 20  1  0  0  0  0
 17 12  1  0  0  0  0
 17  5  1  0  0  0  0
 18  3  1  0  0  0  0
 19  6  1  0  0  0  0
 21 24  1  0  0  0  0
 21 22  1  0  0  0  0
 23 25  2  0  0  0  0
 23 26  1  0  0  0  0
 25 28  1  0  0  0  0
 26 21  2  0  0  0  0
 27 26  1  0  0  0  0
 28 30  1  0  0  0  0
 28 24  2  0  0  0  0
 30 29  1  0  0  0  0
 31 17  1  0  0  0  0
 31 32  1  0  0  0  0
M  END
>  <MODEL>
5

>  <REMARK>
 VINA RESULT:      -8.2      1.506      2.232
  Name = 
  3 active torsions:
  status: ('A' for Active; 'I' for Inactive)
    1  A    between atoms: C_13  and  C_29
    2  A    between atoms: C_15  and  C_26
    3  A    between atoms: C_16  and  C_27
                            x       y       z     vdW  Elec       q    Type
                         _______ _______ _______ _____ _____    ______ ____

>  <TORSDO>
F 3

$$$$
=
 OpenBabel10272413103D

 32 37  0  0  1  0  0  0  0  0999 V2000
  187.3650  177.7210  143.9490 C   0  0  1  0  0  3  0  0  0  0  0  0
  189.6020  176.8150  143.0450 C   0  0  2  0  0  3  0  0  0  0  0  0
  186.4070  177.4400  145.1120 C   0  0  0  0  0  2  0  0  0  0  0  0
  188.6600  176.9800  144.2500 C   0  0  1  0  0  3  0  0  0  0  0  0
  190.6810  177.8980  143.0170 C   0  0  2  0  0  3  0  0  0  0  0  0
  190.2940  176.2160  138.1310 C   0  0  0  0  0  2  0  0  0  0  0  0
  188.8310  176.6820  141.7140 C   0  0  1  0  0  3  0  0  0  0  0  0
  191.8560  177.2720  139.3660 C   0  0  0  0  0  2  0  0  0  0  0  0
  190.9730  177.2880  140.5850 C   0  0  0  0  0  0  0  0  0  0  0  0
  189.2910  177.7190  145.4250 C   0  0  2  0  0  3  0  0  0  0  0  0
  191.5150  177.7310  141.8340 N   0  0  0  0  0  2  0  0  0  0  0  0
  190.7710  177.3850  145.5620 C   0  0  0  0  0  2  0  0  0  0  0  0
  188.4500  177.4420  146.6640 C   0  0  0  0  0  2  0  0  0  0  0  0
  187.8110  177.6460  141.6050 O   0  0  0  0  0  0  0  0  0  0  0  0
  186.8390  177.3200  142.5690 C   0  0  2  0  0  3  0  0  0  0  0  0
  189.7390  176.7450  140.5130 C   0  0  0  0  0  0  0  0  0  0  0  0
  191.5430  177.8370  144.2990 C   0  0  2  0  0  3  0  0  0  0  0  0
  187.0150  177.9580  146.4300 C   0  0  0  0  0  2  0  0  0  0  0  0
  191.0900  177.3730  138.1890 O   0  0  0  0  0  0  0  0  0  0  0  0
  189.1860  176.2990  139.1850 C   0  0  0  0  0  2  0  0  0  0  0  0
  184.1190  179.1520  140.6410 C   0  0  0  0  0  0  0  0  0  0  0  0
  183.8610  179.6730  139.2720 C   0  0  0  0  0  1  0  0  0  0  0  0
  185.5520  178.0200  142.2440 C   0  0  0  0  0  0  0  0  0  0  0  0
  183.1440  179.3160  141.6300 C   0  0  0  0  0  3  0  0  0  0  0  0
  184.5680  178.1870  143.2290 C   0  0  0  0  0  3  0  0  0  0  0  0
  185.3250  178.5020  140.9460 C   0  0  0  0  0  0  0  0  0  0  0  0
  186.2710  178.3420  139.9840 F   0  0  0  0  0  0  0  0  0  0  0  0
  183.3650  178.8300  142.9220 C   0  0  0  0  0  0  0  0  0  0  0  0
  180.9440  178.8650  143.3840 C   0  0  0  0  0  1  0  0  0  0  0  0
  182.3310  179.0200  143.9770 C   0  0  0  0  0  2  0  0  0  0  0  0
  192.2530  179.1630  144.5400 C   0  0  0  0  0  2  0  0  0  0  0  0
  191.3900  180.2370  144.3110 O   0  0  0  0  0  1  0  0  0  0  0  0
  1  4  1  0  0  0  0
  1  3  1  1  0  0  0
  2  4  1  0  0  0  0
  3 18  1  0  0  0  0
  4 10  1  0  0  0  0
  5  2  1  0  0  0  0
  5 17  1  0  0  0  0
  6 19  1  0  0  0  0
  6 20  1  0  0  0  0
  7  2  1  0  0  0  0
  8  9  1  0  0  0  0
  9 11  1  0  0  0  0
 10 12  1  0  0  0  0
 10 13  1  0  0  0  0
 11  5  1  0  0  0  0
 14  7  1  0  0  0  0
 14 15  1  0  0  0  0
 15  1  1  0  0  0  0
 16  9  2  0  0  0  0
 16  7  1  0  0  0  0
 17 31  1  0  0  0  0
 17 12  1  0  0  0  0
 18 13  1  0  0  0  0
 19  8  1  0  0  0  0
 20 16  1  0  0  0  0
 21 26  2  0  0  0  0
 21 24  1  0  0  0  0
 22 21  1  0  0  0  0
 23 15  1  0  0  0  0
 23 25  2  0  0  0  0
 24 28  2  0  0  0  0
 26 23  1  0  0  0  0
 27 26  1  0  0  0  0
 28 25  1  0  0  0  0
 28 30  1  0  0  0  0
 29 30  1  0  0  0  0
 32 31  1  0  0  0  0
M  END
>  <MODEL>
6

>  <REMARK>
 VINA RESULT:      -8.1      2.525      6.037
  Name = 
  3 active torsions:
  status: ('A' for Active; 'I' for Inactive)
    1  A    between atoms: C_13  and  C_29
    2  A    between atoms: C_15  and  C_26
    3  A    between atoms: C_16  and  C_27
                            x       y       z     vdW  Elec       q    Type
                         _______ _______ _______ _____ _____    ______ ____

>  <TORSDO>
F 3

$$$$
=
 OpenBabel10272413103D

 32 37  0  0  1  0  0  0  0  0999 V2000
  189.6480  177.0390  138.9010 C   0  0  1  0  0  3  0  0  0  0  0  0
  189.3220  178.0890  141.2330 C   0  0  2  0  0  3  0  0  0  0  0  0
  190.6080  177.1730  137.7150 C   0  0  0  0  0  2  0  0  0  0  0  0
  190.2830  177.7750  140.0720 C   0  0  1  0  0  3  0  0  0  0  0  0
  189.4130  177.0410  142.3430 C   0  0  2  0  0  3  0  0  0  0  0  0
  184.7420  179.2170  142.8870 C   0  0  0  0  0  2  0  0  0  0  0  0
  187.8800  178.3420  140.7450 C   0  0  1  0  0  3  0  0  0  0  0  0
  186.1660  178.0750  144.2100 C   0  0  0  0  0  2  0  0  0  0  0  0
  187.1670  177.9100  143.0980 C   0  0  0  0  0  0  0  0  0  0  0  0
  191.4850  176.9330  140.4840 C   0  0  2  0  0  3  0  0  0  0  0  0
  188.4520  177.3510  143.3930 N   0  0  0  0  0  2  0  0  0  0  0  0
  191.9590  177.2850  141.8880 C   0  0  0  0  0  2  0  0  0  0  0  0
  192.5440  177.0570  139.3950 C   0  0  0  0  0  2  0  0  0  0  0  0
  187.4670  177.3710  139.8140 O   0  0  0  0  0  0  0  0  0  0  0  0
  188.2350  177.5700  138.6510 C   0  0  2  0  0  3  0  0  0  0  0  0
  186.8930  178.4280  141.8810 C   0  0  0  0  0  0  0  0  0  0  0  0
  190.8460  176.9880  142.9210 C   0  0  2  0  0  3  0  0  0  0  0  0
  191.9670  176.5340  138.0630 C   0  0  0  0  0  2  0  0  0  0  0  0
  184.8510  178.0800  143.7060 O   0  0  0  0  0  0  0  0  0  0  0  0
  185.5290  178.9980  141.5920 C   0  0  0  0  0  2  0  0  0  0  0  0
  186.3310  176.9820  135.4110 C   0  0  0  0  0  0  0  0  0  0  0  0
  185.6390  177.7620  134.3490 C   0  0  0  0  0  1  0  0  0  0  0  0
  187.5820  176.8780  137.4910 C   0  0  0  0  0  0  0  0  0  0  0  0
  186.3740  175.5880  135.3160 C   0  0  0  0  0  3  0  0  0  0  0  0
  187.6220  175.4800  137.3870 C   0  0  0  0  0  3  0  0  0  0  0  0
  186.9360  177.6300  136.4980 C   0  0  0  0  0  0  0  0  0  0  0  0
  186.8960  178.9850  136.5890 F   0  0  0  0  0  0  0  0  0  0  0  0
  187.0230  174.8370  136.3000 C   0  0  0  0  0  0  0  0  0  0  0  0
  186.2800  172.7370  137.3570 C   0  0  0  0  0  1  0  0  0  0  0  0
  187.0530  173.3500  136.2050 C   0  0  0  0  0  2  0  0  0  0  0  0
  191.0990  175.6600  143.6250 C   0  0  0  0  0  2  0  0  0  0  0  0
  191.9720  175.8280  144.7020 O   0  0  0  0  0  1  0  0  0  0  0  0
  1  3  1  6  0  0  0
  1  4  1  0  0  0  0
  2  5  1  0  0  0  0
  3 18  1  0  0  0  0
  4 10  1  0  0  0  0
  4  2  1  0  0  0  0
  5 17  1  0  0  0  0
  5 11  1  0  0  0  0
  6 19  1  0  0  0  0
  7  2  1  0  0  0  0
  7 16  1  0  0  0  0
  9 11  1  0  0  0  0
  9  8  1  0  0  0  0
 10 12  1  0  0  0  0
 12 17  1  0  0  0  0
 13 10  1  0  0  0  0
 14  7  1  0  0  0  0
 15  1  1  0  0  0  0
 15 14  1  0  0  0  0
 16  9  2  0  0  0  0
 17 31  1  0  0  0  0
 18 13  1  0  0  0  0
 19  8  1  0  0  0  0
 20 16  1  0  0  0  0
 20  6  1  0  0  0  0
 21 26  1  0  0  0  0
 22 21  1  0  0  0  0
 23 15  1  0  0  0  0
 24 21  2  0  0  0  0
 24 28  1  0  0  0  0
 25 23  1  0  0  0  0
 26 27  1  0  0  0  0
 26 23  2  0  0  0  0
 28 25  2  0  0  0  0
 30 28  1  0  0  0  0
 30 29  1  0  0  0  0
 31 32  1  0  0  0  0
M  END
>  <MODEL>
7

>  <REMARK>
 VINA RESULT:      -8.1      2.659      7.682
  Name = 
  3 active torsions:
  status: ('A' for Active; 'I' for Inactive)
    1  A    between atoms: C_13  and  C_29
    2  A    between atoms: C_15  and  C_26
    3  A    between atoms: C_16  and  C_27
                            x       y       z     vdW  Elec       q    Type
                         _______ _______ _______ _____ _____    ______ ____

>  <TORSDO>
F 3

$$$$
=
 OpenBabel10272413103D

 32 37  0  0  1  0  0  0  0  0999 V2000
  186.1150  178.2310  140.3930 C   0  0  1  0  0  3  0  0  0  0  0  0
  186.2120  177.9980  137.8280 C   0  0  2  0  0  3  0  0  0  0  0  0
  185.5320  179.1960  141.4300 C   0  0  0  0  0  2  0  0  0  0  0  0
  185.4860  178.5830  139.0530 C   0  0  1  0  0  3  0  0  0  0  0  0
  185.5630  176.6980  137.3530 C   0  0  2  0  0  3  0  0  0  0  0  0
  190.4260  176.5400  135.5700 C   0  0  0  0  0  2  0  0  0  0  0  0
  187.7340  177.8790  138.0530 C   0  0  1  0  0  3  0  0  0  0  0  0
  188.4660  175.5660  135.0310 C   0  0  0  0  0  2  0  0  0  0  0  0
  187.7380  176.2680  136.1460 C   0  0  0  0  0  0  0  0  0  0  0  0
  184.0260  178.1580  139.1610 C   0  0  2  0  0  3  0  0  0  0  0  0
  186.3120  176.1570  136.2260 N   0  0  0  0  0  2  0  0  0  0  0  0
  183.3780  178.0360  137.7870 C   0  0  0  0  0  2  0  0  0  0  0  0
  183.3270  179.1120  140.1210 C   0  0  0  0  0  2  0  0  0  0  0  0
  188.0320  177.3130  139.3060 O   0  0  0  0  0  0  0  0  0  0  0  0
  187.6410  178.2520  140.2790 C   0  0  2  0  0  3  0  0  0  0  0  0
  188.4190  177.1070  136.9550 C   0  0  0  0  0  0  0  0  0  0  0  0
  184.0890  176.9420  136.9540 C   0  0  2  0  0  3  0  0  0  0  0  0
  184.0020  179.0240  141.5050 C   0  0  0  0  0  2  0  0  0  0  0  0
  189.7990  175.2940  135.3940 O   0  0  0  0  0  0  0  0  0  0  0  0
  189.9200  177.1940  136.8590 C   0  0  0  0  0  2  0  0  0  0  0  0
  190.3000  177.4390  142.8750 C   0  0  0  0  0  0  0  0  0  0  0  0
  191.7720  177.2370  142.9590 C   0  0  0  0  0  1  0  0  0  0  0  0
  188.2970  177.9240  141.5880 C   0  0  0  0  0  0  0  0  0  0  0  0
  189.5270  177.3250  144.0340 C   0  0  0  0  0  3  0  0  0  0  0  0
  187.5300  177.8100  142.7560 C   0  0  0  0  0  3  0  0  0  0  0  0
  189.6870  177.7400  141.6490 C   0  0  0  0  0  0  0  0  0  0  0  0
  190.4390  177.8530  140.5230 F   0  0  0  0  0  0  0  0  0  0  0  0
  188.1430  177.5150  143.9770 C   0  0  0  0  0  0  0  0  0  0  0  0
  185.9660  178.0300  145.0120 C   0  0  0  0  0  1  0  0  0  0  0  0
  187.3210  177.3770  145.2110 C   0  0  0  0  0  2  0  0  0  0  0  0
  183.2970  175.6410  136.9770 C   0  0  0  0  0  2  0  0  0  0  0  0
  183.7220  174.8190  138.0230 O   0  0  0  0  0  1  0  0  0  0  0  0
  1  3  1  1  0  0  0
  2  7  1  0  0  0  0
  2  4  1  0  0  0  0
  3 18  1  0  0  0  0
  4 10  1  0  0  0  0
  4  1  1  0  0  0  0
  5  2  1  0  0  0  0
  6 20  1  0  0  0  0
  7 14  1  0  0  0  0
  8 19  1  0  0  0  0
  8  9  1  0  0  0  0
  9 11  1  0  0  0  0
  9 16  2  0  0  0  0
 10 13  1  0  0  0  0
 11  5  1  0  0  0  0
 12 10  1  0  0  0  0
 13 18  1  0  0  0  0
 14 15  1  0  0  0  0
 15  1  1  0  0  0  0
 15 23  1  0  0  0  0
 16  7  1  0  0  0  0
 17 31  1  0  0  0  0
 17  5  1  0  0  0  0
 17 12  1  0  0  0  0
 19  6  1  0  0  0  0
 20 16  1  0  0  0  0
 21 22  1  0  0  0  0
 21 24  1  0  0  0  0
 23 26  1  0  0  0  0
 23 25  2  0  0  0  0
 25 28  1  0  0  0  0
 26 21  2  0  0  0  0
 27 26  1  0  0  0  0
 28 24  2  0  0  0  0
 28 30  1  0  0  0  0
 29 30  1  0  0  0  0
 31 32  1  0  0  0  0
M  END
>  <MODEL>
8

>  <REMARK>
 VINA RESULT:      -8.1      1.790      2.236
  Name = 
  3 active torsions:
  status: ('A' for Active; 'I' for Inactive)
    1  A    between atoms: C_13  and  C_29
    2  A    between atoms: C_15  and  C_26
    3  A    between atoms: C_16  and  C_27
                            x       y       z     vdW  Elec       q    Type
                         _______ _______ _______ _____ _____    ______ ____

>  <TORSDO>
F 3

$$$$
=
 OpenBabel10272413103D

 32 37  0  0  1  0  0  0  0  0999 V2000
  186.5720  178.0400  139.4390 C   0  0  1  0  0  3  0  0  0  0  0  0
  187.4070  178.5780  141.8180 C   0  0  2  0  0  3  0  0  0  0  0  0
  186.8920  178.4500  137.9990 C   0  0  0  0  0  2  0  0  0  0  0  0
  187.7130  178.5450  140.3100 C   0  0  1  0  0  3  0  0  0  0  0  0
  187.9310  177.3300  142.5290 C   0  0  2  0  0  3  0  0  0  0  0  0
  184.1600  179.1650  145.5730 C   0  0  0  0  0  2  0  0  0  0  0  0
  185.9190  178.8690  142.1060 C   0  0  1  0  0  3  0  0  0  0  0  0
  185.9590  177.8340  145.8390 C   0  0  0  0  0  2  0  0  0  0  0  0
  186.3320  177.9390  144.3850 C   0  0  0  0  0  0  0  0  0  0  0  0
  188.9180  177.6840  139.9480 C   0  0  2  0  0  3  0  0  0  0  0  0
  187.5740  177.3810  143.9410 N   0  0  0  0  0  2  0  0  0  0  0  0
  190.0000  177.7620  141.0180 C   0  0  0  0  0  2  0  0  0  0  0  0
  189.3690  178.0700  138.5450 C   0  0  0  0  0  2  0  0  0  0  0  0
  185.0700  178.0920  141.2940 O   0  0  0  0  0  0  0  0  0  0  0  0
  185.2340  178.5550  139.9750 C   0  0  2  0  0  3  0  0  0  0  0  0
  185.5650  178.6820  143.5590 C   0  0  0  0  0  0  0  0  0  0  0  0
  189.4640  177.2160  142.3630 C   0  0  2  0  0  3  0  0  0  0  0  0
  188.2190  177.8070  137.5510 C   0  0  0  0  0  2  0  0  0  0  0  0
  184.5620  177.8900  146.0060 O   0  0  0  0  0  0  0  0  0  0  0  0
  184.2560  179.2450  144.0460 C   0  0  0  0  0  2  0  0  0  0  0  0
  182.1110  178.5850  137.8040 C   0  0  0  0  0  0  0  0  0  0  0  0
  181.1420  179.5580  137.2320 C   0  0  0  0  0  1  0  0  0  0  0  0
  184.0850  178.0890  139.1310 C   0  0  0  0  0  0  0  0  0  0  0  0
  181.9450  177.2210  137.5430 C   0  0  0  0  0  3  0  0  0  0  0  0
  183.9120  176.7230  138.8620 C   0  0  0  0  0  3  0  0  0  0  0  0
  183.1820  179.0210  138.5970 C   0  0  0  0  0  0  0  0  0  0  0  0
  183.3450  180.3470  138.8490 F   0  0  0  0  0  0  0  0  0  0  0  0
  182.8470  176.2910  138.0670 C   0  0  0  0  0  0  0  0  0  0  0  0
  184.0030  174.1500  137.6660 C   0  0  0  0  0  1  0  0  0  0  0  0
  182.6570  174.8370  137.8010 C   0  0  0  0  0  2  0  0  0  0  0  0
  189.9310  175.7840  142.5940 C   0  0  0  0  0  2  0  0  0  0  0  0
  191.1070  175.7600  143.3470 O   0  0  0  0  0  1  0  0  0  0  0  0
  1  3  1  6  0  0  0
  1 15  1  0  0  0  0
  1  4  1  0  0  0  0
  2  7  1  0  0  0  0
  2  5  1  0  0  0  0
  4  2  1  0  0  0  0
  5 11  1  0  0  0  0
  6 19  1  0  0  0  0
  7 16  1  0  0  0  0
  8 19  1  0  0  0  0
  9  8  1  0  0  0  0
 10  4  1  0  0  0  0
 10 12  1  0  0  0  0
 11  9  1  0  0  0  0
 12 17  1  0  0  0  0
 13 10  1  0  0  0  0
 14  7  1  0  0  0  0
 15 14  1  0  0  0  0
 16 20  1  0  0  0  0
 16  9  2  0  0  0  0
 17  5  1  0  0  0  0
 17 31  1  0  0  0  0
 18  3  1  0  0  0  0
 18 13  1  0  0  0  0
 20  6  1  0  0  0  0
 21 26  1  0  0  0  0
 22 21  1  0  0  0  0
 23 15  1  0  0  0  0
 24 21  2  0  0  0  0
 24 28  1  0  0  0  0
 25 23  1  0  0  0  0
 26 27  1  0  0  0  0
 26 23  2  0  0  0  0
 28 25  2  0  0  0  0
 29 30  1  0  0  0  0
 30 28  1  0  0  0  0
 31 32  1  0  0  0  0
M  END
>  <MODEL>
9

>  <REMARK>
 VINA RESULT:      -7.8      3.236      7.716
  Name = 
  3 active torsions:
  status: ('A' for Active; 'I' for Inactive)
    1  A    between atoms: C_13  and  C_29
    2  A    between atoms: C_15  and  C_26
    3  A    between atoms: C_16  and  C_27
                            x       y       z     vdW  Elec       q    Type
                         _______ _______ _______ _____ _____    ______ ____

>  <TORSDO>
F 3

$$$$
