=
 OpenBabel10272414503D

 37 41  0  0  1  0  0  0  0  0999 V2000
  189.6020  177.0720  141.0370 C   0  0  2  0  0  3  0  0  0  0  0  0
  191.5030  178.9130  143.8610 C   0  0  0  0  0  2  0  0  0  0  0  0
  187.6230  178.6930  139.8340 C   0  0  0  0  0  3  0  0  0  0  0  0
  190.5180  178.1520  141.6460 C   0  0  0  0  0  2  0  0  0  0  0  0
  189.5400  177.1420  139.4980 C   0  0  1  0  0  3  0  0  0  0  0  0
  190.5100  178.0220  143.1540 C   0  0  0  0  0  0  0  0  0  0  0  0
  186.1310  178.3830  141.7520 C   0  0  0  0  0  1  0  0  0  0  0  0
  188.6340  175.3850  143.3270 C   0  0  0  0  0  1  0  0  0  0  0  0
  187.5860  178.3900  141.3080 C   0  0  1  0  0  3  0  0  0  0  0  0
  191.7410  177.4060  143.7760 C   0  0  0  0  0  2  0  0  0  0  0  0
  188.2350  177.0990  141.6030 N   0  0  2  0  0  0  0  0  0  0  0  0
  188.5390  178.1730  138.9970 C   0  0  0  0  0  0  0  0  0  0  0  0
  189.1420  177.8460  143.8240 C   0  0  1  0  0  3  0  0  0  0  0  0
  188.2570  176.8380  143.0590 C   0  0  2  0  0  3  0  0  0  0  0  0
  190.1570  177.2700  146.0120 C   0  0  0  0  0  3  0  0  0  0  0  0
  189.1010  177.7280  145.3270 C   0  0  0  0  0  0  0  0  0  0  0  0
  187.8310  178.1450  146.0210 C   0  0  0  0  0  2  0  0  0  0  0  0
  186.9010  178.3210  148.2130 O   0  0  0  0  0  0  0  0  0  0  0  0
  189.0760  177.4970  148.1540 N   0  0  0  0  0  0  0  0  0  0  0  0
  187.8970  177.9990  147.5150 C   0  0  0  0  0  0  0  0  0  0  0  0
  190.1280  177.1550  147.4760 C   0  0  0  0  0  3  0  0  0  0  0  0
  188.4040  178.4890  137.5240 C   0  0  0  0  0  0  0  0  0  0  0  0
  188.6320  177.3500  136.7700 F   0  0  0  0  0  0  0  0  0  0  0  0
  187.1240  178.9470  137.2710 F   0  0  0  0  0  0  0  0  0  0  0  0
  189.3110  179.4550  137.1270 F   0  0  0  0  0  0  0  0  0  0  0  0
  190.9270  177.3170  138.8730 C   0  0  0  0  0  2  0  0  0  0  0  0
  193.0440  176.1030  138.3980 C   0  0  0  0  0  2  0  0  0  0  0  0
  193.4560  175.0230  137.4200 C   0  0  1  0  0  3  0  0  0  0  0  0
  191.0630  175.4880  137.1690 C   0  0  0  0  0  2  0  0  0  0  0  0
  192.2400  174.7510  136.5470 C   0  0  2  0  0  3  0  0  0  0  0  0
  191.5440  175.9740  138.5220 C   0  0  2  0  0  3  0  0  0  0  0  0
  194.5760  175.4900  136.6000 C   0  0  0  0  0  0  0  0  0  0  0  0
  195.4620  175.8590  135.9520 N   0  0  0  0  0  0  0  0  0  0  0  0
  191.9650  173.2530  136.3910 C   0  0  0  0  0  2  0  0  0  0  0  0
  192.9980  172.5420  135.5730 C   0  0  0  0  0  0  0  0  0  0  0  0
  193.2870  172.9610  134.4220 O   0  0  0  0  0  0  0  0  0  0  0  0
  193.6590  171.4370  136.0940 O   0  0  0  0  0  1  0  0  0  0  0  0
  1 11  1  0  0  0  0
  1  4  1  1  0  0  0
  3  9  1  0  0  0  0
  4  6  1  0  0  0  0
  5 26  1  1  0  0  0
  5  1  1  0  0  0  0
  6 10  1  0  0  0  0
  6 13  1  0  0  0  0
  6  2  1  0  0  0  0
  9 11  1  0  0  0  0
  9  7  1  6  0  0  0
 10  2  1  0  0  0  0
 11 14  1  0  0  0  0
 12  5  1  0  0  0  0
 12  3  2  0  0  0  0
 13 16  1  0  0  0  0
 14  8  1  0  0  0  0
 14 13  1  0  0  0  0
 15 21  1  0  0  0  0
 16 15  2  0  0  0  0
 16 17  1  0  0  0  0
 17 20  1  0  0  0  0
 20 19  1  0  0  0  0
 20 18  2  0  0  0  0
 21 19  2  0  0  0  0
 22 12  1  0  0  0  0
 23 22  1  0  0  0  0
 24 22  1  0  0  0  0
 25 22  1  0  0  0  0
 27 31  1  0  0  0  0
 28 27  1  0  0  0  0
 29 31  1  0  0  0  0
 30 29  1  0  0  0  0
 30 28  1  0  0  0  0
 31 26  1  0  0  0  0
 32 28  1  0  0  0  0
 33 32  3  0  0  0  0
 34 30  1  0  0  0  0
 35 37  1  0  0  0  0
 35 34  1  0  0  0  0
 36 35  2  0  0  0  0
M  END
>  <MODEL>
1

>  <REMARK>
 VINA RESULT:      -7.7      0.000      0.000
  Name = 
  7 active torsions:
  status: ('A' for Active; 'I' for Inactive)
    1  A    between atoms: C_3  and  C_30
    2  A    between atoms: C_5  and  C_12
    3  A    between atoms: C_6  and  C_31
    4  A    between atoms: C_11  and  C_26
    5  A    between atoms: C_13  and  C_20
    6  A    between atoms: C_20  and  C_36
    7  A    between atoms: C_26  and  C_33
                            x       y       z     vdW  Elec       q    Type
                         _______ _______ _______ _____ _____    ______ ____

>  <TORSDO>
F 7

$$$$
=
 OpenBabel10272414503D

 37 41  0  0  1  0  0  0  0  0999 V2000
  188.3470  177.3730  144.6250 C   0  0  2  0  0  3  0  0  0  0  0  0
  189.4700  179.6980  141.7420 C   0  0  0  0  0  2  0  0  0  0  0  0
  190.0250  177.5760  146.8910 C   0  0  0  0  0  3  0  0  0  0  0  0
  188.6410  178.7200  143.9360 C   0  0  0  0  0  2  0  0  0  0  0  0
  187.6970  177.5420  146.0120 C   0  0  1  0  0  3  0  0  0  0  0  0
  189.2890  178.4630  142.5930 C   0  0  0  0  0  0  0  0  0  0  0  0
  191.7590  176.2400  145.7910 C   0  0  0  0  0  1  0  0  0  0  0  0
  189.1200  175.2280  142.6680 C   0  0  0  0  0  1  0  0  0  0  0  0
  190.5770  177.1690  145.5520 C   0  0  1  0  0  3  0  0  0  0  0  0
  188.4090  178.6590  141.3800 C   0  0  0  0  0  2  0  0  0  0  0  0
  189.5470  176.5110  144.7270 N   0  0  2  0  0  0  0  0  0  0  0  0
  188.7170  177.8010  147.1120 C   0  0  0  0  0  0  0  0  0  0  0  0
  190.4230  177.4310  142.5590 C   0  0  1  0  0  3  0  0  0  0  0  0
  190.0750  176.1750  143.3870 C   0  0  2  0  0  3  0  0  0  0  0  0
  192.3860  177.4720  141.0460 C   0  0  0  0  0  3  0  0  0  0  0  0
  191.0970  177.1650  141.2370 C   0  0  0  0  0  0  0  0  0  0  0  0
  190.2640  176.5420  140.1460 C   0  0  0  0  0  2  0  0  0  0  0  0
  190.4500  175.7880  137.8880 O   0  0  0  0  0  0  0  0  0  0  0  0
  192.4110  176.6760  138.7710 N   0  0  0  0  0  0  0  0  0  0  0  0
  191.0310  176.3090  138.8750 C   0  0  0  0  0  0  0  0  0  0  0  0
  193.0530  177.2130  139.7620 C   0  0  0  0  0  3  0  0  0  0  0  0
  188.2880  178.1140  148.5270 C   0  0  0  0  0  0  0  0  0  0  0  0
  187.6110  177.0350  149.0700 F   0  0  0  0  0  0  0  0  0  0  0  0
  189.4060  178.3760  149.2960 F   0  0  0  0  0  0  0  0  0  0  0  0
  187.4470  179.2130  148.5710 F   0  0  0  0  0  0  0  0  0  0  0  0
  186.5720  178.5810  145.9990 C   0  0  0  0  0  2  0  0  0  0  0  0
  185.7790  177.9860  143.7180 C   0  0  0  0  0  2  0  0  0  0  0  0
  184.4950  178.2050  142.9460 C   0  0  1  0  0  3  0  0  0  0  0  0
  184.2510  179.0980  145.2150 C   0  0  0  0  0  2  0  0  0  0  0  0
  183.5950  179.0410  143.8440 C   0  0  2  0  0  3  0  0  0  0  0  0
  185.3900  178.0990  145.1730 C   0  0  2  0  0  3  0  0  0  0  0  0
  184.7760  178.9210  141.7000 C   0  0  0  0  0  0  0  0  0  0  0  0
  184.9980  179.4880  140.7150 N   0  0  0  0  0  0  0  0  0  0  0  0
  182.1690  178.4850  143.9090 C   0  0  0  0  0  2  0  0  0  0  0  0
  181.2720  179.0250  142.8390 C   0  0  0  0  0  0  0  0  0  0  0  0
  181.1190  178.3880  141.7660 O   0  0  0  0  0  0  0  0  0  0  0  0
  180.5840  180.2140  143.0440 O   0  0  0  0  0  1  0  0  0  0  0  0
  1  4  1  1  0  0  0
  1 11  1  0  0  0  0
  1  5  1  0  0  0  0
  2  6  1  0  0  0  0
  3 12  2  0  0  0  0
  5 26  1  6  0  0  0
  5 12  1  0  0  0  0
  6  4  1  0  0  0  0
  8 14  1  0  0  0  0
  9  7  1  1  0  0  0
  9  3  1  0  0  0  0
 10  2  1  0  0  0  0
 10  6  1  0  0  0  0
 11  9  1  0  0  0  0
 12 22  1  0  0  0  0
 13  6  1  0  0  0  0
 13 14  1  0  0  0  0
 14 11  1  0  0  0  0
 15 16  2  0  0  0  0
 16 13  1  0  0  0  0
 17 16  1  0  0  0  0
 18 20  2  0  0  0  0
 19 20  1  0  0  0  0
 19 21  2  0  0  0  0
 20 17  1  0  0  0  0
 21 15  1  0  0  0  0
 22 25  1  0  0  0  0
 22 23  1  0  0  0  0
 22 24  1  0  0  0  0
 27 31  1  0  0  0  0
 28 27  1  0  0  0  0
 28 30  1  0  0  0  0
 30 34  1  0  0  0  0
 30 29  1  0  0  0  0
 31 29  1  0  0  0  0
 31 26  1  0  0  0  0
 32 28  1  0  0  0  0
 33 32  3  0  0  0  0
 35 37  1  0  0  0  0
 35 34  1  0  0  0  0
 36 35  2  0  0  0  0
M  END
>  <MODEL>
2

>  <REMARK>
 VINA RESULT:      -7.4      4.534      9.313
  Name = 
  7 active torsions:
  status: ('A' for Active; 'I' for Inactive)
    1  A    between atoms: C_3  and  C_30
    2  A    between atoms: C_5  and  C_12
    3  A    between atoms: C_6  and  C_31
    4  A    between atoms: C_11  and  C_26
    5  A    between atoms: C_13  and  C_20
    6  A    between atoms: C_20  and  C_36
    7  A    between atoms: C_26  and  C_33
                            x       y       z     vdW  Elec       q    Type
                         _______ _______ _______ _____ _____    ______ ____

>  <TORSDO>
F 7

$$$$
=
 OpenBabel10272414503D

 37 41  0  0  1  0  0  0  0  0999 V2000
  189.1700  177.1420  141.0400 C   0  0  2  0  0  3  0  0  0  0  0  0
  191.3160  179.1700  143.5420 C   0  0  0  0  0  2  0  0  0  0  0  0
  186.8530  178.5420  140.2240 C   0  0  0  0  0  3  0  0  0  0  0  0
  190.0550  178.3130  141.5090 C   0  0  0  0  0  2  0  0  0  0  0  0
  188.8390  177.2100  139.5360 C   0  0  1  0  0  3  0  0  0  0  0  0
  190.3170  178.1790  142.9930 C   0  0  0  0  0  0  0  0  0  0  0  0
  185.7510  178.0650  142.3590 C   0  0  0  0  0  1  0  0  0  0  0  0
  188.7910  175.3520  143.4240 C   0  0  0  0  0  1  0  0  0  0  0  0
  187.1000  178.2320  141.6760 C   0  0  1  0  0  3  0  0  0  0  0  0
  191.6960  177.6980  143.3860 C   0  0  0  0  0  2  0  0  0  0  0  0
  187.9240  177.0180  141.8300 N   0  0  2  0  0  0  0  0  0  0  0  0
  187.6630  178.1270  139.2330 C   0  0  0  0  0  0  0  0  0  0  0  0
  189.1100  177.8520  143.8810 C   0  0  1  0  0  3  0  0  0  0  0  0
  188.2210  176.7570  143.2550 C   0  0  2  0  0  3  0  0  0  0  0  0
  188.3970  178.0960  146.2430 C   0  0  0  0  0  3  0  0  0  0  0  0
  189.3390  177.7260  145.3660 C   0  0  0  0  0  0  0  0  0  0  0  0
  190.6640  177.1690  145.8190 C   0  0  0  0  0  2  0  0  0  0  0  0
  191.8440  176.6180  147.8200 O   0  0  0  0  0  0  0  0  0  0  0  0
  189.7190  177.4990  148.1680 N   0  0  0  0  0  0  0  0  0  0  0  0
  190.7860  177.0740  147.3140 C   0  0  0  0  0  0  0  0  0  0  0  0
  188.6090  177.9730  147.6920 C   0  0  0  0  0  3  0  0  0  0  0  0
  187.2470  178.4310  137.8120 C   0  0  0  0  0  0  0  0  0  0  0  0
  187.2270  177.2660  137.0610 F   0  0  0  0  0  0  0  0  0  0  0  0
  185.9790  178.9840  137.8160 F   0  0  0  0  0  0  0  0  0  0  0  0
  188.1200  179.3170  137.2060 F   0  0  0  0  0  0  0  0  0  0  0  0
  190.0720  177.5370  138.6890 C   0  0  0  0  0  2  0  0  0  0  0  0
  191.9760  176.0330  138.1420 C   0  0  0  0  0  2  0  0  0  0  0  0
  192.4800  175.3680  136.8790 C   0  0  1  0  0  3  0  0  0  0  0  0
  190.4190  176.6030  136.3920 C   0  0  0  0  0  2  0  0  0  0  0  0
  191.5810  175.8580  135.7520 C   0  0  2  0  0  3  0  0  0  0  0  0
  190.5190  176.3300  137.8800 C   0  0  2  0  0  3  0  0  0  0  0  0
  193.8680  175.7600  136.6260 C   0  0  0  0  0  0  0  0  0  0  0  0
  194.9660  176.0680  136.4260 N   0  0  0  0  0  0  0  0  0  0  0  0
  191.1070  174.7120  134.8540 C   0  0  0  0  0  2  0  0  0  0  0  0
  191.0150  173.3980  135.5670 C   0  0  0  0  0  0  0  0  0  0  0  0
  190.0240  173.1480  136.3000 O   0  0  0  0  0  1  0  0  0  0  0  0
  192.0100  172.4440  135.3960 O   0  0  0  0  0  0  0  0  0  0  0  0
  1  4  1  1  0  0  0
  1 11  1  0  0  0  0
  3  9  1  0  0  0  0
  4  6  1  0  0  0  0
  5 26  1  6  0  0  0
  5  1  1  0  0  0  0
  6 10  1  0  0  0  0
  6  2  1  0  0  0  0
  6 13  1  0  0  0  0
  9 11  1  0  0  0  0
  9  7  1  1  0  0  0
 10  2  1  0  0  0  0
 11 14  1  0  0  0  0
 12  5  1  0  0  0  0
 12  3  2  0  0  0  0
 13 16  1  0  0  0  0
 14  8  1  0  0  0  0
 14 13  1  0  0  0  0
 15 21  1  0  0  0  0
 16 17  1  0  0  0  0
 16 15  2  0  0  0  0
 17 20  1  0  0  0  0
 20 18  2  0  0  0  0
 20 19  1  0  0  0  0
 21 19  2  0  0  0  0
 22 24  1  0  0  0  0
 22 12  1  0  0  0  0
 23 22  1  0  0  0  0
 25 22  1  0  0  0  0
 28 27  1  0  0  0  0
 29 31  1  0  0  0  0
 30 29  1  0  0  0  0
 30 28  1  0  0  0  0
 31 27  1  0  0  0  0
 31 26  1  0  0  0  0
 32 28  1  0  0  0  0
 33 32  3  0  0  0  0
 34 35  1  0  0  0  0
 34 30  1  0  0  0  0
 35 36  1  0  0  0  0
 37 35  2  0  0  0  0
M  END
>  <MODEL>
3

>  <REMARK>
 VINA RESULT:      -7.4      1.392      1.667
  Name = 
  7 active torsions:
  status: ('A' for Active; 'I' for Inactive)
    1  A    between atoms: C_3  and  C_30
    2  A    between atoms: C_5  and  C_12
    3  A    between atoms: C_6  and  C_31
    4  A    between atoms: C_11  and  C_26
    5  A    between atoms: C_13  and  C_20
    6  A    between atoms: C_20  and  C_36
    7  A    between atoms: C_26  and  C_33
                            x       y       z     vdW  Elec       q    Type
                         _______ _______ _______ _____ _____    ______ ____

>  <TORSDO>
F 7

$$$$
=
 OpenBabel10272414503D

 37 41  0  0  1  0  0  0  0  0999 V2000
  189.4520  177.2650  141.0140 C   0  0  2  0  0  3  0  0  0  0  0  0
  191.3250  179.3960  143.6460 C   0  0  0  0  0  2  0  0  0  0  0  0
  186.9690  178.3990  140.2770 C   0  0  0  0  0  3  0  0  0  0  0  0
  190.1790  178.5110  141.5580 C   0  0  0  0  0  2  0  0  0  0  0  0
  189.1090  177.3830  139.5160 C   0  0  1  0  0  3  0  0  0  0  0  0
  190.4630  178.3190  143.0330 C   0  0  0  0  0  0  0  0  0  0  0  0
  185.9470  177.6510  142.3740 C   0  0  0  0  0  1  0  0  0  0  0  0
  189.3200  175.2960  143.2810 C   0  0  0  0  0  1  0  0  0  0  0  0
  187.2600  178.0340  141.7080 C   0  0  1  0  0  3  0  0  0  0  0  0
  191.8930  177.9990  143.4000 C   0  0  0  0  0  2  0  0  0  0  0  0
  188.2360  176.9310  141.7900 N   0  0  2  0  0  0  0  0  0  0  0  0
  187.8220  178.1560  139.2660 C   0  0  0  0  0  0  0  0  0  0  0  0
  189.3120  177.7830  143.8940 C   0  0  1  0  0  3  0  0  0  0  0  0
  188.5710  176.6230  143.1970 C   0  0  2  0  0  3  0  0  0  0  0  0
  188.6340  177.9350  146.2740 C   0  0  0  0  0  3  0  0  0  0  0  0
  189.5620  177.5960  145.3690 C   0  0  0  0  0  0  0  0  0  0  0  0
  190.8900  177.0150  145.7790 C   0  0  0  0  0  2  0  0  0  0  0  0
  192.0960  176.3780  147.7390 O   0  0  0  0  0  0  0  0  0  0  0  0
  189.9810  177.2540  148.1530 N   0  0  0  0  0  0  0  0  0  0  0  0
  191.0340  176.8600  147.2670 C   0  0  0  0  0  0  0  0  0  0  0  0
  188.8670  177.7520  147.7130 C   0  0  0  0  0  3  0  0  0  0  0  0
  187.3640  178.4900  137.8640 C   0  0  0  0  0  0  0  0  0  0  0  0
  186.1230  179.1050  137.9030 F   0  0  0  0  0  0  0  0  0  0  0  0
  188.2740  179.3510  137.2800 F   0  0  0  0  0  0  0  0  0  0  0  0
  187.2550  177.3540  137.0820 F   0  0  0  0  0  0  0  0  0  0  0  0
  190.2860  177.9190  138.6960 C   0  0  0  0  0  2  0  0  0  0  0  0
  189.6020  176.0650  137.1860 C   0  0  0  0  0  2  0  0  0  0  0  0
  190.2000  174.7290  136.8020 C   0  0  1  0  0  3  0  0  0  0  0  0
  191.7240  175.9050  138.3200 C   0  0  0  0  0  2  0  0  0  0  0  0
  191.4610  174.5700  137.6400 C   0  0  2  0  0  3  0  0  0  0  0  0
  190.7640  176.8920  137.6840 C   0  0  2  0  0  3  0  0  0  0  0  0
  189.2540  173.6520  137.1010 C   0  0  0  0  0  0  0  0  0  0  0  0
  188.5060  172.8000  137.3370 N   0  0  0  0  0  0  0  0  0  0  0  0
  192.6550  174.1050  136.8010 C   0  0  0  0  0  2  0  0  0  0  0  0
  193.9780  174.3730  137.4510 C   0  0  0  0  0  0  0  0  0  0  0  0
  194.4350  173.5690  138.3020 O   0  0  0  0  0  1  0  0  0  0  0  0
  194.7130  175.4950  137.0910 O   0  0  0  0  0  0  0  0  0  0  0  0
  1  4  1  1  0  0  0
  1 11  1  0  0  0  0
  3  9  1  0  0  0  0
  4  6  1  0  0  0  0
  5 26  1  6  0  0  0
  5  1  1  0  0  0  0
  6 10  1  0  0  0  0
  6  2  1  0  0  0  0
  6 13  1  0  0  0  0
  9 11  1  0  0  0  0
  9  7  1  6  0  0  0
 10  2  1  0  0  0  0
 11 14  1  0  0  0  0
 12  5  1  0  0  0  0
 12  3  2  0  0  0  0
 13 16  1  0  0  0  0
 14  8  1  0  0  0  0
 14 13  1  0  0  0  0
 15 21  1  0  0  0  0
 16 17  1  0  0  0  0
 16 15  2  0  0  0  0
 17 20  1  0  0  0  0
 20 18  2  0  0  0  0
 20 19  1  0  0  0  0
 21 19  2  0  0  0  0
 22 23  1  0  0  0  0
 22 12  1  0  0  0  0
 24 22  1  0  0  0  0
 25 22  1  0  0  0  0
 27 31  1  0  0  0  0
 28 32  1  0  0  0  0
 28 27  1  0  0  0  0
 28 30  1  0  0  0  0
 30 29  1  0  0  0  0
 31 29  1  0  0  0  0
 31 26  1  0  0  0  0
 32 33  3  0  0  0  0
 34 35  1  0  0  0  0
 34 30  1  0  0  0  0
 35 36  1  0  0  0  0
 37 35  2  0  0  0  0
M  END
>  <MODEL>
4

>  <REMARK>
 VINA RESULT:      -6.7      1.975      2.615
  Name = 
  7 active torsions:
  status: ('A' for Active; 'I' for Inactive)
    1  A    between atoms: C_3  and  C_30
    2  A    between atoms: C_5  and  C_12
    3  A    between atoms: C_6  and  C_31
    4  A    between atoms: C_11  and  C_26
    5  A    between atoms: C_13  and  C_20
    6  A    between atoms: C_20  and  C_36
    7  A    between atoms: C_26  and  C_33
                            x       y       z     vdW  Elec       q    Type
                         _______ _______ _______ _____ _____    ______ ____

>  <TORSDO>
F 7

$$$$
=
 OpenBabel10272414503D

 37 41  0  0  1  0  0  0  0  0999 V2000
  189.2870  177.1850  138.2550 C   0  0  2  0  0  3  0  0  0  0  0  0
  187.0130  174.3720  136.8780 C   0  0  0  0  0  2  0  0  0  0  0  0
  188.9750  177.5580  141.0390 C   0  0  0  0  0  3  0  0  0  0  0  0
  188.7660  175.7420  138.1040 C   0  0  0  0  0  2  0  0  0  0  0  0
  190.5500  177.2740  139.1340 C   0  0  1  0  0  3  0  0  0  0  0  0
  187.5220  175.7460  137.2430 C   0  0  0  0  0  0  0  0  0  0  0  0
  186.8510  178.7300  140.6960 C   0  0  0  0  0  1  0  0  0  0  0  0
  187.5210  178.9100  136.5420 C   0  0  0  0  0  1  0  0  0  0  0  0
  187.8070  177.7060  140.1020 C   0  0  1  0  0  3  0  0  0  0  0  0
  187.6900  175.2500  135.8260 C   0  0  0  0  0  2  0  0  0  0  0  0
  188.2500  178.1150  138.7560 N   0  0  2  0  0  0  0  0  0  0  0  0
  190.2300  177.3110  140.6210 C   0  0  0  0  0  0  0  0  0  0  0  0
  186.4650  176.8110  137.5620 C   0  0  1  0  0  3  0  0  0  0  0  0
  187.1070  178.1910  137.8220 C   0  0  2  0  0  3  0  0  0  0  0  0
  185.2470  177.1470  135.4290 C   0  0  0  0  0  3  0  0  0  0  0  0
  185.2080  176.8310  136.7300 C   0  0  0  0  0  0  0  0  0  0  0  0
  183.9150  176.4800  137.4190 C   0  0  0  0  0  2  0  0  0  0  0  0
  181.5850  176.2390  136.9540 O   0  0  0  0  0  0  0  0  0  0  0  0
  182.8720  176.8720  135.1220 N   0  0  0  0  0  0  0  0  0  0  0  0
  182.7260  176.5190  136.5010 C   0  0  0  0  0  0  0  0  0  0  0  0
  184.0270  177.1650  134.6100 C   0  0  0  0  0  3  0  0  0  0  0  0
  191.3240  177.2790  141.6640 C   0  0  0  0  0  0  0  0  0  0  0  0
  191.1930  178.3550  142.5260 F   0  0  0  0  0  0  0  0  0  0  0  0
  191.2280  176.1060  142.3900 F   0  0  0  0  0  0  0  0  0  0  0  0
  192.5790  177.3450  141.0840 F   0  0  0  0  0  0  0  0  0  0  0  0
  191.5760  176.1940  138.7800 C   0  0  0  0  0  2  0  0  0  0  0  0
  191.7570  175.0170  136.5970 C   0  0  0  0  0  2  0  0  0  0  0  0
  192.7960  174.9680  135.4960 C   0  0  1  0  0  3  0  0  0  0  0  0
  193.5150  176.5400  137.2340 C   0  0  0  0  0  2  0  0  0  0  0  0
  193.9680  175.8100  135.9790 C   0  0  2  0  0  3  0  0  0  0  0  0
  192.0190  176.3110  137.3310 C   0  0  2  0  0  3  0  0  0  0  0  0
  193.2230  173.5850  135.2730 C   0  0  0  0  0  0  0  0  0  0  0  0
  193.5610  172.4910  135.0980 N   0  0  0  0  0  0  0  0  0  0  0  0
  194.4670  176.7750  134.8990 C   0  0  0  0  0  2  0  0  0  0  0  0
  195.7190  177.5000  135.2830 C   0  0  0  0  0  0  0  0  0  0  0  0
  195.7240  178.7560  135.3490 O   0  0  0  0  0  0  0  0  0  0  0  0
  196.8680  176.7860  135.5950 O   0  0  0  0  0  1  0  0  0  0  0  0
  1  4  1  1  0  0  0
  1 11  1  0  0  0  0
  1  5  1  0  0  0  0
  2  6  1  0  0  0  0
  5 26  1  1  0  0  0
  5 12  1  0  0  0  0
  6 13  1  0  0  0  0
  6  4  1  0  0  0  0
  8 14  1  0  0  0  0
  9  7  1  1  0  0  0
  9  3  1  0  0  0  0
 10  2  1  0  0  0  0
 10  6  1  0  0  0  0
 11  9  1  0  0  0  0
 12  3  2  0  0  0  0
 12 22  1  0  0  0  0
 13 14  1  0  0  0  0
 14 11  1  0  0  0  0
 15 16  2  0  0  0  0
 16 17  1  0  0  0  0
 16 13  1  0  0  0  0
 19 20  1  0  0  0  0
 20 18  2  0  0  0  0
 20 17  1  0  0  0  0
 21 19  2  0  0  0  0
 21 15  1  0  0  0  0
 22 24  1  0  0  0  0
 22 23  1  0  0  0  0
 25 22  1  0  0  0  0
 27 31  1  0  0  0  0
 28 30  1  0  0  0  0
 28 27  1  0  0  0  0
 29 31  1  0  0  0  0
 30 29  1  0  0  0  0
 31 26  1  0  0  0  0
 32 28  1  0  0  0  0
 33 32  3  0  0  0  0
 34 35  1  0  0  0  0
 34 30  1  0  0  0  0
 35 36  2  0  0  0  0
 35 37  1  0  0  0  0
M  END
>  <MODEL>
5

>  <REMARK>
 VINA RESULT:      -6.4      4.208      6.944
  Name = 
  7 active torsions:
  status: ('A' for Active; 'I' for Inactive)
    1  A    between atoms: C_3  and  C_30
    2  A    between atoms: C_5  and  C_12
    3  A    between atoms: C_6  and  C_31
    4  A    between atoms: C_11  and  C_26
    5  A    between atoms: C_13  and  C_20
    6  A    between atoms: C_20  and  C_36
    7  A    between atoms: C_26  and  C_33
                            x       y       z     vdW  Elec       q    Type
                         _______ _______ _______ _____ _____    ______ ____

>  <TORSDO>
F 7

$$$$
=
 OpenBabel10272414503D

 37 41  0  0  1  0  0  0  0  0999 V2000
  189.2540  176.1240  138.1890 C   0  0  2  0  0  3  0  0  0  0  0  0
  186.5820  178.7190  137.1400 C   0  0  0  0  0  2  0  0  0  0  0  0
  191.4690  176.0870  136.4330 C   0  0  0  0  0  3  0  0  0  0  0  0
  188.6940  177.5310  137.9040 C   0  0  0  0  0  2  0  0  0  0  0  0
  190.6730  176.1580  138.7890 C   0  0  1  0  0  3  0  0  0  0  0  0
  187.3100  177.4060  137.3050 C   0  0  0  0  0  0  0  0  0  0  0  0
  190.1810  174.8550  134.7520 C   0  0  0  0  0  1  0  0  0  0  0  0
  187.0660  174.1810  137.5060 C   0  0  0  0  0  1  0  0  0  0  0  0
  190.0770  175.8120  135.9310 C   0  0  1  0  0  3  0  0  0  0  0  0
  186.1540  177.7300  138.2230 C   0  0  0  0  0  2  0  0  0  0  0  0
  189.2270  175.2480  136.9960 N   0  0  2  0  0  0  0  0  0  0  0  0
  191.7570  176.2980  137.7300 C   0  0  0  0  0  0  0  0  0  0  0  0
  187.1330  176.3740  136.1840 C   0  0  1  0  0  3  0  0  0  0  0  0
  187.8430  175.0440  136.5170 C   0  0  2  0  0  3  0  0  0  0  0  0
  185.1750  177.2800  134.9620 C   0  0  0  0  0  3  0  0  0  0  0  0
  185.7680  176.2380  135.5580 C   0  0  0  0  0  0  0  0  0  0  0  0
  185.1040  174.8870  135.6300 C   0  0  0  0  0  2  0  0  0  0  0  0
  183.0990  173.7810  134.9550 O   0  0  0  0  0  0  0  0  0  0  0  0
  183.2070  176.0280  134.3590 N   0  0  0  0  0  0  0  0  0  0  0  0
  183.7550  174.8550  134.9690 C   0  0  0  0  0  0  0  0  0  0  0  0
  183.8470  177.1560  134.3460 C   0  0  0  0  0  3  0  0  0  0  0  0
  193.2110  176.4700  138.1080 C   0  0  0  0  0  0  0  0  0  0  0  0
  193.9080  177.0590  137.0660 F   0  0  0  0  0  0  0  0  0  0  0  0
  193.2990  177.2820  139.2240 F   0  0  0  0  0  0  0  0  0  0  0  0
  193.8090  175.2550  138.3900 F   0  0  0  0  0  0  0  0  0  0  0  0
  190.8030  177.2000  139.9030 C   0  0  0  0  0  2  0  0  0  0  0  0
  189.4000  176.3190  141.7580 C   0  0  0  0  0  2  0  0  0  0  0  0
  189.4880  176.3520  143.2690 C   0  0  1  0  0  3  0  0  0  0  0  0
  191.4610  177.4420  142.3070 C   0  0  0  0  0  2  0  0  0  0  0  0
  190.7090  177.1950  143.6060 C   0  0  2  0  0  3  0  0  0  0  0  0
  190.8130  176.5420  141.2730 C   0  0  2  0  0  3  0  0  0  0  0  0
  188.2800  176.9630  143.8270 C   0  0  0  0  0  0  0  0  0  0  0  0
  187.3240  177.4450  144.2700 N   0  0  0  0  0  0  0  0  0  0  0  0
  191.5920  176.5310  144.6660 C   0  0  0  0  0  2  0  0  0  0  0  0
  191.2060  176.8860  146.0690 C   0  0  0  0  0  0  0  0  0  0  0  0
  191.9610  176.5800  147.0260 O   0  0  0  0  0  1  0  0  0  0  0  0
  190.0270  177.5790  146.3100 O   0  0  0  0  0  0  0  0  0  0  0  0
  1  4  1  6  0  0  0
  1  5  1  0  0  0  0
  2  6  1  0  0  0  0
  2 10  1  0  0  0  0
  3 12  2  0  0  0  0
  5 26  1  1  0  0  0
  6  4  1  0  0  0  0
  6 10  1  0  0  0  0
  9  7  1  6  0  0  0
  9  3  1  0  0  0  0
  9 11  1  0  0  0  0
 11  1  1  0  0  0  0
 12 22  1  0  0  0  0
 12  5  1  0  0  0  0
 13 14  1  0  0  0  0
 13  6  1  0  0  0  0
 14 11  1  0  0  0  0
 14  8  1  0  0  0  0
 15 16  2  0  0  0  0
 16 17  1  0  0  0  0
 16 13  1  0  0  0  0
 18 20  2  0  0  0  0
 19 20  1  0  0  0  0
 20 17  1  0  0  0  0
 21 19  2  0  0  0  0
 21 15  1  0  0  0  0
 22 25  1  0  0  0  0
 22 24  1  0  0  0  0
 23 22  1  0  0  0  0
 26 31  1  0  0  0  0
 27 28  1  0  0  0  0
 28 30  1  0  0  0  0
 28 32  1  0  0  0  0
 29 30  1  0  0  0  0
 30 34  1  0  0  0  0
 31 27  1  0  0  0  0
 31 29  1  0  0  0  0
 32 33  3  0  0  0  0
 34 35  1  0  0  0  0
 35 37  2  0  0  0  0
 35 36  1  0  0  0  0
M  END
>  <MODEL>
6

>  <REMARK>
 VINA RESULT:      -6.2      3.889      8.778
  Name = 
  7 active torsions:
  status: ('A' for Active; 'I' for Inactive)
    1  A    between atoms: C_3  and  C_30
    2  A    between atoms: C_5  and  C_12
    3  A    between atoms: C_6  and  C_31
    4  A    between atoms: C_11  and  C_26
    5  A    between atoms: C_13  and  C_20
    6  A    between atoms: C_20  and  C_36
    7  A    between atoms: C_26  and  C_33
                            x       y       z     vdW  Elec       q    Type
                         _______ _______ _______ _____ _____    ______ ____

>  <TORSDO>
F 7

$$$$
=
 OpenBabel10272414503D

 37 41  0  0  1  0  0  0  0  0999 V2000
  185.6550  178.1330  137.7170 C   0  0  2  0  0  3  0  0  0  0  0  0
  189.1060  176.9050  138.9650 C   0  0  0  0  0  2  0  0  0  0  0  0
  183.6860  176.1070  137.8220 C   0  0  0  0  0  3  0  0  0  0  0  0
  186.6700  177.5920  138.7430 C   0  0  0  0  0  2  0  0  0  0  0  0
  184.2880  178.4630  138.3490 C   0  0  1  0  0  3  0  0  0  0  0  0
  187.9740  177.2800  138.0400 C   0  0  0  0  0  0  0  0  0  0  0  0
  184.6100  175.0340  135.8230 C   0  0  0  0  0  1  0  0  0  0  0  0
  187.1170  178.3410  135.1000 C   0  0  0  0  0  1  0  0  0  0  0  0
  184.9400  175.9280  137.0100 C   0  0  1  0  0  3  0  0  0  0  0  0
  189.1020  178.2620  138.2610 C   0  0  0  0  0  2  0  0  0  0  0  0
  185.4760  177.2270  136.5610 N   0  0  2  0  0  0  0  0  0  0  0  0
  183.3920  177.2410  138.4840 C   0  0  0  0  0  0  0  0  0  0  0  0
  187.8780  176.5080  136.7190 C   0  0  1  0  0  3  0  0  0  0  0  0
  186.7440  177.0500  135.8220 C   0  0  2  0  0  3  0  0  0  0  0  0
  189.6510  176.9740  135.0500 C   0  0  0  0  0  3  0  0  0  0  0  0
  189.1610  176.1710  136.0030 C   0  0  0  0  0  0  0  0  0  0  0  0
  189.8650  174.9000  136.4030 C   0  0  0  0  0  2  0  0  0  0  0  0
  191.8240  173.6360  135.8840 O   0  0  0  0  0  0  0  0  0  0  0  0
  191.5760  175.5830  134.6350 N   0  0  0  0  0  0  0  0  0  0  0  0
  191.1370  174.6620  135.6390 C   0  0  0  0  0  0  0  0  0  0  0  0
  190.9030  176.6550  134.3490 C   0  0  0  0  0  3  0  0  0  0  0  0
  182.0550  177.3170  139.1850 C   0  0  0  0  0  0  0  0  0  0  0  0
  181.0540  176.8380  138.3570 F   0  0  0  0  0  0  0  0  0  0  0  0
  182.0960  176.5470  140.3330 F   0  0  0  0  0  0  0  0  0  0  0  0
  181.7380  178.6190  139.5320 F   0  0  0  0  0  0  0  0  0  0  0  0
  184.4320  179.2350  139.6640 C   0  0  0  0  0  2  0  0  0  0  0  0
  183.8810  178.3480  141.9210 C   0  0  0  0  0  2  0  0  0  0  0  0
  184.6810  178.0390  143.1680 C   0  0  1  0  0  3  0  0  0  0  0  0
  186.1900  178.7970  141.3920 C   0  0  0  0  0  2  0  0  0  0  0  0
  186.1110  178.4710  142.8760 C   0  0  2  0  0  3  0  0  0  0  0  0
  184.8830  178.3200  140.7910 C   0  0  2  0  0  3  0  0  0  0  0  0
  184.1460  178.7920  144.3050 C   0  0  0  0  0  0  0  0  0  0  0  0
  183.7240  179.3870  145.2040 N   0  0  0  0  0  0  0  0  0  0  0  0
  187.1300  177.4050  143.2870 C   0  0  0  0  0  2  0  0  0  0  0  0
  187.6600  177.5940  144.6750 C   0  0  0  0  0  0  0  0  0  0  0  0
  188.8200  178.0470  144.8490 O   0  0  0  0  0  0  0  0  0  0  0  0
  186.8600  177.2960  145.7710 O   0  0  0  0  0  1  0  0  0  0  0  0
  1  5  1  0  0  0  0
  1  4  1  1  0  0  0
  3 12  2  0  0  0  0
  5 12  1  0  0  0  0
  5 26  1  1  0  0  0
  6 10  1  0  0  0  0
  6  4  1  0  0  0  0
  6  2  1  0  0  0  0
  8 14  1  0  0  0  0
  9  7  1  6  0  0  0
  9  3  1  0  0  0  0
 10  2  1  0  0  0  0
 11  9  1  0  0  0  0
 11  1  1  0  0  0  0
 12 22  1  0  0  0  0
 13  6  1  0  0  0  0
 14 11  1  0  0  0  0
 14 13  1  0  0  0  0
 15 16  2  0  0  0  0
 16 17  1  0  0  0  0
 16 13  1  0  0  0  0
 19 20  1  0  0  0  0
 20 18  2  0  0  0  0
 20 17  1  0  0  0  0
 21 19  2  0  0  0  0
 21 15  1  0  0  0  0
 22 25  1  0  0  0  0
 22 24  1  0  0  0  0
 23 22  1  0  0  0  0
 26 31  1  0  0  0  0
 27 28  1  0  0  0  0
 28 32  1  0  0  0  0
 29 30  1  0  0  0  0
 30 28  1  0  0  0  0
 30 34  1  0  0  0  0
 31 29  1  0  0  0  0
 31 27  1  0  0  0  0
 32 33  3  0  0  0  0
 34 35  1  0  0  0  0
 35 36  2  0  0  0  0
 35 37  1  0  0  0  0
M  END
>  <MODEL>
7

>  <REMARK>
 VINA RESULT:      -6.1      3.534      9.341
  Name = 
  7 active torsions:
  status: ('A' for Active; 'I' for Inactive)
    1  A    between atoms: C_3  and  C_30
    2  A    between atoms: C_5  and  C_12
    3  A    between atoms: C_6  and  C_31
    4  A    between atoms: C_11  and  C_26
    5  A    between atoms: C_13  and  C_20
    6  A    between atoms: C_20  and  C_36
    7  A    between atoms: C_26  and  C_33
                            x       y       z     vdW  Elec       q    Type
                         _______ _______ _______ _____ _____    ______ ____

>  <TORSDO>
F 7

$$$$
=
 OpenBabel10272414503D

 37 41  0  0  1  0  0  0  0  0999 V2000
  188.0220  177.5920  141.6630 C   0  0  2  0  0  3  0  0  0  0  0  0
  190.8730  179.4350  143.5230 C   0  0  0  0  0  2  0  0  0  0  0  0
  185.5110  178.8340  142.0380 C   0  0  0  0  0  3  0  0  0  0  0  0
  188.9670  178.7690  141.9800 C   0  0  0  0  0  2  0  0  0  0  0  0
  187.1370  177.8550  140.4300 C   0  0  1  0  0  3  0  0  0  0  0  0
  189.7850  178.4360  143.2090 C   0  0  0  0  0  0  0  0  0  0  0  0
  185.3350  177.9130  144.3010 C   0  0  0  0  0  1  0  0  0  0  0  0
  188.6690  175.4240  143.6410 C   0  0  0  0  0  1  0  0  0  0  0  0
  186.3100  178.3320  143.2110 C   0  0  1  0  0  3  0  0  0  0  0  0
  191.2280  178.0570  142.9670 C   0  0  0  0  0  2  0  0  0  0  0  0
  187.1830  177.2090  142.8210 N   0  0  2  0  0  0  0  0  0  0  0  0
  185.8950  178.6710  140.7590 C   0  0  0  0  0  0  0  0  0  0  0  0
  189.0280  177.8430  144.4030 C   0  0  1  0  0  3  0  0  0  0  0  0
  188.0150  176.7660  143.9590 C   0  0  2  0  0  3  0  0  0  0  0  0
  189.4650  178.0180  146.8380 C   0  0  0  0  0  3  0  0  0  0  0  0
  189.8150  177.5150  145.6470 C   0  0  0  0  0  0  0  0  0  0  0  0
  191.0040  176.6020  145.4940 C   0  0  0  0  0  2  0  0  0  0  0  0
  192.7190  175.5760  146.8010 O   0  0  0  0  0  0  0  0  0  0  0  0
  191.2580  176.9200  148.0150 N   0  0  0  0  0  0  0  0  0  0  0  0
  191.7120  176.3300  146.7920 C   0  0  0  0  0  0  0  0  0  0  0  0
  190.2230  177.7010  148.0560 C   0  0  0  0  0  3  0  0  0  0  0  0
  184.9520  179.1420  139.6760 C   0  0  0  0  0  0  0  0  0  0  0  0
  184.6190  178.0880  138.8420 F   0  0  0  0  0  0  0  0  0  0  0  0
  183.7990  179.6360  140.2590 F   0  0  0  0  0  0  0  0  0  0  0  0
  185.5240  180.1360  138.9030 F   0  0  0  0  0  0  0  0  0  0  0  0
  187.9350  178.4440  139.2630 C   0  0  0  0  0  2  0  0  0  0  0  0
  188.9950  176.5740  138.0130 C   0  0  0  0  0  2  0  0  0  0  0  0
  189.2330  176.2710  136.5480 C   0  0  1  0  0  3  0  0  0  0  0  0
  187.9830  178.3690  136.7610 C   0  0  0  0  0  2  0  0  0  0  0  0
  188.7290  177.4820  135.7750 C   0  0  2  0  0  3  0  0  0  0  0  0
  187.8470  177.5560  138.0330 C   0  0  2  0  0  3  0  0  0  0  0  0
  190.6630  176.0730  136.3040 C   0  0  0  0  0  0  0  0  0  0  0  0
  191.7930  175.9160  136.1100 N   0  0  0  0  0  0  0  0  0  0  0  0
  187.8540  177.0810  134.5840 C   0  0  0  0  0  2  0  0  0  0  0  0
  186.5490  176.4660  134.9860 C   0  0  0  0  0  0  0  0  0  0  0  0
  185.4720  177.0770  134.7650 O   0  0  0  0  0  0  0  0  0  0  0  0
  186.5250  175.2090  135.5760 O   0  0  0  0  0  1  0  0  0  0  0  0
  1  4  1  1  0  0  0
  1 11  1  0  0  0  0
  3  9  1  0  0  0  0
  4  6  1  0  0  0  0
  5 26  1  6  0  0  0
  5 12  1  0  0  0  0
  5  1  1  0  0  0  0
  6  2  1  0  0  0  0
  6 13  1  0  0  0  0
  8 14  1  0  0  0  0
  9  7  1  1  0  0  0
 10  6  1  0  0  0  0
 10  2  1  0  0  0  0
 11  9  1  0  0  0  0
 11 14  1  0  0  0  0
 12  3  2  0  0  0  0
 13 16  1  0  0  0  0
 14 13  1  0  0  0  0
 15 21  1  0  0  0  0
 16 15  2  0  0  0  0
 17 16  1  0  0  0  0
 17 20  1  0  0  0  0
 19 21  2  0  0  0  0
 20 18  2  0  0  0  0
 20 19  1  0  0  0  0
 22 24  1  0  0  0  0
 22 12  1  0  0  0  0
 23 22  1  0  0  0  0
 25 22  1  0  0  0  0
 27 31  1  0  0  0  0
 28 27  1  0  0  0  0
 29 31  1  0  0  0  0
 30 28  1  0  0  0  0
 30 29  1  0  0  0  0
 31 26  1  0  0  0  0
 32 28  1  0  0  0  0
 33 32  3  0  0  0  0
 34 35  1  0  0  0  0
 34 30  1  0  0  0  0
 35 37  1  0  0  0  0
 36 35  2  0  0  0  0
M  END
>  <MODEL>
8

>  <REMARK>
 VINA RESULT:      -5.9      2.993      3.951
  Name = 
  7 active torsions:
  status: ('A' for Active; 'I' for Inactive)
    1  A    between atoms: C_3  and  C_30
    2  A    between atoms: C_5  and  C_12
    3  A    between atoms: C_6  and  C_31
    4  A    between atoms: C_11  and  C_26
    5  A    between atoms: C_13  and  C_20
    6  A    between atoms: C_20  and  C_36
    7  A    between atoms: C_26  and  C_33
                            x       y       z     vdW  Elec       q    Type
                         _______ _______ _______ _____ _____    ______ ____

>  <TORSDO>
F 7

$$$$
=
 OpenBabel10272414503D

 37 41  0  0  1  0  0  0  0  0999 V2000
  189.2060  177.8840  140.8490 C   0  0  2  0  0  3  0  0  0  0  0  0
  188.1710  175.4420  143.6670 C   0  0  0  0  0  2  0  0  0  0  0  0
  191.2410  176.8250  139.1970 C   0  0  0  0  0  3  0  0  0  0  0  0
  188.6240  176.5870  141.4450 C   0  0  0  0  0  2  0  0  0  0  0  0
  189.0340  177.9680  139.3200 C   0  0  1  0  0  3  0  0  0  0  0  0
  188.8490  176.5790  142.9410 C   0  0  0  0  0  0  0  0  0  0  0  0
  192.9340  177.2640  140.9130 C   0  0  0  0  0  1  0  0  0  0  0  0
  190.1870  179.5220  143.1700 C   0  0  0  0  0  1  0  0  0  0  0  0
  191.4550  176.9950  140.6770 C   0  0  1  0  0  3  0  0  0  0  0  0
  187.6380  176.8680  143.7980 C   0  0  0  0  0  2  0  0  0  0  0  0
  190.6260  178.0910  141.2140 N   0  0  2  0  0  0  0  0  0  0  0  0
  190.1210  177.2170  138.5640 C   0  0  0  0  0  0  0  0  0  0  0  0
  190.2470  176.9750  143.4320 C   0  0  1  0  0  3  0  0  0  0  0  0
  190.7880  178.2090  142.6790 C   0  0  2  0  0  3  0  0  0  0  0  0
  189.7080  177.6320  145.7610 C   0  0  0  0  0  3  0  0  0  0  0  0
  190.5040  176.9620  144.9180 C   0  0  0  0  0  0  0  0  0  0  0  0
  191.6870  176.1690  145.4100 C   0  0  0  0  0  2  0  0  0  0  0  0
  192.7970  175.5840  147.4420 O   0  0  0  0  0  0  0  0  0  0  0  0
  190.9420  176.9610  147.7200 N   0  0  0  0  0  0  0  0  0  0  0  0
  191.8490  176.2130  146.9030 C   0  0  0  0  0  0  0  0  0  0  0  0
  189.9490  177.6220  147.2110 C   0  0  0  0  0  3  0  0  0  0  0  0
  190.0760  177.0710  137.0590 C   0  0  0  0  0  0  0  0  0  0  0  0
  189.6500  178.2540  136.4780 F   0  0  0  0  0  0  0  0  0  0  0  0
  191.3430  176.7710  136.5930 F   0  0  0  0  0  0  0  0  0  0  0  0
  189.2070  176.0660  136.6730 F   0  0  0  0  0  0  0  0  0  0  0  0
  187.6250  177.5660  138.8760 C   0  0  0  0  0  2  0  0  0  0  0  0
  186.3610  178.7540  140.6590 C   0  0  0  0  0  2  0  0  0  0  0  0
  184.9540  179.2960  140.7850 C   0  0  1  0  0  3  0  0  0  0  0  0
  185.2760  178.3660  138.5410 C   0  0  0  0  0  2  0  0  0  0  0  0
  184.2310  178.9100  139.5030 C   0  0  2  0  0  3  0  0  0  0  0  0
  186.6200  178.6680  139.1730 C   0  0  2  0  0  3  0  0  0  0  0  0
  184.2880  178.6960  141.9440 C   0  0  0  0  0  0  0  0  0  0  0  0
  183.7620  178.2230  142.8600 N   0  0  0  0  0  0  0  0  0  0  0  0
  183.4520  180.0840  138.9040 C   0  0  0  0  0  2  0  0  0  0  0  0
  181.9670  179.8890  138.9320 C   0  0  0  0  0  0  0  0  0  0  0  0
  181.2800  180.1450  137.9110 O   0  0  0  0  0  0  0  0  0  0  0  0
  181.3530  179.3960  140.0760 O   0  0  0  0  0  1  0  0  0  0  0  0
  1 11  1  0  0  0  0
  1  4  1  6  0  0  0
  2 10  1  0  0  0  0
  3  9  1  0  0  0  0
  4  6  1  0  0  0  0
  5 26  1  1  0  0  0
  5  1  1  0  0  0  0
  6 13  1  0  0  0  0
  6  2  1  0  0  0  0
  6 10  1  0  0  0  0
  9  7  1  6  0  0  0
  9 11  1  0  0  0  0
 11 14  1  0  0  0  0
 12  3  2  0  0  0  0
 12  5  1  0  0  0  0
 13 16  1  0  0  0  0
 14  8  1  0  0  0  0
 14 13  1  0  0  0  0
 15 21  1  0  0  0  0
 16 17  1  0  0  0  0
 16 15  2  0  0  0  0
 17 20  1  0  0  0  0
 20 18  2  0  0  0  0
 20 19  1  0  0  0  0
 21 19  2  0  0  0  0
 22 12  1  0  0  0  0
 23 22  1  0  0  0  0
 24 22  1  0  0  0  0
 25 22  1  0  0  0  0
 26 31  1  0  0  0  0
 27 28  1  0  0  0  0
 28 32  1  0  0  0  0
 29 31  1  0  0  0  0
 29 30  1  0  0  0  0
 30 28  1  0  0  0  0
 31 27  1  0  0  0  0
 32 33  3  0  0  0  0
 34 35  1  0  0  0  0
 34 30  1  0  0  0  0
 35 37  1  0  0  0  0
 36 35  2  0  0  0  0
M  END
>  <MODEL>
9

>  <REMARK>
 VINA RESULT:      -5.9      3.940      6.833
  Name = 
  7 active torsions:
  status: ('A' for Active; 'I' for Inactive)
    1  A    between atoms: C_3  and  C_30
    2  A    between atoms: C_5  and  C_12
    3  A    between atoms: C_6  and  C_31
    4  A    between atoms: C_11  and  C_26
    5  A    between atoms: C_13  and  C_20
    6  A    between atoms: C_20  and  C_36
    7  A    between atoms: C_26  and  C_33
                            x       y       z     vdW  Elec       q    Type
                         _______ _______ _______ _____ _____    ______ ____

>  <TORSDO>
F 7

$$$$
