=
 OpenBabel10272400433D

 25 27  0  0  1  0  0  0  0  0999 V2000
  187.3540  177.7500  145.9450 N   0  0  0  0  0  0  0  0  0  0  0  0
  188.7700  177.7360  145.5420 C   0  0  2  0  0  3  0  0  0  0  0  0
  187.9000  177.3170  148.2070 C   0  0  0  0  0  3  0  0  0  0  0  0
  189.2460  177.0110  147.8320 N   0  0  0  0  0  0  0  0  0  0  0  0
  191.0160  176.7170  146.2160 C   0  0  0  0  0  0  0  0  0  0  0  0
  192.1020  176.5570  147.2240 C   0  0  0  0  0  1  0  0  0  0  0  0
  188.9930  177.0370  144.2220 C   0  0  0  0  0  3  0  0  0  0  0  0
  187.0220  177.6500  147.3110 N   0  0  0  0  0  0  0  0  0  0  0  0
  191.2510  176.4020  144.9380 C   0  0  0  0  0  3  0  0  0  0  0  0
  190.1740  176.4800  143.9240 C   0  0  0  0  0  0  0  0  0  0  0  0
  189.6610  177.1480  146.6100 C   0  0  0  0  0  0  0  0  0  0  0  0
  186.3310  178.1850  145.0250 C   0  0  0  0  0  0  0  0  0  0  0  0
  184.3670  179.0390  143.2050 C   0  0  0  0  0  3  0  0  0  0  0  0
  185.3040  179.0570  145.4410 C   0  0  0  0  0  0  0  0  0  0  0  0
  184.3310  179.4790  144.5290 C   0  0  0  0  0  3  0  0  0  0  0  0
  185.3770  178.1730  142.7850 C   0  0  0  0  0  3  0  0  0  0  0  0
  185.2290  179.4950  146.7580 O   0  0  0  0  0  1  0  0  0  0  0  0
  186.3540  177.7490  143.6890 C   0  0  0  0  0  3  0  0  0  0  0  0
  190.3960  175.8970  142.5700 C   0  0  0  0  0  2  0  0  0  0  0  0
  190.6580  176.9780  141.5730 C   0  0  0  0  0  0  0  0  0  0  0  0
  191.5850  177.7550  141.7490 O   0  0  0  0  0  0  0  0  0  0  0  0
  189.7660  177.1130  140.3750 C   0  0  2  0  0  3  0  0  0  0  0  0
  190.4910  177.5720  139.2740 O   0  0  0  0  0  1  0  0  0  0  0  0
  188.1910  178.7040  139.4940 O   0  0  0  0  0  1  0  0  0  0  0  0
  188.5730  178.0210  140.6510 C   0  0  0  0  0  2  0  0  0  0  0  0
  1  8  1  0  0  0  0
  2  7  1  6  0  0  0
  2  1  1  0  0  0  0
  2 11  1  0  0  0  0
  4  3  1  0  0  0  0
  5 11  1  0  0  0  0
  5  6  1  0  0  0  0
  8  3  2  0  0  0  0
  9  5  2  0  0  0  0
 10  7  2  0  0  0  0
 10  9  1  0  0  0  0
 11  4  2  0  0  0  0
 12 14  1  0  0  0  0
 12  1  1  0  0  0  0
 13 15  1  0  0  0  0
 14 17  1  0  0  0  0
 15 14  2  0  0  0  0
 16 13  2  0  0  0  0
 16 18  1  0  0  0  0
 18 12  2  0  0  0  0
 19 10  1  0  0  0  0
 20 21  2  0  0  0  0
 20 19  1  0  0  0  0
 22 23  1  6  0  0  0
 22 25  1  0  0  0  0
 22 20  1  0  0  0  0
 24 25  1  0  0  0  0
M  END
>  <MODEL>
1

>  <REMARK>
 VINA RESULT:      -9.0      0.000      0.000
  Name = 
  5 active torsions:
  status: ('A' for Active; 'I' for Inactive)
    1  A    between atoms: N_1  and  C_5
    2  A    between atoms: C_2  and  C_15
    3  A    between atoms: C_2  and  C_21
    4  A    between atoms: C_6  and  C_15
    5  A    between atoms: C_6  and  C_23
                            x       y       z     vdW  Elec       q    Type
                         _______ _______ _______ _____ _____    ______ ____

>  <TORSDO>
F 5

$$$$
=
 OpenBabel10272400433D

 25 27  0  0  1  0  0  0  0  0999 V2000
  188.6740  177.9110  141.4150 N   0  0  0  0  0  0  0  0  0  0  0  0
  187.4100  178.6650  141.4830 C   0  0  0  0  0  0  0  0  0  0  0  0
  188.5240  177.6970  139.0620 C   0  0  0  0  0  3  0  0  0  0  0  0
  187.1730  178.1640  139.0970 N   0  0  0  0  0  0  0  0  0  0  0  0
  185.1910  178.9340  140.2410 C   0  0  1  0  0  3  0  0  0  0  0  0
  184.4500  179.3080  139.0030 C   0  0  0  0  0  1  0  0  0  0  0  0
  186.5570  178.2640  142.6620 C   0  0  0  0  0  3  0  0  0  0  0  0
  189.2100  177.5720  140.1560 N   0  0  0  0  0  0  0  0  0  0  0  0
  184.5380  178.8650  141.4050 C   0  0  0  0  0  3  0  0  0  0  0  0
  185.2270  178.4260  142.6410 C   0  0  0  0  0  0  0  0  0  0  0  0
  186.6200  178.5690  140.1990 C   0  0  0  0  0  0  0  0  0  0  0  0
  189.5260  177.7990  142.5720 C   0  0  0  0  0  0  0  0  0  0  0  0
  191.2190  177.5960  144.8080 C   0  0  0  0  0  3  0  0  0  0  0  0
  189.5760  176.6060  143.3240 C   0  0  0  0  0  0  0  0  0  0  0  0
  190.4220  176.5120  144.4340 C   0  0  0  0  0  3  0  0  0  0  0  0
  191.1740  178.7810  144.0730 C   0  0  0  0  0  3  0  0  0  0  0  0
  188.7790  175.5180  142.9900 O   0  0  0  0  0  1  0  0  0  0  0  0
  190.3330  178.8810  142.9610 C   0  0  0  0  0  3  0  0  0  0  0  0
  184.4260  178.1250  143.8620 C   0  0  0  0  0  2  0  0  0  0  0  0
  184.8010  179.0520  144.9730 C   0  0  0  0  0  0  0  0  0  0  0  0
  184.7300  180.2600  144.8060 O   0  0  0  0  0  0  0  0  0  0  0  0
  185.2820  178.4880  146.2760 C   0  0  2  0  0  3  0  0  0  0  0  0
  185.6650  179.5140  147.1420 O   0  0  0  0  0  1  0  0  0  0  0  0
  187.6580  178.1460  146.1060 O   0  0  0  0  0  1  0  0  0  0  0  0
  186.4230  177.4950  146.0820 C   0  0  0  0  0  2  0  0  0  0  0  0
  1  2  1  0  0  0  0
  1 12  1  0  0  0  0
  2  7  2  0  0  0  0
  3  4  1  0  0  0  0
  3  8  2  0  0  0  0
  4 11  2  0  0  0  0
  5  6  1  6  0  0  0
  5  9  1  0  0  0  0
  8  1  1  0  0  0  0
  9 10  2  0  0  0  0
 10  7  1  0  0  0  0
 10 19  1  0  0  0  0
 11  5  1  0  0  0  0
 11  2  1  0  0  0  0
 12 18  2  0  0  0  0
 12 14  1  0  0  0  0
 14 15  2  0  0  0  0
 15 13  1  0  0  0  0
 16 13  2  0  0  0  0
 17 14  1  0  0  0  0
 18 16  1  0  0  0  0
 19 20  1  0  0  0  0
 20 22  1  0  0  0  0
 21 20  2  0  0  0  0
 22 23  1  1  0  0  0
 25 24  1  0  0  0  0
 25 22  1  0  0  0  0
M  END
>  <MODEL>
2

>  <REMARK>
 VINA RESULT:      -8.6      2.883      7.059
  Name = 
  5 active torsions:
  status: ('A' for Active; 'I' for Inactive)
    1  A    between atoms: N_1  and  C_5
    2  A    between atoms: C_2  and  C_15
    3  A    between atoms: C_2  and  C_21
    4  A    between atoms: C_6  and  C_15
    5  A    between atoms: C_6  and  C_23
                            x       y       z     vdW  Elec       q    Type
                         _______ _______ _______ _____ _____    ______ ____

>  <TORSDO>
F 5

$$$$
=
 OpenBabel10272400433D

 25 27  0  0  1  0  0  0  0  0999 V2000
  187.0010  178.1660  142.7170 N   0  0  0  0  0  0  0  0  0  0  0  0
  188.2710  177.4300  142.5980 C   0  0  0  0  0  0  0  0  0  0  0  0
  186.8630  178.4870  140.3760 C   0  0  0  0  0  3  0  0  0  0  0  0
  188.2140  178.0400  140.2270 N   0  0  0  0  0  0  0  0  0  0  0  0
  190.3270  177.2490  141.0880 C   0  0  1  0  0  3  0  0  0  0  0  0
  190.9160  176.9410  139.7540 C   0  0  0  0  0  1  0  0  0  0  0  0
  189.2570  177.7900  143.6840 C   0  0  0  0  0  3  0  0  0  0  0  0
  186.3130  178.5530  141.5490 N   0  0  0  0  0  0  0  0  0  0  0  0
  191.1150  177.2760  142.1670 C   0  0  0  0  0  3  0  0  0  0  0  0
  190.5760  177.6500  143.4960 C   0  0  0  0  0  0  0  0  0  0  0  0
  188.9000  177.5940  141.2350 C   0  0  0  0  0  0  0  0  0  0  0  0
  186.2940  178.2140  143.9730 C   0  0  0  0  0  0  0  0  0  0  0  0
  184.9210  178.2680  146.4250 C   0  0  0  0  0  3  0  0  0  0  0  0
  185.0580  178.8850  144.0850 C   0  0  0  0  0  0  0  0  0  0  0  0
  184.3800  178.9060  145.3080 C   0  0  0  0  0  3  0  0  0  0  0  0
  186.1440  177.6050  146.3260 C   0  0  0  0  0  3  0  0  0  0  0  0
  184.5050  179.5480  142.9960 O   0  0  0  0  0  1  0  0  0  0  0  0
  186.8260  177.5780  145.1070 C   0  0  0  0  0  3  0  0  0  0  0  0
  191.5150  177.9070  144.6240 C   0  0  0  0  0  2  0  0  0  0  0  0
  191.6180  176.7030  145.5030 C   0  0  0  0  0  0  0  0  0  0  0  0
  191.9310  175.6250  145.0210 O   0  0  0  0  0  0  0  0  0  0  0  0
  191.3130  176.8270  146.9660 C   0  0  2  0  0  3  0  0  0  0  0  0
  191.9820  175.8370  147.6900 O   0  0  0  0  0  1  0  0  0  0  0  0
  189.4040  177.9070  147.9550 O   0  0  0  0  0  1  0  0  0  0  0  0
  189.8150  176.7770  147.2440 C   0  0  0  0  0  2  0  0  0  0  0  0
  1 12  1  0  0  0  0
  2  1  1  0  0  0  0
  2  7  2  0  0  0  0
  3  8  2  0  0  0  0
  4  3  1  0  0  0  0
  4 11  2  0  0  0  0
  5  6  1  6  0  0  0
  5 11  1  0  0  0  0
  5  9  1  0  0  0  0
  8  1  1  0  0  0  0
  9 10  2  0  0  0  0
 10  7  1  0  0  0  0
 10 19  1  0  0  0  0
 11  2  1  0  0  0  0
 12 14  2  0  0  0  0
 12 18  1  0  0  0  0
 14 15  1  0  0  0  0
 15 13  2  0  0  0  0
 16 13  1  0  0  0  0
 17 14  1  0  0  0  0
 18 16  2  0  0  0  0
 19 20  1  0  0  0  0
 20 22  1  0  0  0  0
 21 20  2  0  0  0  0
 22 25  1  0  0  0  0
 22 23  1  1  0  0  0
 25 24  1  0  0  0  0
M  END
>  <MODEL>
3

>  <REMARK>
 VINA RESULT:      -8.6      2.718      5.029
  Name = 
  5 active torsions:
  status: ('A' for Active; 'I' for Inactive)
    1  A    between atoms: N_1  and  C_5
    2  A    between atoms: C_2  and  C_15
    3  A    between atoms: C_2  and  C_21
    4  A    between atoms: C_6  and  C_15
    5  A    between atoms: C_6  and  C_23
                            x       y       z     vdW  Elec       q    Type
                         _______ _______ _______ _____ _____    ______ ____

>  <TORSDO>
F 5

$$$$
=
 OpenBabel10272400433D

 25 27  0  0  1  0  0  0  0  0999 V2000
  187.6740  178.2020  141.0500 N   0  0  0  0  0  0  0  0  0  0  0  0
  188.9380  177.4880  141.2960 C   0  0  0  0  0  0  0  0  0  0  0  0
  188.1040  178.3500  138.7270 C   0  0  0  0  0  3  0  0  0  0  0  0
  189.4520  177.9240  138.9420 N   0  0  0  0  0  0  0  0  0  0  0  0
  191.2980  177.2450  140.3430 C   0  0  1  0  0  3  0  0  0  0  0  0
  192.1940  176.8560  139.2170 C   0  0  0  0  0  1  0  0  0  0  0  0
  189.6310  177.9480  142.5560 C   0  0  0  0  0  3  0  0  0  0  0  0
  187.2860  178.4870  139.7260 N   0  0  0  0  0  0  0  0  0  0  0  0
  191.8030  177.3690  141.5740 C   0  0  0  0  0  3  0  0  0  0  0  0
  190.9570  177.8240  142.7020 C   0  0  0  0  0  0  0  0  0  0  0  0
  189.8760  177.5680  140.1160 C   0  0  0  0  0  0  0  0  0  0  0  0
  186.6840  178.3240  142.0920 C   0  0  0  0  0  0  0  0  0  0  0  0
  184.7570  178.5220  144.1300 C   0  0  0  0  0  3  0  0  0  0  0  0
  185.4850  179.0350  141.8750 C   0  0  0  0  0  0  0  0  0  0  0  0
  184.5300  179.1280  142.8920 C   0  0  0  0  0  3  0  0  0  0  0  0
  185.9410  177.8200  144.3560 C   0  0  0  0  0  3  0  0  0  0  0  0
  185.2400  179.6670  140.6610 O   0  0  0  0  0  1  0  0  0  0  0  0
  186.8980  177.7210  143.3430 C   0  0  0  0  0  3  0  0  0  0  0  0
  191.5950  178.1840  144.0000 C   0  0  0  0  0  2  0  0  0  0  0  0
  191.5390  177.0290  144.9470 C   0  0  0  0  0  0  0  0  0  0  0  0
  191.7540  175.8980  144.5370 O   0  0  0  0  0  0  0  0  0  0  0  0
  191.1990  177.2680  146.3870 C   0  0  2  0  0  3  0  0  0  0  0  0
  192.0710  176.5640  147.2200 O   0  0  0  0  0  1  0  0  0  0  0  0
  188.8840  177.9150  146.2680 O   0  0  0  0  0  1  0  0  0  0  0  0
  189.7510  176.9080  146.6990 C   0  0  0  0  0  2  0  0  0  0  0  0
  1  2  1  0  0  0  0
  1 12  1  0  0  0  0
  2  7  2  0  0  0  0
  3  4  1  0  0  0  0
  3  8  2  0  0  0  0
  4 11  2  0  0  0  0
  5  6  1  6  0  0  0
  5  9  1  0  0  0  0
  7 10  1  0  0  0  0
  8  1  1  0  0  0  0
  9 10  2  0  0  0  0
 10 19  1  0  0  0  0
 11  5  1  0  0  0  0
 11  2  1  0  0  0  0
 12 18  1  0  0  0  0
 13 16  1  0  0  0  0
 14 12  2  0  0  0  0
 14 15  1  0  0  0  0
 15 13  2  0  0  0  0
 17 14  1  0  0  0  0
 18 16  2  0  0  0  0
 19 20  1  0  0  0  0
 20 22  1  0  0  0  0
 21 20  2  0  0  0  0
 22 25  1  0  0  0  0
 22 23  1  1  0  0  0
 24 25  1  0  0  0  0
M  END
>  <MODEL>
4

>  <REMARK>
 VINA RESULT:      -8.6      2.961      5.377
  Name = 
  5 active torsions:
  status: ('A' for Active; 'I' for Inactive)
    1  A    between atoms: N_1  and  C_5
    2  A    between atoms: C_2  and  C_15
    3  A    between atoms: C_2  and  C_21
    4  A    between atoms: C_6  and  C_15
    5  A    between atoms: C_6  and  C_23
                            x       y       z     vdW  Elec       q    Type
                         _______ _______ _______ _____ _____    ______ ____

>  <TORSDO>
F 5

$$$$
=
 OpenBabel10272400433D

 25 27  0  0  1  0  0  0  0  0999 V2000
  183.8960  178.4220  142.6140 N   0  0  0  0  0  0  0  0  0  0  0  0
  185.1330  178.6570  143.3790 C   0  0  2  0  0  3  0  0  0  0  0  0
  182.5350  178.9940  144.4650 C   0  0  0  0  0  3  0  0  0  0  0  0
  183.6770  178.9590  145.3260 N   0  0  0  0  0  0  0  0  0  0  0  0
  186.0240  178.6080  145.7750 C   0  0  0  0  0  0  0  0  0  0  0  0
  185.9790  179.1250  147.1720 C   0  0  0  0  0  1  0  0  0  0  0  0
  186.1960  177.6230  143.0960 C   0  0  0  0  0  3  0  0  0  0  0  0
  182.6510  178.7290  143.2000 N   0  0  0  0  0  0  0  0  0  0  0  0
  187.1000  177.9360  145.3550 C   0  0  0  0  0  3  0  0  0  0  0  0
  187.1490  177.3450  143.9970 C   0  0  0  0  0  0  0  0  0  0  0  0
  184.8740  178.7600  144.8630 C   0  0  0  0  0  0  0  0  0  0  0  0
  183.9430  178.1990  141.1900 C   0  0  0  0  0  0  0  0  0  0  0  0
  184.0330  177.7240  138.4210 C   0  0  0  0  0  3  0  0  0  0  0  0
  184.8550  178.9010  140.3750 C   0  0  0  0  0  0  0  0  0  0  0  0
  184.8960  178.6570  138.9980 C   0  0  0  0  0  3  0  0  0  0  0  0
  183.1230  177.0290  139.2180 C   0  0  0  0  0  3  0  0  0  0  0  0
  185.7120  179.8510  140.9170 O   0  0  0  0  0  1  0  0  0  0  0  0
  183.0790  177.2640  140.5950 C   0  0  0  0  0  3  0  0  0  0  0  0
  188.2480  176.4030  143.6440 C   0  0  0  0  0  2  0  0  0  0  0  0
  189.4700  177.1580  143.2320 C   0  0  0  0  0  0  0  0  0  0  0  0
  189.4120  177.9420  142.2970 O   0  0  0  0  0  0  0  0  0  0  0  0
  190.7620  176.9280  143.9570 C   0  0  2  0  0  3  0  0  0  0  0  0
  191.2940  175.6810  143.6260 O   0  0  0  0  0  1  0  0  0  0  0  0
  191.8410  177.0030  146.1070 O   0  0  0  0  0  1  0  0  0  0  0  0
  190.6000  177.0600  145.4670 C   0  0  0  0  0  2  0  0  0  0  0  0
  1  8  1  0  0  0  0
  1  2  1  0  0  0  0
  2  7  1  1  0  0  0
  2 11  1  0  0  0  0
  3  4  1  0  0  0  0
  5  6  1  0  0  0  0
  7 10  2  0  0  0  0
  8  3  2  0  0  0  0
  9  5  2  0  0  0  0
 10  9  1  0  0  0  0
 11  4  2  0  0  0  0
 11  5  1  0  0  0  0
 12  1  1  0  0  0  0
 13 15  2  0  0  0  0
 13 16  1  0  0  0  0
 14 17  1  0  0  0  0
 14 12  2  0  0  0  0
 15 14  1  0  0  0  0
 16 18  2  0  0  0  0
 18 12  1  0  0  0  0
 19 10  1  0  0  0  0
 20 19  1  0  0  0  0
 20 22  1  0  0  0  0
 21 20  2  0  0  0  0
 22 23  1  1  0  0  0
 22 25  1  0  0  0  0
 25 24  1  0  0  0  0
M  END
>  <MODEL>
5

>  <REMARK>
 VINA RESULT:      -8.5      2.854      4.995
  Name = 
  5 active torsions:
  status: ('A' for Active; 'I' for Inactive)
    1  A    between atoms: N_1  and  C_5
    2  A    between atoms: C_2  and  C_15
    3  A    between atoms: C_2  and  C_21
    4  A    between atoms: C_6  and  C_15
    5  A    between atoms: C_6  and  C_23
                            x       y       z     vdW  Elec       q    Type
                         _______ _______ _______ _____ _____    ______ ____

>  <TORSDO>
F 5

$$$$
=
 OpenBabel10272400433D

 25 27  0  0  1  0  0  0  0  0999 V2000
  189.7180  178.0120  142.8450 N   0  0  0  0  0  0  0  0  0  0  0  0
  189.1600  177.3240  144.0210 C   0  0  2  0  0  3  0  0  0  0  0  0
  191.6620  178.6580  144.0310 C   0  0  0  0  0  3  0  0  0  0  0  0
  191.0510  178.2620  145.2630 N   0  0  0  0  0  0  0  0  0  0  0  0
  189.2190  177.3980  146.5770 C   0  0  0  0  0  0  0  0  0  0  0  0
  189.9930  177.2940  147.8460 C   0  0  0  0  0  1  0  0  0  0  0  0
  187.6740  177.5470  144.1750 C   0  0  0  0  0  3  0  0  0  0  0  0
  191.0210  178.5470  142.9090 N   0  0  0  0  0  0  0  0  0  0  0  0
  187.8870  177.2880  146.6050 C   0  0  0  0  0  3  0  0  0  0  0  0
  187.0810  177.4590  145.3730 C   0  0  0  0  0  0  0  0  0  0  0  0
  189.8860  177.6920  145.2940 C   0  0  0  0  0  0  0  0  0  0  0  0
  189.1030  177.8690  141.5480 C   0  0  0  0  0  0  0  0  0  0  0  0
  187.8680  177.5840  139.0390 C   0  0  0  0  0  3  0  0  0  0  0  0
  189.6720  177.0360  140.5620 C   0  0  0  0  0  0  0  0  0  0  0  0
  189.0510  176.8970  139.3170 C   0  0  0  0  0  3  0  0  0  0  0  0
  187.2990  178.4130  140.0060 C   0  0  0  0  0  3  0  0  0  0  0  0
  190.8610  176.3570  140.8020 O   0  0  0  0  0  1  0  0  0  0  0  0
  187.9120  178.5540  141.2530 C   0  0  0  0  0  3  0  0  0  0  0  0
  185.5990  177.5730  145.4750 C   0  0  0  0  0  2  0  0  0  0  0  0
  185.1830  179.0080  145.4680 C   0  0  0  0  0  0  0  0  0  0  0  0
  185.6070  179.7660  146.3280 O   0  0  0  0  0  0  0  0  0  0  0  0
  184.2320  179.4990  144.4190 C   0  0  2  0  0  3  0  0  0  0  0  0
  183.0200  178.8100  144.4950 O   0  0  0  0  0  1  0  0  0  0  0  0
  184.3720  178.2390  142.3730 O   0  0  0  0  0  1  0  0  0  0  0  0
  184.8240  179.3930  143.0170 C   0  0  0  0  0  2  0  0  0  0  0  0
  1  8  1  0  0  0  0
  1  2  1  0  0  0  0
  2  7  1  1  0  0  0
  2 11  1  0  0  0  0
  3  4  1  0  0  0  0
  4 11  2  0  0  0  0
  5  9  2  0  0  0  0
  5  6  1  0  0  0  0
  7 10  2  0  0  0  0
  8  3  2  0  0  0  0
 10 19  1  0  0  0  0
 10  9  1  0  0  0  0
 11  5  1  0  0  0  0
 12  1  1  0  0  0  0
 13 15  2  0  0  0  0
 13 16  1  0  0  0  0
 14 17  1  0  0  0  0
 14 12  2  0  0  0  0
 15 14  1  0  0  0  0
 16 18  2  0  0  0  0
 18 12  1  0  0  0  0
 20 19  1  0  0  0  0
 20 21  2  0  0  0  0
 22 23  1  6  0  0  0
 22 20  1  0  0  0  0
 24 25  1  0  0  0  0
 25 22  1  0  0  0  0
M  END
>  <MODEL>
6

>  <REMARK>
 VINA RESULT:      -8.4      2.112      5.359
  Name = 
  5 active torsions:
  status: ('A' for Active; 'I' for Inactive)
    1  A    between atoms: N_1  and  C_5
    2  A    between atoms: C_2  and  C_15
    3  A    between atoms: C_2  and  C_21
    4  A    between atoms: C_6  and  C_15
    5  A    between atoms: C_6  and  C_23
                            x       y       z     vdW  Elec       q    Type
                         _______ _______ _______ _____ _____    ______ ____

>  <TORSDO>
F 5

$$$$
=
 OpenBabel10272400433D

 25 27  0  0  1  0  0  0  0  0999 V2000
  187.6610  177.7630  145.4450 N   0  0  0  0  0  0  0  0  0  0  0  0
  187.1450  177.5460  144.0830 C   0  0  0  0  0  0  0  0  0  0  0  0
  185.5260  178.3940  146.2500 C   0  0  0  0  0  3  0  0  0  0  0  0
  185.0360  178.4770  144.9090 N   0  0  0  0  0  0  0  0  0  0  0  0
  185.2920  178.3430  142.5110 C   0  0  1  0  0  3  0  0  0  0  0  0
  183.8400  178.4840  142.2070 C   0  0  0  0  0  1  0  0  0  0  0  0
  188.0910  178.0460  143.0170 C   0  0  0  0  0  3  0  0  0  0  0  0
  186.7610  178.0710  146.4850 N   0  0  0  0  0  0  0  0  0  0  0  0
  186.1880  178.4680  141.5270 C   0  0  0  0  0  3  0  0  0  0  0  0
  187.6420  178.4070  141.8070 C   0  0  0  0  0  0  0  0  0  0  0  0
  185.7700  178.1400  143.8930 C   0  0  0  0  0  0  0  0  0  0  0  0
  188.9980  177.3560  145.7990 C   0  0  0  0  0  0  0  0  0  0  0  0
  191.6070  176.5380  146.4560 C   0  0  0  0  0  3  0  0  0  0  0  0
  189.3040  176.9250  147.1070 C   0  0  0  0  0  0  0  0  0  0  0  0
  190.6030  176.5180  147.4260 C   0  0  0  0  0  3  0  0  0  0  0  0
  191.3160  176.9670  145.1600 C   0  0  0  0  0  3  0  0  0  0  0  0
  188.3310  176.9130  148.1000 O   0  0  0  0  0  1  0  0  0  0  0  0
  190.0190  177.3720  144.8340 C   0  0  0  0  0  3  0  0  0  0  0  0
  188.6120  178.7880  140.7420 C   0  0  0  0  0  2  0  0  0  0  0  0
  188.9690  177.5990  139.9110 C   0  0  0  0  0  0  0  0  0  0  0  0
  188.2230  177.2410  139.0120 O   0  0  0  0  0  0  0  0  0  0  0  0
  190.2300  176.8430  140.2030 C   0  0  2  0  0  3  0  0  0  0  0  0
  190.9960  177.5180  141.1560 O   0  0  0  0  0  1  0  0  0  0  0  0
  190.8360  175.2870  138.4710 O   0  0  0  0  0  1  0  0  0  0  0  0
  191.0460  176.5850  138.9420 C   0  0  0  0  0  2  0  0  0  0  0  0
  1 12  1  0  0  0  0
  1  8  1  0  0  0  0
  2  1  1  0  0  0  0
  3  8  2  0  0  0  0
  4  3  1  0  0  0  0
  5  6  1  1  0  0  0
  5 11  1  0  0  0  0
  7  2  2  0  0  0  0
  9 10  2  0  0  0  0
  9  5  1  0  0  0  0
 10  7  1  0  0  0  0
 11  2  1  0  0  0  0
 11  4  2  0  0  0  0
 12 14  1  0  0  0  0
 13 15  1  0  0  0  0
 14 15  2  0  0  0  0
 14 17  1  0  0  0  0
 16 13  2  0  0  0  0
 18 16  1  0  0  0  0
 18 12  2  0  0  0  0
 19 10  1  0  0  0  0
 20 22  1  0  0  0  0
 20 19  1  0  0  0  0
 21 20  2  0  0  0  0
 22 23  1  1  0  0  0
 24 25  1  0  0  0  0
 25 22  1  0  0  0  0
M  END
>  <MODEL>
7

>  <REMARK>
 VINA RESULT:      -8.3      1.583      4.825
  Name = 
  5 active torsions:
  status: ('A' for Active; 'I' for Inactive)
    1  A    between atoms: N_1  and  C_5
    2  A    between atoms: C_2  and  C_15
    3  A    between atoms: C_2  and  C_21
    4  A    between atoms: C_6  and  C_15
    5  A    between atoms: C_6  and  C_23
                            x       y       z     vdW  Elec       q    Type
                         _______ _______ _______ _____ _____    ______ ____

>  <TORSDO>
F 5

$$$$
=
 OpenBabel10272400433D

 25 27  0  0  1  0  0  0  0  0999 V2000
  185.6920  178.3800  145.2610 N   0  0  0  0  0  0  0  0  0  0  0  0
  185.7090  177.9740  143.8450 C   0  0  0  0  0  0  0  0  0  0  0  0
  183.3960  178.9490  145.1640 C   0  0  0  0  0  3  0  0  0  0  0  0
  183.4220  178.8450  143.7380 N   0  0  0  0  0  0  0  0  0  0  0  0
  184.5310  178.4570  141.6280 C   0  0  1  0  0  3  0  0  0  0  0  0
  183.2850  178.4620  140.8110 C   0  0  0  0  0  1  0  0  0  0  0  0
  186.9640  178.4130  143.1300 C   0  0  0  0  0  3  0  0  0  0  0  0
  184.4690  178.7400  145.8630 N   0  0  0  0  0  0  0  0  0  0  0  0
  185.7190  178.5310  141.0190 C   0  0  0  0  0  3  0  0  0  0  0  0
  186.9750  178.6020  141.8030 C   0  0  0  0  0  0  0  0  0  0  0  0
  184.4820  178.4460  143.1020 C   0  0  0  0  0  0  0  0  0  0  0  0
  186.8190  178.1080  146.1180 C   0  0  0  0  0  0  0  0  0  0  0  0
  189.0140  177.5390  147.7800 C   0  0  0  0  0  3  0  0  0  0  0  0
  186.9220  178.7020  147.3930 C   0  0  0  0  0  0  0  0  0  0  0  0
  188.0160  178.4130  148.2150 C   0  0  0  0  0  3  0  0  0  0  0  0
  188.9240  176.9490  146.5190 C   0  0  0  0  0  3  0  0  0  0  0  0
  185.9560  179.5930  147.8450 O   0  0  0  0  0  1  0  0  0  0  0  0
  187.8320  177.2310  145.6940 C   0  0  0  0  0  3  0  0  0  0  0  0
  188.2550  178.9260  141.1130 C   0  0  0  0  0  2  0  0  0  0  0  0
  189.0740  177.6900  140.9260 C   0  0  0  0  0  0  0  0  0  0  0  0
  188.8000  176.9110  140.0250 O   0  0  0  0  0  0  0  0  0  0  0  0
  190.2110  177.4070  141.8600 C   0  0  2  0  0  3  0  0  0  0  0  0
  191.4090  177.2880  141.1520 O   0  0  0  0  0  1  0  0  0  0  0  0
  191.0790  175.8570  143.4840 O   0  0  0  0  0  1  0  0  0  0  0  0
  189.9610  176.1630  142.7050 C   0  0  0  0  0  2  0  0  0  0  0  0
  1  8  1  0  0  0  0
  1 12  1  0  0  0  0
  2  1  1  0  0  0  0
  3  8  2  0  0  0  0
  4  3  1  0  0  0  0
  5  6  1  1  0  0  0
  5 11  1  0  0  0  0
  7  2  2  0  0  0  0
  9  5  1  0  0  0  0
  9 10  2  0  0  0  0
 10  7  1  0  0  0  0
 11  4  2  0  0  0  0
 11  2  1  0  0  0  0
 12 14  1  0  0  0  0
 13 15  1  0  0  0  0
 14 17  1  0  0  0  0
 14 15  2  0  0  0  0
 16 13  2  0  0  0  0
 18 12  2  0  0  0  0
 18 16  1  0  0  0  0
 19 10  1  0  0  0  0
 20 19  1  0  0  0  0
 20 22  1  0  0  0  0
 21 20  2  0  0  0  0
 22 23  1  6  0  0  0
 22 25  1  0  0  0  0
 25 24  1  0  0  0  0
M  END
>  <MODEL>
8

>  <REMARK>
 VINA RESULT:      -8.2      1.814      4.961
  Name = 
  5 active torsions:
  status: ('A' for Active; 'I' for Inactive)
    1  A    between atoms: N_1  and  C_5
    2  A    between atoms: C_2  and  C_15
    3  A    between atoms: C_2  and  C_21
    4  A    between atoms: C_6  and  C_15
    5  A    between atoms: C_6  and  C_23
                            x       y       z     vdW  Elec       q    Type
                         _______ _______ _______ _____ _____    ______ ____

>  <TORSDO>
F 5

$$$$
=
 OpenBabel10272400433D

 25 27  0  0  1  0  0  0  0  0999 V2000
  190.0140  177.7990  142.2270 N   0  0  0  0  0  0  0  0  0  0  0  0
  189.0630  177.2490  143.2080 C   0  0  2  0  0  3  0  0  0  0  0  0
  191.4640  178.5750  143.9300 C   0  0  0  0  0  3  0  0  0  0  0  0
  190.4570  178.3220  144.9130 N   0  0  0  0  0  0  0  0  0  0  0  0
  188.2550  177.6130  145.6070 C   0  0  0  0  0  0  0  0  0  0  0  0
  188.5470  177.6540  147.0670 C   0  0  0  0  0  1  0  0  0  0  0  0
  187.6230  177.4890  142.8210 C   0  0  0  0  0  3  0  0  0  0  0  0
  191.2370  178.3360  142.6740 N   0  0  0  0  0  0  0  0  0  0  0  0
  186.9890  177.5080  145.1900 C   0  0  0  0  0  3  0  0  0  0  0  0
  186.6560  177.5380  143.7470 C   0  0  0  0  0  0  0  0  0  0  0  0
  189.3280  177.7590  144.6050 C   0  0  0  0  0  0  0  0  0  0  0  0
  189.8700  177.5090  140.8210 C   0  0  0  0  0  0  0  0  0  0  0  0
  189.6290  176.9450  138.0780 C   0  0  0  0  0  3  0  0  0  0  0  0
  188.9320  178.2030  140.0290 C   0  0  0  0  0  0  0  0  0  0  0  0
  188.8190  177.9190  138.6640 C   0  0  0  0  0  3  0  0  0  0  0  0
  190.5570  176.2500  138.8530 C   0  0  0  0  0  3  0  0  0  0  0  0
  188.0960  179.1630  140.5890 O   0  0  0  0  0  1  0  0  0  0  0  0
  190.6770  176.5310  140.2170 C   0  0  0  0  0  3  0  0  0  0  0  0
  185.2330  177.6630  143.3230 C   0  0  0  0  0  2  0  0  0  0  0  0
  184.7840  179.0850  143.4160 C   0  0  0  0  0  0  0  0  0  0  0  0
  185.2960  179.9310  142.6980 O   0  0  0  0  0  0  0  0  0  0  0  0
  183.7230  179.4640  144.4050 C   0  0  2  0  0  3  0  0  0  0  0  0
  184.1350  179.1630  145.7040 O   0  0  0  0  0  1  0  0  0  0  0  0
  181.9330  179.1550  142.8260 O   0  0  0  0  0  1  0  0  0  0  0  0
  182.3880  178.7930  144.0960 C   0  0  0  0  0  2  0  0  0  0  0  0
  1  8  1  0  0  0  0
  1  2  1  0  0  0  0
  2  7  1  6  0  0  0
  2 11  1  0  0  0  0
  3  4  1  0  0  0  0
  5  6  1  0  0  0  0
  7 10  2  0  0  0  0
  8  3  2  0  0  0  0
  9  5  2  0  0  0  0
 10  9  1  0  0  0  0
 11  4  2  0  0  0  0
 11  5  1  0  0  0  0
 12  1  1  0  0  0  0
 13 15  2  0  0  0  0
 13 16  1  0  0  0  0
 14 17  1  0  0  0  0
 14 12  2  0  0  0  0
 15 14  1  0  0  0  0
 16 18  2  0  0  0  0
 18 12  1  0  0  0  0
 19 20  1  0  0  0  0
 19 10  1  0  0  0  0
 20 22  1  0  0  0  0
 21 20  2  0  0  0  0
 22 23  1  1  0  0  0
 24 25  1  0  0  0  0
 25 22  1  0  0  0  0
M  END
>  <MODEL>
9

>  <REMARK>
 VINA RESULT:      -8.2      2.357      5.832
  Name = 
  5 active torsions:
  status: ('A' for Active; 'I' for Inactive)
    1  A    between atoms: N_1  and  C_5
    2  A    between atoms: C_2  and  C_15
    3  A    between atoms: C_2  and  C_21
    4  A    between atoms: C_6  and  C_15
    5  A    between atoms: C_6  and  C_23
                            x       y       z     vdW  Elec       q    Type
                         _______ _______ _______ _____ _____    ______ ____

>  <TORSDO>
F 5

$$$$
