=
 OpenBabel10272400553D

 25 28  0  0  1  0  0  0  0  0999 V2000
  186.1560  178.2410  145.0780 C   0  0  0  0  0  0  0  0  0  0  0  0
  185.9140  177.6490  143.7240 C   0  0  1  0  0  3  0  0  0  0  0  0
  184.4960  179.9570  144.8770 N   0  0  0  0  0  0  0  0  0  0  0  0
  186.9170  177.8600  146.0850 C   0  0  0  0  0  0  0  0  0  0  0  0
  188.2510  177.6190  148.5820 C   0  0  0  0  0  3  0  0  0  0  0  0
  184.1830  179.4790  143.5530 C   0  0  0  0  0  3  0  0  0  0  0  0
  186.6460  178.7610  147.1950 C   0  0  0  0  0  0  0  0  0  0  0  0
  187.2790  178.5410  148.4930 C   0  0  0  0  0  3  0  0  0  0  0  0
  188.7960  176.8840  147.3650 C   0  0  0  0  0  2  0  0  0  0  0  0
  185.4270  179.3800  145.5660 C   0  0  0  0  0  0  0  0  0  0  0  0
  185.7590  179.6700  146.9220 N   0  0  0  0  0  0  0  0  0  0  0  0
  187.7540  176.6360  146.2550 C   0  0  0  0  0  2  0  0  0  0  0  0
  184.8140  178.4160  142.9910 C   0  0  0  0  0  0  0  0  0  0  0  0
  187.1840  177.6090  142.9230 C   0  0  0  0  0  0  0  0  0  0  0  0
  188.7360  178.6120  141.3490 C   0  0  0  0  0  3  0  0  0  0  0  0
  188.0180  176.4930  143.0250 C   0  0  0  0  0  3  0  0  0  0  0  0
  189.2070  176.4340  142.2920 C   0  0  0  0  0  3  0  0  0  0  0  0
  187.5480  178.6710  142.0810 C   0  0  0  0  0  3  0  0  0  0  0  0
  189.5740  177.4910  141.4490 C   0  0  0  0  0  0  0  0  0  0  0  0
  190.8270  177.4300  140.6760 C   0  0  0  0  0  0  0  0  0  0  0  0
  190.7980  177.2040  139.2700 N   0  0  0  0  0  1  0  0  0  0  0  0
  191.9370  177.5750  141.2530 O   0  0  0  0  0  0  0  0  0  0  0  0
  184.4060  177.9400  141.6270 C   0  0  0  0  0  3  0  0  0  0  0  0
  184.8140  178.9300  140.5510 C   0  0  0  0  0  1  0  0  0  0  0  0
  182.9150  177.6680  141.5560 C   0  0  0  0  0  1  0  0  0  0  0  0
  1 10  1  0  0  0  0
  1  4  2  0  0  0  0
  2 14  1  6  0  0  0
  2  1  1  0  0  0  0
  3 10  2  0  0  0  0
  4 12  1  0  0  0  0
  4  7  1  0  0  0  0
  6  3  1  0  0  0  0
  7  8  1  0  0  0  0
  8  5  2  0  0  0  0
  9  5  1  0  0  0  0
 10 11  1  0  0  0  0
 11  7  2  0  0  0  0
 12  9  1  0  0  0  0
 13  6  2  0  0  0  0
 13  2  1  0  0  0  0
 14 16  1  0  0  0  0
 15 19  2  0  0  0  0
 15 18  1  0  0  0  0
 17 16  2  0  0  0  0
 18 14  2  0  0  0  0
 19 17  1  0  0  0  0
 20 22  2  0  0  0  0
 20 19  1  0  0  0  0
 21 20  1  0  0  0  0
 23 13  1  0  0  0  0
 24 23  1  0  0  0  0
 25 23  1  0  0  0  0
M  END
>  <MODEL>
1

>  <REMARK>
 VINA RESULT:      -8.0      0.000      0.000
  Name = 
  3 active torsions:
  status: ('A' for Active; 'I' for Inactive)
    1  A    between atoms: C_2  and  C_25
    2  A    between atoms: C_3  and  C_6
    3  A    between atoms: C_13  and  C_24
                            x       y       z     vdW  Elec       q    Type
                         _______ _______ _______ _____ _____    ______ ____

>  <TORSDO>
F 3

$$$$
=
 OpenBabel10272400553D

 25 28  0  0  1  0  0  0  0  0999 V2000
  189.6920  177.4030  142.5420 C   0  0  0  0  0  0  0  0  0  0  0  0
  188.8910  178.2750  141.6250 C   0  0  1  0  0  3  0  0  0  0  0  0
  190.4830  175.9300  140.8250 N   0  0  0  0  0  0  0  0  0  0  0  0
  189.9770  177.4990  143.8260 C   0  0  0  0  0  0  0  0  0  0  0  0
  190.9850  177.1030  146.4520 C   0  0  0  0  0  3  0  0  0  0  0  0
  189.7420  176.6930  139.8510 C   0  0  0  0  0  3  0  0  0  0  0  0
  190.9050  176.4230  144.1420 C   0  0  0  0  0  0  0  0  0  0  0  0
  191.4770  176.3150  145.4820 C   0  0  0  0  0  3  0  0  0  0  0  0
  189.7830  178.0110  146.2380 C   0  0  0  0  0  2  0  0  0  0  0  0
  190.4360  176.2650  142.0740 C   0  0  0  0  0  0  0  0  0  0  0  0
  191.2040  175.6770  143.1220 N   0  0  0  0  0  0  0  0  0  0  0  0
  189.6610  178.5770  144.8090 C   0  0  0  0  0  2  0  0  0  0  0  0
  189.0010  177.7810  140.1830 C   0  0  0  0  0  0  0  0  0  0  0  0
  187.4610  178.3520  142.0740 C   0  0  0  0  0  0  0  0  0  0  0  0
  185.6450  177.6340  143.5150 C   0  0  0  0  0  3  0  0  0  0  0  0
  186.5970  179.2520  141.4440 C   0  0  0  0  0  3  0  0  0  0  0  0
  185.2610  179.3440  141.8460 C   0  0  0  0  0  3  0  0  0  0  0  0
  186.9790  177.5420  143.1130 C   0  0  0  0  0  3  0  0  0  0  0  0
  184.7760  178.5360  142.8840 C   0  0  0  0  0  0  0  0  0  0  0  0
  183.3680  178.6330  143.3090 C   0  0  0  0  0  0  0  0  0  0  0  0
  183.0350  178.7020  144.6920 N   0  0  0  0  0  1  0  0  0  0  0  0
  182.4450  178.6550  142.4510 O   0  0  0  0  0  0  0  0  0  0  0  0
  188.2920  178.5590  139.1120 C   0  0  0  0  0  3  0  0  0  0  0  0
  187.2000  177.7320  138.4590 C   0  0  0  0  0  1  0  0  0  0  0  0
  189.2630  179.0720  138.0630 C   0  0  0  0  0  1  0  0  0  0  0  0
  1  4  2  0  0  0  0
  2 14  1  1  0  0  0
  2  1  1  0  0  0  0
  3 10  2  0  0  0  0
  4  7  1  0  0  0  0
  4 12  1  0  0  0  0
  6 13  2  0  0  0  0
  6  3  1  0  0  0  0
  7  8  1  0  0  0  0
  8  5  2  0  0  0  0
  9  5  1  0  0  0  0
 10  1  1  0  0  0  0
 10 11  1  0  0  0  0
 11  7  2  0  0  0  0
 12  9  1  0  0  0  0
 13  2  1  0  0  0  0
 14 18  1  0  0  0  0
 16 17  1  0  0  0  0
 16 14  2  0  0  0  0
 17 19  2  0  0  0  0
 18 15  2  0  0  0  0
 19 20  1  0  0  0  0
 19 15  1  0  0  0  0
 20 21  1  0  0  0  0
 22 20  2  0  0  0  0
 23 13  1  0  0  0  0
 24 23  1  0  0  0  0
 25 23  1  0  0  0  0
M  END
>  <MODEL>
2

>  <REMARK>
 VINA RESULT:      -7.0      2.821      5.691
  Name = 
  3 active torsions:
  status: ('A' for Active; 'I' for Inactive)
    1  A    between atoms: C_2  and  C_25
    2  A    between atoms: C_3  and  C_6
    3  A    between atoms: C_13  and  C_24
                            x       y       z     vdW  Elec       q    Type
                         _______ _______ _______ _____ _____    ______ ____

>  <TORSDO>
F 3

$$$$
=
 OpenBabel10272400553D

 25 28  0  0  1  0  0  0  0  0999 V2000
  188.5150  177.6270  141.5840 C   0  0  0  0  0  0  0  0  0  0  0  0
  189.4880  177.9840  140.5040 C   0  0  1  0  0  3  0  0  0  0  0  0
  189.9410  176.0270  142.6560 N   0  0  0  0  0  0  0  0  0  0  0  0
  187.3390  178.1260  141.9130 C   0  0  0  0  0  0  0  0  0  0  0  0
  184.8580  178.7100  143.1670 C   0  0  0  0  0  3  0  0  0  0  0  0
  190.9520  176.2830  141.6610 C   0  0  0  0  0  3  0  0  0  0  0  0
  186.9160  177.4580  143.1350 C   0  0  0  0  0  0  0  0  0  0  0  0
  185.6790  177.8600  143.8030 C   0  0  0  0  0  3  0  0  0  0  0  0
  185.1060  179.1760  141.7390 C   0  0  0  0  0  2  0  0  0  0  0  0
  188.8070  176.6490  142.5960 C   0  0  0  0  0  0  0  0  0  0  0  0
  187.7690  176.5810  143.5720 N   0  0  0  0  0  0  0  0  0  0  0  0
  186.5970  179.2970  141.3620 C   0  0  0  0  0  2  0  0  0  0  0  0
  190.7790  177.1810  140.6570 C   0  0  0  0  0  0  0  0  0  0  0  0
  188.8760  177.7900  139.1470 C   0  0  0  0  0  0  0  0  0  0  0  0
  187.7300  176.4100  137.5110 C   0  0  0  0  0  3  0  0  0  0  0  0
  188.8830  178.8510  138.2370 C   0  0  0  0  0  3  0  0  0  0  0  0
  188.3160  178.6940  136.9690 C   0  0  0  0  0  3  0  0  0  0  0  0
  188.2960  176.5660  138.7790 C   0  0  0  0  0  3  0  0  0  0  0  0
  187.7360  177.4740  136.5970 C   0  0  0  0  0  0  0  0  0  0  0  0
  187.1390  177.3090  135.2600 C   0  0  0  0  0  0  0  0  0  0  0  0
  186.9720  176.0100  134.6990 N   0  0  0  0  0  1  0  0  0  0  0  0
  186.7700  178.3160  134.6000 O   0  0  0  0  0  0  0  0  0  0  0  0
  191.8920  177.4350  139.6810 C   0  0  0  0  0  3  0  0  0  0  0  0
  191.9040  176.3970  138.5740 C   0  0  0  0  0  1  0  0  0  0  0  0
  193.2410  177.4810  140.3760 C   0  0  0  0  0  1  0  0  0  0  0  0
  1  4  2  0  0  0  0
  1 10  1  0  0  0  0
  2 14  1  6  0  0  0
  2 13  1  0  0  0  0
  2  1  1  0  0  0  0
  4  7  1  0  0  0  0
  5  8  2  0  0  0  0
  6  3  1  0  0  0  0
  7 11  2  0  0  0  0
  7  8  1  0  0  0  0
  9  5  1  0  0  0  0
 10  3  2  0  0  0  0
 10 11  1  0  0  0  0
 12  9  1  0  0  0  0
 12  4  1  0  0  0  0
 13  6  2  0  0  0  0
 15 18  2  0  0  0  0
 16 14  2  0  0  0  0
 17 16  1  0  0  0  0
 18 14  1  0  0  0  0
 19 17  2  0  0  0  0
 19 15  1  0  0  0  0
 20 19  1  0  0  0  0
 21 20  1  0  0  0  0
 22 20  2  0  0  0  0
 23 25  1  0  0  0  0
 23 13  1  0  0  0  0
 24 23  1  0  0  0  0
M  END
>  <MODEL>
3

>  <REMARK>
 VINA RESULT:      -7.0      3.434      6.184
  Name = 
  3 active torsions:
  status: ('A' for Active; 'I' for Inactive)
    1  A    between atoms: C_2  and  C_25
    2  A    between atoms: C_3  and  C_6
    3  A    between atoms: C_13  and  C_24
                            x       y       z     vdW  Elec       q    Type
                         _______ _______ _______ _____ _____    ______ ____

>  <TORSDO>
F 3

$$$$
=
 OpenBabel10272400553D

 25 28  0  0  1  0  0  0  0  0999 V2000
  189.1280  177.3130  146.8510 C   0  0  0  0  0  0  0  0  0  0  0  0
  187.9850  177.1330  145.9010 C   0  0  1  0  0  3  0  0  0  0  0  0
  188.0270  178.9390  148.2260 N   0  0  0  0  0  0  0  0  0  0  0  0
  190.2830  176.6880  146.9720 C   0  0  0  0  0  0  0  0  0  0  0  0
  192.8440  175.7880  147.8110 C   0  0  0  0  0  3  0  0  0  0  0  0
  186.8690  178.8540  147.3710 C   0  0  0  0  0  3  0  0  0  0  0  0
  190.9330  177.2140  148.1630 C   0  0  0  0  0  0  0  0  0  0  0  0
  192.2050  176.6530  148.6150 C   0  0  0  0  0  3  0  0  0  0  0  0
  192.3570  175.4650  146.4050 C   0  0  0  0  0  2  0  0  0  0  0  0
  189.0750  178.2270  147.9600 C   0  0  0  0  0  0  0  0  0  0  0  0
  190.2390  178.1230  148.7770 N   0  0  0  0  0  0  0  0  0  0  0  0
  190.8240  175.5060  146.2400 C   0  0  0  0  0  2  0  0  0  0  0  0
  186.8120  178.0310  146.2940 C   0  0  0  0  0  0  0  0  0  0  0  0
  188.4210  177.3840  144.4860 C   0  0  0  0  0  0  0  0  0  0  0  0
  189.7490  178.5970  142.8560 C   0  0  0  0  0  3  0  0  0  0  0  0
  187.8860  176.6020  143.4590 C   0  0  0  0  0  3  0  0  0  0  0  0
  188.2790  176.8150  142.1350 C   0  0  0  0  0  3  0  0  0  0  0  0
  189.3560  178.3840  144.1800 C   0  0  0  0  0  3  0  0  0  0  0  0
  189.2120  177.8140  141.8230 C   0  0  0  0  0  0  0  0  0  0  0  0
  189.6270  178.0380  140.4270 C   0  0  0  0  0  0  0  0  0  0  0  0
  188.7490  178.6790  139.5080 N   0  0  0  0  0  1  0  0  0  0  0  0
  190.7630  177.6630  140.0340 O   0  0  0  0  0  0  0  0  0  0  0  0
  185.5570  177.9560  145.4740 C   0  0  0  0  0  3  0  0  0  0  0  0
  185.5260  179.0380  144.4100 C   0  0  0  0  0  1  0  0  0  0  0  0
  184.3180  178.0390  146.3460 C   0  0  0  0  0  1  0  0  0  0  0  0
  1  4  2  0  0  0  0
  1 10  1  0  0  0  0
  2 14  1  6  0  0  0
  2 13  1  0  0  0  0
  2  1  1  0  0  0  0
  4  7  1  0  0  0  0
  5  8  2  0  0  0  0
  6  3  1  0  0  0  0
  7  8  1  0  0  0  0
  7 11  2  0  0  0  0
  9  5  1  0  0  0  0
 10  3  2  0  0  0  0
 10 11  1  0  0  0  0
 12  9  1  0  0  0  0
 12  4  1  0  0  0  0
 13  6  2  0  0  0  0
 15 18  2  0  0  0  0
 16 14  2  0  0  0  0
 17 16  1  0  0  0  0
 18 14  1  0  0  0  0
 19 17  2  0  0  0  0
 19 15  1  0  0  0  0
 20 19  1  0  0  0  0
 21 20  1  0  0  0  0
 22 20  2  0  0  0  0
 23 13  1  0  0  0  0
 23 25  1  0  0  0  0
 24 23  1  0  0  0  0
M  END
>  <MODEL>
4

>  <REMARK>
 VINA RESULT:      -6.7      2.267      3.629
  Name = 
  3 active torsions:
  status: ('A' for Active; 'I' for Inactive)
    1  A    between atoms: C_2  and  C_25
    2  A    between atoms: C_3  and  C_6
    3  A    between atoms: C_13  and  C_24
                            x       y       z     vdW  Elec       q    Type
                         _______ _______ _______ _____ _____    ______ ____

>  <TORSDO>
F 3

$$$$
=
 OpenBabel10272400553D

 25 28  0  0  1  0  0  0  0  0999 V2000
  191.1230  175.3930  137.5770 C   0  0  0  0  0  0  0  0  0  0  0  0
  190.6090  176.7160  138.0560 C   0  0  1  0  0  3  0  0  0  0  0  0
  189.0260  174.6400  136.6930 N   0  0  0  0  0  0  0  0  0  0  0  0
  192.3370  174.8820  137.5310 C   0  0  0  0  0  0  0  0  0  0  0  0
  194.6040  173.2230  137.1060 C   0  0  0  0  0  3  0  0  0  0  0  0
  188.4200  175.8770  137.1190 C   0  0  0  0  0  3  0  0  0  0  0  0
  192.2390  173.6030  136.8430 C   0  0  0  0  0  0  0  0  0  0  0  0
  193.4450  172.8270  136.5570 C   0  0  0  0  0  3  0  0  0  0  0  0
  194.6890  174.3690  138.1040 C   0  0  0  0  0  2  0  0  0  0  0  0
  190.2810  174.4250  136.9280 C   0  0  0  0  0  0  0  0  0  0  0  0
  191.0330  173.3060  136.4650 N   0  0  0  0  0  0  0  0  0  0  0  0
  193.6570  175.4910  137.8700 C   0  0  0  0  0  2  0  0  0  0  0  0
  189.1190  176.8570  137.7460 C   0  0  0  0  0  0  0  0  0  0  0  0
  190.8880  176.9000  139.5200 C   0  0  0  0  0  0  0  0  0  0  0  0
  192.3130  177.6590  141.3320 C   0  0  0  0  0  3  0  0  0  0  0  0
  189.9410  176.4690  140.4530 C   0  0  0  0  0  3  0  0  0  0  0  0
  190.1770  176.6330  141.8210 C   0  0  0  0  0  3  0  0  0  0  0  0
  192.0780  177.4960  139.9640 C   0  0  0  0  0  3  0  0  0  0  0  0
  191.3640  177.2280  142.2700 C   0  0  0  0  0  0  0  0  0  0  0  0
  191.6120  177.4000  143.7120 C   0  0  0  0  0  0  0  0  0  0  0  0
  191.6150  176.2740  144.5840 N   0  0  0  0  0  1  0  0  0  0  0  0
  191.8240  178.5470  144.1880 O   0  0  0  0  0  0  0  0  0  0  0  0
  188.4370  178.1420  138.1200 C   0  0  0  0  0  3  0  0  0  0  0  0
  186.9300  178.0300  137.9760 C   0  0  0  0  0  1  0  0  0  0  0  0
  188.9600  179.3070  137.3000 C   0  0  0  0  0  1  0  0  0  0  0  0
  1  2  1  0  0  0  0
  2 14  1  1  0  0  0
  3 10  2  0  0  0  0
  3  6  1  0  0  0  0
  4  1  2  0  0  0  0
  4 12  1  0  0  0  0
  5  9  1  0  0  0  0
  6 13  2  0  0  0  0
  7  4  1  0  0  0  0
  8  7  1  0  0  0  0
  8  5  2  0  0  0  0
 10  1  1  0  0  0  0
 11  7  2  0  0  0  0
 11 10  1  0  0  0  0
 12  9  1  0  0  0  0
 13  2  1  0  0  0  0
 13 23  1  0  0  0  0
 14 18  2  0  0  0  0
 14 16  1  0  0  0  0
 15 19  2  0  0  0  0
 16 17  2  0  0  0  0
 17 19  1  0  0  0  0
 18 15  1  0  0  0  0
 19 20  1  0  0  0  0
 20 22  2  0  0  0  0
 20 21  1  0  0  0  0
 24 23  1  0  0  0  0
 25 23  1  0  0  0  0
M  END
>  <MODEL>
5

>  <REMARK>
 VINA RESULT:      -6.6      4.882      8.541
  Name = 
  3 active torsions:
  status: ('A' for Active; 'I' for Inactive)
    1  A    between atoms: C_2  and  C_25
    2  A    between atoms: C_3  and  C_6
    3  A    between atoms: C_13  and  C_24
                            x       y       z     vdW  Elec       q    Type
                         _______ _______ _______ _____ _____    ______ ____

>  <TORSDO>
F 3

$$$$
=
 OpenBabel10272400553D

 25 28  0  0  1  0  0  0  0  0999 V2000
  187.2250  178.2000  143.1230 C   0  0  0  0  0  0  0  0  0  0  0  0
  188.6720  178.4930  142.8700 C   0  0  1  0  0  3  0  0  0  0  0  0
  187.5630  177.2350  145.2910 N   0  0  0  0  0  0  0  0  0  0  0  0
  186.1330  178.5010  142.4480 C   0  0  0  0  0  0  0  0  0  0  0  0
  183.4520  178.8210  141.5650 C   0  0  0  0  0  3  0  0  0  0  0  0
  188.9800  177.4600  145.1540 C   0  0  0  0  0  3  0  0  0  0  0  0
  184.9990  178.0630  143.2490 C   0  0  0  0  0  0  0  0  0  0  0  0
  183.6350  178.3370  142.8040 C   0  0  0  0  0  3  0  0  0  0  0  0
  184.5950  178.9820  140.5720 C   0  0  0  0  0  2  0  0  0  0  0  0
  186.7630  177.5710  144.3300 C   0  0  0  0  0  0  0  0  0  0  0  0
  185.3390  177.5140  144.3760 N   0  0  0  0  0  0  0  0  0  0  0  0
  185.9530  179.3250  141.2170 C   0  0  0  0  0  2  0  0  0  0  0  0
  189.5260  178.0400  144.0540 C   0  0  0  0  0  0  0  0  0  0  0  0
  189.1300  177.8600  141.5880 C   0  0  0  0  0  0  0  0  0  0  0  0
  190.4110  176.1890  140.3820 C   0  0  0  0  0  3  0  0  0  0  0  0
  188.6720  178.3770  140.3730 C   0  0  0  0  0  3  0  0  0  0  0  0
  189.0820  177.8030  139.1660 C   0  0  0  0  0  3  0  0  0  0  0  0
  190.0030  176.7620  141.5890 C   0  0  0  0  0  3  0  0  0  0  0  0
  189.9540  176.7060  139.1610 C   0  0  0  0  0  0  0  0  0  0  0  0
  190.3860  176.1010  137.8890 C   0  0  0  0  0  0  0  0  0  0  0  0
  190.8030  174.7400  137.8410 N   0  0  0  0  0  1  0  0  0  0  0  0
  190.3910  176.7840  136.8300 O   0  0  0  0  0  0  0  0  0  0  0  0
  191.0060  178.2890  143.9970 C   0  0  0  0  0  3  0  0  0  0  0  0
  191.7450  177.4720  145.0400 C   0  0  0  0  0  1  0  0  0  0  0  0
  191.3280  179.7640  144.1560 C   0  0  0  0  0  1  0  0  0  0  0  0
  1 10  1  0  0  0  0
  2 14  1  6  0  0  0
  2  1  1  0  0  0  0
  2 13  1  0  0  0  0
  4  1  2  0  0  0  0
  4  7  1  0  0  0  0
  5  8  2  0  0  0  0
  6  3  1  0  0  0  0
  7 11  2  0  0  0  0
  8  7  1  0  0  0  0
  9 12  1  0  0  0  0
  9  5  1  0  0  0  0
 10 11  1  0  0  0  0
 10  3  2  0  0  0  0
 12  4  1  0  0  0  0
 13  6  2  0  0  0  0
 14 18  1  0  0  0  0
 15 18  2  0  0  0  0
 16 14  2  0  0  0  0
 17 16  1  0  0  0  0
 19 17  2  0  0  0  0
 19 15  1  0  0  0  0
 20 19  1  0  0  0  0
 21 20  1  0  0  0  0
 22 20  2  0  0  0  0
 23 13  1  0  0  0  0
 23 25  1  0  0  0  0
 23 24  1  0  0  0  0
M  END
>  <MODEL>
6

>  <REMARK>
 VINA RESULT:      -6.6      2.290      5.116
  Name = 
  3 active torsions:
  status: ('A' for Active; 'I' for Inactive)
    1  A    between atoms: C_2  and  C_25
    2  A    between atoms: C_3  and  C_6
    3  A    between atoms: C_13  and  C_24
                            x       y       z     vdW  Elec       q    Type
                         _______ _______ _______ _____ _____    ______ ____

>  <TORSDO>
F 3

$$$$
=
 OpenBabel10272400553D

 25 28  0  0  1  0  0  0  0  0999 V2000
  189.1990  177.1290  140.3890 C   0  0  0  0  0  0  0  0  0  0  0  0
  189.2500  176.2390  139.1850 C   0  0  1  0  0  3  0  0  0  0  0  0
  187.6730  178.7130  139.4380 N   0  0  0  0  0  0  0  0  0  0  0  0
  189.7060  177.0050  141.6000 C   0  0  0  0  0  0  0  0  0  0  0  0
  190.4420  177.3710  144.3190 C   0  0  0  0  0  3  0  0  0  0  0  0
  187.6510  177.9390  138.2220 C   0  0  0  0  0  3  0  0  0  0  0  0
  189.2180  178.1280  142.3870 C   0  0  0  0  0  0  0  0  0  0  0  0
  189.5400  178.2250  143.8090 C   0  0  0  0  0  3  0  0  0  0  0  0
  191.2240  176.3930  143.4540 C   0  0  0  0  0  2  0  0  0  0  0  0
  188.4110  178.3300  140.4300 C   0  0  0  0  0  0  0  0  0  0  0  0
  188.4400  178.9290  141.7240 N   0  0  0  0  0  0  0  0  0  0  0  0
  190.4500  175.8730  142.2260 C   0  0  0  0  0  2  0  0  0  0  0  0
  188.3620  176.7920  138.0710 C   0  0  0  0  0  0  0  0  0  0  0  0
  190.6650  176.0500  138.7190 C   0  0  0  0  0  0  0  0  0  0  0  0
  192.9600  176.8150  138.5340 C   0  0  0  0  0  3  0  0  0  0  0  0
  191.0020  174.8880  138.0210 C   0  0  0  0  0  3  0  0  0  0  0  0
  192.3130  174.6880  137.5800 C   0  0  0  0  0  3  0  0  0  0  0  0
  191.6500  177.0160  138.9750 C   0  0  0  0  0  3  0  0  0  0  0  0
  193.3010  175.6490  137.8320 C   0  0  0  0  0  0  0  0  0  0  0  0
  194.6840  175.4390  137.3680 C   0  0  0  0  0  0  0  0  0  0  0  0
  195.6040  174.6890  138.1550 N   0  0  0  0  0  1  0  0  0  0  0  0
  195.0660  175.9220  136.2690 O   0  0  0  0  0  0  0  0  0  0  0  0
  188.2560  176.0080  136.7940 C   0  0  0  0  0  3  0  0  0  0  0  0
  188.7170  176.8280  135.6030 C   0  0  0  0  0  1  0  0  0  0  0  0
  186.8440  175.5000  136.5700 C   0  0  0  0  0  1  0  0  0  0  0  0
  1 10  1  0  0  0  0
  1  4  2  0  0  0  0
  2 14  1  6  0  0  0
  2  1  1  0  0  0  0
  3 10  2  0  0  0  0
  4 12  1  0  0  0  0
  4  7  1  0  0  0  0
  6  3  1  0  0  0  0
  7  8  1  0  0  0  0
  8  5  2  0  0  0  0
  9  5  1  0  0  0  0
 10 11  1  0  0  0  0
 11  7  2  0  0  0  0
 12  9  1  0  0  0  0
 13  6  2  0  0  0  0
 13  2  1  0  0  0  0
 14 18  1  0  0  0  0
 15 18  2  0  0  0  0
 16 14  2  0  0  0  0
 17 19  2  0  0  0  0
 17 16  1  0  0  0  0
 19 15  1  0  0  0  0
 20 19  1  0  0  0  0
 20 21  1  0  0  0  0
 22 20  2  0  0  0  0
 23 13  1  0  0  0  0
 24 23  1  0  0  0  0
 25 23  1  0  0  0  0
M  END
>  <MODEL>
7

>  <REMARK>
 VINA RESULT:      -6.5      3.961      5.784
  Name = 
  3 active torsions:
  status: ('A' for Active; 'I' for Inactive)
    1  A    between atoms: C_2  and  C_25
    2  A    between atoms: C_3  and  C_6
    3  A    between atoms: C_13  and  C_24
                            x       y       z     vdW  Elec       q    Type
                         _______ _______ _______ _____ _____    ______ ____

>  <TORSDO>
F 3

$$$$
=
 OpenBabel10272400553D

 25 28  0  0  1  0  0  0  0  0999 V2000
  189.6810  177.5470  142.9630 C   0  0  0  0  0  0  0  0  0  0  0  0
  188.3860  177.2150  143.6380 C   0  0  1  0  0  3  0  0  0  0  0  0
  190.6330  178.6860  144.8440 N   0  0  0  0  0  0  0  0  0  0  0  0
  190.1780  177.2060  141.7900 C   0  0  0  0  0  0  0  0  0  0  0  0
  191.8300  176.8480  139.5070 C   0  0  0  0  0  3  0  0  0  0  0  0
  189.4270  178.4320  145.5900 C   0  0  0  0  0  3  0  0  0  0  0  0
  191.5370  177.7240  141.7320 C   0  0  0  0  0  0  0  0  0  0  0  0
  192.3870  177.4320  140.5790 C   0  0  0  0  0  3  0  0  0  0  0  0
  190.3340  176.5890  139.3990 C   0  0  0  0  0  2  0  0  0  0  0  0
  190.7290  178.2820  143.6180 C   0  0  0  0  0  0  0  0  0  0  0  0
  191.8970  178.3610  142.8050 N   0  0  0  0  0  0  0  0  0  0  0  0
  189.6450  176.2830  140.7450 C   0  0  0  0  0  2  0  0  0  0  0  0
  188.3730  177.7540  145.0680 C   0  0  0  0  0  0  0  0  0  0  0  0
  187.2210  177.7310  142.8430 C   0  0  0  0  0  0  0  0  0  0  0  0
  184.8320  177.9360  142.4650 C   0  0  0  0  0  3  0  0  0  0  0  0
  187.4610  178.5150  141.7120 C   0  0  0  0  0  3  0  0  0  0  0  0
  186.3930  179.0090  140.9590 C   0  0  0  0  0  3  0  0  0  0  0  0
  185.9000  177.4420  143.2180 C   0  0  0  0  0  3  0  0  0  0  0  0
  185.0710  178.7230  141.3280 C   0  0  0  0  0  0  0  0  0  0  0  0
  183.9450  179.2430  140.5340 C   0  0  0  0  0  0  0  0  0  0  0  0
  184.1840  179.9690  139.3320 N   0  0  0  0  0  1  0  0  0  0  0  0
  182.7590  179.0530  140.9130 O   0  0  0  0  0  0  0  0  0  0  0  0
  187.1640  177.4810  145.9160 C   0  0  0  0  0  3  0  0  0  0  0  0
  186.2780  178.7090  146.0280 C   0  0  0  0  0  1  0  0  0  0  0  0
  187.5540  176.9850  147.2970 C   0  0  0  0  0  1  0  0  0  0  0  0
  1 10  1  0  0  0  0
  1  2  1  0  0  0  0
  2 14  1  6  0  0  0
  2 13  1  0  0  0  0
  3  6  1  0  0  0  0
  4  1  2  0  0  0  0
  5  8  2  0  0  0  0
  7  4  1  0  0  0  0
  7 11  2  0  0  0  0
  8  7  1  0  0  0  0
  9  5  1  0  0  0  0
  9 12  1  0  0  0  0
 10  3  2  0  0  0  0
 11 10  1  0  0  0  0
 12  4  1  0  0  0  0
 13  6  2  0  0  0  0
 13 23  1  0  0  0  0
 14 18  1  0  0  0  0
 15 18  2  0  0  0  0
 16 14  2  0  0  0  0
 17 19  2  0  0  0  0
 17 16  1  0  0  0  0
 19 15  1  0  0  0  0
 20 22  2  0  0  0  0
 20 19  1  0  0  0  0
 21 20  1  0  0  0  0
 23 24  1  0  0  0  0
 23 25  1  0  0  0  0
M  END
>  <MODEL>
8

>  <REMARK>
 VINA RESULT:      -6.4      2.828      6.136
  Name = 
  3 active torsions:
  status: ('A' for Active; 'I' for Inactive)
    1  A    between atoms: C_2  and  C_25
    2  A    between atoms: C_3  and  C_6
    3  A    between atoms: C_13  and  C_24
                            x       y       z     vdW  Elec       q    Type
                         _______ _______ _______ _____ _____    ______ ____

>  <TORSDO>
F 3

$$$$
=
 OpenBabel10272400553D

 25 28  0  0  1  0  0  0  0  0999 V2000
  189.8320  177.4330  144.1120 C   0  0  0  0  0  0  0  0  0  0  0  0
  188.7670  176.9890  145.0670 C   0  0  1  0  0  3  0  0  0  0  0  0
  191.2560  178.3880  145.7860 N   0  0  0  0  0  0  0  0  0  0  0  0
  189.9950  177.2380  142.8180 C   0  0  0  0  0  0  0  0  0  0  0  0
  190.9690  177.1840  140.1500 C   0  0  0  0  0  3  0  0  0  0  0  0
  190.2960  178.0160  146.7950 C   0  0  0  0  0  3  0  0  0  0  0  0
  191.2870  177.8010  142.4570 C   0  0  0  0  0  0  0  0  0  0  0  0
  191.7950  177.6630  141.0940 C   0  0  0  0  0  3  0  0  0  0  0  0
  189.5000  176.8920  140.4190 C   0  0  0  0  0  2  0  0  0  0  0  0
  191.0180  178.1230  144.5420 C   0  0  0  0  0  0  0  0  0  0  0  0
  191.9230  178.3280  143.4600 N   0  0  0  0  0  0  0  0  0  0  0  0
  189.1990  176.4190  141.8560 C   0  0  0  0  0  2  0  0  0  0  0  0
  189.1400  177.3670  146.5000 C   0  0  0  0  0  0  0  0  0  0  0  0
  187.4310  177.5520  144.6780 C   0  0  0  0  0  0  0  0  0  0  0  0
  185.4260  178.8170  145.1980 C   0  0  0  0  0  3  0  0  0  0  0  0
  186.9460  177.3270  143.3870 C   0  0  0  0  0  3  0  0  0  0  0  0
  185.7070  177.8430  143.0010 C   0  0  0  0  0  3  0  0  0  0  0  0
  186.6650  178.3010  145.5850 C   0  0  0  0  0  3  0  0  0  0  0  0
  184.9370  178.5910  143.9030 C   0  0  0  0  0  0  0  0  0  0  0  0
  183.6300  179.1370  143.4960 C   0  0  0  0  0  0  0  0  0  0  0  0
  183.0630  178.7880  142.2370 N   0  0  0  0  0  1  0  0  0  0  0  0
  183.0030  179.9180  144.2590 O   0  0  0  0  0  0  0  0  0  0  0  0
  188.2050  176.9650  147.6050 C   0  0  0  0  0  3  0  0  0  0  0  0
  188.1200  178.0380  148.6750 C   0  0  0  0  0  1  0  0  0  0  0  0
  188.6100  175.6380  148.2200 C   0  0  0  0  0  1  0  0  0  0  0  0
  1 10  1  0  0  0  0
  1  2  1  0  0  0  0
  2 14  1  6  0  0  0
  2 13  1  0  0  0  0
  3  6  1  0  0  0  0
  4  1  2  0  0  0  0
  5  9  1  0  0  0  0
  5  8  2  0  0  0  0
  7  4  1  0  0  0  0
  7 11  2  0  0  0  0
  8  7  1  0  0  0  0
  9 12  1  0  0  0  0
 10  3  2  0  0  0  0
 11 10  1  0  0  0  0
 12  4  1  0  0  0  0
 13  6  2  0  0  0  0
 13 23  1  0  0  0  0
 14 18  1  0  0  0  0
 15 18  2  0  0  0  0
 16 14  2  0  0  0  0
 17 16  1  0  0  0  0
 17 19  2  0  0  0  0
 19 15  1  0  0  0  0
 20 19  1  0  0  0  0
 20 22  2  0  0  0  0
 21 20  1  0  0  0  0
 23 25  1  0  0  0  0
 23 24  1  0  0  0  0
M  END
>  <MODEL>
9

>  <REMARK>
 VINA RESULT:      -6.4      2.814      6.506
  Name = 
  3 active torsions:
  status: ('A' for Active; 'I' for Inactive)
    1  A    between atoms: C_2  and  C_25
    2  A    between atoms: C_3  and  C_6
    3  A    between atoms: C_13  and  C_24
                            x       y       z     vdW  Elec       q    Type
                         _______ _______ _______ _____ _____    ______ ____

>  <TORSDO>
F 3

$$$$
