=
 OpenBabel10272413403D

 32 36  0  0  1  0  0  0  0  0999 V2000
  191.5290  176.5430  137.3920 C   0  0  0  0  0  0  0  0  0  0  0  0
  188.3340  177.9810  141.0220 C   0  0  0  0  0  0  0  0  0  0  0  0
  185.8880  178.6300  141.4150 C   0  0  0  0  0  0  0  0  0  0  0  0
  184.7840  178.6110  142.3890 C   0  0  0  0  0  0  0  0  0  0  0  0
  189.2970  177.4170  138.8630 C   0  0  0  0  0  0  0  0  0  0  0  0
  190.5180  176.8590  140.9550 C   0  0  0  0  0  3  0  0  0  0  0  0
  182.8670  179.0650  144.4320 C   0  0  0  0  0  3  0  0  0  0  0  0
  191.5050  176.3980  138.7890 O   0  0  0  0  0  0  0  0  0  0  0  0
  189.5880  177.5250  141.6620 C   0  0  0  0  0  0  0  0  0  0  0  0
  189.7870  177.8510  143.0570 N   0  0  0  0  0  0  0  0  0  0  0  0
  187.3760  177.8560  143.2880 C   0  0  1  0  0  3  0  0  0  0  0  0
  182.3910  178.7720  143.0300 C   0  0  0  0  0  2  0  0  0  0  0  0
  190.5050  177.1310  136.7680 C   0  0  0  0  0  3  0  0  0  0  0  0
  190.2810  176.4800  139.5210 C   0  0  2  0  0  3  0  0  0  0  0  0
  183.5110  178.7810  142.0210 C   0  0  0  0  0  3  0  0  0  0  0  0
  189.3720  177.6540  137.5530 C   0  0  0  0  0  3  0  0  0  0  0  0
  188.6900  177.9460  143.9560 N   0  0  0  0  0  0  0  0  0  0  0  0
  186.3210  178.2890  144.2110 N   0  0  0  0  0  0  0  0  0  0  0  0
  188.2310  178.0020  139.6830 C   0  0  0  0  0  3  0  0  0  0  0  0
  185.6410  178.7880  140.1890 O   0  0  0  0  0  0  0  0  0  0  0  0
  184.1120  178.9190  144.7780 N   0  0  0  0  0  0  0  0  0  0  0  0
  187.3160  178.6110  141.9380 C   0  0  1  0  0  3  0  0  0  0  0  0
  185.1130  178.5560  143.8220 C   0  0  0  0  0  0  0  0  0  0  0  0
  191.3230  179.4200  144.1300 C   0  0  0  0  0  2  0  0  0  0  0  0
  191.0750  178.2370  143.5790 C   0  0  0  0  0  3  0  0  0  0  0  0
  188.9320  177.2880  146.2840 C   0  0  0  0  0  1  0  0  0  0  0  0
  188.7760  176.8020  144.8580 C   0  0  0  0  0  2  0  0  0  0  0  0
  192.6230  176.1030  136.6500 O   0  0  0  0  0  0  0  0  0  0  0  0
  193.3610  174.9520  137.0340 C   0  0  0  0  0  2  0  0  0  0  0  0
  194.7100  175.3380  137.4110 N   0  0  0  0  0  0  0  0  0  0  0  0
  195.5440  175.1780  136.2340 C   0  0  0  0  0  1  0  0  0  0  0  0
  195.1660  174.3570  138.3790 C   0  0  0  0  0  1  0  0  0  0  0  0
  1  8  1  0  0  0  0
  2  9  1  0  0  0  0
  3 22  1  0  0  0  0
  3  4  1  0  0  0  0
  4 23  1  0  0  0  0
  5 14  1  0  0  0  0
  5 19  1  0  0  0  0
  6  9  2  0  0  0  0
  7 21  2  0  0  0  0
  8 14  1  0  0  0  0
  9 10  1  0  0  0  0
 10 25  1  0  0  0  0
 10 17  1  0  0  0  0
 11 17  1  0  0  0  0
 11 18  1  1  0  0  0
 12  7  1  0  0  0  0
 13  1  2  0  0  0  0
 13 16  1  0  0  0  0
 14  6  1  1  0  0  0
 15  4  2  0  0  0  0
 15 12  1  0  0  0  0
 16  5  2  0  0  0  0
 17 27  1  0  0  0  0
 19  2  2  0  0  0  0
 20  3  2  0  0  0  0
 22  2  1  6  0  0  0
 22 11  1  0  0  0  0
 23 18  2  0  0  0  0
 23 21  1  0  0  0  0
 25 24  2  0  0  0  0
 27 26  1  0  0  0  0
 28 29  1  0  0  0  0
 28  1  1  0  0  0  0
 29 30  1  0  0  0  0
 30 32  1  0  0  0  0
 31 30  1  0  0  0  0
M  END
>  <MODEL>
1

>  <REMARK>
 VINA RESULT:      -8.9      0.000      0.000
  Name = 
  5 active torsions:
  status: ('A' for Active; 'I' for Inactive)
    1  A    between atoms: N_1  and  C_10
    2  A    between atoms: C_2  and  O_24
    3  A    between atoms: C_10  and  O_24
    4  A    between atoms: C_13  and  N_15
    5  A    between atoms: C_25  and  N_26
                            x       y       z     vdW  Elec       q    Type
                         _______ _______ _______ _____ _____    ______ ____

>  <TORSDO>
F 5

$$$$
=
 OpenBabel10272413403D

 32 36  0  0  1  0  0  0  0  0999 V2000
  189.3240  177.7580  137.4440 C   0  0  0  0  0  0  0  0  0  0  0  0
  187.9140  177.5720  142.2860 C   0  0  0  0  0  0  0  0  0  0  0  0
  188.8470  177.2380  144.6470 C   0  0  0  0  0  0  0  0  0  0  0  0
  188.6790  177.5970  146.0650 C   0  0  0  0  0  0  0  0  0  0  0  0
  189.2250  177.4730  140.2410 C   0  0  0  0  0  0  0  0  0  0  0  0
  186.9460  178.4670  140.2120 C   0  0  0  0  0  3  0  0  0  0  0  0
  188.0150  177.8430  148.8130 C   0  0  0  0  0  3  0  0  0  0  0  0
  188.2310  178.2660  138.1660 O   0  0  0  0  0  0  0  0  0  0  0  0
  186.7750  178.0840  141.4900 C   0  0  0  0  0  0  0  0  0  0  0  0
  185.4760  178.1210  142.1250 N   0  0  0  0  0  0  0  0  0  0  0  0
  186.6360  178.3610  144.2370 C   0  0  1  0  0  3  0  0  0  0  0  0
  189.4680  177.7930  148.4100 C   0  0  0  0  0  2  0  0  0  0  0  0
  190.2970  177.1060  138.0860 C   0  0  0  0  0  3  0  0  0  0  0  0
  188.3080  178.4730  139.5780 C   0  0  2  0  0  3  0  0  0  0  0  0
  189.6580  177.4340  146.9590 C   0  0  0  0  0  3  0  0  0  0  0  0
  190.2020  176.8950  139.5420 C   0  0  0  0  0  3  0  0  0  0  0  0
  185.3440  178.3500  143.5210 N   0  0  0  0  0  0  0  0  0  0  0  0
  186.4010  178.2680  145.6830 N   0  0  0  0  0  0  0  0  0  0  0  0
  189.0530  177.2080  141.6730 C   0  0  0  0  0  3  0  0  0  0  0  0
  189.9510  176.7820  144.2410 O   0  0  0  0  0  0  0  0  0  0  0  0
  187.0640  177.9800  147.9360 N   0  0  0  0  0  0  0  0  0  0  0  0
  187.6290  177.2850  143.7380 C   0  0  1  0  0  3  0  0  0  0  0  0
  187.3440  178.0010  146.5330 C   0  0  0  0  0  0  0  0  0  0  0  0
  183.5770  178.6600  140.6840 C   0  0  0  0  0  2  0  0  0  0  0  0
  184.2650  177.7890  141.4150 C   0  0  0  0  0  3  0  0  0  0  0  0
  183.3860  179.5670  144.2940 C   0  0  0  0  0  1  0  0  0  0  0  0
  184.7680  179.6810  143.6840 C   0  0  0  0  0  2  0  0  0  0  0  0
  189.3920  177.9020  136.0610 O   0  0  0  0  0  0  0  0  0  0  0  0
  189.1320  176.8090  135.1920 C   0  0  0  0  0  2  0  0  0  0  0  0
  187.8900  176.1600  135.5770 N   0  0  0  0  0  0  0  0  0  0  0  0
  188.0730  174.7340  135.3730 C   0  0  0  0  0  1  0  0  0  0  0  0
  186.8850  176.5890  134.6230 C   0  0  0  0  0  1  0  0  0  0  0  0
  1 13  2  0  0  0  0
  1  8  1  0  0  0  0
  3  4  1  0  0  0  0
  4 23  1  0  0  0  0
  4 15  2  0  0  0  0
  5 19  1  0  0  0  0
  6  9  2  0  0  0  0
  8 14  1  0  0  0  0
  9 10  1  0  0  0  0
  9  2  1  0  0  0  0
 10 17  1  0  0  0  0
 11 18  1  1  0  0  0
 12  7  1  0  0  0  0
 13 16  1  0  0  0  0
 14  6  1  1  0  0  0
 14  5  1  0  0  0  0
 15 12  1  0  0  0  0
 16  5  2  0  0  0  0
 17 27  1  0  0  0  0
 17 11  1  0  0  0  0
 18 23  2  0  0  0  0
 19  2  2  0  0  0  0
 20  3  2  0  0  0  0
 21  7  2  0  0  0  0
 22  2  1  6  0  0  0
 22 11  1  0  0  0  0
 22  3  1  0  0  0  0
 23 21  1  0  0  0  0
 24 25  2  0  0  0  0
 25 10  1  0  0  0  0
 27 26  1  0  0  0  0
 28  1  1  0  0  0  0
 29 30  1  0  0  0  0
 29 28  1  0  0  0  0
 31 30  1  0  0  0  0
 32 30  1  0  0  0  0
M  END
>  <MODEL>
2

>  <REMARK>
 VINA RESULT:      -8.1      2.755      5.140
  Name = 
  5 active torsions:
  status: ('A' for Active; 'I' for Inactive)
    1  A    between atoms: N_1  and  C_10
    2  A    between atoms: C_2  and  O_24
    3  A    between atoms: C_10  and  O_24
    4  A    between atoms: C_13  and  N_15
    5  A    between atoms: C_25  and  N_26
                            x       y       z     vdW  Elec       q    Type
                         _______ _______ _______ _____ _____    ______ ____

>  <TORSDO>
F 5

$$$$
=
 OpenBabel10272413403D

 32 36  0  0  1  0  0  0  0  0999 V2000
  189.6610  177.9430  144.3850 C   0  0  0  0  0  0  0  0  0  0  0  0
  190.9810  177.0080  139.6060 C   0  0  0  0  0  0  0  0  0  0  0  0
  193.0070  176.4360  138.1490 C   0  0  0  0  0  0  0  0  0  0  0  0
  193.4510  175.7250  136.9380 C   0  0  0  0  0  0  0  0  0  0  0  0
  191.0570  177.4170  142.0010 C   0  0  0  0  0  0  0  0  0  0  0  0
  188.8810  176.9810  140.8810 C   0  0  0  0  0  3  0  0  0  0  0  0
  194.1920  174.8370  134.3470 C   0  0  0  0  0  3  0  0  0  0  0  0
  188.9700  177.4910  143.2490 O   0  0  0  0  0  0  0  0  0  0  0  0
  189.5030  177.0040  139.6880 C   0  0  0  0  0  0  0  0  0  0  0  0
  188.7620  177.0590  138.4480 N   0  0  0  0  0  0  0  0  0  0  0  0
  190.6540  175.9760  137.3940 C   0  0  1  0  0  3  0  0  0  0  0  0
  195.1760  174.6920  135.4820 C   0  0  0  0  0  2  0  0  0  0  0  0
  190.9770  178.1590  144.3190 C   0  0  0  0  0  3  0  0  0  0  0  0
  189.6590  176.8720  142.1610 C   0  0  2  0  0  3  0  0  0  0  0  0
  194.7330  175.4090  136.7310 C   0  0  0  0  0  3  0  0  0  0  0  0
  191.6900  177.9520  143.0450 C   0  0  0  0  0  3  0  0  0  0  0  0
  189.2680  176.4680  137.2590 N   0  0  0  0  0  0  0  0  0  0  0  0
  191.2100  175.6920  136.0660 N   0  0  0  0  0  0  0  0  0  0  0  0
  191.7150  177.2840  140.6970 C   0  0  0  0  0  3  0  0  0  0  0  0
  193.8460  176.7450  139.0380 O   0  0  0  0  0  0  0  0  0  0  0  0
  192.9510  175.1660  134.5530 N   0  0  0  0  0  0  0  0  0  0  0  0
  191.5650  176.9140  138.2200 C   0  0  1  0  0  3  0  0  0  0  0  0
  192.4760  175.4950  135.8620 C   0  0  0  0  0  0  0  0  0  0  0  0
  187.3120  178.6530  137.2940 C   0  0  0  0  0  2  0  0  0  0  0  0
  187.5510  177.8330  138.3110 C   0  0  0  0  0  3  0  0  0  0  0  0
  187.8270  175.4340  135.5960 C   0  0  0  0  0  1  0  0  0  0  0  0
  188.4390  175.3010  136.9750 C   0  0  0  0  0  2  0  0  0  0  0  0
  188.9840  178.1970  145.5760 O   0  0  0  0  0  0  0  0  0  0  0  0
  189.1730  177.3770  146.7210 C   0  0  0  0  0  2  0  0  0  0  0  0
  187.9330  177.2950  147.4740 N   0  0  0  0  0  0  0  0  0  0  0  0
  186.9320  178.0390  146.7310 C   0  0  0  0  0  1  0  0  0  0  0  0
  188.1530  178.0190  148.7130 C   0  0  0  0  0  1  0  0  0  0  0  0
  1 28  1  0  0  0  0
  2  9  1  0  0  0  0
  2 19  2  0  0  0  0
  3 20  2  0  0  0  0
  4  3  1  0  0  0  0
  5 14  1  0  0  0  0
  5 16  2  0  0  0  0
  7 21  2  0  0  0  0
  7 12  1  0  0  0  0
  8  1  1  0  0  0  0
  9  6  2  0  0  0  0
 10  9  1  0  0  0  0
 11 18  1  6  0  0  0
 11 22  1  0  0  0  0
 12 15  1  0  0  0  0
 13  1  2  0  0  0  0
 14  6  1  6  0  0  0
 14  8  1  0  0  0  0
 15  4  2  0  0  0  0
 16 13  1  0  0  0  0
 17 11  1  0  0  0  0
 17 10  1  0  0  0  0
 19  5  1  0  0  0  0
 21 23  1  0  0  0  0
 22  3  1  1  0  0  0
 22  2  1  0  0  0  0
 23 18  2  0  0  0  0
 23  4  1  0  0  0  0
 24 25  2  0  0  0  0
 25 10  1  0  0  0  0
 26 27  1  0  0  0  0
 27 17  1  0  0  0  0
 28 29  1  0  0  0  0
 29 30  1  0  0  0  0
 30 32  1  0  0  0  0
 31 30  1  0  0  0  0
M  END
>  <MODEL>
3

>  <REMARK>
 VINA RESULT:      -7.4      3.028      9.217
  Name = 
  5 active torsions:
  status: ('A' for Active; 'I' for Inactive)
    1  A    between atoms: N_1  and  C_10
    2  A    between atoms: C_2  and  O_24
    3  A    between atoms: C_10  and  O_24
    4  A    between atoms: C_13  and  N_15
    5  A    between atoms: C_25  and  N_26
                            x       y       z     vdW  Elec       q    Type
                         _______ _______ _______ _____ _____    ______ ____

>  <TORSDO>
F 5

$$$$
=
 OpenBabel10272413403D

 32 36  0  0  1  0  0  0  0  0999 V2000
  190.5220  176.5590  143.7260 C   0  0  0  0  0  0  0  0  0  0  0  0
  186.1580  178.3730  141.9590 C   0  0  0  0  0  0  0  0  0  0  0  0
  184.8820  178.7880  139.7780 C   0  0  0  0  0  0  0  0  0  0  0  0
  183.5450  178.8530  139.1650 C   0  0  0  0  0  0  0  0  0  0  0  0
  188.4070  177.4610  142.1070 C   0  0  0  0  0  0  0  0  0  0  0  0
  186.9600  177.5410  144.1270 C   0  0  0  0  0  3  0  0  0  0  0  0
  180.9840  179.5160  138.1360 C   0  0  0  0  0  3  0  0  0  0  0  0
  189.2400  176.7300  144.2730 O   0  0  0  0  0  0  0  0  0  0  0  0
  186.0400  178.2300  143.4280 C   0  0  0  0  0  0  0  0  0  0  0  0
  184.9260  178.8830  144.0780 N   0  0  0  0  0  0  0  0  0  0  0  0
  183.7100  178.6430  141.9980 C   0  0  1  0  0  3  0  0  0  0  0  0
  181.9940  178.8590  137.2270 C   0  0  0  0  0  2  0  0  0  0  0  0
  190.7420  176.8620  142.4440 C   0  0  0  0  0  3  0  0  0  0  0  0
  188.0840  176.8240  143.4370 C   0  0  2  0  0  3  0  0  0  0  0  0
  183.3670  178.7790  137.8420 C   0  0  0  0  0  3  0  0  0  0  0  0
  189.6460  177.4050  141.6200 C   0  0  0  0  0  3  0  0  0  0  0  0
  183.6770  179.0420  143.4190 N   0  0  0  0  0  0  0  0  0  0  0  0
  182.5090  179.1400  141.3160 N   0  0  0  0  0  0  0  0  0  0  0  0
  187.3160  178.0790  141.3450 C   0  0  0  0  0  3  0  0  0  0  0  0
  185.9000  178.6350  139.0500 O   0  0  0  0  0  0  0  0  0  0  0  0
  181.1740  179.6050  139.4190 N   0  0  0  0  0  0  0  0  0  0  0  0
  185.0090  179.0620  141.2690 C   0  0  1  0  0  3  0  0  0  0  0  0
  182.3920  179.1630  140.0240 C   0  0  0  0  0  0  0  0  0  0  0  0
  185.2250  178.8750  146.5040 C   0  0  0  0  0  2  0  0  0  0  0  0
  185.0590  179.5310  145.3600 C   0  0  0  0  0  3  0  0  0  0  0  0
  181.3550  178.7880  144.0970 C   0  0  0  0  0  1  0  0  0  0  0  0
  182.7290  178.1490  144.0780 C   0  0  0  0  0  2  0  0  0  0  0  0
  191.5760  176.1020  144.5130 O   0  0  0  0  0  0  0  0  0  0  0  0
  191.9120  176.7370  145.7380 C   0  0  0  0  0  2  0  0  0  0  0  0
  191.3080  176.0150  146.8460 N   0  0  0  0  0  0  0  0  0  0  0  0
  190.3550  176.9140  147.4710 C   0  0  0  0  0  1  0  0  0  0  0  0
  192.3630  175.7890  147.8160 C   0  0  0  0  0  1  0  0  0  0  0  0
  1  8  1  0  0  0  0
  1 28  1  0  0  0  0
  2  9  1  0  0  0  0
  4  3  1  0  0  0  0
  4 23  1  0  0  0  0
  5 14  1  0  0  0  0
  7 21  2  0  0  0  0
  9 10  1  0  0  0  0
  9  6  2  0  0  0  0
 10 25  1  0  0  0  0
 11 18  1  6  0  0  0
 11 17  1  0  0  0  0
 12 15  1  0  0  0  0
 12  7  1  0  0  0  0
 13  1  2  0  0  0  0
 14  6  1  1  0  0  0
 14  8  1  0  0  0  0
 15  4  2  0  0  0  0
 16  5  2  0  0  0  0
 16 13  1  0  0  0  0
 17 10  1  0  0  0  0
 17 27  1  0  0  0  0
 19  2  2  0  0  0  0
 19  5  1  0  0  0  0
 20  3  2  0  0  0  0
 21 23  1  0  0  0  0
 22  3  1  6  0  0  0
 22  2  1  0  0  0  0
 22 11  1  0  0  0  0
 23 18  2  0  0  0  0
 25 24  2  0  0  0  0
 27 26  1  0  0  0  0
 28 29  1  0  0  0  0
 29 30  1  0  0  0  0
 30 31  1  0  0  0  0
 30 32  1  0  0  0  0
M  END
>  <MODEL>
4

>  <REMARK>
 VINA RESULT:      -7.3      3.897      6.029
  Name = 
  5 active torsions:
  status: ('A' for Active; 'I' for Inactive)
    1  A    between atoms: N_1  and  C_10
    2  A    between atoms: C_2  and  O_24
    3  A    between atoms: C_10  and  O_24
    4  A    between atoms: C_13  and  N_15
    5  A    between atoms: C_25  and  N_26
                            x       y       z     vdW  Elec       q    Type
                         _______ _______ _______ _____ _____    ______ ____

>  <TORSDO>
F 5

$$$$
=
 OpenBabel10272413403D

 32 36  0  0  1  0  0  0  0  0999 V2000
  189.7390  176.9140  145.7150 C   0  0  0  0  0  0  0  0  0  0  0  0
  188.4060  177.9720  140.9650 C   0  0  0  0  0  0  0  0  0  0  0  0
  189.2590  177.8420  138.5540 C   0  0  0  0  0  0  0  0  0  0  0  0
  188.8590  177.6720  137.1480 C   0  0  0  0  0  0  0  0  0  0  0  0
  189.6690  177.2990  142.9300 C   0  0  0  0  0  0  0  0  0  0  0  0
  187.2140  177.6530  143.0900 C   0  0  0  0  0  3  0  0  0  0  0  0
  188.0320  177.9020  134.4420 C   0  0  0  0  0  3  0  0  0  0  0  0
  188.5090  177.0800  145.0570 O   0  0  0  0  0  0  0  0  0  0  0  0
  187.2090  178.1110  141.8250 C   0  0  0  0  0  0  0  0  0  0  0  0
  186.0560  178.7840  141.2670 N   0  0  0  0  0  0  0  0  0  0  0  0
  186.8110  178.0380  139.0900 C   0  0  1  0  0  3  0  0  0  0  0  0
  189.3110  177.1670  134.7600 C   0  0  0  0  0  2  0  0  0  0  0  0
  190.8770  176.9760  145.0190 C   0  0  0  0  0  3  0  0  0  0  0  0
  188.3970  176.9110  143.6430 C   0  0  2  0  0  3  0  0  0  0  0  0
  189.7320  177.3240  136.1980 C   0  0  0  0  0  3  0  0  0  0  0  0
  190.8370  177.2520  143.5720 C   0  0  0  0  0  3  0  0  0  0  0  0
  185.7560  178.7040  139.8800 N   0  0  0  0  0  0  0  0  0  0  0  0
  186.5910  178.2880  137.6600 N   0  0  0  0  0  0  0  0  0  0  0  0
  189.5940  177.6610  141.5110 C   0  0  0  0  0  3  0  0  0  0  0  0
  190.4560  177.6350  138.8960 O   0  0  0  0  0  0  0  0  0  0  0  0
  187.1960  178.2580  135.3730 N   0  0  0  0  0  0  0  0  0  0  0  0
  188.2450  178.4130  139.5330 C   0  0  1  0  0  3  0  0  0  0  0  0
  187.4910  178.0470  136.7580 C   0  0  0  0  0  0  0  0  0  0  0  0
  184.3790  179.2740  142.9750 C   0  0  0  0  0  2  0  0  0  0  0  0
  185.2390  179.6800  142.0470 C   0  0  0  0  0  3  0  0  0  0  0  0
  183.4520  178.6940  139.1050 C   0  0  0  0  0  1  0  0  0  0  0  0
  184.5580  177.8830  139.7480 C   0  0  0  0  0  2  0  0  0  0  0  0
  189.7880  176.7100  147.0920 O   0  0  0  0  0  0  0  0  0  0  0  0
  188.6060  176.4780  147.8460 C   0  0  0  0  0  2  0  0  0  0  0  0
  188.2680  177.6700  148.6060 N   0  0  0  0  0  0  0  0  0  0  0  0
  187.2430  178.3760  147.8570 C   0  0  0  0  0  1  0  0  0  0  0  0
  189.4460  178.5170  148.5960 C   0  0  0  0  0  1  0  0  0  0  0  0
  1 28  1  0  0  0  0
  2 19  2  0  0  0  0
  2  9  1  0  0  0  0
  3 20  2  0  0  0  0
  4  3  1  0  0  0  0
  5 16  2  0  0  0  0
  5 14  1  0  0  0  0
  7 12  1  0  0  0  0
  7 21  2  0  0  0  0
  8  1  1  0  0  0  0
  9  6  2  0  0  0  0
 10  9  1  0  0  0  0
 10 25  1  0  0  0  0
 11 18  1  6  0  0  0
 11 22  1  0  0  0  0
 11 17  1  0  0  0  0
 12 15  1  0  0  0  0
 13  1  2  0  0  0  0
 14  6  1  6  0  0  0
 14  8  1  0  0  0  0
 15  4  2  0  0  0  0
 16 13  1  0  0  0  0
 17 10  1  0  0  0  0
 19  5  1  0  0  0  0
 21 23  1  0  0  0  0
 22  3  1  6  0  0  0
 22  2  1  0  0  0  0
 23  4  1  0  0  0  0
 23 18  2  0  0  0  0
 25 24  2  0  0  0  0
 26 27  1  0  0  0  0
 27 17  1  0  0  0  0
 28 29  1  0  0  0  0
 29 30  1  0  0  0  0
 31 30  1  0  0  0  0
 32 30  1  0  0  0  0
M  END
>  <MODEL>
5

>  <REMARK>
 VINA RESULT:      -7.1      3.212      7.882
  Name = 
  5 active torsions:
  status: ('A' for Active; 'I' for Inactive)
    1  A    between atoms: N_1  and  C_10
    2  A    between atoms: C_2  and  O_24
    3  A    between atoms: C_10  and  O_24
    4  A    between atoms: C_13  and  N_15
    5  A    between atoms: C_25  and  N_26
                            x       y       z     vdW  Elec       q    Type
                         _______ _______ _______ _____ _____    ______ ____

>  <TORSDO>
F 5

$$$$
=
 OpenBabel10272413403D

 32 36  0  0  1  0  0  0  0  0999 V2000
  189.2840  177.5700  147.2090 C   0  0  0  0  0  0  0  0  0  0  0  0
  186.8190  177.8410  142.8150 C   0  0  0  0  0  0  0  0  0  0  0  0
  184.5000  178.2960  141.8280 C   0  0  0  0  0  0  0  0  0  0  0  0
  183.7770  178.8380  140.6670 C   0  0  0  0  0  0  0  0  0  0  0  0
  187.3420  177.8040  145.1890 C   0  0  0  0  0  0  0  0  0  0  0  0
  189.1720  177.9460  143.5130 C   0  0  0  0  0  3  0  0  0  0  0  0
  182.4210  179.3630  138.2290 C   0  0  0  0  0  3  0  0  0  0  0  0
  189.6740  177.8070  145.8810 O   0  0  0  0  0  0  0  0  0  0  0  0
  188.2700  177.7770  142.5300 C   0  0  0  0  0  0  0  0  0  0  0  0
  188.6750  177.4940  141.1700 N   0  0  0  0  0  0  0  0  0  0  0  0
  186.5950  178.5070  140.4550 C   0  0  1  0  0  3  0  0  0  0  0  0
  181.7570  179.7310  139.5320 C   0  0  0  0  0  2  0  0  0  0  0  0
  187.9900  177.4190  147.5040 C   0  0  0  0  0  3  0  0  0  0  0  0
  188.7430  178.2910  144.9110 C   0  0  2  0  0  3  0  0  0  0  0  0
  182.4890  179.1880  140.7330 C   0  0  0  0  0  3  0  0  0  0  0  0
  186.9830  177.4690  146.4280 C   0  0  0  0  0  3  0  0  0  0  0  0
  187.8950  177.9250  140.0640 N   0  0  0  0  0  0  0  0  0  0  0  0
  185.7270  178.6170  139.2760 N   0  0  0  0  0  0  0  0  0  0  0  0
  186.3790  177.7740  144.0820 C   0  0  0  0  0  3  0  0  0  0  0  0
  183.9080  178.1710  142.9350 O   0  0  0  0  0  0  0  0  0  0  0  0
  183.6700  179.0010  138.1730 N   0  0  0  0  0  0  0  0  0  0  0  0
  185.9060  177.7560  141.6190 C   0  0  1  0  0  3  0  0  0  0  0  0
  184.4540  178.8490  139.3610 C   0  0  0  0  0  0  0  0  0  0  0  0
  191.0470  177.0890  140.7420 C   0  0  0  0  0  2  0  0  0  0  0  0
  189.8000  176.6440  140.8660 C   0  0  0  0  0  3  0  0  0  0  0  0
  188.9910  178.5640  137.9890 C   0  0  0  0  0  1  0  0  0  0  0  0
  188.6430  178.9890  139.4010 C   0  0  0  0  0  2  0  0  0  0  0  0
  190.2350  177.4630  148.2210 O   0  0  0  0  0  0  0  0  0  0  0  0
  191.6100  177.2690  147.9250 C   0  0  0  0  0  2  0  0  0  0  0  0
  191.9030  175.8470  147.8630 N   0  0  0  0  0  0  0  0  0  0  0  0
  193.0980  175.6230  148.6570 C   0  0  0  0  0  1  0  0  0  0  0  0
  192.2600  175.5570  146.4860 C   0  0  0  0  0  1  0  0  0  0  0  0
  1 13  2  0  0  0  0
  1 28  1  0  0  0  0
  2 19  2  0  0  0  0
  3 20  2  0  0  0  0
  4 15  2  0  0  0  0
  4  3  1  0  0  0  0
  5 16  2  0  0  0  0
  7 12  1  0  0  0  0
  8  1  1  0  0  0  0
  9  2  1  0  0  0  0
  9  6  2  0  0  0  0
 10  9  1  0  0  0  0
 11 18  1  6  0  0  0
 11 22  1  0  0  0  0
 12 15  1  0  0  0  0
 14  6  1  6  0  0  0
 14  5  1  0  0  0  0
 14  8  1  0  0  0  0
 16 13  1  0  0  0  0
 17 11  1  0  0  0  0
 17 10  1  0  0  0  0
 18 23  2  0  0  0  0
 19  5  1  0  0  0  0
 21  7  2  0  0  0  0
 21 23  1  0  0  0  0
 22  3  1  1  0  0  0
 22  2  1  0  0  0  0
 23  4  1  0  0  0  0
 24 25  2  0  0  0  0
 25 10  1  0  0  0  0
 26 27  1  0  0  0  0
 27 17  1  0  0  0  0
 29 28  1  0  0  0  0
 30 29  1  0  0  0  0
 30 31  1  0  0  0  0
 32 30  1  0  0  0  0
M  END
>  <MODEL>
6

>  <REMARK>
 VINA RESULT:      -6.9      3.716      6.692
  Name = 
  5 active torsions:
  status: ('A' for Active; 'I' for Inactive)
    1  A    between atoms: N_1  and  C_10
    2  A    between atoms: C_2  and  O_24
    3  A    between atoms: C_10  and  O_24
    4  A    between atoms: C_13  and  N_15
    5  A    between atoms: C_25  and  N_26
                            x       y       z     vdW  Elec       q    Type
                         _______ _______ _______ _____ _____    ______ ____

>  <TORSDO>
F 5

$$$$
=
 OpenBabel10272413403D

 32 36  0  0  1  0  0  0  0  0999 V2000
  189.3470  177.6340  137.5440 C   0  0  0  0  0  0  0  0  0  0  0  0
  187.8530  177.6760  142.3640 C   0  0  0  0  0  0  0  0  0  0  0  0
  188.7240  177.3400  144.7480 C   0  0  0  0  0  0  0  0  0  0  0  0
  188.5600  177.7470  146.1530 C   0  0  0  0  0  0  0  0  0  0  0  0
  189.1850  177.4320  140.3450 C   0  0  0  0  0  0  0  0  0  0  0  0
  186.9830  178.5810  140.2520 C   0  0  0  0  0  3  0  0  0  0  0  0
  187.8720  178.1120  148.8830 C   0  0  0  0  0  3  0  0  0  0  0  0
  188.2820  178.2370  138.2340 O   0  0  0  0  0  0  0  0  0  0  0  0
  186.7650  178.2440  141.5360 C   0  0  0  0  0  0  0  0  0  0  0  0
  185.4630  178.3890  142.1470 N   0  0  0  0  0  0  0  0  0  0  0  0
  186.6040  178.6040  144.2720 C   0  0  1  0  0  3  0  0  0  0  0  0
  189.3240  177.9500  148.5060 C   0  0  0  0  0  2  0  0  0  0  0  0
  190.2620  176.9330  138.2190 C   0  0  0  0  0  3  0  0  0  0  0  0
  188.3510  178.4750  139.6410 C   0  0  2  0  0  3  0  0  0  0  0  0
  189.5110  177.5400  147.0680 C   0  0  0  0  0  3  0  0  0  0  0  0
  190.1300  176.7690  139.6780 C   0  0  0  0  0  3  0  0  0  0  0  0
  185.3260  178.6630  143.5340 N   0  0  0  0  0  0  0  0  0  0  0  0
  186.3410  178.5650  145.7160 N   0  0  0  0  0  0  0  0  0  0  0  0
  188.9730  177.2170  141.7800 C   0  0  0  0  0  3  0  0  0  0  0  0
  189.8000  176.7980  144.3730 O   0  0  0  0  0  0  0  0  0  0  0  0
  186.9470  178.2910  147.9860 N   0  0  0  0  0  0  0  0  0  0  0  0
  187.5260  177.4480  143.8170 C   0  0  1  0  0  3  0  0  0  0  0  0
  187.2500  178.2550  146.5880 C   0  0  0  0  0  0  0  0  0  0  0  0
  183.0290  178.2810  141.9440 C   0  0  0  0  0  2  0  0  0  0  0  0
  184.2420  178.1230  141.4250 C   0  0  0  0  0  3  0  0  0  0  0  0
  183.6080  180.0660  144.5330 C   0  0  0  0  0  1  0  0  0  0  0  0
  184.8420  180.0350  143.6540 C   0  0  0  0  0  2  0  0  0  0  0  0
  189.4460  177.7360  136.1590 O   0  0  0  0  0  0  0  0  0  0  0  0
  189.2430  176.6090  135.3200 C   0  0  0  0  0  2  0  0  0  0  0  0
  190.1310  175.5310  135.7220 N   0  0  0  0  0  0  0  0  0  0  0  0
  191.1910  175.4600  134.7330 C   0  0  0  0  0  1  0  0  0  0  0  0
  189.3700  174.3010  135.6040 C   0  0  0  0  0  1  0  0  0  0  0  0
  1 13  2  0  0  0  0
  1  8  1  0  0  0  0
  3  4  1  0  0  0  0
  4 23  1  0  0  0  0
  4 15  2  0  0  0  0
  5 19  1  0  0  0  0
  6  9  2  0  0  0  0
  8 14  1  0  0  0  0
  9 10  1  0  0  0  0
  9  2  1  0  0  0  0
 10 17  1  0  0  0  0
 11 18  1  1  0  0  0
 12  7  1  0  0  0  0
 13 16  1  0  0  0  0
 14  6  1  1  0  0  0
 14  5  1  0  0  0  0
 15 12  1  0  0  0  0
 16  5  2  0  0  0  0
 17 27  1  0  0  0  0
 17 11  1  0  0  0  0
 18 23  2  0  0  0  0
 19  2  2  0  0  0  0
 20  3  2  0  0  0  0
 21  7  2  0  0  0  0
 22  2  1  6  0  0  0
 22 11  1  0  0  0  0
 22  3  1  0  0  0  0
 23 21  1  0  0  0  0
 25 24  2  0  0  0  0
 25 10  1  0  0  0  0
 27 26  1  0  0  0  0
 28  1  1  0  0  0  0
 29 30  1  0  0  0  0
 29 28  1  0  0  0  0
 31 30  1  0  0  0  0
 32 30  1  0  0  0  0
M  END
>  <MODEL>
7

>  <REMARK>
 VINA RESULT:      -6.4      2.473      4.788
  Name = 
  5 active torsions:
  status: ('A' for Active; 'I' for Inactive)
    1  A    between atoms: N_1  and  C_10
    2  A    between atoms: C_2  and  O_24
    3  A    between atoms: C_10  and  O_24
    4  A    between atoms: C_13  and  N_15
    5  A    between atoms: C_25  and  N_26
                            x       y       z     vdW  Elec       q    Type
                         _______ _______ _______ _____ _____    ______ ____

>  <TORSDO>
F 5

$$$$
=
 OpenBabel10272413403D

 32 36  0  0  1  0  0  0  0  0999 V2000
  189.4640  177.8850  144.4160 C   0  0  0  0  0  0  0  0  0  0  0  0
  185.7210  178.4220  141.0750 C   0  0  0  0  0  0  0  0  0  0  0  0
  185.2190  178.2760  138.5680 C   0  0  0  0  0  0  0  0  0  0  0  0
  184.1860  177.9580  137.5680 C   0  0  0  0  0  0  0  0  0  0  0  0
  187.9070  178.0800  142.0820 C   0  0  0  0  0  0  0  0  0  0  0  0
  185.8660  178.0540  143.5000 C   0  0  0  0  0  3  0  0  0  0  0  0
  182.0600  177.8860  135.6900 C   0  0  0  0  0  3  0  0  0  0  0  0
  188.0640  177.8160  144.4950 O   0  0  0  0  0  0  0  0  0  0  0  0
  185.1340  178.4250  142.4340 C   0  0  0  0  0  0  0  0  0  0  0  0
  183.7660  178.8720  142.5720 N   0  0  0  0  0  0  0  0  0  0  0  0
  183.4030  178.1200  140.3000 C   0  0  1  0  0  3  0  0  0  0  0  0
  183.4210  177.3810  135.2790 C   0  0  0  0  0  2  0  0  0  0  0  0
  190.0530  178.0820  143.2330 C   0  0  0  0  0  3  0  0  0  0  0  0
  187.2690  177.5420  143.3390 C   0  0  2  0  0  3  0  0  0  0  0  0
  184.4890  177.6930  136.2940 C   0  0  0  0  0  3  0  0  0  0  0  0
  189.2270  178.2570  142.0240 C   0  0  0  0  0  3  0  0  0  0  0  0
  182.8120  178.6600  141.5400 N   0  0  0  0  0  0  0  0  0  0  0  0
  182.4400  178.2420  139.1980 N   0  0  0  0  0  0  0  0  0  0  0  0
  187.0520  178.3360  140.9170 C   0  0  0  0  0  3  0  0  0  0  0  0
  186.4350  178.2810  138.2340 O   0  0  0  0  0  0  0  0  0  0  0  0
  181.7770  178.1640  136.9290 N   0  0  0  0  0  0  0  0  0  0  0  0
  184.7750  178.7420  139.9460 C   0  0  1  0  0  3  0  0  0  0  0  0
  182.7730  178.0880  137.9540 C   0  0  0  0  0  0  0  0  0  0  0  0
  182.8230  179.1710  144.8080 C   0  0  0  0  0  2  0  0  0  0  0  0
  183.3310  179.6770  143.6880 C   0  0  0  0  0  3  0  0  0  0  0  0
  180.4620  178.2000  141.9610 C   0  0  0  0  0  1  0  0  0  0  0  0
  181.8730  177.6540  142.0250 C   0  0  0  0  0  2  0  0  0  0  0  0
  190.2480  177.7790  145.5620 O   0  0  0  0  0  0  0  0  0  0  0  0
  191.4460  177.0160  145.5680 C   0  0  0  0  0  2  0  0  0  0  0  0
  191.9620  176.9240  146.9230 N   0  0  0  0  0  0  0  0  0  0  0  0
  192.3530  175.5420  147.1380 C   0  0  0  0  0  1  0  0  0  0  0  0
  190.8430  177.1810  147.8110 C   0  0  0  0  0  1  0  0  0  0  0  0
  1  8  1  0  0  0  0
  1 28  1  0  0  0  0
  2  9  1  0  0  0  0
  4 23  1  0  0  0  0
  4  3  1  0  0  0  0
  5 14  1  0  0  0  0
  7 21  2  0  0  0  0
  9 10  1  0  0  0  0
  9  6  2  0  0  0  0
 10 25  1  0  0  0  0
 11 18  1  6  0  0  0
 11 17  1  0  0  0  0
 12  7  1  0  0  0  0
 12 15  1  0  0  0  0
 13  1  2  0  0  0  0
 14  6  1  1  0  0  0
 14  8  1  0  0  0  0
 15  4  2  0  0  0  0
 16  5  2  0  0  0  0
 16 13  1  0  0  0  0
 17 27  1  0  0  0  0
 17 10  1  0  0  0  0
 19  2  2  0  0  0  0
 19  5  1  0  0  0  0
 20  3  2  0  0  0  0
 21 23  1  0  0  0  0
 22  3  1  6  0  0  0
 22 11  1  0  0  0  0
 22  2  1  0  0  0  0
 23 18  2  0  0  0  0
 25 24  2  0  0  0  0
 26 27  1  0  0  0  0
 28 29  1  0  0  0  0
 29 30  1  0  0  0  0
 30 31  1  0  0  0  0
 30 32  1  0  0  0  0
M  END
>  <MODEL>
8

>  <REMARK>
 VINA RESULT:      -6.3      4.190      6.927
  Name = 
  5 active torsions:
  status: ('A' for Active; 'I' for Inactive)
    1  A    between atoms: N_1  and  C_10
    2  A    between atoms: C_2  and  O_24
    3  A    between atoms: C_10  and  O_24
    4  A    between atoms: C_13  and  N_15
    5  A    between atoms: C_25  and  N_26
                            x       y       z     vdW  Elec       q    Type
                         _______ _______ _______ _____ _____    ______ ____

>  <TORSDO>
F 5

$$$$
=
 OpenBabel10272413403D

 32 36  0  0  1  0  0  0  0  0999 V2000
  188.7360  177.0250  135.7730 C   0  0  0  0  0  0  0  0  0  0  0  0
  188.0270  177.9540  140.6820 C   0  0  0  0  0  0  0  0  0  0  0  0
  186.2250  178.6490  142.3630 C   0  0  0  0  0  0  0  0  0  0  0  0
  185.7680  178.5140  143.7560 C   0  0  0  0  0  0  0  0  0  0  0  0
  187.6890  177.7380  138.2840 C   0  0  0  0  0  0  0  0  0  0  0  0
  189.7050  176.7490  139.3510 C   0  0  0  0  0  3  0  0  0  0  0  0
  185.2190  178.6940  146.5350 C   0  0  0  0  0  3  0  0  0  0  0  0
  189.3970  176.6330  136.9500 O   0  0  0  0  0  0  0  0  0  0  0  0
  189.3570  177.3250  140.5160 C   0  0  0  0  0  0  0  0  0  0  0  0
  190.2720  177.3850  141.6350 N   0  0  0  0  0  0  0  0  0  0  0  0
  188.3290  177.4740  143.0790 C   0  0  1  0  0  3  0  0  0  0  0  0
  184.0690  178.6820  145.5580 C   0  0  0  0  0  2  0  0  0  0  0  0
  187.6300  177.7690  135.8510 C   0  0  0  0  0  3  0  0  0  0  0  0
  188.7300  176.6470  138.2130 C   0  0  2  0  0  3  0  0  0  0  0  0
  184.5200  178.8130  144.1260 C   0  0  0  0  0  3  0  0  0  0  0  0
  187.1270  178.2020  137.1680 C   0  0  0  0  0  3  0  0  0  0  0  0
  189.7990  177.3740  142.9750 N   0  0  0  0  0  0  0  0  0  0  0  0
  187.9510  177.7890  144.4610 N   0  0  0  0  0  0  0  0  0  0  0  0
  187.2700  178.2200  139.6050 C   0  0  0  0  0  3  0  0  0  0  0  0
  185.4200  179.0380  141.4740 O   0  0  0  0  0  0  0  0  0  0  0  0
  186.4360  178.4220  146.1650 N   0  0  0  0  0  0  0  0  0  0  0  0
  187.7040  178.4610  142.0640 C   0  0  1  0  0  3  0  0  0  0  0  0
  186.7610  178.1850  144.7910 C   0  0  0  0  0  0  0  0  0  0  0  0
  192.2950  177.5710  140.2770 C   0  0  0  0  0  2  0  0  0  0  0  0
  191.6870  177.6020  141.4580 C   0  0  0  0  0  3  0  0  0  0  0  0
  191.0150  176.2990  144.7860 C   0  0  0  0  0  1  0  0  0  0  0  0
  190.1680  176.0840  143.5490 C   0  0  0  0  0  2  0  0  0  0  0  0
  189.2370  176.6700  134.5240 O   0  0  0  0  0  0  0  0  0  0  0  0
  190.0070  175.4890  134.3460 C   0  0  0  0  0  2  0  0  0  0  0  0
  190.5060  175.0310  135.6320 N   0  0  0  0  0  0  0  0  0  0  0  0
  191.9540  174.9830  135.5340 C   0  0  0  0  0  1  0  0  0  0  0  0
  190.0560  173.6600  135.7860 C   0  0  0  0  0  1  0  0  0  0  0  0
  1 13  2  0  0  0  0
  1  8  1  0  0  0  0
  3  4  1  0  0  0  0
  4 15  2  0  0  0  0
  4 23  1  0  0  0  0
  5 19  1  0  0  0  0
  6  9  2  0  0  0  0
  8 14  1  0  0  0  0
  9  2  1  0  0  0  0
  9 10  1  0  0  0  0
 10 17  1  0  0  0  0
 11 18  1  1  0  0  0
 12  7  1  0  0  0  0
 13 16  1  0  0  0  0
 14  5  1  0  0  0  0
 14  6  1  1  0  0  0
 15 12  1  0  0  0  0
 16  5  2  0  0  0  0
 17 11  1  0  0  0  0
 17 27  1  0  0  0  0
 18 23  2  0  0  0  0
 19  2  2  0  0  0  0
 20  3  2  0  0  0  0
 21  7  2  0  0  0  0
 22  2  1  6  0  0  0
 22  3  1  0  0  0  0
 22 11  1  0  0  0  0
 23 21  1  0  0  0  0
 24 25  2  0  0  0  0
 25 10  1  0  0  0  0
 27 26  1  0  0  0  0
 28  1  1  0  0  0  0
 29 28  1  0  0  0  0
 29 30  1  0  0  0  0
 30 32  1  0  0  0  0
 31 30  1  0  0  0  0
M  END
>  <MODEL>
9

>  <REMARK>
 VINA RESULT:      -6.3      2.185      2.718
  Name = 
  5 active torsions:
  status: ('A' for Active; 'I' for Inactive)
    1  A    between atoms: N_1  and  C_10
    2  A    between atoms: C_2  and  O_24
    3  A    between atoms: C_10  and  O_24
    4  A    between atoms: C_13  and  N_15
    5  A    between atoms: C_25  and  N_26
                            x       y       z     vdW  Elec       q    Type
                         _______ _______ _______ _____ _____    ______ ____

>  <TORSDO>
F 5

$$$$
