=
 OpenBabel10272415093D

 34 38  0  0  1  0  0  0  0  0999 V2000
  186.9420  178.2280  139.5790 C   0  0  0  0  0  0  0  0  0  0  0  0
  188.9570  176.0640  137.3790 C   0  0  0  0  0  3  0  0  0  0  0  0
  186.9010  176.9680  137.1400 O   0  0  0  0  0  0  0  0  0  0  0  0
  185.7020  179.5750  141.3090 N   0  0  0  0  0  0  0  0  0  0  0  0
  186.9300  178.8400  140.9700 C   0  0  0  0  0  2  0  0  0  0  0  0
  184.5040  178.8380  139.3070 C   0  0  2  0  0  3  0  0  0  0  0  0
  184.3960  180.1280  138.7790 O   0  0  0  0  0  1  0  0  0  0  0  0
  184.5000  178.8970  140.8250 C   0  0  0  0  0  2  0  0  0  0  0  0
  185.8000  177.5780  137.5570 C   0  0  0  0  0  0  0  0  0  0  0  0
  185.7630  178.1840  138.8160 C   0  0  0  0  0  0  0  0  0  0  0  0
  184.7800  177.5810  136.8160 O   0  0  0  0  0  0  0  0  0  0  0  0
  190.1580  175.5740  138.1150 C   0  0  0  0  0  2  0  0  0  0  0  0
  191.0830  176.6650  138.5180 C   0  0  0  0  0  0  0  0  0  0  0  0
  190.6690  177.6530  139.3080 C   0  0  0  0  0  3  0  0  0  0  0  0
  188.0230  176.9030  137.8520 C   0  0  0  0  0  0  0  0  0  0  0  0
  189.2790  177.9370  139.7020 C   0  0  0  0  0  3  0  0  0  0  0  0
  188.1230  177.6350  139.0740 C   0  0  0  0  0  0  0  0  0  0  0  0
  192.5130  176.5460  138.1780 C   0  0  0  0  0  0  0  0  0  0  0  0
  193.4860  176.9480  139.0890 O   0  0  0  0  0  1  0  0  0  0  0  0
  192.8680  176.0950  137.0520 O   0  0  0  0  0  0  0  0  0  0  0  0
  185.5870  179.7460  142.7680 C   0  0  0  0  0  2  0  0  0  0  0  0
  185.5900  177.5620  145.8750 C   0  0  0  0  0  2  0  0  0  0  0  0
  186.6140  177.5540  143.3250 O   0  0  0  0  0  0  0  0  0  0  0  0
  189.2770  177.3210  146.5630 C   0  0  0  0  0  0  0  0  0  0  0  0
  187.9450  177.2760  146.7580 C   0  0  0  0  0  3  0  0  0  0  0  0
  186.9990  177.0260  145.6200 C   0  0  2  0  0  3  0  0  0  0  0  0
  188.8720  176.9610  144.0370 C   0  0  0  0  0  2  0  0  0  0  0  0
  187.5600  177.6480  144.3580 C   0  0  1  0  0  3  0  0  0  0  0  0
  189.8800  177.2610  145.1640 C   0  0  0  0  0  2  0  0  0  0  0  0
  185.5300  178.4440  143.6080 C   0  0  1  0  0  3  0  0  0  0  0  0
  185.3120  178.7400  145.0450 N   0  0  0  0  0  2  0  0  0  0  0  0
  190.1640  177.5690  147.7140 C   0  0  0  0  0  0  0  0  0  0  0  0
  189.7690  178.2730  148.6830 O   0  0  0  0  0  1  0  0  0  0  0  0
  191.4440  177.0280  147.7490 O   0  0  0  0  0  0  0  0  0  0  0  0
  1  5  1  0  0  0  0
  2 15  2  0  0  0  0
  2 12  1  0  0  0  0
  3  9  1  0  0  0  0
  3 15  1  0  0  0  0
  4 21  1  0  0  0  0
  5  4  1  0  0  0  0
  6  7  1  6  0  0  0
  6  8  1  0  0  0  0
  8  4  1  0  0  0  0
  9 10  1  0  0  0  0
 10  6  1  0  0  0  0
 10  1  2  0  0  0  0
 11  9  2  0  0  0  0
 12 13  1  0  0  0  0
 13 14  2  0  0  0  0
 14 16  1  0  0  0  0
 15 17  1  0  0  0  0
 17  1  1  0  0  0  0
 17 16  2  0  0  0  0
 18 13  1  0  0  0  0
 18 19  1  0  0  0  0
 20 18  2  0  0  0  0
 23 30  1  0  0  0  0
 23 28  1  0  0  0  0
 24 25  2  0  0  0  0
 24 32  1  0  0  0  0
 26 22  1  1  0  0  0
 26 25  1  0  0  0  0
 27 29  1  0  0  0  0
 28 27  1  6  0  0  0
 28 26  1  0  0  0  0
 29 24  1  0  0  0  0
 30 21  1  6  0  0  0
 30 31  1  0  0  0  0
 31 22  1  0  0  0  0
 32 34  2  0  0  0  0
 32 33  1  0  0  0  0
M  END
>  <MODEL>
1

>  <REMARK>
 VINA RESULT:      -9.5      0.000      0.000
  Name = 
  4 active torsions:
  status: ('A' for Active; 'I' for Inactive)
    1  A    between atoms: C_3  and  C_25
    2  A    between atoms: C_7  and  C_11
    3  A    between atoms: N_8  and  C_18
    4  A    between atoms: C_18  and  C_30
                            x       y       z     vdW  Elec       q    Type
                         _______ _______ _______ _____ _____    ______ ____

>  <TORSDO>
F 4

$$$$
=
 OpenBabel10272415093D

 34 38  0  0  1  0  0  0  0  0999 V2000
  184.1090  178.5470  142.2960 C   0  0  0  0  0  0  0  0  0  0  0  0
  184.4890  178.8600  145.9480 C   0  0  0  0  0  3  0  0  0  0  0  0
  182.6650  178.7040  144.6260 O   0  0  0  0  0  0  0  0  0  0  0  0
  184.1020  178.4850  139.7780 N   0  0  0  0  0  0  0  0  0  0  0  0
  184.9100  178.5600  141.0040 C   0  0  0  0  0  2  0  0  0  0  0  0
  181.9760  178.7600  140.9560 C   0  0  2  0  0  3  0  0  0  0  0  0
  181.5070  177.4910  140.6090 O   0  0  0  0  0  1  0  0  0  0  0  0
  182.8880  179.2940  139.8650 C   0  0  0  0  0  2  0  0  0  0  0  0
  182.0110  178.7210  143.4720 C   0  0  0  0  0  0  0  0  0  0  0  0
  182.7130  178.6980  142.2630 C   0  0  0  0  0  0  0  0  0  0  0  0
  180.7520  178.7860  143.4790 O   0  0  0  0  0  0  0  0  0  0  0  0
  185.9130  179.1470  146.2860 C   0  0  0  0  0  2  0  0  0  0  0  0
  186.8380  178.0480  145.9050 C   0  0  0  0  0  0  0  0  0  0  0  0
  186.9370  177.6470  144.6400 C   0  0  0  0  0  3  0  0  0  0  0  0
  183.9910  178.6450  144.7220 C   0  0  0  0  0  0  0  0  0  0  0  0
  186.0560  178.0360  143.5250 C   0  0  0  0  0  3  0  0  0  0  0  0
  184.7720  178.4530  143.5420 C   0  0  0  0  0  0  0  0  0  0  0  0
  187.7760  177.5260  146.9160 C   0  0  0  0  0  0  0  0  0  0  0  0
  187.5220  177.7150  148.2720 O   0  0  0  0  0  1  0  0  0  0  0  0
  188.8250  176.9170  146.5610 O   0  0  0  0  0  0  0  0  0  0  0  0
  184.8840  178.9380  138.6140 C   0  0  0  0  0  2  0  0  0  0  0  0
  185.5470  175.5840  136.9620 C   0  0  0  0  0  2  0  0  0  0  0  0
  186.1440  178.2400  136.5910 O   0  0  0  0  0  0  0  0  0  0  0  0
  189.3040  175.5060  137.0070 C   0  0  0  0  0  0  0  0  0  0  0  0
  188.0280  175.0820  136.9320 C   0  0  0  0  0  3  0  0  0  0  0  0
  186.9320  175.9920  136.4580 C   0  0  2  0  0  3  0  0  0  0  0  0
  188.5250  177.8430  136.2250 C   0  0  0  0  0  2  0  0  0  0  0  0
  187.2350  177.4100  136.8940 C   0  0  1  0  0  3  0  0  0  0  0  0
  189.6760  176.9630  136.7500 C   0  0  0  0  0  2  0  0  0  0  0  0
  185.0590  177.9140  137.4640 C   0  0  1  0  0  3  0  0  0  0  0  0
  185.0540  176.5230  137.9770 N   0  0  0  0  0  2  0  0  0  0  0  0
  190.3450  174.5750  137.4780 C   0  0  0  0  0  0  0  0  0  0  0  0
  190.2720  173.3470  137.2010 O   0  0  0  0  0  0  0  0  0  0  0  0
  191.4200  175.0370  138.2280 O   0  0  0  0  0  1  0  0  0  0  0  0
  1 17  1  0  0  0  0
  2 12  1  0  0  0  0
  3 15  1  0  0  0  0
  4  8  1  0  0  0  0
  4  5  1  0  0  0  0
  5  1  1  0  0  0  0
  6  7  1  6  0  0  0
  6 10  1  0  0  0  0
  8  6  1  0  0  0  0
  9 11  2  0  0  0  0
  9  3  1  0  0  0  0
 10  1  2  0  0  0  0
 10  9  1  0  0  0  0
 13 12  1  0  0  0  0
 13 18  1  0  0  0  0
 14 13  2  0  0  0  0
 15  2  2  0  0  0  0
 16 17  2  0  0  0  0
 16 14  1  0  0  0  0
 17 15  1  0  0  0  0
 18 19  1  0  0  0  0
 20 18  2  0  0  0  0
 21  4  1  0  0  0  0
 22 31  1  0  0  0  0
 23 28  1  0  0  0  0
 23 30  1  0  0  0  0
 24 32  1  0  0  0  0
 25 24  2  0  0  0  0
 26 28  1  0  0  0  0
 26 25  1  1  0  0  0
 26 22  1  0  0  0  0
 27 29  1  0  0  0  0
 28 27  1  6  0  0  0
 29 24  1  0  0  0  0
 30 31  1  0  0  0  0
 30 21  1  1  0  0  0
 32 34  1  0  0  0  0
 33 32  2  0  0  0  0
M  END
>  <MODEL>
2

>  <REMARK>
 VINA RESULT:      -9.4      2.409      7.879
  Name = 
  4 active torsions:
  status: ('A' for Active; 'I' for Inactive)
    1  A    between atoms: C_3  and  C_25
    2  A    between atoms: C_7  and  C_11
    3  A    between atoms: N_8  and  C_18
    4  A    between atoms: C_18  and  C_30
                            x       y       z     vdW  Elec       q    Type
                         _______ _______ _______ _____ _____    ______ ____

>  <TORSDO>
F 4

$$$$
=
 OpenBabel10272415093D

 34 38  0  0  1  0  0  0  0  0999 V2000
  189.7840  177.0690  137.9370 C   0  0  0  0  0  0  0  0  0  0  0  0
  191.6480  174.5100  136.0520 C   0  0  0  0  0  3  0  0  0  0  0  0
  189.7480  175.6400  135.5930 O   0  0  0  0  0  0  0  0  0  0  0  0
  188.6130  178.6880  139.4710 N   0  0  0  0  0  0  0  0  0  0  0  0
  189.7560  177.7820  139.2790 C   0  0  0  0  0  2  0  0  0  0  0  0
  187.4710  177.9550  137.4360 C   0  0  2  0  0  3  0  0  0  0  0  0
  187.5670  179.2030  136.8150 O   0  0  0  0  0  1  0  0  0  0  0  0
  187.3700  178.1300  138.9420 C   0  0  0  0  0  2  0  0  0  0  0  0
  188.7090  176.4130  135.8800 C   0  0  0  0  0  0  0  0  0  0  0  0
  188.6650  177.1140  137.0900 C   0  0  0  0  0  0  0  0  0  0  0  0
  187.7520  176.4860  135.0640 O   0  0  0  0  0  0  0  0  0  0  0  0
  192.7230  173.9320  136.9090 C   0  0  0  0  0  2  0  0  0  0  0  0
  193.7510  174.9270  137.3090 C   0  0  0  0  0  0  0  0  0  0  0  0
  193.4160  176.0170  137.9960 C   0  0  0  0  0  3  0  0  0  0  0  0
  190.8010  175.4910  136.3930 C   0  0  0  0  0  0  0  0  0  0  0  0
  192.0500  176.5000  138.2610 C   0  0  0  0  0  3  0  0  0  0  0  0
  190.9100  176.2970  137.5670 C   0  0  0  0  0  0  0  0  0  0  0  0
  195.1740  174.6060  137.0910 C   0  0  0  0  0  0  0  0  0  0  0  0
  196.1100  174.8540  138.0910 O   0  0  0  0  0  1  0  0  0  0  0  0
  195.5580  174.1190  135.9890 O   0  0  0  0  0  0  0  0  0  0  0  0
  188.4210  178.9830  140.9020 C   0  0  0  0  0  2  0  0  0  0  0  0
  186.2060  177.5320  143.6230 C   0  0  0  0  0  2  0  0  0  0  0  0
  188.6000  176.9990  142.3850 O   0  0  0  0  0  0  0  0  0  0  0  0
  188.5680  177.5640  146.5460 C   0  0  0  0  0  0  0  0  0  0  0  0
  187.4190  177.5200  145.8460 C   0  0  0  0  0  3  0  0  0  0  0  0
  187.3840  176.9990  144.4390 C   0  0  2  0  0  3  0  0  0  0  0  0
  189.8110  176.6470  144.4750 C   0  0  0  0  0  2  0  0  0  0  0  0
  188.6840  177.3470  143.7430 C   0  0  1  0  0  3  0  0  0  0  0  0
  189.9070  177.2180  145.9030 C   0  0  0  0  0  2  0  0  0  0  0  0
  187.6950  177.8960  141.7340 C   0  0  1  0  0  3  0  0  0  0  0  0
  186.6550  178.4910  142.6070 N   0  0  0  0  0  2  0  0  0  0  0  0
  188.5500  178.0850  147.9250 C   0  0  0  0  0  0  0  0  0  0  0  0
  189.6300  178.2980  148.5390 O   0  0  0  0  0  0  0  0  0  0  0  0
  187.3440  178.3520  148.5640 O   0  0  0  0  0  1  0  0  0  0  0  0
  1  5  1  0  0  0  0
  2 15  2  0  0  0  0
  2 12  1  0  0  0  0
  3  9  1  0  0  0  0
  3 15  1  0  0  0  0
  4 21  1  0  0  0  0
  5  4  1  0  0  0  0
  6  7  1  6  0  0  0
  6  8  1  0  0  0  0
  8  4  1  0  0  0  0
  9 10  1  0  0  0  0
 10  6  1  0  0  0  0
 10  1  2  0  0  0  0
 11  9  2  0  0  0  0
 12 13  1  0  0  0  0
 13 14  2  0  0  0  0
 14 16  1  0  0  0  0
 15 17  1  0  0  0  0
 17  1  1  0  0  0  0
 17 16  2  0  0  0  0
 18 13  1  0  0  0  0
 18 19  1  0  0  0  0
 20 18  2  0  0  0  0
 23 28  1  0  0  0  0
 24 32  1  0  0  0  0
 25 24  2  0  0  0  0
 26 22  1  6  0  0  0
 26 25  1  0  0  0  0
 27 29  1  0  0  0  0
 28 26  1  0  0  0  0
 28 27  1  1  0  0  0
 29 24  1  0  0  0  0
 30 21  1  1  0  0  0
 30 23  1  0  0  0  0
 30 31  1  0  0  0  0
 31 22  1  0  0  0  0
 32 33  2  0  0  0  0
 32 34  1  0  0  0  0
M  END
>  <MODEL>
3

>  <REMARK>
 VINA RESULT:      -9.4      1.977      3.035
  Name = 
  4 active torsions:
  status: ('A' for Active; 'I' for Inactive)
    1  A    between atoms: C_3  and  C_25
    2  A    between atoms: C_7  and  C_11
    3  A    between atoms: N_8  and  C_18
    4  A    between atoms: C_18  and  C_30
                            x       y       z     vdW  Elec       q    Type
                         _______ _______ _______ _____ _____    ______ ____

>  <TORSDO>
F 4

$$$$
=
 OpenBabel10272415093D

 34 38  0  0  1  0  0  0  0  0999 V2000
  186.2730  178.2110  144.0020 C   0  0  0  0  0  0  0  0  0  0  0  0
  188.9110  177.7490  146.5340 C   0  0  0  0  0  3  0  0  0  0  0  0
  186.6980  178.1620  146.7150 O   0  0  0  0  0  0  0  0  0  0  0  0
  184.6830  178.6350  142.0960 N   0  0  0  0  0  0  0  0  0  0  0  0
  186.0640  178.3360  142.5020 C   0  0  0  0  0  2  0  0  0  0  0  0
  183.9160  179.0370  144.3840 C   0  0  2  0  0  3  0  0  0  0  0  0
  183.0290  177.9570  144.3810 O   0  0  0  0  0  1  0  0  0  0  0  0
  184.0440  179.6070  142.9820 C   0  0  0  0  0  2  0  0  0  0  0  0
  185.5000  178.5110  146.2670 C   0  0  0  0  0  0  0  0  0  0  0  0
  185.2590  178.6010  144.8920 C   0  0  0  0  0  0  0  0  0  0  0  0
  184.5900  178.7870  147.0940 O   0  0  0  0  0  0  0  0  0  0  0  0
  190.2480  177.7200  145.8730 C   0  0  0  0  0  2  0  0  0  0  0  0
  190.4160  176.5730  144.9420 C   0  0  0  0  0  0  0  0  0  0  0  0
  189.5980  176.4120  143.9040 C   0  0  0  0  0  3  0  0  0  0  0  0
  187.7240  177.8610  145.9210 C   0  0  0  0  0  0  0  0  0  0  0  0
  188.3500  177.1510  143.6470 C   0  0  0  0  0  3  0  0  0  0  0  0
  187.5170  177.7690  144.5120 C   0  0  0  0  0  0  0  0  0  0  0  0
  191.6070  175.7150  145.0790 C   0  0  0  0  0  0  0  0  0  0  0  0
  192.2910  175.6530  146.2900 O   0  0  0  0  0  1  0  0  0  0  0  0
  192.0260  175.0420  144.0950 O   0  0  0  0  0  0  0  0  0  0  0  0
  184.6500  179.1630  140.7210 C   0  0  0  0  0  2  0  0  0  0  0  0
  182.3080  176.5220  139.3230 C   0  0  0  0  0  2  0  0  0  0  0  0
  184.0710  178.4270  138.4210 O   0  0  0  0  0  0  0  0  0  0  0  0
  184.7160  174.4190  137.3480 C   0  0  0  0  0  0  0  0  0  0  0  0
  183.6050  174.7860  138.0140 C   0  0  0  0  0  3  0  0  0  0  0  0
  183.1980  176.2270  138.1150 C   0  0  2  0  0  3  0  0  0  0  0  0
  185.2010  176.9130  136.8750 C   0  0  0  0  0  2  0  0  0  0  0  0
  184.4380  177.0950  138.1720 C   0  0  1  0  0  3  0  0  0  0  0  0
  185.6860  175.4530  136.7840 C   0  0  0  0  0  2  0  0  0  0  0  0
  183.6030  178.5330  139.7690 C   0  0  1  0  0  3  0  0  0  0  0  0
  183.0340  177.2900  140.3420 N   0  0  0  0  0  2  0  0  0  0  0  0
  185.0730  172.9900  137.2760 C   0  0  0  0  0  0  0  0  0  0  0  0
  186.2810  172.6400  137.1890 O   0  0  0  0  0  0  0  0  0  0  0  0
  184.0850  172.0130  137.3070 O   0  0  0  0  0  1  0  0  0  0  0  0
  1 17  1  0  0  0  0
  1 10  2  0  0  0  0
  4  5  1  0  0  0  0
  4  8  1  0  0  0  0
  5  1  1  0  0  0  0
  6  7  1  6  0  0  0
  6 10  1  0  0  0  0
  8  6  1  0  0  0  0
  9  3  1  0  0  0  0
  9 11  2  0  0  0  0
 10  9  1  0  0  0  0
 12  2  1  0  0  0  0
 13 18  1  0  0  0  0
 13 12  1  0  0  0  0
 14 13  2  0  0  0  0
 15  2  2  0  0  0  0
 15  3  1  0  0  0  0
 16 14  1  0  0  0  0
 16 17  2  0  0  0  0
 17 15  1  0  0  0  0
 18 19  1  0  0  0  0
 20 18  2  0  0  0  0
 21  4  1  0  0  0  0
 22 31  1  0  0  0  0
 23 30  1  0  0  0  0
 24 25  2  0  0  0  0
 26 25  1  1  0  0  0
 26 28  1  0  0  0  0
 26 22  1  0  0  0  0
 28 27  1  6  0  0  0
 28 23  1  0  0  0  0
 29 27  1  0  0  0  0
 29 24  1  0  0  0  0
 30 31  1  0  0  0  0
 30 21  1  1  0  0  0
 32 34  1  0  0  0  0
 32 24  1  0  0  0  0
 33 32  2  0  0  0  0
M  END
>  <MODEL>
4

>  <REMARK>
 VINA RESULT:      -9.3      3.160      7.758
  Name = 
  4 active torsions:
  status: ('A' for Active; 'I' for Inactive)
    1  A    between atoms: C_3  and  C_25
    2  A    between atoms: C_7  and  C_11
    3  A    between atoms: N_8  and  C_18
    4  A    between atoms: C_18  and  C_30
                            x       y       z     vdW  Elec       q    Type
                         _______ _______ _______ _____ _____    ______ ____

>  <TORSDO>
F 4

$$$$
=
 OpenBabel10272415093D

 34 38  0  0  1  0  0  0  0  0999 V2000
  183.3760  178.4030  140.9440 C   0  0  0  0  0  0  0  0  0  0  0  0
  183.2530  176.3740  137.8700 C   0  0  0  0  0  3  0  0  0  0  0  0
  181.6520  176.9960  139.3350 O   0  0  0  0  0  0  0  0  0  0  0  0
  183.7380  179.6910  143.0770 N   0  0  0  0  0  0  0  0  0  0  0  0
  184.3520  179.0960  141.8810 C   0  0  0  0  0  2  0  0  0  0  0  0
  181.5460  178.6860  142.6630 C   0  0  2  0  0  3  0  0  0  0  0  0
  180.9090  179.9160  142.4770 O   0  0  0  0  0  1  0  0  0  0  0  0
  182.6940  178.8400  143.6460 C   0  0  0  0  0  2  0  0  0  0  0  0
  181.1940  177.4890  140.4780 C   0  0  0  0  0  0  0  0  0  0  0  0
  182.0530  178.1650  141.3500 C   0  0  0  0  0  0  0  0  0  0  0  0
  179.9820  177.3190  140.7810 O   0  0  0  0  0  0  0  0  0  0  0  0
  184.6380  176.0840  137.3980 C   0  0  0  0  0  2  0  0  0  0  0  0
  185.3920  177.3050  137.0120 C   0  0  0  0  0  0  0  0  0  0  0  0
  185.6050  178.2830  137.8910 C   0  0  0  0  0  3  0  0  0  0  0  0
  182.9140  177.1170  138.9330 C   0  0  0  0  0  0  0  0  0  0  0  0
  184.9890  178.4140  139.2220 C   0  0  0  0  0  3  0  0  0  0  0  0
  183.8150  177.9320  139.6840 C   0  0  0  0  0  0  0  0  0  0  0  0
  186.0540  177.3450  135.6950 C   0  0  0  0  0  0  0  0  0  0  0  0
  187.1030  178.2310  135.4640 O   0  0  0  0  0  1  0  0  0  0  0  0
  185.6650  176.5880  134.7600 O   0  0  0  0  0  0  0  0  0  0  0  0
  184.7560  179.9380  144.1140 C   0  0  0  0  0  2  0  0  0  0  0  0
  186.5980  177.9930  146.8040 C   0  0  0  0  0  2  0  0  0  0  0  0
  185.7300  177.6570  144.2190 O   0  0  0  0  0  0  0  0  0  0  0  0
  189.8270  177.2310  145.0380 C   0  0  0  0  0  0  0  0  0  0  0  0
  188.9370  177.4050  146.0330 C   0  0  0  0  0  3  0  0  0  0  0  0
  187.4650  177.2300  145.8010 C   0  0  2  0  0  3  0  0  0  0  0  0
  187.8620  176.7700  143.4250 C   0  0  0  0  0  2  0  0  0  0  0  0
  187.1230  177.6720  144.3930 C   0  0  1  0  0  3  0  0  0  0  0  0
  189.3770  176.9860  143.6010 C   0  0  0  0  0  2  0  0  0  0  0  0
  185.1570  178.7200  144.9840 C   0  0  1  0  0  3  0  0  0  0  0  0
  185.9400  179.1410  146.1700 N   0  0  0  0  0  2  0  0  0  0  0  0
  191.2630  177.4150  145.3160 C   0  0  0  0  0  0  0  0  0  0  0  0
  191.9620  178.1660  144.5840 O   0  0  0  0  0  0  0  0  0  0  0  0
  191.8630  176.7670  146.3890 O   0  0  0  0  0  1  0  0  0  0  0  0
  1 10  2  0  0  0  0
  1  5  1  0  0  0  0
  2 15  2  0  0  0  0
  3  9  1  0  0  0  0
  4  8  1  0  0  0  0
  4 21  1  0  0  0  0
  5  4  1  0  0  0  0
  6  7  1  6  0  0  0
  6  8  1  0  0  0  0
  9 11  2  0  0  0  0
  9 10  1  0  0  0  0
 10  6  1  0  0  0  0
 12  2  1  0  0  0  0
 13 12  1  0  0  0  0
 13 14  2  0  0  0  0
 14 16  1  0  0  0  0
 15  3  1  0  0  0  0
 15 17  1  0  0  0  0
 16 17  2  0  0  0  0
 17  1  1  0  0  0  0
 18 13  1  0  0  0  0
 19 18  1  0  0  0  0
 20 18  2  0  0  0  0
 23 28  1  0  0  0  0
 23 30  1  0  0  0  0
 24 32  1  0  0  0  0
 24 25  2  0  0  0  0
 26 25  1  1  0  0  0
 26 22  1  0  0  0  0
 27 29  1  0  0  0  0
 28 27  1  6  0  0  0
 28 26  1  0  0  0  0
 29 24  1  0  0  0  0
 30 21  1  6  0  0  0
 30 31  1  0  0  0  0
 31 22  1  0  0  0  0
 32 34  1  0  0  0  0
 33 32  2  0  0  0  0
M  END
>  <MODEL>
5

>  <REMARK>
 VINA RESULT:      -9.1      3.039      4.239
  Name = 
  4 active torsions:
  status: ('A' for Active; 'I' for Inactive)
    1  A    between atoms: C_3  and  C_25
    2  A    between atoms: C_7  and  C_11
    3  A    between atoms: N_8  and  C_18
    4  A    between atoms: C_18  and  C_30
                            x       y       z     vdW  Elec       q    Type
                         _______ _______ _______ _____ _____    ______ ____

>  <TORSDO>
F 4

$$$$
=
 OpenBabel10272415093D

 34 38  0  0  1  0  0  0  0  0999 V2000
  186.1610  178.1660  144.0630 C   0  0  0  0  0  0  0  0  0  0  0  0
  188.8940  177.8120  146.5100 C   0  0  0  0  0  3  0  0  0  0  0  0
  186.6820  178.1930  146.7590 O   0  0  0  0  0  0  0  0  0  0  0  0
  184.4970  178.5140  142.2050 N   0  0  0  0  0  0  0  0  0  0  0  0
  185.8970  178.2480  142.5680 C   0  0  0  0  0  2  0  0  0  0  0  0
  183.8040  178.9620  144.5080 C   0  0  2  0  0  3  0  0  0  0  0  0
  182.9380  177.8670  144.5630 O   0  0  0  0  0  1  0  0  0  0  0  0
  183.8730  179.4980  143.0880 C   0  0  0  0  0  2  0  0  0  0  0  0
  185.4630  178.5110  146.3450 C   0  0  0  0  0  0  0  0  0  0  0  0
  185.1720  178.5610  144.9780 C   0  0  0  0  0  0  0  0  0  0  0  0
  184.5780  178.7920  147.1970 O   0  0  0  0  0  0  0  0  0  0  0  0
  190.2070  177.7890  145.8030 C   0  0  0  0  0  2  0  0  0  0  0  0
  190.3620  176.6220  144.8960 C   0  0  0  0  0  0  0  0  0  0  0  0
  189.5120  176.4200  143.8920 C   0  0  0  0  0  3  0  0  0  0  0  0
  187.6840  177.8890  145.9370 C   0  0  0  0  0  0  0  0  0  0  0  0
  188.2430  177.1310  143.6610 C   0  0  0  0  0  3  0  0  0  0  0  0
  187.4300  177.7570  144.5390 C   0  0  0  0  0  0  0  0  0  0  0  0
  191.5730  175.7870  145.0110 C   0  0  0  0  0  0  0  0  0  0  0  0
  192.3180  175.7930  146.1860 O   0  0  0  0  0  1  0  0  0  0  0  0
  191.9520  175.0730  144.0400 O   0  0  0  0  0  0  0  0  0  0  0  0
  184.4070  179.0060  140.8190 C   0  0  0  0  0  2  0  0  0  0  0  0
  182.4340  178.1790  137.6820 C   0  0  0  0  0  2  0  0  0  0  0  0
  181.9870  179.0050  140.2640 O   0  0  0  0  0  0  0  0  0  0  0  0
  180.6240  181.4230  137.1130 C   0  0  0  0  0  0  0  0  0  0  0  0
  181.1580  180.2100  136.8730 C   0  0  0  0  0  3  0  0  0  0  0  0
  181.3420  179.2090  137.9750 C   0  0  2  0  0  3  0  0  0  0  0  0
  180.4760  180.8110  139.6180 C   0  0  0  0  0  2  0  0  0  0  0  0
  181.6620  179.9370  139.2650 C   0  0  1  0  0  3  0  0  0  0  0  0
  180.3100  181.8890  138.5310 C   0  0  0  0  0  2  0  0  0  0  0  0
  183.2580  178.4240  139.9580 C   0  0  1  0  0  3  0  0  0  0  0  0
  183.6170  178.4070  138.5200 N   0  0  0  0  0  2  0  0  0  0  0  0
  180.4630  182.3720  135.9960 C   0  0  0  0  0  0  0  0  0  0  0  0
  180.7500  182.0230  134.8190 O   0  0  0  0  0  0  0  0  0  0  0  0
  179.9900  183.6590  136.2250 O   0  0  0  0  0  1  0  0  0  0  0  0
  1 17  1  0  0  0  0
  1 10  2  0  0  0  0
  4  5  1  0  0  0  0
  4  8  1  0  0  0  0
  5  1  1  0  0  0  0
  6  7  1  6  0  0  0
  6 10  1  0  0  0  0
  8  6  1  0  0  0  0
  9  3  1  0  0  0  0
  9 11  2  0  0  0  0
 10  9  1  0  0  0  0
 12  2  1  0  0  0  0
 13 18  1  0  0  0  0
 13 12  1  0  0  0  0
 14 13  2  0  0  0  0
 15  2  2  0  0  0  0
 15  3  1  0  0  0  0
 16 14  1  0  0  0  0
 16 17  2  0  0  0  0
 17 15  1  0  0  0  0
 18 19  1  0  0  0  0
 20 18  2  0  0  0  0
 21  4  1  0  0  0  0
 22 26  1  0  0  0  0
 22 31  1  0  0  0  0
 24 29  1  0  0  0  0
 25 24  2  0  0  0  0
 26 25  1  6  0  0  0
 26 28  1  0  0  0  0
 28 27  1  1  0  0  0
 28 23  1  0  0  0  0
 29 27  1  0  0  0  0
 30 23  1  0  0  0  0
 30 21  1  1  0  0  0
 31 30  1  0  0  0  0
 32 34  1  0  0  0  0
 32 24  1  0  0  0  0
 33 32  2  0  0  0  0
M  END
>  <MODEL>
6

>  <REMARK>
 VINA RESULT:      -9.0      3.720      8.896
  Name = 
  4 active torsions:
  status: ('A' for Active; 'I' for Inactive)
    1  A    between atoms: C_3  and  C_25
    2  A    between atoms: C_7  and  C_11
    3  A    between atoms: N_8  and  C_18
    4  A    between atoms: C_18  and  C_30
                            x       y       z     vdW  Elec       q    Type
                         _______ _______ _______ _____ _____    ______ ____

>  <TORSDO>
F 4

$$$$
=
 OpenBabel10272415093D

 34 38  0  0  1  0  0  0  0  0999 V2000
  184.9770  178.4850  142.7000 C   0  0  0  0  0  0  0  0  0  0  0  0
  184.9830  178.8320  146.3690 C   0  0  0  0  0  3  0  0  0  0  0  0
  183.3040  178.7420  144.8620 O   0  0  0  0  0  0  0  0  0  0  0  0
  185.2330  178.3880  140.1960 N   0  0  0  0  0  0  0  0  0  0  0  0
  185.9100  178.4440  141.5000 C   0  0  0  0  0  2  0  0  0  0  0  0
  183.0100  178.7790  141.1400 C   0  0  2  0  0  3  0  0  0  0  0  0
  182.5200  177.5280  140.7560 O   0  0  0  0  0  1  0  0  0  0  0  0
  184.0560  179.2540  140.1460 C   0  0  0  0  0  2  0  0  0  0  0  0
  182.7770  178.7740  143.6450 C   0  0  0  0  0  0  0  0  0  0  0  0
  183.6010  178.7010  142.5180 C   0  0  0  0  0  0  0  0  0  0  0  0
  181.5290  178.8970  143.5170 O   0  0  0  0  0  0  0  0  0  0  0  0
  186.3760  179.0580  146.8530 C   0  0  0  0  0  2  0  0  0  0  0  0
  187.2830  177.9120  146.5830 C   0  0  0  0  0  0  0  0  0  0  0  0
  187.4960  177.4890  145.3390 C   0  0  0  0  0  3  0  0  0  0  0  0
  184.6080  178.6230  145.0990 C   0  0  0  0  0  0  0  0  0  0  0  0
  186.7570  177.9030  144.1330 C   0  0  0  0  0  3  0  0  0  0  0  0
  185.4990  178.3780  144.0100 C   0  0  0  0  0  0  0  0  0  0  0  0
  188.0820  177.3610  147.6930 C   0  0  0  0  0  0  0  0  0  0  0  0
  189.1740  176.5390  147.4290 O   0  0  0  0  0  0  0  0  0  0  0  0
  187.7730  177.6160  148.8910 O   0  0  0  0  0  1  0  0  0  0  0  0
  186.1550  178.7890  139.1180 C   0  0  0  0  0  2  0  0  0  0  0  0
  185.6240  176.0270  136.5660 C   0  0  0  0  0  2  0  0  0  0  0  0
  186.9540  178.4200  136.7960 O   0  0  0  0  0  0  0  0  0  0  0  0
  189.1720  174.9600  135.9350 C   0  0  0  0  0  0  0  0  0  0  0  0
  187.8270  174.9260  135.9760 C   0  0  0  0  0  3  0  0  0  0  0  0
  187.0150  176.1890  135.9520 C   0  0  2  0  0  3  0  0  0  0  0  0
  189.0610  177.5420  135.9320 C   0  0  0  0  0  2  0  0  0  0  0  0
  187.7690  177.2830  136.6800 C   0  0  1  0  0  3  0  0  0  0  0  0
  189.9390  176.2770  136.0030 C   0  0  0  0  0  2  0  0  0  0  0  0
  185.9070  178.1440  137.7300 C   0  0  1  0  0  3  0  0  0  0  0  0
  185.5320  176.7160  137.8590 N   0  0  0  0  0  2  0  0  0  0  0  0
  189.9240  173.6920  135.9610 C   0  0  0  0  0  0  0  0  0  0  0  0
  189.4480  172.6590  135.4200 O   0  0  0  0  0  0  0  0  0  0  0  0
  191.1680  173.6210  136.5780 O   0  0  0  0  0  1  0  0  0  0  0  0
  1 17  1  0  0  0  0
  2 12  1  0  0  0  0
  3 15  1  0  0  0  0
  4  5  1  0  0  0  0
  5  1  1  0  0  0  0
  6  7  1  6  0  0  0
  6 10  1  0  0  0  0
  8  4  1  0  0  0  0
  8  6  1  0  0  0  0
  9  3  1  0  0  0  0
 10  1  2  0  0  0  0
 10  9  1  0  0  0  0
 11  9  2  0  0  0  0
 13 12  1  0  0  0  0
 13 18  1  0  0  0  0
 14 13  2  0  0  0  0
 15  2  2  0  0  0  0
 16 14  1  0  0  0  0
 17 16  2  0  0  0  0
 17 15  1  0  0  0  0
 18 20  1  0  0  0  0
 19 18  2  0  0  0  0
 21  4  1  0  0  0  0
 22 31  1  0  0  0  0
 23 30  1  0  0  0  0
 24 32  1  0  0  0  0
 24 25  2  0  0  0  0
 24 29  1  0  0  0  0
 26 25  1  1  0  0  0
 26 22  1  0  0  0  0
 26 28  1  0  0  0  0
 27 29  1  0  0  0  0
 28 27  1  6  0  0  0
 28 23  1  0  0  0  0
 30 31  1  0  0  0  0
 30 21  1  1  0  0  0
 32 34  1  0  0  0  0
 33 32  2  0  0  0  0
M  END
>  <MODEL>
7

>  <REMARK>
 VINA RESULT:      -8.9      2.370      8.304
  Name = 
  4 active torsions:
  status: ('A' for Active; 'I' for Inactive)
    1  A    between atoms: C_3  and  C_25
    2  A    between atoms: C_7  and  C_11
    3  A    between atoms: N_8  and  C_18
    4  A    between atoms: C_18  and  C_30
                            x       y       z     vdW  Elec       q    Type
                         _______ _______ _______ _____ _____    ______ ____

>  <TORSDO>
F 4

$$$$
=
 OpenBabel10272415093D

 34 38  0  0  1  0  0  0  0  0999 V2000
  186.5220  178.1420  142.0490 C   0  0  0  0  0  0  0  0  0  0  0  0
  188.1870  177.8950  145.3270 C   0  0  0  0  0  3  0  0  0  0  0  0
  186.0110  178.0470  144.7460 O   0  0  0  0  0  0  0  0  0  0  0  0
  185.6280  178.4490  139.7150 N   0  0  0  0  0  0  0  0  0  0  0  0
  186.8170  178.2950  140.5660 C   0  0  0  0  0  2  0  0  0  0  0  0
  184.0930  178.6810  141.6050 C   0  0  2  0  0  3  0  0  0  0  0  0
  183.3950  177.5070  141.3080 O   0  0  0  0  0  1  0  0  0  0  0  0
  184.6180  179.3110  140.3260 C   0  0  0  0  0  2  0  0  0  0  0  0
  185.0010  178.2720  143.9160 C   0  0  0  0  0  0  0  0  0  0  0  0
  185.2280  178.3820  142.5410 C   0  0  0  0  0  0  0  0  0  0  0  0
  183.8390  178.4130  144.3850 O   0  0  0  0  0  0  0  0  0  0  0  0
  189.6620  178.0410  145.1580 C   0  0  0  0  0  2  0  0  0  0  0  0
  190.2690  176.9550  144.3460 C   0  0  0  0  0  0  0  0  0  0  0  0
  189.8740  176.7380  143.0930 C   0  0  0  0  0  3  0  0  0  0  0  0
  187.2720  177.8930  144.3480 C   0  0  0  0  0  0  0  0  0  0  0  0
  188.7070  177.3390  142.4250 C   0  0  0  0  0  3  0  0  0  0  0  0
  187.5640  177.8270  142.9520 C   0  0  0  0  0  0  0  0  0  0  0  0
  191.4370  176.2330  144.8830 C   0  0  0  0  0  0  0  0  0  0  0  0
  191.9620  176.5760  146.1260 O   0  0  0  0  0  1  0  0  0  0  0  0
  191.9820  175.3100  144.2130 O   0  0  0  0  0  0  0  0  0  0  0  0
  185.9980  179.0180  138.4070 C   0  0  0  0  0  2  0  0  0  0  0  0
  186.1710  175.6950  136.5780 C   0  0  0  0  0  2  0  0  0  0  0  0
  187.0620  178.2780  136.2890 O   0  0  0  0  0  0  0  0  0  0  0  0
  189.8900  175.1760  136.4090 C   0  0  0  0  0  0  0  0  0  0  0  0
  188.5700  174.9090  136.3870 C   0  0  0  0  0  3  0  0  0  0  0  0
  187.5680  175.9620  136.0160 C   0  0  2  0  0  3  0  0  0  0  0  0
  189.3570  177.6230  135.7740 C   0  0  0  0  0  2  0  0  0  0  0  0
  188.0600  177.3130  136.4940 C   0  0  1  0  0  3  0  0  0  0  0  0
  190.4200  176.5900  136.1950 C   0  0  0  0  0  2  0  0  0  0  0  0
  185.9910  178.0380  137.2060 C   0  0  1  0  0  3  0  0  0  0  0  0
  185.8460  176.6340  137.6580 N   0  0  0  0  0  2  0  0  0  0  0  0
  190.8340  174.1070  136.7810 C   0  0  0  0  0  0  0  0  0  0  0  0
  190.8410  173.0160  136.1490 O   0  0  0  0  0  0  0  0  0  0  0  0
  191.7300  174.2880  137.8280 O   0  0  0  0  0  1  0  0  0  0  0  0
  1 10  2  0  0  0  0
  1 17  1  0  0  0  0
  4  8  1  0  0  0  0
  4  5  1  0  0  0  0
  5  1  1  0  0  0  0
  6  7  1  6  0  0  0
  6 10  1  0  0  0  0
  8  6  1  0  0  0  0
  9 11  2  0  0  0  0
  9  3  1  0  0  0  0
 10  9  1  0  0  0  0
 12  2  1  0  0  0  0
 13 18  1  0  0  0  0
 13 12  1  0  0  0  0
 14 13  2  0  0  0  0
 15  3  1  0  0  0  0
 15  2  2  0  0  0  0
 16 17  2  0  0  0  0
 16 14  1  0  0  0  0
 17 15  1  0  0  0  0
 18 19  1  0  0  0  0
 20 18  2  0  0  0  0
 21  4  1  0  0  0  0
 22 31  1  0  0  0  0
 23 28  1  0  0  0  0
 23 30  1  0  0  0  0
 24 32  1  0  0  0  0
 25 24  2  0  0  0  0
 26 25  1  1  0  0  0
 26 28  1  0  0  0  0
 26 22  1  0  0  0  0
 27 29  1  0  0  0  0
 28 27  1  6  0  0  0
 29 24  1  0  0  0  0
 30 31  1  0  0  0  0
 30 21  1  1  0  0  0
 32 34  1  0  0  0  0
 33 32  2  0  0  0  0
M  END
>  <MODEL>
8

>  <REMARK>
 VINA RESULT:      -8.6      2.201      7.295
  Name = 
  4 active torsions:
  status: ('A' for Active; 'I' for Inactive)
    1  A    between atoms: C_3  and  C_25
    2  A    between atoms: C_7  and  C_11
    3  A    between atoms: N_8  and  C_18
    4  A    between atoms: C_18  and  C_30
                            x       y       z     vdW  Elec       q    Type
                         _______ _______ _______ _____ _____    ______ ____

>  <TORSDO>
F 4

$$$$
=
 OpenBabel10272415093D

 34 38  0  0  1  0  0  0  0  0999 V2000
  190.1030  177.3320  140.7250 C   0  0  0  0  0  0  0  0  0  0  0  0
  189.2350  178.2780  144.1800 C   0  0  0  0  0  3  0  0  0  0  0  0
  188.0390  178.2870  142.2640 O   0  0  0  0  0  0  0  0  0  0  0  0
  190.9720  176.7680  138.4300 N   0  0  0  0  0  0  0  0  0  0  0  0
  191.2760  176.8990  139.8620 C   0  0  0  0  0  2  0  0  0  0  0  0
  188.7460  177.7620  138.6360 C   0  0  2  0  0  3  0  0  0  0  0  0
  188.0820  176.5930  138.2550 O   0  0  0  0  0  1  0  0  0  0  0  0
  190.0990  177.8380  137.9490 C   0  0  0  0  0  2  0  0  0  0  0  0
  187.8730  178.2230  140.9500 C   0  0  0  0  0  0  0  0  0  0  0  0
  188.9190  177.7940  140.1270 C   0  0  0  0  0  0  0  0  0  0  0  0
  186.7710  178.5780  140.4510 O   0  0  0  0  0  0  0  0  0  0  0  0
  190.4640  178.2890  145.0250 C   0  0  0  0  0  2  0  0  0  0  0  0
  191.1000  176.9510  145.1510 C   0  0  0  0  0  0  0  0  0  0  0  0
  191.5200  176.2920  144.0730 C   0  0  0  0  0  3  0  0  0  0  0  0
  189.1650  177.9420  142.8840 C   0  0  0  0  0  0  0  0  0  0  0  0
  191.2470  176.6420  142.6690 C   0  0  0  0  0  3  0  0  0  0  0  0
  190.2220  177.3400  142.1350 C   0  0  0  0  0  0  0  0  0  0  0  0
  191.4210  176.4400  146.4960 C   0  0  0  0  0  0  0  0  0  0  0  0
  192.3580  175.4230  146.6540 O   0  0  0  0  0  0  0  0  0  0  0  0
  190.8370  176.9090  147.5140 O   0  0  0  0  0  1  0  0  0  0  0  0
  192.2120  176.7830  137.6340 C   0  0  0  0  0  2  0  0  0  0  0  0
  194.2540  173.5850  137.4850 C   0  0  0  0  0  2  0  0  0  0  0  0
  193.2650  175.5030  135.7840 O   0  0  0  0  0  0  0  0  0  0  0  0
  197.4100  174.8390  135.8750 C   0  0  0  0  0  0  0  0  0  0  0  0
  196.5680  174.0500  136.5680 C   0  0  0  0  0  3  0  0  0  0  0  0
  195.0920  174.0560  136.2960 C   0  0  2  0  0  3  0  0  0  0  0  0
  195.3800  175.8100  134.6050 C   0  0  0  0  0  2  0  0  0  0  0  0
  194.6640  175.4520  135.8920 C   0  0  1  0  0  3  0  0  0  0  0  0
  196.8950  175.8740  134.8810 C   0  0  0  0  0  2  0  0  0  0  0  0
  192.6980  175.4140  137.0940 C   0  0  1  0  0  3  0  0  0  0  0  0
  193.5270  174.7040  138.0970 N   0  0  0  0  0  2  0  0  0  0  0  0
  198.8520  174.7960  136.1800 C   0  0  0  0  0  0  0  0  0  0  0  0
  199.2470  174.6650  137.3700 O   0  0  0  0  0  1  0  0  0  0  0  0
  199.7930  174.8950  135.1610 O   0  0  0  0  0  0  0  0  0  0  0  0
  1 17  1  0  0  0  0
  2 12  1  0  0  0  0
  3 15  1  0  0  0  0
  4  5  1  0  0  0  0
  5  1  1  0  0  0  0
  6  7  1  1  0  0  0
  6 10  1  0  0  0  0
  8  4  1  0  0  0  0
  8  6  1  0  0  0  0
  9  3  1  0  0  0  0
 10  1  2  0  0  0  0
 10  9  1  0  0  0  0
 11  9  2  0  0  0  0
 12 13  1  0  0  0  0
 13 18  1  0  0  0  0
 14 13  2  0  0  0  0
 15  2  2  0  0  0  0
 16 14  1  0  0  0  0
 17 16  2  0  0  0  0
 17 15  1  0  0  0  0
 18 19  2  0  0  0  0
 18 20  1  0  0  0  0
 21  4  1  0  0  0  0
 22 31  1  0  0  0  0
 23 28  1  0  0  0  0
 23 30  1  0  0  0  0
 24 32  1  0  0  0  0
 24 25  2  0  0  0  0
 26 25  1  1  0  0  0
 26 22  1  0  0  0  0
 27 29  1  0  0  0  0
 28 27  1  6  0  0  0
 28 26  1  0  0  0  0
 29 24  1  0  0  0  0
 30 21  1  1  0  0  0
 30 31  1  0  0  0  0
 32 33  1  0  0  0  0
 34 32  2  0  0  0  0
M  END
>  <MODEL>
9

>  <REMARK>
 VINA RESULT:      -8.6      3.809      9.287
  Name = 
  4 active torsions:
  status: ('A' for Active; 'I' for Inactive)
    1  A    between atoms: C_3  and  C_25
    2  A    between atoms: C_7  and  C_11
    3  A    between atoms: N_8  and  C_18
    4  A    between atoms: C_18  and  C_30
                            x       y       z     vdW  Elec       q    Type
                         _______ _______ _______ _____ _____    ______ ____

>  <TORSDO>
F 4

$$$$
