=
 OpenBabel10272413423D

 30 34  0  0  1  0  0  0  0  0999 V2000
  188.9840  176.6960  143.2820 C   0  0  2  0  0  3  0  0  0  0  0  0
  189.2760  177.5040  141.9760 C   0  0  1  0  0  0  0  0  0  0  0  0
  187.4940  176.6270  143.6360 C   0  0  0  0  0  2  0  0  0  0  0  0
  185.9090  179.1660  141.6140 C   0  0  0  0  0  2  0  0  0  0  0  0
  189.5420  178.4880  139.2030 C   0  0  1  0  0  3  0  0  0  0  0  0
  186.8370  178.0670  141.8350 N   0  0  2  0  0  0  0  0  0  0  0  0
  185.4410  178.1090  143.7350 C   0  0  0  0  0  2  0  0  0  0  0  0
  190.6100  177.5700  139.7390 C   0  0  2  0  0  3  0  0  0  0  0  0
  186.8650  177.9540  143.2760 C   0  0  1  0  0  3  0  0  0  0  0  0
  188.1740  178.3920  141.3210 C   0  0  2  0  0  3  0  0  0  0  0  0
  190.6960  176.5270  138.8330 O   0  0  0  0  0  0  0  0  0  0  0  0
  189.5090  178.2540  137.8280 O   0  0  0  0  0  0  0  0  0  0  0  0
  183.6940  178.5310  142.1950 F   0  0  0  0  0  0  0  0  0  0  0  0
  184.8580  179.0680  142.7130 C   0  0  2  0  0  3  0  0  0  0  0  0
  190.5120  178.1760  142.0330 O   0  0  0  0  0  0  0  0  0  0  0  0
  190.4630  177.0580  141.1800 C   0  0  1  0  0  3  0  0  0  0  0  0
  190.3340  177.1290  137.6160 C   0  0  0  0  0  2  0  0  0  0  0  0
  187.7180  176.9310  139.4570 O   0  0  0  0  0  1  0  0  0  0  0  0
  188.1650  178.2130  139.8010 C   0  0  2  0  0  3  0  0  0  0  0  0
  189.8100  177.0560  144.5370 C   0  0  2  0  0  3  0  0  0  0  0  0
  191.2470  176.5140  144.5480 C   0  0  2  0  0  3  0  0  0  0  0  0
  191.3770  175.1630  143.8580 C   0  0  0  0  0  2  0  0  0  0  0  0
  192.4160  174.4330  144.4340 O   0  0  0  0  0  1  0  0  0  0  0  0
  191.7370  176.4270  145.9270 C   0  0  0  0  0  0  0  0  0  0  0  0
  192.1240  176.3570  147.0160 N   0  0  0  0  0  0  0  0  0  0  0  0
  189.1230  176.7740  145.7250 O   0  0  0  0  0  0  0  0  0  0  0  0
  188.9670  178.0110  146.3570 C   0  0  0  0  0  2  0  0  0  0  0  0
  187.9230  177.9430  147.4320 C   0  0  0  0  0  0  0  0  0  0  0  0
  186.5180  178.3900  147.1890 C   0  0  0  0  0  1  0  0  0  0  0  0
  188.2310  177.5140  148.5310 O   0  0  0  0  0  0  0  0  0  0  0  0
  1  3  1  0  0  0  0
  1 20  1  1  0  0  0
  2 15  1  1  0  0  0
  2  1  1  0  0  0  0
  4 14  1  0  0  0  0
  5 12  1  6  0  0  0
  5  8  1  0  0  0  0
  5 19  1  0  0  0  0
  6  4  1  1  0  0  0
  6  9  1  0  0  0  0
  8 11  1  6  0  0  0
  8 16  1  0  0  0  0
  9  3  1  6  0  0  0
  9  7  1  0  0  0  0
 10  6  1  0  0  0  0
 10  2  1  0  0  0  0
 13 14  1  0  0  0  0
 14  7  1  0  0  0  0
 16  2  1  0  0  0  0
 16 15  1  0  0  0  0
 17 12  1  0  0  0  0
 17 11  1  0  0  0  0
 18 19  1  0  0  0  0
 19 10  1  0  0  0  0
 20 21  1  0  0  0  0
 20 26  1  0  0  0  0
 21 24  1  0  0  0  0
 22 23  1  0  0  0  0
 22 21  1  0  0  0  0
 24 25  3  0  0  0  0
 26 27  1  0  0  0  0
 27 28  1  0  0  0  0
 28 30  2  0  0  0  0
 29 28  1  0  0  0  0
M  END
>  <MODEL>
1

>  <REMARK>
 VINA RESULT:      -7.9      0.000      0.000
  Name = 
  7 active torsions:
  status: ('A' for Active; 'I' for Inactive)
    1  A    between atoms: C_1  and  C_22
    2  A    between atoms: C_2  and  C_14
    3  A    between atoms: C_3  and  C_19
    4  A    between atoms: C_14  and  C_20
    5  A    between atoms: C_14  and  C_22
    6  A    between atoms: C_19  and  O_29
    7  A    between atoms: C_22  and  O_29
                            x       y       z     vdW  Elec       q    Type
                         _______ _______ _______ _____ _____    ______ ____

>  <TORSDO>
F 7

$$$$
=
 OpenBabel10272413423D

 30 34  0  0  1  0  0  0  0  0999 V2000
  188.8130  176.6500  141.9030 C   0  0  2  0  0  3  0  0  0  0  0  0
  187.9640  177.7000  142.6900 C   0  0  1  0  0  0  0  0  0  0  0  0
  189.7670  175.8470  142.7930 C   0  0  0  0  0  2  0  0  0  0  0  0
  189.9210  177.6590  145.9140 C   0  0  0  0  0  2  0  0  0  0  0  0
  186.0400  179.1290  144.4170 C   0  0  1  0  0  3  0  0  0  0  0  0
  189.2250  177.0920  144.7690 N   0  0  2  0  0  0  0  0  0  0  0  0
  191.3980  176.1790  144.7040 C   0  0  0  0  0  2  0  0  0  0  0  0
  185.5960  178.7330  143.0320 C   0  0  2  0  0  3  0  0  0  0  0  0
  190.3040  176.7740  143.8600 C   0  0  1  0  0  3  0  0  0  0  0  0
  188.3170  178.0740  144.1620 C   0  0  2  0  0  3  0  0  0  0  0  0
  184.4290  178.0080  143.2060 O   0  0  0  0  0  0  0  0  0  0  0  0
  184.8780  179.1310  145.1910 O   0  0  0  0  0  0  0  0  0  0  0  0
  191.1740  175.9920  147.0520 F   0  0  0  0  0  0  0  0  0  0  0  0
  191.2460  176.9130  146.0240 C   0  0  2  0  0  3  0  0  0  0  0  0
  187.6910  178.8460  141.9190 O   0  0  0  0  0  0  0  0  0  0  0  0
  186.5990  177.9860  142.1410 C   0  0  1  0  0  3  0  0  0  0  0  0
  183.8780  178.5630  144.3730 C   0  0  0  0  0  2  0  0  0  0  0  0
  186.4860  176.8890  145.1910 O   0  0  0  0  0  1  0  0  0  0  0  0
  187.0520  178.1590  145.0190 C   0  0  2  0  0  3  0  0  0  0  0  0
  189.5550  177.1410  140.6400 C   0  0  2  0  0  3  0  0  0  0  0  0
  188.6980  177.2100  139.3670 C   0  0  2  0  0  3  0  0  0  0  0  0
  188.9930  176.0790  138.3920 C   0  0  0  0  0  2  0  0  0  0  0  0
  187.8580  175.7970  137.6320 O   0  0  0  0  0  1  0  0  0  0  0  0
  188.8870  178.5070  138.7090 C   0  0  0  0  0  0  0  0  0  0  0  0
  189.0350  179.5310  138.1890 N   0  0  0  0  0  0  0  0  0  0  0  0
  190.7640  176.4640  140.4360 O   0  0  0  0  0  0  0  0  0  0  0  0
  191.7340  177.4670  140.3560 C   0  0  0  0  0  2  0  0  0  0  0  0
  192.8810  177.0450  139.4890 C   0  0  0  0  0  0  0  0  0  0  0  0
  192.6650  176.4940  138.1170 C   0  0  0  0  0  1  0  0  0  0  0  0
  194.0180  177.1530  139.9150 O   0  0  0  0  0  0  0  0  0  0  0  0
  1 20  1  6  0  0  0
  1  2  1  0  0  0  0
  1  3  1  0  0  0  0
  2 15  1  6  0  0  0
  2 10  1  0  0  0  0
  4 14  1  0  0  0  0
  5 19  1  0  0  0  0
  5 12  1  1  0  0  0
  6  4  1  1  0  0  0
  7 14  1  0  0  0  0
  8 11  1  1  0  0  0
  8  5  1  0  0  0  0
  9  3  1  6  0  0  0
  9  7  1  0  0  0  0
  9  6  1  0  0  0  0
 10  6  1  0  0  0  0
 10 19  1  0  0  0  0
 11 17  1  0  0  0  0
 14 13  1  0  0  0  0
 15 16  1  0  0  0  0
 16  2  1  0  0  0  0
 16  8  1  0  0  0  0
 17 12  1  0  0  0  0
 19 18  1  0  0  0  0
 21 20  1  0  0  0  0
 22 21  1  0  0  0  0
 23 22  1  0  0  0  0
 24 21  1  0  0  0  0
 25 24  3  0  0  0  0
 26 20  1  0  0  0  0
 27 26  1  0  0  0  0
 28 30  2  0  0  0  0
 28 27  1  0  0  0  0
 29 28  1  0  0  0  0
M  END
>  <MODEL>
2

>  <REMARK>
 VINA RESULT:      -7.2      2.861      6.758
  Name = 
  7 active torsions:
  status: ('A' for Active; 'I' for Inactive)
    1  A    between atoms: C_1  and  C_22
    2  A    between atoms: C_2  and  C_14
    3  A    between atoms: C_3  and  C_19
    4  A    between atoms: C_14  and  C_20
    5  A    between atoms: C_14  and  C_22
    6  A    between atoms: C_19  and  O_29
    7  A    between atoms: C_22  and  O_29
                            x       y       z     vdW  Elec       q    Type
                         _______ _______ _______ _____ _____    ______ ____

>  <TORSDO>
F 7

$$$$
=
 OpenBabel10272413423D

 30 34  0  0  1  0  0  0  0  0999 V2000
  188.1750  178.1100  142.1500 C   0  0  2  0  0  3  0  0  0  0  0  0
  187.1170  177.7650  143.2470 C   0  0  1  0  0  0  0  0  0  0  0  0
  187.5920  178.8820  140.9620 C   0  0  0  0  0  2  0  0  0  0  0  0
  184.0100  178.5140  141.2430 C   0  0  0  0  0  2  0  0  0  0  0  0
  185.1430  177.7840  145.4450 C   0  0  1  0  0  3  0  0  0  0  0  0
  185.3420  178.7530  141.7780 N   0  0  2  0  0  0  0  0  0  0  0  0
  185.5700  178.8770  139.4340 C   0  0  0  0  0  2  0  0  0  0  0  0
  186.6040  177.7040  145.8010 C   0  0  2  0  0  3  0  0  0  0  0  0
  186.2040  178.3470  140.6910 C   0  0  1  0  0  3  0  0  0  0  0  0
  185.5910  177.9260  142.9660 C   0  0  2  0  0  3  0  0  0  0  0  0
  186.8330  178.7470  146.6830 O   0  0  0  0  0  0  0  0  0  0  0  0
  184.5350  178.4360  146.5200 O   0  0  0  0  0  0  0  0  0  0  0  0
  183.5140  180.0460  139.4960 F   0  0  0  0  0  0  0  0  0  0  0  0
  184.0870  178.8140  139.7510 C   0  0  2  0  0  3  0  0  0  0  0  0
  187.3960  176.5420  143.8870 O   0  0  0  0  0  0  0  0  0  0  0  0
  187.6270  177.7000  144.6540 C   0  0  1  0  0  3  0  0  0  0  0  0
  185.5950  178.8960  147.3310 C   0  0  0  0  0  2  0  0  0  0  0  0
  185.2750  179.9060  144.3050 O   0  0  0  0  0  1  0  0  0  0  0  0
  184.8840  178.5690  144.1610 C   0  0  2  0  0  3  0  0  0  0  0  0
  189.0730  176.9590  141.6440 C   0  0  2  0  0  3  0  0  0  0  0  0
  190.4570  176.8740  142.3060 C   0  0  2  0  0  3  0  0  0  0  0  0
  190.6130  175.6510  143.2000 C   0  0  0  0  0  2  0  0  0  0  0  0
  191.8430  175.6940  143.8560 O   0  0  0  0  0  1  0  0  0  0  0  0
  190.7190  178.0960  143.0710 C   0  0  0  0  0  0  0  0  0  0  0  0
  190.9250  179.0610  143.6770 N   0  0  0  0  0  0  0  0  0  0  0  0
  189.1450  176.9140  140.2460 O   0  0  0  0  0  0  0  0  0  0  0  0
  190.4900  176.6670  139.9590 C   0  0  0  0  0  2  0  0  0  0  0  0
  190.6610  176.1570  138.5590 C   0  0  0  0  0  0  0  0  0  0  0  0
  190.3660  177.0140  137.3710 C   0  0  0  0  0  1  0  0  0  0  0  0
  191.0490  175.0140  138.3870 O   0  0  0  0  0  0  0  0  0  0  0  0
  1 20  1  6  0  0  0
  1  2  1  0  0  0  0
  2 15  1  6  0  0  0
  2 16  1  0  0  0  0
  3  1  1  0  0  0  0
  5  8  1  0  0  0  0
  5 12  1  1  0  0  0
  6  4  1  6  0  0  0
  6 10  1  0  0  0  0
  7 14  1  0  0  0  0
  8 11  1  1  0  0  0
  9  7  1  6  0  0  0
  9  3  1  0  0  0  0
  9  6  1  0  0  0  0
 10  2  1  0  0  0  0
 10 19  1  0  0  0  0
 11 17  1  0  0  0  0
 12 17  1  0  0  0  0
 13 14  1  0  0  0  0
 14  4  1  0  0  0  0
 15 16  1  0  0  0  0
 16  8  1  0  0  0  0
 19 18  1  0  0  0  0
 19  5  1  0  0  0  0
 20 21  1  0  0  0  0
 21 24  1  0  0  0  0
 21 22  1  0  0  0  0
 22 23  1  0  0  0  0
 24 25  3  0  0  0  0
 26 20  1  0  0  0  0
 27 26  1  0  0  0  0
 28 27  1  0  0  0  0
 29 28  1  0  0  0  0
 30 28  2  0  0  0  0
M  END
>  <MODEL>
3

>  <REMARK>
 VINA RESULT:      -7.2      2.131      5.908
  Name = 
  7 active torsions:
  status: ('A' for Active; 'I' for Inactive)
    1  A    between atoms: C_1  and  C_22
    2  A    between atoms: C_2  and  C_14
    3  A    between atoms: C_3  and  C_19
    4  A    between atoms: C_14  and  C_20
    5  A    between atoms: C_14  and  C_22
    6  A    between atoms: C_19  and  O_29
    7  A    between atoms: C_22  and  O_29
                            x       y       z     vdW  Elec       q    Type
                         _______ _______ _______ _____ _____    ______ ____

>  <TORSDO>
F 7

$$$$
=
 OpenBabel10272413423D

 30 34  0  0  1  0  0  0  0  0999 V2000
  186.0870  178.7880  142.1830 C   0  0  2  0  0  3  0  0  0  0  0  0
  184.9300  178.4140  141.2020 C   0  0  1  0  0  0  0  0  0  0  0  0
  187.3820  179.1960  141.4720 C   0  0  0  0  0  2  0  0  0  0  0  0
  186.9800  178.1060  138.0510 C   0  0  0  0  0  2  0  0  0  0  0  0
  182.7350  178.3810  139.2240 C   0  0  1  0  0  3  0  0  0  0  0  0
  186.5170  178.7200  139.2870 N   0  0  2  0  0  0  0  0  0  0  0  0
  188.8510  178.4840  139.5330 C   0  0  0  0  0  2  0  0  0  0  0  0
  182.3960  178.6860  140.6600 C   0  0  2  0  0  3  0  0  0  0  0  0
  187.5320  178.3310  140.2400 C   0  0  1  0  0  3  0  0  0  0  0  0
  185.2080  178.1860  139.6850 C   0  0  2  0  0  3  0  0  0  0  0  0
  181.7120  179.8910  140.6360 O   0  0  0  0  0  0  0  0  0  0  0  0
  181.7790  179.0590  138.4650 O   0  0  0  0  0  0  0  0  0  0  0  0
  188.9570  179.1670  137.2700 F   0  0  0  0  0  0  0  0  0  0  0  0
  188.5030  178.1530  138.0930 C   0  0  2  0  0  3  0  0  0  0  0  0
  184.0910  177.4120  141.7280 O   0  0  0  0  0  0  0  0  0  0  0  0
  183.5410  178.7070  141.6830 C   0  0  1  0  0  3  0  0  0  0  0  0
  181.0790  179.8740  139.3810 C   0  0  0  0  0  2  0  0  0  0  0  0
  184.2280  180.2510  138.9140 O   0  0  0  0  0  1  0  0  0  0  0  0
  184.1310  178.8560  138.8280 C   0  0  2  0  0  3  0  0  0  0  0  0
  186.4000  177.7920  143.3220 C   0  0  2  0  0  3  0  0  0  0  0  0
  185.5700  177.9820  144.6010 C   0  0  2  0  0  3  0  0  0  0  0  0
  184.9150  179.3540  144.6830 C   0  0  0  0  0  2  0  0  0  0  0  0
  183.7020  179.2620  145.3650 O   0  0  0  0  0  1  0  0  0  0  0  0
  186.4110  177.7520  145.7800 C   0  0  0  0  0  0  0  0  0  0  0  0
  187.0750  177.5720  146.7100 N   0  0  0  0  0  0  0  0  0  0  0  0
  187.7730  177.6980  143.5840 O   0  0  0  0  0  0  0  0  0  0  0  0
  188.1280  176.4010  143.2020 C   0  0  0  0  0  2  0  0  0  0  0  0
  189.5990  176.2990  142.9330 C   0  0  0  0  0  0  0  0  0  0  0  0
  190.4560  177.5140  142.7880 C   0  0  0  0  0  1  0  0  0  0  0  0
  190.1080  175.1960  142.8290 O   0  0  0  0  0  0  0  0  0  0  0  0
  1 20  1  1  0  0  0
  2 16  1  0  0  0  0
  2 15  1  1  0  0  0
  2  1  1  0  0  0  0
  3  1  1  0  0  0  0
  4 14  1  0  0  0  0
  5 12  1  6  0  0  0
  5  8  1  0  0  0  0
  6  4  1  6  0  0  0
  6 10  1  0  0  0  0
  6  9  1  0  0  0  0
  8 11  1  6  0  0  0
  8 16  1  0  0  0  0
  9  7  1  6  0  0  0
  9  3  1  0  0  0  0
 10  2  1  0  0  0  0
 12 17  1  0  0  0  0
 13 14  1  0  0  0  0
 14  7  1  0  0  0  0
 16 15  1  0  0  0  0
 17 11  1  0  0  0  0
 19 18  1  0  0  0  0
 19  5  1  0  0  0  0
 19 10  1  0  0  0  0
 20 26  1  0  0  0  0
 20 21  1  0  0  0  0
 21 22  1  0  0  0  0
 21 24  1  0  0  0  0
 22 23  1  0  0  0  0
 24 25  3  0  0  0  0
 27 26  1  0  0  0  0
 28 27  1  0  0  0  0
 29 28  1  0  0  0  0
 30 28  2  0  0  0  0
M  END
>  <MODEL>
4

>  <REMARK>
 VINA RESULT:      -7.1      3.439      6.047
  Name = 
  7 active torsions:
  status: ('A' for Active; 'I' for Inactive)
    1  A    between atoms: C_1  and  C_22
    2  A    between atoms: C_2  and  C_14
    3  A    between atoms: C_3  and  C_19
    4  A    between atoms: C_14  and  C_20
    5  A    between atoms: C_14  and  C_22
    6  A    between atoms: C_19  and  O_29
    7  A    between atoms: C_22  and  O_29
                            x       y       z     vdW  Elec       q    Type
                         _______ _______ _______ _____ _____    ______ ____

>  <TORSDO>
F 7

$$$$
=
 OpenBabel10272413423D

 30 34  0  0  1  0  0  0  0  0999 V2000
  187.9680  177.3540  142.5860 C   0  0  2  0  0  3  0  0  0  0  0  0
  186.9700  178.2880  141.8280 C   0  0  1  0  0  0  0  0  0  0  0  0
  187.4740  176.9340  143.9750 C   0  0  0  0  0  2  0  0  0  0  0  0
  184.7540  179.1810  144.7470 C   0  0  0  0  0  2  0  0  0  0  0  0
  184.7110  179.4810  140.3450 C   0  0  1  0  0  3  0  0  0  0  0  0
  185.5110  178.3040  143.8660 N   0  0  2  0  0  0  0  0  0  0  0  0
  186.3620  177.9140  146.0300 C   0  0  0  0  0  2  0  0  0  0  0  0
  185.7940  178.7900  139.5580 C   0  0  2  0  0  3  0  0  0  0  0  0
  186.7470  178.1090  144.5890 C   0  0  1  0  0  3  0  0  0  0  0  0
  185.7700  178.9490  142.5730 C   0  0  2  0  0  3  0  0  0  0  0  0
  185.1460  177.8520  138.7730 O   0  0  0  0  0  0  0  0  0  0  0  0
  183.5490  179.3330  139.5850 O   0  0  0  0  0  0  0  0  0  0  0  0
  184.1030  178.0360  146.7240 F   0  0  0  0  0  0  0  0  0  0  0  0
  185.1260  178.7840  146.1710 C   0  0  2  0  0  3  0  0  0  0  0  0
  187.6340  179.2120  140.9990 O   0  0  0  0  0  0  0  0  0  0  0  0
  186.9640  178.1670  140.3350 C   0  0  1  0  0  3  0  0  0  0  0  0
  183.8870  178.4350  138.5500 C   0  0  0  0  0  2  0  0  0  0  0  0
  184.0530  177.5450  141.6250 O   0  0  0  0  0  1  0  0  0  0  0  0
  184.4960  178.8700  141.7270 C   0  0  2  0  0  3  0  0  0  0  0  0
  189.4430  177.8070  142.6640 C   0  0  2  0  0  3  0  0  0  0  0  0
  190.4360  176.9260  141.8900 C   0  0  2  0  0  3  0  0  0  0  0  0
  191.8750  177.4090  142.0100 C   0  0  0  0  0  2  0  0  0  0  0  0
  192.5230  177.2850  140.7810 O   0  0  0  0  0  1  0  0  0  0  0  0
  190.0430  176.8530  140.4790 C   0  0  0  0  0  0  0  0  0  0  0  0
  189.7340  176.7960  139.3650 N   0  0  0  0  0  0  0  0  0  0  0  0
  189.8570  178.0510  143.9790 O   0  0  0  0  0  0  0  0  0  0  0  0
  190.2930  176.8130  144.4590 C   0  0  0  0  0  2  0  0  0  0  0  0
  190.7760  176.9190  145.8740 C   0  0  0  0  0  0  0  0  0  0  0  0
  189.8250  177.0130  147.0220 C   0  0  0  0  0  1  0  0  0  0  0  0
  191.9760  176.9310  146.0920 O   0  0  0  0  0  0  0  0  0  0  0  0
  1 20  1  1  0  0  0
  1  3  1  0  0  0  0
  2 15  1  1  0  0  0
  2 10  1  0  0  0  0
  2  1  1  0  0  0  0
  4 14  1  0  0  0  0
  5 12  1  6  0  0  0
  5 19  1  0  0  0  0
  6  9  1  0  0  0  0
  6  4  1  1  0  0  0
  7 14  1  0  0  0  0
  8 11  1  1  0  0  0
  8 16  1  0  0  0  0
  8  5  1  0  0  0  0
  9  3  1  6  0  0  0
  9  7  1  0  0  0  0
 10  6  1  0  0  0  0
 14 13  1  0  0  0  0
 16 15  1  0  0  0  0
 16  2  1  0  0  0  0
 17 11  1  0  0  0  0
 17 12  1  0  0  0  0
 18 19  1  0  0  0  0
 19 10  1  0  0  0  0
 20 26  1  0  0  0  0
 21 22  1  0  0  0  0
 21 20  1  0  0  0  0
 23 22  1  0  0  0  0
 24 21  1  0  0  0  0
 25 24  3  0  0  0  0
 26 27  1  0  0  0  0
 27 28  1  0  0  0  0
 28 30  2  0  0  0  0
 28 29  1  0  0  0  0
M  END
>  <MODEL>
5

>  <REMARK>
 VINA RESULT:      -6.8      2.547      4.073
  Name = 
  7 active torsions:
  status: ('A' for Active; 'I' for Inactive)
    1  A    between atoms: C_1  and  C_22
    2  A    between atoms: C_2  and  C_14
    3  A    between atoms: C_3  and  C_19
    4  A    between atoms: C_14  and  C_20
    5  A    between atoms: C_14  and  C_22
    6  A    between atoms: C_19  and  O_29
    7  A    between atoms: C_22  and  O_29
                            x       y       z     vdW  Elec       q    Type
                         _______ _______ _______ _____ _____    ______ ____

>  <TORSDO>
F 7

$$$$
=
 OpenBabel10272413423D

 30 34  0  0  1  0  0  0  0  0999 V2000
  189.0950  176.4570  142.8350 C   0  0  2  0  0  3  0  0  0  0  0  0
  189.3380  177.3190  141.5550 C   0  0  1  0  0  0  0  0  0  0  0  0
  187.6380  176.4710  143.3110 C   0  0  0  0  0  2  0  0  0  0  0  0
  186.0870  179.2310  141.5730 C   0  0  0  0  0  2  0  0  0  0  0  0
  189.4500  178.4470  138.8260 C   0  0  1  0  0  3  0  0  0  0  0  0
  186.9460  178.0590  141.6550 N   0  0  2  0  0  0  0  0  0  0  0  0
  185.7160  178.0840  143.6670 C   0  0  0  0  0  2  0  0  0  0  0  0
  190.4860  177.4260  139.2180 C   0  0  2  0  0  3  0  0  0  0  0  0
  187.0830  177.8580  143.0800 C   0  0  1  0  0  3  0  0  0  0  0  0
  188.2560  178.3200  141.0460 C   0  0  2  0  0  3  0  0  0  0  0  0
  190.4200  176.4350  138.2530 O   0  0  0  0  0  0  0  0  0  0  0  0
  189.2860  178.2990  137.4480 O   0  0  0  0  0  0  0  0  0  0  0  0
  183.8860  178.7190  142.3080 F   0  0  0  0  0  0  0  0  0  0  0  0
  185.1260  179.1420  142.7520 C   0  0  2  0  0  3  0  0  0  0  0  0
  190.6220  177.8980  141.5410 O   0  0  0  0  0  0  0  0  0  0  0  0
  190.4200  176.8390  140.6360 C   0  0  1  0  0  3  0  0  0  0  0  0
  190.0050  177.1330  137.1050 C   0  0  0  0  0  2  0  0  0  0  0  0
  187.5410  177.0080  139.1520 O   0  0  0  0  0  1  0  0  0  0  0  0
  188.1090  178.2330  139.5240 C   0  0  2  0  0  3  0  0  0  0  0  0
  190.0450  176.6820  144.0320 C   0  0  2  0  0  3  0  0  0  0  0  0
  189.9040  178.0430  144.7290 C   0  0  2  0  0  3  0  0  0  0  0  0
  191.2050  178.8330  144.7580 C   0  0  0  0  0  2  0  0  0  0  0  0
  191.0730  179.9970  144.0020 O   0  0  0  0  0  1  0  0  0  0  0  0
  189.3960  177.8550  146.0920 C   0  0  0  0  0  0  0  0  0  0  0  0
  188.9950  177.7050  147.1670 N   0  0  0  0  0  0  0  0  0  0  0  0
  191.3760  176.3760  143.7200 O   0  0  0  0  0  0  0  0  0  0  0  0
  191.4650  174.9850  143.8300 C   0  0  0  0  0  2  0  0  0  0  0  0
  192.2460  174.5870  145.0460 C   0  0  0  0  0  0  0  0  0  0  0  0
  192.2000  175.3890  146.3060 C   0  0  0  0  0  1  0  0  0  0  0  0
  192.9380  173.5840  145.0050 O   0  0  0  0  0  0  0  0  0  0  0  0
  1  3  1  0  0  0  0
  1 20  1  1  0  0  0
  2 15  1  1  0  0  0
  2  1  1  0  0  0  0
  4 14  1  0  0  0  0
  5 12  1  6  0  0  0
  5  8  1  0  0  0  0
  5 19  1  0  0  0  0
  6  4  1  1  0  0  0
  6  9  1  0  0  0  0
  8 11  1  6  0  0  0
  8 16  1  0  0  0  0
  9  3  1  6  0  0  0
  9  7  1  0  0  0  0
 10  2  1  0  0  0  0
 10  6  1  0  0  0  0
 13 14  1  0  0  0  0
 14  7  1  0  0  0  0
 16 15  1  0  0  0  0
 16  2  1  0  0  0  0
 17 12  1  0  0  0  0
 17 11  1  0  0  0  0
 18 19  1  0  0  0  0
 19 10  1  0  0  0  0
 20 21  1  0  0  0  0
 21 22  1  0  0  0  0
 21 24  1  0  0  0  0
 23 22  1  0  0  0  0
 24 25  3  0  0  0  0
 26 27  1  0  0  0  0
 26 20  1  0  0  0  0
 27 28  1  0  0  0  0
 28 29  1  0  0  0  0
 30 28  2  0  0  0  0
M  END
>  <MODEL>
6

>  <REMARK>
 VINA RESULT:      -6.8      1.609      2.789
  Name = 
  7 active torsions:
  status: ('A' for Active; 'I' for Inactive)
    1  A    between atoms: C_1  and  C_22
    2  A    between atoms: C_2  and  C_14
    3  A    between atoms: C_3  and  C_19
    4  A    between atoms: C_14  and  C_20
    5  A    between atoms: C_14  and  C_22
    6  A    between atoms: C_19  and  O_29
    7  A    between atoms: C_22  and  O_29
                            x       y       z     vdW  Elec       q    Type
                         _______ _______ _______ _____ _____    ______ ____

>  <TORSDO>
F 7

$$$$
=
 OpenBabel10272413423D

 30 34  0  0  1  0  0  0  0  0999 V2000
  189.0070  177.0050  143.5490 C   0  0  2  0  0  3  0  0  0  0  0  0
  189.3320  177.6880  142.1810 C   0  0  1  0  0  0  0  0  0  0  0  0
  187.5060  176.9080  143.8400 C   0  0  0  0  0  2  0  0  0  0  0  0
  185.9260  179.1570  141.4960 C   0  0  0  0  0  2  0  0  0  0  0  0
  189.6980  178.3960  139.3360 C   0  0  1  0  0  3  0  0  0  0  0  0
  186.8840  178.1280  141.8720 N   0  0  2  0  0  0  0  0  0  0  0  0
  185.3940  178.3020  143.6920 C   0  0  0  0  0  2  0  0  0  0  0  0
  190.7720  177.5840  140.0120 C   0  0  2  0  0  3  0  0  0  0  0  0
  186.8450  178.1630  143.3170 C   0  0  1  0  0  3  0  0  0  0  0  0
  188.2310  178.4560  141.3880 C   0  0  2  0  0  3  0  0  0  0  0  0
  190.9430  176.4580  139.2240 O   0  0  0  0  0  0  0  0  0  0  0  0
  189.7420  178.0210  137.9920 O   0  0  0  0  0  0  0  0  0  0  0  0
  183.7120  178.4890  142.0390 F   0  0  0  0  0  0  0  0  0  0  0  0
  184.8270  179.1260  142.5510 C   0  0  2  0  0  3  0  0  0  0  0  0
  190.5370  178.4150  142.2240 O   0  0  0  0  0  0  0  0  0  0  0  0
  190.5740  177.2150  141.4900 C   0  0  1  0  0  3  0  0  0  0  0  0
  190.6190  176.9170  137.9360 C   0  0  0  0  0  2  0  0  0  0  0  0
  187.9250  176.7940  139.6670 O   0  0  0  0  0  1  0  0  0  0  0  0
  188.3040  178.1230  139.8960 C   0  0  2  0  0  3  0  0  0  0  0  0
  189.7560  177.5260  144.7960 C   0  0  2  0  0  3  0  0  0  0  0  0
  190.6040  176.4780  145.5310 C   0  0  2  0  0  3  0  0  0  0  0  0
  191.5350  177.0900  146.5690 C   0  0  0  0  0  2  0  0  0  0  0  0
  192.3480  176.1010  147.1230 O   0  0  0  0  0  1  0  0  0  0  0  0
  191.3750  175.6920  144.5620 C   0  0  0  0  0  0  0  0  0  0  0  0
  191.9830  175.0710  143.7980 N   0  0  0  0  0  0  0  0  0  0  0  0
  188.9150  178.2380  145.6630 O   0  0  0  0  0  0  0  0  0  0  0  0
  188.9940  177.5600  146.8830 C   0  0  0  0  0  2  0  0  0  0  0  0
  187.8080  177.8640  147.7490 C   0  0  0  0  0  0  0  0  0  0  0  0
  186.5460  178.4260  147.1810 C   0  0  0  0  0  1  0  0  0  0  0  0
  187.8780  177.6490  148.9470 O   0  0  0  0  0  0  0  0  0  0  0  0
  1  3  1  0  0  0  0
  1 20  1  1  0  0  0
  2 15  1  1  0  0  0
  2  1  1  0  0  0  0
  4 14  1  0  0  0  0
  5 12  1  6  0  0  0
  5 19  1  0  0  0  0
  5  8  1  0  0  0  0
  6  4  1  6  0  0  0
  6  9  1  0  0  0  0
  8 11  1  6  0  0  0
  8 16  1  0  0  0  0
  9  7  1  6  0  0  0
  9  3  1  0  0  0  0
 10  6  1  0  0  0  0
 10  2  1  0  0  0  0
 13 14  1  0  0  0  0
 14  7  1  0  0  0  0
 16  2  1  0  0  0  0
 16 15  1  0  0  0  0
 17 12  1  0  0  0  0
 17 11  1  0  0  0  0
 18 19  1  0  0  0  0
 19 10  1  0  0  0  0
 20 21  1  0  0  0  0
 20 26  1  0  0  0  0
 21 22  1  0  0  0  0
 22 23  1  0  0  0  0
 24 21  1  0  0  0  0
 25 24  3  0  0  0  0
 26 27  1  0  0  0  0
 27 28  1  0  0  0  0
 28 30  2  0  0  0  0
 29 28  1  0  0  0  0
M  END
>  <MODEL>
7

>  <REMARK>
 VINA RESULT:      -6.8      1.001      1.185
  Name = 
  7 active torsions:
  status: ('A' for Active; 'I' for Inactive)
    1  A    between atoms: C_1  and  C_22
    2  A    between atoms: C_2  and  C_14
    3  A    between atoms: C_3  and  C_19
    4  A    between atoms: C_14  and  C_20
    5  A    between atoms: C_14  and  C_22
    6  A    between atoms: C_19  and  O_29
    7  A    between atoms: C_22  and  O_29
                            x       y       z     vdW  Elec       q    Type
                         _______ _______ _______ _____ _____    ______ ____

>  <TORSDO>
F 7

$$$$
=
 OpenBabel10272413423D

 30 34  0  0  1  0  0  0  0  0999 V2000
  188.0380  176.9370  142.9980 C   0  0  2  0  0  3  0  0  0  0  0  0
  187.1940  178.0140  142.2440 C   0  0  1  0  0  0  0  0  0  0  0  0
  187.4590  176.5560  144.3640 C   0  0  0  0  0  2  0  0  0  0  0  0
  185.0500  179.1330  145.1380 C   0  0  0  0  0  2  0  0  0  0  0  0
  185.1530  179.5370  140.7460 C   0  0  1  0  0  3  0  0  0  0  0  0
  185.7020  178.1820  144.2500 N   0  0  2  0  0  0  0  0  0  0  0  0
  186.4400  177.6310  146.4210 C   0  0  0  0  0  2  0  0  0  0  0  0
  186.1520  178.7240  139.9630 C   0  0  2  0  0  3  0  0  0  0  0  0
  186.8830  177.8040  144.9940 C   0  0  1  0  0  3  0  0  0  0  0  0
  186.0770  178.8160  142.9800 C   0  0  2  0  0  3  0  0  0  0  0  0
  185.4020  177.9000  139.1410 O   0  0  0  0  0  0  0  0  0  0  0  0
  184.0010  179.5660  139.9580 O   0  0  0  0  0  0  0  0  0  0  0  0
  184.2030  178.0420  147.0710 F   0  0  0  0  0  0  0  0  0  0  0  0
  185.3300  178.6570  146.5580 C   0  0  2  0  0  3  0  0  0  0  0  0
  187.9970  178.8590  141.4520 O   0  0  0  0  0  0  0  0  0  0  0  0
  187.2070  177.9300  140.7480 C   0  0  1  0  0  3  0  0  0  0  0  0
  184.2390  178.6540  138.9070 C   0  0  0  0  0  2  0  0  0  0  0  0
  184.2090  177.6790  141.9600 O   0  0  0  0  0  1  0  0  0  0  0  0
  184.8250  178.9290  142.1060 C   0  0  2  0  0  3  0  0  0  0  0  0
  189.5590  177.1830  143.1170 C   0  0  2  0  0  3  0  0  0  0  0  0
  189.9950  177.9720  144.3610 C   0  0  2  0  0  3  0  0  0  0  0  0
  190.6210  179.3170  144.0210 C   0  0  0  0  0  2  0  0  0  0  0  0
  192.0110  179.2040  144.0030 O   0  0  0  0  0  1  0  0  0  0  0  0
  190.9250  177.1680  145.1600 C   0  0  0  0  0  0  0  0  0  0  0  0
  191.6610  176.5350  145.7900 N   0  0  0  0  0  0  0  0  0  0  0  0
  190.1090  177.6990  141.9370 O   0  0  0  0  0  0  0  0  0  0  0  0
  190.5730  176.5830  141.2340 C   0  0  0  0  0  2  0  0  0  0  0  0
  190.8360  176.9190  139.7970 C   0  0  0  0  0  0  0  0  0  0  0  0
  192.2250  176.9740  139.2470 C   0  0  0  0  0  1  0  0  0  0  0  0
  189.8940  177.1540  139.0600 O   0  0  0  0  0  0  0  0  0  0  0  0
  1 20  1  1  0  0  0
  1  3  1  0  0  0  0
  2 15  1  1  0  0  0
  2 10  1  0  0  0  0
  2  1  1  0  0  0  0
  4 14  1  0  0  0  0
  5 12  1  6  0  0  0
  5 19  1  0  0  0  0
  6  9  1  0  0  0  0
  6  4  1  1  0  0  0
  7 14  1  0  0  0  0
  8 11  1  1  0  0  0
  8  5  1  0  0  0  0
  8 16  1  0  0  0  0
  9  3  1  6  0  0  0
  9  7  1  0  0  0  0
 10  6  1  0  0  0  0
 14 13  1  0  0  0  0
 16 15  1  0  0  0  0
 16  2  1  0  0  0  0
 17 11  1  0  0  0  0
 17 12  1  0  0  0  0
 18 19  1  0  0  0  0
 19 10  1  0  0  0  0
 20 21  1  0  0  0  0
 21 24  1  0  0  0  0
 22 21  1  0  0  0  0
 23 22  1  0  0  0  0
 24 25  3  0  0  0  0
 26 20  1  0  0  0  0
 27 26  1  0  0  0  0
 28 27  1  0  0  0  0
 29 28  1  0  0  0  0
 30 28  2  0  0  0  0
M  END
>  <MODEL>
8

>  <REMARK>
 VINA RESULT:      -6.6      2.297      4.643
  Name = 
  7 active torsions:
  status: ('A' for Active; 'I' for Inactive)
    1  A    between atoms: C_1  and  C_22
    2  A    between atoms: C_2  and  C_14
    3  A    between atoms: C_3  and  C_19
    4  A    between atoms: C_14  and  C_20
    5  A    between atoms: C_14  and  C_22
    6  A    between atoms: C_19  and  O_29
    7  A    between atoms: C_22  and  O_29
                            x       y       z     vdW  Elec       q    Type
                         _______ _______ _______ _____ _____    ______ ____

>  <TORSDO>
F 7

$$$$
=
 OpenBabel10272413423D

 30 34  0  0  1  0  0  0  0  0999 V2000
  189.6710  177.8760  141.3830 C   0  0  2  0  0  3  0  0  0  0  0  0
  189.6920  177.0920  142.7350 C   0  0  1  0  0  0  0  0  0  0  0  0
  188.4520  178.7920  141.2300 C   0  0  0  0  0  2  0  0  0  0  0  0
  186.1220  177.7260  143.7760 C   0  0  0  0  0  2  0  0  0  0  0  0
  189.8720  176.2260  145.5540 C   0  0  1  0  0  3  0  0  0  0  0  0
  187.4490  178.0660  143.2820 N   0  0  2  0  0  0  0  0  0  0  0  0
  185.9470  178.7890  141.6140 C   0  0  0  0  0  2  0  0  0  0  0  0
  191.1470  176.3280  144.7570 C   0  0  2  0  0  3  0  0  0  0  0  0
  187.2610  178.0960  141.8490 C   0  0  1  0  0  3  0  0  0  0  0  0
  188.4300  177.0370  143.6490 C   0  0  2  0  0  3  0  0  0  0  0  0
  191.9830  177.1520  145.4920 O   0  0  0  0  0  0  0  0  0  0  0  0
  190.2410  176.4790  146.8770 O   0  0  0  0  0  0  0  0  0  0  0  0
  184.6030  179.5170  143.4200 F   0  0  0  0  0  0  0  0  0  0  0  0
  185.1290  178.3850  142.8270 C   0  0  2  0  0  3  0  0  0  0  0  0
  190.2870  175.8220  142.6030 O   0  0  0  0  0  0  0  0  0  0  0  0
  191.0480  176.7840  143.2940 C   0  0  1  0  0  3  0  0  0  0  0  0
  191.5820  176.9140  146.8180 C   0  0  0  0  0  2  0  0  0  0  0  0
  189.2530  178.5470  145.3410 O   0  0  0  0  0  1  0  0  0  0  0  0
  188.8140  177.2360  145.1180 C   0  0  2  0  0  3  0  0  0  0  0  0
  189.8870  177.0620  140.0880 C   0  0  2  0  0  3  0  0  0  0  0  0
  191.3300  176.5920  139.8480 C   0  0  2  0  0  3  0  0  0  0  0  0
  192.3630  177.6640  140.1660 C   0  0  0  0  0  2  0  0  0  0  0  0
  193.6090  177.2880  139.6640 O   0  0  0  0  0  1  0  0  0  0  0  0
  191.4820  176.1370  138.4630 C   0  0  0  0  0  0  0  0  0  0  0  0
  191.6000  175.7780  137.3690 N   0  0  0  0  0  0  0  0  0  0  0  0
  189.3360  177.6920  138.9650 O   0  0  0  0  0  0  0  0  0  0  0  0
  188.3200  176.8350  138.5300 C   0  0  0  0  0  2  0  0  0  0  0  0
  187.2330  177.5950  137.8300 C   0  0  0  0  0  0  0  0  0  0  0  0
  186.2990  176.9260  136.8760 C   0  0  0  0  0  1  0  0  0  0  0  0
  187.1110  178.7890  138.0450 O   0  0  0  0  0  0  0  0  0  0  0  0
  1 20  1  6  0  0  0
  1  2  1  0  0  0  0
  2 15  1  6  0  0  0
  2 16  1  0  0  0  0
  2 10  1  0  0  0  0
  3  1  1  0  0  0  0
  5 12  1  1  0  0  0
  6 10  1  0  0  0  0
  6  4  1  1  0  0  0
  7  9  1  0  0  0  0
  7 14  1  0  0  0  0
  8 11  1  1  0  0  0
  8  5  1  0  0  0  0
  9  3  1  6  0  0  0
  9  6  1  0  0  0  0
 10 19  1  0  0  0  0
 11 17  1  0  0  0  0
 14 13  1  0  0  0  0
 14  4  1  0  0  0  0
 15 16  1  0  0  0  0
 16  8  1  0  0  0  0
 17 12  1  0  0  0  0
 19 18  1  0  0  0  0
 19  5  1  0  0  0  0
 21 20  1  0  0  0  0
 21 22  1  0  0  0  0
 23 22  1  0  0  0  0
 24 21  1  0  0  0  0
 25 24  3  0  0  0  0
 26 20  1  0  0  0  0
 27 26  1  0  0  0  0
 28 30  2  0  0  0  0
 28 27  1  0  0  0  0
 29 28  1  0  0  0  0
M  END
>  <MODEL>
9

>  <REMARK>
 VINA RESULT:      -6.6      2.105      6.014
  Name = 
  7 active torsions:
  status: ('A' for Active; 'I' for Inactive)
    1  A    between atoms: C_1  and  C_22
    2  A    between atoms: C_2  and  C_14
    3  A    between atoms: C_3  and  C_19
    4  A    between atoms: C_14  and  C_20
    5  A    between atoms: C_14  and  C_22
    6  A    between atoms: C_19  and  O_29
    7  A    between atoms: C_22  and  O_29
                            x       y       z     vdW  Elec       q    Type
                         _______ _______ _______ _____ _____    ______ ____

>  <TORSDO>
F 7

$$$$
