=
 OpenBabel10272415083D

 34 38  0  0  1  0  0  0  0  0999 V2000
  189.1770  177.6650  144.9470 C   0  0  0  0  0  0  0  0  0  0  0  0
  191.5230  177.8510  141.9010 C   0  0  0  0  0  2  0  0  0  0  0  0
  191.7620  176.9750  144.2240 O   0  0  0  0  0  0  0  0  0  0  0  0
  189.9510  176.8630  147.2250 C   0  0  0  0  0  0  0  0  0  0  0  0
  191.1820  176.4190  147.6650 O   0  0  0  0  0  0  0  0  0  0  0  0
  188.9830  177.1090  147.9900 O   0  0  0  0  0  0  0  0  0  0  0  0
  191.1840  176.2650  145.3180 C   0  0  2  0  0  3  0  0  0  0  0  0
  189.9490  176.9490  145.7830 C   0  0  0  0  0  0  0  0  0  0  0  0
  192.0760  176.2270  146.5670 C   0  0  0  0  0  2  0  0  0  0  0  0
  190.8680  176.9980  140.8230 C   0  0  0  0  0  2  0  0  0  0  0  0
  189.5680  177.6330  140.3350 C   0  0  2  0  0  3  0  0  0  0  0  0
  188.4590  177.5440  141.3790 C   0  0  0  0  0  2  0  0  0  0  0  0
  190.9350  177.5550  143.2460 C   0  0  0  0  0  0  0  0  0  0  0  0
  188.7290  178.4850  142.5460 C   0  0  0  0  0  2  0  0  0  0  0  0
  189.6470  177.8490  143.5490 C   0  0  0  0  0  0  0  0  0  0  0  0
  189.1270  176.9700  139.0750 C   0  0  0  0  0  0  0  0  0  0  0  0
  187.8990  177.2840  138.5040 O   0  0  0  0  0  0  0  0  0  0  0  0
  189.8740  176.1210  138.5230 O   0  0  0  0  0  1  0  0  0  0  0  0
  188.0070  178.3640  145.3850 N   0  0  0  0  0  2  0  0  0  0  0  0
  186.7520  177.6930  145.6820 C   0  0  0  0  0  2  0  0  0  0  0  0
  185.6520  178.6420  145.5870 N   0  0  0  0  0  2  0  0  0  0  0  0
  182.5060  178.8260  143.5920 C   0  0  0  0  0  3  0  0  0  0  0  0
  185.2720  178.7200  143.1480 C   0  0  0  0  0  3  0  0  0  0  0  0
  182.6190  178.8880  139.8840 C   0  0  0  0  0  0  0  0  0  0  0  0
  182.1260  178.8860  141.2000 C   0  0  0  0  0  3  0  0  0  0  0  0
  183.0020  178.8310  142.2860 C   0  0  0  0  0  0  0  0  0  0  0  0
  184.8920  178.7790  140.7580 C   0  0  0  0  0  3  0  0  0  0  0  0
  184.3960  178.7780  142.0620 C   0  0  0  0  0  0  0  0  0  0  0  0
  184.0080  178.8340  139.6760 C   0  0  0  0  0  3  0  0  0  0  0  0
  184.7720  178.7120  144.4600 C   0  0  0  0  0  0  0  0  0  0  0  0
  183.3910  178.7670  144.6750 C   0  0  0  0  0  3  0  0  0  0  0  0
  181.7140  178.9450  138.7640 N   0  0  0  0  0  0  0  0  0  0  0  0
  180.4360  179.6350  138.8620 C   0  0  0  0  0  1  0  0  0  0  0  0
  182.0440  178.3160  137.4940 C   0  0  0  0  0  1  0  0  0  0  0  0
  1 19  1  0  0  0  0
  1  8  2  0  0  0  0
  2 13  1  0  0  0  0
  3  7  1  0  0  0  0
  4  5  1  0  0  0  0
  4  6  2  0  0  0  0
  7  8  1  0  0  0  0
  7  9  1  1  0  0  0
  8  4  1  0  0  0  0
  9  5  1  0  0  0  0
 10  2  1  0  0  0  0
 11 16  1  6  0  0  0
 11 10  1  0  0  0  0
 11 12  1  0  0  0  0
 12 14  1  0  0  0  0
 13 15  2  0  0  0  0
 13  3  1  0  0  0  0
 14 15  1  0  0  0  0
 15  1  1  0  0  0  0
 17 16  2  0  0  0  0
 18 16  1  0  0  0  0
 19 20  1  0  0  0  0
 21 20  1  0  0  0  0
 22 31  1  0  0  0  0
 23 30  1  0  0  0  0
 24 25  2  0  0  0  0
 25 26  1  0  0  0  0
 26 22  2  0  0  0  0
 27 28  1  0  0  0  0
 28 26  1  0  0  0  0
 28 23  2  0  0  0  0
 29 24  1  0  0  0  0
 29 27  2  0  0  0  0
 30 31  2  0  0  0  0
 30 21  1  0  0  0  0
 32 33  1  0  0  0  0
 32 24  1  0  0  0  0
 34 32  1  0  0  0  0
M  END
>  <MODEL>
1

>  <REMARK>
 VINA RESULT:      -9.1      0.000      0.000
  Name = 
  6 active torsions:
  status: ('A' for Active; 'I' for Inactive)
    1  A    between atoms: C_1  and  N_9
    2  A    between atoms: C_3  and  C_25
    3  A    between atoms: C_7  and  N_11
    4  A    between atoms: C_8  and  N_9
    5  A    between atoms: C_8  and  N_18
    6  A    between atoms: N_18  and  C_30
                            x       y       z     vdW  Elec       q    Type
                         _______ _______ _______ _____ _____    ______ ____

>  <TORSDO>
F 6

$$$$
=
 OpenBabel10272415083D

 34 38  0  0  1  0  0  0  0  0999 V2000
  190.1010  176.2220  137.6940 C   0  0  0  0  0  0  0  0  0  0  0  0
  186.6570  176.8240  136.0840 C   0  0  0  0  0  2  0  0  0  0  0  0
  188.2690  174.9210  136.0730 O   0  0  0  0  0  0  0  0  0  0  0  0
  191.4970  174.1610  137.2110 C   0  0  0  0  0  0  0  0  0  0  0  0
  191.2610  173.0700  136.3990 O   0  0  0  0  0  0  0  0  0  0  0  0
  192.6050  174.3970  137.7590 O   0  0  0  0  0  0  0  0  0  0  0  0
  189.1860  174.1040  136.7970 C   0  0  2  0  0  3  0  0  0  0  0  0
  190.2860  174.9340  137.3560 C   0  0  0  0  0  0  0  0  0  0  0  0
  189.9130  173.0710  135.9240 C   0  0  0  0  0  2  0  0  0  0  0  0
  185.6840  176.9980  137.2420 C   0  0  0  0  0  2  0  0  0  0  0  0
  185.9700  178.2870  138.0090 C   0  0  2  0  0  3  0  0  0  0  0  0
  187.2580  178.1960  138.8240 C   0  0  0  0  0  2  0  0  0  0  0  0
  187.9360  176.2000  136.5500 C   0  0  0  0  0  0  0  0  0  0  0  0
  188.4810  178.2130  137.9180 C   0  0  0  0  0  2  0  0  0  0  0  0
  188.7830  176.8390  137.3940 C   0  0  0  0  0  0  0  0  0  0  0  0
  184.8250  178.6000  138.9110 C   0  0  0  0  0  0  0  0  0  0  0  0
  184.6400  179.8900  139.3950 O   0  0  0  0  0  1  0  0  0  0  0  0
  184.0190  177.6900  139.2330 O   0  0  0  0  0  0  0  0  0  0  0  0
  191.1570  177.0480  138.1950 N   0  0  0  0  0  2  0  0  0  0  0  0
  191.4620  177.1650  139.6120 C   0  0  0  0  0  2  0  0  0  0  0  0
  190.5610  176.3170  140.3800 N   0  0  0  0  0  2  0  0  0  0  0  0
  190.6710  176.9640  144.0520 C   0  0  0  0  0  3  0  0  0  0  0  0
  188.7790  176.9040  141.9840 C   0  0  0  0  0  3  0  0  0  0  0  0
  187.5740  177.7900  145.9200 C   0  0  0  0  0  0  0  0  0  0  0  0
  188.9240  177.5230  145.6330 C   0  0  0  0  0  3  0  0  0  0  0  0
  189.3280  177.2300  144.3290 C   0  0  0  0  0  0  0  0  0  0  0  0
  187.0330  177.4620  143.5660 C   0  0  0  0  0  3  0  0  0  0  0  0
  188.3750  177.2000  143.2880 C   0  0  0  0  0  0  0  0  0  0  0  0
  186.6360  177.7550  144.8740 C   0  0  0  0  0  3  0  0  0  0  0  0
  190.1280  176.6330  141.7070 C   0  0  0  0  0  0  0  0  0  0  0  0
  191.0680  176.6660  142.7430 C   0  0  0  0  0  3  0  0  0  0  0  0
  187.1580  178.0920  147.2660 N   0  0  0  0  0  0  0  0  0  0  0  0
  187.9320  177.6430  148.4130 C   0  0  0  0  0  1  0  0  0  0  0  0
  185.9490  178.8590  147.5280 C   0  0  0  0  0  1  0  0  0  0  0  0
  1 19  1  0  0  0  0
  2 13  1  0  0  0  0
  2 10  1  0  0  0  0
  3 13  1  0  0  0  0
  3  7  1  0  0  0  0
  4  8  1  0  0  0  0
  4  6  2  0  0  0  0
  5  4  1  0  0  0  0
  7  9  1  6  0  0  0
  7  8  1  0  0  0  0
  8  1  2  0  0  0  0
  9  5  1  0  0  0  0
 10 11  1  0  0  0  0
 11 12  1  0  0  0  0
 11 16  1  1  0  0  0
 13 15  2  0  0  0  0
 14 12  1  0  0  0  0
 15  1  1  0  0  0  0
 15 14  1  0  0  0  0
 16 18  2  0  0  0  0
 16 17  1  0  0  0  0
 19 20  1  0  0  0  0
 20 21  1  0  0  0  0
 21 30  1  0  0  0  0
 22 26  1  0  0  0  0
 23 28  1  0  0  0  0
 24 32  1  0  0  0  0
 25 24  1  0  0  0  0
 26 25  2  0  0  0  0
 27 29  1  0  0  0  0
 28 27  2  0  0  0  0
 28 26  1  0  0  0  0
 29 24  2  0  0  0  0
 30 23  2  0  0  0  0
 30 31  1  0  0  0  0
 31 22  2  0  0  0  0
 32 34  1  0  0  0  0
 32 33  1  0  0  0  0
M  END
>  <MODEL>
2

>  <REMARK>
 VINA RESULT:      -8.8      3.931      7.869
  Name = 
  6 active torsions:
  status: ('A' for Active; 'I' for Inactive)
    1  A    between atoms: C_1  and  N_9
    2  A    between atoms: C_3  and  C_25
    3  A    between atoms: C_7  and  N_11
    4  A    between atoms: C_8  and  N_9
    5  A    between atoms: C_8  and  N_18
    6  A    between atoms: N_18  and  C_30
                            x       y       z     vdW  Elec       q    Type
                         _______ _______ _______ _____ _____    ______ ____

>  <TORSDO>
F 6

$$$$
=
 OpenBabel10272415083D

 34 38  0  0  1  0  0  0  0  0999 V2000
  184.5810  178.4020  140.0240 C   0  0  0  0  0  0  0  0  0  0  0  0
  182.5840  179.2460  143.2050 C   0  0  0  0  0  2  0  0  0  0  0  0
  182.0120  178.1560  141.0360 O   0  0  0  0  0  0  0  0  0  0  0  0
  183.4940  177.4630  137.9340 C   0  0  0  0  0  0  0  0  0  0  0  0
  182.1800  177.1440  137.6550 O   0  0  0  0  0  0  0  0  0  0  0  0
  184.4060  177.4870  137.0680 O   0  0  0  0  0  0  0  0  0  0  0  0
  182.3870  177.2560  139.9950 C   0  0  2  0  0  3  0  0  0  0  0  0
  183.6470  177.7090  139.3490 C   0  0  0  0  0  0  0  0  0  0  0  0
  181.3800  177.2000  138.8370 C   0  0  0  0  0  2  0  0  0  0  0  0
  183.2280  178.4370  144.3240 C   0  0  0  0  0  2  0  0  0  0  0  0
  184.6390  178.9400  144.6210 C   0  0  2  0  0  3  0  0  0  0  0  0
  185.6210  178.5850  143.5090 C   0  0  0  0  0  2  0  0  0  0  0  0
  182.9960  178.7240  141.8630 C   0  0  0  0  0  0  0  0  0  0  0  0
  185.3590  179.4170  142.2610 C   0  0  0  0  0  2  0  0  0  0  0  0
  184.2760  178.8030  141.4220 C   0  0  0  0  0  0  0  0  0  0  0  0
  185.1140  178.3690  145.9140 C   0  0  0  0  0  0  0  0  0  0  0  0
  186.1370  177.4280  145.9360 O   0  0  0  0  0  0  0  0  0  0  0  0
  184.5850  178.7440  146.9920 O   0  0  0  0  0  1  0  0  0  0  0  0
  185.7810  178.8820  139.4090 N   0  0  0  0  0  2  0  0  0  0  0  0
  186.8840  178.0080  139.0450 C   0  0  0  0  0  2  0  0  0  0  0  0
  188.1390  178.5790  139.5140 N   0  0  0  0  0  2  0  0  0  0  0  0
  190.6450  176.5490  141.3870 C   0  0  0  0  0  3  0  0  0  0  0  0
  188.6240  178.4140  141.9300 C   0  0  0  0  0  3  0  0  0  0  0  0
  190.8500  176.7400  145.0870 C   0  0  0  0  0  0  0  0  0  0  0  0
  191.1140  176.3700  143.7580 C   0  0  0  0  0  3  0  0  0  0  0  0
  190.3790  176.9230  142.7070 C   0  0  0  0  0  0  0  0  0  0  0  0
  189.0920  178.2330  144.2980 C   0  0  0  0  0  3  0  0  0  0  0  0
  189.3610  177.8620  142.9800 C   0  0  0  0  0  0  0  0  0  0  0  0
  189.8320  177.6750  145.3440 C   0  0  0  0  0  3  0  0  0  0  0  0
  188.8890  178.0350  140.6040 C   0  0  0  0  0  0  0  0  0  0  0  0
  189.9010  177.1050  140.3400 C   0  0  0  0  0  3  0  0  0  0  0  0
  191.6090  176.1690  146.1700 N   0  0  0  0  0  0  0  0  0  0  0  0
  192.4210  174.9770  145.9750 C   0  0  0  0  0  1  0  0  0  0  0  0
  191.5920  176.7630  147.4990 C   0  0  0  0  0  1  0  0  0  0  0  0
  1 15  1  0  0  0  0
  2 10  1  0  0  0  0
  3 13  1  0  0  0  0
  4  8  1  0  0  0  0
  5  4  1  0  0  0  0
  5  9  1  0  0  0  0
  6  4  2  0  0  0  0
  7  9  1  6  0  0  0
  7  3  1  0  0  0  0
  8  7  1  0  0  0  0
  8  1  2  0  0  0  0
 10 11  1  0  0  0  0
 11 16  1  1  0  0  0
 12 11  1  0  0  0  0
 13  2  1  0  0  0  0
 14 12  1  0  0  0  0
 15 13  2  0  0  0  0
 15 14  1  0  0  0  0
 16 17  2  0  0  0  0
 16 18  1  0  0  0  0
 19  1  1  0  0  0  0
 20 19  1  0  0  0  0
 20 21  1  0  0  0  0
 21 30  1  0  0  0  0
 22 26  1  0  0  0  0
 23 28  1  0  0  0  0
 24 29  1  0  0  0  0
 24 32  1  0  0  0  0
 25 24  2  0  0  0  0
 26 28  2  0  0  0  0
 26 25  1  0  0  0  0
 27 29  2  0  0  0  0
 28 27  1  0  0  0  0
 30 23  2  0  0  0  0
 31 30  1  0  0  0  0
 31 22  2  0  0  0  0
 32 34  1  0  0  0  0
 33 32  1  0  0  0  0
M  END
>  <MODEL>
3

>  <REMARK>
 VINA RESULT:      -8.8      2.618      9.046
  Name = 
  6 active torsions:
  status: ('A' for Active; 'I' for Inactive)
    1  A    between atoms: C_1  and  N_9
    2  A    between atoms: C_3  and  C_25
    3  A    between atoms: C_7  and  N_11
    4  A    between atoms: C_8  and  N_9
    5  A    between atoms: C_8  and  N_18
    6  A    between atoms: N_18  and  C_30
                            x       y       z     vdW  Elec       q    Type
                         _______ _______ _______ _____ _____    ______ ____

>  <TORSDO>
F 6

$$$$
=
 OpenBabel10272415083D

 34 38  0  0  1  0  0  0  0  0999 V2000
  190.2050  177.6310  144.6770 C   0  0  0  0  0  0  0  0  0  0  0  0
  191.3540  177.2600  141.0220 C   0  0  0  0  0  2  0  0  0  0  0  0
  191.9280  176.0890  143.1490 O   0  0  0  0  0  0  0  0  0  0  0  0
  191.2550  176.3270  146.5820 C   0  0  0  0  0  0  0  0  0  0  0  0
  192.2730  175.3940  146.5960 O   0  0  0  0  0  0  0  0  0  0  0  0
  190.7580  176.8340  147.6200 O   0  0  0  0  0  0  0  0  0  0  0  0
  191.4840  175.5320  144.3840 C   0  0  2  0  0  3  0  0  0  0  0  0
  190.8410  176.5780  145.2210 C   0  0  0  0  0  0  0  0  0  0  0  0
  192.6240  175.0050  145.2670 C   0  0  0  0  0  2  0  0  0  0  0  0
  190.1130  176.8590  140.2370 C   0  0  0  0  0  2  0  0  0  0  0  0
  189.0980  178.0000  140.1980 C   0  0  2  0  0  3  0  0  0  0  0  0
  188.4310  178.2220  141.5520 C   0  0  0  0  0  2  0  0  0  0  0  0
  191.1470  177.0550  142.4910 C   0  0  0  0  0  0  0  0  0  0  0  0
  189.4050  178.8390  142.5470 C   0  0  0  0  0  2  0  0  0  0  0  0
  190.2500  177.7840  143.2000 C   0  0  0  0  0  0  0  0  0  0  0  0
  188.0600  177.7130  139.1670 C   0  0  0  0  0  0  0  0  0  0  0  0
  188.2250  176.6630  138.2710 O   0  0  0  0  0  0  0  0  0  0  0  0
  187.0250  178.4270  139.1100 O   0  0  0  0  0  1  0  0  0  0  0  0
  189.6150  178.6690  145.4660 N   0  0  0  0  0  2  0  0  0  0  0  0
  188.5830  178.4160  146.4590 C   0  0  0  0  0  2  0  0  0  0  0  0
  187.6000  177.4870  145.9190 N   0  0  0  0  0  2  0  0  0  0  0  0
  184.0980  178.7660  145.8340 C   0  0  0  0  0  3  0  0  0  0  0  0
  186.0420  177.8430  144.0370 C   0  0  0  0  0  3  0  0  0  0  0  0
  182.2630  179.0420  142.6200 C   0  0  0  0  0  0  0  0  0  0  0  0
  182.5590  179.1020  143.9930 C   0  0  0  0  0  3  0  0  0  0  0  0
  183.8110  178.7060  144.4680 C   0  0  0  0  0  0  0  0  0  0  0  0
  184.5030  178.1780  142.1990 C   0  0  0  0  0  3  0  0  0  0  0  0
  184.7900  178.2410  143.5630 C   0  0  0  0  0  0  0  0  0  0  0  0
  183.2470  178.5760  141.7320 C   0  0  0  0  0  3  0  0  0  0  0  0
  186.3280  177.9000  145.4110 C   0  0  0  0  0  0  0  0  0  0  0  0
  185.3540  178.3640  146.3020 C   0  0  0  0  0  3  0  0  0  0  0  0
  180.9700  179.4510  142.1320 N   0  0  0  0  0  0  0  0  0  0  0  0
  180.5120  179.0730  140.8040 C   0  0  0  0  0  1  0  0  0  0  0  0
  180.0750  180.2560  142.9500 C   0  0  0  0  0  1  0  0  0  0  0  0
  1  8  2  0  0  0  0
  1 19  1  0  0  0  0
  2 13  1  0  0  0  0
  3  7  1  0  0  0  0
  4  5  1  0  0  0  0
  4  6  2  0  0  0  0
  7  8  1  0  0  0  0
  7  9  1  1  0  0  0
  8  4  1  0  0  0  0
  9  5  1  0  0  0  0
 10  2  1  0  0  0  0
 11 16  1  6  0  0  0
 11 10  1  0  0  0  0
 11 12  1  0  0  0  0
 12 14  1  0  0  0  0
 13  3  1  0  0  0  0
 13 15  2  0  0  0  0
 14 15  1  0  0  0  0
 15  1  1  0  0  0  0
 17 16  2  0  0  0  0
 18 16  1  0  0  0  0
 19 20  1  0  0  0  0
 21 20  1  0  0  0  0
 22 31  1  0  0  0  0
 23 30  1  0  0  0  0
 24 25  2  0  0  0  0
 25 26  1  0  0  0  0
 26 22  2  0  0  0  0
 27 28  1  0  0  0  0
 28 23  2  0  0  0  0
 28 26  1  0  0  0  0
 29 27  2  0  0  0  0
 29 24  1  0  0  0  0
 30 21  1  0  0  0  0
 30 31  2  0  0  0  0
 32 24  1  0  0  0  0
 32 34  1  0  0  0  0
 33 32  1  0  0  0  0
M  END
>  <MODEL>
4

>  <REMARK>
 VINA RESULT:      -8.6      1.469      2.149
  Name = 
  6 active torsions:
  status: ('A' for Active; 'I' for Inactive)
    1  A    between atoms: C_1  and  N_9
    2  A    between atoms: C_3  and  C_25
    3  A    between atoms: C_7  and  N_11
    4  A    between atoms: C_8  and  N_9
    5  A    between atoms: C_8  and  N_18
    6  A    between atoms: N_18  and  C_30
                            x       y       z     vdW  Elec       q    Type
                         _______ _______ _______ _____ _____    ______ ____

>  <TORSDO>
F 6

$$$$
=
 OpenBabel10272415083D

 34 38  0  0  1  0  0  0  0  0999 V2000
  189.3100  176.9490  145.1840 C   0  0  0  0  0  0  0  0  0  0  0  0
  185.5290  177.6100  145.4840 C   0  0  0  0  0  2  0  0  0  0  0  0
  187.4750  177.9440  147.0080 O   0  0  0  0  0  0  0  0  0  0  0  0
  190.9110  177.2550  147.1270 C   0  0  0  0  0  0  0  0  0  0  0  0
  190.6970  177.6610  148.4290 O   0  0  0  0  0  0  0  0  0  0  0  0
  192.0010  176.7810  146.7120 O   0  0  0  0  0  0  0  0  0  0  0  0
  188.8330  178.3480  147.1710 C   0  0  2  0  0  3  0  0  0  0  0  0
  189.7270  177.5010  146.3370 C   0  0  0  0  0  0  0  0  0  0  0  0
  189.3670  178.1530  148.5970 C   0  0  0  0  0  2  0  0  0  0  0  0
  185.2050  178.6450  144.4160 C   0  0  0  0  0  2  0  0  0  0  0  0
  185.3740  178.0600  143.0160 C   0  0  2  0  0  3  0  0  0  0  0  0
  186.8420  177.8390  142.6590 C   0  0  0  0  0  2  0  0  0  0  0  0
  187.0030  177.5530  145.7430 C   0  0  0  0  0  0  0  0  0  0  0  0
  187.4260  176.6750  143.4470 C   0  0  0  0  0  2  0  0  0  0  0  0
  187.8820  177.1190  144.8070 C   0  0  0  0  0  0  0  0  0  0  0  0
  184.7440  178.9660  142.0130 C   0  0  0  0  0  0  0  0  0  0  0  0
  183.3690  179.1700  142.0120 O   0  0  0  0  0  1  0  0  0  0  0  0
  185.4630  179.5510  141.1630 O   0  0  0  0  0  0  0  0  0  0  0  0
  190.1420  176.0980  144.3900 N   0  0  0  0  0  2  0  0  0  0  0  0
  191.2630  176.5970  143.6090 C   0  0  0  0  0  2  0  0  0  0  0  0
  190.8300  177.7200  142.7900 N   0  0  0  0  0  2  0  0  0  0  0  0
  191.3990  177.1460  139.1490 C   0  0  0  0  0  3  0  0  0  0  0  0
  189.3000  177.8730  140.8590 C   0  0  0  0  0  3  0  0  0  0  0  0
  188.6350  177.5750  136.7120 C   0  0  0  0  0  0  0  0  0  0  0  0
  189.9070  177.3110  137.2480 C   0  0  0  0  0  3  0  0  0  0  0  0
  190.1320  177.4080  138.6230 C   0  0  0  0  0  0  0  0  0  0  0  0
  187.8090  178.0390  138.9580 C   0  0  0  0  0  3  0  0  0  0  0  0
  189.0740  177.7740  139.4840 C   0  0  0  0  0  0  0  0  0  0  0  0
  187.5920  177.9400  137.5810 C   0  0  0  0  0  3  0  0  0  0  0  0
  190.5750  177.6140  141.3860 C   0  0  0  0  0  0  0  0  0  0  0  0
  191.6180  177.2490  140.5280 C   0  0  0  0  0  3  0  0  0  0  0  0
  188.4040  177.4750  135.2930 N   0  0  0  0  0  0  0  0  0  0  0  0
  189.4310  176.9650  134.3960 C   0  0  0  0  0  1  0  0  0  0  0  0
  187.1360  177.8800  134.7050 C   0  0  0  0  0  1  0  0  0  0  0  0
  1  8  2  0  0  0  0
  2 13  1  0  0  0  0
  3  7  1  0  0  0  0
  4  5  1  0  0  0  0
  5  9  1  0  0  0  0
  6  4  2  0  0  0  0
  7  9  1  1  0  0  0
  8  4  1  0  0  0  0
  8  7  1  0  0  0  0
 10  2  1  0  0  0  0
 11 16  1  6  0  0  0
 11 10  1  0  0  0  0
 12 11  1  0  0  0  0
 12 14  1  0  0  0  0
 13  3  1  0  0  0  0
 14 15  1  0  0  0  0
 15  1  1  0  0  0  0
 15 13  2  0  0  0  0
 17 16  1  0  0  0  0
 18 16  2  0  0  0  0
 19  1  1  0  0  0  0
 20 19  1  0  0  0  0
 21 20  1  0  0  0  0
 22 31  1  0  0  0  0
 23 30  1  0  0  0  0
 24 25  2  0  0  0  0
 24 29  1  0  0  0  0
 25 26  1  0  0  0  0
 26 22  2  0  0  0  0
 26 28  1  0  0  0  0
 27 28  1  0  0  0  0
 28 23  2  0  0  0  0
 29 27  2  0  0  0  0
 30 21  1  0  0  0  0
 31 30  2  0  0  0  0
 32 24  1  0  0  0  0
 33 32  1  0  0  0  0
 34 32  1  0  0  0  0
M  END
>  <MODEL>
5

>  <REMARK>
 VINA RESULT:      -8.6      2.882      5.732
  Name = 
  6 active torsions:
  status: ('A' for Active; 'I' for Inactive)
    1  A    between atoms: C_1  and  N_9
    2  A    between atoms: C_3  and  C_25
    3  A    between atoms: C_7  and  N_11
    4  A    between atoms: C_8  and  N_9
    5  A    between atoms: C_8  and  N_18
    6  A    between atoms: N_18  and  C_30
                            x       y       z     vdW  Elec       q    Type
                         _______ _______ _______ _____ _____    ______ ____

>  <TORSDO>
F 6

$$$$
=
 OpenBabel10272415083D

 34 38  0  0  1  0  0  0  0  0999 V2000
  189.9520  176.3660  137.7290 C   0  0  0  0  0  0  0  0  0  0  0  0
  186.4970  176.8600  136.1050 C   0  0  0  0  0  2  0  0  0  0  0  0
  188.1300  174.9760  136.1700 O   0  0  0  0  0  0  0  0  0  0  0  0
  191.3690  174.3020  137.3310 C   0  0  0  0  0  0  0  0  0  0  0  0
  191.1430  173.1740  136.5660 O   0  0  0  0  0  0  0  0  0  0  0  0
  192.4760  174.5730  137.8650 O   0  0  0  0  0  0  0  0  0  0  0  0
  189.0580  174.2010  136.9270 C   0  0  2  0  0  3  0  0  0  0  0  0
  190.1500  175.0670  137.4460 C   0  0  0  0  0  0  0  0  0  0  0  0
  189.7940  173.1400  136.0970 C   0  0  0  0  0  2  0  0  0  0  0  0
  185.5250  177.0720  137.2580 C   0  0  0  0  0  2  0  0  0  0  0  0
  185.7980  178.3960  137.9680 C   0  0  2  0  0  3  0  0  0  0  0  0
  187.0890  178.3550  138.7820 C   0  0  0  0  0  2  0  0  0  0  0  0
  187.7840  176.2700  136.5930 C   0  0  0  0  0  0  0  0  0  0  0  0
  188.3100  178.3470  137.8720 C   0  0  0  0  0  2  0  0  0  0  0  0
  188.6250  176.9550  137.4070 C   0  0  0  0  0  0  0  0  0  0  0  0
  184.6520  178.7350  138.8590 C   0  0  0  0  0  0  0  0  0  0  0  0
  184.6550  179.9130  139.5960 O   0  0  0  0  0  1  0  0  0  0  0  0
  183.6730  177.9490  138.9410 O   0  0  0  0  0  0  0  0  0  0  0  0
  190.9990  177.2240  138.1920 N   0  0  0  0  0  2  0  0  0  0  0  0
  191.2890  177.4260  139.6020 C   0  0  0  0  0  2  0  0  0  0  0  0
  190.5590  176.4490  140.3980 N   0  0  0  0  0  2  0  0  0  0  0  0
  187.8160  177.5800  142.6570 C   0  0  0  0  0  3  0  0  0  0  0  0
  190.4610  176.6730  142.8550 C   0  0  0  0  0  3  0  0  0  0  0  0
  188.3250  177.7160  146.3300 C   0  0  0  0  0  0  0  0  0  0  0  0
  187.7190  177.8190  145.0660 C   0  0  0  0  0  3  0  0  0  0  0  0
  188.4230  177.4730  143.9100 C   0  0  0  0  0  0  0  0  0  0  0  0
  190.3640  176.9130  145.2620 C   0  0  0  0  0  3  0  0  0  0  0  0
  189.7550  177.0170  144.0100 C   0  0  0  0  0  0  0  0  0  0  0  0
  189.6520  177.2610  146.4140 C   0  0  0  0  0  3  0  0  0  0  0  0
  189.8510  176.7850  141.5950 C   0  0  0  0  0  0  0  0  0  0  0  0
  188.5290  177.2360  141.5040 C   0  0  0  0  0  3  0  0  0  0  0  0
  187.5970  178.0730  147.5210 N   0  0  0  0  0  0  0  0  0  0  0  0
  188.2310  178.0380  148.8310 C   0  0  0  0  0  1  0  0  0  0  0  0
  186.2020  178.4810  147.4590 C   0  0  0  0  0  1  0  0  0  0  0  0
  1 19  1  0  0  0  0
  2 13  1  0  0  0  0
  2 10  1  0  0  0  0
  3 13  1  0  0  0  0
  3  7  1  0  0  0  0
  4  8  1  0  0  0  0
  4  6  2  0  0  0  0
  5  4  1  0  0  0  0
  7  9  1  6  0  0  0
  7  8  1  0  0  0  0
  8  1  2  0  0  0  0
  9  5  1  0  0  0  0
 10 11  1  0  0  0  0
 11 12  1  0  0  0  0
 11 16  1  1  0  0  0
 13 15  2  0  0  0  0
 14 12  1  0  0  0  0
 15  1  1  0  0  0  0
 15 14  1  0  0  0  0
 16 18  2  0  0  0  0
 16 17  1  0  0  0  0
 19 20  1  0  0  0  0
 20 21  1  0  0  0  0
 21 30  1  0  0  0  0
 22 26  1  0  0  0  0
 23 28  1  0  0  0  0
 24 29  1  0  0  0  0
 24 32  1  0  0  0  0
 25 24  2  0  0  0  0
 26 28  2  0  0  0  0
 26 25  1  0  0  0  0
 27 29  2  0  0  0  0
 28 27  1  0  0  0  0
 30 23  2  0  0  0  0
 31 30  1  0  0  0  0
 31 22  2  0  0  0  0
 32 33  1  0  0  0  0
 34 32  1  0  0  0  0
M  END
>  <MODEL>
6

>  <REMARK>
 VINA RESULT:      -8.5      3.928      7.929
  Name = 
  6 active torsions:
  status: ('A' for Active; 'I' for Inactive)
    1  A    between atoms: C_1  and  N_9
    2  A    between atoms: C_3  and  C_25
    3  A    between atoms: C_7  and  N_11
    4  A    between atoms: C_8  and  N_9
    5  A    between atoms: C_8  and  N_18
    6  A    between atoms: N_18  and  C_30
                            x       y       z     vdW  Elec       q    Type
                         _______ _______ _______ _____ _____    ______ ____

>  <TORSDO>
F 6

$$$$
=
 OpenBabel10272415083D

 34 38  0  0  1  0  0  0  0  0999 V2000
  186.7330  177.6810  137.5880 C   0  0  0  0  0  0  0  0  0  0  0  0
  183.0170  177.5710  138.5870 C   0  0  0  0  0  2  0  0  0  0  0  0
  184.4810  176.1160  137.1870 O   0  0  0  0  0  0  0  0  0  0  0  0
  187.7520  176.0610  135.9250 C   0  0  0  0  0  0  0  0  0  0  0  0
  187.1980  175.0150  135.2140 O   0  0  0  0  0  0  0  0  0  0  0  0
  188.9090  176.5100  135.7190 O   0  0  0  0  0  0  0  0  0  0  0  0
  185.7470  175.4860  137.0050 C   0  0  2  0  0  3  0  0  0  0  0  0
  186.8270  176.5070  136.9400 C   0  0  0  0  0  0  0  0  0  0  0  0
  185.8750  174.7330  135.6730 C   0  0  0  0  0  2  0  0  0  0  0  0
  183.0010  177.4110  140.1020 C   0  0  0  0  0  2  0  0  0  0  0  0
  183.5380  178.6640  140.7900 C   0  0  2  0  0  3  0  0  0  0  0  0
  185.0450  178.8180  140.6080 C   0  0  0  0  0  2  0  0  0  0  0  0
  184.3650  177.2350  138.0290 C   0  0  0  0  0  0  0  0  0  0  0  0
  185.3870  179.2010  139.1750 C   0  0  0  0  0  2  0  0  0  0  0  0
  185.4620  177.9870  138.2960 C   0  0  0  0  0  0  0  0  0  0  0  0
  183.2080  178.6190  142.2440 C   0  0  0  0  0  0  0  0  0  0  0  0
  184.1760  178.2620  143.1760 O   0  0  0  0  0  1  0  0  0  0  0  0
  182.0460  178.9090  142.6280 O   0  0  0  0  0  0  0  0  0  0  0  0
  187.7430  178.6920  137.5050 N   0  0  0  0  0  2  0  0  0  0  0  0
  188.9020  178.7220  138.3820 C   0  0  0  0  0  2  0  0  0  0  0  0
  188.9950  177.4680  139.1170 N   0  0  0  0  0  2  0  0  0  0  0  0
  190.9490  177.1670  142.2790 C   0  0  0  0  0  3  0  0  0  0  0  0
  188.2800  177.4760  141.4800 C   0  0  0  0  0  3  0  0  0  0  0  0
  189.2400  177.2280  145.5720 C   0  0  0  0  0  0  0  0  0  0  0  0
  190.2520  177.1580  144.5990 C   0  0  0  0  0  3  0  0  0  0  0  0
  189.9390  177.2400  143.2410 C   0  0  0  0  0  0  0  0  0  0  0  0
  187.5840  177.4650  143.7990 C   0  0  0  0  0  3  0  0  0  0  0  0
  188.5940  177.3960  142.8390 C   0  0  0  0  0  0  0  0  0  0  0  0
  187.9060  177.3820  145.1570 C   0  0  0  0  0  3  0  0  0  0  0  0
  189.2960  177.3990  140.5140 C   0  0  0  0  0  0  0  0  0  0  0  0
  190.6270  177.2470  140.9200 C   0  0  0  0  0  3  0  0  0  0  0  0
  189.5650  177.1420  146.9730 N   0  0  0  0  0  0  0  0  0  0  0  0
  190.8730  176.6850  147.4170 C   0  0  0  0  0  1  0  0  0  0  0  0
  188.5970  177.5110  147.9950 C   0  0  0  0  0  1  0  0  0  0  0  0
  1 15  1  0  0  0  0
  2 10  1  0  0  0  0
  3 13  1  0  0  0  0
  4  8  1  0  0  0  0
  5  9  1  0  0  0  0
  5  4  1  0  0  0  0
  6  4  2  0  0  0  0
  7  9  1  6  0  0  0
  7  3  1  0  0  0  0
  8  7  1  0  0  0  0
  8  1  2  0  0  0  0
 10 11  1  0  0  0  0
 11 16  1  1  0  0  0
 12 11  1  0  0  0  0
 13 15  2  0  0  0  0
 13  2  1  0  0  0  0
 14 12  1  0  0  0  0
 15 14  1  0  0  0  0
 16 18  2  0  0  0  0
 16 17  1  0  0  0  0
 19  1  1  0  0  0  0
 19 20  1  0  0  0  0
 20 21  1  0  0  0  0
 21 30  1  0  0  0  0
 22 26  1  0  0  0  0
 23 28  1  0  0  0  0
 24 32  1  0  0  0  0
 25 24  2  0  0  0  0
 26 25  1  0  0  0  0
 27 29  2  0  0  0  0
 28 26  2  0  0  0  0
 28 27  1  0  0  0  0
 29 24  1  0  0  0  0
 30 31  1  0  0  0  0
 30 23  2  0  0  0  0
 31 22  2  0  0  0  0
 32 33  1  0  0  0  0
 32 34  1  0  0  0  0
M  END
>  <MODEL>
7

>  <REMARK>
 VINA RESULT:      -8.4      3.114      8.776
  Name = 
  6 active torsions:
  status: ('A' for Active; 'I' for Inactive)
    1  A    between atoms: C_1  and  N_9
    2  A    between atoms: C_3  and  C_25
    3  A    between atoms: C_7  and  N_11
    4  A    between atoms: C_8  and  N_9
    5  A    between atoms: C_8  and  N_18
    6  A    between atoms: N_18  and  C_30
                            x       y       z     vdW  Elec       q    Type
                         _______ _______ _______ _____ _____    ______ ____

>  <TORSDO>
F 6

$$$$
=
 OpenBabel10272415083D

 34 38  0  0  1  0  0  0  0  0999 V2000
  187.6750  178.0720  144.1960 C   0  0  0  0  0  0  0  0  0  0  0  0
  189.6340  178.0490  147.5090 C   0  0  0  0  0  2  0  0  0  0  0  0
  187.2100  178.1340  146.9270 O   0  0  0  0  0  0  0  0  0  0  0  0
  185.1620  178.3940  144.0930 C   0  0  0  0  0  0  0  0  0  0  0  0
  184.2260  178.5830  145.0900 O   0  0  0  0  0  0  0  0  0  0  0  0
  184.9130  178.5240  142.8670 O   0  0  0  0  0  0  0  0  0  0  0  0
  186.1450  177.6720  146.1000 C   0  0  2  0  0  3  0  0  0  0  0  0
  186.4220  177.9930  144.6750 C   0  0  0  0  0  0  0  0  0  0  0  0
  184.8040  178.3650  146.3790 C   0  0  0  0  0  2  0  0  0  0  0  0
  190.3680  176.7160  147.5470 C   0  0  0  0  0  2  0  0  0  0  0  0
  191.4490  176.6550  146.4710 C   0  0  2  0  0  3  0  0  0  0  0  0
  190.8580  176.5340  145.0690 C   0  0  0  0  0  2  0  0  0  0  0  0
  188.5410  178.0300  146.4870 C   0  0  0  0  0  0  0  0  0  0  0  0
  190.2030  177.8390  144.6370 C   0  0  0  0  0  2  0  0  0  0  0  0
  188.7990  177.9350  145.1590 C   0  0  0  0  0  0  0  0  0  0  0  0
  192.3570  175.5020  146.7350 C   0  0  0  0  0  0  0  0  0  0  0  0
  193.0850  175.4340  147.9170 O   0  0  0  0  0  1  0  0  0  0  0  0
  192.4620  174.5840  145.8820 O   0  0  0  0  0  0  0  0  0  0  0  0
  187.9620  178.4190  142.8370 N   0  0  0  0  0  2  0  0  0  0  0  0
  188.3190  177.4330  141.8300 C   0  0  0  0  0  2  0  0  0  0  0  0
  188.2480  178.0360  140.5060 N   0  0  0  0  0  2  0  0  0  0  0  0
  189.0270  176.8480  137.0580 C   0  0  0  0  0  3  0  0  0  0  0  0
  190.3660  177.2860  139.4810 C   0  0  0  0  0  3  0  0  0  0  0  0
  192.4740  175.8220  136.1440 C   0  0  0  0  0  0  0  0  0  0  0  0
  191.0980  176.0950  136.0510 C   0  0  0  0  0  3  0  0  0  0  0  0
  190.3940  176.5810  137.1550 C   0  0  0  0  0  0  0  0  0  0  0  0
  192.4350  176.5320  138.4750 C   0  0  0  0  0  3  0  0  0  0  0  0
  191.0690  176.8010  138.3760 C   0  0  0  0  0  0  0  0  0  0  0  0
  193.1320  176.0450  137.3660 C   0  0  0  0  0  3  0  0  0  0  0  0
  188.9900  177.5500  139.3830 C   0  0  0  0  0  0  0  0  0  0  0  0
  188.3280  177.3310  138.1700 C   0  0  0  0  0  3  0  0  0  0  0  0
  193.1980  175.3200  135.0030 N   0  0  0  0  0  0  0  0  0  0  0  0
  194.3030  176.0690  134.4230 C   0  0  0  0  0  1  0  0  0  0  0  0
  192.8520  174.0470  134.3910 C   0  0  0  0  0  1  0  0  0  0  0  0
  1  8  2  0  0  0  0
  1 15  1  0  0  0  0
  2 10  1  0  0  0  0
  4  8  1  0  0  0  0
  4  5  1  0  0  0  0
  5  9  1  0  0  0  0
  6  4  2  0  0  0  0
  7  9  1  1  0  0  0
  7  3  1  0  0  0  0
  8  7  1  0  0  0  0
 11 16  1  1  0  0  0
 11 10  1  0  0  0  0
 12 11  1  0  0  0  0
 13  3  1  0  0  0  0
 13  2  1  0  0  0  0
 14 12  1  0  0  0  0
 14 15  1  0  0  0  0
 15 13  2  0  0  0  0
 16 17  1  0  0  0  0
 18 16  2  0  0  0  0
 19  1  1  0  0  0  0
 20 19  1  0  0  0  0
 21 20  1  0  0  0  0
 22 26  2  0  0  0  0
 22 31  1  0  0  0  0
 24 29  1  0  0  0  0
 25 24  2  0  0  0  0
 25 26  1  0  0  0  0
 26 28  1  0  0  0  0
 28 27  1  0  0  0  0
 28 23  2  0  0  0  0
 29 27  2  0  0  0  0
 30 23  1  0  0  0  0
 30 21  1  0  0  0  0
 31 30  2  0  0  0  0
 32 24  1  0  0  0  0
 33 32  1  0  0  0  0
 34 32  1  0  0  0  0
M  END
>  <MODEL>
8

>  <REMARK>
 VINA RESULT:      -8.2      3.614      7.806
  Name = 
  6 active torsions:
  status: ('A' for Active; 'I' for Inactive)
    1  A    between atoms: C_1  and  N_9
    2  A    between atoms: C_3  and  C_25
    3  A    between atoms: C_7  and  N_11
    4  A    between atoms: C_8  and  N_9
    5  A    between atoms: C_8  and  N_18
    6  A    between atoms: N_18  and  C_30
                            x       y       z     vdW  Elec       q    Type
                         _______ _______ _______ _____ _____    ______ ____

>  <TORSDO>
F 6

$$$$
=
 OpenBabel10272415083D

 34 38  0  0  1  0  0  0  0  0999 V2000
  183.2230  178.4180  138.4170 C   0  0  0  0  0  0  0  0  0  0  0  0
  185.5300  176.0610  136.4310 C   0  0  0  0  0  2  0  0  0  0  0  0
  183.1710  176.8210  136.1520 O   0  0  0  0  0  0  0  0  0  0  0  0
  180.7690  178.7240  137.8560 C   0  0  0  0  0  0  0  0  0  0  0  0
  179.9820  178.1640  136.8690 O   0  0  0  0  0  0  0  0  0  0  0  0
  180.3130  179.4090  138.8080 O   0  0  0  0  0  0  0  0  0  0  0  0
  182.2250  177.8860  136.2150 C   0  0  2  0  0  3  0  0  0  0  0  0
  182.1600  178.4390  137.5940 C   0  0  0  0  0  0  0  0  0  0  0  0
  180.7820  177.4460  135.9280 C   0  0  0  0  0  2  0  0  0  0  0  0
  186.6790  176.9280  135.9360 C   0  0  0  0  0  2  0  0  0  0  0  0
  187.5440  177.4080  137.0990 C   0  0  2  0  0  3  0  0  0  0  0  0
  186.8340  178.4600  137.9470 C   0  0  0  0  0  2  0  0  0  0  0  0
  184.3750  176.9050  136.8720 C   0  0  0  0  0  0  0  0  0  0  0  0
  185.7100  177.8360  138.7630 C   0  0  0  0  0  2  0  0  0  0  0  0
  184.4520  177.7250  137.9500 C   0  0  0  0  0  0  0  0  0  0  0  0
  188.8250  177.9640  136.5760 C   0  0  0  0  0  0  0  0  0  0  0  0
  189.5820  177.2490  135.6560 O   0  0  0  0  0  0  0  0  0  0  0  0
  189.2210  179.0910  136.9710 O   0  0  0  0  0  1  0  0  0  0  0  0
  183.1690  178.9080  139.7600 N   0  0  0  0  0  2  0  0  0  0  0  0
  182.7050  178.1000  140.8760 C   0  0  0  0  0  2  0  0  0  0  0  0
  182.7600  178.8810  142.1040 N   0  0  0  0  0  2  0  0  0  0  0  0
  184.3820  178.7980  145.4620 C   0  0  0  0  0  3  0  0  0  0  0  0
  185.0240  178.1860  142.8020 C   0  0  0  0  0  3  0  0  0  0  0  0
  187.8900  177.6480  145.8400 C   0  0  0  0  0  0  0  0  0  0  0  0
  186.6080  178.1340  146.1500 C   0  0  0  0  0  3  0  0  0  0  0  0
  185.6540  178.3130  145.1460 C   0  0  0  0  0  0  0  0  0  0  0  0
  187.2490  177.5230  143.4910 C   0  0  0  0  0  3  0  0  0  0  0  0
  185.9770  178.0050  143.8070 C   0  0  0  0  0  0  0  0  0  0  0  0
  188.1980  177.3470  144.5020 C   0  0  0  0  0  3  0  0  0  0  0  0
  183.7480  178.6770  143.1190 C   0  0  0  0  0  0  0  0  0  0  0  0
  183.4330  178.9790  144.4490 C   0  0  0  0  0  3  0  0  0  0  0  0
  188.8730  177.4640  146.8770 N   0  0  0  0  0  0  0  0  0  0  0  0
  188.4970  177.4700  148.2820 C   0  0  0  0  0  1  0  0  0  0  0  0
  190.2780  177.2650  146.5560 C   0  0  0  0  0  1  0  0  0  0  0  0
  1 19  1  0  0  0  0
  2 13  1  0  0  0  0
  3  7  1  0  0  0  0
  3 13  1  0  0  0  0
  4  6  2  0  0  0  0
  5  4  1  0  0  0  0
  7  9  1  1  0  0  0
  7  8  1  0  0  0  0
  8  4  1  0  0  0  0
  8  1  2  0  0  0  0
  9  5  1  0  0  0  0
 10  2  1  0  0  0  0
 10 11  1  0  0  0  0
 11 16  1  6  0  0  0
 11 12  1  0  0  0  0
 12 14  1  0  0  0  0
 13 15  2  0  0  0  0
 15  1  1  0  0  0  0
 15 14  1  0  0  0  0
 16 18  1  0  0  0  0
 17 16  2  0  0  0  0
 19 20  1  0  0  0  0
 20 21  1  0  0  0  0
 21 30  1  0  0  0  0
 23 30  2  0  0  0  0
 23 28  1  0  0  0  0
 24 25  1  0  0  0  0
 24 32  1  0  0  0  0
 26 22  1  0  0  0  0
 26 25  2  0  0  0  0
 27 28  2  0  0  0  0
 27 29  1  0  0  0  0
 28 26  1  0  0  0  0
 29 24  2  0  0  0  0
 30 31  1  0  0  0  0
 31 22  2  0  0  0  0
 32 33  1  0  0  0  0
 34 32  1  0  0  0  0
M  END
>  <MODEL>
9

>  <REMARK>
 VINA RESULT:      -8.0      3.683      8.439
  Name = 
  6 active torsions:
  status: ('A' for Active; 'I' for Inactive)
    1  A    between atoms: C_1  and  N_9
    2  A    between atoms: C_3  and  C_25
    3  A    between atoms: C_7  and  N_11
    4  A    between atoms: C_8  and  N_9
    5  A    between atoms: C_8  and  N_18
    6  A    between atoms: N_18  and  C_30
                            x       y       z     vdW  Elec       q    Type
                         _______ _______ _______ _____ _____    ______ ____

>  <TORSDO>
F 6

$$$$
