=
 OpenBabel10272414023D

 43 49  0  0  1  0  0  0  0  0999 V2000
  191.6930  176.3790  147.3820 C   0  0  0  0  0  0  0  0  0  0  0  0
  189.2610  176.9500  142.9720 C   0  0  0  0  0  0  0  0  0  0  0  0
  186.7030  177.9500  143.5800 C   0  0  0  0  0  0  0  0  0  0  0  0
  191.0980  176.4050  145.0320 C   0  0  0  0  0  0  0  0  0  0  0  0
  190.4250  176.8640  147.7140 C   0  0  0  0  0  3  0  0  0  0  0  0
  192.8640  176.0610  148.6450 Cl  0  0  0  0  0  0  0  0  0  0  0  0
  189.8120  176.9010  145.3580 C   0  0  0  0  0  0  0  0  0  0  0  0
  192.0280  176.1480  146.0430 C   0  0  0  0  0  3  0  0  0  0  0  0
  189.4890  177.1230  146.7090 C   0  0  0  0  0  3  0  0  0  0  0  0
  187.6050  177.6570  144.6100 C   0  0  0  0  0  3  0  0  0  0  0  0
  188.8880  177.1700  144.3250 C   0  0  0  0  0  0  0  0  0  0  0  0
  190.5370  176.4510  142.6780 C   0  0  0  0  0  3  0  0  0  0  0  0
  188.3530  177.2370  141.9340 C   0  0  0  0  0  0  0  0  0  0  0  0
  187.0820  177.7360  142.2520 C   0  0  0  0  0  3  0  0  0  0  0  0
  191.4470  176.1780  143.6990 C   0  0  0  0  0  3  0  0  0  0  0  0
  188.7210  177.0080  140.5660 N   0  0  0  0  0  2  0  0  0  0  0  0
  190.4520  176.2350  138.2050 C   0  0  0  0  0  2  0  0  0  0  0  0
  189.5250  176.7750  137.1160 C   0  0  1  0  0  0  0  0  0  0  0  0
  190.1900  176.9500  135.8910 O   0  0  0  0  0  0  0  0  0  0  0  0
  188.5850  178.4740  138.6330 C   0  0  0  0  0  3  0  0  0  0  0  0
  190.7570  177.3380  139.2240 C   0  0  0  0  0  2  0  0  0  0  0  0
  189.4610  177.9710  139.7570 C   0  0  2  0  0  3  0  0  0  0  0  0
  189.2300  175.9180  135.9550 C   0  0  0  0  0  2  0  0  0  0  0  0
  188.5930  177.9100  137.4160 C   0  0  0  0  0  3  0  0  0  0  0  0
  185.3160  178.4610  143.8700 C   0  0  1  0  0  3  0  0  0  0  0  0
  185.3160  179.2590  145.1700 C   0  0  0  0  0  2  0  0  0  0  0  0
  184.5680  178.4990  146.2490 C   0  0  0  0  0  1  0  0  0  0  0  0
  184.8130  179.2880  142.7770 N   0  0  0  0  0  2  0  0  0  0  0  0
  183.5180  178.7520  142.3840 C   0  0  0  0  0  2  0  0  0  0  0  0
  183.6910  177.9040  141.1360 C   0  0  0  0  0  2  0  0  0  0  0  0
  182.8820  178.4420  140.0520 N   0  0  0  0  0  0  0  0  0  0  0  0
  180.9630  177.2930  139.1000 C   0  0  0  0  0  2  0  0  0  0  0  0
  181.6580  178.9510  140.6570 C   0  0  0  0  0  2  0  0  0  0  0  0
  182.4830  177.3140  139.2100 C   0  0  1  0  0  3  0  0  0  0  0  0
  180.5030  178.5660  139.7590 C   0  0  0  0  0  2  0  0  0  0  0  0
  183.1570  177.4130  137.8380 C   0  0  2  0  0  3  0  0  0  0  0  0
  182.2100  177.6180  136.8260 O   0  0  0  0  0  1  0  0  0  0  0  0
  183.9500  176.2180  137.5680 N   0  0  0  0  0  0  0  0  0  0  0  0
  186.7690  174.5120  137.5500 F   0  0  0  0  0  0  0  0  0  0  0  0
  184.4670  174.0260  137.5730 C   0  0  0  0  0  3  0  0  0  0  0  0
  185.5920  174.6960  136.8470 C   0  0  1  0  0  3  0  0  0  0  0  0
  183.5700  174.9130  137.9600 C   0  0  0  0  0  3  0  0  0  0  0  0
  185.2170  176.1780  136.8620 C   0  0  0  0  0  2  0  0  0  0  0  0
  1  5  1  0  0  0  0
  1  6  1  0  0  0  0
  2 11  1  0  0  0  0
  3 25  1  0  0  0  0
  3 10  1  0  0  0  0
  4  7  2  0  0  0  0
  4  8  1  0  0  0  0
  7  9  1  0  0  0  0
  8  1  2  0  0  0  0
  9  5  2  0  0  0  0
 11 10  2  0  0  0  0
 11  7  1  0  0  0  0
 12  2  1  0  0  0  0
 12 15  2  0  0  0  0
 13 14  1  0  0  0  0
 13  2  2  0  0  0  0
 14  3  2  0  0  0  0
 15  4  1  0  0  0  0
 16 13  1  0  0  0  0
 17 21  1  0  0  0  0
 18 23  1  6  0  0  0
 18 24  1  0  0  0  0
 18 17  1  0  0  0  0
 19 23  1  0  0  0  0
 19 18  1  0  0  0  0
 20 22  1  0  0  0  0
 21 22  1  0  0  0  0
 22 16  1  6  0  0  0
 24 20  2  0  0  0  0
 25 26  1  1  0  0  0
 26 27  1  0  0  0  0
 28 25  1  0  0  0  0
 29 28  1  0  0  0  0
 30 29  1  0  0  0  0
 31 33  1  0  0  0  0
 31 30  1  0  0  0  0
 32 34  1  0  0  0  0
 32 35  1  0  0  0  0
 34 36  1  6  0  0  0
 34 31  1  0  0  0  0
 35 33  1  0  0  0  0
 36 37  1  6  0  0  0
 38 36  1  0  0  0  0
 38 42  1  0  0  0  0
 40 42  2  0  0  0  0
 41 43  1  0  0  0  0
 41 39  1  1  0  0  0
 41 40  1  0  0  0  0
 43 38  1  0  0  0  0
M  END
>  <MODEL>
1

>  <REMARK>
 VINA RESULT:      -9.3      0.000      0.000
  Name = 
  10 active torsions:
  status: ('A' for Active; 'I' for Inactive)
    1  A    between atoms: N_1  and  C_34
    2  A    between atoms: N_1  and  C_35
    3  A    between atoms: C_2  and  N_6
    4  A    between atoms: C_2  and  C_7
    5  A    between atoms: C_2  and  C_13
    6  A    between atoms: C_3  and  N_4
    7  A    between atoms: C_3  and  C_12
    8  A    between atoms: N_6  and  C_12
    9  A    between atoms: N_11  and  C_14
   10  A    between atoms: C_14  and  C_22
                            x       y       z     vdW  Elec       q    Type
                         _______ _______ _______ _____ _____    ______ ____

>  <TORSDO>
F 10

$$$$
=
 OpenBabel10272414023D

 43 49  0  0  1  0  0  0  0  0999 V2000
  187.7050  177.6340  147.3770 C   0  0  0  0  0  0  0  0  0  0  0  0
  186.3420  178.5660  142.5850 C   0  0  0  0  0  0  0  0  0  0  0  0
  188.5180  177.8240  140.9640 C   0  0  0  0  0  0  0  0  0  0  0  0
  186.4980  178.2960  145.3810 C   0  0  0  0  0  0  0  0  0  0  0  0
  188.8060  177.2680  146.5970 C   0  0  0  0  0  3  0  0  0  0  0  0
  187.7690  177.4460  149.1170 Cl  0  0  0  0  0  0  0  0  0  0  0  0
  187.6070  177.9240  144.5810 C   0  0  0  0  0  0  0  0  0  0  0  0
  186.5550  178.1480  146.7700 C   0  0  0  0  0  3  0  0  0  0  0  0
  188.7590  177.4120  145.2080 C   0  0  0  0  0  3  0  0  0  0  0  0
  188.6100  177.7110  142.3560 C   0  0  0  0  0  3  0  0  0  0  0  0
  187.5310  178.0640  143.1790 C   0  0  0  0  0  0  0  0  0  0  0  0
  185.2630  178.9350  143.4000 C   0  0  0  0  0  3  0  0  0  0  0  0
  186.2490  178.6880  141.1850 C   0  0  0  0  0  0  0  0  0  0  0  0
  187.3420  178.3140  140.3890 C   0  0  0  0  0  3  0  0  0  0  0  0
  185.3420  178.8030  144.7870 C   0  0  0  0  0  3  0  0  0  0  0  0
  185.0540  179.2040  140.5800 N   0  0  0  0  0  2  0  0  0  0  0  0
  182.2040  178.3320  141.1130 C   0  0  0  0  0  2  0  0  0  0  0  0
  181.5310  179.3200  140.1600 C   0  0  1  0  0  0  0  0  0  0  0  0
  180.2170  178.9410  139.8410 O   0  0  0  0  0  0  0  0  0  0  0  0
  183.5200  179.4120  138.7080 C   0  0  0  0  0  3  0  0  0  0  0  0
  183.2680  177.5260  140.3610 C   0  0  0  0  0  2  0  0  0  0  0  0
  184.2460  178.4550  139.6230 C   0  0  2  0  0  3  0  0  0  0  0  0
  180.3730  180.0890  140.6470 C   0  0  0  0  0  2  0  0  0  0  0  0
  182.2720  179.8350  138.9630 C   0  0  0  0  0  3  0  0  0  0  0  0
  189.6720  177.4620  140.0660 C   0  0  1  0  0  3  0  0  0  0  0  0
  190.8200  176.8950  140.8970 C   0  0  0  0  0  2  0  0  0  0  0  0
  192.1190  177.5910  140.5350 C   0  0  0  0  0  1  0  0  0  0  0  0
  189.2720  176.4980  139.0460 N   0  0  0  0  0  2  0  0  0  0  0  0
  189.9370  176.8740  137.8070 C   0  0  0  0  0  2  0  0  0  0  0  0
  189.4570  175.9630  136.6900 C   0  0  0  0  0  2  0  0  0  0  0  0
  188.4540  176.6450  135.8860 N   0  0  0  0  0  0  0  0  0  0  0  0
  186.4390  177.6480  136.8060 C   0  0  0  0  0  2  0  0  0  0  0  0
  188.6640  178.0740  136.0810 C   0  0  0  0  0  2  0  0  0  0  0  0
  187.1490  176.3400  136.4740 C   0  0  1  0  0  3  0  0  0  0  0  0
  187.3060  178.7270  136.2140 C   0  0  0  0  0  2  0  0  0  0  0  0
  186.3290  175.4680  135.5180 C   0  0  2  0  0  3  0  0  0  0  0  0
  185.5350  176.2550  134.6750 O   0  0  0  0  0  1  0  0  0  0  0  0
  185.5070  174.5210  136.2650 N   0  0  0  0  0  0  0  0  0  0  0  0
  183.2140  172.1640  136.4830 F   0  0  0  0  0  0  0  0  0  0  0  0
  185.0480  172.9010  137.7600 C   0  0  0  0  0  3  0  0  0  0  0  0
  183.7290  173.2610  137.1500 C   0  0  1  0  0  3  0  0  0  0  0  0
  186.0160  173.6280  137.2370 C   0  0  0  0  0  3  0  0  0  0  0  0
  184.0710  174.3560  136.1410 C   0  0  0  0  0  2  0  0  0  0  0  0
  1  6  1  0  0  0  0
  2 11  1  0  0  0  0
  2 12  1  0  0  0  0
  3 10  1  0  0  0  0
  4  8  2  0  0  0  0
  5  1  2  0  0  0  0
  7  9  2  0  0  0  0
  7  4  1  0  0  0  0
  8  1  1  0  0  0  0
  9  5  1  0  0  0  0
 10 11  2  0  0  0  0
 11  7  1  0  0  0  0
 12 15  2  0  0  0  0
 13  2  2  0  0  0  0
 14  3  2  0  0  0  0
 14 13  1  0  0  0  0
 15  4  1  0  0  0  0
 16 13  1  0  0  0  0
 18 24  1  6  0  0  0
 18 23  1  0  0  0  0
 18 17  1  0  0  0  0
 19 18  1  0  0  0  0
 19 23  1  0  0  0  0
 20 24  2  0  0  0  0
 20 22  1  0  0  0  0
 21 17  1  0  0  0  0
 22 21  1  0  0  0  0
 22 16  1  1  0  0  0
 25 26  1  1  0  0  0
 25  3  1  0  0  0  0
 27 26  1  0  0  0  0
 28 25  1  0  0  0  0
 29 28  1  0  0  0  0
 30 29  1  0  0  0  0
 31 33  1  0  0  0  0
 31 34  1  0  0  0  0
 31 30  1  0  0  0  0
 33 35  1  0  0  0  0
 34 36  1  6  0  0  0
 34 32  1  0  0  0  0
 35 32  1  0  0  0  0
 36 37  1  1  0  0  0
 36 38  1  0  0  0  0
 38 42  1  0  0  0  0
 41 39  1  6  0  0  0
 41 40  1  0  0  0  0
 42 40  2  0  0  0  0
 43 38  1  0  0  0  0
 43 41  1  0  0  0  0
M  END
>  <MODEL>
2

>  <REMARK>
 VINA RESULT:      -9.2      2.158      5.881
  Name = 
  10 active torsions:
  status: ('A' for Active; 'I' for Inactive)
    1  A    between atoms: N_1  and  C_34
    2  A    between atoms: N_1  and  C_35
    3  A    between atoms: C_2  and  N_6
    4  A    between atoms: C_2  and  C_7
    5  A    between atoms: C_2  and  C_13
    6  A    between atoms: C_3  and  N_4
    7  A    between atoms: C_3  and  C_12
    8  A    between atoms: N_6  and  C_12
    9  A    between atoms: N_11  and  C_14
   10  A    between atoms: C_14  and  C_22
                            x       y       z     vdW  Elec       q    Type
                         _______ _______ _______ _____ _____    ______ ____

>  <TORSDO>
F 10

$$$$
=
 OpenBabel10272414023D

 43 49  0  0  1  0  0  0  0  0999 V2000
  191.0140  176.6530  146.2210 C   0  0  0  0  0  0  0  0  0  0  0  0
  189.2910  177.7040  141.5720 C   0  0  0  0  0  0  0  0  0  0  0  0
  186.5650  178.3470  141.8440 C   0  0  0  0  0  0  0  0  0  0  0  0
  190.8160  177.0050  143.8300 C   0  0  0  0  0  0  0  0  0  0  0  0
  189.6590  176.9570  146.3840 C   0  0  0  0  0  3  0  0  0  0  0  0
  191.9900  176.2450  147.6170 Cl  0  0  0  0  0  0  0  0  0  0  0  0
  189.4430  177.3190  143.9860 C   0  0  0  0  0  0  0  0  0  0  0  0
  191.5900  176.6760  144.9460 C   0  0  0  0  0  3  0  0  0  0  0  0
  188.8770  177.2870  145.2740 C   0  0  0  0  0  3  0  0  0  0  0  0
  187.3140  177.9770  142.9670 C   0  0  0  0  0  3  0  0  0  0  0  0
  188.6760  177.6640  142.8520 C   0  0  0  0  0  0  0  0  0  0  0  0
  190.6480  177.3810  141.4450 C   0  0  0  0  0  3  0  0  0  0  0  0
  188.5380  178.0700  140.4390 C   0  0  0  0  0  0  0  0  0  0  0  0
  187.1800  178.3880  140.5900 C   0  0  0  0  0  3  0  0  0  0  0  0
  191.4040  177.0320  142.5650 C   0  0  0  0  0  3  0  0  0  0  0  0
  189.1510  178.1010  139.1410 N   0  0  0  0  0  2  0  0  0  0  0  0
  187.0860  177.0140  137.2120 C   0  0  0  0  0  2  0  0  0  0  0  0
  187.8030  177.4270  135.9270 C   0  0  1  0  0  0  0  0  0  0  0  0
  187.3270  176.7300  134.8040 O   0  0  0  0  0  0  0  0  0  0  0  0
  190.0110  177.3040  137.0140 C   0  0  0  0  0  3  0  0  0  0  0  0
  188.0270  176.1820  138.0890 C   0  0  0  0  0  2  0  0  0  0  0  0
  189.3590  176.9140  138.3190 C   0  0  2  0  0  3  0  0  0  0  0  0
  187.0270  178.1080  134.8750 C   0  0  0  0  0  2  0  0  0  0  0  0
  189.2960  177.5660  135.9090 C   0  0  0  0  0  3  0  0  0  0  0  0
  185.0980  178.6720  141.9470 C   0  0  1  0  0  3  0  0  0  0  0  0
  184.8280  179.4590  143.2260 C   0  0  0  0  0  2  0  0  0  0  0  0
  183.7950  178.7390  144.0740 C   0  0  0  0  0  1  0  0  0  0  0  0
  184.6370  179.4310  140.7890 N   0  0  0  0  0  2  0  0  0  0  0  0
  183.3760  178.8450  140.3580 C   0  0  0  0  0  2  0  0  0  0  0  0
  183.5550  178.2450  138.9740 C   0  0  0  0  0  2  0  0  0  0  0  0
  182.3280  177.5860  138.5530 N   0  0  0  0  0  0  0  0  0  0  0  0
  181.4850  175.5360  139.5510 C   0  0  0  0  0  2  0  0  0  0  0  0
  181.3170  177.9080  139.5520 C   0  0  0  0  0  2  0  0  0  0  0  0
  182.5560  176.1440  138.6520 C   0  0  1  0  0  3  0  0  0  0  0  0
  180.5140  176.6540  139.8180 C   0  0  0  0  0  2  0  0  0  0  0  0
  182.5620  175.5120  137.2570 C   0  0  2  0  0  3  0  0  0  0  0  0
  181.2580  175.3510  136.7710 O   0  0  0  0  0  1  0  0  0  0  0  0
  183.2680  174.2340  137.2750 N   0  0  0  0  0  0  0  0  0  0  0  0
  184.2170  171.3890  135.9100 F   0  0  0  0  0  0  0  0  0  0  0  0
  184.9840  172.8170  137.6170 C   0  0  0  0  0  3  0  0  0  0  0  0
  183.8590  171.9640  137.1170 C   0  0  1  0  0  3  0  0  0  0  0  0
  184.6120  174.0800  137.6900 C   0  0  0  0  0  3  0  0  0  0  0  0
  182.7140  172.9500  136.8910 C   0  0  0  0  0  2  0  0  0  0  0  0
  1  5  1  0  0  0  0
  1  6  1  0  0  0  0
  2 11  1  0  0  0  0
  3 25  1  0  0  0  0
  3 10  1  0  0  0  0
  4  7  2  0  0  0  0
  4  8  1  0  0  0  0
  7  9  1  0  0  0  0
  8  1  2  0  0  0  0
  9  5  2  0  0  0  0
 11 10  2  0  0  0  0
 11  7  1  0  0  0  0
 12  2  1  0  0  0  0
 12 15  2  0  0  0  0
 13 14  1  0  0  0  0
 13  2  2  0  0  0  0
 14  3  2  0  0  0  0
 15  4  1  0  0  0  0
 16 13  1  0  0  0  0
 17 21  1  0  0  0  0
 18 23  1  6  0  0  0
 18 17  1  0  0  0  0
 19 23  1  0  0  0  0
 19 18  1  0  0  0  0
 20 22  1  0  0  0  0
 21 22  1  0  0  0  0
 22 16  1  1  0  0  0
 24 18  1  0  0  0  0
 24 20  2  0  0  0  0
 25 26  1  1  0  0  0
 26 27  1  0  0  0  0
 28 25  1  0  0  0  0
 29 28  1  0  0  0  0
 30 29  1  0  0  0  0
 31 34  1  0  0  0  0
 31 30  1  0  0  0  0
 31 33  1  0  0  0  0
 32 35  1  0  0  0  0
 33 35  1  0  0  0  0
 34 36  1  6  0  0  0
 34 32  1  0  0  0  0
 36 37  1  1  0  0  0
 36 38  1  0  0  0  0
 38 42  1  0  0  0  0
 40 42  2  0  0  0  0
 41 39  1  6  0  0  0
 41 40  1  0  0  0  0
 43 41  1  0  0  0  0
 43 38  1  0  0  0  0
M  END
>  <MODEL>
3

>  <REMARK>
 VINA RESULT:      -8.9      1.676      2.183
  Name = 
  10 active torsions:
  status: ('A' for Active; 'I' for Inactive)
    1  A    between atoms: N_1  and  C_34
    2  A    between atoms: N_1  and  C_35
    3  A    between atoms: C_2  and  N_6
    4  A    between atoms: C_2  and  C_7
    5  A    between atoms: C_2  and  C_13
    6  A    between atoms: C_3  and  N_4
    7  A    between atoms: C_3  and  C_12
    8  A    between atoms: N_6  and  C_12
    9  A    between atoms: N_11  and  C_14
   10  A    between atoms: C_14  and  C_22
                            x       y       z     vdW  Elec       q    Type
                         _______ _______ _______ _____ _____    ______ ____

>  <TORSDO>
F 10

$$$$
=
 OpenBabel10272414023D

 43 49  0  0  1  0  0  0  0  0999 V2000
  181.7090  179.1670  142.9890 C   0  0  0  0  0  0  0  0  0  0  0  0
  186.5570  177.8010  143.5490 C   0  0  0  0  0  0  0  0  0  0  0  0
  187.6790  177.7160  140.9700 C   0  0  0  0  0  0  0  0  0  0  0  0
  183.8520  178.4900  143.8980 C   0  0  0  0  0  0  0  0  0  0  0  0
  182.2360  179.1220  141.6950 C   0  0  0  0  0  3  0  0  0  0  0  0
  180.0350  179.6230  143.2320 Cl  0  0  0  0  0  0  0  0  0  0  0  0
  184.3970  178.4450  142.5910 C   0  0  0  0  0  0  0  0  0  0  0  0
  182.5150  178.8490  144.0870 C   0  0  0  0  0  3  0  0  0  0  0  0
  183.5720  178.7620  141.4960 C   0  0  0  0  0  3  0  0  0  0  0  0
  186.3260  178.0350  141.1360 C   0  0  0  0  0  3  0  0  0  0  0  0
  185.7530  178.0940  142.4150 C   0  0  0  0  0  0  0  0  0  0  0  0
  185.9900  177.8440  144.8290 C   0  0  0  0  0  3  0  0  0  0  0  0
  187.9170  177.4720  143.3830 C   0  0  0  0  0  0  0  0  0  0  0  0
  188.4620  177.4340  142.0920 C   0  0  0  0  0  3  0  0  0  0  0  0
  184.6480  178.1830  145.0020 C   0  0  0  0  0  3  0  0  0  0  0  0
  188.7310  177.1640  144.5250 N   0  0  0  0  0  2  0  0  0  0  0  0
  189.8710  176.7640  147.3010 C   0  0  0  0  0  2  0  0  0  0  0  0
  191.3210  176.5380  146.8720 C   0  0  1  0  0  0  0  0  0  0  0  0
  192.2230  176.7130  147.9330 O   0  0  0  0  0  0  0  0  0  0  0  0
  191.0250  177.9020  144.8400 C   0  0  0  0  0  3  0  0  0  0  0  0
  189.3550  178.0840  146.7200 C   0  0  0  0  0  2  0  0  0  0  0  0
  189.5770  178.1430  145.2000 C   0  0  2  0  0  3  0  0  0  0  0  0
  192.0560  175.3990  147.4470 C   0  0  0  0  0  2  0  0  0  0  0  0
  191.8300  177.1410  145.5970 C   0  0  0  0  0  3  0  0  0  0  0  0
  188.3070  177.6350  139.6030 C   0  0  1  0  0  3  0  0  0  0  0  0
  187.2980  178.0630  138.5410 C   0  0  0  0  0  2  0  0  0  0  0  0
  188.0090  178.7670  137.4000 C   0  0  0  0  0  1  0  0  0  0  0  0
  189.5040  178.4650  139.5160 N   0  0  0  0  0  2  0  0  0  0  0  0
  190.5100  177.7040  138.7890 C   0  0  0  0  0  2  0  0  0  0  0  0
  190.4880  176.2640  139.2710 C   0  0  0  0  0  2  0  0  0  0  0  0
  191.2530  175.4220  138.3640 N   0  0  0  0  0  0  0  0  0  0  0  0
  191.3160  175.7420  135.9550 C   0  0  0  0  0  2  0  0  0  0  0  0
  192.4470  176.1750  138.0020 C   0  0  0  0  0  2  0  0  0  0  0  0
  190.4680  175.2850  137.1360 C   0  0  1  0  0  3  0  0  0  0  0  0
  192.6910  175.9720  136.5230 C   0  0  0  0  0  2  0  0  0  0  0  0
  189.9870  173.8400  136.9740 C   0  0  2  0  0  3  0  0  0  0  0  0
  190.5280  173.2560  135.8220 O   0  0  0  0  0  1  0  0  0  0  0  0
  188.5290  173.7850  136.9440 N   0  0  0  0  0  0  0  0  0  0  0  0
  185.6080  172.7840  138.0970 F   0  0  0  0  0  0  0  0  0  0  0  0
  186.4250  174.5780  136.8110 C   0  0  0  0  0  3  0  0  0  0  0  0
  186.2820  173.0920  136.9280 C   0  0  1  0  0  3  0  0  0  0  0  0
  187.6970  174.9240  136.8240 C   0  0  0  0  0  3  0  0  0  0  0  0
  187.7200  172.5840  137.0200 C   0  0  0  0  0  2  0  0  0  0  0  0
  1  6  1  0  0  0  0
  1  8  1  0  0  0  0
  2 12  1  0  0  0  0
  3 10  2  0  0  0  0
  3 14  1  0  0  0  0
  4  8  2  0  0  0  0
  4 15  1  0  0  0  0
  5  1  2  0  0  0  0
  7  4  1  0  0  0  0
  9  5  1  0  0  0  0
  9  7  2  0  0  0  0
 10 11  1  0  0  0  0
 11  7  1  0  0  0  0
 11  2  2  0  0  0  0
 12 15  2  0  0  0  0
 13  2  1  0  0  0  0
 13 16  1  0  0  0  0
 14 13  2  0  0  0  0
 18 24  1  6  0  0  0
 18 17  1  0  0  0  0
 18 23  1  0  0  0  0
 18 19  1  0  0  0  0
 20 22  1  0  0  0  0
 20 24  2  0  0  0  0
 21 17  1  0  0  0  0
 22 16  1  6  0  0  0
 22 21  1  0  0  0  0
 23 19  1  0  0  0  0
 25 26  1  6  0  0  0
 25  3  1  0  0  0  0
 27 26  1  0  0  0  0
 28 25  1  0  0  0  0
 29 30  1  0  0  0  0
 29 28  1  0  0  0  0
 31 30  1  0  0  0  0
 32 35  1  0  0  0  0
 32 34  1  0  0  0  0
 33 31  1  0  0  0  0
 34 36  1  6  0  0  0
 34 31  1  0  0  0  0
 35 33  1  0  0  0  0
 36 37  1  6  0  0  0
 38 36  1  0  0  0  0
 38 43  1  0  0  0  0
 40 42  2  0  0  0  0
 40 41  1  0  0  0  0
 41 43  1  0  0  0  0
 41 39  1  1  0  0  0
 42 38  1  0  0  0  0
M  END
>  <MODEL>
4

>  <REMARK>
 VINA RESULT:      -8.8      3.469      7.843
  Name = 
  10 active torsions:
  status: ('A' for Active; 'I' for Inactive)
    1  A    between atoms: N_1  and  C_34
    2  A    between atoms: N_1  and  C_35
    3  A    between atoms: C_2  and  N_6
    4  A    between atoms: C_2  and  C_7
    5  A    between atoms: C_2  and  C_13
    6  A    between atoms: C_3  and  N_4
    7  A    between atoms: C_3  and  C_12
    8  A    between atoms: N_6  and  C_12
    9  A    between atoms: N_11  and  C_14
   10  A    between atoms: C_14  and  C_22
                            x       y       z     vdW  Elec       q    Type
                         _______ _______ _______ _____ _____    ______ ____

>  <TORSDO>
F 10

$$$$
=
 OpenBabel10272414023D

 43 49  0  0  1  0  0  0  0  0999 V2000
  189.5530  177.4380  137.1010 C   0  0  0  0  0  0  0  0  0  0  0  0
  188.5560  177.3600  142.0690 C   0  0  0  0  0  0  0  0  0  0  0  0
  185.8630  178.1220  142.3680 C   0  0  0  0  0  0  0  0  0  0  0  0
  189.7180  177.2290  139.5100 C   0  0  0  0  0  0  0  0  0  0  0  0
  188.2170  177.8310  137.2200 C   0  0  0  0  0  3  0  0  0  0  0  0
  190.2890  177.3200  135.5160 Cl  0  0  0  0  0  0  0  0  0  0  0  0
  188.3630  177.6220  139.6420 C   0  0  0  0  0  0  0  0  0  0  0  0
  190.3020  177.1400  138.2440 C   0  0  0  0  0  3  0  0  0  0  0  0
  187.6240  177.9230  138.4820 C   0  0  0  0  0  3  0  0  0  0  0  0
  186.4440  178.0810  141.0940 C   0  0  0  0  0  3  0  0  0  0  0  0
  187.7810  177.6930  140.9260 C   0  0  0  0  0  0  0  0  0  0  0  0
  189.8960  176.9840  141.9120 C   0  0  0  0  0  3  0  0  0  0  0  0
  187.9760  177.4070  143.3520 C   0  0  0  0  0  0  0  0  0  0  0  0
  186.6330  177.7880  143.4850 C   0  0  0  0  0  3  0  0  0  0  0  0
  190.4730  176.9210  140.6430 C   0  0  0  0  0  3  0  0  0  0  0  0
  188.7570  177.0830  144.5120 N   0  0  0  0  0  2  0  0  0  0  0  0
  189.8250  176.5460  147.2940 C   0  0  0  0  0  2  0  0  0  0  0  0
  191.3070  176.5180  146.9170 C   0  0  1  0  0  0  0  0  0  0  0  0
  192.1430  176.6870  148.0330 O   0  0  0  0  0  0  0  0  0  0  0  0
  190.9400  178.0290  145.0050 C   0  0  0  0  0  3  0  0  0  0  0  0
  189.1890  177.8520  146.8090 C   0  0  0  0  0  2  0  0  0  0  0  0
  189.4620  178.0790  145.3130 C   0  0  2  0  0  3  0  0  0  0  0  0
  192.1410  175.4140  147.4220 C   0  0  0  0  0  2  0  0  0  0  0  0
  191.7960  177.2900  145.7280 C   0  0  0  0  0  3  0  0  0  0  0  0
  184.4330  178.5500  142.5680 C   0  0  1  0  0  3  0  0  0  0  0  0
  184.3450  179.5460  143.7200 C   0  0  0  0  0  2  0  0  0  0  0  0
  183.4740  178.9850  144.8290 C   0  0  0  0  0  1  0  0  0  0  0  0
  183.8790  179.1420  141.3550 N   0  0  0  0  0  2  0  0  0  0  0  0
  182.6460  178.4310  141.0470 C   0  0  0  0  0  2  0  0  0  0  0  0
  182.9400  177.3480  140.0230 C   0  0  0  0  0  2  0  0  0  0  0  0
  183.2240  177.9490  138.7290 N   0  0  0  0  0  0  0  0  0  0  0  0
  182.1470  177.2680  136.6580 C   0  0  0  0  0  2  0  0  0  0  0  0
  182.1170  178.8500  138.4350 C   0  0  0  0  0  2  0  0  0  0  0  0
  183.1570  176.8800  137.7320 C   0  0  1  0  0  3  0  0  0  0  0  0
  181.7690  178.6910  136.9710 C   0  0  0  0  0  2  0  0  0  0  0  0
  184.5470  176.6150  137.1450 C   0  0  2  0  0  3  0  0  0  0  0  0
  184.6050  176.9940  135.7980 O   0  0  0  0  0  1  0  0  0  0  0  0
  184.9110  175.2100  137.3020 N   0  0  0  0  0  0  0  0  0  0  0  0
  184.4540  171.9880  136.7850 F   0  0  0  0  0  0  0  0  0  0  0  0
  186.2570  173.4050  137.3130 C   0  0  0  0  0  3  0  0  0  0  0  0
  184.9090  172.8970  137.7240 C   0  0  1  0  0  3  0  0  0  0  0  0
  186.2140  174.7030  137.0860 C   0  0  0  0  0  3  0  0  0  0  0  0
  184.0190  174.1390  137.7030 C   0  0  0  0  0  2  0  0  0  0  0  0
  1  5  2  0  0  0  0
  1  8  1  0  0  0  0
  2 13  1  0  0  0  0
  3 25  1  0  0  0  0
  3 14  1  0  0  0  0
  4  7  1  0  0  0  0
  4 15  1  0  0  0  0
  5  9  1  0  0  0  0
  6  1  1  0  0  0  0
  7 11  1  0  0  0  0
  8  4  2  0  0  0  0
  9  7  2  0  0  0  0
 10  3  2  0  0  0  0
 11 10  1  0  0  0  0
 11  2  2  0  0  0  0
 12  2  1  0  0  0  0
 13 14  2  0  0  0  0
 13 16  1  0  0  0  0
 15 12  2  0  0  0  0
 18 24  1  6  0  0  0
 18 17  1  0  0  0  0
 18 23  1  0  0  0  0
 18 19  1  0  0  0  0
 20 22  1  0  0  0  0
 20 24  2  0  0  0  0
 21 17  1  0  0  0  0
 22 16  1  6  0  0  0
 22 21  1  0  0  0  0
 23 19  1  0  0  0  0
 25 26  1  1  0  0  0
 26 27  1  0  0  0  0
 28 25  1  0  0  0  0
 29 28  1  0  0  0  0
 30 29  1  0  0  0  0
 31 30  1  0  0  0  0
 32 35  1  0  0  0  0
 32 34  1  0  0  0  0
 33 31  1  0  0  0  0
 34 36  1  6  0  0  0
 34 31  1  0  0  0  0
 35 33  1  0  0  0  0
 36 37  1  6  0  0  0
 36 38  1  0  0  0  0
 38 43  1  0  0  0  0
 40 41  1  0  0  0  0
 41 39  1  6  0  0  0
 42 38  1  0  0  0  0
 42 40  2  0  0  0  0
 43 41  1  0  0  0  0
M  END
>  <MODEL>
5

>  <REMARK>
 VINA RESULT:      -8.7      3.132      5.820
  Name = 
  10 active torsions:
  status: ('A' for Active; 'I' for Inactive)
    1  A    between atoms: N_1  and  C_34
    2  A    between atoms: N_1  and  C_35
    3  A    between atoms: C_2  and  N_6
    4  A    between atoms: C_2  and  C_7
    5  A    between atoms: C_2  and  C_13
    6  A    between atoms: C_3  and  N_4
    7  A    between atoms: C_3  and  C_12
    8  A    between atoms: N_6  and  C_12
    9  A    between atoms: N_11  and  C_14
   10  A    between atoms: C_14  and  C_22
                            x       y       z     vdW  Elec       q    Type
                         _______ _______ _______ _____ _____    ______ ____

>  <TORSDO>
F 10

$$$$
=
 OpenBabel10272414023D

 43 49  0  0  1  0  0  0  0  0999 V2000
  191.3740  176.5300  147.1450 C   0  0  0  0  0  0  0  0  0  0  0  0
  187.4510  177.6790  144.1470 C   0  0  0  0  0  0  0  0  0  0  0  0
  188.4760  177.9560  141.5420 C   0  0  0  0  0  0  0  0  0  0  0  0
  189.1670  177.0520  146.2870 C   0  0  0  0  0  0  0  0  0  0  0  0
  191.9120  176.6730  145.8630 C   0  0  0  0  0  3  0  0  0  0  0  0
  192.4180  176.1100  148.4870 Cl  0  0  0  0  0  0  0  0  0  0  0  0
  189.7020  177.1950  144.9830 C   0  0  0  0  0  0  0  0  0  0  0  0
  190.0040  176.7210  147.3560 C   0  0  0  0  0  3  0  0  0  0  0  0
  191.0820  177.0040  144.7880 C   0  0  0  0  0  3  0  0  0  0  0  0
  189.3370  177.6680  142.6070 C   0  0  0  0  0  3  0  0  0  0  0  0
  188.8420  177.5150  143.9100 C   0  0  0  0  0  0  0  0  0  0  0  0
  186.9500  177.5410  145.4480 C   0  0  0  0  0  3  0  0  0  0  0  0
  186.5840  177.9750  143.0780 C   0  0  0  0  0  0  0  0  0  0  0  0
  187.1090  178.1100  141.7850 C   0  0  0  0  0  3  0  0  0  0  0  0
  187.8010  177.2320  146.5100 C   0  0  0  0  0  3  0  0  0  0  0  0
  185.1790  178.1530  143.3140 N   0  0  0  0  0  2  0  0  0  0  0  0
  182.8730  178.4970  141.3810 C   0  0  0  0  0  2  0  0  0  0  0  0
  181.7720  178.6270  142.4340 C   0  0  1  0  0  0  0  0  0  0  0  0
  180.6010  179.2010  141.9110 O   0  0  0  0  0  0  0  0  0  0  0  0
  183.3450  179.5430  144.0950 C   0  0  0  0  0  3  0  0  0  0  0  0
  183.9800  179.5200  141.6560 C   0  0  0  0  0  2  0  0  0  0  0  0
  184.4800  179.4180  143.1060 C   0  0  2  0  0  3  0  0  0  0  0  0
  180.5410  177.8360  142.2660 C   0  0  0  0  0  2  0  0  0  0  0  0
  182.0950  179.1570  143.7990 C   0  0  0  0  0  3  0  0  0  0  0  0
  188.9920  178.1380  140.1390 C   0  0  1  0  0  3  0  0  0  0  0  0
  189.7220  176.8770  139.6850 C   0  0  0  0  0  2  0  0  0  0  0  0
  191.2230  177.0990  139.7280 C   0  0  0  0  0  1  0  0  0  0  0  0
  187.9120  178.4490  139.2090 N   0  0  0  0  0  2  0  0  0  0  0  0
  187.8740  177.3890  138.2120 C   0  0  0  0  0  2  0  0  0  0  0  0
  187.2910  177.9400  136.9230 C   0  0  0  0  0  2  0  0  0  0  0  0
  186.8020  176.8510  136.0910 N   0  0  0  0  0  0  0  0  0  0  0  0
  186.3190  174.6210  136.9320 C   0  0  0  0  0  2  0  0  0  0  0  0
  185.3750  176.7280  136.3590 C   0  0  0  0  0  2  0  0  0  0  0  0
  187.4190  175.6190  136.5860 C   0  0  1  0  0  3  0  0  0  0  0  0
  185.0450  175.2530  136.4400 C   0  0  0  0  0  2  0  0  0  0  0  0
  188.3950  175.0610  135.5460 C   0  0  2  0  0  3  0  0  0  0  0  0
  187.9720  173.8100  135.0790 O   0  0  0  0  0  1  0  0  0  0  0  0
  189.7420  174.9770  136.1000 N   0  0  0  0  0  0  0  0  0  0  0  0
  192.5410  173.3720  136.7730 F   0  0  0  0  0  0  0  0  0  0  0  0
  191.8680  175.6100  136.4930 C   0  0  0  0  0  3  0  0  0  0  0  0
  191.6840  174.3400  137.2650 C   0  0  1  0  0  3  0  0  0  0  0  0
  190.7590  175.9300  135.8550 C   0  0  0  0  0  3  0  0  0  0  0  0
  190.2390  173.9340  136.9780 C   0  0  0  0  0  2  0  0  0  0  0  0
  1  8  1  0  0  0  0
  1  6  1  0  0  0  0
  2 12  1  0  0  0  0
  3 14  2  0  0  0  0
  3 10  1  0  0  0  0
  4 15  1  0  0  0  0
  4  8  2  0  0  0  0
  5  1  2  0  0  0  0
  7  4  1  0  0  0  0
  9  7  2  0  0  0  0
  9  5  1  0  0  0  0
 10 11  2  0  0  0  0
 11  2  1  0  0  0  0
 11  7  1  0  0  0  0
 12 15  2  0  0  0  0
 13 16  1  0  0  0  0
 13  2  2  0  0  0  0
 14 13  1  0  0  0  0
 17 21  1  0  0  0  0
 18 17  1  6  0  0  0
 18 24  1  0  0  0  0
 19 23  1  0  0  0  0
 19 18  1  0  0  0  0
 21 22  1  0  0  0  0
 22 16  1  6  0  0  0
 22 20  1  0  0  0  0
 23 18  1  0  0  0  0
 24 20  2  0  0  0  0
 25 26  1  6  0  0  0
 25  3  1  0  0  0  0
 26 27  1  0  0  0  0
 28 25  1  0  0  0  0
 29 28  1  0  0  0  0
 30 29  1  0  0  0  0
 31 33  1  0  0  0  0
 31 34  1  0  0  0  0
 31 30  1  0  0  0  0
 33 35  1  0  0  0  0
 34 36  1  6  0  0  0
 34 32  1  0  0  0  0
 35 32  1  0  0  0  0
 36 37  1  1  0  0  0
 36 38  1  0  0  0  0
 38 43  1  0  0  0  0
 40 41  1  0  0  0  0
 41 39  1  6  0  0  0
 42 38  1  0  0  0  0
 42 40  2  0  0  0  0
 43 41  1  0  0  0  0
M  END
>  <MODEL>
6

>  <REMARK>
 VINA RESULT:      -8.7      2.133      6.034
  Name = 
  10 active torsions:
  status: ('A' for Active; 'I' for Inactive)
    1  A    between atoms: N_1  and  C_34
    2  A    between atoms: N_1  and  C_35
    3  A    between atoms: C_2  and  N_6
    4  A    between atoms: C_2  and  C_7
    5  A    between atoms: C_2  and  C_13
    6  A    between atoms: C_3  and  N_4
    7  A    between atoms: C_3  and  C_12
    8  A    between atoms: N_6  and  C_12
    9  A    between atoms: N_11  and  C_14
   10  A    between atoms: C_14  and  C_22
                            x       y       z     vdW  Elec       q    Type
                         _______ _______ _______ _____ _____    ______ ____

>  <TORSDO>
F 10

$$$$
=
 OpenBabel10272414023D

 43 49  0  0  1  0  0  0  0  0999 V2000
  191.6490  176.3520  147.4000 C   0  0  0  0  0  0  0  0  0  0  0  0
  187.6630  177.4840  144.4830 C   0  0  0  0  0  0  0  0  0  0  0  0
  188.5390  177.3240  141.8140 C   0  0  0  0  0  0  0  0  0  0  0  0
  189.4480  176.9720  146.5960 C   0  0  0  0  0  0  0  0  0  0  0  0
  192.1150  176.2760  146.0840 C   0  0  0  0  0  3  0  0  0  0  0  0
  192.7350  176.0070  148.7300 Cl  0  0  0  0  0  0  0  0  0  0  0  0
  189.9090  176.8940  145.2580 C   0  0  0  0  0  0  0  0  0  0  0  0
  190.3190  176.7010  147.6540 C   0  0  0  0  0  3  0  0  0  0  0  0
  191.2520  176.5460  145.0190 C   0  0  0  0  0  3  0  0  0  0  0  0
  189.4370  177.0920  142.8620 C   0  0  0  0  0  3  0  0  0  0  0  0
  189.0150  177.1560  144.1980 C   0  0  0  0  0  0  0  0  0  0  0  0
  187.2350  177.5640  145.8140 C   0  0  0  0  0  3  0  0  0  0  0  0
  186.7590  177.7250  143.4300 C   0  0  0  0  0  0  0  0  0  0  0  0
  187.2090  177.6410  142.1040 C   0  0  0  0  0  3  0  0  0  0  0  0
  188.1210  177.3120  146.8620 C   0  0  0  0  0  3  0  0  0  0  0  0
  185.3930  178.0680  143.7110 N   0  0  0  0  0  2  0  0  0  0  0  0
  183.6080  178.5500  141.3130 C   0  0  0  0  0  2  0  0  0  0  0  0
  182.2990  178.6990  142.0890 C   0  0  1  0  0  0  0  0  0  0  0  0
  181.3010  179.3320  141.3300 O   0  0  0  0  0  0  0  0  0  0  0  0
  183.4770  179.5110  144.0960 C   0  0  0  0  0  3  0  0  0  0  0  0
  184.6560  179.5210  141.8670 C   0  0  0  0  0  2  0  0  0  0  0  0
  184.8050  179.3640  143.3900 C   0  0  2  0  0  3  0  0  0  0  0  0
  181.1140  177.9630  141.6180 C   0  0  0  0  0  2  0  0  0  0  0  0
  182.3160  179.1830  143.5080 C   0  0  0  0  0  3  0  0  0  0  0  0
  188.9790  177.2730  140.3740 C   0  0  1  0  0  3  0  0  0  0  0  0
  188.4520  178.4940  139.6250 C   0  0  0  0  0  2  0  0  0  0  0  0
  187.5740  178.0560  138.4670 C   0  0  0  0  0  1  0  0  0  0  0  0
  190.4320  177.2090  140.2630 N   0  0  0  0  0  2  0  0  0  0  0  0
  190.7490  176.2250  139.2370 C   0  0  0  0  0  2  0  0  0  0  0  0
  191.9020  176.7410  138.3940 C   0  0  0  0  0  2  0  0  0  0  0  0
  191.8220  176.1890  137.0500 N   0  0  0  0  0  0  0  0  0  0  0  0
  191.6900  173.8090  136.5720 C   0  0  0  0  0  2  0  0  0  0  0  0
  190.4310  175.8100  136.8360 C   0  0  0  0  0  2  0  0  0  0  0  0
  192.5910  174.9440  137.0470 C   0  0  1  0  0  3  0  0  0  0  0  0
  190.4200  174.4780  136.1180 C   0  0  0  0  0  2  0  0  0  0  0  0
  193.8380  175.0940  136.1710 C   0  0  2  0  0  3  0  0  0  0  0  0
  193.6870  174.4070  134.9590 O   0  0  0  0  0  1  0  0  0  0  0  0
  195.0240  174.6300  136.8830 N   0  0  0  0  0  0  0  0  0  0  0  0
  198.0500  175.0430  138.1200 F   0  0  0  0  0  0  0  0  0  0  0  0
  196.2020  173.6460  138.5310 C   0  0  0  0  0  3  0  0  0  0  0  0
  197.2220  174.1030  137.5340 C   0  0  1  0  0  3  0  0  0  0  0  0
  194.9860  173.9610  138.1290 C   0  0  0  0  0  3  0  0  0  0  0  0
  196.3960  174.7670  136.4330 C   0  0  0  0  0  2  0  0  0  0  0  0
  1  8  1  0  0  0  0
  1  6  1  0  0  0  0
  2 12  1  0  0  0  0
  3 14  2  0  0  0  0
  3 10  1  0  0  0  0
  4 15  1  0  0  0  0
  4  8  2  0  0  0  0
  5  1  2  0  0  0  0
  7  4  1  0  0  0  0
  9  7  2  0  0  0  0
  9  5  1  0  0  0  0
 10 11  2  0  0  0  0
 11  2  1  0  0  0  0
 11  7  1  0  0  0  0
 12 15  2  0  0  0  0
 13 16  1  0  0  0  0
 13  2  2  0  0  0  0
 14 13  1  0  0  0  0
 17 21  1  0  0  0  0
 18 17  1  6  0  0  0
 18 24  1  0  0  0  0
 19 23  1  0  0  0  0
 19 18  1  0  0  0  0
 21 22  1  0  0  0  0
 22 16  1  6  0  0  0
 22 20  1  0  0  0  0
 23 18  1  0  0  0  0
 24 20  2  0  0  0  0
 25 26  1  6  0  0  0
 25  3  1  0  0  0  0
 27 26  1  0  0  0  0
 28 25  1  0  0  0  0
 29 28  1  0  0  0  0
 30 29  1  0  0  0  0
 31 30  1  0  0  0  0
 32 34  1  0  0  0  0
 33 31  1  0  0  0  0
 34 36  1  6  0  0  0
 34 31  1  0  0  0  0
 35 32  1  0  0  0  0
 35 33  1  0  0  0  0
 36 37  1  6  0  0  0
 36 38  1  0  0  0  0
 38 42  1  0  0  0  0
 41 39  1  1  0  0  0
 41 40  1  0  0  0  0
 42 40  2  0  0  0  0
 43 38  1  0  0  0  0
 43 41  1  0  0  0  0
M  END
>  <MODEL>
7

>  <REMARK>
 VINA RESULT:      -8.6      3.344      7.840
  Name = 
  10 active torsions:
  status: ('A' for Active; 'I' for Inactive)
    1  A    between atoms: N_1  and  C_34
    2  A    between atoms: N_1  and  C_35
    3  A    between atoms: C_2  and  N_6
    4  A    between atoms: C_2  and  C_7
    5  A    between atoms: C_2  and  C_13
    6  A    between atoms: C_3  and  N_4
    7  A    between atoms: C_3  and  C_12
    8  A    between atoms: N_6  and  C_12
    9  A    between atoms: N_11  and  C_14
   10  A    between atoms: C_14  and  C_22
                            x       y       z     vdW  Elec       q    Type
                         _______ _______ _______ _____ _____    ______ ____

>  <TORSDO>
F 10

$$$$
=
 OpenBabel10272414023D

 43 49  0  0  1  0  0  0  0  0999 V2000
  181.7060  179.1410  142.2480 C   0  0  0  0  0  0  0  0  0  0  0  0
  186.3900  178.0000  143.8120 C   0  0  0  0  0  0  0  0  0  0  0  0
  188.0310  178.0000  141.5250 C   0  0  0  0  0  0  0  0  0  0  0  0
  183.6420  178.5560  143.5860 C   0  0  0  0  0  0  0  0  0  0  0  0
  182.4950  179.1370  141.0940 C   0  0  0  0  0  3  0  0  0  0  0  0
  179.9990  179.5140  142.1360 Cl  0  0  0  0  0  0  0  0  0  0  0  0
  184.4510  178.5520  142.4220 C   0  0  0  0  0  0  0  0  0  0  0  0
  182.2790  178.8490  143.4910 C   0  0  0  0  0  3  0  0  0  0  0  0
  183.8590  178.8440  141.1800 C   0  0  0  0  0  3  0  0  0  0  0  0
  186.6590  178.2530  141.4050 C   0  0  0  0  0  3  0  0  0  0  0  0
  185.8290  178.2690  142.5350 C   0  0  0  0  0  0  0  0  0  0  0  0
  185.5660  178.0010  144.9450 C   0  0  0  0  0  3  0  0  0  0  0  0
  187.7690  177.7380  143.9350 C   0  0  0  0  0  0  0  0  0  0  0  0
  188.5740  177.7420  142.7870 C   0  0  0  0  0  3  0  0  0  0  0  0
  184.2030  178.2740  144.8320 C   0  0  0  0  0  3  0  0  0  0  0  0
  188.3400  177.4550  145.2210 N   0  0  0  0  0  2  0  0  0  0  0  0
  190.0210  176.5820  147.5830 C   0  0  0  0  0  2  0  0  0  0  0  0
  191.3460  176.4620  146.8290 C   0  0  1  0  0  0  0  0  0  0  0  0
  192.4520  176.4590  147.6940 O   0  0  0  0  0  0  0  0  0  0  0  0
  190.6640  178.1640  145.1820 C   0  0  0  0  0  3  0  0  0  0  0  0
  189.4230  177.9760  147.3690 C   0  0  0  0  0  2  0  0  0  0  0  0
  189.3270  178.3120  145.8710 C   0  0  2  0  0  3  0  0  0  0  0  0
  192.1610  175.2510  147.0240 C   0  0  0  0  0  2  0  0  0  0  0  0
  191.5930  177.2940  145.6060 C   0  0  0  0  0  3  0  0  0  0  0  0
  188.9340  177.9660  140.3210 C   0  0  1  0  0  3  0  0  0  0  0  0
  189.9740  176.8600  140.4810 C   0  0  0  0  0  2  0  0  0  0  0  0
  191.3710  177.4530  140.4810 C   0  0  0  0  0  1  0  0  0  0  0  0
  188.1760  177.7620  139.0910 N   0  0  0  0  0  2  0  0  0  0  0  0
  188.8660  178.4790  138.0290 C   0  0  0  0  0  2  0  0  0  0  0  0
  188.4080  177.9380  136.6860 C   0  0  0  0  0  2  0  0  0  0  0  0
  188.4870  176.4850  136.6800 N   0  0  0  0  0  0  0  0  0  0  0  0
  187.7100  175.0980  134.8410 C   0  0  0  0  0  2  0  0  0  0  0  0
  189.6130  176.1310  135.8260 C   0  0  0  0  0  2  0  0  0  0  0  0
  187.2880  175.9900  136.0020 C   0  0  1  0  0  3  0  0  0  0  0  0
  189.2000  174.9420  134.9860 C   0  0  0  0  0  2  0  0  0  0  0  0
  186.3850  175.2530  136.9950 C   0  0  2  0  0  3  0  0  0  0  0  0
  186.1170  173.9490  136.5590 O   0  0  0  0  0  1  0  0  0  0  0  0
  185.1440  175.9910  137.2070 N   0  0  0  0  0  0  0  0  0  0  0  0
  182.1130  176.3350  138.4540 F   0  0  0  0  0  0  0  0  0  0  0  0
  183.8410  177.7550  137.7220 C   0  0  0  0  0  3  0  0  0  0  0  0
  182.8930  176.6550  137.3570 C   0  0  1  0  0  3  0  0  0  0  0  0
  185.0900  177.3420  137.6260 C   0  0  0  0  0  3  0  0  0  0  0  0
  183.8020  175.4740  137.0170 C   0  0  0  0  0  2  0  0  0  0  0  0
  1  8  1  0  0  0  0
  2 13  1  0  0  0  0
  2 12  1  0  0  0  0
  3 14  1  0  0  0  0
  4 15  1  0  0  0  0
  5  9  1  0  0  0  0
  5  1  2  0  0  0  0
  6  1  1  0  0  0  0
  7 11  1  0  0  0  0
  7  4  1  0  0  0  0
  8  4  2  0  0  0  0
  9  7  2  0  0  0  0
 10  3  2  0  0  0  0
 10 11  1  0  0  0  0
 11  2  2  0  0  0  0
 13 16  1  0  0  0  0
 14 13  2  0  0  0  0
 15 12  2  0  0  0  0
 18 24  1  6  0  0  0
 18 23  1  0  0  0  0
 18 17  1  0  0  0  0
 18 19  1  0  0  0  0
 20 24  2  0  0  0  0
 20 22  1  0  0  0  0
 21 17  1  0  0  0  0
 22 16  1  6  0  0  0
 22 21  1  0  0  0  0
 23 19  1  0  0  0  0
 25 26  1  1  0  0  0
 25  3  1  0  0  0  0
 27 26  1  0  0  0  0
 28 25  1  0  0  0  0
 29 28  1  0  0  0  0
 30 29  1  0  0  0  0
 31 30  1  0  0  0  0
 32 35  1  0  0  0  0
 32 34  1  0  0  0  0
 33 31  1  0  0  0  0
 34 31  1  0  0  0  0
 34 36  1  1  0  0  0
 35 33  1  0  0  0  0
 36 37  1  6  0  0  0
 36 38  1  0  0  0  0
 38 42  1  0  0  0  0
 41 40  1  0  0  0  0
 41 39  1  1  0  0  0
 42 40  2  0  0  0  0
 43 38  1  0  0  0  0
 43 41  1  0  0  0  0
M  END
>  <MODEL>
8

>  <REMARK>
 VINA RESULT:      -8.6      3.436      7.365
  Name = 
  10 active torsions:
  status: ('A' for Active; 'I' for Inactive)
    1  A    between atoms: N_1  and  C_34
    2  A    between atoms: N_1  and  C_35
    3  A    between atoms: C_2  and  N_6
    4  A    between atoms: C_2  and  C_7
    5  A    between atoms: C_2  and  C_13
    6  A    between atoms: C_3  and  N_4
    7  A    between atoms: C_3  and  C_12
    8  A    between atoms: N_6  and  C_12
    9  A    between atoms: N_11  and  C_14
   10  A    between atoms: C_14  and  C_22
                            x       y       z     vdW  Elec       q    Type
                         _______ _______ _______ _____ _____    ______ ____

>  <TORSDO>
F 10

$$$$
=
 OpenBabel10272414023D

 43 49  0  0  1  0  0  0  0  0999 V2000
  187.7500  177.5220  146.9220 C   0  0  0  0  0  0  0  0  0  0  0  0
  185.5310  178.5610  142.4850 C   0  0  0  0  0  0  0  0  0  0  0  0
  187.5310  178.3750  140.5150 C   0  0  0  0  0  0  0  0  0  0  0  0
  186.1560  178.1020  145.1890 C   0  0  0  0  0  0  0  0  0  0  0  0
  188.7660  177.4340  145.9660 C   0  0  0  0  0  3  0  0  0  0  0  0
  188.1090  177.2100  148.6070 Cl  0  0  0  0  0  0  0  0  0  0  0  0
  187.1780  178.0120  144.2120 C   0  0  0  0  0  0  0  0  0  0  0  0
  186.4480  177.8570  146.5340 C   0  0  0  0  0  3  0  0  0  0  0  0
  188.4830  177.6770  144.6190 C   0  0  0  0  0  3  0  0  0  0  0  0
  187.8520  178.1700  141.8620 C   0  0  0  0  0  3  0  0  0  0  0  0
  186.8660  178.2470  142.8560 C   0  0  0  0  0  0  0  0  0  0  0  0
  184.5410  178.6530  143.4720 C   0  0  0  0  0  3  0  0  0  0  0  0
  185.2070  178.7750  141.1310 C   0  0  0  0  0  0  0  0  0  0  0  0
  186.2140  178.6790  140.1600 C   0  0  0  0  0  3  0  0  0  0  0  0
  184.8520  178.4280  144.8140 C   0  0  0  0  0  3  0  0  0  0  0  0
  183.8620  179.1040  140.7520 N   0  0  0  0  0  2  0  0  0  0  0  0
  181.5650  179.1350  138.7790 C   0  0  0  0  0  2  0  0  0  0  0  0
  181.9790  177.8860  138.0000 C   0  0  1  0  0  0  0  0  0  0  0  0
  180.9200  177.3560  137.2430 O   0  0  0  0  0  0  0  0  0  0  0  0
  183.1190  176.9290  139.9640 C   0  0  0  0  0  3  0  0  0  0  0  0
  181.4670  178.8080  140.2720 C   0  0  0  0  0  2  0  0  0  0  0  0
  182.7590  178.1480  140.7800 C   0  0  2  0  0  3  0  0  0  0  0  0
  181.9850  177.9450  136.5280 C   0  0  0  0  0  2  0  0  0  0  0  0
  182.7810  176.8120  138.6700 C   0  0  0  0  0  3  0  0  0  0  0  0
  188.5810  178.3100  139.4360 C   0  0  1  0  0  3  0  0  0  0  0  0
  189.1470  176.8960  139.3450 C   0  0  0  0  0  2  0  0  0  0  0  0
  190.5760  176.8720  139.8540 C   0  0  0  0  0  1  0  0  0  0  0  0
  188.0410  178.7150  138.1420 N   0  0  0  0  0  2  0  0  0  0  0  0
  188.5110  177.7550  137.1540 C   0  0  0  0  0  2  0  0  0  0  0  0
  187.7740  177.9870  135.8470 C   0  0  0  0  0  2  0  0  0  0  0  0
  187.1300  176.7570  135.4120 N   0  0  0  0  0  0  0  0  0  0  0  0
  186.3610  175.0240  136.9330 C   0  0  0  0  0  2  0  0  0  0  0  0
  185.7030  176.9210  135.6580 C   0  0  0  0  0  2  0  0  0  0  0  0
  187.5810  175.6930  136.3100 C   0  0  1  0  0  3  0  0  0  0  0  0
  185.1780  175.6170  136.2170 C   0  0  0  0  0  2  0  0  0  0  0  0
  188.4580  174.6940  135.5500 C   0  0  2  0  0  3  0  0  0  0  0  0
  187.9760  173.3870  135.6960 O   0  0  0  0  0  1  0  0  0  0  0  0
  189.8450  174.7850  135.9970 N   0  0  0  0  0  0  0  0  0  0  0  0
  192.5110  176.4670  136.9590 F   0  0  0  0  0  0  0  0  0  0  0  0
  191.6670  174.2860  137.2230 C   0  0  0  0  0  3  0  0  0  0  0  0
  192.1150  175.3410  136.2590 C   0  0  1  0  0  3  0  0  0  0  0  0
  190.3900  174.0050  137.0430 C   0  0  0  0  0  3  0  0  0  0  0  0
  190.8620  175.6610  135.4460 C   0  0  0  0  0  2  0  0  0  0  0  0
  1  6  1  0  0  0  0
  2 11  1  0  0  0  0
  2 12  1  0  0  0  0
  3 10  1  0  0  0  0
  4  8  2  0  0  0  0
  5  1  2  0  0  0  0
  7  9  2  0  0  0  0
  7  4  1  0  0  0  0
  8  1  1  0  0  0  0
  9  5  1  0  0  0  0
 10 11  2  0  0  0  0
 11  7  1  0  0  0  0
 12 15  2  0  0  0  0
 13  2  2  0  0  0  0
 14  3  2  0  0  0  0
 14 13  1  0  0  0  0
 15  4  1  0  0  0  0
 16 13  1  0  0  0  0
 17 21  1  0  0  0  0
 18 23  1  6  0  0  0
 18 24  1  0  0  0  0
 18 17  1  0  0  0  0
 19 18  1  0  0  0  0
 20 22  1  0  0  0  0
 21 22  1  0  0  0  0
 22 16  1  6  0  0  0
 23 19  1  0  0  0  0
 24 20  2  0  0  0  0
 25 26  1  6  0  0  0
 25  3  1  0  0  0  0
 26 27  1  0  0  0  0
 28 25  1  0  0  0  0
 29 28  1  0  0  0  0
 30 29  1  0  0  0  0
 31 33  1  0  0  0  0
 31 30  1  0  0  0  0
 31 34  1  0  0  0  0
 33 35  1  0  0  0  0
 34 36  1  6  0  0  0
 34 32  1  0  0  0  0
 35 32  1  0  0  0  0
 36 37  1  1  0  0  0
 36 38  1  0  0  0  0
 38 42  1  0  0  0  0
 41 39  1  1  0  0  0
 41 40  1  0  0  0  0
 42 40  2  0  0  0  0
 43 38  1  0  0  0  0
 43 41  1  0  0  0  0
M  END
>  <MODEL>
9

>  <REMARK>
 VINA RESULT:      -8.6      2.228      6.196
  Name = 
  10 active torsions:
  status: ('A' for Active; 'I' for Inactive)
    1  A    between atoms: N_1  and  C_34
    2  A    between atoms: N_1  and  C_35
    3  A    between atoms: C_2  and  N_6
    4  A    between atoms: C_2  and  C_7
    5  A    between atoms: C_2  and  C_13
    6  A    between atoms: C_3  and  N_4
    7  A    between atoms: C_3  and  C_12
    8  A    between atoms: N_6  and  C_12
    9  A    between atoms: N_11  and  C_14
   10  A    between atoms: C_14  and  C_22
                            x       y       z     vdW  Elec       q    Type
                         _______ _______ _______ _____ _____    ______ ____

>  <TORSDO>
F 10

$$$$
