=
 OpenBabel10272413563D

 30 33  0  0  1  0  0  0  0  0999 V2000
  187.4150  177.6530  143.4650 N   0  0  0  0  0  0  0  0  0  0  0  0
  185.1850  178.3000  142.6830 C   0  0  0  0  0  0  0  0  0  0  0  0
  186.3290  178.5680  147.4750 C   0  0  0  0  0  3  0  0  0  0  0  0
  188.3360  177.2130  144.5110 C   0  0  0  0  0  0  0  0  0  0  0  0
  187.2410  178.3980  148.5180 C   0  0  0  0  0  3  0  0  0  0  0  0
  183.8910  178.7560  142.9440 C   0  0  0  0  0  3  0  0  0  0  0  0
  185.5610  178.0510  141.4050 F   0  0  0  0  0  0  0  0  0  0  0  0
  186.6670  178.2040  146.1620 C   0  0  0  0  0  0  0  0  0  0  0  0
  183.4930  179.0230  144.2560 C   0  0  0  0  0  3  0  0  0  0  0  0
  186.0840  178.0980  143.7380 C   0  0  0  0  0  0  0  0  0  0  0  0
  187.9530  177.6790  145.9000 C   0  0  0  0  0  0  0  0  0  0  0  0
  188.5000  177.8540  148.2620 C   0  0  0  0  0  3  0  0  0  0  0  0
  188.8500  177.4880  146.9620 C   0  0  0  0  0  3  0  0  0  0  0  0
  184.3900  178.8350  145.3090 C   0  0  0  0  0  3  0  0  0  0  0  0
  185.6930  178.3750  145.0610 C   0  0  0  0  0  0  0  0  0  0  0  0
  191.1830  178.8050  142.8500 O   0  0  0  0  0  0  0  0  0  0  0  0
  190.1210  178.1260  142.8920 C   0  0  0  0  0  0  0  0  0  0  0  0
  189.7200  177.5240  144.1450 N   0  0  0  0  0  0  0  0  0  0  0  0
  188.5630  178.9680  141.0820 C   0  0  0  0  0  3  0  0  0  0  0  0
  189.3160  176.8830  140.8740 N   0  0  0  0  0  0  0  0  0  0  0  0
  189.3390  177.9800  141.6470 C   0  0  1  0  0  3  0  0  0  0  0  0
  188.0370  178.4740  139.9470 N   0  0  0  0  0  0  0  0  0  0  0  0
  188.5090  177.2140  139.8490 C   0  0  0  0  0  3  0  0  0  0  0  0
  190.7150  177.3320  145.1920 C   0  0  0  0  0  2  0  0  0  0  0  0
  191.4980  176.0530  144.9410 C   0  0  0  0  0  2  0  0  0  0  0  0
  192.0640  176.2950  147.3130 C   0  0  0  0  0  3  0  0  0  0  0  0
  192.2450  175.6530  146.1650 C   0  0  0  0  0  3  0  0  0  0  0  0
  193.4750  176.8660  149.2740 O   0  0  0  0  0  1  0  0  0  0  0  0
  192.7910  175.9150  148.5260 C   0  0  0  0  0  0  0  0  0  0  0  0
  192.7950  174.7120  148.8940 O   0  0  0  0  0  0  0  0  0  0  0  0
  1 10  2  0  0  0  0
  1  4  1  0  0  0  0
  2  6  2  0  0  0  0
  2 10  1  0  0  0  0
  3  5  2  0  0  0  0
  4 11  2  0  0  0  0
  6  9  1  0  0  0  0
  7  2  1  0  0  0  0
  8  3  1  0  0  0  0
  9 14  2  0  0  0  0
 10 15  1  0  0  0  0
 11  8  1  0  0  0  0
 11 13  1  0  0  0  0
 12  5  1  0  0  0  0
 13 12  2  0  0  0  0
 15 14  1  0  0  0  0
 15  8  2  0  0  0  0
 16 17  2  0  0  0  0
 17 18  1  0  0  0  0
 18  4  1  0  0  0  0
 18 24  1  0  0  0  0
 19 21  1  0  0  0  0
 20 21  1  0  0  0  0
 21 17  1  6  0  0  0
 22 19  2  0  0  0  0
 23 22  1  0  0  0  0
 23 20  2  0  0  0  0
 25 24  1  0  0  0  0
 25 27  1  0  0  0  0
 26 29  1  0  0  0  0
 27 26  2  0  0  0  0
 29 30  2  0  0  0  0
 29 28  1  0  0  0  0
M  END
>  <MODEL>
1

>  <REMARK>
 VINA RESULT:      -9.2      0.000      0.000
  Name = 
  6 active torsions:
  status: ('A' for Active; 'I' for Inactive)
    1  A    between atoms: C_4  and  N_13
    2  A    between atoms: C_7  and  C_15
    3  A    between atoms: C_8  and  C_12
    4  A    between atoms: N_13  and  C_27
    5  A    between atoms: C_16  and  C_30
    6  A    between atoms: C_27  and  C_30
                            x       y       z     vdW  Elec       q    Type
                         _______ _______ _______ _____ _____    ______ ____

>  <TORSDO>
F 6

$$$$
=
 OpenBabel10272413563D

 30 33  0  0  0  0  0  0  0  0999 V2000
  186.8730  178.0020  144.7010 N   0  0  0  0  0  0  0  0  0  0  0  0
  186.6700  178.4670  147.0980 C   0  0  0  0  0  0  0  0  0  0  0  0
  190.8660  176.6410  145.2540 C   0  0  0  0  0  3  0  0  0  0  0  0
  187.4950  177.3160  143.5710 C   0  0  0  0  0  0  0  0  0  0  0  0
  191.6210  176.1860  144.1710 C   0  0  0  0  0  3  0  0  0  0  0  0
  187.2090  178.4650  148.3870 C   0  0  0  0  0  3  0  0  0  0  0  0
  185.4170  178.9440  146.8990 F   0  0  0  0  0  0  0  0  0  0  0  0
  189.5280  177.0280  145.0800 C   0  0  0  0  0  0  0  0  0  0  0  0
  188.5020  177.9830  148.6050 C   0  0  0  0  0  3  0  0  0  0  0  0
  187.4200  177.9760  146.0230 C   0  0  0  0  0  0  0  0  0  0  0  0
  188.9530  176.9710  143.7900 C   0  0  0  0  0  0  0  0  0  0  0  0
  191.0440  176.1040  142.9040 C   0  0  0  0  0  3  0  0  0  0  0  0
  189.7150  176.4860  142.7170 C   0  0  0  0  0  3  0  0  0  0  0  0
  189.2580  177.5040  147.5320 C   0  0  0  0  0  3  0  0  0  0  0  0
  188.7270  177.4990  146.2330 C   0  0  0  0  0  0  0  0  0  0  0  0
  186.3170  179.9170  141.2800 O   0  0  0  0  0  0  0  0  0  0  0  0
  186.1750  179.0020  142.1350 C   0  0  0  0  0  0  0  0  0  0  0  0
  187.2430  178.0440  142.3240 N   0  0  0  0  0  0  0  0  0  0  0  0
  184.5670  179.8420  143.9010 C   0  0  0  0  0  3  0  0  0  0  0  0
  183.9190  178.0800  142.7030 N   0  0  0  0  0  0  0  0  0  0  0  0
  184.9150  178.9580  142.9040 C   0  0  0  0  0  0  0  0  0  0  0  0
  183.3410  179.5010  144.3390 N   0  0  0  0  0  2  0  0  0  0  0  0
  182.9770  178.4350  143.5970 C   0  0  0  0  0  3  0  0  0  0  0  0
  188.2360  177.8700  141.2720 C   0  0  0  0  0  2  0  0  0  0  0  0
  187.5890  178.0410  139.9070 C   0  0  0  0  0  2  0  0  0  0  0  0
  189.6230  176.9080  139.1410 C   0  0  0  0  0  3  0  0  0  0  0  0
  188.4240  177.4000  138.8530 C   0  0  0  0  0  3  0  0  0  0  0  0
  191.0640  175.0470  138.3520 O   0  0  0  0  0  1  0  0  0  0  0  0
  190.4560  176.2750  138.1170 C   0  0  0  0  0  0  0  0  0  0  0  0
  190.6230  176.8510  137.0110 O   0  0  0  0  0  0  0  0  0  0  0  0
  1 10  1  0  0  0  0
  2  6  1  0  0  0  0
  4 11  1  0  0  0  0
  4  1  2  0  0  0  0
  5  3  2  0  0  0  0
  6  9  2  0  0  0  0
  7  2  1  0  0  0  0
  8  3  1  0  0  0  0
  8 15  1  0  0  0  0
 10 15  1  0  0  0  0
 10  2  2  0  0  0  0
 11  8  2  0  0  0  0
 12  5  1  0  0  0  0
 13 12  2  0  0  0  0
 13 11  1  0  0  0  0
 14  9  1  0  0  0  0
 15 14  2  0  0  0  0
 16 17  2  0  0  0  0
 17 18  1  0  0  0  0
 17 21  1  0  0  0  0
 18  4  1  0  0  0  0
 19 22  1  0  0  0  0
 20 21  1  0  0  0  0
 20 23  2  0  0  0  0
 21 19  2  0  0  0  0
 23 22  1  0  0  0  0
 24 18  1  0  0  0  0
 25 24  1  0  0  0  0
 27 26  2  0  0  0  0
 27 25  1  0  0  0  0
 29 28  1  0  0  0  0
 29 26  1  0  0  0  0
 30 29  2  0  0  0  0
M  END
>  <MODEL>
2

>  <REMARK>
 VINA RESULT:      -8.7      3.507      6.230
  Name = 
  6 active torsions:
  status: ('A' for Active; 'I' for Inactive)
    1  A    between atoms: C_4  and  N_13
    2  A    between atoms: C_7  and  C_15
    3  A    between atoms: C_8  and  C_12
    4  A    between atoms: N_13  and  C_27
    5  A    between atoms: C_16  and  C_30
    6  A    between atoms: C_27  and  C_30
                            x       y       z     vdW  Elec       q    Type
                         _______ _______ _______ _____ _____    ______ ____

>  <TORSDO>
F 6

$$$$
=
 OpenBabel10272413563D

 30 33  0  0  1  0  0  0  0  0999 V2000
  186.9940  177.7290  142.5610 N   0  0  0  0  0  0  0  0  0  0  0  0
  184.8580  178.3910  141.5600 C   0  0  0  0  0  0  0  0  0  0  0  0
  185.4650  178.5060  146.4540 C   0  0  0  0  0  3  0  0  0  0  0  0
  187.7970  177.2590  143.6870 C   0  0  0  0  0  0  0  0  0  0  0  0
  186.2590  178.3060  147.5860 C   0  0  0  0  0  3  0  0  0  0  0  0
  183.5390  178.8330  141.6910 C   0  0  0  0  0  3  0  0  0  0  0  0
  185.3740  178.1870  140.3230 F   0  0  0  0  0  0  0  0  0  0  0  0
  185.9490  178.1870  145.1760 C   0  0  0  0  0  0  0  0  0  0  0  0
  182.9970  179.0540  142.9590 C   0  0  0  0  0  3  0  0  0  0  0  0
  185.6360  178.1590  142.7000 C   0  0  0  0  0  0  0  0  0  0  0  0
  187.2600  177.6770  145.0400 C   0  0  0  0  0  0  0  0  0  0  0  0
  187.5430  177.7770  147.4520 C   0  0  0  0  0  3  0  0  0  0  0  0
  188.0370  177.4560  146.1870 C   0  0  0  0  0  3  0  0  0  0  0  0
  183.7750  178.8360  144.0980 C   0  0  0  0  0  3  0  0  0  0  0  0
  185.1010  178.3900  143.9800 C   0  0  0  0  0  0  0  0  0  0  0  0
  190.8020  178.8500  142.3300 O   0  0  0  0  0  0  0  0  0  0  0  0
  189.7570  178.1470  142.2680 C   0  0  0  0  0  0  0  0  0  0  0  0
  189.2110  177.5900  143.4860 N   0  0  0  0  0  0  0  0  0  0  0  0
  189.2060  176.7540  140.2260 C   0  0  0  0  0  3  0  0  0  0  0  0
  188.4000  178.8300  140.2790 N   0  0  0  0  0  0  0  0  0  0  0  0
  189.1430  177.9290  140.9420 C   0  0  1  0  0  3  0  0  0  0  0  0
  188.5050  176.9310  139.0920 N   0  0  0  0  0  0  0  0  0  0  0  0
  188.0310  178.1920  139.1520 C   0  0  0  0  0  3  0  0  0  0  0  0
  190.0670  177.4660  144.6580 C   0  0  0  0  0  2  0  0  0  0  0  0
  191.0130  176.2870  144.4940 C   0  0  0  0  0  2  0  0  0  0  0  0
  191.4650  176.5630  146.8860 C   0  0  0  0  0  3  0  0  0  0  0  0
  191.8800  176.1460  145.6970 C   0  0  0  0  0  3  0  0  0  0  0  0
  192.9620  175.2390  148.3590 O   0  0  0  0  0  0  0  0  0  0  0  0
  192.3050  176.4320  148.0790 C   0  0  0  0  0  0  0  0  0  0  0  0
  192.4330  177.4110  148.8580 O   0  0  0  0  0  1  0  0  0  0  0  0
  1 10  2  0  0  0  0
  1  4  1  0  0  0  0
  2  6  2  0  0  0  0
  2 10  1  0  0  0  0
  3  5  2  0  0  0  0
  4 11  2  0  0  0  0
  6  9  1  0  0  0  0
  7  2  1  0  0  0  0
  8  3  1  0  0  0  0
  9 14  2  0  0  0  0
 10 15  1  0  0  0  0
 11  8  1  0  0  0  0
 11 13  1  0  0  0  0
 12  5  1  0  0  0  0
 13 12  2  0  0  0  0
 15 14  1  0  0  0  0
 15  8  2  0  0  0  0
 17 16  2  0  0  0  0
 17 18  1  0  0  0  0
 18  4  1  0  0  0  0
 18 24  1  0  0  0  0
 19 21  1  0  0  0  0
 20 21  1  0  0  0  0
 21 17  1  1  0  0  0
 22 23  1  0  0  0  0
 22 19  2  0  0  0  0
 23 20  2  0  0  0  0
 25 24  1  0  0  0  0
 25 27  1  0  0  0  0
 26 29  1  0  0  0  0
 27 26  2  0  0  0  0
 29 28  2  0  0  0  0
 29 30  1  0  0  0  0
M  END
>  <MODEL>
3

>  <REMARK>
 VINA RESULT:      -8.6      0.959      1.348
  Name = 
  6 active torsions:
  status: ('A' for Active; 'I' for Inactive)
    1  A    between atoms: C_4  and  N_13
    2  A    between atoms: C_7  and  C_15
    3  A    between atoms: C_8  and  C_12
    4  A    between atoms: N_13  and  C_27
    5  A    between atoms: C_16  and  C_30
    6  A    between atoms: C_27  and  C_30
                            x       y       z     vdW  Elec       q    Type
                         _______ _______ _______ _____ _____    ______ ____

>  <TORSDO>
F 6

$$$$
=
 OpenBabel10272413563D

 30 33  0  0  0  0  0  0  0  0999 V2000
  188.0710  178.0380  143.9200 N   0  0  0  0  0  0  0  0  0  0  0  0
  187.1640  178.0010  146.1960 C   0  0  0  0  0  0  0  0  0  0  0  0
  184.1760  178.6650  142.3260 C   0  0  0  0  0  3  0  0  0  0  0  0
  187.9910  178.4050  142.5080 C   0  0  0  0  0  0  0  0  0  0  0  0
  183.9800  178.7890  140.9490 C   0  0  0  0  0  3  0  0  0  0  0  0
  186.0830  178.1000  147.0750 C   0  0  0  0  0  3  0  0  0  0  0  0
  188.4030  177.7530  146.6850 F   0  0  0  0  0  0  0  0  0  0  0  0
  185.4690  178.5240  142.8550 C   0  0  0  0  0  0  0  0  0  0  0  0
  184.8000  178.3490  146.5830 C   0  0  0  0  0  3  0  0  0  0  0  0
  186.9650  178.1630  144.8190 C   0  0  0  0  0  0  0  0  0  0  0  0
  186.5760  178.4890  141.9760 C   0  0  0  0  0  0  0  0  0  0  0  0
  185.0760  178.7830  140.0860 C   0  0  0  0  0  3  0  0  0  0  0  0
  186.3670  178.6430  140.5970 C   0  0  0  0  0  3  0  0  0  0  0  0
  184.5960  178.4970  145.2100 C   0  0  0  0  0  3  0  0  0  0  0  0
  185.6740  178.4030  144.3160 C   0  0  0  0  0  0  0  0  0  0  0  0
  190.3620  175.7570  141.6340 O   0  0  0  0  0  0  0  0  0  0  0  0
  189.9920  176.8040  142.2310 C   0  0  0  0  0  0  0  0  0  0  0  0
  188.8740  177.5550  141.7040 N   0  0  0  0  0  0  0  0  0  0  0  0
  191.4660  178.3660  143.5720 C   0  0  0  0  0  3  0  0  0  0  0  0
  190.7350  176.5330  144.6050 N   0  0  0  0  0  0  0  0  0  0  0  0
  190.7270  177.2100  143.4460 C   0  0  0  0  0  0  0  0  0  0  0  0
  191.9550  178.4010  144.8250 N   0  0  0  0  0  2  0  0  0  0  0  0
  191.4970  177.2820  145.4230 C   0  0  0  0  0  3  0  0  0  0  0  0
  188.4830  177.3680  140.3120 C   0  0  0  0  0  2  0  0  0  0  0  0
  189.4880  178.0430  139.3920 C   0  0  0  0  0  2  0  0  0  0  0  0
  191.3280  176.6280  138.6060 C   0  0  0  0  0  3  0  0  0  0  0  0
  190.0790  177.0510  138.4510 C   0  0  0  0  0  3  0  0  0  0  0  0
  192.7510  176.0640  136.6510 O   0  0  0  0  0  0  0  0  0  0  0  0
  191.9240  175.6530  137.6900 C   0  0  0  0  0  0  0  0  0  0  0  0
  191.6840  174.4280  137.8470 O   0  0  0  0  0  1  0  0  0  0  0  0
  1 10  1  0  0  0  0
  2  7  1  0  0  0  0
  2  6  1  0  0  0  0
  3  8  1  0  0  0  0
  4  1  2  0  0  0  0
  5  3  2  0  0  0  0
  8 15  1  0  0  0  0
  9  6  2  0  0  0  0
 10  2  2  0  0  0  0
 11  4  1  0  0  0  0
 11  8  2  0  0  0  0
 12 13  2  0  0  0  0
 12  5  1  0  0  0  0
 13 11  1  0  0  0  0
 14  9  1  0  0  0  0
 15 10  1  0  0  0  0
 15 14  2  0  0  0  0
 16 17  2  0  0  0  0
 17 21  1  0  0  0  0
 18 17  1  0  0  0  0
 18  4  1  0  0  0  0
 19 22  1  0  0  0  0
 20 23  2  0  0  0  0
 21 19  2  0  0  0  0
 21 20  1  0  0  0  0
 22 23  1  0  0  0  0
 24 18  1  0  0  0  0
 25 24  1  0  0  0  0
 27 26  2  0  0  0  0
 27 25  1  0  0  0  0
 28 29  2  0  0  0  0
 29 30  1  0  0  0  0
 29 26  1  0  0  0  0
M  END
>  <MODEL>
4

>  <REMARK>
 VINA RESULT:      -8.4      2.818      6.047
  Name = 
  6 active torsions:
  status: ('A' for Active; 'I' for Inactive)
    1  A    between atoms: C_4  and  N_13
    2  A    between atoms: C_7  and  C_15
    3  A    between atoms: C_8  and  C_12
    4  A    between atoms: N_13  and  C_27
    5  A    between atoms: C_16  and  C_30
    6  A    between atoms: C_27  and  C_30
                            x       y       z     vdW  Elec       q    Type
                         _______ _______ _______ _____ _____    ______ ____

>  <TORSDO>
F 6

$$$$
=
 OpenBabel10272413563D

 30 33  0  0  0  0  0  0  0  0999 V2000
  188.1490  178.0380  143.9410 N   0  0  0  0  0  0  0  0  0  0  0  0
  187.2310  177.9690  146.2120 C   0  0  0  0  0  0  0  0  0  0  0  0
  184.2570  178.6410  142.3340 C   0  0  0  0  0  3  0  0  0  0  0  0
  188.0720  178.4180  142.5320 C   0  0  0  0  0  0  0  0  0  0  0  0
  184.0660  178.7770  140.9570 C   0  0  0  0  0  3  0  0  0  0  0  0
  186.1450  178.0480  147.0870 C   0  0  0  0  0  3  0  0  0  0  0  0
  188.4710  177.7280  146.7060 F   0  0  0  0  0  0  0  0  0  0  0  0
  185.5480  178.5080  142.8670 C   0  0  0  0  0  0  0  0  0  0  0  0
  184.8610  178.2880  146.5910 C   0  0  0  0  0  3  0  0  0  0  0  0
  187.0380  178.1430  144.8360 C   0  0  0  0  0  0  0  0  0  0  0  0
  186.6590  178.4940  141.9940 C   0  0  0  0  0  0  0  0  0  0  0  0
  185.1660  178.7910  140.0990 C   0  0  0  0  0  3  0  0  0  0  0  0
  186.4560  178.6590  140.6160 C   0  0  0  0  0  3  0  0  0  0  0  0
  184.6630  178.4490  145.2180 C   0  0  0  0  0  3  0  0  0  0  0  0
  185.7470  178.3740  144.3280 C   0  0  0  0  0  0  0  0  0  0  0  0
  190.4640  175.7930  141.6410 O   0  0  0  0  0  0  0  0  0  0  0  0
  190.0830  176.8290  142.2520 C   0  0  0  0  0  0  0  0  0  0  0  0
  188.9680  177.5850  141.7240 N   0  0  0  0  0  0  0  0  0  0  0  0
  191.4950  178.3930  143.6550 C   0  0  0  0  0  3  0  0  0  0  0  0
  190.8350  176.4950  144.6150 N   0  0  0  0  0  0  0  0  0  0  0  0
  190.8020  177.2160  143.4830 C   0  0  0  0  0  0  0  0  0  0  0  0
  191.9820  178.3990  144.9090 N   0  0  0  0  0  2  0  0  0  0  0  0
  191.5680  177.2410  145.4630 C   0  0  0  0  0  3  0  0  0  0  0  0
  188.5950  177.4210  140.3250 C   0  0  0  0  0  2  0  0  0  0  0  0
  189.6590  178.0310  139.4260 C   0  0  0  0  0  2  0  0  0  0  0  0
  188.3710  178.2550  137.3530 C   0  0  0  0  0  3  0  0  0  0  0  0
  189.3870  177.6970  138.0000 C   0  0  0  0  0  3  0  0  0  0  0  0
  189.1110  177.5630  135.0870 O   0  0  0  0  0  0  0  0  0  0  0  0
  188.0890  177.9370  135.9520 C   0  0  0  0  0  0  0  0  0  0  0  0
  186.9060  178.0030  135.5270 O   0  0  0  0  0  1  0  0  0  0  0  0
  1 10  1  0  0  0  0
  2  7  1  0  0  0  0
  2  6  1  0  0  0  0
  3  8  1  0  0  0  0
  4  1  2  0  0  0  0
  5  3  2  0  0  0  0
  8 15  1  0  0  0  0
  9  6  2  0  0  0  0
 10  2  2  0  0  0  0
 11  4  1  0  0  0  0
 11  8  2  0  0  0  0
 12 13  2  0  0  0  0
 12  5  1  0  0  0  0
 13 11  1  0  0  0  0
 14  9  1  0  0  0  0
 15 10  1  0  0  0  0
 15 14  2  0  0  0  0
 16 17  2  0  0  0  0
 17 21  1  0  0  0  0
 18 17  1  0  0  0  0
 18  4  1  0  0  0  0
 19 22  1  0  0  0  0
 20 23  2  0  0  0  0
 21 19  2  0  0  0  0
 21 20  1  0  0  0  0
 22 23  1  0  0  0  0
 24 18  1  0  0  0  0
 25 24  1  0  0  0  0
 26 27  2  0  0  0  0
 27 25  1  0  0  0  0
 28 29  2  0  0  0  0
 29 26  1  0  0  0  0
 30 29  1  0  0  0  0
M  END
>  <MODEL>
5

>  <REMARK>
 VINA RESULT:      -8.4      2.956      6.774
  Name = 
  6 active torsions:
  status: ('A' for Active; 'I' for Inactive)
    1  A    between atoms: C_4  and  N_13
    2  A    between atoms: C_7  and  C_15
    3  A    between atoms: C_8  and  C_12
    4  A    between atoms: N_13  and  C_27
    5  A    between atoms: C_16  and  C_30
    6  A    between atoms: C_27  and  C_30
                            x       y       z     vdW  Elec       q    Type
                         _______ _______ _______ _____ _____    ______ ____

>  <TORSDO>
F 6

$$$$
=
 OpenBabel10272413563D

 30 33  0  0  0  0  0  0  0  0999 V2000
  185.5660  178.3300  143.3870 N   0  0  0  0  0  0  0  0  0  0  0  0
  184.9410  178.8500  145.6980 C   0  0  0  0  0  0  0  0  0  0  0  0
  189.3740  176.9410  144.6780 C   0  0  0  0  0  3  0  0  0  0  0  0
  186.3730  177.6130  142.4010 C   0  0  0  0  0  0  0  0  0  0  0  0
  190.3060  176.4550  143.7590 C   0  0  0  0  0  3  0  0  0  0  0  0
  185.2390  178.8700  147.0630 C   0  0  0  0  0  3  0  0  0  0  0  0
  183.7510  179.3350  145.2660 F   0  0  0  0  0  0  0  0  0  0  0  0
  188.0950  177.3380  144.2580 C   0  0  0  0  0  0  0  0  0  0  0  0
  186.4640  178.3800  147.5200 C   0  0  0  0  0  3  0  0  0  0  0  0
  185.8660  178.3270  144.7850 C   0  0  0  0  0  0  0  0  0  0  0  0
  187.7620  177.2580  142.8870 C   0  0  0  0  0  0  0  0  0  0  0  0
  189.9660  176.3510  142.4100 C   0  0  0  0  0  3  0  0  0  0  0  0
  188.6980  176.7420  141.9780 C   0  0  0  0  0  3  0  0  0  0  0  0
  187.3950  177.8700  146.6110 C   0  0  0  0  0  3  0  0  0  0  0  0
  187.1060  177.8420  145.2370 C   0  0  0  0  0  0  0  0  0  0  0  0
  185.2650  179.8050  139.6860 O   0  0  0  0  0  0  0  0  0  0  0  0
  185.1670  178.8210  140.4690 C   0  0  0  0  0  0  0  0  0  0  0  0
  186.3590  178.3160  141.1150 N   0  0  0  0  0  0  0  0  0  0  0  0
  182.8670  178.7480  141.5260 C   0  0  0  0  0  3  0  0  0  0  0  0
  183.3530  177.1480  140.0550 N   0  0  0  0  0  0  0  0  0  0  0  0
  183.8290  178.2340  140.6850 C   0  0  0  0  0  0  0  0  0  0  0  0
  181.7800  177.9620  141.4310 N   0  0  0  0  0  2  0  0  0  0  0  0
  182.1040  177.0050  140.5370 C   0  0  0  0  0  3  0  0  0  0  0  0
  187.6640  178.6310  140.5470 C   0  0  0  0  0  2  0  0  0  0  0  0
  187.6900  178.2800  139.0680 C   0  0  0  0  0  2  0  0  0  0  0  0
  189.2630  176.4960  138.4780 C   0  0  0  0  0  3  0  0  0  0  0  0
  189.0410  177.7890  138.6750 C   0  0  0  0  0  3  0  0  0  0  0  0
  191.5400  176.8530  137.5540 O   0  0  0  0  0  0  0  0  0  0  0  0
  190.5850  175.9970  138.0920 C   0  0  0  0  0  0  0  0  0  0  0  0
  190.8590  174.7800  138.2500 O   0  0  0  0  0  1  0  0  0  0  0  0
  1 10  1  0  0  0  0
  2  6  1  0  0  0  0
  4 11  1  0  0  0  0
  4  1  2  0  0  0  0
  5  3  2  0  0  0  0
  6  9  2  0  0  0  0
  7  2  1  0  0  0  0
  8  3  1  0  0  0  0
  8 15  1  0  0  0  0
 10 15  1  0  0  0  0
 10  2  2  0  0  0  0
 11  8  2  0  0  0  0
 12  5  1  0  0  0  0
 13 12  2  0  0  0  0
 13 11  1  0  0  0  0
 14  9  1  0  0  0  0
 15 14  2  0  0  0  0
 16 17  2  0  0  0  0
 17 21  1  0  0  0  0
 17 18  1  0  0  0  0
 18  4  1  0  0  0  0
 20 23  2  0  0  0  0
 20 21  1  0  0  0  0
 21 19  2  0  0  0  0
 22 19  1  0  0  0  0
 23 22  1  0  0  0  0
 24 18  1  0  0  0  0
 25 24  1  0  0  0  0
 26 27  2  0  0  0  0
 27 25  1  0  0  0  0
 28 29  2  0  0  0  0
 29 30  1  0  0  0  0
 29 26  1  0  0  0  0
M  END
>  <MODEL>
6

>  <REMARK>
 VINA RESULT:      -8.2      3.768      6.131
  Name = 
  6 active torsions:
  status: ('A' for Active; 'I' for Inactive)
    1  A    between atoms: C_4  and  N_13
    2  A    between atoms: C_7  and  C_15
    3  A    between atoms: C_8  and  C_12
    4  A    between atoms: N_13  and  C_27
    5  A    between atoms: C_16  and  C_30
    6  A    between atoms: C_27  and  C_30
                            x       y       z     vdW  Elec       q    Type
                         _______ _______ _______ _____ _____    ______ ____

>  <TORSDO>
F 6

$$$$
=
 OpenBabel10272413563D

 30 33  0  0  1  0  0  0  0  0999 V2000
  185.7440  178.1650  141.4130 N   0  0  0  0  0  0  0  0  0  0  0  0
  183.3970  178.8490  141.5660 C   0  0  0  0  0  0  0  0  0  0  0  0
  186.0500  178.0920  145.6550 C   0  0  0  0  0  3  0  0  0  0  0  0
  186.9460  177.5510  141.9740 C   0  0  0  0  0  0  0  0  0  0  0  0
  187.2500  177.7420  146.2780 C   0  0  0  0  0  3  0  0  0  0  0  0
  182.2690  179.1640  142.3290 C   0  0  0  0  0  3  0  0  0  0  0  0
  183.3280  178.9160  140.2140 F   0  0  0  0  0  0  0  0  0  0  0  0
  185.9320  178.0520  144.2570 C   0  0  0  0  0  0  0  0  0  0  0  0
  182.3290  179.1060  143.7230 C   0  0  0  0  0  3  0  0  0  0  0  0
  184.5860  178.4640  142.1970 C   0  0  0  0  0  0  0  0  0  0  0  0
  187.0490  177.6710  143.4790 C   0  0  0  0  0  0  0  0  0  0  0  0
  188.3430  177.3390  145.5100 C   0  0  0  0  0  3  0  0  0  0  0  0
  188.2400  177.2950  144.1190 C   0  0  0  0  0  3  0  0  0  0  0  0
  183.5170  178.7350  144.3560 C   0  0  0  0  0  3  0  0  0  0  0  0
  184.6560  178.4140  143.6000 C   0  0  0  0  0  0  0  0  0  0  0  0
  189.0350  179.2440  139.4900 O   0  0  0  0  0  0  0  0  0  0  0  0
  188.1620  178.4190  139.8730 C   0  0  0  0  0  0  0  0  0  0  0  0
  188.1410  178.0120  141.2610 N   0  0  0  0  0  0  0  0  0  0  0  0
  187.3600  176.7500  138.1450 C   0  0  0  0  0  3  0  0  0  0  0  0
  186.0210  178.4770  138.5790 N   0  0  0  0  0  0  0  0  0  0  0  0
  187.2010  177.9080  138.8740 C   0  0  1  0  0  3  0  0  0  0  0  0
  186.2700  176.6030  137.3710 N   0  0  0  0  0  0  0  0  0  0  0  0
  185.4810  177.6600  137.6540 C   0  0  0  0  0  3  0  0  0  0  0  0
  189.3360  178.1930  142.0740 C   0  0  0  0  0  2  0  0  0  0  0  0
  190.4560  177.2980  141.5650 C   0  0  0  0  0  2  0  0  0  0  0  0
  191.0070  175.8270  143.4450 C   0  0  0  0  0  3  0  0  0  0  0  0
  191.3310  176.8700  142.6920 C   0  0  0  0  0  3  0  0  0  0  0  0
  191.9800  176.1700  145.7040 O   0  0  0  0  0  1  0  0  0  0  0  0
  191.8560  175.3930  144.5570 C   0  0  0  0  0  0  0  0  0  0  0  0
  192.4800  174.3040  144.4720 O   0  0  0  0  0  0  0  0  0  0  0  0
  1  4  2  0  0  0  0
  1 10  1  0  0  0  0
  2 10  2  0  0  0  0
  2  6  1  0  0  0  0
  3  5  1  0  0  0  0
  4 11  1  0  0  0  0
  6  9  2  0  0  0  0
  7  2  1  0  0  0  0
  8  3  2  0  0  0  0
  9 14  1  0  0  0  0
 10 15  1  0  0  0  0
 11 13  2  0  0  0  0
 11  8  1  0  0  0  0
 12  5  2  0  0  0  0
 13 12  1  0  0  0  0
 15  8  1  0  0  0  0
 15 14  2  0  0  0  0
 16 17  2  0  0  0  0
 17 18  1  0  0  0  0
 18  4  1  0  0  0  0
 18 24  1  0  0  0  0
 19 21  1  0  0  0  0
 20 21  1  0  0  0  0
 21 17  1  1  0  0  0
 22 23  1  0  0  0  0
 22 19  2  0  0  0  0
 23 20  2  0  0  0  0
 25 24  1  0  0  0  0
 25 27  1  0  0  0  0
 26 29  1  0  0  0  0
 27 26  2  0  0  0  0
 29 28  1  0  0  0  0
 30 29  2  0  0  0  0
M  END
>  <MODEL>
7

>  <REMARK>
 VINA RESULT:      -8.2      2.111      3.169
  Name = 
  6 active torsions:
  status: ('A' for Active; 'I' for Inactive)
    1  A    between atoms: C_4  and  N_13
    2  A    between atoms: C_7  and  C_15
    3  A    between atoms: C_8  and  C_12
    4  A    between atoms: N_13  and  C_27
    5  A    between atoms: C_16  and  C_30
    6  A    between atoms: C_27  and  C_30
                            x       y       z     vdW  Elec       q    Type
                         _______ _______ _______ _____ _____    ______ ____

>  <TORSDO>
F 6

$$$$
=
 OpenBabel10272413563D

 30 33  0  0  1  0  0  0  0  0999 V2000
  186.3630  178.0490  141.7290 N   0  0  0  0  0  0  0  0  0  0  0  0
  184.1930  178.7960  142.5860 C   0  0  0  0  0  0  0  0  0  0  0  0
  187.8670  177.7120  145.6940 C   0  0  0  0  0  3  0  0  0  0  0  0
  187.6440  177.3650  141.8890 C   0  0  0  0  0  0  0  0  0  0  0  0
  189.1770  177.2870  145.9270 C   0  0  0  0  0  3  0  0  0  0  0  0
  183.3470  179.1000  143.6560 C   0  0  0  0  0  3  0  0  0  0  0  0
  183.7430  178.9460  141.3160 F   0  0  0  0  0  0  0  0  0  0  0  0
  187.3520  177.7600  144.3890 C   0  0  0  0  0  0  0  0  0  0  0  0
  183.8010  178.9570  144.9690 C   0  0  0  0  0  3  0  0  0  0  0  0
  185.4930  178.3360  142.8270 C   0  0  0  0  0  0  0  0  0  0  0  0
  188.1800  177.3900  143.3050 C   0  0  0  0  0  0  0  0  0  0  0  0
  189.9830  176.8960  144.8580 C   0  0  0  0  0  3  0  0  0  0  0  0
  189.4840  176.9390  143.5550 C   0  0  0  0  0  3  0  0  0  0  0  0
  185.1010  178.5110  145.2140 C   0  0  0  0  0  3  0  0  0  0  0  0
  185.9600  178.2000  144.1470 C   0  0  0  0  0  0  0  0  0  0  0  0
  189.0320  179.1920  139.0360 O   0  0  0  0  0  0  0  0  0  0  0  0
  188.2450  178.3820  139.5980 C   0  0  0  0  0  0  0  0  0  0  0  0
  188.6060  177.8300  140.8850 N   0  0  0  0  0  0  0  0  0  0  0  0
  186.8030  176.9330  138.1040 C   0  0  0  0  0  3  0  0  0  0  0  0
  185.8410  178.7320  138.9980 N   0  0  0  0  0  0  0  0  0  0  0  0
  186.9870  178.0390  138.9040 C   0  0  1  0  0  3  0  0  0  0  0  0
  185.5260  176.9450  137.6800 N   0  0  0  0  0  0  0  0  0  0  0  0
  184.9710  178.0420  138.2360 C   0  0  0  0  0  3  0  0  0  0  0  0
  190.0020  177.8520  141.3030 C   0  0  0  0  0  2  0  0  0  0  0  0
  190.6940  176.5650  140.8820 C   0  0  0  0  0  2  0  0  0  0  0  0
  191.3650  176.1870  138.5560 C   0  0  0  0  0  3  0  0  0  0  0  0
  191.5760  176.8120  139.7080 C   0  0  0  0  0  3  0  0  0  0  0  0
  193.5130  176.9130  137.5450 O   0  0  0  0  0  1  0  0  0  0  0  0
  192.2230  176.4180  137.3920 C   0  0  0  0  0  0  0  0  0  0  0  0
  191.7870  176.1630  136.2390 O   0  0  0  0  0  0  0  0  0  0  0  0
  1  4  2  0  0  0  0
  1 10  1  0  0  0  0
  2 10  2  0  0  0  0
  2  6  1  0  0  0  0
  3  5  1  0  0  0  0
  4 11  1  0  0  0  0
  6  9  2  0  0  0  0
  7  2  1  0  0  0  0
  8  3  2  0  0  0  0
  9 14  1  0  0  0  0
 10 15  1  0  0  0  0
 11 13  2  0  0  0  0
 11  8  1  0  0  0  0
 12  5  2  0  0  0  0
 13 12  1  0  0  0  0
 15  8  1  0  0  0  0
 15 14  2  0  0  0  0
 16 17  2  0  0  0  0
 17 18  1  0  0  0  0
 18 24  1  0  0  0  0
 18  4  1  0  0  0  0
 19 21  1  0  0  0  0
 21 20  1  0  0  0  0
 21 17  1  1  0  0  0
 22 19  2  0  0  0  0
 22 23  1  0  0  0  0
 23 20  2  0  0  0  0
 25 24  1  0  0  0  0
 26 27  2  0  0  0  0
 27 25  1  0  0  0  0
 29 28  1  0  0  0  0
 29 26  1  0  0  0  0
 30 29  2  0  0  0  0
M  END
>  <MODEL>
8

>  <REMARK>
 VINA RESULT:      -8.2      3.574      5.099
  Name = 
  6 active torsions:
  status: ('A' for Active; 'I' for Inactive)
    1  A    between atoms: C_4  and  N_13
    2  A    between atoms: C_7  and  C_15
    3  A    between atoms: C_8  and  C_12
    4  A    between atoms: N_13  and  C_27
    5  A    between atoms: C_16  and  C_30
    6  A    between atoms: C_27  and  C_30
                            x       y       z     vdW  Elec       q    Type
                         _______ _______ _______ _____ _____    ______ ____

>  <TORSDO>
F 6

$$$$
=
 OpenBabel10272413563D

 30 33  0  0  1  0  0  0  0  0999 V2000
  184.5960  178.3770  140.9810 N   0  0  0  0  0  0  0  0  0  0  0  0
  186.4200  178.1180  142.5960 C   0  0  0  0  0  0  0  0  0  0  0  0
  181.7740  178.7070  144.1470 C   0  0  0  0  0  3  0  0  0  0  0  0
  183.2500  178.8150  140.6180 C   0  0  0  0  0  0  0  0  0  0  0  0
  180.4160  178.8920  143.8770 C   0  0  0  0  0  3  0  0  0  0  0  0
  186.8760  178.0570  143.9150 C   0  0  0  0  0  3  0  0  0  0  0  0
  187.3000  177.9650  141.5770 F   0  0  0  0  0  0  0  0  0  0  0  0
  182.7110  178.6640  143.1030 C   0  0  0  0  0  0  0  0  0  0  0  0
  185.9780  178.2060  144.9750 C   0  0  0  0  0  3  0  0  0  0  0  0
  185.0620  178.3390  142.3330 C   0  0  0  0  0  0  0  0  0  0  0  0
  182.2660  178.7900  141.7680 C   0  0  0  0  0  0  0  0  0  0  0  0
  179.9820  179.0440  142.5600 C   0  0  0  0  0  3  0  0  0  0  0  0
  180.9030  179.0030  141.5130 C   0  0  0  0  0  3  0  0  0  0  0  0
  184.6210  178.4140  144.7160 C   0  0  0  0  0  3  0  0  0  0  0  0
  184.1510  178.4790  143.3940 C   0  0  0  0  0  0  0  0  0  0  0  0
  182.3800  178.1540  137.1240 O   0  0  0  0  0  0  0  0  0  0  0  0
  182.2800  178.7500  138.2300 C   0  0  0  0  0  0  0  0  0  0  0  0
  182.7810  178.1050  139.4240 N   0  0  0  0  0  0  0  0  0  0  0  0
  180.3040  180.3270  138.0840 C   0  0  0  0  0  3  0  0  0  0  0  0
  182.2990  181.2410  138.4690 N   0  0  0  0  0  0  0  0  0  0  0  0
  181.6510  180.0860  138.2460 C   0  0  1  0  0  3  0  0  0  0  0  0
  180.1120  181.6540  138.1920 N   0  0  0  0  0  0  0  0  0  0  0  0
  181.3330  182.1780  138.4240 C   0  0  0  0  0  3  0  0  0  0  0  0
  182.9780  176.6610  139.4240 C   0  0  0  0  0  2  0  0  0  0  0  0
  181.6450  175.9510  139.5960 C   0  0  0  0  0  2  0  0  0  0  0  0
  182.4190  174.6670  137.6580 C   0  0  0  0  0  3  0  0  0  0  0  0
  181.4360  174.9660  138.4980 C   0  0  0  0  0  3  0  0  0  0  0  0
  182.6040  172.3710  136.7300 O   0  0  0  0  0  1  0  0  0  0  0  0
  182.2300  173.7010  136.5730 C   0  0  0  0  0  0  0  0  0  0  0  0
  181.7220  174.0810  135.4860 O   0  0  0  0  0  0  0  0  0  0  0  0
  1 10  1  0  0  0  0
  2  6  1  0  0  0  0
  4  1  2  0  0  0  0
  4 11  1  0  0  0  0
  5  3  1  0  0  0  0
  6  9  2  0  0  0  0
  7  2  1  0  0  0  0
  8 15  1  0  0  0  0
  8  3  2  0  0  0  0
 10  2  2  0  0  0  0
 10 15  1  0  0  0  0
 11  8  1  0  0  0  0
 12  5  2  0  0  0  0
 13 11  2  0  0  0  0
 13 12  1  0  0  0  0
 14  9  1  0  0  0  0
 15 14  2  0  0  0  0
 16 17  2  0  0  0  0
 17 18  1  0  0  0  0
 18 24  1  0  0  0  0
 18  4  1  0  0  0  0
 19 22  2  0  0  0  0
 19 21  1  0  0  0  0
 21 17  1  1  0  0  0
 21 20  1  0  0  0  0
 22 23  1  0  0  0  0
 23 20  2  0  0  0  0
 24 25  1  0  0  0  0
 26 27  2  0  0  0  0
 27 25  1  0  0  0  0
 29 28  1  0  0  0  0
 29 26  1  0  0  0  0
 30 29  2  0  0  0  0
M  END
>  <MODEL>
9

>  <REMARK>
 VINA RESULT:      -8.1      5.841      9.231
  Name = 
  6 active torsions:
  status: ('A' for Active; 'I' for Inactive)
    1  A    between atoms: C_4  and  N_13
    2  A    between atoms: C_7  and  C_15
    3  A    between atoms: C_8  and  C_12
    4  A    between atoms: N_13  and  C_27
    5  A    between atoms: C_16  and  C_30
    6  A    between atoms: C_27  and  C_30
                            x       y       z     vdW  Elec       q    Type
                         _______ _______ _______ _____ _____    ______ ____

>  <TORSDO>
F 6

$$$$
