=
 OpenBabel10272413213D

 32 37  0  0  1  0  0  0  0  0999 V2000
  187.4240  177.4020  147.0350 O   0  0  0  0  0  0  0  0  0  0  0  0
  185.9550  178.6480  142.2240 C   0  0  1  0  0  3  0  0  0  0  0  0
  181.2290  178.9460  143.6210 C   0  0  0  0  0  3  0  0  0  0  0  0
  180.8140  178.5290  142.3590 C   0  0  0  0  0  3  0  0  0  0  0  0
  186.3700  178.3790  139.7690 C   0  0  0  0  0  0  0  0  0  0  0  0
  185.8590  178.1200  138.4260 C   0  0  0  0  0  0  0  0  0  0  0  0
  187.2990  177.7620  144.1470 C   0  0  1  0  0  3  0  0  0  0  0  0
  185.3410  179.3040  144.5950 C   0  0  0  0  0  2  0  0  0  0  0  0
  184.4190  177.6280  136.8220 N   0  0  0  0  0  0  0  0  0  0  0  0
  186.7240  178.4910  146.4970 C   0  0  0  0  0  2  0  0  0  0  0  0
  182.5870  179.1050  143.8900 C   0  0  0  0  0  3  0  0  0  0  0  0
  184.8660  178.9890  143.2050 C   0  0  0  0  0  0  0  0  0  0  0  0
  183.5590  178.8520  142.9040 C   0  0  0  0  0  0  0  0  0  0  0  0
  184.0320  178.1940  140.6290 C   0  0  0  0  0  0  0  0  0  0  0  0
  185.6190  177.7670  136.1030 N   0  0  0  0  0  0  0  0  0  0  0  0
  189.1210  177.1490  145.3020 C   0  0  0  0  0  2  0  0  0  0  0  0
  186.1610  178.1280  145.1260 C   0  0  2  0  0  3  0  0  0  0  0  0
  186.6140  178.1010  137.1380 C   0  0  0  0  0  3  0  0  0  0  0  0
  187.9980  176.6450  144.6250 O   0  0  0  0  0  0  0  0  0  0  0  0
  188.7750  177.6280  146.7230 C   0  0  2  0  0  3  0  0  0  0  0  0
  181.7600  178.2750  141.3670 C   0  0  0  0  0  3  0  0  0  0  0  0
  183.1380  178.4320  141.6120 C   0  0  0  0  0  0  0  0  0  0  0  0
  183.5570  177.7140  139.2640 C   0  0  0  0  0  2  0  0  0  0  0  0
  186.7390  177.4500  142.7580 C   0  0  0  0  0  2  0  0  0  0  0  0
  187.5980  178.6020  139.9470 O   0  0  0  0  0  0  0  0  0  0  0  0
  183.1580  177.2770  136.1930 C   0  0  0  0  0  1  0  0  0  0  0  0
  185.4480  178.3850  140.8740 N   0  0  0  0  0  0  0  0  0  0  0  0
  184.6050  177.8560  138.2000 C   0  0  0  0  0  0  0  0  0  0  0  0
  189.6680  176.9160  147.7260 C   0  0  0  0  0  2  0  0  0  0  0  0
  191.0050  176.6370  147.1300 C   0  0  0  0  0  0  0  0  0  0  0  0
  191.6320  177.5980  146.3500 O   0  0  0  0  0  0  0  0  0  0  0  0
  191.5780  175.5410  147.3590 O   0  0  0  0  0  1  0  0  0  0  0  0
  2 24  1  1  0  0  0
  2 12  1  0  0  0  0
  3 11  2  0  0  0  0
  4  3  1  0  0  0  0
  5 25  2  0  0  0  0
  5 27  1  0  0  0  0
  6  5  1  0  0  0  0
  7 24  1  6  0  0  0
  7 19  1  0  0  0  0
  7 17  1  0  0  0  0
  9 28  1  0  0  0  0
 10  1  1  0  0  0  0
 12  8  1  0  0  0  0
 13 12  2  0  0  0  0
 13 11  1  0  0  0  0
 14 27  1  0  0  0  0
 14 22  2  0  0  0  0
 15  9  1  0  0  0  0
 15 18  2  0  0  0  0
 16 20  1  0  0  0  0
 17  8  1  6  0  0  0
 17 10  1  0  0  0  0
 18  6  1  0  0  0  0
 19 16  1  0  0  0  0
 20  1  1  0  0  0  0
 20 29  1  1  0  0  0
 21 22  1  0  0  0  0
 21  4  2  0  0  0  0
 22 13  1  0  0  0  0
 23 14  1  0  0  0  0
 26  9  1  0  0  0  0
 27  2  1  0  0  0  0
 28  6  2  0  0  0  0
 28 23  1  0  0  0  0
 30 32  1  0  0  0  0
 30 29  1  0  0  0  0
 31 30  2  0  0  0  0
M  END
>  <MODEL>
1

>  <REMARK>
 VINA RESULT:      -9.9      0.000      0.000
  Name = 
  2 active torsions:
  status: ('A' for Active; 'I' for Inactive)
    1  A    between atoms: C_1  and  C_10
    2  A    between atoms: C_10  and  C_24
                            x       y       z     vdW  Elec       q    Type
                         _______ _______ _______ _____ _____    ______ ____

>  <TORSDO>
F 2

$$$$
=
 OpenBabel10272413213D

 32 37  0  0  1  0  0  0  0  0999 V2000
  186.5370  177.3160  146.3080 O   0  0  0  0  0  0  0  0  0  0  0  0
  186.6290  178.6530  141.3020 C   0  0  1  0  0  3  0  0  0  0  0  0
  181.6980  178.5540  141.0670 C   0  0  0  0  0  3  0  0  0  0  0  0
  181.7550  178.1610  139.7320 C   0  0  0  0  0  3  0  0  0  0  0  0
  187.8450  178.5160  139.1170 C   0  0  0  0  0  0  0  0  0  0  0  0
  187.8250  178.2780  137.6760 C   0  0  0  0  0  0  0  0  0  0  0  0
  187.3370  177.7860  143.5460 C   0  0  1  0  0  3  0  0  0  0  0  0
  185.2210  179.1640  143.3480 C   0  0  0  0  0  2  0  0  0  0  0  0
  187.0350  177.7510  135.6800 N   0  0  0  0  0  0  0  0  0  0  0  0
  185.9660  178.3730  145.5860 C   0  0  0  0  0  2  0  0  0  0  0  0
  182.8760  178.7980  141.7710 C   0  0  0  0  0  3  0  0  0  0  0  0
  185.2550  178.8740  141.8740 C   0  0  0  0  0  0  0  0  0  0  0  0
  184.1340  178.6560  141.1570 C   0  0  0  0  0  0  0  0  0  0  0  0
  185.3780  178.1290  139.1540 C   0  0  0  0  0  0  0  0  0  0  0  0
  188.3880  178.0060  135.3990 N   0  0  0  0  0  0  0  0  0  0  0  0
  188.7230  177.2570  145.2280 C   0  0  0  0  0  2  0  0  0  0  0  0
  185.9150  178.0280  144.1000 C   0  0  2  0  0  3  0  0  0  0  0  0
  188.9590  178.3660  136.7090 C   0  0  0  0  0  3  0  0  0  0  0  0
  187.9280  176.7020  144.2100 O   0  0  0  0  0  0  0  0  0  0  0  0
  187.8930  177.6500  146.4620 C   0  0  2  0  0  3  0  0  0  0  0  0
  182.9910  178.0170  139.1030 C   0  0  0  0  0  3  0  0  0  0  0  0
  184.1950  178.2620  139.7920 C   0  0  0  0  0  0  0  0  0  0  0  0
  185.4160  177.6740  137.7020 C   0  0  0  0  0  2  0  0  0  0  0  0
  187.2900  177.4920  142.0450 C   0  0  0  0  0  2  0  0  0  0  0  0
  188.9250  178.8190  139.6930 O   0  0  0  0  0  0  0  0  0  0  0  0
  186.0820  177.3380  134.6650 C   0  0  0  0  0  1  0  0  0  0  0  0
  186.6150  178.4110  139.8560 N   0  0  0  0  0  0  0  0  0  0  0  0
  186.7400  177.9340  137.0450 C   0  0  0  0  0  0  0  0  0  0  0  0
  188.4630  176.9630  147.6910 C   0  0  0  0  0  2  0  0  0  0  0  0
  189.6910  177.6640  148.1610 C   0  0  0  0  0  0  0  0  0  0  0  0
  190.9440  177.1620  147.8380 O   0  0  0  0  0  0  0  0  0  0  0  0
  189.5920  178.7280  148.8260 O   0  0  0  0  0  1  0  0  0  0  0  0
  1 20  1  0  0  0  0
  2 12  1  0  0  0  0
  2 24  1  1  0  0  0
  3 11  2  0  0  0  0
  4  3  1  0  0  0  0
  5 25  2  0  0  0  0
  5 27  1  0  0  0  0
  6  5  1  0  0  0  0
  7 24  1  6  0  0  0
  7 17  1  0  0  0  0
  7 19  1  0  0  0  0
  9 28  1  0  0  0  0
 10  1  1  0  0  0  0
 12  8  1  0  0  0  0
 13 11  1  0  0  0  0
 13 12  2  0  0  0  0
 14 22  2  0  0  0  0
 14 27  1  0  0  0  0
 15  9  1  0  0  0  0
 15 18  2  0  0  0  0
 16 20  1  0  0  0  0
 17  8  1  6  0  0  0
 17 10  1  0  0  0  0
 18  6  1  0  0  0  0
 19 16  1  0  0  0  0
 20 29  1  1  0  0  0
 21  4  2  0  0  0  0
 21 22  1  0  0  0  0
 22 13  1  0  0  0  0
 23 14  1  0  0  0  0
 26  9  1  0  0  0  0
 27  2  1  0  0  0  0
 28  6  2  0  0  0  0
 28 23  1  0  0  0  0
 29 30  1  0  0  0  0
 30 32  1  0  0  0  0
 31 30  2  0  0  0  0
M  END
>  <MODEL>
2

>  <REMARK>
 VINA RESULT:      -9.4      1.373      2.014
  Name = 
  2 active torsions:
  status: ('A' for Active; 'I' for Inactive)
    1  A    between atoms: C_1  and  C_10
    2  A    between atoms: C_10  and  C_24
                            x       y       z     vdW  Elec       q    Type
                         _______ _______ _______ _____ _____    ______ ____

>  <TORSDO>
F 2

$$$$
=
 OpenBabel10272413213D

 32 37  0  0  1  0  0  0  0  0999 V2000
  192.6050  175.7650  138.5220 O   0  0  0  0  0  0  0  0  0  0  0  0
  189.0360  178.1000  141.4650 C   0  0  1  0  0  3  0  0  0  0  0  0
  191.6090  177.1220  145.5640 C   0  0  0  0  0  3  0  0  0  0  0  0
  190.4300  177.0310  146.2990 C   0  0  0  0  0  3  0  0  0  0  0  0
  186.6130  178.6500  141.7830 C   0  0  0  0  0  0  0  0  0  0  0  0
  185.4380  178.7150  142.6480 C   0  0  0  0  0  0  0  0  0  0  0  0
  190.1390  176.9380  139.5360 C   0  0  1  0  0  3  0  0  0  0  0  0
  191.5620  177.9020  141.3950 C   0  0  0  0  0  2  0  0  0  0  0  0
  184.1860  178.4730  144.4540 N   0  0  0  0  0  0  0  0  0  0  0  0
  192.6610  176.8210  139.4420 C   0  0  0  0  0  2  0  0  0  0  0  0
  191.5590  177.4330  144.2060 C   0  0  0  0  0  3  0  0  0  0  0  0
  190.3170  177.9350  142.2350 C   0  0  0  0  0  0  0  0  0  0  0  0
  190.3320  177.6620  143.5560 C   0  0  0  0  0  0  0  0  0  0  0  0
  187.9270  177.8040  143.7310 C   0  0  0  0  0  0  0  0  0  0  0  0
  183.2750  179.0300  143.5410 N   0  0  0  0  0  0  0  0  0  0  0  0
  190.5160  176.3450  137.4060 C   0  0  0  0  0  2  0  0  0  0  0  0
  191.4390  176.7870  140.3560 C   0  0  2  0  0  3  0  0  0  0  0  0
  184.0710  179.2130  142.3140 C   0  0  0  0  0  3  0  0  0  0  0  0
  190.0190  175.8730  138.6330 O   0  0  0  0  0  0  0  0  0  0  0  0
  192.0530  176.3110  137.3510 C   0  0  2  0  0  3  0  0  0  0  0  0
  189.2030  177.2560  145.6760 C   0  0  0  0  0  3  0  0  0  0  0  0
  189.1270  177.5760  144.3070 C   0  0  0  0  0  0  0  0  0  0  0  0
  186.6500  177.6740  144.5500 C   0  0  0  0  0  2  0  0  0  0  0  0
  188.9170  176.9570  140.4570 C   0  0  0  0  0  2  0  0  0  0  0  0
  186.5360  179.0250  140.5820 O   0  0  0  0  0  0  0  0  0  0  0  0
  183.8210  178.1050  145.8100 C   0  0  0  0  0  1  0  0  0  0  0  0
  187.8530  178.1630  142.3290 N   0  0  0  0  0  0  0  0  0  0  0  0
  185.4650  178.3100  143.8840 C   0  0  0  0  0  0  0  0  0  0  0  0
  192.4950  175.5050  136.1410 C   0  0  0  0  0  2  0  0  0  0  0  0
  193.9780  175.5420  136.0010 C   0  0  0  0  0  0  0  0  0  0  0  0
  194.6520  176.7540  136.0590 O   0  0  0  0  0  1  0  0  0  0  0  0
  194.6230  174.4700  135.8590 O   0  0  0  0  0  0  0  0  0  0  0  0
  1 10  1  0  0  0  0
  2 24  1  6  0  0  0
  2 12  1  0  0  0  0
  2 27  1  0  0  0  0
  3  4  1  0  0  0  0
  5 27  1  0  0  0  0
  5  6  1  0  0  0  0
  6 28  2  0  0  0  0
  7 17  1  0  0  0  0
  7 24  1  1  0  0  0
  8 12  1  0  0  0  0
  9 26  1  0  0  0  0
 11  3  2  0  0  0  0
 12 13  2  0  0  0  0
 13 11  1  0  0  0  0
 13 22  1  0  0  0  0
 14 22  2  0  0  0  0
 14 23  1  0  0  0  0
 15  9  1  0  0  0  0
 16 19  1  0  0  0  0
 17 10  1  6  0  0  0
 17  8  1  0  0  0  0
 18  6  1  0  0  0  0
 18 15  2  0  0  0  0
 19  7  1  0  0  0  0
 20 29  1  6  0  0  0
 20 16  1  0  0  0  0
 20  1  1  0  0  0  0
 21  4  2  0  0  0  0
 22 21  1  0  0  0  0
 25  5  2  0  0  0  0
 27 14  1  0  0  0  0
 28  9  1  0  0  0  0
 28 23  1  0  0  0  0
 30 31  1  0  0  0  0
 30 29  1  0  0  0  0
 32 30  2  0  0  0  0
M  END
>  <MODEL>
3

>  <REMARK>
 VINA RESULT:      -9.4      4.172      7.847
  Name = 
  2 active torsions:
  status: ('A' for Active; 'I' for Inactive)
    1  A    between atoms: C_1  and  C_10
    2  A    between atoms: C_10  and  C_24
                            x       y       z     vdW  Elec       q    Type
                         _______ _______ _______ _____ _____    ______ ____

>  <TORSDO>
F 2

$$$$
=
 OpenBabel10272413213D

 32 37  0  0  1  0  0  0  0  0999 V2000
  191.6660  176.0060  138.9520 O   0  0  0  0  0  0  0  0  0  0  0  0
  187.3100  178.4610  140.3120 C   0  0  1  0  0  3  0  0  0  0  0  0
  188.1320  177.5160  145.0880 C   0  0  0  0  0  3  0  0  0  0  0  0
  186.7620  177.4610  145.3280 C   0  0  0  0  0  3  0  0  0  0  0  0
  184.9590  179.0600  139.6900 C   0  0  0  0  0  0  0  0  0  0  0  0
  183.5480  179.1630  140.0500 C   0  0  0  0  0  0  0  0  0  0  0  0
  189.0290  177.2420  138.9520 C   0  0  1  0  0  3  0  0  0  0  0  0
  189.6720  178.2160  141.1980 C   0  0  0  0  0  2  0  0  0  0  0  0
  181.7040  178.9790  141.2550 N   0  0  0  0  0  0  0  0  0  0  0  0
  191.3980  177.0780  139.8140 C   0  0  0  0  0  2  0  0  0  0  0  0
  188.6030  177.8020  143.8070 C   0  0  0  0  0  3  0  0  0  0  0  0
  188.2050  178.2880  141.5090 C   0  0  0  0  0  0  0  0  0  0  0  0
  187.7160  178.0400  142.7410 C   0  0  0  0  0  0  0  0  0  0  0  0
  185.4250  178.2290  141.9990 C   0  0  0  0  0  0  0  0  0  0  0  0
  181.2160  179.5350  140.0610 N   0  0  0  0  0  0  0  0  0  0  0  0
  190.1630  176.6010  137.1260 C   0  0  0  0  0  2  0  0  0  0  0  0
  189.9220  177.0840  140.2020 C   0  0  2  0  0  3  0  0  0  0  0  0
  182.4180  179.6800  139.2210 C   0  0  0  0  0  3  0  0  0  0  0  0
  189.2310  176.1620  138.0820 O   0  0  0  0  0  0  0  0  0  0  0  0
  191.6080  176.5380  137.6530 C   0  0  2  0  0  3  0  0  0  0  0  0
  185.8650  177.6960  144.2860 C   0  0  0  0  0  3  0  0  0  0  0  0
  186.3160  177.9910  142.9850 C   0  0  0  0  0  0  0  0  0  0  0  0
  183.9310  178.1380  142.2790 C   0  0  0  0  0  2  0  0  0  0  0  0
  187.5510  177.3010  139.3460 C   0  0  0  0  0  2  0  0  0  0  0  0
  185.3470  179.4140  138.5440 O   0  0  0  0  0  0  0  0  0  0  0  0
  180.8470  178.6440  142.3790 C   0  0  0  0  0  1  0  0  0  0  0  0
  185.8910  178.5630  140.6670 N   0  0  0  0  0  0  0  0  0  0  0  0
  183.0980  178.7820  141.2100 C   0  0  0  0  0  0  0  0  0  0  0  0
  192.4520  175.7010  136.7070 C   0  0  0  0  0  2  0  0  0  0  0  0
  193.9000  175.9940  136.9000 C   0  0  0  0  0  0  0  0  0  0  0  0
  194.6090  175.3590  137.9100 O   0  0  0  0  0  1  0  0  0  0  0  0
  194.4880  176.7950  136.1280 O   0  0  0  0  0  0  0  0  0  0  0  0
  1 10  1  0  0  0  0
  2 24  1  6  0  0  0
  2 27  1  0  0  0  0
  2 12  1  0  0  0  0
  3  4  1  0  0  0  0
  5  6  1  0  0  0  0
  5 27  1  0  0  0  0
  6 28  2  0  0  0  0
  7 24  1  1  0  0  0
  7 17  1  0  0  0  0
  8 12  1  0  0  0  0
  9 26  1  0  0  0  0
 11  3  2  0  0  0  0
 12 13  2  0  0  0  0
 13 22  1  0  0  0  0
 13 11  1  0  0  0  0
 14 23  1  0  0  0  0
 14 22  2  0  0  0  0
 15  9  1  0  0  0  0
 16 20  1  0  0  0  0
 16 19  1  0  0  0  0
 17 10  1  6  0  0  0
 17  8  1  0  0  0  0
 18  6  1  0  0  0  0
 18 15  2  0  0  0  0
 19  7  1  0  0  0  0
 20 29  1  6  0  0  0
 20  1  1  0  0  0  0
 21  4  2  0  0  0  0
 22 21  1  0  0  0  0
 25  5  2  0  0  0  0
 27 14  1  0  0  0  0
 28  9  1  0  0  0  0
 28 23  1  0  0  0  0
 29 30  1  0  0  0  0
 30 31  1  0  0  0  0
 32 30  2  0  0  0  0
M  END
>  <MODEL>
4

>  <REMARK>
 VINA RESULT:      -9.2      3.691      6.446
  Name = 
  2 active torsions:
  status: ('A' for Active; 'I' for Inactive)
    1  A    between atoms: C_1  and  C_10
    2  A    between atoms: C_10  and  C_24
                            x       y       z     vdW  Elec       q    Type
                         _______ _______ _______ _____ _____    ______ ____

>  <TORSDO>
F 2

$$$$
=
 OpenBabel10272413213D

 32 37  0  0  1  0  0  0  0  0999 V2000
  186.1650  177.7110  144.2550 O   0  0  0  0  0  0  0  0  0  0  0  0
  189.4610  177.7090  140.2560 C   0  0  1  0  0  3  0  0  0  0  0  0
  185.7270  177.5640  137.0300 C   0  0  0  0  0  3  0  0  0  0  0  0
  186.5090  176.8400  136.1350 C   0  0  0  0  0  3  0  0  0  0  0  0
  191.7040  177.0090  139.3880 C   0  0  0  0  0  0  0  0  0  0  0  0
  192.5150  176.4070  138.3330 C   0  0  0  0  0  0  0  0  0  0  0  0
  188.5260  177.4500  142.5690 C   0  0  1  0  0  3  0  0  0  0  0  0
  187.2140  178.7340  140.8260 C   0  0  0  0  0  2  0  0  0  0  0  0
  193.0100  175.3850  136.4370 N   0  0  0  0  0  0  0  0  0  0  0  0
  186.3230  178.5470  143.1410 C   0  0  0  0  0  2  0  0  0  0  0  0
  186.2660  177.9790  138.2460 C   0  0  0  0  0  3  0  0  0  0  0  0
  188.0780  178.0740  139.7900 C   0  0  0  0  0  0  0  0  0  0  0  0
  187.5970  177.6800  138.5930 C   0  0  0  0  0  0  0  0  0  0  0  0
  189.6870  176.6510  137.9580 C   0  0  0  0  0  0  0  0  0  0  0  0
  194.2790  175.5550  137.0160 N   0  0  0  0  0  0  0  0  0  0  0  0
  188.5150  177.3700  144.8100 C   0  0  0  0  0  2  0  0  0  0  0  0
  187.1200  177.8300  142.0550 C   0  0  2  0  0  3  0  0  0  0  0  0
  193.9980  176.2400  138.2900 C   0  0  0  0  0  3  0  0  0  0  0  0
  188.4140  176.5730  143.6570 O   0  0  0  0  0  0  0  0  0  0  0  0
  187.1880  178.0710  145.1490 C   0  0  2  0  0  3  0  0  0  0  0  0
  187.8310  176.5350  136.4570 C   0  0  0  0  0  3  0  0  0  0  0  0
  188.4000  176.9470  137.6780 C   0  0  0  0  0  0  0  0  0  0  0  0
  190.5160  175.8360  136.9750 C   0  0  0  0  0  2  0  0  0  0  0  0
  189.3430  176.7780  141.4630 C   0  0  0  0  0  2  0  0  0  0  0  0
  192.2520  177.4480  140.4350 O   0  0  0  0  0  0  0  0  0  0  0  0
  192.8070  174.7250  135.1590 C   0  0  0  0  0  1  0  0  0  0  0  0
  190.2790  177.1020  139.2020 N   0  0  0  0  0  0  0  0  0  0  0  0
  191.9890  175.9140  137.2500 C   0  0  0  0  0  0  0  0  0  0  0  0
  186.7840  177.7230  146.5710 C   0  0  0  0  0  2  0  0  0  0  0  0
  185.7130  178.6410  147.0510 C   0  0  0  0  0  0  0  0  0  0  0  0
  184.3790  178.3320  146.8250 O   0  0  0  0  0  0  0  0  0  0  0  0
  186.0180  179.6830  147.6880 O   0  0  0  0  0  1  0  0  0  0  0  0
  1 20  1  0  0  0  0
  2 24  1  1  0  0  0
  3 11  2  0  0  0  0
  4 21  2  0  0  0  0
  4  3  1  0  0  0  0
  5 25  2  0  0  0  0
  6  5  1  0  0  0  0
  7 24  1  6  0  0  0
  7 19  1  0  0  0  0
  9 15  1  0  0  0  0
  9 28  1  0  0  0  0
 10  1  1  0  0  0  0
 11 13  1  0  0  0  0
 12  2  1  0  0  0  0
 12  8  1  0  0  0  0
 13 12  2  0  0  0  0
 14 27  1  0  0  0  0
 15 18  2  0  0  0  0
 16 20  1  0  0  0  0
 17  8  1  6  0  0  0
 17  7  1  0  0  0  0
 17 10  1  0  0  0  0
 18  6  1  0  0  0  0
 19 16  1  0  0  0  0
 20 29  1  1  0  0  0
 21 22  1  0  0  0  0
 22 14  2  0  0  0  0
 22 13  1  0  0  0  0
 23 28  1  0  0  0  0
 23 14  1  0  0  0  0
 26  9  1  0  0  0  0
 27  5  1  0  0  0  0
 27  2  1  0  0  0  0
 28  6  2  0  0  0  0
 29 30  1  0  0  0  0
 30 32  1  0  0  0  0
 31 30  2  0  0  0  0
M  END
>  <MODEL>
5

>  <REMARK>
 VINA RESULT:      -9.2      4.007      6.101
  Name = 
  2 active torsions:
  status: ('A' for Active; 'I' for Inactive)
    1  A    between atoms: C_1  and  C_10
    2  A    between atoms: C_10  and  C_24
                            x       y       z     vdW  Elec       q    Type
                         _______ _______ _______ _____ _____    ______ ____

>  <TORSDO>
F 2

$$$$
=
 OpenBabel10272413213D

 32 37  0  0  1  0  0  0  0  0999 V2000
  183.7680  179.2100  144.8280 O   0  0  0  0  0  0  0  0  0  0  0  0
  187.9300  177.1290  142.5470 C   0  0  1  0  0  3  0  0  0  0  0  0
  190.3900  177.0730  146.8280 C   0  0  0  0  0  3  0  0  0  0  0  0
  191.5940  177.2590  146.1550 C   0  0  0  0  0  3  0  0  0  0  0  0
  189.3180  176.9620  140.4690 C   0  0  0  0  0  0  0  0  0  0  0  0
  190.6290  176.9770  139.8240 C   0  0  0  0  0  0  0  0  0  0  0  0
  185.7630  178.3440  142.8900 C   0  0  1  0  0  3  0  0  0  0  0  0
  186.6960  176.9020  144.7500 C   0  0  0  0  0  2  0  0  0  0  0  0
  192.8190  177.1750  139.6010 N   0  0  0  0  0  0  0  0  0  0  0  0
  184.5060  178.0420  145.0610 C   0  0  0  0  0  2  0  0  0  0  0  0
  189.2000  176.9670  146.1090 C   0  0  0  0  0  3  0  0  0  0  0  0
  188.0180  176.9650  144.0400 C   0  0  0  0  0  0  0  0  0  0  0  0
  189.1900  177.0440  144.7030 C   0  0  0  0  0  0  0  0  0  0  0  0
  190.4620  177.2900  142.6660 C   0  0  0  0  0  0  0  0  0  0  0  0
  192.4140  176.9130  138.2810 N   0  0  0  0  0  0  0  0  0  0  0  0
  183.7330  179.1560  142.3900 C   0  0  0  0  0  2  0  0  0  0  0  0
  185.8860  178.1550  144.4180 C   0  0  2  0  0  3  0  0  0  0  0  0
  190.9510  176.7700  138.3820 C   0  0  0  0  0  3  0  0  0  0  0  0
  185.0700  179.5300  142.6110 O   0  0  0  0  0  0  0  0  0  0  0  0
  182.9670  178.9350  143.7060 C   0  0  2  0  0  3  0  0  0  0  0  0
  191.6070  177.3360  144.7630 C   0  0  0  0  0  3  0  0  0  0  0  0
  190.4190  177.2280  144.0140 C   0  0  0  0  0  0  0  0  0  0  0  0
  191.7880  177.5200  141.9530 C   0  0  0  0  0  2  0  0  0  0  0  0
  187.1470  178.4050  142.2390 C   0  0  0  0  0  2  0  0  0  0  0  0
  188.2770  176.7760  139.7830 O   0  0  0  0  0  0  0  0  0  0  0  0
  194.2040  177.4060  139.9710 C   0  0  0  0  0  1  0  0  0  0  0  0
  189.2430  177.1480  141.8950 N   0  0  0  0  0  0  0  0  0  0  0  0
  191.7260  177.1950  140.4890 C   0  0  0  0  0  0  0  0  0  0  0  0
  181.7290  179.8150  143.7210 C   0  0  0  0  0  2  0  0  0  0  0  0
  180.5300  179.0400  143.2940 C   0  0  0  0  0  0  0  0  0  0  0  0
  180.0120  179.2090  142.0180 O   0  0  0  0  0  0  0  0  0  0  0  0
  180.0060  178.2090  144.0800 O   0  0  0  0  0  1  0  0  0  0  0  0
  1 10  1  0  0  0  0
  2 24  1  1  0  0  0
  2 12  1  0  0  0  0
  4  3  1  0  0  0  0
  5 27  1  0  0  0  0
  6  5  1  0  0  0  0
  6 28  2  0  0  0  0
  7 24  1  6  0  0  0
  7 17  1  0  0  0  0
  9 26  1  0  0  0  0
  9 28  1  0  0  0  0
 11  3  2  0  0  0  0
 12 13  2  0  0  0  0
 12  8  1  0  0  0  0
 13 11  1  0  0  0  0
 14 22  2  0  0  0  0
 15 18  2  0  0  0  0
 15  9  1  0  0  0  0
 16 19  1  0  0  0  0
 16 20  1  0  0  0  0
 17  8  1  6  0  0  0
 17 10  1  0  0  0  0
 18  6  1  0  0  0  0
 19  7  1  0  0  0  0
 20 29  1  6  0  0  0
 20  1  1  0  0  0  0
 21  4  2  0  0  0  0
 22 13  1  0  0  0  0
 22 21  1  0  0  0  0
 23 14  1  0  0  0  0
 25  5  2  0  0  0  0
 27  2  1  0  0  0  0
 27 14  1  0  0  0  0
 28 23  1  0  0  0  0
 30 29  1  0  0  0  0
 30 32  1  0  0  0  0
 31 30  2  0  0  0  0
M  END
>  <MODEL>
6

>  <REMARK>
 VINA RESULT:      -9.0      3.881      7.314
  Name = 
  2 active torsions:
  status: ('A' for Active; 'I' for Inactive)
    1  A    between atoms: C_1  and  C_10
    2  A    between atoms: C_10  and  C_24
                            x       y       z     vdW  Elec       q    Type
                         _______ _______ _______ _____ _____    ______ ____

>  <TORSDO>
F 2

$$$$
=
 OpenBabel10272413213D

 32 37  0  0  1  0  0  0  0  0999 V2000
  182.3670  177.9830  138.3560 O   0  0  0  0  0  0  0  0  0  0  0  0
  185.5560  178.8080  142.3570 C   0  0  1  0  0  3  0  0  0  0  0  0
  189.4750  177.5080  139.6500 C   0  0  0  0  0  3  0  0  0  0  0  0
  190.1120  177.0120  140.7840 C   0  0  0  0  0  3  0  0  0  0  0  0
  185.8580  178.7540  144.8420 C   0  0  0  0  0  0  0  0  0  0  0  0
  186.6550  178.3780  146.0070 C   0  0  0  0  0  0  0  0  0  0  0  0
  183.4810  178.3590  141.0210 C   0  0  1  0  0  3  0  0  0  0  0  0
  185.5750  179.1630  139.8470 C   0  0  0  0  0  2  0  0  0  0  0  0
  188.3000  177.4860  147.1840 N   0  0  0  0  0  0  0  0  0  0  0  0
  183.4940  178.7960  138.5320 C   0  0  0  0  0  2  0  0  0  0  0  0
  188.2150  178.0940  139.7600 C   0  0  0  0  0  3  0  0  0  0  0  0
  186.3370  178.7480  141.0730 C   0  0  0  0  0  0  0  0  0  0  0  0
  187.5670  178.1990  141.0050 C   0  0  0  0  0  0  0  0  0  0  0  0
  187.6450  177.7920  143.3850 C   0  0  0  0  0  0  0  0  0  0  0  0
  187.4830  178.0280  148.1900 N   0  0  0  0  0  0  0  0  0  0  0  0
  181.2960  178.3440  140.5160 C   0  0  0  0  0  2  0  0  0  0  0  0
  184.3150  178.3060  139.7220 C   0  0  2  0  0  3  0  0  0  0  0  0
  186.3670  178.6410  147.4480 C   0  0  0  0  0  3  0  0  0  0  0  0
  182.3650  177.5190  140.9050 O   0  0  0  0  0  0  0  0  0  0  0  0
  181.3140  178.6460  139.0070 C   0  0  2  0  0  3  0  0  0  0  0  0
  189.4890  177.1070  142.0280 C   0  0  0  0  0  3  0  0  0  0  0  0
  188.2180  177.6990  142.1660 C   0  0  0  0  0  0  0  0  0  0  0  0
  188.3490  177.2200  144.6070 C   0  0  0  0  0  2  0  0  0  0  0  0
  184.3200  177.9180  142.2220 C   0  0  0  0  0  2  0  0  0  0  0  0
  184.7640  179.3610  144.9940 O   0  0  0  0  0  0  0  0  0  0  0  0
  189.5240  176.7590  147.4680 C   0  0  0  0  0  1  0  0  0  0  0  0
  186.3500  178.4290  143.5290 N   0  0  0  0  0  0  0  0  0  0  0  0
  187.7750  177.7250  145.8990 C   0  0  0  0  0  0  0  0  0  0  0  0
  179.9840  178.2380  138.3970 C   0  0  0  0  0  2  0  0  0  0  0  0
  180.0600  176.8540  137.8530 C   0  0  0  0  0  0  0  0  0  0  0  0
  180.0310  175.7660  138.7140 O   0  0  0  0  0  1  0  0  0  0  0  0
  180.1190  176.6690  136.6090 O   0  0  0  0  0  0  0  0  0  0  0  0
  1 10  1  0  0  0  0
  1 20  1  0  0  0  0
  2 24  1  6  0  0  0
  2 27  1  0  0  0  0
  3 11  2  0  0  0  0
  3  4  1  0  0  0  0
  4 21  2  0  0  0  0
  5 25  2  0  0  0  0
  5  6  1  0  0  0  0
  6 18  1  0  0  0  0
  7 24  1  1  0  0  0
  8 12  1  0  0  0  0
  9 26  1  0  0  0  0
  9 15  1  0  0  0  0
 11 13  1  0  0  0  0
 12  2  1  0  0  0  0
 13 12  2  0  0  0  0
 13 22  1  0  0  0  0
 14 27  1  0  0  0  0
 14 23  1  0  0  0  0
 16 19  1  0  0  0  0
 17 10  1  6  0  0  0
 17  8  1  0  0  0  0
 17  7  1  0  0  0  0
 18 15  2  0  0  0  0
 19  7  1  0  0  0  0
 20 29  1  6  0  0  0
 20 16  1  0  0  0  0
 21 22  1  0  0  0  0
 22 14  2  0  0  0  0
 23 28  1  0  0  0  0
 27  5  1  0  0  0  0
 28  6  2  0  0  0  0
 28  9  1  0  0  0  0
 30 29  1  0  0  0  0
 30 31  1  0  0  0  0
 32 30  2  0  0  0  0
M  END
>  <MODEL>
7

>  <REMARK>
 VINA RESULT:      -9.0      3.600      8.838
  Name = 
  2 active torsions:
  status: ('A' for Active; 'I' for Inactive)
    1  A    between atoms: C_1  and  C_10
    2  A    between atoms: C_10  and  C_24
                            x       y       z     vdW  Elec       q    Type
                         _______ _______ _______ _____ _____    ______ ____

>  <TORSDO>
F 2

$$$$
=
 OpenBabel10272413213D

 32 37  0  0  1  0  0  0  0  0999 V2000
  187.4190  177.2880  145.0860 O   0  0  0  0  0  0  0  0  0  0  0  0
  189.6750  177.6790  140.4370 C   0  0  1  0  0  3  0  0  0  0  0  0
  185.2910  178.1930  138.2240 C   0  0  0  0  0  3  0  0  0  0  0  0
  185.7780  177.5620  137.0820 C   0  0  0  0  0  3  0  0  0  0  0  0
  191.5840  176.9910  138.9680 C   0  0  0  0  0  0  0  0  0  0  0  0
  192.0710  176.5030  137.6810 C   0  0  0  0  0  0  0  0  0  0  0  0
  189.2890  177.1440  142.8560 C   0  0  1  0  0  3  0  0  0  0  0  0
  187.7200  178.7310  141.6600 C   0  0  0  0  0  2  0  0  0  0  0  0
  192.0190  175.7350  135.6090 N   0  0  0  0  0  0  0  0  0  0  0  0
  187.3830  178.2640  144.0810 C   0  0  0  0  0  2  0  0  0  0  0  0
  186.1330  178.4010  139.3150 C   0  0  0  0  0  3  0  0  0  0  0  0
  188.2580  178.1790  140.3710 C   0  0  0  0  0  0  0  0  0  0  0  0
  187.4780  177.9860  139.2880 C   0  0  0  0  0  0  0  0  0  0  0  0
  189.2650  176.9480  138.0390 C   0  0  0  0  0  0  0  0  0  0  0  0
  193.3980  175.7540  135.8770 N   0  0  0  0  0  0  0  0  0  0  0  0
  189.7960  176.7470  145.0040 C   0  0  0  0  0  2  0  0  0  0  0  0
  187.8390  177.6680  142.7520 C   0  0  2  0  0  3  0  0  0  0  0  0
  193.4830  176.2650  137.2570 C   0  0  0  0  0  3  0  0  0  0  0  0
  189.3600  176.1290  143.8200 O   0  0  0  0  0  0  0  0  0  0  0  0
  188.6490  177.4630  145.7410 C   0  0  2  0  0  3  0  0  0  0  0  0
  187.1070  177.1450  137.0330 C   0  0  0  0  0  3  0  0  0  0  0  0
  187.9790  177.3480  138.1200 C   0  0  0  0  0  0  0  0  0  0  0  0
  189.7680  176.2370  136.7900 C   0  0  0  0  0  2  0  0  0  0  0  0
  189.7640  176.5940  141.5100 C   0  0  0  0  0  2  0  0  0  0  0  0
  192.3970  177.2480  139.8970 O   0  0  0  0  0  0  0  0  0  0  0  0
  191.4670  175.2750  134.3470 C   0  0  0  0  0  1  0  0  0  0  0  0
  190.1690  177.1850  139.1480 N   0  0  0  0  0  0  0  0  0  0  0  0
  191.2660  176.1980  136.7050 C   0  0  0  0  0  0  0  0  0  0  0  0
  188.5610  176.9380  147.1640 C   0  0  0  0  0  2  0  0  0  0  0  0
  188.3670  178.0610  148.1250 C   0  0  0  0  0  0  0  0  0  0  0  0
  189.3970  178.4330  148.9760 O   0  0  0  0  0  1  0  0  0  0  0  0
  187.2770  178.6900  148.1430 O   0  0  0  0  0  0  0  0  0  0  0  0
  1 20  1  0  0  0  0
  2 24  1  1  0  0  0
  3 11  2  0  0  0  0
  4  3  1  0  0  0  0
  5 27  1  0  0  0  0
  5 25  2  0  0  0  0
  6  5  1  0  0  0  0
  7 24  1  6  0  0  0
  7 19  1  0  0  0  0
  9 15  1  0  0  0  0
  9 28  1  0  0  0  0
 10  1  1  0  0  0  0
 12  2  1  0  0  0  0
 12  8  1  0  0  0  0
 13 11  1  0  0  0  0
 13 12  2  0  0  0  0
 14 22  2  0  0  0  0
 14 27  1  0  0  0  0
 15 18  2  0  0  0  0
 16 20  1  0  0  0  0
 17  8  1  6  0  0  0
 17  7  1  0  0  0  0
 17 10  1  0  0  0  0
 18  6  1  0  0  0  0
 19 16  1  0  0  0  0
 20 29  1  1  0  0  0
 21  4  2  0  0  0  0
 21 22  1  0  0  0  0
 22 13  1  0  0  0  0
 23 14  1  0  0  0  0
 26  9  1  0  0  0  0
 27  2  1  0  0  0  0
 28 23  1  0  0  0  0
 28  6  2  0  0  0  0
 29 30  1  0  0  0  0
 30 32  2  0  0  0  0
 30 31  1  0  0  0  0
M  END
>  <MODEL>
8

>  <REMARK>
 VINA RESULT:      -9.0      3.654      5.316
  Name = 
  2 active torsions:
  status: ('A' for Active; 'I' for Inactive)
    1  A    between atoms: C_1  and  C_10
    2  A    between atoms: C_10  and  C_24
                            x       y       z     vdW  Elec       q    Type
                         _______ _______ _______ _____ _____    ______ ____

>  <TORSDO>
F 2

$$$$
=
 OpenBabel10272413213D

 32 37  0  0  1  0  0  0  0  0999 V2000
  186.1470  179.2050  138.2760 O   0  0  0  0  0  0  0  0  0  0  0  0
  187.9220  177.2070  142.7150 C   0  0  1  0  0  3  0  0  0  0  0  0
  184.0810  179.0450  145.2130 C   0  0  0  0  0  3  0  0  0  0  0  0
  184.8710  179.1910  146.3500 C   0  0  0  0  0  3  0  0  0  0  0  0
  189.9280  176.5740  144.0760 C   0  0  0  0  0  0  0  0  0  0  0  0
  190.6430  176.5890  145.3490 C   0  0  0  0  0  0  0  0  0  0  0  0
  187.8350  178.0780  140.3650 C   0  0  1  0  0  3  0  0  0  0  0  0
  185.6800  177.5450  141.5820 C   0  0  0  0  0  2  0  0  0  0  0  0
  191.0940  177.0670  147.4600 N   0  0  0  0  0  0  0  0  0  0  0  0
  185.5950  178.3320  139.2230 C   0  0  0  0  0  2  0  0  0  0  0  0
  184.6260  178.4980  144.0530 C   0  0  0  0  0  3  0  0  0  0  0  0
  186.4730  177.5830  142.8570 C   0  0  0  0  0  0  0  0  0  0  0  0
  185.9700  178.0840  144.0040 C   0  0  0  0  0  0  0  0  0  0  0  0
  188.0670  177.8270  145.1740 C   0  0  0  0  0  0  0  0  0  0  0  0
  192.2130  176.3030  147.0890 N   0  0  0  0  0  0  0  0  0  0  0  0
  188.4150  178.3110  138.2110 C   0  0  0  0  0  2  0  0  0  0  0  0
  186.3470  178.4500  140.5460 C   0  0  2  0  0  3  0  0  0  0  0  0
  191.9540  175.9570  145.6800 C   0  0  0  0  0  3  0  0  0  0  0  0
  188.4390  178.9590  139.4570 O   0  0  0  0  0  0  0  0  0  0  0  0
  187.0440  178.4290  137.5220 C   0  0  2  0  0  3  0  0  0  0  0  0
  186.2050  178.7850  146.3250 C   0  0  0  0  0  3  0  0  0  0  0  0
  186.7770  178.2260  145.1660 C   0  0  0  0  0  0  0  0  0  0  0  0
  188.9190  178.0200  146.4210 C   0  0  0  0  0  2  0  0  0  0  0  0
  188.5770  178.1460  141.7020 C   0  0  0  0  0  2  0  0  0  0  0  0
  190.4270  175.9890  143.0770 O   0  0  0  0  0  0  0  0  0  0  0  0
  190.9340  177.6440  148.7830 C   0  0  0  0  0  1  0  0  0  0  0  0
  188.6460  177.2230  143.9900 N   0  0  0  0  0  0  0  0  0  0  0  0
  190.1790  177.2060  146.3970 C   0  0  0  0  0  0  0  0  0  0  0  0
  187.2260  179.0360  136.1410 C   0  0  0  0  0  2  0  0  0  0  0  0
  187.0980  177.9900  135.0880 C   0  0  0  0  0  0  0  0  0  0  0  0
  188.2220  177.3040  134.6500 O   0  0  0  0  0  1  0  0  0  0  0  0
  185.9660  177.7070  134.6180 O   0  0  0  0  0  0  0  0  0  0  0  0
  1 10  1  0  0  0  0
  2 24  1  6  0  0  0
  2 12  1  0  0  0  0
  2 27  1  0  0  0  0
  3  4  1  0  0  0  0
  5  6  1  0  0  0  0
  6 18  1  0  0  0  0
  6 28  2  0  0  0  0
  7 17  1  0  0  0  0
  7 24  1  1  0  0  0
  8 12  1  0  0  0  0
  9 26  1  0  0  0  0
 11  3  2  0  0  0  0
 12 13  2  0  0  0  0
 13 11  1  0  0  0  0
 13 22  1  0  0  0  0
 14 23  1  0  0  0  0
 15  9  1  0  0  0  0
 16 19  1  0  0  0  0
 17 10  1  6  0  0  0
 17  8  1  0  0  0  0
 18 15  2  0  0  0  0
 19  7  1  0  0  0  0
 20 29  1  6  0  0  0
 20 16  1  0  0  0  0
 20  1  1  0  0  0  0
 21  4  2  0  0  0  0
 22 14  2  0  0  0  0
 22 21  1  0  0  0  0
 25  5  2  0  0  0  0
 27  5  1  0  0  0  0
 27 14  1  0  0  0  0
 28 23  1  0  0  0  0
 28  9  1  0  0  0  0
 30 29  1  0  0  0  0
 31 30  1  0  0  0  0
 32 30  2  0  0  0  0
M  END
>  <MODEL>
9

>  <REMARK>
 VINA RESULT:      -8.7      3.220      8.237
  Name = 
  2 active torsions:
  status: ('A' for Active; 'I' for Inactive)
    1  A    between atoms: C_1  and  C_10
    2  A    between atoms: C_10  and  C_24
                            x       y       z     vdW  Elec       q    Type
                         _______ _______ _______ _____ _____    ______ ____

>  <TORSDO>
F 2

$$$$
