=
 OpenBabel10272414243D

 43 49  0  0  1  0  0  0  0  0999 V2000
  182.0190  178.5350  140.1710 C   0  0  1  0  0  3  0  0  0  0  0  0
  184.9100  178.7030  146.0920 C   0  0  0  0  0  0  0  0  0  0  0  0
  182.4430  178.6060  141.6200 C   0  0  0  0  0  0  0  0  0  0  0  0
  183.1950  178.8230  144.3190 C   0  0  0  0  0  0  0  0  0  0  0  0
  185.9100  178.5270  145.0900 N   0  0  0  0  0  2  0  0  0  0  0  0
  185.2180  178.6560  147.3110 O   0  0  0  0  0  0  0  0  0  0  0  0
  184.1910  178.7330  143.3220 C   0  0  0  0  0  0  0  0  0  0  0  0
  183.5530  178.8840  145.7010 N   0  0  0  0  0  2  0  0  0  0  0  0
  185.6500  178.8680  143.6940 C   0  0  0  0  0  2  0  0  0  0  0  0
  184.8560  178.5340  140.9000 C   0  0  0  0  0  1  0  0  0  0  0  0
  183.8100  178.6290  141.9680 C   0  0  0  0  0  0  0  0  0  0  0  0
  181.4740  178.7050  142.6300 C   0  0  0  0  0  3  0  0  0  0  0  0
  181.8480  178.8090  143.9670 C   0  0  0  0  0  3  0  0  0  0  0  0
  183.0540  177.2170  138.3520 C   0  0  2  0  0  3  0  0  0  0  0  0
  182.1550  177.1380  139.5720 C   0  0  2  0  0  3  0  0  0  0  0  0
  181.5540  177.0980  138.1820 C   0  0  0  0  0  2  0  0  0  0  0  0
  183.6520  175.9720  138.1490 O   0  0  0  0  0  0  0  0  0  0  0  0
  184.6810  176.2180  137.2400 C   0  0  0  0  0  2  0  0  0  0  0  0
  185.2460  177.6080  137.4680 C   0  0  0  0  0  2  0  0  0  0  0  0
  186.7370  177.5290  137.7360 C   0  0  0  0  0  2  0  0  0  0  0  0
  187.0590  178.3210  138.8410 O   0  0  0  0  0  0  0  0  0  0  0  0
  188.4540  178.3660  138.8620 C   0  0  2  0  0  3  0  0  0  0  0  0
  188.6450  177.5580  141.2270 C   0  0  2  0  0  3  0  0  0  0  0  0
  188.9850  177.2650  139.7570 C   0  0  2  0  0  0  0  0  0  0  0  0
  188.9410  178.6940  140.2610 C   0  0  1  0  0  3  0  0  0  0  0  0
  189.7720  177.3570  142.2070 C   0  0  0  0  0  0  0  0  0  0  0  0
  191.3540  175.8600  143.5090 C   0  0  0  0  0  2  0  0  0  0  0  0
  191.4480  178.3200  143.8010 C   0  0  0  0  0  2  0  0  0  0  0  0
  191.4120  176.9830  144.5350 C   0  0  0  0  0  2  0  0  0  0  0  0
  190.3370  178.4320  142.7890 C   0  0  0  0  0  3  0  0  0  0  0  0
  190.0540  175.9590  142.7120 C   0  0  0  0  0  2  0  0  0  0  0  0
  190.4390  176.9530  139.4250 C   0  0  0  0  0  2  0  0  0  0  0  0
  191.8170  175.6460  138.2960 C   0  0  0  0  0  1  0  0  0  0  0  0
  190.5240  175.6990  138.8190 O   0  0  0  0  0  0  0  0  0  0  0  0
  180.6390  179.1500  139.9160 C   0  0  0  0  0  2  0  0  0  0  0  0
  180.6870  180.6400  139.5960 C   0  0  0  0  0  2  0  0  0  0  0  0
  180.2470  182.2100  136.6850 N   0  0  0  0  0  0  0  0  0  0  0  0
  181.1520  182.9230  137.2450 C   0  0  0  0  0  0  0  0  0  0  0  0
  181.3090  180.8590  138.2980 N   0  0  0  0  0  0  0  0  0  0  0  0
  180.2350  180.8950  137.2950 C   0  0  0  0  0  2  0  0  0  0  0  0
  181.8720  182.2070  138.3100 C   0  0  0  0  0  2  0  0  0  0  0  0
  181.4200  184.2440  136.8880 O   0  0  0  0  0  0  0  0  0  0  0  0
  180.8570  184.8380  135.7270 C   0  0  0  0  0  1  0  0  0  0  0  0
  1 35  1  1  0  0  0
  1  3  1  0  0  0  0
  2  6  2  0  0  0  0
  3 11  2  0  0  0  0
  3 12  1  0  0  0  0
  4  8  1  0  0  0  0
  5  2  1  0  0  0  0
  7  9  1  0  0  0  0
  7  4  2  0  0  0  0
  8  2  1  0  0  0  0
  9  5  1  0  0  0  0
 10 11  1  0  0  0  0
 11  7  1  0  0  0  0
 12 13  2  0  0  0  0
 13  4  1  0  0  0  0
 14 17  1  6  0  0  0
 14 15  1  0  0  0  0
 15  1  1  1  0  0  0
 16 14  1  0  0  0  0
 16 15  1  0  0  0  0
 18 19  1  0  0  0  0
 18 17  1  0  0  0  0
 19 20  1  0  0  0  0
 20 21  1  0  0  0  0
 22 21  1  1  0  0  0
 22 24  1  0  0  0  0
 22 25  1  0  0  0  0
 23 26  1  1  0  0  0
 24 32  1  6  0  0  0
 24 25  1  0  0  0  0
 24 23  1  0  0  0  0
 25 23  1  0  0  0  0
 26 31  1  0  0  0  0
 26 30  2  0  0  0  0
 27 29  1  0  0  0  0
 28 29  1  0  0  0  0
 30 28  1  0  0  0  0
 31 27  1  0  0  0  0
 33 34  1  0  0  0  0
 34 32  1  0  0  0  0
 36 35  1  0  0  0  0
 37 38  2  0  0  0  0
 37 40  1  0  0  0  0
 38 41  1  0  0  0  0
 39 41  1  0  0  0  0
 39 36  1  0  0  0  0
 40 39  1  0  0  0  0
 42 38  1  0  0  0  0
 43 42  1  0  0  0  0
M  END
>  <MODEL>
1

>  <REMARK>
 VINA RESULT:      -7.8      0.000      0.000
  Name = 
  15 active torsions:
  status: ('A' for Active; 'I' for Inactive)
    1  A    between atoms: C_1  and  C_34
    2  A    between atoms: C_1  and  C_35
    3  A    between atoms: C_2  and  C_7
    4  A    between atoms: C_2  and  O_12
    5  A    between atoms: O_3  and  C_4
    6  A    between atoms: O_3  and  C_17
    7  A    between atoms: C_6  and  O_12
    8  A    between atoms: C_7  and  C_17
    9  A    between atoms: C_8  and  C_34
   10  A    between atoms: C_10  and  C_22
   11  A    between atoms: C_10  and  O_42
   12  A    between atoms: C_11  and  C_14
   13  A    between atoms: C_13  and  C_34
   14  A    between atoms: C_19  and  O_25
   15  A    between atoms: N_28  and  C_35
                            x       y       z     vdW  Elec       q    Type
                         _______ _______ _______ _____ _____    ______ ____

>  <TORSDO>
F 15

$$$$
=
 OpenBabel10272414243D

 43 49  0  0  1  0  0  0  0  0999 V2000
  185.7900  177.8550  138.4370 C   0  0  1  0  0  3  0  0  0  0  0  0
  192.3020  176.8560  138.6150 C   0  0  0  0  0  0  0  0  0  0  0  0
  187.2550  177.5400  138.2370 C   0  0  0  0  0  0  0  0  0  0  0  0
  189.9550  176.8650  137.8490 C   0  0  0  0  0  0  0  0  0  0  0  0
  191.8780  177.3870  139.8690 N   0  0  0  0  0  2  0  0  0  0  0  0
  193.5270  176.6870  138.3790 O   0  0  0  0  0  0  0  0  0  0  0  0
  189.5220  177.3120  139.1160 C   0  0  0  0  0  0  0  0  0  0  0  0
  191.3320  176.5650  137.6150 N   0  0  0  0  0  2  0  0  0  0  0  0
  190.4800  177.3170  140.2860 C   0  0  0  0  0  2  0  0  0  0  0  0
  187.6920  178.1190  140.6500 C   0  0  0  0  0  1  0  0  0  0  0  0
  188.1650  177.6440  139.3090 C   0  0  0  0  0  0  0  0  0  0  0  0
  187.7100  177.0860  136.9900 C   0  0  0  0  0  3  0  0  0  0  0  0
  189.0480  176.7560  136.7980 C   0  0  0  0  0  3  0  0  0  0  0  0
  184.3980  178.6950  140.3000 C   0  0  2  0  0  3  0  0  0  0  0  0
  185.5510  179.0340  139.3750 C   0  0  2  0  0  3  0  0  0  0  0  0
  184.1810  179.6330  139.1320 C   0  0  0  0  0  2  0  0  0  0  0  0
  184.5300  179.4310  141.4780 O   0  0  0  0  0  0  0  0  0  0  0  0
  184.1840  178.5400  142.4940 C   0  0  0  0  0  2  0  0  0  0  0  0
  183.4000  179.2680  143.5710 C   0  0  0  0  0  2  0  0  0  0  0  0
  183.8010  178.7620  144.9430 C   0  0  0  0  0  2  0  0  0  0  0  0
  185.1240  179.1230  145.2100 O   0  0  0  0  0  0  0  0  0  0  0  0
  185.6970  177.9950  145.8010 C   0  0  2  0  0  3  0  0  0  0  0  0
  187.8380  178.1590  144.5070 C   0  0  2  0  0  3  0  0  0  0  0  0
  187.1970  178.1830  145.9040 C   0  0  2  0  0  0  0  0  0  0  0  0
  186.6180  177.3050  144.8120 C   0  0  1  0  0  3  0  0  0  0  0  0
  189.0830  177.3190  144.3770 C   0  0  0  0  0  0  0  0  0  0  0  0
  191.4770  176.7700  145.0140 C   0  0  0  0  0  2  0  0  0  0  0  0
  190.3060  175.4200  143.2950 C   0  0  0  0  0  2  0  0  0  0  0  0
  191.5990  176.1590  143.6250 C   0  0  0  0  0  2  0  0  0  0  0  0
  189.0950  176.2900  143.5090 C   0  0  0  0  0  3  0  0  0  0  0  0
  190.3610  177.8140  145.0180 C   0  0  0  0  0  2  0  0  0  0  0  0
  187.7860  177.2540  146.9590 C   0  0  0  0  0  2  0  0  0  0  0  0
  189.0010  178.1150  148.5900 C   0  0  0  0  0  1  0  0  0  0  0  0
  187.6830  177.8480  148.2170 O   0  0  0  0  0  0  0  0  0  0  0  0
  185.0160  177.9860  137.1220 C   0  0  0  0  0  2  0  0  0  0  0  0
  183.8100  177.0560  137.0290 C   0  0  0  0  0  2  0  0  0  0  0  0
  182.4960  174.0610  137.6900 N   0  0  0  0  0  0  0  0  0  0  0  0
  183.3760  173.7840  136.8010 C   0  0  0  0  0  0  0  0  0  0  0  0
  184.0890  175.7990  137.7080 N   0  0  0  0  0  0  0  0  0  0  0  0
  182.8290  175.3320  138.3050 C   0  0  0  0  0  2  0  0  0  0  0  0
  184.4170  174.8150  136.6780 C   0  0  0  0  0  2  0  0  0  0  0  0
  183.3430  172.6260  136.0240 O   0  0  0  0  0  0  0  0  0  0  0  0
  183.5720  171.3400  136.5810 C   0  0  0  0  0  1  0  0  0  0  0  0
  1 35  1  6  0  0  0
  2  5  1  0  0  0  0
  3  1  1  0  0  0  0
  3 11  1  0  0  0  0
  4  7  1  0  0  0  0
  5  9  1  0  0  0  0
  6  2  2  0  0  0  0
  7 11  2  0  0  0  0
  7  9  1  0  0  0  0
  8  4  1  0  0  0  0
  8  2  1  0  0  0  0
 11 10  1  0  0  0  0
 12  3  2  0  0  0  0
 13 12  1  0  0  0  0
 13  4  2  0  0  0  0
 14 17  1  1  0  0  0
 15  1  1  6  0  0  0
 15 14  1  0  0  0  0
 16 15  1  0  0  0  0
 16 14  1  0  0  0  0
 17 18  1  0  0  0  0
 18 19  1  0  0  0  0
 19 20  1  0  0  0  0
 20 21  1  0  0  0  0
 22 21  1  6  0  0  0
 22 24  1  0  0  0  0
 23 26  1  1  0  0  0
 23 25  1  0  0  0  0
 23 24  1  0  0  0  0
 24 32  1  1  0  0  0
 25 22  1  0  0  0  0
 25 24  1  0  0  0  0
 26 31  1  0  0  0  0
 27 31  1  0  0  0  0
 28 30  1  0  0  0  0
 28 29  1  0  0  0  0
 29 27  1  0  0  0  0
 30 26  2  0  0  0  0
 32 34  1  0  0  0  0
 34 33  1  0  0  0  0
 36 35  1  0  0  0  0
 36 39  1  0  0  0  0
 37 40  1  0  0  0  0
 38 37  2  0  0  0  0
 39 40  1  0  0  0  0
 41 38  1  0  0  0  0
 41 39  1  0  0  0  0
 42 43  1  0  0  0  0
 42 38  1  0  0  0  0
M  END
>  <MODEL>
2

>  <REMARK>
 VINA RESULT:      -6.8      3.480      7.306
  Name = 
  15 active torsions:
  status: ('A' for Active; 'I' for Inactive)
    1  A    between atoms: C_1  and  C_34
    2  A    between atoms: C_1  and  C_35
    3  A    between atoms: C_2  and  C_7
    4  A    between atoms: C_2  and  O_12
    5  A    between atoms: O_3  and  C_4
    6  A    between atoms: O_3  and  C_17
    7  A    between atoms: C_6  and  O_12
    8  A    between atoms: C_7  and  C_17
    9  A    between atoms: C_8  and  C_34
   10  A    between atoms: C_10  and  C_22
   11  A    between atoms: C_10  and  O_42
   12  A    between atoms: C_11  and  C_14
   13  A    between atoms: C_13  and  C_34
   14  A    between atoms: C_19  and  O_25
   15  A    between atoms: N_28  and  C_35
                            x       y       z     vdW  Elec       q    Type
                         _______ _______ _______ _____ _____    ______ ____

>  <TORSDO>
F 15

$$$$
=
 OpenBabel10272414243D

 43 49  0  0  1  0  0  0  0  0999 V2000
  189.7240  176.5070  138.9570 C   0  0  1  0  0  3  0  0  0  0  0  0
  195.1240  173.8510  136.2700 C   0  0  0  0  0  0  0  0  0  0  0  0
  191.0830  176.1080  138.4280 C   0  0  0  0  0  0  0  0  0  0  0  0
  193.6100  175.4450  137.3930 C   0  0  0  0  0  0  0  0  0  0  0  0
  194.0150  172.9840  136.0410 N   0  0  0  0  0  2  0  0  0  0  0  0
  196.2860  173.4970  135.9390 O   0  0  0  0  0  0  0  0  0  0  0  0
  192.4970  174.6290  137.0940 C   0  0  0  0  0  0  0  0  0  0  0  0
  194.9120  175.1000  136.9200 N   0  0  0  0  0  2  0  0  0  0  0  0
  192.6420  173.4720  136.1320 C   0  0  0  0  0  2  0  0  0  0  0  0
  190.0390  174.1110  137.3010 C   0  0  0  0  0  1  0  0  0  0  0  0
  191.2290  174.9680  137.6110 C   0  0  0  0  0  0  0  0  0  0  0  0
  192.2030  176.9060  138.7020 C   0  0  0  0  0  3  0  0  0  0  0  0
  193.4550  176.5750  138.1920 C   0  0  0  0  0  3  0  0  0  0  0  0
  190.0900  176.8930  141.3720 C   0  0  2  0  0  3  0  0  0  0  0  0
  189.7920  177.5710  140.0480 C   0  0  2  0  0  3  0  0  0  0  0  0
  188.6850  177.3610  141.0610 C   0  0  0  0  0  2  0  0  0  0  0  0
  190.7160  177.8090  142.2190 O   0  0  0  0  0  0  0  0  0  0  0  0
  191.8670  177.1550  142.6600 C   0  0  0  0  0  2  0  0  0  0  0  0
  191.4870  176.0400  143.6180 C   0  0  0  0  0  2  0  0  0  0  0  0
  191.5320  176.5430  145.0490 C   0  0  0  0  0  2  0  0  0  0  0  0
  190.2910  176.3410  145.6580 O   0  0  0  0  0  0  0  0  0  0  0  0
  189.7850  177.6220  145.8860 C   0  0  2  0  0  3  0  0  0  0  0  0
  187.4860  177.0800  145.0450 C   0  0  2  0  0  3  0  0  0  0  0  0
  188.3190  177.5300  146.2550 C   0  0  2  0  0  0  0  0  0  0  0  0
  188.7200  177.9480  144.8550 C   0  0  1  0  0  3  0  0  0  0  0  0
  186.2190  177.8580  144.8010 C   0  0  0  0  0  0  0  0  0  0  0  0
  184.0620  178.9170  145.6160 C   0  0  0  0  0  2  0  0  0  0  0  0
  184.6740  179.0310  143.2160 C   0  0  0  0  0  2  0  0  0  0  0  0
  183.5480  178.7210  144.1970 C   0  0  0  0  0  2  0  0  0  0  0  0
  185.9320  178.2740  143.5520 C   0  0  0  0  0  3  0  0  0  0  0  0
  185.1810  177.9150  145.8990 C   0  0  0  0  0  2  0  0  0  0  0  0
  187.8650  178.7890  146.9850 C   0  0  0  0  0  2  0  0  0  0  0  0
  187.8300  177.4220  148.7200 C   0  0  0  0  0  1  0  0  0  0  0  0
  188.2200  178.7050  148.3320 O   0  0  0  0  0  0  0  0  0  0  0  0
  188.7270  176.8660  137.8500 C   0  0  0  0  0  2  0  0  0  0  0  0
  188.8010  178.3250  137.4130 C   0  0  0  0  0  2  0  0  0  0  0  0
  185.9290  177.3960  135.9920 N   0  0  0  0  0  0  0  0  0  0  0  0
  185.6200  177.4300  137.2350 C   0  0  0  0  0  0  0  0  0  0  0  0
  187.4760  178.8160  137.0640 N   0  0  0  0  0  0  0  0  0  0  0  0
  187.1080  178.2120  135.7750 C   0  0  0  0  0  2  0  0  0  0  0  0
  186.5380  178.2560  138.0350 C   0  0  0  0  0  2  0  0  0  0  0  0
  184.5310  176.7460  137.7750 O   0  0  0  0  0  0  0  0  0  0  0  0
  184.0420  175.5410  137.2040 C   0  0  0  0  0  1  0  0  0  0  0  0
  1 35  1  6  0  0  0
  2  8  1  0  0  0  0
  3 12  1  0  0  0  0
  3  1  1  0  0  0  0
  4 13  1  0  0  0  0
  5  9  1  0  0  0  0
  5  2  1  0  0  0  0
  6  2  2  0  0  0  0
  7  4  2  0  0  0  0
  7 11  1  0  0  0  0
  8  4  1  0  0  0  0
  9  7  1  0  0  0  0
 10 11  1  0  0  0  0
 11  3  2  0  0  0  0
 13 12  2  0  0  0  0
 14 17  1  1  0  0  0
 15  1  1  6  0  0  0
 15 16  1  0  0  0  0
 15 14  1  0  0  0  0
 16 14  1  0  0  0  0
 17 18  1  0  0  0  0
 18 19  1  0  0  0  0
 19 20  1  0  0  0  0
 20 21  1  0  0  0  0
 22 21  1  6  0  0  0
 22 24  1  0  0  0  0
 23 26  1  1  0  0  0
 23 24  1  0  0  0  0
 24 32  1  1  0  0  0
 25 23  1  0  0  0  0
 25 22  1  0  0  0  0
 25 24  1  0  0  0  0
 26 31  1  0  0  0  0
 27 31  1  0  0  0  0
 28 30  1  0  0  0  0
 28 29  1  0  0  0  0
 29 27  1  0  0  0  0
 30 26  2  0  0  0  0
 32 34  1  0  0  0  0
 34 33  1  0  0  0  0
 36 35  1  0  0  0  0
 37 38  2  0  0  0  0
 38 42  1  0  0  0  0
 38 41  1  0  0  0  0
 39 36  1  0  0  0  0
 39 41  1  0  0  0  0
 40 37  1  0  0  0  0
 40 39  1  0  0  0  0
 43 42  1  0  0  0  0
M  END
>  <MODEL>
3

>  <REMARK>
 VINA RESULT:      -6.8      4.071      9.317
  Name = 
  15 active torsions:
  status: ('A' for Active; 'I' for Inactive)
    1  A    between atoms: C_1  and  C_34
    2  A    between atoms: C_1  and  C_35
    3  A    between atoms: C_2  and  C_7
    4  A    between atoms: C_2  and  O_12
    5  A    between atoms: O_3  and  C_4
    6  A    between atoms: O_3  and  C_17
    7  A    between atoms: C_6  and  O_12
    8  A    between atoms: C_7  and  C_17
    9  A    between atoms: C_8  and  C_34
   10  A    between atoms: C_10  and  C_22
   11  A    between atoms: C_10  and  O_42
   12  A    between atoms: C_11  and  C_14
   13  A    between atoms: C_13  and  C_34
   14  A    between atoms: C_19  and  O_25
   15  A    between atoms: N_28  and  C_35
                            x       y       z     vdW  Elec       q    Type
                         _______ _______ _______ _____ _____    ______ ____

>  <TORSDO>
F 15

$$$$
=
 OpenBabel10272414243D

 43 49  0  0  1  0  0  0  0  0999 V2000
  192.2760  175.3280  136.8330 C   0  0  1  0  0  3  0  0  0  0  0  0
  198.7900  174.9460  135.9120 C   0  0  0  0  0  0  0  0  0  0  0  0
  193.7390  175.4480  136.4730 C   0  0  0  0  0  0  0  0  0  0  0  0
  196.4360  175.6630  135.7150 C   0  0  0  0  0  0  0  0  0  0  0  0
  198.3770  173.8800  136.7650 N   0  0  0  0  0  2  0  0  0  0  0  0
  200.0120  175.1380  135.6820 O   0  0  0  0  0  0  0  0  0  0  0  0
  196.0140  174.5610  136.4900 C   0  0  0  0  0  0  0  0  0  0  0  0
  197.8100  175.8200  135.3600 N   0  0  0  0  0  2  0  0  0  0  0  0
  196.9830  173.4460  136.8130 C   0  0  0  0  0  2  0  0  0  0  0  0
  194.1980  173.2890  137.6870 C   0  0  0  0  0  1  0  0  0  0  0  0
  194.6590  174.4540  136.8650 C   0  0  0  0  0  0  0  0  0  0  0  0
  194.1820  176.5290  135.6960 C   0  0  0  0  0  3  0  0  0  0  0  0
  195.5190  176.6360  135.3240 C   0  0  0  0  0  3  0  0  0  0  0  0
  191.9310  176.2090  139.1180 C   0  0  2  0  0  3  0  0  0  0  0  0
  191.7550  176.5120  137.6420 C   0  0  2  0  0  3  0  0  0  0  0  0
  190.5630  176.0970  138.4800 C   0  0  0  0  0  2  0  0  0  0  0  0
  192.0270  177.4120  139.8190 O   0  0  0  0  0  0  0  0  0  0  0  0
  191.1050  177.2910  140.8590 C   0  0  0  0  0  2  0  0  0  0  0  0
  191.8160  177.4250  142.1940 C   0  0  0  0  0  2  0  0  0  0  0  0
  191.6430  176.1570  143.0080 C   0  0  0  0  0  2  0  0  0  0  0  0
  190.3220  176.0590  143.4530 O   0  0  0  0  0  0  0  0  0  0  0  0
  190.0860  177.2460  144.1510 C   0  0  2  0  0  3  0  0  0  0  0  0
  187.5990  176.9400  144.2280 C   0  0  2  0  0  3  0  0  0  0  0  0
  188.8850  177.0700  145.0580 C   0  0  2  0  0  0  0  0  0  0  0  0
  188.7400  177.8220  143.7500 C   0  0  1  0  0  3  0  0  0  0  0  0
  186.4290  177.7590  144.7080 C   0  0  0  0  0  0  0  0  0  0  0  0
  184.7980  178.4710  146.5180 C   0  0  0  0  0  2  0  0  0  0  0  0
  184.6180  179.4240  144.2360 C   0  0  0  0  0  2  0  0  0  0  0  0
  183.8360  178.7920  145.3830 C   0  0  0  0  0  2  0  0  0  0  0  0
  185.8120  178.5920  143.8480 C   0  0  0  0  0  3  0  0  0  0  0  0
  185.8130  177.4280  146.0500 C   0  0  0  0  0  2  0  0  0  0  0  0
  188.8940  178.1100  146.1730 C   0  0  0  0  0  2  0  0  0  0  0  0
  188.5700  178.0650  148.3580 C   0  0  0  0  0  1  0  0  0  0  0  0
  189.3740  177.5320  147.3490 O   0  0  0  0  0  0  0  0  0  0  0  0
  191.3830  175.0030  135.6310 C   0  0  0  0  0  2  0  0  0  0  0  0
  190.7100  176.2290  135.0230 C   0  0  0  0  0  2  0  0  0  0  0  0
  187.8210  175.1490  136.2950 N   0  0  0  0  0  0  0  0  0  0  0  0
  187.5940  176.3980  136.1240 C   0  0  0  0  0  0  0  0  0  0  0  0
  189.3340  175.9220  134.6610 N   0  0  0  0  0  0  0  0  0  0  0  0
  188.9240  174.7480  135.4440 C   0  0  0  0  0  2  0  0  0  0  0  0
  188.5030  177.0210  135.1500 C   0  0  0  0  0  2  0  0  0  0  0  0
  186.5930  177.0960  136.7990 O   0  0  0  0  0  0  0  0  0  0  0  0
  186.8620  177.8530  137.9700 C   0  0  0  0  0  1  0  0  0  0  0  0
  1 35  1  6  0  0  0
  2  5  1  0  0  0  0
  3  1  1  0  0  0  0
  3 11  1  0  0  0  0
  4  7  1  0  0  0  0
  5  9  1  0  0  0  0
  6  2  2  0  0  0  0
  7  9  1  0  0  0  0
  7 11  2  0  0  0  0
  8  4  1  0  0  0  0
  8  2  1  0  0  0  0
 11 10  1  0  0  0  0
 12  3  2  0  0  0  0
 13 12  1  0  0  0  0
 13  4  2  0  0  0  0
 14 17  1  1  0  0  0
 15  1  1  6  0  0  0
 15 16  1  0  0  0  0
 15 14  1  0  0  0  0
 16 14  1  0  0  0  0
 17 18  1  0  0  0  0
 18 19  1  0  0  0  0
 19 20  1  0  0  0  0
 20 21  1  0  0  0  0
 22 21  1  6  0  0  0
 22 24  1  0  0  0  0
 23 26  1  1  0  0  0
 23 24  1  0  0  0  0
 24 32  1  1  0  0  0
 25 22  1  0  0  0  0
 25 23  1  0  0  0  0
 25 24  1  0  0  0  0
 26 31  1  0  0  0  0
 28 29  1  0  0  0  0
 29 27  1  0  0  0  0
 30 28  1  0  0  0  0
 30 26  2  0  0  0  0
 31 27  1  0  0  0  0
 32 34  1  0  0  0  0
 34 33  1  0  0  0  0
 36 35  1  0  0  0  0
 38 37  2  0  0  0  0
 38 42  1  0  0  0  0
 39 36  1  0  0  0  0
 39 41  1  0  0  0  0
 39 40  1  0  0  0  0
 40 37  1  0  0  0  0
 41 38  1  0  0  0  0
 42 43  1  0  0  0  0
M  END
>  <MODEL>
4

>  <REMARK>
 VINA RESULT:      -6.7      5.176     10.819
  Name = 
  15 active torsions:
  status: ('A' for Active; 'I' for Inactive)
    1  A    between atoms: C_1  and  C_34
    2  A    between atoms: C_1  and  C_35
    3  A    between atoms: C_2  and  C_7
    4  A    between atoms: C_2  and  O_12
    5  A    between atoms: O_3  and  C_4
    6  A    between atoms: O_3  and  C_17
    7  A    between atoms: C_6  and  O_12
    8  A    between atoms: C_7  and  C_17
    9  A    between atoms: C_8  and  C_34
   10  A    between atoms: C_10  and  C_22
   11  A    between atoms: C_10  and  O_42
   12  A    between atoms: C_11  and  C_14
   13  A    between atoms: C_13  and  C_34
   14  A    between atoms: C_19  and  O_25
   15  A    between atoms: N_28  and  C_35
                            x       y       z     vdW  Elec       q    Type
                         _______ _______ _______ _____ _____    ______ ____

>  <TORSDO>
F 15

$$$$
=
 OpenBabel10272414243D

 43 49  0  0  1  0  0  0  0  0999 V2000
  187.6730  177.8980  142.6820 C   0  0  1  0  0  3  0  0  0  0  0  0
  191.9590  175.8600  147.2540 C   0  0  0  0  0  0  0  0  0  0  0  0
  188.5200  177.5780  143.8920 C   0  0  0  0  0  0  0  0  0  0  0  0
  190.1140  177.0740  146.1500 C   0  0  0  0  0  0  0  0  0  0  0  0
  192.3020  175.2740  146.0000 N   0  0  0  0  0  2  0  0  0  0  0  0
  192.5760  175.5290  148.3000 O   0  0  0  0  0  0  0  0  0  0  0  0
  190.5010  176.5600  144.8930 C   0  0  0  0  0  0  0  0  0  0  0  0
  190.8810  176.7880  147.3200 N   0  0  0  0  0  2  0  0  0  0  0  0
  191.8240  175.8420  144.7430 C   0  0  0  0  0  2  0  0  0  0  0  0
  190.1020  176.2820  142.4210 C   0  0  0  0  0  1  0  0  0  0  0  0
  189.7020  176.8200  143.7610 C   0  0  0  0  0  0  0  0  0  0  0  0
  188.1620  178.0830  145.1510 C   0  0  0  0  0  3  0  0  0  0  0  0
  188.9500  177.8290  146.2700 C   0  0  0  0  0  3  0  0  0  0  0  0
  185.2280  177.7940  143.0410 C   0  0  2  0  0  3  0  0  0  0  0  0
  186.4310  178.7190  143.0160 C   0  0  2  0  0  3  0  0  0  0  0  0
  185.4590  178.7050  141.8540 C   0  0  0  0  0  2  0  0  0  0  0  0
  184.2520  178.3440  143.8740 O   0  0  0  0  0  0  0  0  0  0  0  0
  183.3070  178.8870  143.0030 C   0  0  0  0  0  2  0  0  0  0  0  0
  181.9350  178.8590  143.6510 C   0  0  0  0  0  2  0  0  0  0  0  0
  180.8610  178.6750  142.5950 C   0  0  0  0  0  2  0  0  0  0  0  0
  181.3800  178.9900  141.3370 O   0  0  0  0  0  0  0  0  0  0  0  0
  181.0420  177.9070  140.5230 C   0  0  2  0  0  3  0  0  0  0  0  0
  182.9730  178.2250  138.9560 C   0  0  2  0  0  3  0  0  0  0  0  0
  182.3030  177.2790  139.9650 C   0  0  2  0  0  0  0  0  0  0  0  0
  181.4590  178.1850  139.0910 C   0  0  1  0  0  3  0  0  0  0  0  0
  183.4310  177.5860  137.6700 C   0  0  0  0  0  0  0  0  0  0  0  0
  185.1420  176.3010  136.3060 C   0  0  0  0  0  2  0  0  0  0  0  0
  183.0300  177.0630  135.2540 C   0  0  0  0  0  2  0  0  0  0  0  0
  184.5450  176.9970  135.0900 C   0  0  0  0  0  2  0  0  0  0  0  0
  182.6360  177.6490  136.5850 C   0  0  0  0  0  3  0  0  0  0  0  0
  184.8700  177.1340  137.5580 C   0  0  0  0  0  2  0  0  0  0  0  0
  182.0390  175.8480  139.5110 C   0  0  0  0  0  2  0  0  0  0  0  0
  180.4650  174.6530  138.5240 C   0  0  0  0  0  1  0  0  0  0  0  0
  180.6670  175.5940  139.5350 O   0  0  0  0  0  0  0  0  0  0  0  0
  188.4770  178.4980  141.5240 C   0  0  0  0  0  2  0  0  0  0  0  0
  187.9060  178.1650  140.1490 C   0  0  0  0  0  2  0  0  0  0  0  0
  190.1960  177.2120  137.9180 N   0  0  0  0  0  0  0  0  0  0  0  0
  189.1720  177.4330  137.1810 C   0  0  0  0  0  0  0  0  0  0  0  0
  188.7790  178.6760  139.1030 N   0  0  0  0  0  0  0  0  0  0  0  0
  190.0390  177.9220  139.1720 C   0  0  0  0  0  2  0  0  0  0  0  0
  188.1790  178.3090  137.8210 C   0  0  0  0  0  2  0  0  0  0  0  0
  189.0130  176.8920  135.9050 O   0  0  0  0  0  0  0  0  0  0  0  0
  190.0070  176.0750  135.3050 C   0  0  0  0  0  1  0  0  0  0  0  0
  1 35  1  6  0  0  0
  1  3  1  0  0  0  0
  2  8  1  0  0  0  0
  2  6  2  0  0  0  0
  3 12  1  0  0  0  0
  4 13  1  0  0  0  0
  4  8  1  0  0  0  0
  5  2  1  0  0  0  0
  7  4  2  0  0  0  0
  9  7  1  0  0  0  0
  9  5  1  0  0  0  0
 10 11  1  0  0  0  0
 11  3  2  0  0  0  0
 11  7  1  0  0  0  0
 12 13  2  0  0  0  0
 14 17  1  1  0  0  0
 15  1  1  6  0  0  0
 15 14  1  0  0  0  0
 16 15  1  0  0  0  0
 16 14  1  0  0  0  0
 18 19  1  0  0  0  0
 18 17  1  0  0  0  0
 20 19  1  0  0  0  0
 21 20  1  0  0  0  0
 22 21  1  1  0  0  0
 23 26  1  6  0  0  0
 23 25  1  0  0  0  0
 23 24  1  0  0  0  0
 24 32  1  6  0  0  0
 24 22  1  0  0  0  0
 25 24  1  0  0  0  0
 25 22  1  0  0  0  0
 27 31  1  0  0  0  0
 28 30  1  0  0  0  0
 29 28  1  0  0  0  0
 29 27  1  0  0  0  0
 30 26  2  0  0  0  0
 31 26  1  0  0  0  0
 32 34  1  0  0  0  0
 33 34  1  0  0  0  0
 36 35  1  0  0  0  0
 37 40  1  0  0  0  0
 38 41  1  0  0  0  0
 38 37  2  0  0  0  0
 39 40  1  0  0  0  0
 39 36  1  0  0  0  0
 41 39  1  0  0  0  0
 42 38  1  0  0  0  0
 43 42  1  0  0  0  0
M  END
>  <MODEL>
5

>  <REMARK>
 VINA RESULT:      -6.7      3.480      8.211
  Name = 
  15 active torsions:
  status: ('A' for Active; 'I' for Inactive)
    1  A    between atoms: C_1  and  C_34
    2  A    between atoms: C_1  and  C_35
    3  A    between atoms: C_2  and  C_7
    4  A    between atoms: C_2  and  O_12
    5  A    between atoms: O_3  and  C_4
    6  A    between atoms: O_3  and  C_17
    7  A    between atoms: C_6  and  O_12
    8  A    between atoms: C_7  and  C_17
    9  A    between atoms: C_8  and  C_34
   10  A    between atoms: C_10  and  C_22
   11  A    between atoms: C_10  and  O_42
   12  A    between atoms: C_11  and  C_14
   13  A    between atoms: C_13  and  C_34
   14  A    between atoms: C_19  and  O_25
   15  A    between atoms: N_28  and  C_35
                            x       y       z     vdW  Elec       q    Type
                         _______ _______ _______ _____ _____    ______ ____

>  <TORSDO>
F 15

$$$$
=
 OpenBabel10272414243D

 43 49  0  0  1  0  0  0  0  0999 V2000
  186.1570  178.0310  139.1810 C   0  0  1  0  0  3  0  0  0  0  0  0
  192.5320  176.5100  138.4880 C   0  0  0  0  0  0  0  0  0  0  0  0
  187.6500  177.8070  139.2450 C   0  0  0  0  0  0  0  0  0  0  0  0
  190.4390  177.4820  139.3660 C   0  0  0  0  0  0  0  0  0  0  0  0
  191.8070  175.9990  137.3710 N   0  0  0  0  0  2  0  0  0  0  0  0
  193.7540  176.2460  138.6260 O   0  0  0  0  0  0  0  0  0  0  0  0
  189.7340  177.0490  138.2220 C   0  0  0  0  0  0  0  0  0  0  0  0
  191.8490  177.2810  139.4710 N   0  0  0  0  0  2  0  0  0  0  0  0
  190.4880  176.5210  137.0220 C   0  0  0  0  0  2  0  0  0  0  0  0
  187.5750  176.7650  136.9520 C   0  0  0  0  0  1  0  0  0  0  0  0
  188.3350  177.2190  138.1620 C   0  0  0  0  0  0  0  0  0  0  0  0
  188.3750  178.2350  140.3680 C   0  0  0  0  0  3  0  0  0  0  0  0
  189.7560  178.0700  140.4280 C   0  0  0  0  0  3  0  0  0  0  0  0
  184.7520  178.3880  141.1850 C   0  0  2  0  0  3  0  0  0  0  0  0
  185.6610  179.0710  140.1810 C   0  0  2  0  0  3  0  0  0  0  0  0
  184.1580  179.2310  140.0770 C   0  0  0  0  0  2  0  0  0  0  0  0
  184.7650  179.1150  142.3760 O   0  0  0  0  0  0  0  0  0  0  0  0
  183.6830  178.6200  143.1050 C   0  0  0  0  0  2  0  0  0  0  0  0
  183.4450  179.4920  144.3250 C   0  0  0  0  0  2  0  0  0  0  0  0
  183.9790  178.8070  145.5690 C   0  0  0  0  0  2  0  0  0  0  0  0
  185.3320  179.1140  145.7310 O   0  0  0  0  0  0  0  0  0  0  0  0
  185.9270  177.9240  146.1560 C   0  0  2  0  0  3  0  0  0  0  0  0
  187.9360  178.1650  144.6760 C   0  0  2  0  0  3  0  0  0  0  0  0
  187.4340  178.0710  146.1260 C   0  0  2  0  0  0  0  0  0  0  0  0
  186.7270  177.3110  145.0210 C   0  0  1  0  0  3  0  0  0  0  0  0
  189.1370  177.3160  144.3470 C   0  0  0  0  0  0  0  0  0  0  0  0
  191.5880  176.7170  144.6260 C   0  0  0  0  0  2  0  0  0  0  0  0
  190.1680  175.4410  143.0450 C   0  0  0  0  0  2  0  0  0  0  0  0
  191.5060  176.1530  143.2150 C   0  0  0  0  0  2  0  0  0  0  0  0
  189.0120  176.3180  143.4520 C   0  0  0  0  0  3  0  0  0  0  0  0
  190.4990  177.7730  144.8200 C   0  0  0  0  0  2  0  0  0  0  0  0
  188.0960  177.0350  147.0280 C   0  0  0  0  0  2  0  0  0  0  0  0
  188.9650  178.3200  148.6000 C   0  0  0  0  0  1  0  0  0  0  0  0
  187.9370  177.4060  148.3640 O   0  0  0  0  0  0  0  0  0  0  0  0
  185.6470  178.2950  137.7610 C   0  0  0  0  0  2  0  0  0  0  0  0
  184.8170  177.1500  137.1890 C   0  0  0  0  0  2  0  0  0  0  0  0
  181.8020  176.0110  136.3280 N   0  0  0  0  0  0  0  0  0  0  0  0
  181.8400  175.7600  137.5830 C   0  0  0  0  0  0  0  0  0  0  0  0
  183.3980  177.4570  137.2860 N   0  0  0  0  0  0  0  0  0  0  0  0
  182.7710  177.0460  136.0220 C   0  0  0  0  0  2  0  0  0  0  0  0
  182.8320  176.5730  138.3040 C   0  0  0  0  0  2  0  0  0  0  0  0
  181.0280  174.8090  138.2010 O   0  0  0  0  0  0  0  0  0  0  0  0
  180.3370  175.0820  139.4110 C   0  0  0  0  0  1  0  0  0  0  0  0
  1 35  1  6  0  0  0
  1  3  1  0  0  0  0
  2  6  2  0  0  0  0
  2  8  1  0  0  0  0
  3 12  1  0  0  0  0
  4  8  1  0  0  0  0
  4 13  1  0  0  0  0
  5  2  1  0  0  0  0
  7  4  2  0  0  0  0
  9  5  1  0  0  0  0
  9  7  1  0  0  0  0
 10 11  1  0  0  0  0
 11  7  1  0  0  0  0
 11  3  2  0  0  0  0
 12 13  2  0  0  0  0
 14 17  1  1  0  0  0
 15  1  1  6  0  0  0
 15 14  1  0  0  0  0
 16 15  1  0  0  0  0
 16 14  1  0  0  0  0
 17 18  1  0  0  0  0
 18 19  1  0  0  0  0
 19 20  1  0  0  0  0
 20 21  1  0  0  0  0
 22 21  1  6  0  0  0
 23 26  1  1  0  0  0
 23 25  1  0  0  0  0
 23 24  1  0  0  0  0
 24 22  1  0  0  0  0
 24 32  1  1  0  0  0
 25 24  1  0  0  0  0
 25 22  1  0  0  0  0
 26 31  1  0  0  0  0
 27 31  1  0  0  0  0
 28 29  1  0  0  0  0
 28 30  1  0  0  0  0
 29 27  1  0  0  0  0
 30 26  2  0  0  0  0
 32 34  1  0  0  0  0
 34 33  1  0  0  0  0
 36 39  1  0  0  0  0
 36 35  1  0  0  0  0
 37 38  2  0  0  0  0
 38 42  1  0  0  0  0
 38 41  1  0  0  0  0
 39 41  1  0  0  0  0
 40 37  1  0  0  0  0
 40 39  1  0  0  0  0
 42 43  1  0  0  0  0
M  END
>  <MODEL>
6

>  <REMARK>
 VINA RESULT:      -6.5      3.434      7.032
  Name = 
  15 active torsions:
  status: ('A' for Active; 'I' for Inactive)
    1  A    between atoms: C_1  and  C_34
    2  A    between atoms: C_1  and  C_35
    3  A    between atoms: C_2  and  C_7
    4  A    between atoms: C_2  and  O_12
    5  A    between atoms: O_3  and  C_4
    6  A    between atoms: O_3  and  C_17
    7  A    between atoms: C_6  and  O_12
    8  A    between atoms: C_7  and  C_17
    9  A    between atoms: C_8  and  C_34
   10  A    between atoms: C_10  and  C_22
   11  A    between atoms: C_10  and  O_42
   12  A    between atoms: C_11  and  C_14
   13  A    between atoms: C_13  and  C_34
   14  A    between atoms: C_19  and  O_25
   15  A    between atoms: N_28  and  C_35
                            x       y       z     vdW  Elec       q    Type
                         _______ _______ _______ _____ _____    ______ ____

>  <TORSDO>
F 15

$$$$
=
 OpenBabel10272414243D

 43 49  0  0  1  0  0  0  0  0999 V2000
  183.8890  178.8550  141.5210 C   0  0  1  0  0  3  0  0  0  0  0  0
  187.0880  178.0360  147.2240 C   0  0  0  0  0  0  0  0  0  0  0  0
  184.8050  178.5570  142.6850 C   0  0  0  0  0  0  0  0  0  0  0  0
  186.5040  177.9110  144.8280 C   0  0  0  0  0  0  0  0  0  0  0  0
  185.8400  178.6780  147.4780 N   0  0  0  0  0  2  0  0  0  0  0  0
  187.9190  177.8720  148.1550 O   0  0  0  0  0  0  0  0  0  0  0  0
  185.2350  178.4720  145.0880 C   0  0  0  0  0  0  0  0  0  0  0  0
  187.4050  177.6230  145.8990 N   0  0  0  0  0  2  0  0  0  0  0  0
  184.7470  178.6160  146.5120 C   0  0  0  0  0  2  0  0  0  0  0  0
  183.0320  179.3830  144.2710 C   0  0  0  0  0  1  0  0  0  0  0  0
  184.3820  178.7890  144.0100 C   0  0  0  0  0  0  0  0  0  0  0  0
  186.0690  177.9920  142.4550 C   0  0  0  0  0  3  0  0  0  0  0  0
  186.9110  177.6760  143.5170 C   0  0  0  0  0  3  0  0  0  0  0  0
  185.2860  178.7780  139.4810 C   0  0  2  0  0  3  0  0  0  0  0  0
  184.2190  178.0440  140.2710 C   0  0  2  0  0  3  0  0  0  0  0  0
  183.8430  178.8170  139.0240 C   0  0  0  0  0  2  0  0  0  0  0  0
  185.9990  177.8540  138.7160 O   0  0  0  0  0  0  0  0  0  0  0  0
  185.9230  178.3420  137.4100 C   0  0  0  0  0  2  0  0  0  0  0  0
  187.3010  178.7750  136.9440 C   0  0  0  0  0  2  0  0  0  0  0  0
  188.1880  177.5620  136.7350 C   0  0  0  0  0  2  0  0  0  0  0  0
  188.4540  176.9560  137.9650 O   0  0  0  0  0  0  0  0  0  0  0  0
  189.6690  177.5030  138.3840 C   0  0  2  0  0  3  0  0  0  0  0  0
  189.3380  176.9010  140.7940 C   0  0  2  0  0  3  0  0  0  0  0  0
  190.2130  176.6990  139.5470 C   0  0  2  0  0  0  0  0  0  0  0  0
  189.5370  178.0330  139.8000 C   0  0  1  0  0  3  0  0  0  0  0  0
  190.0850  177.1550  142.0790 C   0  0  0  0  0  0  0  0  0  0  0  0
  191.3930  176.3410  144.0950 C   0  0  0  0  0  2  0  0  0  0  0  0
  190.9060  178.7560  143.8210 C   0  0  0  0  0  2  0  0  0  0  0  0
  190.8840  177.5890  144.8020 C   0  0  0  0  0  2  0  0  0  0  0  0
  190.2020  178.4170  142.5330 C   0  0  0  0  0  3  0  0  0  0  0  0
  190.4450  175.9750  142.9540 C   0  0  0  0  0  2  0  0  0  0  0  0
  191.7130  176.9220  139.7030 C   0  0  0  0  0  2  0  0  0  0  0  0
  193.7300  176.6100  138.8580 C   0  0  0  0  0  1  0  0  0  0  0  0
  192.3740  176.4890  138.5530 O   0  0  0  0  0  0  0  0  0  0  0  0
  182.4030  178.7850  141.8890 C   0  0  0  0  0  2  0  0  0  0  0  0
  181.5780  177.9330  140.9300 C   0  0  0  0  0  2  0  0  0  0  0  0
  180.1800  180.8880  140.2630 N   0  0  0  0  0  0  0  0  0  0  0  0
  180.1290  180.2990  139.1260 C   0  0  0  0  0  0  0  0  0  0  0  0
  180.2960  178.5680  140.6660 N   0  0  0  0  0  0  0  0  0  0  0  0
  180.3190  179.8910  141.3070 C   0  0  0  0  0  2  0  0  0  0  0  0
  180.2320  178.8350  139.2300 C   0  0  0  0  0  2  0  0  0  0  0  0
  179.9980  180.9780  137.9150 O   0  0  0  0  0  0  0  0  0  0  0  0
  180.4000  182.3320  137.7640 C   0  0  0  0  0  1  0  0  0  0  0  0
  1 35  1  1  0  0  0
  1  3  1  0  0  0  0
  2  5  1  0  0  0  0
  2  6  2  0  0  0  0
  3 11  1  0  0  0  0
  4  7  1  0  0  0  0
  4  8  1  0  0  0  0
  7  9  1  0  0  0  0
  8  2  1  0  0  0  0
  9  5  1  0  0  0  0
 11 10  1  0  0  0  0
 11  7  2  0  0  0  0
 12  3  2  0  0  0  0
 12 13  1  0  0  0  0
 13  4  2  0  0  0  0
 14 17  1  6  0  0  0
 14 15  1  0  0  0  0
 15  1  1  1  0  0  0
 16 14  1  0  0  0  0
 16 15  1  0  0  0  0
 18 17  1  0  0  0  0
 19 18  1  0  0  0  0
 20 19  1  0  0  0  0
 20 21  1  0  0  0  0
 22 21  1  1  0  0  0
 22 24  1  0  0  0  0
 22 25  1  0  0  0  0
 23 26  1  1  0  0  0
 24 32  1  1  0  0  0
 24 25  1  0  0  0  0
 24 23  1  0  0  0  0
 25 23  1  0  0  0  0
 26 30  2  0  0  0  0
 26 31  1  0  0  0  0
 27 29  1  0  0  0  0
 28 29  1  0  0  0  0
 30 28  1  0  0  0  0
 31 27  1  0  0  0  0
 34 33  1  0  0  0  0
 34 32  1  0  0  0  0
 36 35  1  0  0  0  0
 37 40  1  0  0  0  0
 38 41  1  0  0  0  0
 38 37  2  0  0  0  0
 39 36  1  0  0  0  0
 39 40  1  0  0  0  0
 41 39  1  0  0  0  0
 42 38  1  0  0  0  0
 43 42  1  0  0  0  0
M  END
>  <MODEL>
7

>  <REMARK>
 VINA RESULT:      -6.4      1.722      2.754
  Name = 
  15 active torsions:
  status: ('A' for Active; 'I' for Inactive)
    1  A    between atoms: C_1  and  C_34
    2  A    between atoms: C_1  and  C_35
    3  A    between atoms: C_2  and  C_7
    4  A    between atoms: C_2  and  O_12
    5  A    between atoms: O_3  and  C_4
    6  A    between atoms: O_3  and  C_17
    7  A    between atoms: C_6  and  O_12
    8  A    between atoms: C_7  and  C_17
    9  A    between atoms: C_8  and  C_34
   10  A    between atoms: C_10  and  C_22
   11  A    between atoms: C_10  and  O_42
   12  A    between atoms: C_11  and  C_14
   13  A    between atoms: C_13  and  C_34
   14  A    between atoms: C_19  and  O_25
   15  A    between atoms: N_28  and  C_35
                            x       y       z     vdW  Elec       q    Type
                         _______ _______ _______ _____ _____    ______ ____

>  <TORSDO>
F 15

$$$$
=
 OpenBabel10272414243D

 43 49  0  0  1  0  0  0  0  0999 V2000
  190.4660  177.2470  139.2740 C   0  0  1  0  0  3  0  0  0  0  0  0
  193.9030  172.9050  135.7010 C   0  0  0  0  0  0  0  0  0  0  0  0
  191.0250  176.1430  138.4070 C   0  0  0  0  0  0  0  0  0  0  0  0
  192.0300  174.0280  136.8520 C   0  0  0  0  0  0  0  0  0  0  0  0
  194.8020  173.8500  136.2780 N   0  0  0  0  0  2  0  0  0  0  0  0
  194.3240  172.0420  134.8880 O   0  0  0  0  0  0  0  0  0  0  0  0
  192.9260  174.9130  137.4900 C   0  0  0  0  0  0  0  0  0  0  0  0
  192.5160  172.9770  136.0170 N   0  0  0  0  0  2  0  0  0  0  0  0
  194.4150  174.6560  137.4320 C   0  0  0  0  0  2  0  0  0  0  0  0
  193.3590  176.9160  138.9580 C   0  0  0  0  0  1  0  0  0  0  0  0
  192.4190  175.9700  138.2740 C   0  0  0  0  0  0  0  0  0  0  0  0
  190.1560  175.2460  137.7680 C   0  0  0  0  0  3  0  0  0  0  0  0
  190.6550  174.2000  136.9960 C   0  0  0  0  0  3  0  0  0  0  0  0
  188.2460  178.0410  138.5250 C   0  0  2  0  0  3  0  0  0  0  0  0
  188.9620  177.1290  139.5030 C   0  0  2  0  0  3  0  0  0  0  0  0
  188.3930  178.4510  139.9750 C   0  0  0  0  0  2  0  0  0  0  0  0
  186.9600  177.5470  138.3020 O   0  0  0  0  0  0  0  0  0  0  0  0
  186.6580  177.9220  136.9930 C   0  0  0  0  0  2  0  0  0  0  0  0
  185.8100  176.8490  136.3340 C   0  0  0  0  0  2  0  0  0  0  0  0
  184.3510  177.2660  136.3280 C   0  0  0  0  0  2  0  0  0  0  0  0
  183.7140  176.7640  137.4650 O   0  0  0  0  0  0  0  0  0  0  0  0
  182.9850  177.8380  137.9780 C   0  0  2  0  0  3  0  0  0  0  0  0
  183.9690  177.6690  140.2770 C   0  0  2  0  0  3  0  0  0  0  0  0
  183.8060  178.5530  139.0310 C   0  0  2  0  0  0  0  0  0  0  0  0
  182.6940  177.6120  139.4500 C   0  0  1  0  0  3  0  0  0  0  0  0
  183.7410  178.3580  141.5980 C   0  0  0  0  0  0  0  0  0  0  0  0
  184.6010  179.5320  143.6770 C   0  0  0  0  0  2  0  0  0  0  0  0
  182.1690  179.1470  143.3810 C   0  0  0  0  0  2  0  0  0  0  0  0
  183.3350  179.0330  144.3590 C   0  0  0  0  0  2  0  0  0  0  0  0
  182.4830  178.4980  142.0590 C   0  0  0  0  0  3  0  0  0  0  0  0
  184.9330  178.6300  142.4890 C   0  0  0  0  0  2  0  0  0  0  0  0
  183.2940  179.9730  139.2440 C   0  0  0  0  0  2  0  0  0  0  0  0
  181.7860  181.3900  138.4710 C   0  0  0  0  0  1  0  0  0  0  0  0
  181.9600  180.0560  138.8420 O   0  0  0  0  0  0  0  0  0  0  0  0
  191.2430  177.4410  140.5800 C   0  0  0  0  0  2  0  0  0  0  0  0
  190.6090  176.7400  141.7770 C   0  0  0  0  0  2  0  0  0  0  0  0
  189.8540  176.9080  145.0220 N   0  0  0  0  0  0  0  0  0  0  0  0
  191.1080  177.1690  145.0200 C   0  0  0  0  0  0  0  0  0  0  0  0
  190.4070  177.6840  142.8660 N   0  0  0  0  0  0  0  0  0  0  0  0
  189.3140  177.1650  143.7010 C   0  0  0  0  0  2  0  0  0  0  0  0
  191.5990  177.6300  143.7110 C   0  0  0  0  0  2  0  0  0  0  0  0
  191.9250  177.0240  146.1410 O   0  0  0  0  0  0  0  0  0  0  0  0
  191.5180  176.2740  147.2760 C   0  0  0  0  0  1  0  0  0  0  0  0
  1 35  1  1  0  0  0
  2  8  1  0  0  0  0
  2  5  1  0  0  0  0
  3  1  1  0  0  0  0
  4 13  2  0  0  0  0
  4  7  1  0  0  0  0
  5  9  1  0  0  0  0
  6  2  2  0  0  0  0
  7 11  2  0  0  0  0
  8  4  1  0  0  0  0
  9  7  1  0  0  0  0
 11  3  1  0  0  0  0
 11 10  1  0  0  0  0
 12  3  2  0  0  0  0
 13 12  1  0  0  0  0
 14 17  1  1  0  0  0
 14 15  1  0  0  0  0
 14 16  1  0  0  0  0
 15  1  1  6  0  0  0
 15 16  1  0  0  0  0
 18 17  1  0  0  0  0
 19 18  1  0  0  0  0
 20 19  1  0  0  0  0
 20 21  1  0  0  0  0
 22 21  1  1  0  0  0
 22 24  1  0  0  0  0
 22 25  1  0  0  0  0
 23 26  1  1  0  0  0
 24 32  1  1  0  0  0
 24 25  1  0  0  0  0
 24 23  1  0  0  0  0
 25 23  1  0  0  0  0
 26 30  2  0  0  0  0
 26 31  1  0  0  0  0
 27 29  1  0  0  0  0
 28 29  1  0  0  0  0
 30 28  1  0  0  0  0
 31 27  1  0  0  0  0
 33 34  1  0  0  0  0
 34 32  1  0  0  0  0
 35 36  1  0  0  0  0
 36 39  1  0  0  0  0
 38 37  2  0  0  0  0
 38 42  1  0  0  0  0
 39 40  1  0  0  0  0
 39 41  1  0  0  0  0
 40 37  1  0  0  0  0
 41 38  1  0  0  0  0
 42 43  1  0  0  0  0
M  END
>  <MODEL>
8

>  <REMARK>
 VINA RESULT:      -6.4      3.663     10.131
  Name = 
  15 active torsions:
  status: ('A' for Active; 'I' for Inactive)
    1  A    between atoms: C_1  and  C_34
    2  A    between atoms: C_1  and  C_35
    3  A    between atoms: C_2  and  C_7
    4  A    between atoms: C_2  and  O_12
    5  A    between atoms: O_3  and  C_4
    6  A    between atoms: O_3  and  C_17
    7  A    between atoms: C_6  and  O_12
    8  A    between atoms: C_7  and  C_17
    9  A    between atoms: C_8  and  C_34
   10  A    between atoms: C_10  and  C_22
   11  A    between atoms: C_10  and  O_42
   12  A    between atoms: C_11  and  C_14
   13  A    between atoms: C_13  and  C_34
   14  A    between atoms: C_19  and  O_25
   15  A    between atoms: N_28  and  C_35
                            x       y       z     vdW  Elec       q    Type
                         _______ _______ _______ _____ _____    ______ ____

>  <TORSDO>
F 15

$$$$
=
 OpenBabel10272414243D

 43 49  0  0  1  0  0  0  0  0999 V2000
  189.4020  177.2090  140.1120 C   0  0  1  0  0  3  0  0  0  0  0  0
  188.8800  177.4490  146.6770 C   0  0  0  0  0  0  0  0  0  0  0  0
  189.5200  177.1670  141.6180 C   0  0  0  0  0  0  0  0  0  0  0  0
  189.7540  176.9960  144.4130 C   0  0  0  0  0  0  0  0  0  0  0  0
  187.6700  177.9300  146.0960 N   0  0  0  0  0  2  0  0  0  0  0  0
  189.0520  177.5030  147.9230 O   0  0  0  0  0  0  0  0  0  0  0  0
  188.5280  177.3930  143.8380 C   0  0  0  0  0  0  0  0  0  0  0  0
  189.9120  176.9500  145.8320 N   0  0  0  0  0  2  0  0  0  0  0  0
  187.3150  177.6140  144.7150 C   0  0  0  0  0  2  0  0  0  0  0  0
  187.1150  177.8930  141.8110 C   0  0  0  0  0  1  0  0  0  0  0  0
  188.4120  177.4730  142.4350 C   0  0  0  0  0  0  0  0  0  0  0  0
  190.7250  176.7670  142.2150 C   0  0  0  0  0  3  0  0  0  0  0  0
  190.8410  176.6860  143.6000 C   0  0  0  0  0  3  0  0  0  0  0  0
  187.7810  177.9480  138.3960 C   0  0  2  0  0  3  0  0  0  0  0  0
  188.5810  178.3920  139.6060 C   0  0  2  0  0  3  0  0  0  0  0  0
  189.0280  178.7880  138.2130 C   0  0  0  0  0  2  0  0  0  0  0  0
  186.6480  178.7550  138.2810 O   0  0  0  0  0  0  0  0  0  0  0  0
  186.0320  178.3350  137.1020 C   0  0  0  0  0  2  0  0  0  0  0  0
  186.1280  176.8250  136.9830 C   0  0  0  0  0  2  0  0  0  0  0  0
  184.7450  176.2250  136.8130 C   0  0  0  0  0  2  0  0  0  0  0  0
  183.7910  177.0710  137.3830 O   0  0  0  0  0  0  0  0  0  0  0  0
  183.3460  176.4000  138.5240 C   0  0  2  0  0  3  0  0  0  0  0  0
  182.6910  178.4910  139.7420 C   0  0  2  0  0  3  0  0  0  0  0  0
  182.1950  177.1650  139.1460 C   0  0  2  0  0  0  0  0  0  0  0  0
  183.5810  177.2590  139.7530 C   0  0  1  0  0  3  0  0  0  0  0  0
  182.1780  178.8170  141.1210 C   0  0  0  0  0  0  0  0  0  0  0  0
  182.5160  179.0620  143.6240 C   0  0  0  0  0  2  0  0  0  0  0  0
  180.2890  179.4890  142.6210 C   0  0  0  0  0  2  0  0  0  0  0  0
  181.0260  178.7760  143.7510 C   0  0  0  0  0  2  0  0  0  0  0  0
  180.8900  179.1760  141.2760 C   0  0  0  0  0  3  0  0  0  0  0  0
  183.0410  178.4740  142.3150 C   0  0  0  0  0  2  0  0  0  0  0  0
  181.3710  176.2570  140.0510 C   0  0  0  0  0  2  0  0  0  0  0  0
  179.9850  174.6130  139.5440 C   0  0  0  0  0  1  0  0  0  0  0  0
  180.1350  175.9980  139.4560 O   0  0  0  0  0  0  0  0  0  0  0  0
  190.7510  177.0830  139.3970 C   0  0  0  0  0  2  0  0  0  0  0  0
  190.8940  175.7960  138.5900 C   0  0  0  0  0  2  0  0  0  0  0  0
  194.2130  175.6830  138.2680 N   0  0  0  0  0  0  0  0  0  0  0  0
  193.8480  174.5800  137.7290 C   0  0  0  0  0  0  0  0  0  0  0  0
  191.9630  175.9300  137.6110 N   0  0  0  0  0  0  0  0  0  0  0  0
  193.0890  176.6000  138.2770 C   0  0  0  0  0  2  0  0  0  0  0  0
  192.4400  174.5830  137.3040 C   0  0  0  0  0  2  0  0  0  0  0  0
  194.6990  173.4860  137.5680 O   0  0  0  0  0  0  0  0  0  0  0  0
  195.4460  173.2840  136.3780 C   0  0  0  0  0  1  0  0  0  0  0  0
  1 35  1  6  0  0  0
  1  3  1  0  0  0  0
  2  6  2  0  0  0  0
  3 12  2  0  0  0  0
  3 11  1  0  0  0  0
  4  8  1  0  0  0  0
  5  2  1  0  0  0  0
  7  4  1  0  0  0  0
  7  9  1  0  0  0  0
  8  2  1  0  0  0  0
  9  5  1  0  0  0  0
 10 11  1  0  0  0  0
 11  7  2  0  0  0  0
 12 13  1  0  0  0  0
 13  4  2  0  0  0  0
 14 17  1  1  0  0  0
 14 15  1  0  0  0  0
 15  1  1  6  0  0  0
 16 14  1  0  0  0  0
 16 15  1  0  0  0  0
 18 17  1  0  0  0  0
 19 18  1  0  0  0  0
 20 19  1  0  0  0  0
 20 21  1  0  0  0  0
 22 21  1  6  0  0  0
 22 24  1  0  0  0  0
 22 25  1  0  0  0  0
 23 25  1  0  0  0  0
 23 26  1  1  0  0  0
 24 23  1  0  0  0  0
 24 25  1  0  0  0  0
 24 32  1  1  0  0  0
 26 30  2  0  0  0  0
 26 31  1  0  0  0  0
 27 29  1  0  0  0  0
 28 29  1  0  0  0  0
 30 28  1  0  0  0  0
 31 27  1  0  0  0  0
 34 33  1  0  0  0  0
 34 32  1  0  0  0  0
 36 35  1  0  0  0  0
 37 40  1  0  0  0  0
 38 37  2  0  0  0  0
 39 40  1  0  0  0  0
 39 36  1  0  0  0  0
 41 39  1  0  0  0  0
 41 38  1  0  0  0  0
 42 38  1  0  0  0  0
 43 42  1  0  0  0  0
M  END
>  <MODEL>
9

>  <REMARK>
 VINA RESULT:      -6.4      3.638      9.014
  Name = 
  15 active torsions:
  status: ('A' for Active; 'I' for Inactive)
    1  A    between atoms: C_1  and  C_34
    2  A    between atoms: C_1  and  C_35
    3  A    between atoms: C_2  and  C_7
    4  A    between atoms: C_2  and  O_12
    5  A    between atoms: O_3  and  C_4
    6  A    between atoms: O_3  and  C_17
    7  A    between atoms: C_6  and  O_12
    8  A    between atoms: C_7  and  C_17
    9  A    between atoms: C_8  and  C_34
   10  A    between atoms: C_10  and  C_22
   11  A    between atoms: C_10  and  O_42
   12  A    between atoms: C_11  and  C_14
   13  A    between atoms: C_13  and  C_34
   14  A    between atoms: C_19  and  O_25
   15  A    between atoms: N_28  and  C_35
                            x       y       z     vdW  Elec       q    Type
                         _______ _______ _______ _____ _____    ______ ____

>  <TORSDO>
F 15

$$$$
