=
 OpenBabel10272402033D

 28 30  0  0  1  0  0  0  0  0999 V2000
  180.0710  181.1350  140.2680 O   0  0  0  0  0  1  0  0  0  0  0  0
  182.2940  178.8620  141.1200 C   0  0  1  0  0  3  0  0  0  0  0  0
  180.1400  177.9670  141.7670 O   0  0  0  0  0  1  0  0  0  0  0  0
  180.7050  179.2770  138.8060 C   0  0  2  0  0  3  0  0  0  0  0  0
  182.5370  177.8970  139.9510 C   0  0  0  0  0  2  0  0  0  0  0  0
  180.1190  179.7430  140.1640 C   0  0  1  0  0  3  0  0  0  0  0  0
  180.8050  179.1390  141.3960 C   0  0  2  0  0  3  0  0  0  0  0  0
  181.3950  177.9010  138.9180 C   0  0  2  0  0  3  0  0  0  0  0  0
  181.8390  177.3290  137.5620 C   0  0  1  0  0  3  0  0  0  0  0  0
  183.1630  176.5580  137.6910 C   0  0  1  0  0  3  0  0  0  0  0  0
  183.0030  175.0620  137.7950 C   0  0  0  0  0  0  0  0  0  0  0  0
  181.5950  173.6770  136.2370 C   0  0  0  0  0  1  0  0  0  0  0  0
  181.6600  174.4080  137.5710 C   0  0  2  0  0  3  0  0  0  0  0  0
  180.5660  175.2870  137.7500 O   0  0  0  0  0  0  0  0  0  0  0  0
  180.7560  176.4320  136.9520 C   0  0  0  0  0  2  0  0  0  0  0  0
  183.9690  174.3690  138.0720 O   0  0  0  0  0  0  0  0  0  0  0  0
  184.3560  177.0440  136.3930 S   0  0  0  0  0  0  0  0  0  0  0  0
  185.7330  177.3980  137.5270 C   0  0  0  0  0  1  0  0  0  0  0  0
  182.4720  178.9910  143.6540 C   0  0  0  0  0  2  0  0  0  0  0  0
  184.5630  178.9940  142.2690 C   0  0  0  0  0  0  0  0  0  0  0  0
  184.6820  178.9620  144.7580 C   0  0  0  0  0  0  0  0  0  0  0  0
  183.1350  178.5050  142.3560 C   0  0  2  0  0  3  0  0  0  0  0  0
  185.3060  179.1450  143.4820 N   0  0  0  0  0  2  0  0  0  0  0  0
  185.3870  178.9450  140.8520 S   0  0  0  0  0  0  0  0  0  0  0  0
  185.5220  178.8620  145.9800 C   0  0  0  0  0  1  0  0  0  0  0  0
  183.3600  178.8220  144.8520 C   0  0  0  0  0  3  0  0  0  0  0  0
  181.5430  180.3330  138.0680 C   0  0  0  0  0  2  0  0  0  0  0  0
  180.9210  180.7500  136.8900 O   0  0  0  0  0  1  0  0  0  0  0  0
  2  5  1  6  0  0  0
  2  7  1  0  0  0  0
  2 22  1  0  0  0  0
  4 27  1  1  0  0  0
  4  8  1  0  0  0  0
  4  6  1  0  0  0  0
  6  1  1  1  0  0  0
  6  7  1  0  0  0  0
  7  3  1  6  0  0  0
  8  5  1  1  0  0  0
  9 15  1  1  0  0  0
  9 10  1  0  0  0  0
  9  8  1  0  0  0  0
 10 17  1  6  0  0  0
 10 11  1  0  0  0  0
 11 16  2  0  0  0  0
 13 12  1  6  0  0  0
 13 14  1  0  0  0  0
 13 11  1  0  0  0  0
 15 14  1  0  0  0  0
 17 18  1  0  0  0  0
 19 26  1  0  0  0  0
 20 22  1  0  0  0  0
 20 23  1  0  0  0  0
 21 26  2  0  0  0  0
 21 25  1  0  0  0  0
 22 19  1  1  0  0  0
 23 21  1  0  0  0  0
 24 20  2  0  0  0  0
 28 27  1  0  0  0  0
M  END
>  <MODEL>
1

>  <REMARK>
 VINA RESULT:      -6.2      0.000      0.000
  Name = 
  4 active torsions:
  status: ('A' for Active; 'I' for Inactive)
    1  A    between atoms: C_1  and  C_27
    2  A    between atoms: C_2  and  S_7
    3  A    between atoms: C_10  and  C_13
    4  A    between atoms: C_16  and  C_19
                            x       y       z     vdW  Elec       q    Type
                         _______ _______ _______ _____ _____    ______ ____

>  <TORSDO>
F 4

$$$$
=
 OpenBabel10272402033D

 28 30  0  0  1  0  0  0  0  0999 V2000
  189.3190  179.8650  137.3090 O   0  0  0  0  0  1  0  0  0  0  0  0
  189.4040  177.1860  139.2190 C   0  0  1  0  0  3  0  0  0  0  0  0
  187.4100  178.3990  139.8590 O   0  0  0  0  0  1  0  0  0  0  0  0
  188.1850  177.7760  136.7260 C   0  0  2  0  0  3  0  0  0  0  0  0
  188.6820  176.0210  138.5260 C   0  0  0  0  0  2  0  0  0  0  0  0
  188.3550  178.9460  137.7290 C   0  0  1  0  0  3  0  0  0  0  0  0
  188.6250  178.5120  139.1760 C   0  0  2  0  0  3  0  0  0  0  0  0
  187.7120  176.4830  137.4230 C   0  0  2  0  0  3  0  0  0  0  0  0
  187.3710  175.3510  136.4420 C   0  0  1  0  0  3  0  0  0  0  0  0
  187.1030  174.0330  137.1860 C   0  0  1  0  0  3  0  0  0  0  0  0
  185.6410  173.7230  137.3960 C   0  0  0  0  0  0  0  0  0  0  0  0
  183.9020  173.8080  135.5800 C   0  0  0  0  0  1  0  0  0  0  0  0
  184.5700  174.5520  136.7290 C   0  0  2  0  0  3  0  0  0  0  0  0
  185.0090  175.8410  136.3430 O   0  0  0  0  0  0  0  0  0  0  0  0
  186.1730  175.7180  135.5590 C   0  0  0  0  0  2  0  0  0  0  0  0
  185.3180  172.7960  138.1200 O   0  0  0  0  0  0  0  0  0  0  0  0
  188.0100  172.6350  136.4320 S   0  0  0  0  0  0  0  0  0  0  0  0
  189.2970  173.6510  135.6430 C   0  0  0  0  0  1  0  0  0  0  0  0
  189.0060  177.2150  141.7310 C   0  0  0  0  0  2  0  0  0  0  0  0
  191.3540  177.3090  140.8530 C   0  0  0  0  0  0  0  0  0  0  0  0
  190.9120  177.1790  143.3030 C   0  0  0  0  0  0  0  0  0  0  0  0
  189.9550  176.7930  140.5990 C   0  0  2  0  0  3  0  0  0  0  0  0
  191.8010  177.4240  142.2070 N   0  0  0  0  0  2  0  0  0  0  0  0
  192.4750  177.3320  139.6570 S   0  0  0  0  0  0  0  0  0  0  0  0
  191.4590  177.0440  144.6770 C   0  0  0  0  0  1  0  0  0  0  0  0
  189.6060  177.0130  143.0910 C   0  0  0  0  0  3  0  0  0  0  0  0
  189.3700  177.5680  135.7690 C   0  0  0  0  0  2  0  0  0  0  0  0
  188.9800  177.6860  134.4350 O   0  0  0  0  0  1  0  0  0  0  0  0
  2  5  1  1  0  0  0
  2 22  1  0  0  0  0
  4 27  1  1  0  0  0
  4  8  1  0  0  0  0
  4  6  1  0  0  0  0
  6  1  1  6  0  0  0
  6  7  1  0  0  0  0
  7  2  1  0  0  0  0
  7  3  1  1  0  0  0
  8  5  1  1  0  0  0
  9 15  1  1  0  0  0
  9 10  1  0  0  0  0
  9  8  1  0  0  0  0
 10 17  1  6  0  0  0
 10 11  1  0  0  0  0
 11 16  2  0  0  0  0
 13 12  1  6  0  0  0
 13 11  1  0  0  0  0
 14 13  1  0  0  0  0
 15 14  1  0  0  0  0
 18 17  1  0  0  0  0
 19 26  1  0  0  0  0
 20 23  1  0  0  0  0
 21 25  1  0  0  0  0
 22 20  1  0  0  0  0
 22 19  1  1  0  0  0
 23 21  1  0  0  0  0
 24 20  2  0  0  0  0
 26 21  2  0  0  0  0
 28 27  1  0  0  0  0
M  END
>  <MODEL>
2

>  <REMARK>
 VINA RESULT:      -5.7      5.647      6.660
  Name = 
  4 active torsions:
  status: ('A' for Active; 'I' for Inactive)
    1  A    between atoms: C_1  and  C_27
    2  A    between atoms: C_2  and  S_7
    3  A    between atoms: C_10  and  C_13
    4  A    between atoms: C_16  and  C_19
                            x       y       z     vdW  Elec       q    Type
                         _______ _______ _______ _____ _____    ______ ____

>  <TORSDO>
F 4

$$$$
=
 OpenBabel10272402033D

 28 30  0  0  1  0  0  0  0  0999 V2000
  187.3120  177.8170  139.1330 O   0  0  0  0  0  1  0  0  0  0  0  0
  185.2850  177.9230  141.7240 C   0  0  1  0  0  3  0  0  0  0  0  0
  186.1700  180.1620  141.4750 O   0  0  0  0  0  1  0  0  0  0  0  0
  184.9520  178.4400  138.9540 C   0  0  2  0  0  3  0  0  0  0  0  0
  183.8580  178.2500  141.2640 C   0  0  0  0  0  2  0  0  0  0  0  0
  186.3470  178.7270  139.5690 C   0  0  1  0  0  3  0  0  0  0  0  0
  186.3610  178.8290  141.0990 C   0  0  2  0  0  3  0  0  0  0  0  0
  183.8080  178.9130  139.8750 C   0  0  2  0  0  3  0  0  0  0  0  0
  182.4180  178.8010  139.2290 C   0  0  1  0  0  3  0  0  0  0  0  0
  181.3050  179.0620  140.2570 C   0  0  1  0  0  3  0  0  0  0  0  0
  180.7440  180.4620  140.2230 C   0  0  0  0  0  0  0  0  0  0  0  0
  179.9820  181.6300  138.1290 C   0  0  0  0  0  1  0  0  0  0  0  0
  181.1210  181.4210  139.1190 C   0  0  2  0  0  3  0  0  0  0  0  0
  182.3340  181.0900  138.4720 O   0  0  0  0  0  0  0  0  0  0  0  0
  182.2770  179.7520  138.0360 C   0  0  0  0  0  2  0  0  0  0  0  0
  179.9820  180.8280  141.1030 O   0  0  0  0  0  0  0  0  0  0  0  0
  179.9980  177.7850  140.1770 S   0  0  0  0  0  0  0  0  0  0  0  0
  181.1280  176.3740  139.9720 C   0  0  0  0  0  1  0  0  0  0  0  0
  184.5800  178.8200  143.9970 C   0  0  0  0  0  2  0  0  0  0  0  0
  186.8060  177.6890  143.7540 C   0  0  0  0  0  0  0  0  0  0  0  0
  185.9980  178.4470  145.9870 C   0  0  0  0  0  0  0  0  0  0  0  0
  185.3820  177.7450  143.2470 C   0  0  2  0  0  3  0  0  0  0  0  0
  187.0500  177.9860  145.1320 N   0  0  0  0  0  2  0  0  0  0  0  0
  187.9730  176.9110  142.9050 S   0  0  0  0  0  0  0  0  0  0  0  0
  186.2100  178.4920  147.4560 C   0  0  0  0  0  1  0  0  0  0  0  0
  184.8100  178.7800  145.4800 C   0  0  0  0  0  3  0  0  0  0  0  0
  184.7650  177.0130  138.4150 C   0  0  0  0  0  2  0  0  0  0  0  0
  184.6210  177.0030  137.0270 O   0  0  0  0  0  1  0  0  0  0  0  0
  2  5  1  1  0  0  0
  2 22  1  0  0  0  0
  4 27  1  1  0  0  0
  4  6  1  0  0  0  0
  4  8  1  0  0  0  0
  6  1  1  1  0  0  0
  6  7  1  0  0  0  0
  7  3  1  6  0  0  0
  7  2  1  0  0  0  0
  8  5  1  1  0  0  0
  9 15  1  6  0  0  0
  9  8  1  0  0  0  0
  9 10  1  0  0  0  0
 10 17  1  6  0  0  0
 11 10  1  0  0  0  0
 11 16  2  0  0  0  0
 13 12  1  6  0  0  0
 13 11  1  0  0  0  0
 14 13  1  0  0  0  0
 15 14  1  0  0  0  0
 18 17  1  0  0  0  0
 19 26  1  0  0  0  0
 20 23  1  0  0  0  0
 21 25  1  0  0  0  0
 22 20  1  0  0  0  0
 22 19  1  1  0  0  0
 23 21  1  0  0  0  0
 24 20  2  0  0  0  0
 26 21  2  0  0  0  0
 28 27  1  0  0  0  0
M  END
>  <MODEL>
3

>  <REMARK>
 VINA RESULT:      -5.4      2.557      4.933
  Name = 
  4 active torsions:
  status: ('A' for Active; 'I' for Inactive)
    1  A    between atoms: C_1  and  C_27
    2  A    between atoms: C_2  and  S_7
    3  A    between atoms: C_10  and  C_13
    4  A    between atoms: C_16  and  C_19
                            x       y       z     vdW  Elec       q    Type
                         _______ _______ _______ _____ _____    ______ ____

>  <TORSDO>
F 4

$$$$
=
 OpenBabel10272402033D

 28 30  0  0  1  0  0  0  0  0999 V2000
  185.9210  177.9540  143.1460 O   0  0  0  0  0  1  0  0  0  0  0  0
  189.1620  177.6640  143.6460 C   0  0  1  0  0  3  0  0  0  0  0  0
  188.3000  175.4060  143.5210 O   0  0  0  0  0  1  0  0  0  0  0  0
  187.5360  177.7260  141.3210 C   0  0  2  0  0  3  0  0  0  0  0  0
  189.9020  177.6400  142.3010 C   0  0  0  0  0  2  0  0  0  0  0  0
  186.9130  177.1290  142.6100 C   0  0  1  0  0  3  0  0  0  0  0  0
  187.9300  176.7430  143.6910 C   0  0  2  0  0  3  0  0  0  0  0  0
  188.9930  177.2600  141.1180 C   0  0  2  0  0  3  0  0  0  0  0  0
  189.5890  177.6920  139.7680 C   0  0  1  0  0  3  0  0  0  0  0  0
  190.5040  176.6010  139.1900 C   0  0  1  0  0  3  0  0  0  0  0  0
  189.8500  175.7310  138.1450 C   0  0  0  0  0  0  0  0  0  0  0  0
  188.5650  176.6140  136.1710 C   0  0  0  0  0  1  0  0  0  0  0  0
  188.4870  176.0740  137.5930 C   0  0  2  0  0  3  0  0  0  0  0  0
  187.7290  176.9160  138.4410 O   0  0  0  0  0  0  0  0  0  0  0  0
  188.4910  178.0560  138.7630 C   0  0  0  0  0  2  0  0  0  0  0  0
  190.4250  174.7310  137.7460 O   0  0  0  0  0  0  0  0  0  0  0  0
  192.1010  177.2880  138.6240 S   0  0  0  0  0  0  0  0  0  0  0  0
  192.8960  177.2880  140.2610 C   0  0  0  0  0  1  0  0  0  0  0  0
  191.2000  176.4760  144.5960 C   0  0  0  0  0  2  0  0  0  0  0  0
  189.4070  177.2870  146.1520 C   0  0  0  0  0  0  0  0  0  0  0  0
  191.4960  176.2560  147.0400 C   0  0  0  0  0  0  0  0  0  0  0  0
  190.1190  177.5390  144.8420 C   0  0  2  0  0  3  0  0  0  0  0  0
  190.1490  176.7060  147.2290 N   0  0  0  0  0  2  0  0  0  0  0  0
  187.9850  178.0250  146.4960 S   0  0  0  0  0  0  0  0  0  0  0  0
  192.3280  175.9080  148.2210 C   0  0  0  0  0  1  0  0  0  0  0  0
  192.0280  176.2040  145.8180 C   0  0  0  0  0  3  0  0  0  0  0  0
  187.3370  179.2400  141.1490 C   0  0  0  0  0  2  0  0  0  0  0  0
  186.0450  179.5430  140.7190 O   0  0  0  0  0  1  0  0  0  0  0  0
  2  5  1  6  0  0  0
  2  7  1  0  0  0  0
  2 22  1  0  0  0  0
  4 27  1  1  0  0  0
  4  6  1  0  0  0  0
  6  1  1  1  0  0  0
  6  7  1  0  0  0  0
  7  3  1  6  0  0  0
  8  4  1  0  0  0  0
  8  5  1  1  0  0  0
  9 15  1  6  0  0  0
  9  8  1  0  0  0  0
 10 17  1  6  0  0  0
 10  9  1  0  0  0  0
 11 10  1  0  0  0  0
 13 12  1  6  0  0  0
 13 11  1  0  0  0  0
 13 14  1  0  0  0  0
 14 15  1  0  0  0  0
 16 11  2  0  0  0  0
 17 18  1  0  0  0  0
 19 26  1  0  0  0  0
 20 24  2  0  0  0  0
 20 23  1  0  0  0  0
 21 23  1  0  0  0  0
 21 25  1  0  0  0  0
 22 19  1  6  0  0  0
 22 20  1  0  0  0  0
 26 21  2  0  0  0  0
 28 27  1  0  0  0  0
M  END
>  <MODEL>
4

>  <REMARK>
 VINA RESULT:      -5.3      5.980      7.550
  Name = 
  4 active torsions:
  status: ('A' for Active; 'I' for Inactive)
    1  A    between atoms: C_1  and  C_27
    2  A    between atoms: C_2  and  S_7
    3  A    between atoms: C_10  and  C_13
    4  A    between atoms: C_16  and  C_19
                            x       y       z     vdW  Elec       q    Type
                         _______ _______ _______ _____ _____    ______ ____

>  <TORSDO>
F 4

$$$$
=
 OpenBabel10272402033D

 28 30  0  0  1  0  0  0  0  0999 V2000
  187.6370  178.9190  141.3210 O   0  0  0  0  0  1  0  0  0  0  0  0
  190.4850  177.3760  141.9040 C   0  0  1  0  0  3  0  0  0  0  0  0
  188.7590  175.6920  142.1080 O   0  0  0  0  0  1  0  0  0  0  0  0
  188.9170  177.7790  139.5740 C   0  0  2  0  0  3  0  0  0  0  0  0
  191.0810  176.8530  140.5890 C   0  0  0  0  0  2  0  0  0  0  0  0
  188.1680  177.6880  140.9290 C   0  0  1  0  0  3  0  0  0  0  0  0
  188.9860  177.0700  142.0700 C   0  0  2  0  0  3  0  0  0  0  0  0
  190.0380  176.7240  139.4640 C   0  0  2  0  0  3  0  0  0  0  0  0
  190.6910  176.6710  138.0740 C   0  0  1  0  0  3  0  0  0  0  0  0
  191.7110  175.5240  137.9830 C   0  0  1  0  0  3  0  0  0  0  0  0
  191.1840  174.2750  137.3200 C   0  0  0  0  0  0  0  0  0  0  0  0
  189.9760  174.2460  135.1140 C   0  0  0  0  0  1  0  0  0  0  0  0
  189.8410  174.2710  136.6300 C   0  0  2  0  0  3  0  0  0  0  0  0
  188.9760  175.3000  137.0700 O   0  0  0  0  0  0  0  0  0  0  0  0
  189.6390  176.5390  136.9660 C   0  0  0  0  0  2  0  0  0  0  0  0
  191.8480  173.2520  137.3470 O   0  0  0  0  0  0  0  0  0  0  0  0
  193.2940  176.0840  137.2570 S   0  0  0  0  0  0  0  0  0  0  0  0
  194.3580  175.0460  138.3060 C   0  0  0  0  0  1  0  0  0  0  0  0
  191.2150  175.5620  143.5310 C   0  0  0  0  0  2  0  0  0  0  0  0
  191.1270  177.9470  144.3020 C   0  0  0  0  0  0  0  0  0  0  0  0
  191.9820  176.1520  145.8050 C   0  0  0  0  0  0  0  0  0  0  0  0
  191.3620  177.0340  143.1190 C   0  0  2  0  0  3  0  0  0  0  0  0
  191.5070  177.4880  145.6020 N   0  0  0  0  0  2  0  0  0  0  0  0
  190.8570  179.5500  144.0900 S   0  0  0  0  0  0  0  0  0  0  0  0
  192.6150  175.7850  147.0980 C   0  0  0  0  0  1  0  0  0  0  0  0
  191.9130  175.2520  144.8230 C   0  0  0  0  0  3  0  0  0  0  0  0
  189.3570  179.1960  139.1730 C   0  0  0  0  0  2  0  0  0  0  0  0
  188.8900  179.5390  137.9040 O   0  0  0  0  0  1  0  0  0  0  0  0
  2  5  1  6  0  0  0
  2  7  1  0  0  0  0
  2 22  1  0  0  0  0
  4 27  1  1  0  0  0
  4  6  1  0  0  0  0
  6  1  1  1  0  0  0
  6  7  1  0  0  0  0
  7  3  1  6  0  0  0
  8  4  1  0  0  0  0
  8  5  1  1  0  0  0
  9 15  1  6  0  0  0
  9  8  1  0  0  0  0
 10 17  1  6  0  0  0
 10  9  1  0  0  0  0
 11 16  2  0  0  0  0
 11 10  1  0  0  0  0
 13 12  1  6  0  0  0
 13 14  1  0  0  0  0
 13 11  1  0  0  0  0
 15 14  1  0  0  0  0
 17 18  1  0  0  0  0
 19 26  1  0  0  0  0
 20 23  1  0  0  0  0
 21 25  1  0  0  0  0
 22 19  1  1  0  0  0
 22 20  1  0  0  0  0
 23 21  1  0  0  0  0
 24 20  2  0  0  0  0
 26 21  2  0  0  0  0
 28 27  1  0  0  0  0
M  END
>  <MODEL>
5

>  <REMARK>
 VINA RESULT:      -5.2      6.958      8.333
  Name = 
  4 active torsions:
  status: ('A' for Active; 'I' for Inactive)
    1  A    between atoms: C_1  and  C_27
    2  A    between atoms: C_2  and  S_7
    3  A    between atoms: C_10  and  C_13
    4  A    between atoms: C_16  and  C_19
                            x       y       z     vdW  Elec       q    Type
                         _______ _______ _______ _____ _____    ______ ____

>  <TORSDO>
F 4

$$$$
=
 OpenBabel10272402033D

 28 30  0  0  1  0  0  0  0  0999 V2000
  186.3360  178.3290  145.4620 O   0  0  0  0  0  1  0  0  0  0  0  0
  187.6450  178.5210  142.4480 C   0  0  1  0  0  3  0  0  0  0  0  0
  187.3820  176.1610  142.9130 O   0  0  0  0  0  1  0  0  0  0  0  0
  184.9850  178.3530  143.4210 C   0  0  2  0  0  3  0  0  0  0  0  0
  186.5320  178.6140  141.3940 C   0  0  0  0  0  2  0  0  0  0  0  0
  186.0940  177.6630  144.2580 C   0  0  1  0  0  3  0  0  0  0  0  0
  187.4090  177.4270  143.5040 C   0  0  2  0  0  3  0  0  0  0  0  0
  185.1710  178.1100  141.9080 C   0  0  2  0  0  3  0  0  0  0  0  0
  184.0030  178.6330  141.0580 C   0  0  1  0  0  3  0  0  0  0  0  0
  184.3910  178.7210  139.5730 C   0  0  1  0  0  3  0  0  0  0  0  0
  183.9250  177.5540  138.7380 C   0  0  0  0  0  0  0  0  0  0  0  0
  181.5730  176.6620  138.7420 C   0  0  0  0  0  1  0  0  0  0  0  0
  182.9810  176.5230  139.3070 C   0  0  2  0  0  3  0  0  0  0  0  0
  182.9830  176.4720  140.7210 O   0  0  0  0  0  0  0  0  0  0  0  0
  182.7520  177.7640  141.2310 C   0  0  0  0  0  2  0  0  0  0  0  0
  184.3230  177.4370  137.5900 O   0  0  0  0  0  0  0  0  0  0  0  0
  183.9190  180.3320  138.8460 S   0  0  0  0  0  0  0  0  0  0  0  0
  182.1260  180.0190  138.8480 C   0  0  0  0  0  1  0  0  0  0  0  0
  189.0820  177.7610  140.4920 C   0  0  0  0  0  2  0  0  0  0  0  0
  190.1270  178.0390  142.7560 C   0  0  0  0  0  0  0  0  0  0  0  0
  191.5180  177.4470  140.7730 C   0  0  0  0  0  0  0  0  0  0  0  0
  189.0480  178.5340  141.8190 C   0  0  2  0  0  3  0  0  0  0  0  0
  191.3540  177.5680  142.1910 N   0  0  0  0  0  2  0  0  0  0  0  0
  190.0970  178.4130  144.3510 S   0  0  0  0  0  0  0  0  0  0  0  0
  192.8710  177.2150  140.2060 C   0  0  0  0  0  1  0  0  0  0  0  0
  190.4750  177.6000  139.9560 C   0  0  0  0  0  3  0  0  0  0  0  0
  184.7190  179.8220  143.7860 C   0  0  0  0  0  2  0  0  0  0  0  0
  183.4070  180.0120  144.2220 O   0  0  0  0  0  1  0  0  0  0  0  0
  2  5  1  6  0  0  0
  2  7  1  0  0  0  0
  4 27  1  6  0  0  0
  4  6  1  0  0  0  0
  6  1  1  1  0  0  0
  7  3  1  6  0  0  0
  7  6  1  0  0  0  0
  8  5  1  6  0  0  0
  8  4  1  0  0  0  0
  9 15  1  6  0  0  0
  9  8  1  0  0  0  0
 10 17  1  6  0  0  0
 10  9  1  0  0  0  0
 11 13  1  0  0  0  0
 11 10  1  0  0  0  0
 13 12  1  1  0  0  0
 13 14  1  0  0  0  0
 14 15  1  0  0  0  0
 16 11  2  0  0  0  0
 17 18  1  0  0  0  0
 20 24  2  0  0  0  0
 21 23  1  0  0  0  0
 22 19  1  6  0  0  0
 22  2  1  0  0  0  0
 22 20  1  0  0  0  0
 23 20  1  0  0  0  0
 25 21  1  0  0  0  0
 26 19  1  0  0  0  0
 26 21  2  0  0  0  0
 27 28  1  0  0  0  0
M  END
>  <MODEL>
6

>  <REMARK>
 VINA RESULT:      -5.0      4.095      6.075
  Name = 
  4 active torsions:
  status: ('A' for Active; 'I' for Inactive)
    1  A    between atoms: C_1  and  C_27
    2  A    between atoms: C_2  and  S_7
    3  A    between atoms: C_10  and  C_13
    4  A    between atoms: C_16  and  C_19
                            x       y       z     vdW  Elec       q    Type
                         _______ _______ _______ _____ _____    ______ ____

>  <TORSDO>
F 4

$$$$
=
 OpenBabel10272402033D

 28 30  0  0  1  0  0  0  0  0999 V2000
  189.7980  177.7010  134.5540 O   0  0  0  0  0  1  0  0  0  0  0  0
  188.9920  176.5650  137.5370 C   0  0  1  0  0  3  0  0  0  0  0  0
  188.2430  178.8660  137.4730 O   0  0  0  0  0  1  0  0  0  0  0  0
  187.6130  176.7220  135.0620 C   0  0  2  0  0  3  0  0  0  0  0  0
  187.5960  175.9280  137.4990 C   0  0  0  0  0  2  0  0  0  0  0  0
  188.6640  177.8220  135.3620 C   0  0  1  0  0  3  0  0  0  0  0  0
  189.0690  177.9340  136.8370 C   0  0  2  0  0  3  0  0  0  0  0  0
  186.7510  176.3970  136.3010 C   0  0  2  0  0  3  0  0  0  0  0  0
  185.5900  175.4360  136.0010 C   0  0  1  0  0  3  0  0  0  0  0  0
  184.9270  174.9440  137.2970 C   0  0  1  0  0  3  0  0  0  0  0  0
  183.6650  175.6820  137.6690 C   0  0  0  0  0  0  0  0  0  0  0  0
  181.7570  176.1100  136.0860 C   0  0  0  0  0  1  0  0  0  0  0  0
  183.0300  176.6630  136.7130 C   0  0  2  0  0  3  0  0  0  0  0  0
  183.9260  177.1650  135.7400 O   0  0  0  0  0  0  0  0  0  0  0  0
  184.5490  176.0860  135.0820 C   0  0  0  0  0  2  0  0  0  0  0  0
  183.1540  175.4910  138.7610 O   0  0  0  0  0  0  0  0  0  0  0  0
  184.6970  173.1290  137.2910 S   0  0  0  0  0  0  0  0  0  0  0  0
  186.1480  172.7600  136.2580 C   0  0  0  0  0  1  0  0  0  0  0  0
  188.8590  177.3870  139.9400 C   0  0  0  0  0  2  0  0  0  0  0  0
  191.0970  176.8460  138.9430 C   0  0  0  0  0  0  0  0  0  0  0  0
  190.8940  177.5070  141.3390 C   0  0  0  0  0  0  0  0  0  0  0  0
  189.6230  176.5090  138.9370 C   0  0  2  0  0  3  0  0  0  0  0  0
  191.6910  177.2770  140.1710 N   0  0  0  0  0  2  0  0  0  0  0  0
  192.0830  176.3410  137.7350 S   0  0  0  0  0  0  0  0  0  0  0  0
  191.5540  177.6910  142.6560 C   0  0  0  0  0  1  0  0  0  0  0  0
  189.5620  177.4960  141.2620 C   0  0  0  0  0  3  0  0  0  0  0  0
  188.1650  175.4790  134.3460 C   0  0  0  0  0  2  0  0  0  0  0  0
  189.1900  174.8770  135.0770 O   0  0  0  0  0  1  0  0  0  0  0  0
  2  5  1  1  0  0  0
  2 22  1  0  0  0  0
  4 27  1  1  0  0  0
  4  6  1  0  0  0  0
  4  8  1  0  0  0  0
  6  1  1  6  0  0  0
  6  7  1  0  0  0  0
  7  3  1  1  0  0  0
  7  2  1  0  0  0  0
  8  5  1  1  0  0  0
  9 15  1  6  0  0  0
  9  8  1  0  0  0  0
  9 10  1  0  0  0  0
 10 17  1  6  0  0  0
 10 11  1  0  0  0  0
 11 16  2  0  0  0  0
 13 12  1  6  0  0  0
 13 11  1  0  0  0  0
 14 13  1  0  0  0  0
 15 14  1  0  0  0  0
 18 17  1  0  0  0  0
 19 26  1  0  0  0  0
 20 23  1  0  0  0  0
 21 25  1  0  0  0  0
 22 20  1  0  0  0  0
 22 19  1  1  0  0  0
 23 21  1  0  0  0  0
 24 20  2  0  0  0  0
 26 21  2  0  0  0  0
 27 28  1  0  0  0  0
M  END
>  <MODEL>
7

>  <REMARK>
 VINA RESULT:      -5.0      4.700      6.994
  Name = 
  4 active torsions:
  status: ('A' for Active; 'I' for Inactive)
    1  A    between atoms: C_1  and  C_27
    2  A    between atoms: C_2  and  S_7
    3  A    between atoms: C_10  and  C_13
    4  A    between atoms: C_16  and  C_19
                            x       y       z     vdW  Elec       q    Type
                         _______ _______ _______ _____ _____    ______ ____

>  <TORSDO>
F 4

$$$$
=
 OpenBabel10272402033D

 28 30  0  0  1  0  0  0  0  0999 V2000
  189.0570  172.6480  134.3460 O   0  0  0  0  0  1  0  0  0  0  0  0
  186.9300  174.1140  136.3870 C   0  0  1  0  0  3  0  0  0  0  0  0
  187.9220  172.3000  137.6450 O   0  0  0  0  0  1  0  0  0  0  0  0
  189.7060  174.4320  135.8910 C   0  0  2  0  0  3  0  0  0  0  0  0
  187.6280  175.2520  137.1470 C   0  0  0  0  0  2  0  0  0  0  0  0
  189.1050  173.0160  135.6930 C   0  0  1  0  0  3  0  0  0  0  0  0
  187.7380  172.8050  136.3550 C   0  0  2  0  0  3  0  0  0  0  0  0
  189.1610  175.1160  137.1630 C   0  0  2  0  0  3  0  0  0  0  0  0
  189.8570  176.4480  137.4860 C   0  0  1  0  0  3  0  0  0  0  0  0
  188.9380  177.3700  138.3040 C   0  0  1  0  0  3  0  0  0  0  0  0
  189.2060  177.3550  139.7890 C   0  0  0  0  0  0  0  0  0  0  0  0
  191.4840  177.6270  140.8190 C   0  0  0  0  0  1  0  0  0  0  0  0
  190.4150  176.6480  140.3510 C   0  0  2  0  0  3  0  0  0  0  0  0
  190.9420  175.6570  139.4910 O   0  0  0  0  0  0  0  0  0  0  0  0
  191.1810  176.2230  138.2240 C   0  0  0  0  0  2  0  0  0  0  0  0
  188.4300  177.9140  140.5470 O   0  0  0  0  0  0  0  0  0  0  0  0
  188.9020  179.0660  137.6190 S   0  0  0  0  0  0  0  0  0  0  0  0
  187.4820  178.7920  136.5150 C   0  0  0  0  0  1  0  0  0  0  0  0
  185.0480  172.4890  136.9180 C   0  0  0  0  0  2  0  0  0  0  0  0
  184.5080  174.6990  135.8610 C   0  0  0  0  0  0  0  0  0  0  0  0
  182.6920  173.1350  136.5440 C   0  0  0  0  0  0  0  0  0  0  0  0
  185.4540  173.9650  136.7850 C   0  0  2  0  0  3  0  0  0  0  0  0
  183.1380  174.2900  135.8240 N   0  0  0  0  0  2  0  0  0  0  0  0
  184.8990  176.1680  135.2470 S   0  0  0  0  0  0  0  0  0  0  0  0
  181.2360  172.8870  136.7060 C   0  0  0  0  0  1  0  0  0  0  0  0
  183.5710  172.3150  137.1210 C   0  0  0  0  0  3  0  0  0  0  0  0
  189.6750  175.3280  134.6430 C   0  0  0  0  0  2  0  0  0  0  0  0
  190.9390  175.8400  134.3470 O   0  0  0  0  0  1  0  0  0  0  0  0
  2 22  1  0  0  0  0
  2  5  1  1  0  0  0
  4 27  1  6  0  0  0
  4  8  1  0  0  0  0
  6  1  1  6  0  0  0
  6  4  1  0  0  0  0
  6  7  1  0  0  0  0
  7  2  1  0  0  0  0
  7  3  1  1  0  0  0
  8  5  1  6  0  0  0
  8  9  1  0  0  0  0
  9 15  1  1  0  0  0
  9 10  1  0  0  0  0
 10 17  1  6  0  0  0
 10 11  1  0  0  0  0
 11 13  1  0  0  0  0
 11 16  2  0  0  0  0
 13 12  1  6  0  0  0
 14 13  1  0  0  0  0
 15 14  1  0  0  0  0
 18 17  1  0  0  0  0
 19 26  1  0  0  0  0
 20 22  1  0  0  0  0
 21 25  1  0  0  0  0
 21 26  2  0  0  0  0
 22 19  1  6  0  0  0
 23 20  1  0  0  0  0
 23 21  1  0  0  0  0
 24 20  2  0  0  0  0
 28 27  1  0  0  0  0
M  END
>  <MODEL>
8

>  <REMARK>
 VINA RESULT:      -4.9      6.249      9.316
  Name = 
  4 active torsions:
  status: ('A' for Active; 'I' for Inactive)
    1  A    between atoms: C_1  and  C_27
    2  A    between atoms: C_2  and  S_7
    3  A    between atoms: C_10  and  C_13
    4  A    between atoms: C_16  and  C_19
                            x       y       z     vdW  Elec       q    Type
                         _______ _______ _______ _____ _____    ______ ____

>  <TORSDO>
F 4

$$$$
=
 OpenBabel10272402033D

 28 30  0  0  1  0  0  0  0  0999 V2000
  193.2000  176.9830  140.4170 O   0  0  0  0  0  1  0  0  0  0  0  0
  190.0580  176.5160  141.2770 C   0  0  1  0  0  3  0  0  0  0  0  0
  190.3830  178.9140  141.2070 O   0  0  0  0  0  1  0  0  0  0  0  0
  191.3700  176.9140  138.7930 C   0  0  2  0  0  3  0  0  0  0  0  0
  189.1760  176.4260  140.0230 C   0  0  0  0  0  2  0  0  0  0  0  0
  191.9960  177.5840  140.0430 C   0  0  1  0  0  3  0  0  0  0  0  0
  191.0540  177.6880  141.2500 C   0  0  2  0  0  3  0  0  0  0  0  0
  189.8330  177.0470  138.7770 C   0  0  2  0  0  3  0  0  0  0  0  0
  189.1910  176.5450  137.4740 C   0  0  1  0  0  3  0  0  0  0  0  0
  187.7130  176.1790  137.6880 C   0  0  1  0  0  3  0  0  0  0  0  0
  186.7390  177.2490  137.2610 C   0  0  0  0  0  0  0  0  0  0  0  0
  186.8030  178.4130  135.0320 C   0  0  0  0  0  1  0  0  0  0  0  0
  187.2090  178.4650  136.4990 C   0  0  2  0  0  3  0  0  0  0  0  0
  188.5880  178.7350  136.6600 O   0  0  0  0  0  0  0  0  0  0  0  0
  189.3270  177.5770  136.3490 C   0  0  0  0  0  2  0  0  0  0  0  0
  185.5570  177.1360  137.5420 O   0  0  0  0  0  0  0  0  0  0  0  0
  187.3120  174.5450  136.9710 S   0  0  0  0  0  0  0  0  0  0  0  0
  189.0190  173.9160  136.9690 C   0  0  0  0  0  1  0  0  0  0  0  0
  188.0260  177.3100  142.5850 C   0  0  0  0  0  2  0  0  0  0  0  0
  190.0770  176.5640  143.8230 C   0  0  0  0  0  0  0  0  0  0  0  0
  188.0060  177.2040  145.0540 C   0  0  0  0  0  0  0  0  0  0  0  0
  189.2460  176.3760  142.5740 C   0  0  2  0  0  3  0  0  0  0  0  0
  189.4090  176.9150  145.0390 N   0  0  0  0  0  2  0  0  0  0  0  0
  191.6070  175.9830  143.9150 S   0  0  0  0  0  0  0  0  0  0  0  0
  187.2900  177.3010  146.3520 C   0  0  0  0  0  1  0  0  0  0  0  0
  187.3270  177.3270  143.9130 C   0  0  0  0  0  3  0  0  0  0  0  0
  191.8740  175.4910  138.5020 C   0  0  0  0  0  2  0  0  0  0  0  0
  192.6020  175.4360  137.3130 O   0  0  0  0  0  1  0  0  0  0  0  0
  2  5  1  6  0  0  0
  2 22  1  0  0  0  0
  4 27  1  1  0  0  0
  4  6  1  0  0  0  0
  6  1  1  1  0  0  0
  6  7  1  0  0  0  0
  7  3  1  6  0  0  0
  7  2  1  0  0  0  0
  8  4  1  0  0  0  0
  8  5  1  1  0  0  0
  9 15  1  6  0  0  0
  9 10  1  0  0  0  0
  9  8  1  0  0  0  0
 10 17  1  6  0  0  0
 11 16  2  0  0  0  0
 11 10  1  0  0  0  0
 13 12  1  6  0  0  0
 13 14  1  0  0  0  0
 13 11  1  0  0  0  0
 15 14  1  0  0  0  0
 18 17  1  0  0  0  0
 19 26  1  0  0  0  0
 20 24  2  0  0  0  0
 20 23  1  0  0  0  0
 21 25  1  0  0  0  0
 22 19  1  6  0  0  0
 22 20  1  0  0  0  0
 23 21  1  0  0  0  0
 26 21  2  0  0  0  0
 28 27  1  0  0  0  0
M  END
>  <MODEL>
9

>  <REMARK>
 VINA RESULT:      -4.8      5.347      7.969
  Name = 
  4 active torsions:
  status: ('A' for Active; 'I' for Inactive)
    1  A    between atoms: C_1  and  C_27
    2  A    between atoms: C_2  and  S_7
    3  A    between atoms: C_10  and  C_13
    4  A    between atoms: C_16  and  C_19
                            x       y       z     vdW  Elec       q    Type
                         _______ _______ _______ _____ _____    ______ ____

>  <TORSDO>
F 4

$$$$
