=
 OpenBabel10272413173D

 32 33  0  0  1  0  0  0  0  0999 V2000
  186.8740  178.0840  142.5070 C   0  0  2  0  0  3  0  0  0  0  0  0
  184.3140  178.5660  143.0320 C   0  0  1  0  0  3  0  0  0  0  0  0
  184.6840  179.1640  141.6860 C   0  0  0  0  0  2  0  0  0  0  0  0
  185.3780  177.8930  142.1490 C   0  0  1  0  0  3  0  0  0  0  0  0
  184.8400  179.4540  144.1540 C   0  0  0  0  0  2  0  0  0  0  0  0
  185.5130  178.8380  146.4360 C   0  0  0  0  0  2  0  0  0  0  0  0
  184.5800  178.8330  145.4870 C   0  0  0  0  0  3  0  0  0  0  0  0
  187.7080  178.4750  141.3330 C   0  0  0  0  0  0  0  0  0  0  0  0
  188.2660  179.6060  141.2980 O   0  0  0  0  0  0  0  0  0  0  0  0
  187.8280  177.5740  140.2650 O   0  0  0  0  0  0  0  0  0  0  0  0
  188.7170  177.7240  139.1540 C   0  0  1  0  0  3  0  0  0  0  0  0
  189.5130  176.4510  138.8280 C   0  0  1  0  0  3  0  0  0  0  0  0
  189.8010  176.2730  137.3370 C   0  0  0  0  0  1  0  0  0  0  0  0
  190.5850  176.1710  139.7070 O   0  0  0  0  0  0  0  0  0  0  0  0
  191.2370  177.3640  140.0570 C   0  0  0  0  0  1  0  0  0  0  0  0
  188.0490  178.3500  137.9330 C   0  0  0  0  0  2  0  0  0  0  0  0
  186.2290  176.8950  137.4310 O   0  0  0  0  0  0  0  0  0  0  0  0
  185.6550  178.9280  138.3220 O   0  0  0  0  0  1  0  0  0  0  0  0
  186.5990  178.0080  137.8880 C   0  0  0  0  0  0  0  0  0  0  0  0
  187.5700  177.0340  143.3780 C   0  0  0  0  0  2  0  0  0  0  0  0
  189.5540  175.5840  142.8870 C   0  0  0  0  0  1  0  0  0  0  0  0
  189.0710  177.0090  143.1220 C   0  0  2  0  0  3  0  0  0  0  0  0
  189.8210  177.6940  144.2650 C   0  0  2  0  0  3  0  0  0  0  0  0
  191.1800  177.0210  144.5030 C   0  0  0  0  0  2  0  0  0  0  0  0
  188.9660  177.8630  145.5380 C   0  0  0  0  0  2  0  0  0  0  0  0
  190.7580  176.8250  146.9870 C   0  0  1  0  0  3  0  0  0  0  0  0
  191.7200  177.3310  145.8960 C   0  0  0  0  0  2  0  0  0  0  0  0
  189.2670  176.7880  146.5800 C   0  0  1  0  0  3  0  0  0  0  0  0
  188.7660  178.2740  148.5220 C   0  0  0  0  0  1  0  0  0  0  0  0
  188.3740  177.0060  147.7890 C   0  0  0  0  0  2  0  0  0  0  0  0
  191.2030  175.6400  147.6140 O   0  0  0  0  0  0  0  0  0  0  0  0
  192.5550  175.7910  147.9620 C   0  0  0  0  0  1  0  0  0  0  0  0
  1 20  1  6  0  0  0
  2  5  1  1  0  0  0
  3  4  1  0  0  0  0
  3  2  1  0  0  0  0
  4  1  1  1  0  0  0
  4  2  1  0  0  0  0
  5  7  1  0  0  0  0
  7  6  2  0  0  0  0
  8  1  1  0  0  0  0
  9  8  2  0  0  0  0
 10  8  1  0  0  0  0
 11 16  1  6  0  0  0
 11 10  1  0  0  0  0
 12 13  1  6  0  0  0
 12 11  1  0  0  0  0
 12 14  1  0  0  0  0
 14 15  1  0  0  0  0
 17 19  2  0  0  0  0
 19 16  1  0  0  0  0
 19 18  1  0  0  0  0
 22 21  1  1  0  0  0
 22 20  1  0  0  0  0
 23 22  1  6  0  0  0
 23 24  1  0  0  0  0
 23 25  1  0  0  0  0
 24 27  1  0  0  0  0
 25 28  1  0  0  0  0
 26 31  1  6  0  0  0
 27 26  1  0  0  0  0
 28 26  1  0  0  0  0
 28 30  1  1  0  0  0
 30 29  1  0  0  0  0
 31 32  1  0  0  0  0
M  END
>  <MODEL>
1

>  <REMARK>
 VINA RESULT:      -7.2      0.000      0.000
  Name = 
  15 active torsions:
  status: ('A' for Active; 'I' for Inactive)
    1  A    between atoms: C_2  and  C_5
    2  A    between atoms: C_3  and  C_20
    3  A    between atoms: C_3  and  O_22
    4  A    between atoms: C_4  and  C_14
    5  A    between atoms: C_4  and  C_24
    6  A    between atoms: C_4  and  C_30
    7  A    between atoms: C_5  and  C_14
    8  A    between atoms: O_11  and  C_12
    9  A    between atoms: C_13  and  C_18
   10  A    between atoms: C_13  and  C_29
   11  A    between atoms: C_15  and  C_20
   12  A    between atoms: C_15  and  C_26
   13  A    between atoms: O_16  and  C_20
   14  A    between atoms: O_16  and  C_24
   15  A    between atoms: C_28  and  C_32
                            x       y       z     vdW  Elec       q    Type
                         _______ _______ _______ _____ _____    ______ ____

>  <TORSDO>
F 15

$$$$
=
 OpenBabel10272413173D

 32 33  0  0  1  0  0  0  0  0999 V2000
  186.7830  178.0620  142.5400 C   0  0  2  0  0  3  0  0  0  0  0  0
  184.2510  178.4880  143.2270 C   0  0  1  0  0  3  0  0  0  0  0  0
  184.5350  179.1360  141.8840 C   0  0  0  0  0  2  0  0  0  0  0  0
  185.2700  177.8600  142.2620 C   0  0  1  0  0  3  0  0  0  0  0  0
  184.8310  179.3460  144.3480 C   0  0  0  0  0  2  0  0  0  0  0  0
  185.3620  178.5410  146.6080 C   0  0  0  0  0  2  0  0  0  0  0  0
  184.4410  178.8050  145.6840 C   0  0  0  0  0  3  0  0  0  0  0  0
  187.5670  178.3560  141.3050 C   0  0  0  0  0  0  0  0  0  0  0  0
  187.9970  179.5220  141.0880 O   0  0  0  0  0  0  0  0  0  0  0  0
  187.7840  177.3220  140.3850 O   0  0  0  0  0  0  0  0  0  0  0  0
  188.4020  177.4720  139.1030 C   0  0  1  0  0  3  0  0  0  0  0  0
  187.5060  178.1660  138.0670 C   0  0  1  0  0  3  0  0  0  0  0  0
  188.2800  178.7840  136.9020 C   0  0  0  0  0  1  0  0  0  0  0  0
  186.3250  177.4650  137.7270 O   0  0  0  0  0  0  0  0  0  0  0  0
  186.5660  176.6390  136.6180 C   0  0  0  0  0  1  0  0  0  0  0  0
  189.8070  178.0630  139.1810 C   0  0  0  0  0  2  0  0  0  0  0  0
  191.6040  177.3530  140.5770 O   0  0  0  0  0  1  0  0  0  0  0  0
  190.8040  175.7780  139.1150 O   0  0  0  0  0  0  0  0  0  0  0  0
  190.7820  177.0490  139.6730 C   0  0  0  0  0  0  0  0  0  0  0  0
  187.5080  177.0710  143.4550 C   0  0  0  0  0  2  0  0  0  0  0  0
  189.5100  175.6570  142.9330 C   0  0  0  0  0  1  0  0  0  0  0  0
  189.0080  177.0710  143.1930 C   0  0  2  0  0  3  0  0  0  0  0  0
  189.7530  177.7490  144.3440 C   0  0  2  0  0  3  0  0  0  0  0  0
  191.1170  177.0830  144.5730 C   0  0  0  0  0  2  0  0  0  0  0  0
  188.8980  177.8950  145.6190 C   0  0  0  0  0  2  0  0  0  0  0  0
  190.6990  176.8540  147.0550 C   0  0  1  0  0  3  0  0  0  0  0  0
  191.6560  177.3800  145.9690 C   0  0  0  0  0  2  0  0  0  0  0  0
  189.2080  176.8090  146.6470 C   0  0  1  0  0  3  0  0  0  0  0  0
  188.7090  178.2580  148.6180 C   0  0  0  0  0  1  0  0  0  0  0  0
  188.3130  177.0060  147.8590 C   0  0  0  0  0  2  0  0  0  0  0  0
  191.1530  175.6650  147.6660 O   0  0  0  0  0  0  0  0  0  0  0  0
  192.5500  175.7300  147.8030 C   0  0  0  0  0  1  0  0  0  0  0  0
  1 20  1  6  0  0  0
  2  5  1  1  0  0  0
  3  4  1  0  0  0  0
  3  2  1  0  0  0  0
  4  1  1  1  0  0  0
  4  2  1  0  0  0  0
  5  7  1  0  0  0  0
  7  6  2  0  0  0  0
  8  1  1  0  0  0  0
  9  8  2  0  0  0  0
 10  8  1  0  0  0  0
 11 16  1  1  0  0  0
 11 10  1  0  0  0  0
 12 13  1  6  0  0  0
 12 11  1  0  0  0  0
 14 12  1  0  0  0  0
 15 14  1  0  0  0  0
 16 19  1  0  0  0  0
 18 19  2  0  0  0  0
 19 17  1  0  0  0  0
 22 21  1  1  0  0  0
 22 20  1  0  0  0  0
 23 22  1  6  0  0  0
 23 24  1  0  0  0  0
 23 25  1  0  0  0  0
 24 27  1  0  0  0  0
 25 28  1  0  0  0  0
 26 31  1  6  0  0  0
 27 26  1  0  0  0  0
 28 26  1  0  0  0  0
 28 30  1  1  0  0  0
 30 29  1  0  0  0  0
 31 32  1  0  0  0  0
M  END
>  <MODEL>
2

>  <REMARK>
 VINA RESULT:      -7.1      0.694      2.356
  Name = 
  15 active torsions:
  status: ('A' for Active; 'I' for Inactive)
    1  A    between atoms: C_2  and  C_5
    2  A    between atoms: C_3  and  C_20
    3  A    between atoms: C_3  and  O_22
    4  A    between atoms: C_4  and  C_14
    5  A    between atoms: C_4  and  C_24
    6  A    between atoms: C_4  and  C_30
    7  A    between atoms: C_5  and  C_14
    8  A    between atoms: O_11  and  C_12
    9  A    between atoms: C_13  and  C_18
   10  A    between atoms: C_13  and  C_29
   11  A    between atoms: C_15  and  C_20
   12  A    between atoms: C_15  and  C_26
   13  A    between atoms: O_16  and  C_20
   14  A    between atoms: O_16  and  C_24
   15  A    between atoms: C_28  and  C_32
                            x       y       z     vdW  Elec       q    Type
                         _______ _______ _______ _____ _____    ______ ____

>  <TORSDO>
F 15

$$$$
=
 OpenBabel10272413173D

 32 33  0  0  1  0  0  0  0  0999 V2000
  188.8070  176.9130  143.8700 C   0  0  2  0  0  3  0  0  0  0  0  0
  190.4540  178.2270  145.4900 C   0  0  1  0  0  3  0  0  0  0  0  0
  191.1500  177.9400  144.1730 C   0  0  0  0  0  2  0  0  0  0  0  0
  189.6490  178.1780  144.1810 C   0  0  1  0  0  3  0  0  0  0  0  0
  190.4210  176.9640  146.3440 C   0  0  0  0  0  2  0  0  0  0  0  0
  192.1950  175.7200  147.5030 C   0  0  0  0  0  2  0  0  0  0  0  0
  191.7700  176.3250  146.3970 C   0  0  0  0  0  3  0  0  0  0  0  0
  189.3510  176.1190  142.7290 C   0  0  0  0  0  0  0  0  0  0  0  0
  190.0860  175.1160  142.9460 O   0  0  0  0  0  0  0  0  0  0  0  0
  189.0530  176.5300  141.4220 O   0  0  0  0  0  0  0  0  0  0  0  0
  189.6880  177.6100  140.7320 C   0  0  1  0  0  3  0  0  0  0  0  0
  190.7890  177.1570  139.7620 C   0  0  1  0  0  3  0  0  0  0  0  0
  192.1990  177.5370  140.2140 C   0  0  0  0  0  1  0  0  0  0  0  0
  190.6330  175.8500  139.2430 O   0  0  0  0  0  0  0  0  0  0  0  0
  191.2620  175.7570  137.9910 C   0  0  0  0  0  1  0  0  0  0  0  0
  188.6960  178.5870  140.1070 C   0  0  0  0  0  2  0  0  0  0  0  0
  188.9590  179.1230  137.7990 O   0  0  0  0  0  0  0  0  0  0  0  0
  187.8480  177.1660  138.2410 O   0  0  0  0  0  1  0  0  0  0  0  0
  188.5200  178.3090  138.6540 C   0  0  0  0  0  0  0  0  0  0  0  0
  187.2820  177.0330  143.8080 C   0  0  0  0  0  2  0  0  0  0  0  0
  186.0960  177.1480  146.0120 C   0  0  0  0  0  1  0  0  0  0  0  0
  186.7540  177.9530  144.8990 C   0  0  2  0  0  3  0  0  0  0  0  0
  185.8110  179.0020  144.3070 C   0  0  2  0  0  3  0  0  0  0  0  0
  184.5210  179.0990  145.1330 C   0  0  0  0  0  2  0  0  0  0  0  0
  185.5820  178.8260  142.7920 C   0  0  0  0  0  2  0  0  0  0  0  0
  183.0710  178.9090  143.0720 C   0  0  1  0  0  3  0  0  0  0  0  0
  183.3910  179.7380  144.3300 C   0  0  0  0  0  2  0  0  0  0  0  0
  184.2630  178.1170  142.4890 C   0  0  1  0  0  3  0  0  0  0  0  0
  185.0090  178.9510  140.2570 C   0  0  0  0  0  1  0  0  0  0  0  0
  184.1210  177.9600  140.9840 C   0  0  0  0  0  2  0  0  0  0  0  0
  181.8910  178.1450  143.1960 O   0  0  0  0  0  0  0  0  0  0  0  0
  180.8500  178.9830  143.6310 C   0  0  0  0  0  1  0  0  0  0  0  0
  1 20  1  6  0  0  0
  2  5  1  1  0  0  0
  3  4  1  0  0  0  0
  3  2  1  0  0  0  0
  4  1  1  1  0  0  0
  4  2  1  0  0  0  0
  5  7  1  0  0  0  0
  7  6  2  0  0  0  0
  8  9  2  0  0  0  0
  8  1  1  0  0  0  0
 10  8  1  0  0  0  0
 11 16  1  6  0  0  0
 11 10  1  0  0  0  0
 12 13  1  1  0  0  0
 12 11  1  0  0  0  0
 14 12  1  0  0  0  0
 15 14  1  0  0  0  0
 17 19  2  0  0  0  0
 18 19  1  0  0  0  0
 19 16  1  0  0  0  0
 20 22  1  0  0  0  0
 22 21  1  1  0  0  0
 23 22  1  1  0  0  0
 23 24  1  0  0  0  0
 25 23  1  0  0  0  0
 26 31  1  1  0  0  0
 26 27  1  0  0  0  0
 27 24  1  0  0  0  0
 28 30  1  6  0  0  0
 28 25  1  0  0  0  0
 28 26  1  0  0  0  0
 29 30  1  0  0  0  0
 31 32  1  0  0  0  0
M  END
>  <MODEL>
3

>  <REMARK>
 VINA RESULT:      -7.0      1.897      5.932
  Name = 
  15 active torsions:
  status: ('A' for Active; 'I' for Inactive)
    1  A    between atoms: C_2  and  C_5
    2  A    between atoms: C_3  and  C_20
    3  A    between atoms: C_3  and  O_22
    4  A    between atoms: C_4  and  C_14
    5  A    between atoms: C_4  and  C_24
    6  A    between atoms: C_4  and  C_30
    7  A    between atoms: C_5  and  C_14
    8  A    between atoms: O_11  and  C_12
    9  A    between atoms: C_13  and  C_18
   10  A    between atoms: C_13  and  C_29
   11  A    between atoms: C_15  and  C_20
   12  A    between atoms: C_15  and  C_26
   13  A    between atoms: O_16  and  C_20
   14  A    between atoms: O_16  and  C_24
   15  A    between atoms: C_28  and  C_32
                            x       y       z     vdW  Elec       q    Type
                         _______ _______ _______ _____ _____    ______ ____

>  <TORSDO>
F 15

$$$$
=
 OpenBabel10272413173D

 32 33  0  0  1  0  0  0  0  0999 V2000
  188.9290  177.1290  143.4320 C   0  0  2  0  0  3  0  0  0  0  0  0
  190.4640  178.2870  145.2680 C   0  0  1  0  0  3  0  0  0  0  0  0
  191.1690  178.3050  143.9230 C   0  0  0  0  0  2  0  0  0  0  0  0
  189.6520  178.3940  143.9670 C   0  0  1  0  0  3  0  0  0  0  0  0
  190.5610  176.8950  145.8830 C   0  0  0  0  0  2  0  0  0  0  0  0
  189.2460  177.6860  147.8020 C   0  0  0  0  0  2  0  0  0  0  0  0
  190.2450  176.9380  147.3420 C   0  0  0  0  0  3  0  0  0  0  0  0
  189.4070  176.7150  142.0800 C   0  0  0  0  0  0  0  0  0  0  0  0
  190.2110  175.7500  141.9580 O   0  0  0  0  0  0  0  0  0  0  0  0
  188.9680  177.4380  140.9630 O   0  0  0  0  0  0  0  0  0  0  0  0
  189.3300  177.1620  139.6060 C   0  0  1  0  0  3  0  0  0  0  0  0
  188.3470  177.7430  138.5780 C   0  0  1  0  0  3  0  0  0  0  0  0
  188.9460  178.8570  137.7190 C   0  0  0  0  0  1  0  0  0  0  0  0
  187.5560  176.7890  137.8970 O   0  0  0  0  0  0  0  0  0  0  0  0
  188.1260  176.5060  136.6450 C   0  0  0  0  0  1  0  0  0  0  0  0
  190.7890  177.4850  139.2980 C   0  0  0  0  0  2  0  0  0  0  0  0
  190.8700  175.2240  138.5460 O   0  0  0  0  0  1  0  0  0  0  0  0
  192.7290  176.4880  138.0880 O   0  0  0  0  0  0  0  0  0  0  0  0
  191.4540  176.3380  138.6180 C   0  0  0  0  0  0  0  0  0  0  0  0
  187.4050  177.0380  143.5540 C   0  0  0  0  0  2  0  0  0  0  0  0
  186.2360  177.0000  145.7700 C   0  0  0  0  0  1  0  0  0  0  0  0
  186.8910  177.8800  144.7130 C   0  0  2  0  0  3  0  0  0  0  0  0
  185.9510  178.9740  144.2050 C   0  0  2  0  0  3  0  0  0  0  0  0
  184.7350  179.1160  145.1300 C   0  0  0  0  0  2  0  0  0  0  0  0
  185.5960  178.8250  142.7110 C   0  0  0  0  0  2  0  0  0  0  0  0
  183.1210  179.0110  143.1880 C   0  0  1  0  0  3  0  0  0  0  0  0
  183.5740  179.8110  144.4240 C   0  0  0  0  0  2  0  0  0  0  0  0
  184.2290  178.1750  142.5070 C   0  0  1  0  0  3  0  0  0  0  0  0
  184.9630  178.8570  140.2200 C   0  0  0  0  0  1  0  0  0  0  0  0
  183.9630  178.0420  141.0170 C   0  0  0  0  0  2  0  0  0  0  0  0
  181.9220  178.2950  143.3980 O   0  0  0  0  0  0  0  0  0  0  0  0
  180.8450  179.0650  142.9260 C   0  0  0  0  0  1  0  0  0  0  0  0
  1 20  1  6  0  0  0
  2  5  1  6  0  0  0
  3  4  1  0  0  0  0
  3  2  1  0  0  0  0
  4  1  1  6  0  0  0
  4  2  1  0  0  0  0
  5  7  1  0  0  0  0
  7  6  2  0  0  0  0
  8  1  1  0  0  0  0
  9  8  2  0  0  0  0
 10  8  1  0  0  0  0
 11 16  1  6  0  0  0
 11 10  1  0  0  0  0
 12 13  1  6  0  0  0
 12 11  1  0  0  0  0
 14 12  1  0  0  0  0
 15 14  1  0  0  0  0
 17 19  1  0  0  0  0
 18 19  2  0  0  0  0
 19 16  1  0  0  0  0
 20 22  1  0  0  0  0
 22 21  1  1  0  0  0
 23 22  1  1  0  0  0
 23 24  1  0  0  0  0
 25 23  1  0  0  0  0
 26 31  1  1  0  0  0
 26 27  1  0  0  0  0
 27 24  1  0  0  0  0
 28 30  1  6  0  0  0
 28 25  1  0  0  0  0
 28 26  1  0  0  0  0
 29 30  1  0  0  0  0
 32 31  1  0  0  0  0
M  END
>  <MODEL>
4

>  <REMARK>
 VINA RESULT:      -6.8      1.839      6.001
  Name = 
  15 active torsions:
  status: ('A' for Active; 'I' for Inactive)
    1  A    between atoms: C_2  and  C_5
    2  A    between atoms: C_3  and  C_20
    3  A    between atoms: C_3  and  O_22
    4  A    between atoms: C_4  and  C_14
    5  A    between atoms: C_4  and  C_24
    6  A    between atoms: C_4  and  C_30
    7  A    between atoms: C_5  and  C_14
    8  A    between atoms: O_11  and  C_12
    9  A    between atoms: C_13  and  C_18
   10  A    between atoms: C_13  and  C_29
   11  A    between atoms: C_15  and  C_20
   12  A    between atoms: C_15  and  C_26
   13  A    between atoms: O_16  and  C_20
   14  A    between atoms: O_16  and  C_24
   15  A    between atoms: C_28  and  C_32
                            x       y       z     vdW  Elec       q    Type
                         _______ _______ _______ _____ _____    ______ ____

>  <TORSDO>
F 15

$$$$
=
 OpenBabel10272413173D

 32 33  0  0  1  0  0  0  0  0999 V2000
  184.3150  178.8920  140.8300 C   0  0  2  0  0  3  0  0  0  0  0  0
  181.9220  177.8070  141.2330 C   0  0  1  0  0  3  0  0  0  0  0  0
  182.3700  177.5490  139.8050 C   0  0  0  0  0  2  0  0  0  0  0  0
  183.4140  177.6310  140.9060 C   0  0  1  0  0  3  0  0  0  0  0  0
  181.4320  179.2450  141.3680 C   0  0  0  0  0  2  0  0  0  0  0  0
  181.1450  178.7780  143.7630 C   0  0  0  0  0  2  0  0  0  0  0  0
  180.7570  179.4530  142.6840 C   0  0  0  0  0  3  0  0  0  0  0  0
  184.8600  179.1350  139.4610 C   0  0  0  0  0  0  0  0  0  0  0  0
  184.5980  180.2090  138.8540 O   0  0  0  0  0  0  0  0  0  0  0  0
  185.6370  178.1340  138.8610 O   0  0  0  0  0  0  0  0  0  0  0  0
  186.3580  178.2740  137.6330 C   0  0  1  0  0  3  0  0  0  0  0  0
  187.8810  178.1600  137.7990 C   0  0  1  0  0  3  0  0  0  0  0  0
  188.6580  178.4060  136.5050 C   0  0  0  0  0  1  0  0  0  0  0  0
  188.4050  178.7650  138.9650 O   0  0  0  0  0  0  0  0  0  0  0  0
  189.4630  177.9890  139.4670 C   0  0  0  0  0  1  0  0  0  0  0  0
  185.8040  177.4000  136.5110 C   0  0  0  0  0  2  0  0  0  0  0  0
  186.3760  175.1640  137.1100 O   0  0  0  0  0  0  0  0  0  0  0  0
  184.1640  175.7190  137.3520 O   0  0  0  0  0  1  0  0  0  0  0  0
  185.4730  176.0370  137.0150 C   0  0  0  0  0  0  0  0  0  0  0  0
  185.3720  179.1180  141.9150 C   0  0  0  0  0  2  0  0  0  0  0  0
  184.8330  180.1810  144.1190 C   0  0  0  0  0  1  0  0  0  0  0  0
  184.7940  178.8940  143.3050 C   0  0  2  0  0  3  0  0  0  0  0  0
  185.5150  177.7420  144.0070 C   0  0  2  0  0  3  0  0  0  0  0  0
  185.6890  178.0420  145.5020 C   0  0  0  0  0  2  0  0  0  0  0  0
  186.8130  177.3130  143.2920 C   0  0  0  0  0  2  0  0  0  0  0  0
  188.1490  177.4670  145.4320 C   0  0  1  0  0  3  0  0  0  0  0  0
  186.7970  177.1920  146.1170 C   0  0  0  0  0  2  0  0  0  0  0  0
  188.0560  177.9050  143.9530 C   0  0  1  0  0  3  0  0  0  0  0  0
  189.3060  175.9490  143.0340 C   0  0  0  0  0  1  0  0  0  0  0  0
  189.2870  177.4580  143.1810 C   0  0  0  0  0  2  0  0  0  0  0  0
  189.0100  178.2730  146.2080 O   0  0  0  0  0  0  0  0  0  0  0  0
  189.8340  177.4410  146.9850 C   0  0  0  0  0  1  0  0  0  0  0  0
  1 20  1  1  0  0  0
  2  5  1  6  0  0  0
  3  4  1  0  0  0  0
  3  2  1  0  0  0  0
  4  1  1  6  0  0  0
  4  2  1  0  0  0  0
  5  7  1  0  0  0  0
  7  6  2  0  0  0  0
  8  1  1  0  0  0  0
  9  8  2  0  0  0  0
 10  8  1  0  0  0  0
 11 16  1  6  0  0  0
 11 12  1  0  0  0  0
 11 10  1  0  0  0  0
 12 13  1  6  0  0  0
 12 14  1  0  0  0  0
 14 15  1  0  0  0  0
 16 19  1  0  0  0  0
 19 17  2  0  0  0  0
 19 18  1  0  0  0  0
 20 22  1  0  0  0  0
 22 21  1  1  0  0  0
 23 22  1  6  0  0  0
 23 24  1  0  0  0  0
 24 27  1  0  0  0  0
 25 28  1  0  0  0  0
 25 23  1  0  0  0  0
 26 27  1  0  0  0  0
 26 31  1  1  0  0  0
 28 30  1  6  0  0  0
 28 26  1  0  0  0  0
 29 30  1  0  0  0  0
 31 32  1  0  0  0  0
M  END
>  <MODEL>
5

>  <REMARK>
 VINA RESULT:      -6.3      1.963      3.861
  Name = 
  15 active torsions:
  status: ('A' for Active; 'I' for Inactive)
    1  A    between atoms: C_2  and  C_5
    2  A    between atoms: C_3  and  C_20
    3  A    between atoms: C_3  and  O_22
    4  A    between atoms: C_4  and  C_14
    5  A    between atoms: C_4  and  C_24
    6  A    between atoms: C_4  and  C_30
    7  A    between atoms: C_5  and  C_14
    8  A    between atoms: O_11  and  C_12
    9  A    between atoms: C_13  and  C_18
   10  A    between atoms: C_13  and  C_29
   11  A    between atoms: C_15  and  C_20
   12  A    between atoms: C_15  and  C_26
   13  A    between atoms: O_16  and  C_20
   14  A    between atoms: O_16  and  C_24
   15  A    between atoms: C_28  and  C_32
                            x       y       z     vdW  Elec       q    Type
                         _______ _______ _______ _____ _____    ______ ____

>  <TORSDO>
F 15

$$$$
=
 OpenBabel10272413173D

 32 33  0  0  1  0  0  0  0  0999 V2000
  187.2310  178.0690  142.2880 C   0  0  2  0  0  3  0  0  0  0  0  0
  184.7080  178.9030  142.2810 C   0  0  1  0  0  3  0  0  0  0  0  0
  185.0110  178.1940  143.5880 C   0  0  0  0  0  2  0  0  0  0  0  0
  186.1180  178.9660  142.8900 C   0  0  1  0  0  3  0  0  0  0  0  0
  184.5040  177.8760  141.1720 C   0  0  0  0  0  2  0  0  0  0  0  0
  184.0140  179.5570  139.4470 C   0  0  0  0  0  2  0  0  0  0  0  0
  183.6580  178.4400  140.0770 C   0  0  0  0  0  3  0  0  0  0  0  0
  187.9570  177.2720  143.3210 C   0  0  0  0  0  0  0  0  0  0  0  0
  187.7110  176.0430  143.4630 O   0  0  0  0  0  0  0  0  0  0  0  0
  188.8860  177.9250  144.1430 O   0  0  0  0  0  0  0  0  0  0  0  0
  189.5380  177.3430  145.2760 C   0  0  1  0  0  3  0  0  0  0  0  0
  191.0450  177.1250  145.0720 C   0  0  1  0  0  3  0  0  0  0  0  0
  191.6170  177.8820  143.8730 C   0  0  0  0  0  1  0  0  0  0  0  0
  191.8220  177.1510  146.2540 O   0  0  0  0  0  0  0  0  0  0  0  0
  192.0890  175.8380  146.6750 C   0  0  0  0  0  1  0  0  0  0  0  0
  189.2010  178.0470  146.5880 C   0  0  0  0  0  2  0  0  0  0  0  0
  188.0520  176.6810  148.1670 O   0  0  0  0  0  1  0  0  0  0  0  0
  186.7210  177.7940  146.6680 O   0  0  0  0  0  0  0  0  0  0  0  0
  187.9650  177.4750  147.1940 C   0  0  0  0  0  0  0  0  0  0  0  0
  188.1870  178.6660  141.2510 C   0  0  0  0  0  2  0  0  0  0  0  0
  190.0170  177.0910  140.5810 C   0  0  0  0  0  1  0  0  0  0  0  0
  188.6300  177.6190  140.2390 C   0  0  2  0  0  3  0  0  0  0  0  0
  188.5570  178.1820  138.8190 C   0  0  2  0  0  3  0  0  0  0  0  0
  187.1420  178.0260  138.2460 C   0  0  0  0  0  2  0  0  0  0  0  0
  189.6750  177.6520  137.8980 C   0  0  0  0  0  2  0  0  0  0  0  0
  188.0140  176.9940  136.1100 C   0  0  1  0  0  3  0  0  0  0  0  0
  187.1440  178.1080  136.7220 C   0  0  0  0  0  2  0  0  0  0  0  0
  189.1890  176.5200  136.9950 C   0  0  1  0  0  3  0  0  0  0  0  0
  191.6580  176.1650  136.8910 C   0  0  0  0  0  1  0  0  0  0  0  0
  190.3470  176.0380  136.1380 C   0  0  0  0  0  2  0  0  0  0  0  0
  187.2560  175.9360  135.5630 O   0  0  0  0  0  0  0  0  0  0  0  0
  186.1000  176.4670  134.9660 C   0  0  0  0  0  1  0  0  0  0  0  0
  1 20  1  1  0  0  0
  1  8  1  0  0  0  0
  2  5  1  6  0  0  0
  2  4  1  0  0  0  0
  2  3  1  0  0  0  0
  4  1  1  6  0  0  0
  4  3  1  0  0  0  0
  6  7  2  0  0  0  0
  7  5  1  0  0  0  0
  8  9  2  0  0  0  0
  8 10  1  0  0  0  0
 10 11  1  0  0  0  0
 11 16  1  1  0  0  0
 12 13  1  6  0  0  0
 12 11  1  0  0  0  0
 12 14  1  0  0  0  0
 14 15  1  0  0  0  0
 16 19  1  0  0  0  0
 18 19  2  0  0  0  0
 19 17  1  0  0  0  0
 22 21  1  1  0  0  0
 22 20  1  0  0  0  0
 23 22  1  1  0  0  0
 24 23  1  0  0  0  0
 25 23  1  0  0  0  0
 26 31  1  1  0  0  0
 26 27  1  0  0  0  0
 26 28  1  0  0  0  0
 27 24  1  0  0  0  0
 28 30  1  6  0  0  0
 28 25  1  0  0  0  0
 30 29  1  0  0  0  0
 32 31  1  0  0  0  0
M  END
>  <MODEL>
6

>  <REMARK>
 VINA RESULT:      -6.1      1.953      7.650
  Name = 
  15 active torsions:
  status: ('A' for Active; 'I' for Inactive)
    1  A    between atoms: C_2  and  C_5
    2  A    between atoms: C_3  and  C_20
    3  A    between atoms: C_3  and  O_22
    4  A    between atoms: C_4  and  C_14
    5  A    between atoms: C_4  and  C_24
    6  A    between atoms: C_4  and  C_30
    7  A    between atoms: C_5  and  C_14
    8  A    between atoms: O_11  and  C_12
    9  A    between atoms: C_13  and  C_18
   10  A    between atoms: C_13  and  C_29
   11  A    between atoms: C_15  and  C_20
   12  A    between atoms: C_15  and  C_26
   13  A    between atoms: O_16  and  C_20
   14  A    between atoms: O_16  and  C_24
   15  A    between atoms: C_28  and  C_32
                            x       y       z     vdW  Elec       q    Type
                         _______ _______ _______ _____ _____    ______ ____

>  <TORSDO>
F 15

$$$$
=
 OpenBabel10272413173D

 32 33  0  0  1  0  0  0  0  0999 V2000
  190.2320  177.1130  140.6310 C   0  0  2  0  0  3  0  0  0  0  0  0
  187.8470  177.9110  139.7730 C   0  0  1  0  0  3  0  0  0  0  0  0
  188.9150  178.3100  138.7700 C   0  0  0  0  0  2  0  0  0  0  0  0
  189.0960  177.0350  139.5780 C   0  0  1  0  0  3  0  0  0  0  0  0
  187.8760  178.8630  140.9640 C   0  0  0  0  0  2  0  0  0  0  0  0
  185.4300  178.8500  140.7270 C   0  0  0  0  0  2  0  0  0  0  0  0
  186.4960  179.1060  141.4810 C   0  0  0  0  0  3  0  0  0  0  0  0
  191.5920  176.9660  140.0330 C   0  0  0  0  0  0  0  0  0  0  0  0
  192.5480  177.6770  140.4470 O   0  0  0  0  0  0  0  0  0  0  0  0
  191.7690  176.0500  138.9860 O   0  0  0  0  0  0  0  0  0  0  0  0
  192.1970  176.3820  137.6620 C   0  0  1  0  0  3  0  0  0  0  0  0
  193.5870  175.8330  137.3090 C   0  0  1  0  0  3  0  0  0  0  0  0
  194.2440  176.5440  136.1260 C   0  0  0  0  0  1  0  0  0  0  0  0
  194.4250  175.5630  138.4160 O   0  0  0  0  0  0  0  0  0  0  0  0
  194.8910  174.2400  138.3460 C   0  0  0  0  0  1  0  0  0  0  0  0
  191.1410  176.0850  136.6000 C   0  0  0  0  0  2  0  0  0  0  0  0
  190.3360  173.9660  137.3380 O   0  0  0  0  0  1  0  0  0  0  0  0
  191.4520  173.9590  135.3340 O   0  0  0  0  0  0  0  0  0  0  0  0
  190.9430  174.6160  136.4460 C   0  0  0  0  0  0  0  0  0  0  0  0
  190.0930  176.3190  141.9340 C   0  0  0  0  0  2  0  0  0  0  0  0
  191.2970  177.5530  143.7530 C   0  0  0  0  0  1  0  0  0  0  0  0
  189.9400  177.2450  143.1330 C   0  0  2  0  0  3  0  0  0  0  0  0
  188.9600  176.6520  144.1470 C   0  0  2  0  0  3  0  0  0  0  0  0
  187.5170  177.0410  143.7970 C   0  0  0  0  0  2  0  0  0  0  0  0
  189.3560  176.9340  145.6100 C   0  0  0  0  0  2  0  0  0  0  0  0
  187.0520  177.8170  146.1570 C   0  0  1  0  0  3  0  0  0  0  0  0
  186.5940  176.9040  145.0040 C   0  0  0  0  0  2  0  0  0  0  0  0
  188.5710  178.1010  146.2040 C   0  0  1  0  0  3  0  0  0  0  0  0
  188.2120  177.4980  148.6000 C   0  0  0  0  0  1  0  0  0  0  0  0
  189.0310  178.3310  147.6340 C   0  0  0  0  0  2  0  0  0  0  0  0
  186.2550  178.9740  146.2990 O   0  0  0  0  0  0  0  0  0  0  0  0
  184.9290  178.6560  145.9620 C   0  0  0  0  0  1  0  0  0  0  0  0
  1 20  1  1  0  0  0
  2  5  1  1  0  0  0
  3  4  1  0  0  0  0
  3  2  1  0  0  0  0
  4  2  1  0  0  0  0
  4  1  1  1  0  0  0
  5  7  1  0  0  0  0
  6  7  2  0  0  0  0
  8  9  2  0  0  0  0
  8  1  1  0  0  0  0
 10  8  1  0  0  0  0
 11 16  1  6  0  0  0
 11 10  1  0  0  0  0
 12 13  1  6  0  0  0
 12 11  1  0  0  0  0
 12 14  1  0  0  0  0
 15 14  1  0  0  0  0
 18 19  2  0  0  0  0
 19 16  1  0  0  0  0
 19 17  1  0  0  0  0
 20 22  1  0  0  0  0
 22 21  1  1  0  0  0
 23 22  1  6  0  0  0
 23 25  1  0  0  0  0
 24 23  1  0  0  0  0
 24 27  1  0  0  0  0
 25 28  1  0  0  0  0
 26 28  1  0  0  0  0
 26 31  1  6  0  0  0
 27 26  1  0  0  0  0
 28 30  1  1  0  0  0
 30 29  1  0  0  0  0
 32 31  1  0  0  0  0
M  END
>  <MODEL>
7

>  <REMARK>
 VINA RESULT:      -6.0      2.603      4.515
  Name = 
  15 active torsions:
  status: ('A' for Active; 'I' for Inactive)
    1  A    between atoms: C_2  and  C_5
    2  A    between atoms: C_3  and  C_20
    3  A    between atoms: C_3  and  O_22
    4  A    between atoms: C_4  and  C_14
    5  A    between atoms: C_4  and  C_24
    6  A    between atoms: C_4  and  C_30
    7  A    between atoms: C_5  and  C_14
    8  A    between atoms: O_11  and  C_12
    9  A    between atoms: C_13  and  C_18
   10  A    between atoms: C_13  and  C_29
   11  A    between atoms: C_15  and  C_20
   12  A    between atoms: C_15  and  C_26
   13  A    between atoms: O_16  and  C_20
   14  A    between atoms: O_16  and  C_24
   15  A    between atoms: C_28  and  C_32
                            x       y       z     vdW  Elec       q    Type
                         _______ _______ _______ _____ _____    ______ ____

>  <TORSDO>
F 15

$$$$
=
 OpenBabel10272413173D

 32 33  0  0  1  0  0  0  0  0999 V2000
  184.4480  178.7880  140.8930 C   0  0  2  0  0  3  0  0  0  0  0  0
  181.9740  177.8560  141.1640 C   0  0  1  0  0  3  0  0  0  0  0  0
  182.3450  177.9090  139.6930 C   0  0  0  0  0  2  0  0  0  0  0  0
  183.4290  177.6310  140.7210 C   0  0  1  0  0  3  0  0  0  0  0  0
  181.6350  179.2570  141.6620 C   0  0  0  0  0  2  0  0  0  0  0  0
  181.5200  178.7880  144.0720 C   0  0  0  0  0  2  0  0  0  0  0  0
  180.9050  179.1940  142.9640 C   0  0  0  0  0  3  0  0  0  0  0  0
  184.9790  179.2940  139.5930 C   0  0  0  0  0  0  0  0  0  0  0  0
  184.3280  180.1480  138.9310 O   0  0  0  0  0  0  0  0  0  0  0  0
  186.1900  178.7770  139.1150 O   0  0  0  0  0  0  0  0  0  0  0  0
  186.3250  177.6140  138.2920 C   0  0  1  0  0  3  0  0  0  0  0  0
  185.4780  177.6660  137.0130 C   0  0  1  0  0  3  0  0  0  0  0  0
  186.2960  177.5170  135.7290 C   0  0  0  0  0  1  0  0  0  0  0  0
  184.2650  176.9400  137.0650 O   0  0  0  0  0  0  0  0  0  0  0  0
  184.5310  175.5910  137.3480 C   0  0  0  0  0  1  0  0  0  0  0  0
  187.7790  177.2240  138.0400 C   0  0  0  0  0  2  0  0  0  0  0  0
  189.4600  178.7760  138.7120 O   0  0  0  0  0  0  0  0  0  0  0  0
  188.6770  177.3870  140.3610 O   0  0  0  0  0  1  0  0  0  0  0  0
  188.6790  177.8480  139.0510 C   0  0  0  0  0  0  0  0  0  0  0  0
  185.5510  178.6550  141.9480 C   0  0  0  0  0  2  0  0  0  0  0  0
  185.1530  180.1520  143.9180 C   0  0  0  0  0  1  0  0  0  0  0  0
  184.9830  178.7450  143.3580 C   0  0  2  0  0  3  0  0  0  0  0  0
  185.6130  177.6820  144.2580 C   0  0  2  0  0  3  0  0  0  0  0  0
  185.7060  178.1830  145.7060 C   0  0  0  0  0  2  0  0  0  0  0  0
  186.9330  177.1150  143.6970 C   0  0  0  0  0  2  0  0  0  0  0  0
  188.1400  177.5250  145.8800 C   0  0  1  0  0  3  0  0  0  0  0  0
  186.7380  177.3930  146.5050 C   0  0  0  0  0  2  0  0  0  0  0  0
  188.1570  177.7530  144.3510 C   0  0  1  0  0  3  0  0  0  0  0  0
  190.3930  178.2590  143.3620 C   0  0  0  0  0  1  0  0  0  0  0  0
  189.4130  177.1630  143.7320 C   0  0  0  0  0  2  0  0  0  0  0  0
  188.9850  178.4040  146.5920 O   0  0  0  0  0  0  0  0  0  0  0  0
  189.0120  178.0150  147.9410 C   0  0  0  0  0  1  0  0  0  0  0  0
  1 20  1  1  0  0  0
  2  5  1  1  0  0  0
  3  4  1  0  0  0  0
  3  2  1  0  0  0  0
  4  1  1  1  0  0  0
  4  2  1  0  0  0  0
  5  7  1  0  0  0  0
  7  6  2  0  0  0  0
  8  1  1  0  0  0  0
  9  8  2  0  0  0  0
 10  8  1  0  0  0  0
 11 16  1  6  0  0  0
 11 10  1  0  0  0  0
 12 13  1  6  0  0  0
 12 14  1  0  0  0  0
 12 11  1  0  0  0  0
 14 15  1  0  0  0  0
 16 19  1  0  0  0  0
 17 19  2  0  0  0  0
 19 18  1  0  0  0  0
 20 22  1  0  0  0  0
 22 21  1  1  0  0  0
 23 22  1  6  0  0  0
 23 24  1  0  0  0  0
 24 27  1  0  0  0  0
 25 23  1  0  0  0  0
 25 28  1  0  0  0  0
 26 27  1  0  0  0  0
 26 31  1  1  0  0  0
 28 30  1  6  0  0  0
 28 26  1  0  0  0  0
 29 30  1  0  0  0  0
 31 32  1  0  0  0  0
M  END
>  <MODEL>
8

>  <REMARK>
 VINA RESULT:      -6.0      1.980      4.198
  Name = 
  15 active torsions:
  status: ('A' for Active; 'I' for Inactive)
    1  A    between atoms: C_2  and  C_5
    2  A    between atoms: C_3  and  C_20
    3  A    between atoms: C_3  and  O_22
    4  A    between atoms: C_4  and  C_14
    5  A    between atoms: C_4  and  C_24
    6  A    between atoms: C_4  and  C_30
    7  A    between atoms: C_5  and  C_14
    8  A    between atoms: O_11  and  C_12
    9  A    between atoms: C_13  and  C_18
   10  A    between atoms: C_13  and  C_29
   11  A    between atoms: C_15  and  C_20
   12  A    between atoms: C_15  and  C_26
   13  A    between atoms: O_16  and  C_20
   14  A    between atoms: O_16  and  C_24
   15  A    between atoms: C_28  and  C_32
                            x       y       z     vdW  Elec       q    Type
                         _______ _______ _______ _____ _____    ______ ____

>  <TORSDO>
F 15

$$$$
=
 OpenBabel10272413173D

 32 33  0  0  1  0  0  0  0  0999 V2000
  187.6250  178.3100  142.3210 C   0  0  2  0  0  3  0  0  0  0  0  0
  188.4090  176.8460  144.3970 C   0  0  1  0  0  3  0  0  0  0  0  0
  186.9280  177.1570  144.5170 C   0  0  0  0  0  2  0  0  0  0  0  0
  187.5410  176.9930  143.1360 C   0  0  1  0  0  3  0  0  0  0  0  0
  189.2270  178.0710  144.7910 C   0  0  0  0  0  2  0  0  0  0  0  0
  190.7640  176.8480  146.2680 C   0  0  0  0  0  2  0  0  0  0  0  0
  190.5960  177.6730  145.2370 C   0  0  0  0  0  3  0  0  0  0  0  0
  186.3460  178.6500  141.6300 C   0  0  0  0  0  0  0  0  0  0  0  0
  186.3270  179.5290  140.7260 O   0  0  0  0  0  0  0  0  0  0  0  0
  185.1730  177.9950  142.0290 O   0  0  0  0  0  0  0  0  0  0  0  0
  183.9070  178.6260  142.2430 C   0  0  1  0  0  3  0  0  0  0  0  0
  182.8700  178.3060  141.1550 C   0  0  1  0  0  3  0  0  0  0  0  0
  181.4590  178.7850  141.4940 C   0  0  0  0  0  1  0  0  0  0  0  0
  183.3030  178.5330  139.8270 O   0  0  0  0  0  0  0  0  0  0  0  0
  182.3600  178.0120  138.9260 C   0  0  0  0  0  1  0  0  0  0  0  0
  183.3750  178.4370  143.6610 C   0  0  0  0  0  2  0  0  0  0  0  0
  184.7900  180.2820  144.1880 O   0  0  0  0  0  0  0  0  0  0  0  0
  184.0080  179.0870  145.9830 O   0  0  0  0  0  1  0  0  0  0  0  0
  184.0900  179.3270  144.6180 C   0  0  0  0  0  0  0  0  0  0  0  0
  188.8420  178.5510  141.4220 C   0  0  0  0  0  2  0  0  0  0  0  0
  190.5140  176.6910  141.5770 C   0  0  0  0  0  1  0  0  0  0  0  0
  189.3330  177.2540  140.7960 C   0  0  2  0  0  3  0  0  0  0  0  0
  189.6620  177.4630  139.3170 C   0  0  2  0  0  3  0  0  0  0  0  0
  189.0350  178.7660  138.8020 C   0  0  0  0  0  2  0  0  0  0  0  0
  189.3610  176.2270  138.4460 C   0  0  0  0  0  2  0  0  0  0  0  0
  188.0280  177.6020  136.7970 C   0  0  1  0  0  3  0  0  0  0  0  0
  188.9160  178.7640  137.2810 C   0  0  0  0  0  2  0  0  0  0  0  0
  188.0290  176.3540  137.7090 C   0  0  1  0  0  3  0  0  0  0  0  0
  188.8040  174.9840  135.7700 C   0  0  0  0  0  1  0  0  0  0  0  0
  187.7930  175.0930  136.8950 C   0  0  0  0  0  2  0  0  0  0  0  0
  186.7350  178.0160  136.4080 O   0  0  0  0  0  0  0  0  0  0  0  0
  185.8890  177.9770  137.5290 C   0  0  0  0  0  1  0  0  0  0  0  0
  1 20  1  6  0  0  0
  2  3  1  0  0  0  0
  2  5  1  6  0  0  0
  4  1  1  6  0  0  0
  4  2  1  0  0  0  0
  4  3  1  0  0  0  0
  5  7  1  0  0  0  0
  7  6  2  0  0  0  0
  8 10  1  0  0  0  0
  8  1  1  0  0  0  0
  9  8  2  0  0  0  0
 10 11  1  0  0  0  0
 11 16  1  1  0  0  0
 12 13  1  1  0  0  0
 12 11  1  0  0  0  0
 14 12  1  0  0  0  0
 15 14  1  0  0  0  0
 16 19  1  0  0  0  0
 17 19  2  0  0  0  0
 19 18  1  0  0  0  0
 22 20  1  0  0  0  0
 22 21  1  1  0  0  0
 23 22  1  1  0  0  0
 24 23  1  0  0  0  0
 25 23  1  0  0  0  0
 26 31  1  1  0  0  0
 26 27  1  0  0  0  0
 26 28  1  0  0  0  0
 27 24  1  0  0  0  0
 28 30  1  6  0  0  0
 28 25  1  0  0  0  0
 29 30  1  0  0  0  0
 31 32  1  0  0  0  0
M  END
>  <MODEL>
9

>  <REMARK>
 VINA RESULT:      -5.9      2.332      7.325
  Name = 
  15 active torsions:
  status: ('A' for Active; 'I' for Inactive)
    1  A    between atoms: C_2  and  C_5
    2  A    between atoms: C_3  and  C_20
    3  A    between atoms: C_3  and  O_22
    4  A    between atoms: C_4  and  C_14
    5  A    between atoms: C_4  and  C_24
    6  A    between atoms: C_4  and  C_30
    7  A    between atoms: C_5  and  C_14
    8  A    between atoms: O_11  and  C_12
    9  A    between atoms: C_13  and  C_18
   10  A    between atoms: C_13  and  C_29
   11  A    between atoms: C_15  and  C_20
   12  A    between atoms: C_15  and  C_26
   13  A    between atoms: O_16  and  C_20
   14  A    between atoms: O_16  and  C_24
   15  A    between atoms: C_28  and  C_32
                            x       y       z     vdW  Elec       q    Type
                         _______ _______ _______ _____ _____    ______ ____

>  <TORSDO>
F 15

$$$$
