=
 OpenBabel10272413363D

 32 36  0  0  1  0  0  0  0  0999 V2000
  188.9660  177.1830  137.3130 N   0  0  0  0  0  0  0  0  0  0  0  0
  188.6940  177.6690  142.3640 C   0  0  0  0  0  0  0  0  0  0  0  0
  184.2320  179.5090  143.2580 O   0  0  0  0  0  0  0  0  0  0  0  0
  184.0900  178.6450  144.3640 C   0  0  0  0  0  2  0  0  0  0  0  0
  190.1990  177.3650  144.4010 C   0  0  0  0  0  0  0  0  0  0  0  0
  190.3630  177.2940  145.7940 C   0  0  0  0  0  0  0  0  0  0  0  0
  189.4580  177.3060  140.1360 C   0  0  0  0  0  0  0  0  0  0  0  0
  187.2900  178.2980  140.4940 C   0  0  0  0  0  3  0  0  0  0  0  0
  188.0660  178.0050  138.1320 C   0  0  0  0  0  2  0  0  0  0  0  0
  185.0490  178.8540  142.3140 C   0  0  0  0  0  2  0  0  0  0  0  0
  187.4790  178.1960  141.8780 C   0  0  0  0  0  0  0  0  0  0  0  0
  186.4790  178.7610  142.8540 C   0  0  2  0  0  3  0  0  0  0  0  0
  187.8280  177.7550  144.7070 C   0  0  0  0  0  0  0  0  0  0  0  0
  190.3520  177.2660  137.7990 C   0  0  0  0  0  2  0  0  0  0  0  0
  188.2650  177.8330  139.6160 C   0  0  0  0  0  0  0  0  0  0  0  0
  190.5040  176.7400  139.2290 C   0  0  0  0  0  2  0  0  0  0  0  0
  185.4240  178.4980  145.1040 C   0  0  0  0  0  2  0  0  0  0  0  0
  186.4450  177.9140  144.1290 C   0  0  1  0  0  3  0  0  0  0  0  0
  188.0050  177.6700  146.0500 N   0  0  0  0  0  0  0  0  0  0  0  0
  189.6330  177.2290  141.4820 N   0  0  0  0  0  0  0  0  0  0  0  0
  191.2110  177.2350  143.6610 O   0  0  0  0  0  0  0  0  0  0  0  0
  188.9240  177.5860  143.8390 C   0  0  1  0  0  3  0  0  0  0  0  0
  189.2200  177.4560  146.6200 C   0  0  0  0  0  0  0  0  0  0  0  0
  189.2850  177.4450  148.1100 C   0  0  0  0  0  2  0  0  0  0  0  0
  188.0270  178.0650  148.6900 C   0  0  0  0  0  1  0  0  0  0  0  0
  192.1670  175.8340  146.7720 C   0  0  0  0  0  1  0  0  0  0  0  0
  191.6660  177.0690  146.2780 O   0  0  0  0  0  0  0  0  0  0  0  0
  188.4950  175.8010  137.3070 C   0  0  0  0  0  2  0  0  0  0  0  0
  189.9140  173.9580  136.3390 C   0  0  0  0  0  0  0  0  0  0  0  0
  189.0670  175.0940  136.1720 N   0  0  0  0  0  2  0  0  0  0  0  0
  190.2080  173.5410  137.4910 O   0  0  0  0  0  1  0  0  0  0  0  0
  190.4150  173.3040  135.2220 O   0  0  0  0  0  0  0  0  0  0  0  0
  1 14  1  0  0  0  0
  1  9  1  0  0  0  0
  3  4  1  0  0  0  0
  4 17  1  0  0  0  0
  5  6  1  0  0  0  0
  6 27  1  0  0  0  0
  6 23  2  0  0  0  0
  7 20  1  0  0  0  0
  8 11  2  0  0  0  0
  9 15  1  0  0  0  0
 10  3  1  0  0  0  0
 11  2  1  0  0  0  0
 11 12  1  0  0  0  0
 12 10  1  6  0  0  0
 12 18  1  0  0  0  0
 13 19  2  0  0  0  0
 14 16  1  0  0  0  0
 15  7  2  0  0  0  0
 15  8  1  0  0  0  0
 16  7  1  0  0  0  0
 18 13  1  0  0  0  0
 18 17  1  1  0  0  0
 19 23  1  0  0  0  0
 20  2  2  0  0  0  0
 21  5  2  0  0  0  0
 22  2  1  1  0  0  0
 22  5  1  0  0  0  0
 22 13  1  0  0  0  0
 23 24  1  0  0  0  0
 24 25  1  0  0  0  0
 27 26  1  0  0  0  0
 28  1  1  0  0  0  0
 29 31  1  0  0  0  0
 30 29  1  0  0  0  0
 30 28  1  0  0  0  0
 32 29  2  0  0  0  0
M  END
>  <MODEL>
1

>  <REMARK>
 VINA RESULT:     -10.0      0.000      0.000
  Name = 
  4 active torsions:
  status: ('A' for Active; 'I' for Inactive)
    1  A    between atoms: N_2  and  C_24
    2  A    between atoms: C_7  and  O_22
    3  A    between atoms: N_10  and  C_24
    4  A    between atoms: C_11  and  C_32
                            x       y       z     vdW  Elec       q    Type
                         _______ _______ _______ _____ _____    ______ ____

>  <TORSDO>
F 4

$$$$
=
 OpenBabel10272413363D

 32 36  0  0  1  0  0  0  0  0999 V2000
  190.2110  176.7930  137.0930 N   0  0  0  0  0  0  0  0  0  0  0  0
  189.3220  177.4350  142.0550 C   0  0  0  0  0  0  0  0  0  0  0  0
  184.7920  179.3050  142.3370 O   0  0  0  0  0  0  0  0  0  0  0  0
  184.5120  178.4750  143.4430 C   0  0  0  0  0  2  0  0  0  0  0  0
  190.5640  177.1920  144.2700 C   0  0  0  0  0  0  0  0  0  0  0  0
  190.5550  177.1650  145.6740 C   0  0  0  0  0  0  0  0  0  0  0  0
  190.3530  177.0030  139.9500 C   0  0  0  0  0  0  0  0  0  0  0  0
  188.1610  178.0070  140.0080 C   0  0  0  0  0  3  0  0  0  0  0  0
  189.2200  177.6410  137.7700 C   0  0  0  0  0  2  0  0  0  0  0  0
  185.7160  178.6200  141.5210 C   0  0  0  0  0  2  0  0  0  0  0  0
  188.1780  177.9470  141.4070 C   0  0  0  0  0  0  0  0  0  0  0  0
  187.0690  178.5430  142.2360 C   0  0  2  0  0  3  0  0  0  0  0  0
  188.1750  177.5940  144.2700 C   0  0  0  0  0  0  0  0  0  0  0  0
  191.5270  176.8900  137.7430 C   0  0  0  0  0  2  0  0  0  0  0  0
  189.2350  177.5140  139.2710 C   0  0  0  0  0  0  0  0  0  0  0  0
  191.5000  176.4080  139.1960 C   0  0  0  0  0  2  0  0  0  0  0  0
  185.7440  178.3500  144.3450 C   0  0  0  0  0  2  0  0  0  0  0  0
  186.8750  177.7350  143.5220 C   0  0  1  0  0  3  0  0  0  0  0  0
  188.1860  177.5500  145.6270 N   0  0  0  0  0  0  0  0  0  0  0  0
  190.3610  176.9670  141.3090 N   0  0  0  0  0  0  0  0  0  0  0  0
  191.6580  177.0390  143.6640 O   0  0  0  0  0  0  0  0  0  0  0  0
  189.3690  177.3970  143.5490 C   0  0  1  0  0  3  0  0  0  0  0  0
  189.3200  177.3520  146.3470 C   0  0  0  0  0  0  0  0  0  0  0  0
  189.2010  177.3870  147.8350 C   0  0  0  0  0  2  0  0  0  0  0  0
  187.8950  178.0470  148.2360 C   0  0  0  0  0  1  0  0  0  0  0  0
  192.1940  175.7530  146.9630 C   0  0  0  0  0  1  0  0  0  0  0  0
  191.7880  176.9540  146.3210 O   0  0  0  0  0  0  0  0  0  0  0  0
  189.7380  175.4120  137.0710 C   0  0  0  0  0  2  0  0  0  0  0  0
  187.4560  174.9570  136.1070 C   0  0  0  0  0  0  0  0  0  0  0  0
  188.8490  175.2170  135.9370 N   0  0  0  0  0  2  0  0  0  0  0  0
  186.9550  174.8710  137.2590 O   0  0  0  0  0  1  0  0  0  0  0  0
  186.6450  174.8030  134.9910 O   0  0  0  0  0  0  0  0  0  0  0  0
  1 14  1  0  0  0  0
  1  9  1  0  0  0  0
  3  4  1  0  0  0  0
  4 17  1  0  0  0  0
  5  6  1  0  0  0  0
  6 27  1  0  0  0  0
  6 23  2  0  0  0  0
  7 20  1  0  0  0  0
  8 11  2  0  0  0  0
  9 15  1  0  0  0  0
 10  3  1  0  0  0  0
 11  2  1  0  0  0  0
 11 12  1  0  0  0  0
 12 10  1  6  0  0  0
 12 18  1  0  0  0  0
 13 19  2  0  0  0  0
 14 16  1  0  0  0  0
 15  7  2  0  0  0  0
 15  8  1  0  0  0  0
 16  7  1  0  0  0  0
 18 13  1  0  0  0  0
 18 17  1  1  0  0  0
 19 23  1  0  0  0  0
 20  2  2  0  0  0  0
 21  5  2  0  0  0  0
 22  2  1  1  0  0  0
 22 13  1  0  0  0  0
 22  5  1  0  0  0  0
 23 24  1  0  0  0  0
 24 25  1  0  0  0  0
 27 26  1  0  0  0  0
 28  1  1  0  0  0  0
 29 31  1  0  0  0  0
 30 29  1  0  0  0  0
 30 28  1  0  0  0  0
 32 29  2  0  0  0  0
M  END
>  <MODEL>
2

>  <REMARK>
 VINA RESULT:      -9.9      1.254      1.326
  Name = 
  4 active torsions:
  status: ('A' for Active; 'I' for Inactive)
    1  A    between atoms: N_2  and  C_24
    2  A    between atoms: C_7  and  O_22
    3  A    between atoms: N_10  and  C_24
    4  A    between atoms: C_11  and  C_32
                            x       y       z     vdW  Elec       q    Type
                         _______ _______ _______ _____ _____    ______ ____

>  <TORSDO>
F 4

$$$$
=
 OpenBabel10272413363D

 32 36  0  0  1  0  0  0  0  0999 V2000
  187.0980  177.7020  137.1380 N   0  0  0  0  0  0  0  0  0  0  0  0
  187.7170  177.9730  142.1740 C   0  0  0  0  0  0  0  0  0  0  0  0
  183.4540  179.6640  143.9230 O   0  0  0  0  0  0  0  0  0  0  0  0
  183.5260  178.7520  144.9960 C   0  0  0  0  0  2  0  0  0  0  0  0
  189.5650  177.6230  143.8970 C   0  0  0  0  0  0  0  0  0  0  0  0
  189.9750  177.4990  145.2350 C   0  0  2  0  0  3  0  0  0  0  0  0
  188.0800  177.7220  139.8310 C   0  0  0  0  0  0  0  0  0  0  0  0
  185.9930  178.6440  140.6110 C   0  0  0  0  0  3  0  0  0  0  0  0
  186.3430  178.4680  138.1390 C   0  0  0  0  0  2  0  0  0  0  0  0
  184.1010  179.0690  142.8210 C   0  0  0  0  0  2  0  0  0  0  0  0
  186.4260  178.4890  141.9340 C   0  0  0  0  0  0  0  0  0  0  0  0
  185.6060  178.9890  143.0960 C   0  0  2  0  0  3  0  0  0  0  0  0
  187.2790  177.9410  144.6340 C   0  0  0  0  0  0  0  0  0  0  0  0
  188.5460  177.8000  137.3740 C   0  0  0  0  0  2  0  0  0  0  0  0
  186.8060  178.2400  139.5540 C   0  0  0  0  0  0  0  0  0  0  0  0
  188.9580  177.2190  138.7300 C   0  0  0  0  0  2  0  0  0  0  0  0
  184.9710  178.6070  145.4820 C   0  0  0  0  0  2  0  0  0  0  0  0
  185.8130  178.0900  144.3170 C   0  0  1  0  0  3  0  0  0  0  0  0
  187.6940  177.8050  145.9200 N   0  0  0  0  0  0  0  0  0  0  0  0
  188.4930  177.5930  141.1210 N   0  0  0  0  0  0  0  0  0  0  0  0
  190.4310  177.5490  142.9850 O   0  0  0  0  0  0  0  0  0  0  0  0
  188.2070  177.8350  143.5790 C   0  0  0  0  0  0  0  0  0  0  0  0
  188.9930  177.5980  146.2560 C   0  0  0  0  0  0  0  0  0  0  0  0
  189.3220  177.5270  147.7100 C   0  0  0  0  0  2  0  0  0  0  0  0
  188.1430  178.0130  148.5330 C   0  0  0  0  0  1  0  0  0  0  0  0
  191.9000  176.2560  146.2780 C   0  0  0  0  0  1  0  0  0  0  0  0
  191.3460  177.2860  145.4710 O   0  0  0  0  0  0  0  0  0  0  0  0
  186.6570  176.3110  137.1520 C   0  0  0  0  0  2  0  0  0  0  0  0
  184.4890  175.0300  137.0720 C   0  0  0  0  0  0  0  0  0  0  0  0
  185.2180  176.2510  136.9500 N   0  0  0  0  0  2  0  0  0  0  0  0
  185.0830  173.9530  137.3440 O   0  0  0  0  0  1  0  0  0  0  0  0
  183.1130  175.0310  136.8940 O   0  0  0  0  0  0  0  0  0  0  0  0
  1 28  1  0  0  0  0
  1 14  1  0  0  0  0
  1  9  1  0  0  0  0
  2 22  1  0  0  0  0
  3  4  1  0  0  0  0
  4 17  1  0  0  0  0
  5  6  1  0  0  0  0
  6 27  1  1  0  0  0
  6 23  1  0  0  0  0
  7 20  1  0  0  0  0
  8 11  2  0  0  0  0
  9 15  1  0  0  0  0
 10  3  1  0  0  0  0
 11  2  1  0  0  0  0
 11 12  1  0  0  0  0
 12 10  1  6  0  0  0
 12 18  1  0  0  0  0
 13 19  1  0  0  0  0
 14 16  1  0  0  0  0
 15  7  2  0  0  0  0
 15  8  1  0  0  0  0
 16  7  1  0  0  0  0
 18 13  1  0  0  0  0
 18 17  1  1  0  0  0
 19 23  2  0  0  0  0
 20  2  2  0  0  0  0
 21  5  2  0  0  0  0
 22  5  1  0  0  0  0
 22 13  2  0  0  0  0
 23 24  1  0  0  0  0
 24 25  1  0  0  0  0
 27 26  1  0  0  0  0
 29 31  1  0  0  0  0
 30 29  1  0  0  0  0
 30 28  1  0  0  0  0
 32 29  2  0  0  0  0
M  END
>  <MODEL>
3

>  <REMARK>
 VINA RESULT:      -9.1      2.088      2.310
  Name = 
  4 active torsions:
  status: ('A' for Active; 'I' for Inactive)
    1  A    between atoms: N_2  and  C_24
    2  A    between atoms: C_7  and  O_22
    3  A    between atoms: N_10  and  C_24
    4  A    between atoms: C_11  and  C_32
                            x       y       z     vdW  Elec       q    Type
                         _______ _______ _______ _____ _____    ______ ____

>  <TORSDO>
F 4

$$$$
=
 OpenBabel10272413363D

 32 36  0  0  1  0  0  0  0  0999 V2000
  190.4160  176.7310  136.7920 N   0  0  0  0  0  0  0  0  0  0  0  0
  189.0150  177.6620  141.5870 C   0  0  0  0  0  0  0  0  0  0  0  0
  184.4810  179.5190  141.2830 O   0  0  0  0  0  0  0  0  0  0  0  0
  184.0870  178.7550  142.4020 C   0  0  0  0  0  2  0  0  0  0  0  0
  190.0190  177.5600  143.9290 C   0  0  0  0  0  0  0  0  0  0  0  0
  189.8650  177.6170  145.3240 C   0  0  0  0  0  0  0  0  0  0  0  0
  190.2600  177.1120  139.6300 C   0  0  0  0  0  0  0  0  0  0  0  0
  188.0740  178.1050  139.4000 C   0  0  0  0  0  3  0  0  0  0  0  0
  189.3610  177.6120  137.3100 C   0  0  0  0  0  2  0  0  0  0  0  0
  185.4850  178.7920  140.6100 C   0  0  0  0  0  2  0  0  0  0  0  0
  187.9450  178.1280  140.7940 C   0  0  0  0  0  0  0  0  0  0  0  0
  186.7560  178.7660  141.4650 C   0  0  2  0  0  3  0  0  0  0  0  0
  187.6440  177.9460  143.6570 C   0  0  0  0  0  0  0  0  0  0  0  0
  191.6580  176.8740  137.5680 C   0  0  0  0  0  2  0  0  0  0  0  0
  189.2190  177.5750  138.8090 C   0  0  0  0  0  0  0  0  0  0  0  0
  191.4790  176.4800  139.0370 C   0  0  0  0  0  2  0  0  0  0  0  0
  185.2180  178.6910  143.4330 C   0  0  0  0  0  2  0  0  0  0  0  0
  186.4280  178.0360  142.7700 C   0  0  1  0  0  3  0  0  0  0  0  0
  187.5130  177.9840  145.0080 N   0  0  0  0  0  0  0  0  0  0  0  0
  190.1260  177.1570  140.9820 N   0  0  0  0  0  0  0  0  0  0  0  0
  191.1710  177.3780  143.4510 O   0  0  0  0  0  0  0  0  0  0  0  0
  188.9060  177.7140  143.0770 C   0  0  1  0  0  3  0  0  0  0  0  0
  188.5660  177.8360  145.8530 C   0  0  0  0  0  0  0  0  0  0  0  0
  188.2930  177.9590  147.3150 C   0  0  0  0  0  2  0  0  0  0  0  0
  186.8080  178.1660  147.5500 C   0  0  0  0  0  1  0  0  0  0  0  0
  191.6430  176.2130  146.4230 C   0  0  0  0  0  1  0  0  0  0  0  0
  191.0230  177.4520  146.1080 O   0  0  0  0  0  0  0  0  0  0  0  0
  189.9480  175.3480  136.8030 C   0  0  0  0  0  2  0  0  0  0  0  0
  191.2490  173.5890  135.5550 C   0  0  0  0  0  0  0  0  0  0  0  0
  190.3390  174.6880  135.5680 N   0  0  0  0  0  2  0  0  0  0  0  0
  191.7600  173.1670  136.6250 O   0  0  0  0  0  1  0  0  0  0  0  0
  191.5720  172.9790  134.3510 O   0  0  0  0  0  0  0  0  0  0  0  0
  1 28  1  0  0  0  0
  1  9  1  0  0  0  0
  1 14  1  0  0  0  0
  3  4  1  0  0  0  0
  4 17  1  0  0  0  0
  5  6  1  0  0  0  0
  6 23  2  0  0  0  0
  6 27  1  0  0  0  0
  7 20  2  0  0  0  0
  8 11  1  0  0  0  0
  9 15  1  0  0  0  0
 10  3  1  0  0  0  0
 11 12  1  0  0  0  0
 11  2  2  0  0  0  0
 12 10  1  6  0  0  0
 12 18  1  0  0  0  0
 13 19  2  0  0  0  0
 14 16  1  0  0  0  0
 15  8  2  0  0  0  0
 15  7  1  0  0  0  0
 16  7  1  0  0  0  0
 18 17  1  1  0  0  0
 18 13  1  0  0  0  0
 19 23  1  0  0  0  0
 20  2  1  0  0  0  0
 21  5  2  0  0  0  0
 22  2  1  6  0  0  0
 22 13  1  0  0  0  0
 22  5  1  0  0  0  0
 23 24  1  0  0  0  0
 24 25  1  0  0  0  0
 27 26  1  0  0  0  0
 29 30  1  0  0  0  0
 29 31  1  0  0  0  0
 30 28  1  0  0  0  0
 32 29  2  0  0  0  0
M  END
>  <MODEL>
4

>  <REMARK>
 VINA RESULT:      -8.6      1.182      1.330
  Name = 
  4 active torsions:
  status: ('A' for Active; 'I' for Inactive)
    1  A    between atoms: N_2  and  C_24
    2  A    between atoms: C_7  and  O_22
    3  A    between atoms: N_10  and  C_24
    4  A    between atoms: C_11  and  C_32
                            x       y       z     vdW  Elec       q    Type
                         _______ _______ _______ _____ _____    ______ ____

>  <TORSDO>
F 4

$$$$
=
 OpenBabel10272413363D

 32 36  0  0  1  0  0  0  0  0999 V2000
  180.7200  178.9140  141.1710 N   0  0  0  0  0  0  0  0  0  0  0  0
  185.5650  178.3810  142.6070 C   0  0  0  0  0  0  0  0  0  0  0  0
  185.5200  178.7310  147.5030 O   0  0  0  0  0  0  0  0  0  0  0  0
  186.4510  177.6750  147.5930 C   0  0  0  0  0  2  0  0  0  0  0  0
  187.8650  178.1380  141.5320 C   0  0  0  0  0  0  0  0  0  0  0  0
  189.2380  177.8640  141.6420 C   0  0  2  0  0  3  0  0  0  0  0  0
  183.5710  178.6530  141.3300 C   0  0  0  0  0  0  0  0  0  0  0  0
  183.4870  178.9290  143.7230 C   0  0  0  0  0  3  0  0  0  0  0  0
  181.3760  179.2940  142.4300 C   0  0  0  0  0  2  0  0  0  0  0  0
  184.7410  178.5080  146.3490 C   0  0  0  0  0  2  0  0  0  0  0  0
  184.8530  178.6330  143.7990 C   0  0  0  0  0  0  0  0  0  0  0  0
  185.6070  178.7150  145.1020 C   0  0  2  0  0  3  0  0  0  0  0  0
  187.6120  177.7990  143.9170 C   0  0  0  0  0  0  0  0  0  0  0  0
  181.5410  179.2850  140.0090 C   0  0  0  0  0  2  0  0  0  0  0  0
  182.8330  178.9170  142.4940 C   0  0  0  0  0  0  0  0  0  0  0  0
  182.8960  178.5700  139.9980 C   0  0  0  0  0  2  0  0  0  0  0  0
  187.4780  177.7680  146.4610 C   0  0  0  0  0  2  0  0  0  0  0  0
  186.7300  177.6740  145.1320 C   0  0  1  0  0  3  0  0  0  0  0  0
  188.9390  177.5240  144.0000 N   0  0  0  0  0  0  0  0  0  0  0  0
  184.9010  178.3840  141.4180 N   0  0  0  0  0  0  0  0  0  0  0  0
  187.3910  178.4280  140.4010 O   0  0  0  0  0  0  0  0  0  0  0  0
  187.0310  178.0980  142.6690 C   0  0  0  0  0  0  0  0  0  0  0  0
  189.7650  177.5520  142.9230 C   0  0  0  0  0  0  0  0  0  0  0  0
  191.2140  177.2880  143.1640 C   0  0  0  0  0  2  0  0  0  0  0  0
  191.4010  175.8980  143.7410 C   0  0  0  0  0  1  0  0  0  0  0  0
  190.4480  176.8030  139.7050 C   0  0  0  0  0  1  0  0  0  0  0  0
  190.0030  177.9210  140.4620 O   0  0  0  0  0  0  0  0  0  0  0  0
  180.4410  177.4800  141.1790 C   0  0  0  0  0  2  0  0  0  0  0  0
  180.6600  176.0570  139.1130 C   0  0  0  0  0  0  0  0  0  0  0  0
  179.9820  177.0630  139.8640 N   0  0  0  0  0  2  0  0  0  0  0  0
  181.6980  175.5070  139.5670 O   0  0  0  0  0  1  0  0  0  0  0  0
  180.1670  175.6770  137.8720 O   0  0  0  0  0  0  0  0  0  0  0  0
  1 28  1  0  0  0  0
  1  9  1  0  0  0  0
  2 22  1  0  0  0  0
  2 11  1  0  0  0  0
  3  4  1  0  0  0  0
  5  6  1  0  0  0  0
  5 22  1  0  0  0  0
  6 27  1  1  0  0  0
  6 23  1  0  0  0  0
  7 20  1  0  0  0  0
  7 15  2  0  0  0  0
  8 11  2  0  0  0  0
  9 15  1  0  0  0  0
 10  3  1  0  0  0  0
 11 12  1  0  0  0  0
 12 18  1  0  0  0  0
 12 10  1  1  0  0  0
 13 19  1  0  0  0  0
 13 18  1  0  0  0  0
 14  1  1  0  0  0  0
 15  8  1  0  0  0  0
 16 14  1  0  0  0  0
 16  7  1  0  0  0  0
 17  4  1  0  0  0  0
 18 17  1  1  0  0  0
 20  2  2  0  0  0  0
 21  5  2  0  0  0  0
 22 13  2  0  0  0  0
 23 24  1  0  0  0  0
 23 19  2  0  0  0  0
 24 25  1  0  0  0  0
 26 27  1  0  0  0  0
 29 31  1  0  0  0  0
 29 30  1  0  0  0  0
 30 28  1  0  0  0  0
 32 29  2  0  0  0  0
M  END
>  <MODEL>
5

>  <REMARK>
 VINA RESULT:      -8.6      3.854      6.217
  Name = 
  4 active torsions:
  status: ('A' for Active; 'I' for Inactive)
    1  A    between atoms: N_2  and  C_24
    2  A    between atoms: C_7  and  O_22
    3  A    between atoms: N_10  and  C_24
    4  A    between atoms: C_11  and  C_32
                            x       y       z     vdW  Elec       q    Type
                         _______ _______ _______ _____ _____    ______ ____

>  <TORSDO>
F 4

$$$$
=
 OpenBabel10272413363D

 32 36  0  0  1  0  0  0  0  0999 V2000
  191.3200  177.6890  144.7450 N   0  0  0  0  0  0  0  0  0  0  0  0
  189.2150  177.5410  140.1220 C   0  0  0  0  0  0  0  0  0  0  0  0
  192.8630  176.3400  137.0660 O   0  0  0  0  0  0  0  0  0  0  0  0
  191.9970  175.4770  136.3620 C   0  0  0  0  0  2  0  0  0  0  0  0
  186.9620  178.0250  139.0280 C   0  0  0  0  0  0  0  0  0  0  0  0
  186.1110  177.9600  137.9130 C   0  0  0  0  0  0  0  0  0  0  0  0
  189.6080  177.8650  142.4510 C   0  0  0  0  0  0  0  0  0  0  0  0
  191.4660  177.3660  140.9970 C   0  0  0  0  0  3  0  0  0  0  0  0
  191.9510  177.7620  143.4200 C   0  0  0  0  0  2  0  0  0  0  0  0
  192.4340  176.3620  138.4090 C   0  0  0  0  0  2  0  0  0  0  0  0
  190.5860  177.2890  139.9100 C   0  0  0  0  0  0  0  0  0  0  0  0
  191.0870  177.0850  138.5030 C   0  0  2  0  0  3  0  0  0  0  0  0
  188.7050  176.9260  137.7540 C   0  0  0  0  0  0  0  0  0  0  0  0
  190.1170  178.5330  144.8080 C   0  0  0  0  0  2  0  0  0  0  0  0
  190.9810  177.6290  142.2760 C   0  0  0  0  0  0  0  0  0  0  0  0
  189.0380  178.0900  143.8150 C   0  0  0  0  0  2  0  0  0  0  0  0
  190.5940  176.0840  136.2670 C   0  0  0  0  0  2  0  0  0  0  0  0
  190.0670  176.2860  137.6870 C   0  0  1  0  0  3  0  0  0  0  0  0
  187.8620  176.8610  136.6920 N   0  0  0  0  0  0  0  0  0  0  0  0
  188.7690  177.8040  141.3820 N   0  0  0  0  0  0  0  0  0  0  0  0
  186.5420  178.5700  140.0840 O   0  0  0  0  0  0  0  0  0  0  0  0
  188.2690  177.4980  138.9660 C   0  0  1  0  0  3  0  0  0  0  0  0
  186.5980  177.3570  136.7240 C   0  0  0  0  0  0  0  0  0  0  0  0
  185.7980  177.2740  135.4670 C   0  0  0  0  0  2  0  0  0  0  0  0
  186.5130  178.0060  134.3460 C   0  0  0  0  0  1  0  0  0  0  0  0
  183.6430  177.7820  138.3810 C   0  0  0  0  0  1  0  0  0  0  0  0
  184.8210  178.5060  138.0540 O   0  0  0  0  0  0  0  0  0  0  0  0
  191.0020  176.2990  145.0590 C   0  0  0  0  0  2  0  0  0  0  0  0
  191.9890  176.0960  147.3680 C   0  0  0  0  0  0  0  0  0  0  0  0
  191.9940  175.7660  145.9800 N   0  0  0  0  0  2  0  0  0  0  0  0
  191.1250  176.8830  147.8370 O   0  0  0  0  0  0  0  0  0  0  0  0
  192.9430  175.5410  148.2090 O   0  0  0  0  0  1  0  0  0  0  0  0
  1 14  1  0  0  0  0
  1 28  1  0  0  0  0
  2 20  1  0  0  0  0
  3 10  1  0  0  0  0
  4  3  1  0  0  0  0
  5 21  2  0  0  0  0
  6 27  1  0  0  0  0
  6  5  1  0  0  0  0
  7 16  1  0  0  0  0
  8 15  2  0  0  0  0
  9  1  1  0  0  0  0
 11  2  2  0  0  0  0
 11  8  1  0  0  0  0
 12 10  1  1  0  0  0
 12 11  1  0  0  0  0
 15  7  1  0  0  0  0
 15  9  1  0  0  0  0
 16 14  1  0  0  0  0
 17  4  1  0  0  0  0
 18 17  1  6  0  0  0
 18 13  1  0  0  0  0
 18 12  1  0  0  0  0
 19 23  1  0  0  0  0
 19 13  2  0  0  0  0
 20  7  2  0  0  0  0
 22 13  1  6  0  0  0
 22  5  1  0  0  0  0
 22  2  1  0  0  0  0
 23  6  2  0  0  0  0
 24 23  1  0  0  0  0
 25 24  1  0  0  0  0
 27 26  1  0  0  0  0
 28 30  1  0  0  0  0
 29 31  2  0  0  0  0
 29 32  1  0  0  0  0
 30 29  1  0  0  0  0
M  END
>  <MODEL>
6

>  <REMARK>
 VINA RESULT:      -8.0      2.621      8.758
  Name = 
  4 active torsions:
  status: ('A' for Active; 'I' for Inactive)
    1  A    between atoms: N_2  and  C_24
    2  A    between atoms: C_7  and  O_22
    3  A    between atoms: N_10  and  C_24
    4  A    between atoms: C_11  and  C_32
                            x       y       z     vdW  Elec       q    Type
                         _______ _______ _______ _____ _____    ______ ____

>  <TORSDO>
F 4

$$$$
=
 OpenBabel10272413363D

 32 36  0  0  1  0  0  0  0  0999 V2000
  180.7640  180.0010  138.2920 N   0  0  0  0  0  0  0  0  0  0  0  0
  184.7680  178.6030  141.0910 C   0  0  0  0  0  0  0  0  0  0  0  0
  188.3500  177.6680  137.8680 O   0  0  0  0  0  0  0  0  0  0  0  0
  189.2830  178.3070  138.7110 C   0  0  0  0  0  2  0  0  0  0  0  0
  185.3310  178.1560  143.5390 C   0  0  0  0  0  0  0  0  0  0  0  0
  186.2800  177.9130  144.5450 C   0  0  0  0  0  0  0  0  0  0  0  0
  182.5820  179.2170  140.3670 C   0  0  0  0  0  0  0  0  0  0  0  0
  184.2640  178.6840  138.7240 C   0  0  0  0  0  3  0  0  0  0  0  0
  181.9700  179.2550  137.9040 C   0  0  0  0  0  2  0  0  0  0  0  0
  187.1040  178.2970  138.0670 C   0  0  0  0  0  2  0  0  0  0  0  0
  185.1900  178.4680  139.7520 C   0  0  0  0  0  0  0  0  0  0  0  0
  186.5810  177.9590  139.4670 C   0  0  2  0  0  3  0  0  0  0  0  0
  187.1080  178.2540  141.8960 C   0  0  0  0  0  0  0  0  0  0  0  0
  180.2280  179.5160  139.5730 C   0  0  0  0  0  2  0  0  0  0  0  0
  182.9640  179.0840  139.0230 C   0  0  0  0  0  0  0  0  0  0  0  0
  181.2140  179.7020  140.7290 C   0  0  0  0  0  2  0  0  0  0  0  0
  188.9750  178.0040  140.1800 C   0  0  0  0  0  2  0  0  0  0  0  0
  187.5720  178.5250  140.4880 C   0  0  1  0  0  3  0  0  0  0  0  0
  188.0110  178.0310  142.8850 N   0  0  0  0  0  0  0  0  0  0  0  0
  183.4880  178.9870  141.3540 N   0  0  0  0  0  0  0  0  0  0  0  0
  184.1100  178.1990  143.8500 O   0  0  0  0  0  0  0  0  0  0  0  0
  185.7360  178.3410  142.2000 C   0  0  1  0  0  3  0  0  0  0  0  0
  187.6510  177.8520  144.1830 C   0  0  0  0  0  0  0  0  0  0  0  0
  188.7380  177.5540  145.1600 C   0  0  0  0  0  2  0  0  0  0  0  0
  190.0580  178.1050  144.6530 C   0  0  0  0  0  1  0  0  0  0  0  0
  185.7420  178.7460  146.8600 C   0  0  0  0  0  1  0  0  0  0  0  0
  185.7980  177.7410  145.8570 O   0  0  0  0  0  0  0  0  0  0  0  0
  181.0710  181.4270  138.3580 C   0  0  0  0  0  2  0  0  0  0  0  0
  181.1580  183.3670  136.7550 C   0  0  0  0  0  0  0  0  0  0  0  0
  180.6850  182.0690  137.1120 N   0  0  0  0  0  2  0  0  0  0  0  0
  181.9180  184.0080  137.5270 O   0  0  0  0  0  1  0  0  0  0  0  0
  180.7790  183.9270  135.5420 O   0  0  0  0  0  0  0  0  0  0  0  0
  1 28  1  0  0  0  0
  1 14  1  0  0  0  0
  2 20  1  0  0  0  0
  3 10  1  0  0  0  0
  3  4  1  0  0  0  0
  4 17  1  0  0  0  0
  5 21  2  0  0  0  0
  5  6  1  0  0  0  0
  6 27  1  0  0  0  0
  7 16  1  0  0  0  0
  7 20  2  0  0  0  0
  8 15  2  0  0  0  0
  8 11  1  0  0  0  0
  9  1  1  0  0  0  0
  9 15  1  0  0  0  0
 11  2  2  0  0  0  0
 12 10  1  6  0  0  0
 12 11  1  0  0  0  0
 12 18  1  0  0  0  0
 13 22  1  0  0  0  0
 13 19  2  0  0  0  0
 14 16  1  0  0  0  0
 15  7  1  0  0  0  0
 18 17  1  6  0  0  0
 18 13  1  0  0  0  0
 19 23  1  0  0  0  0
 22  2  1  6  0  0  0
 22  5  1  0  0  0  0
 23  6  2  0  0  0  0
 23 24  1  0  0  0  0
 25 24  1  0  0  0  0
 27 26  1  0  0  0  0
 29 30  1  0  0  0  0
 29 31  1  0  0  0  0
 30 28  1  0  0  0  0
 32 29  2  0  0  0  0
M  END
>  <MODEL>
7

>  <REMARK>
 VINA RESULT:      -7.4      4.471      7.262
  Name = 
  4 active torsions:
  status: ('A' for Active; 'I' for Inactive)
    1  A    between atoms: N_2  and  C_24
    2  A    between atoms: C_7  and  O_22
    3  A    between atoms: N_10  and  C_24
    4  A    between atoms: C_11  and  C_32
                            x       y       z     vdW  Elec       q    Type
                         _______ _______ _______ _____ _____    ______ ____

>  <TORSDO>
F 4

$$$$
