=
 OpenBabel10272400233D

 31 34  0  0  1  0  0  0  0  0999 V2000
  193.4640  175.7780  135.7270 C   0  0  1  0  0  3  0  0  0  0  0  0
  190.0010  177.1820  136.6340 C   0  0  2  0  0  3  0  0  0  0  0  0
  188.7530  176.5250  136.0500 C   0  0  0  0  0  0  0  0  0  0  0  0
  189.9670  174.0640  135.3830 Cl  0  0  0  0  0  0  0  0  0  0  0  0
  191.3000  176.4270  136.6760 C   0  0  0  0  0  0  0  0  0  0  0  0
  193.3110  174.4100  136.3990 C   0  0  0  0  0  2  0  0  0  0  0  0
  188.6560  175.2260  135.4770 C   0  0  0  0  0  0  0  0  0  0  0  0
  189.7810  176.8320  139.1790 C   0  0  2  0  0  3  0  0  0  0  0  0
  194.0600  175.6090  134.3460 C   0  0  0  0  0  1  0  0  0  0  0  0
  187.6550  178.6870  136.7190 C   0  0  0  0  0  2  0  0  0  0  0  0
  187.4330  174.7930  134.9520 C   0  0  0  0  0  3  0  0  0  0  0  0
  190.5920  175.5530  138.9150 C   0  0  0  0  0  2  0  0  0  0  0  0
  189.7120  177.8330  138.0060 C   0  0  2  0  0  3  0  0  0  0  0  0
  192.1280  176.4540  135.6260 C   0  0  0  0  0  3  0  0  0  0  0  0
  186.3070  175.6110  134.9850 C   0  0  0  0  0  3  0  0  0  0  0  0
  191.7640  175.7800  137.9630 C   0  0  1  0  0  3  0  0  0  0  0  0
  192.5220  174.4650  137.7230 C   0  0  0  0  0  2  0  0  0  0  0  0
  188.3790  178.6050  138.0650 C   0  0  0  0  0  2  0  0  0  0  0  0
  187.5940  177.3300  136.0890 C   0  0  0  0  0  0  0  0  0  0  0  0
  186.3860  176.8780  135.5550 C   0  0  0  0  0  3  0  0  0  0  0  0
  188.3690  176.8820  141.7270 O   0  0  0  0  0  0  0  0  0  0  0  0
  189.4620  177.4990  141.6350 C   0  0  0  0  0  0  0  0  0  0  0  0
  190.2110  177.4860  140.4120 N   0  0  0  0  0  2  0  0  0  0  0  0
  189.0180  178.1100  143.9870 C   0  0  0  0  0  1  0  0  0  0  0  0
  189.9770  178.2450  142.8190 C   0  0  1  0  0  3  0  0  0  0  0  0
  191.6230  177.6260  143.2850 S   0  0  0  0  0  0  0  0  0  0  0  0
  190.9660  176.6120  144.6410 C   0  0  0  0  0  2  0  0  0  0  0  0
  191.3430  176.8200  147.1320 C   0  0  0  0  0  0  0  0  0  0  0  0
  189.8790  176.8330  147.4100 C   0  0  0  0  0  1  0  0  0  0  0  0
  192.1530  176.9040  148.0910 O   0  0  0  0  0  0  0  0  0  0  0  0
  191.8420  176.7130  145.7970 N   0  0  0  0  0  2  0  0  0  0  0  0
  1  9  1  6  0  0  0
  1  6  1  0  0  0  0
  2  3  1  1  0  0  0
  2  5  1  0  0  0  0
  2 13  1  0  0  0  0
  3 19  1  0  0  0  0
  4  7  1  0  0  0  0
  5 16  1  0  0  0  0
  6 17  1  0  0  0  0
  7  3  2  0  0  0  0
  8 23  1  1  0  0  0
 10 18  1  0  0  0  0
 11 15  2  0  0  0  0
 11  7  1  0  0  0  0
 12  8  1  0  0  0  0
 13 18  1  6  0  0  0
 13  8  1  0  0  0  0
 14  1  1  0  0  0  0
 14  5  2  0  0  0  0
 15 20  1  0  0  0  0
 16 17  1  6  0  0  0
 16 12  1  0  0  0  0
 19 10  1  0  0  0  0
 20 19  2  0  0  0  0
 22 21  2  0  0  0  0
 22 25  1  0  0  0  0
 23 22  1  0  0  0  0
 25 26  1  0  0  0  0
 25 24  1  1  0  0  0
 26 27  1  0  0  0  0
 27 31  1  0  0  0  0
 28 29  1  0  0  0  0
 28 30  2  0  0  0  0
 31 28  1  0  0  0  0
M  END
>  <MODEL>
1

>  <REMARK>
 VINA RESULT:      -6.7      0.000      0.000
  Name = 
  5 active torsions:
  status: ('A' for Active; 'I' for Inactive)
    1  A    between atoms: S_6  and  C_19
    2  A    between atoms: S_6  and  C_22
    3  A    between atoms: C_9  and  C_22
    4  A    between atoms: C_15  and  N_23
    5  A    between atoms: C_19  and  N_24
                            x       y       z     vdW  Elec       q    Type
                         _______ _______ _______ _____ _____    ______ ____

>  <TORSDO>
F 5

$$$$
=
 OpenBabel10272400233D

 31 34  0  0  1  0  0  0  0  0999 V2000
  188.1110  173.0920  136.6380 C   0  0  1  0  0  3  0  0  0  0  0  0
  191.0650  175.3320  137.6560 C   0  0  2  0  0  3  0  0  0  0  0  0
  192.0870  175.7470  136.5990 C   0  0  0  0  0  0  0  0  0  0  0  0
  190.4530  175.2320  134.3540 Cl  0  0  0  0  0  0  0  0  0  0  0  0
  189.7020  174.8550  137.2390 C   0  0  0  0  0  0  0  0  0  0  0  0
  187.4190  174.0820  135.6980 C   0  0  0  0  0  2  0  0  0  0  0  0
  191.9220  175.7100  135.1860 C   0  0  0  0  0  0  0  0  0  0  0  0
  189.9940  177.5500  138.4190 C   0  0  2  0  0  3  0  0  0  0  0  0
  188.1680  171.7240  135.9920 C   0  0  0  0  0  1  0  0  0  0  0  0
  193.5100  176.2810  138.6030 C   0  0  0  0  0  2  0  0  0  0  0  0
  192.9810  176.0950  134.3570 C   0  0  0  0  0  3  0  0  0  0  0  0
  188.9620  177.2470  137.3190 C   0  0  0  0  0  2  0  0  0  0  0  0
  190.9460  176.3900  138.7770 C   0  0  2  0  0  3  0  0  0  0  0  0
  189.5000  173.5650  136.9520 C   0  0  0  0  0  3  0  0  0  0  0  0
  194.1950  176.5180  134.8930 C   0  0  0  0  0  3  0  0  0  0  0  0
  188.5130  175.7880  137.3130 C   0  0  1  0  0  3  0  0  0  0  0  0
  187.5000  175.5440  136.1830 C   0  0  0  0  0  2  0  0  0  0  0  0
  192.2990  176.9600  139.2460 C   0  0  0  0  0  2  0  0  0  0  0  0
  193.3200  176.1960  137.1190 C   0  0  0  0  0  0  0  0  0  0  0  0
  194.3640  176.5710  136.2730 C   0  0  0  0  0  3  0  0  0  0  0  0
  189.5520  176.1950  140.9600 O   0  0  0  0  0  0  0  0  0  0  0  0
  189.1380  177.3770  140.8310 C   0  0  0  0  0  0  0  0  0  0  0  0
  189.3520  178.0990  139.6100 N   0  0  0  0  0  2  0  0  0  0  0  0
  187.1440  178.6820  141.4810 C   0  0  0  0  0  1  0  0  0  0  0  0
  188.4230  178.0250  141.9670 C   0  0  1  0  0  3  0  0  0  0  0  0
  188.0460  176.7970  143.2550 S   0  0  0  0  0  0  0  0  0  0  0  0
  188.7890  177.8050  144.5710 C   0  0  0  0  0  2  0  0  0  0  0  0
  191.1330  176.9450  144.9610 C   0  0  0  0  0  0  0  0  0  0  0  0
  191.6670  177.7040  143.7950 C   0  0  0  0  0  1  0  0  0  0  0  0
  191.9150  176.2360  145.6450 O   0  0  0  0  0  0  0  0  0  0  0  0
  189.7500  177.0070  145.3150 N   0  0  0  0  0  2  0  0  0  0  0  0
  1  9  1  6  0  0  0
  1 14  1  0  0  0  0
  2  3  1  6  0  0  0
  2 13  1  0  0  0  0
  3 19  1  0  0  0  0
  4  7  1  0  0  0  0
  5 16  1  0  0  0  0
  5  2  1  0  0  0  0
  6 17  1  0  0  0  0
  6  1  1  0  0  0  0
  7  3  2  0  0  0  0
  8 13  1  0  0  0  0
  8 23  1  1  0  0  0
 10 18  1  0  0  0  0
 11 15  2  0  0  0  0
 11  7  1  0  0  0  0
 12  8  1  0  0  0  0
 13 18  1  6  0  0  0
 14  5  2  0  0  0  0
 15 20  1  0  0  0  0
 16 17  1  6  0  0  0
 16 12  1  0  0  0  0
 19 10  1  0  0  0  0
 20 19  2  0  0  0  0
 22 21  2  0  0  0  0
 22 25  1  0  0  0  0
 23 22  1  0  0  0  0
 25 24  1  6  0  0  0
 25 26  1  0  0  0  0
 26 27  1  0  0  0  0
 27 31  1  0  0  0  0
 28 31  1  0  0  0  0
 28 30  2  0  0  0  0
 29 28  1  0  0  0  0
M  END
>  <MODEL>
2

>  <REMARK>
 VINA RESULT:      -6.6      1.746      4.252
  Name = 
  5 active torsions:
  status: ('A' for Active; 'I' for Inactive)
    1  A    between atoms: S_6  and  C_19
    2  A    between atoms: S_6  and  C_22
    3  A    between atoms: C_9  and  C_22
    4  A    between atoms: C_15  and  N_23
    5  A    between atoms: C_19  and  N_24
                            x       y       z     vdW  Elec       q    Type
                         _______ _______ _______ _____ _____    ______ ____

>  <TORSDO>
F 5

$$$$
=
 OpenBabel10272400233D

 31 34  0  0  1  0  0  0  0  0999 V2000
  191.0840  175.3320  143.3550 C   0  0  1  0  0  3  0  0  0  0  0  0
  187.6440  177.0490  143.3930 C   0  0  2  0  0  3  0  0  0  0  0  0
  187.1740  177.7500  144.6660 C   0  0  0  0  0  0  0  0  0  0  0  0
  189.7250  178.0220  145.8440 Cl  0  0  0  0  0  0  0  0  0  0  0  0
  189.1060  176.7670  143.1850 C   0  0  0  0  0  0  0  0  0  0  0  0
  191.9410  176.5880  143.5270 C   0  0  0  0  0  2  0  0  0  0  0  0
  187.9790  178.1690  145.7620 C   0  0  0  0  0  0  0  0  0  0  0  0
  187.8170  178.9370  141.6460 C   0  0  2  0  0  3  0  0  0  0  0  0
  191.5820  174.2390  144.2760 C   0  0  0  0  0  1  0  0  0  0  0  0
  184.9120  177.5790  143.5770 C   0  0  0  0  0  2  0  0  0  0  0  0
  187.3750  178.7680  146.8720 C   0  0  0  0  0  3  0  0  0  0  0  0
  189.2770  179.0290  142.1210 C   0  0  0  0  0  2  0  0  0  0  0  0
  187.0350  177.6980  142.1290 C   0  0  2  0  0  3  0  0  0  0  0  0
  189.6480  175.6410  143.6620 C   0  0  0  0  0  3  0  0  0  0  0  0
  185.9970  178.9650  146.9220 C   0  0  0  0  0  3  0  0  0  0  0  0
  189.9330  177.6610  142.2870 C   0  0  1  0  0  3  0  0  0  0  0  0
  191.3800  177.8170  142.7810 C   0  0  0  0  0  2  0  0  0  0  0  0
  185.5410  178.0520  142.2640 C   0  0  0  0  0  2  0  0  0  0  0  0
  185.7820  177.9760  144.7300 C   0  0  0  0  0  0  0  0  0  0  0  0
  185.2010  178.5710  145.8510 C   0  0  0  0  0  3  0  0  0  0  0  0
  188.3870  176.9270  139.6150 O   0  0  0  0  0  0  0  0  0  0  0  0
  188.0380  178.0770  139.2400 C   0  0  0  0  0  0  0  0  0  0  0  0
  187.7210  179.0960  140.1980 N   0  0  0  0  0  2  0  0  0  0  0  0
  189.1470  179.1980  137.3380 C   0  0  0  0  0  1  0  0  0  0  0  0
  187.9540  178.3710  137.7800 C   0  0  1  0  0  3  0  0  0  0  0  0
  187.8790  176.8210  136.8310 S   0  0  0  0  0  0  0  0  0  0  0  0
  189.6320  176.9070  136.3640 C   0  0  0  0  0  2  0  0  0  0  0  0
  191.2110  175.4710  137.7170 C   0  0  0  0  0  0  0  0  0  0  0  0
  191.5760  176.6100  138.6070 C   0  0  0  0  0  1  0  0  0  0  0  0
  191.7370  174.3440  137.9120 O   0  0  0  0  0  0  0  0  0  0  0  0
  190.2770  175.6350  136.6490 N   0  0  0  0  0  2  0  0  0  0  0  0
  1  6  1  0  0  0  0
  1 14  1  0  0  0  0
  1  9  1  1  0  0  0
  2  5  1  6  0  0  0
  2  3  1  0  0  0  0
  3 19  2  0  0  0  0
  3  7  1  0  0  0  0
  5 14  2  0  0  0  0
  7  4  1  0  0  0  0
  7 11  2  0  0  0  0
  8 23  1  6  0  0  0
  8 12  1  0  0  0  0
  8 13  1  0  0  0  0
 10 19  1  0  0  0  0
 11 15  1  0  0  0  0
 13 18  1  1  0  0  0
 13  2  1  0  0  0  0
 16 12  1  1  0  0  0
 16 17  1  0  0  0  0
 16  5  1  0  0  0  0
 17  6  1  0  0  0  0
 18 10  1  0  0  0  0
 19 20  1  0  0  0  0
 20 15  2  0  0  0  0
 22 21  2  0  0  0  0
 22 23  1  0  0  0  0
 25 24  1  6  0  0  0
 25 22  1  0  0  0  0
 26 25  1  0  0  0  0
 27 31  1  0  0  0  0
 27 26  1  0  0  0  0
 28 30  2  0  0  0  0
 28 29  1  0  0  0  0
 31 28  1  0  0  0  0
M  END
>  <MODEL>
3

>  <REMARK>
 VINA RESULT:      -6.3      3.872      8.065
  Name = 
  5 active torsions:
  status: ('A' for Active; 'I' for Inactive)
    1  A    between atoms: S_6  and  C_19
    2  A    between atoms: S_6  and  C_22
    3  A    between atoms: C_9  and  C_22
    4  A    between atoms: C_15  and  N_23
    5  A    between atoms: C_19  and  N_24
                            x       y       z     vdW  Elec       q    Type
                         _______ _______ _______ _____ _____    ______ ____

>  <TORSDO>
F 5

$$$$
=
 OpenBabel10272400233D

 31 34  0  0  1  0  0  0  0  0999 V2000
  188.8940  173.7110  135.4310 C   0  0  1  0  0  3  0  0  0  0  0  0
  189.4000  176.0250  138.4600 C   0  0  2  0  0  3  0  0  0  0  0  0
  190.8100  176.4880  138.8180 C   0  0  0  0  0  0  0  0  0  0  0  0
  191.9720  175.9590  136.3000 Cl  0  0  0  0  0  0  0  0  0  0  0  0
  189.1040  175.5130  137.0770 C   0  0  0  0  0  0  0  0  0  0  0  0
  189.3420  174.6940  134.3460 C   0  0  0  0  0  2  0  0  0  0  0  0
  191.9590  176.4680  137.9790 C   0  0  0  0  0  0  0  0  0  0  0  0
  188.1430  178.1960  137.8620 C   0  0  2  0  0  3  0  0  0  0  0  0
  189.5240  172.3560  135.1870 C   0  0  0  0  0  1  0  0  0  0  0  0
  189.7530  177.0330  141.0350 C   0  0  0  0  0  2  0  0  0  0  0  0
  193.1900  176.8990  138.4840 C   0  0  0  0  0  3  0  0  0  0  0  0
  188.6000  177.8790  136.4280 C   0  0  0  0  0  2  0  0  0  0  0  0
  188.3350  177.0600  138.8890 C   0  0  2  0  0  3  0  0  0  0  0  0
  189.2920  174.2210  136.7850 C   0  0  0  0  0  3  0  0  0  0  0  0
  193.3100  177.3510  139.7960 C   0  0  0  0  0  3  0  0  0  0  0  0
  188.4270  176.4070  136.0630 C   0  0  1  0  0  3  0  0  0  0  0  0
  188.9170  176.1500  134.6280 C   0  0  0  0  0  2  0  0  0  0  0  0
  188.5770  177.6640  140.2860 C   0  0  0  0  0  2  0  0  0  0  0  0
  190.9520  176.9660  140.1390 C   0  0  0  0  0  0  0  0  0  0  0  0
  192.1910  177.3870  140.6220 C   0  0  0  0  0  3  0  0  0  0  0  0
  185.6860  176.6430  137.6670 O   0  0  0  0  0  0  0  0  0  0  0  0
  185.5980  177.8960  137.7570 C   0  0  0  0  0  0  0  0  0  0  0  0
  186.7760  178.7050  137.8810 N   0  0  0  0  0  2  0  0  0  0  0  0
  183.1680  177.4750  137.6280 C   0  0  0  0  0  1  0  0  0  0  0  0
  184.2500  178.5330  137.7370 C   0  0  1  0  0  3  0  0  0  0  0  0
  184.0040  179.5300  139.2380 S   0  0  0  0  0  0  0  0  0  0  0  0
  183.6010  178.0790  140.2540 C   0  0  0  0  0  2  0  0  0  0  0  0
  183.9050  178.6260  142.7020 C   0  0  0  0  0  0  0  0  0  0  0  0
  185.3600  178.3060  142.6520 C   0  0  0  0  0  1  0  0  0  0  0  0
  183.3950  179.0060  143.7880 O   0  0  0  0  0  0  0  0  0  0  0  0
  183.0810  178.5110  141.5410 N   0  0  0  0  0  2  0  0  0  0  0  0
  1  9  1  6  0  0  0
  1 14  1  0  0  0  0
  2  5  1  6  0  0  0
  2  3  1  0  0  0  0
  2 13  1  0  0  0  0
  3 19  1  0  0  0  0
  4  7  1  0  0  0  0
  6 17  1  0  0  0  0
  6  1  1  0  0  0  0
  7 11  1  0  0  0  0
  7  3  2  0  0  0  0
  8 23  1  6  0  0  0
  8 13  1  0  0  0  0
 11 15  2  0  0  0  0
 12  8  1  0  0  0  0
 13 18  1  1  0  0  0
 14  5  2  0  0  0  0
 15 20  1  0  0  0  0
 16 17  1  6  0  0  0
 16 12  1  0  0  0  0
 16  5  1  0  0  0  0
 18 10  1  0  0  0  0
 19 20  2  0  0  0  0
 19 10  1  0  0  0  0
 21 22  2  0  0  0  0
 22 23  1  0  0  0  0
 25 24  1  1  0  0  0
 25 22  1  0  0  0  0
 25 26  1  0  0  0  0
 26 27  1  0  0  0  0
 27 31  1  0  0  0  0
 28 30  2  0  0  0  0
 29 28  1  0  0  0  0
 31 28  1  0  0  0  0
M  END
>  <MODEL>
4

>  <REMARK>
 VINA RESULT:      -6.2      4.044      6.047
  Name = 
  5 active torsions:
  status: ('A' for Active; 'I' for Inactive)
    1  A    between atoms: S_6  and  C_19
    2  A    between atoms: S_6  and  C_22
    3  A    between atoms: C_9  and  C_22
    4  A    between atoms: C_15  and  N_23
    5  A    between atoms: C_19  and  N_24
                            x       y       z     vdW  Elec       q    Type
                         _______ _______ _______ _____ _____    ______ ____

>  <TORSDO>
F 5

$$$$
=
 OpenBabel10272400233D

 31 34  0  0  1  0  0  0  0  0999 V2000
  191.0590  175.0810  143.3530 C   0  0  1  0  0  3  0  0  0  0  0  0
  187.7190  176.9760  143.5350 C   0  0  2  0  0  3  0  0  0  0  0  0
  187.3300  177.6810  144.8330 C   0  0  0  0  0  0  0  0  0  0  0  0
  189.9310  177.7980  145.9260 Cl  0  0  0  0  0  0  0  0  0  0  0  0
  189.1560  176.6210  143.2720 C   0  0  0  0  0  0  0  0  0  0  0  0
  191.9870  176.2870  143.5130 C   0  0  0  0  0  2  0  0  0  0  0  0
  188.1930  178.0380  145.9060 C   0  0  0  0  0  0  0  0  0  0  0  0
  187.9330  178.8810  141.8100 C   0  0  2  0  0  3  0  0  0  0  0  0
  191.5290  173.9480  144.2410 C   0  0  0  0  0  1  0  0  0  0  0  0
  185.0270  177.6470  143.8210 C   0  0  0  0  0  2  0  0  0  0  0  0
  187.6600  178.6510  147.0460 C   0  0  0  0  0  3  0  0  0  0  0  0
  189.4110  178.8880  142.2360 C   0  0  0  0  0  2  0  0  0  0  0  0
  187.1030  177.6770  142.3020 C   0  0  2  0  0  3  0  0  0  0  0  0
  189.6530  175.4610  143.7140 C   0  0  0  0  0  3  0  0  0  0  0  0
  186.2970  178.9190  147.1460 C   0  0  0  0  0  3  0  0  0  0  0  0
  189.9990  177.4840  142.3590 C   0  0  1  0  0  3  0  0  0  0  0  0
  191.4680  177.5560  142.8050 C   0  0  0  0  0  2  0  0  0  0  0  0
  185.6350  178.1070  142.4930 C   0  0  0  0  0  2  0  0  0  0  0  0
  185.9550  177.9790  144.9490 C   0  0  0  0  0  0  0  0  0  0  0  0
  185.4450  178.5850  146.0970 C   0  0  0  0  0  3  0  0  0  0  0  0
  188.5730  176.9560  139.7190 O   0  0  0  0  0  0  0  0  0  0  0  0
  188.1510  178.0920  139.3790 C   0  0  0  0  0  0  0  0  0  0  0  0
  187.7970  179.0680  140.3690 N   0  0  0  0  0  2  0  0  0  0  0  0
  189.3570  178.8470  137.3600 C   0  0  0  0  0  1  0  0  0  0  0  0
  188.0190  178.4140  137.9300 C   0  0  1  0  0  3  0  0  0  0  0  0
  187.3880  176.9710  137.0200 S   0  0  0  0  0  0  0  0  0  0  0  0
  185.6690  177.2870  137.5140 C   0  0  0  0  0  2  0  0  0  0  0  0
  184.5250  179.0790  138.8800 C   0  0  0  0  0  0  0  0  0  0  0  0
  183.5500  178.1050  139.4480 C   0  0  0  0  0  1  0  0  0  0  0  0
  184.4570  180.2880  139.2220 O   0  0  0  0  0  0  0  0  0  0  0  0
  185.5320  178.6660  137.9550 N   0  0  0  0  0  2  0  0  0  0  0  0
  1  6  1  0  0  0  0
  1 14  1  0  0  0  0
  1  9  1  1  0  0  0
  2  5  1  6  0  0  0
  2  3  1  0  0  0  0
  3 19  2  0  0  0  0
  3  7  1  0  0  0  0
  5 14  2  0  0  0  0
  7  4  1  0  0  0  0
  7 11  2  0  0  0  0
  8 23  1  6  0  0  0
  8 12  1  0  0  0  0
  8 13  1  0  0  0  0
 10 19  1  0  0  0  0
 11 15  1  0  0  0  0
 13 18  1  1  0  0  0
 13  2  1  0  0  0  0
 16 12  1  1  0  0  0
 16 17  1  0  0  0  0
 16  5  1  0  0  0  0
 17  6  1  0  0  0  0
 18 10  1  0  0  0  0
 19 20  1  0  0  0  0
 20 15  2  0  0  0  0
 22 21  2  0  0  0  0
 22 23  1  0  0  0  0
 25 24  1  6  0  0  0
 25 22  1  0  0  0  0
 26 27  1  0  0  0  0
 26 25  1  0  0  0  0
 27 31  1  0  0  0  0
 28 30  2  0  0  0  0
 28 29  1  0  0  0  0
 31 28  1  0  0  0  0
M  END
>  <MODEL>
5

>  <REMARK>
 VINA RESULT:      -6.1      4.461      8.345
  Name = 
  5 active torsions:
  status: ('A' for Active; 'I' for Inactive)
    1  A    between atoms: S_6  and  C_19
    2  A    between atoms: S_6  and  C_22
    3  A    between atoms: C_9  and  C_22
    4  A    between atoms: C_15  and  N_23
    5  A    between atoms: C_19  and  N_24
                            x       y       z     vdW  Elec       q    Type
                         _______ _______ _______ _____ _____    ______ ____

>  <TORSDO>
F 5

$$$$
=
 OpenBabel10272400233D

 31 34  0  0  1  0  0  0  0  0999 V2000
  181.5810  177.3800  139.9360 C   0  0  1  0  0  3  0  0  0  0  0  0
  183.3080  174.5710  137.9590 C   0  0  2  0  0  3  0  0  0  0  0  0
  182.5360  173.8490  136.8570 C   0  0  0  0  0  0  0  0  0  0  0  0
  180.5660  175.8400  136.4900 Cl  0  0  0  0  0  0  0  0  0  0  0  0
  182.8560  175.9240  138.4350 C   0  0  0  0  0  0  0  0  0  0  0  0
  181.4070  178.3670  138.7790 C   0  0  0  0  0  2  0  0  0  0  0  0
  181.3540  174.2980  136.2030 C   0  0  0  0  0  0  0  0  0  0  0  0
  185.2600  175.7200  136.7280 C   0  0  2  0  0  3  0  0  0  0  0  0
  180.2980  177.2940  140.7350 C   0  0  0  0  0  1  0  0  0  0  0  0
  184.3370  172.1150  137.1310 C   0  0  0  0  0  2  0  0  0  0  0  0
  180.7520  173.4890  135.2350 C   0  0  0  0  0  3  0  0  0  0  0  0
  184.2950  176.9140  136.6390 C   0  0  0  0  0  2  0  0  0  0  0  0
  184.8280  174.5810  137.6750 C   0  0  2  0  0  3  0  0  0  0  0  0
  181.9420  176.0230  139.4070 C   0  0  0  0  0  3  0  0  0  0  0  0
  181.2920  172.2500  134.8960 C   0  0  0  0  0  3  0  0  0  0  0  0
  183.5530  177.1740  137.9470 C   0  0  1  0  0  3  0  0  0  0  0  0
  182.5920  178.3640  137.7900 C   0  0  0  0  0  2  0  0  0  0  0  0
  185.3760  173.2390  137.1500 C   0  0  0  0  0  2  0  0  0  0  0  0
  183.0740  172.5980  136.4860 C   0  0  0  0  0  0  0  0  0  0  0  0
  182.4530  171.8060  135.5200 C   0  0  0  0  0  3  0  0  0  0  0  0
  187.2810  176.5490  134.7990 O   0  0  0  0  0  0  0  0  0  0  0  0
  187.5870  176.5370  136.0200 C   0  0  0  0  0  0  0  0  0  0  0  0
  186.6220  176.1620  137.0130 N   0  0  0  0  0  2  0  0  0  0  0  0
  189.9100  176.8440  135.2400 C   0  0  0  0  0  1  0  0  0  0  0  0
  188.9680  176.9230  136.4270 C   0  0  1  0  0  3  0  0  0  0  0  0
  188.9730  178.6040  137.1210 S   0  0  0  0  0  0  0  0  0  0  0  0
  189.0740  178.0030  138.8320 C   0  0  0  0  0  2  0  0  0  0  0  0
  187.8340  178.4080  140.9960 C   0  0  0  0  0  0  0  0  0  0  0  0
  188.9940  177.9530  141.8130 C   0  0  0  0  0  1  0  0  0  0  0  0
  186.7830  178.7850  141.5770 O   0  0  0  0  0  0  0  0  0  0  0  0
  187.8930  178.4240  139.5690 N   0  0  0  0  0  2  0  0  0  0  0  0
  1  9  1  6  0  0  0
  2  3  1  6  0  0  0
  2  5  1  0  0  0  0
  5 14  2  0  0  0  0
  6  1  1  0  0  0  0
  7  4  1  0  0  0  0
  7  3  2  0  0  0  0
  8 23  1  1  0  0  0
  8 13  1  0  0  0  0
 10 18  1  0  0  0  0
 11  7  1  0  0  0  0
 12  8  1  0  0  0  0
 13 18  1  6  0  0  0
 13  2  1  0  0  0  0
 14  1  1  0  0  0  0
 15 11  2  0  0  0  0
 15 20  1  0  0  0  0
 16 12  1  6  0  0  0
 16  5  1  0  0  0  0
 17 16  1  0  0  0  0
 17  6  1  0  0  0  0
 19  3  1  0  0  0  0
 19 10  1  0  0  0  0
 20 19  2  0  0  0  0
 21 22  2  0  0  0  0
 22 25  1  0  0  0  0
 22 23  1  0  0  0  0
 25 24  1  6  0  0  0
 25 26  1  0  0  0  0
 26 27  1  0  0  0  0
 27 31  1  0  0  0  0
 28 30  2  0  0  0  0
 28 29  1  0  0  0  0
 31 28  1  0  0  0  0
M  END
>  <MODEL>
6

>  <REMARK>
 VINA RESULT:      -6.0      4.802      8.205
  Name = 
  5 active torsions:
  status: ('A' for Active; 'I' for Inactive)
    1  A    between atoms: S_6  and  C_19
    2  A    between atoms: S_6  and  C_22
    3  A    between atoms: C_9  and  C_22
    4  A    between atoms: C_15  and  N_23
    5  A    between atoms: C_19  and  N_24
                            x       y       z     vdW  Elec       q    Type
                         _______ _______ _______ _____ _____    ______ ____

>  <TORSDO>
F 5

$$$$
=
 OpenBabel10272400233D

 31 34  0  0  1  0  0  0  0  0999 V2000
  181.2410  177.7710  141.4200 C   0  0  1  0  0  3  0  0  0  0  0  0
  181.6420  177.9240  137.5990 C   0  0  2  0  0  3  0  0  0  0  0  0
  181.2770  179.2110  136.8610 C   0  0  0  0  0  0  0  0  0  0  0  0
  181.4080  180.9170  139.1060 Cl  0  0  0  0  0  0  0  0  0  0  0  0
  181.9260  177.9580  139.0750 C   0  0  0  0  0  0  0  0  0  0  0  0
  182.2980  178.8190  141.7780 C   0  0  0  0  0  2  0  0  0  0  0  0
  181.1280  180.5090  137.4230 C   0  0  0  0  0  0  0  0  0  0  0  0
  184.1690  177.6380  137.1770 C   0  0  2  0  0  3  0  0  0  0  0  0
  179.9840  178.0120  142.2280 C   0  0  0  0  0  1  0  0  0  0  0  0
  181.2400  177.7010  134.8480 C   0  0  0  0  0  2  0  0  0  0  0  0
  180.7510  181.5770  136.6020 C   0  0  0  0  0  3  0  0  0  0  0  0
  184.3180  178.4220  138.4920 C   0  0  0  0  0  2  0  0  0  0  0  0
  182.7460  177.1370  136.8560 C   0  0  2  0  0  3  0  0  0  0  0  0
  180.9250  177.8380  139.9540 C   0  0  0  0  0  3  0  0  0  0  0  0
  180.5210  181.3910  135.2410 C   0  0  0  0  0  3  0  0  0  0  0  0
  183.3530  177.9470  139.5760 C   0  0  1  0  0  3  0  0  0  0  0  0
  183.5350  178.7790  140.8560 C   0  0  0  0  0  2  0  0  0  0  0  0
  182.5530  177.0780  135.3280 C   0  0  0  0  0  2  0  0  0  0  0  0
  181.0560  179.0490  135.4750 C   0  0  0  0  0  0  0  0  0  0  0  0
  180.6760  180.1280  134.6770 C   0  0  0  0  0  3  0  0  0  0  0  0
  186.2330  177.2860  135.1510 O   0  0  0  0  0  0  0  0  0  0  0  0
  186.1280  176.4180  136.0560 C   0  0  0  0  0  0  0  0  0  0  0  0
  185.1460  176.5560  137.0930 N   0  0  0  0  0  2  0  0  0  0  0  0
  186.3900  174.0730  135.3270 C   0  0  0  0  0  1  0  0  0  0  0  0
  187.0420  175.2410  136.0440 C   0  0  1  0  0  3  0  0  0  0  0  0
  188.6140  175.6730  135.2360 S   0  0  0  0  0  0  0  0  0  0  0  0
  189.3420  176.3080  136.7740 C   0  0  0  0  0  2  0  0  0  0  0  0
  188.8410  178.6220  137.6580 C   0  0  0  0  0  0  0  0  0  0  0  0
  188.0450  178.0780  138.7940 C   0  0  0  0  0  1  0  0  0  0  0  0
  188.9740  179.8680  137.5400 O   0  0  0  0  0  0  0  0  0  0  0  0
  189.4540  177.7560  136.7010 N   0  0  0  0  0  2  0  0  0  0  0  0
  1  6  1  0  0  0  0
  1  9  1  1  0  0  0
  2  3  1  6  0  0  0
  2  5  1  0  0  0  0
  3  7  1  0  0  0  0
  5 16  1  0  0  0  0
  5 14  2  0  0  0  0
  7  4  1  0  0  0  0
  8 23  1  1  0  0  0
  8 12  1  0  0  0  0
 10 18  1  0  0  0  0
 10 19  1  0  0  0  0
 11  7  2  0  0  0  0
 13 18  1  6  0  0  0
 13  8  1  0  0  0  0
 13  2  1  0  0  0  0
 14  1  1  0  0  0  0
 15 11  1  0  0  0  0
 16 12  1  6  0  0  0
 16 17  1  0  0  0  0
 17  6  1  0  0  0  0
 19  3  2  0  0  0  0
 20 15  2  0  0  0  0
 20 19  1  0  0  0  0
 21 22  2  0  0  0  0
 22 23  1  0  0  0  0
 25 24  1  6  0  0  0
 25 22  1  0  0  0  0
 26 25  1  0  0  0  0
 26 27  1  0  0  0  0
 28 29  1  0  0  0  0
 30 28  2  0  0  0  0
 31 27  1  0  0  0  0
 31 28  1  0  0  0  0
M  END
>  <MODEL>
7

>  <REMARK>
 VINA RESULT:      -6.0      5.833      9.356
  Name = 
  5 active torsions:
  status: ('A' for Active; 'I' for Inactive)
    1  A    between atoms: S_6  and  C_19
    2  A    between atoms: S_6  and  C_22
    3  A    between atoms: C_9  and  C_22
    4  A    between atoms: C_15  and  N_23
    5  A    between atoms: C_19  and  N_24
                            x       y       z     vdW  Elec       q    Type
                         _______ _______ _______ _____ _____    ______ ____

>  <TORSDO>
F 5

$$$$
=
 OpenBabel10272400233D

 31 34  0  0  1  0  0  0  0  0999 V2000
  186.6140  173.5310  135.6980 C   0  0  1  0  0  3  0  0  0  0  0  0
  188.9900  175.7000  137.8040 C   0  0  2  0  0  3  0  0  0  0  0  0
  190.4270  175.9090  137.3310 C   0  0  0  0  0  0  0  0  0  0  0  0
  189.9830  175.2050  134.6330 Cl  0  0  0  0  0  0  0  0  0  0  0  0
  187.9340  175.2570  136.8300 C   0  0  0  0  0  0  0  0  0  0  0  0
  186.5620  174.4300  134.4600 C   0  0  0  0  0  2  0  0  0  0  0  0
  190.9380  175.6960  136.0200 C   0  0  0  0  0  0  0  0  0  0  0  0
  187.9530  178.0600  137.7680 C   0  0  2  0  0  3  0  0  0  0  0  0
  186.8070  172.0890  135.2780 C   0  0  0  0  0  1  0  0  0  0  0  0
  190.8020  176.6120  139.7170 C   0  0  0  0  0  2  0  0  0  0  0  0
  192.2980  175.9030  135.7680 C   0  0  0  0  0  3  0  0  0  0  0  0
  187.5260  177.6790  136.3400 C   0  0  0  0  0  2  0  0  0  0  0  0
  188.4850  176.9010  138.6360 C   0  0  2  0  0  3  0  0  0  0  0  0
  187.7410  173.9540  136.5940 C   0  0  0  0  0  3  0  0  0  0  0  0
  193.1620  176.3180  136.7790 C   0  0  0  0  0  3  0  0  0  0  0  0
  186.9660  176.2630  136.2470 C   0  0  1  0  0  3  0  0  0  0  0  0
  186.5760  175.9350  134.7960 C   0  0  0  0  0  2  0  0  0  0  0  0
  189.5180  177.4440  139.6430 C   0  0  0  0  0  2  0  0  0  0  0  0
  191.3170  176.3450  138.3360 C   0  0  0  0  0  0  0  0  0  0  0  0
  192.6710  176.5410  138.0620 C   0  0  0  0  0  3  0  0  0  0  0  0
  185.2760  177.1090  138.4180 O   0  0  0  0  0  0  0  0  0  0  0  0
  185.5860  178.2890  138.7300 C   0  0  0  0  0  0  0  0  0  0  0  0
  186.8980  178.7990  138.4560 N   0  0  0  0  0  2  0  0  0  0  0  0
  183.3200  179.2550  138.5380 C   0  0  0  0  0  1  0  0  0  0  0  0
  184.5700  179.1550  139.3940 C   0  0  1  0  0  3  0  0  0  0  0  0
  184.1540  178.4910  141.0350 S   0  0  0  0  0  0  0  0  0  0  0  0
  185.6580  179.1650  141.7970 C   0  0  0  0  0  2  0  0  0  0  0  0
  186.7620  177.5430  143.3890 C   0  0  0  0  0  0  0  0  0  0  0  0
  185.9830  178.0610  144.5490 C   0  0  0  0  0  1  0  0  0  0  0  0
  187.5860  176.6090  143.5690 O   0  0  0  0  0  0  0  0  0  0  0  0
  186.5910  178.0860  142.0790 N   0  0  0  0  0  2  0  0  0  0  0  0
  1  9  1  6  0  0  0
  1 14  1  0  0  0  0
  2  5  1  6  0  0  0
  2 13  1  0  0  0  0
  3  2  1  0  0  0  0
  3 19  1  0  0  0  0
  4  7  1  0  0  0  0
  6 17  1  0  0  0  0
  6  1  1  0  0  0  0
  7  3  2  0  0  0  0
  8 23  1  1  0  0  0
  8 13  1  0  0  0  0
 11  7  1  0  0  0  0
 11 15  2  0  0  0  0
 12  8  1  0  0  0  0
 13 18  1  6  0  0  0
 14  5  2  0  0  0  0
 15 20  1  0  0  0  0
 16 17  1  6  0  0  0
 16 12  1  0  0  0  0
 16  5  1  0  0  0  0
 18 10  1  0  0  0  0
 19 10  1  0  0  0  0
 20 19  2  0  0  0  0
 21 22  2  0  0  0  0
 22 25  1  0  0  0  0
 23 22  1  0  0  0  0
 25 24  1  6  0  0  0
 25 26  1  0  0  0  0
 26 27  1  0  0  0  0
 27 31  1  0  0  0  0
 28 30  2  0  0  0  0
 28 29  1  0  0  0  0
 31 28  1  0  0  0  0
M  END
>  <MODEL>
8

>  <REMARK>
 VINA RESULT:      -6.0      3.128      5.424
  Name = 
  5 active torsions:
  status: ('A' for Active; 'I' for Inactive)
    1  A    between atoms: S_6  and  C_19
    2  A    between atoms: S_6  and  C_22
    3  A    between atoms: C_9  and  C_22
    4  A    between atoms: C_15  and  N_23
    5  A    between atoms: C_19  and  N_24
                            x       y       z     vdW  Elec       q    Type
                         _______ _______ _______ _____ _____    ______ ____

>  <TORSDO>
F 5

$$$$
=
 OpenBabel10272400233D

 31 34  0  0  1  0  0  0  0  0999 V2000
  182.0770  177.4270  139.9530 C   0  0  1  0  0  3  0  0  0  0  0  0
  183.1360  174.3470  137.9090 C   0  0  2  0  0  3  0  0  0  0  0  0
  182.2300  173.8490  136.7850 C   0  0  0  0  0  0  0  0  0  0  0  0
  180.7720  176.2460  136.4630 Cl  0  0  0  0  0  0  0  0  0  0  0  0
  183.0000  175.7550  138.4180 C   0  0  0  0  0  0  0  0  0  0  0  0
  182.1450  178.4560  138.8220 C   0  0  0  0  0  2  0  0  0  0  0  0
  181.1890  174.5730  136.1380 C   0  0  0  0  0  0  0  0  0  0  0  0
  185.3110  175.0500  136.7160 C   0  0  2  0  0  3  0  0  0  0  0  0
  180.8000  177.6170  140.7440 C   0  0  0  0  0  1  0  0  0  0  0  0
  183.5840  171.7430  137.0200 C   0  0  0  0  0  2  0  0  0  0  0  0
  180.4270  173.9470  135.1460 C   0  0  0  0  0  3  0  0  0  0  0  0
  184.6450  176.4350  136.6550 C   0  0  0  0  0  2  0  0  0  0  0  0
  184.6200  174.0170  137.6310 C   0  0  2  0  0  3  0  0  0  0  0  0
  182.1240  176.0370  139.3890 C   0  0  0  0  0  3  0  0  0  0  0  0
  180.6730  172.6260  134.7770 C   0  0  0  0  0  3  0  0  0  0  0  0
  183.9700  176.8250  137.9670 C   0  0  1  0  0  3  0  0  0  0  0  0
  183.3070  178.2060  137.8380 C   0  0  0  0  0  2  0  0  0  0  0  0
  184.8520  172.5990  137.0730 C   0  0  0  0  0  2  0  0  0  0  0  0
  182.4720  172.5180  136.3830 C   0  0  0  0  0  0  0  0  0  0  0  0
  181.6960  171.9130  135.3940 C   0  0  0  0  0  3  0  0  0  0  0  0
  187.5390  174.3970  134.9560 O   0  0  0  0  0  0  0  0  0  0  0  0
  187.7940  174.8010  136.1210 C   0  0  0  0  0  0  0  0  0  0  0  0
  186.7350  175.1610  137.0190 N   0  0  0  0  0  2  0  0  0  0  0  0
  189.7450  173.5460  136.9690 C   0  0  0  0  0  1  0  0  0  0  0  0
  189.2150  174.9080  136.5590 C   0  0  1  0  0  3  0  0  0  0  0  0
  190.2350  175.6010  135.2210 S   0  0  0  0  0  0  0  0  0  0  0  0
  189.4330  177.2280  135.3200 C   0  0  0  0  0  2  0  0  0  0  0  0
  188.7060  178.5800  137.3280 C   0  0  0  0  0  0  0  0  0  0  0  0
  187.3470  178.8010  136.7580 C   0  0  0  0  0  1  0  0  0  0  0  0
  188.9900  179.0690  138.4510 O   0  0  0  0  0  0  0  0  0  0  0  0
  189.6900  177.8220  136.6220 N   0  0  0  0  0  2  0  0  0  0  0  0
  1  9  1  6  0  0  0
  2  3  1  6  0  0  0
  2  5  1  0  0  0  0
  5 14  2  0  0  0  0
  6  1  1  0  0  0  0
  7  4  1  0  0  0  0
  7  3  2  0  0  0  0
  8 23  1  1  0  0  0
  8 13  1  0  0  0  0
 10 18  1  0  0  0  0
 11  7  1  0  0  0  0
 12  8  1  0  0  0  0
 13 18  1  6  0  0  0
 13  2  1  0  0  0  0
 14  1  1  0  0  0  0
 15 11  2  0  0  0  0
 15 20  1  0  0  0  0
 16 12  1  6  0  0  0
 16  5  1  0  0  0  0
 17 16  1  0  0  0  0
 17  6  1  0  0  0  0
 19  3  1  0  0  0  0
 19 10  1  0  0  0  0
 20 19  2  0  0  0  0
 21 22  2  0  0  0  0
 22 25  1  0  0  0  0
 22 23  1  0  0  0  0
 25 24  1  6  0  0  0
 26 27  1  0  0  0  0
 26 25  1  0  0  0  0
 27 31  1  0  0  0  0
 28 30  2  0  0  0  0
 29 28  1  0  0  0  0
 31 28  1  0  0  0  0
M  END
>  <MODEL>
9

>  <REMARK>
 VINA RESULT:      -5.9      5.349      8.732
  Name = 
  5 active torsions:
  status: ('A' for Active; 'I' for Inactive)
    1  A    between atoms: S_6  and  C_19
    2  A    between atoms: S_6  and  C_22
    3  A    between atoms: C_9  and  C_22
    4  A    between atoms: C_15  and  N_23
    5  A    between atoms: C_19  and  N_24
                            x       y       z     vdW  Elec       q    Type
                         _______ _______ _______ _____ _____    ______ ____

>  <TORSDO>
F 5

$$$$
