=
 OpenBabel10272401593D

 28 32  0  0  1  0  0  0  0  0999 V2000
  188.7880  177.2930  141.3120 C   0  0  1  0  0  3  0  0  0  0  0  0
  183.8120  178.8450  141.9550 C   0  0  0  0  0  3  0  0  0  0  0  0
  188.2040  177.7710  146.1870 O   0  0  0  0  0  1  0  0  0  0  0  0
  183.5530  178.6960  144.3640 C   0  0  0  0  0  0  0  0  0  0  0  0
  185.8890  178.7280  143.4050 C   0  0  2  0  0  3  0  0  0  0  0  0
  181.5990  178.8170  142.9380 C   0  0  0  0  0  0  0  0  0  0  0  0
  184.3890  178.7230  143.2280 C   0  0  0  0  0  0  0  0  0  0  0  0
  185.5060  178.7990  145.8700 C   0  0  0  0  0  2  0  0  0  0  0  0
  182.1640  178.7270  144.2130 C   0  0  0  0  0  3  0  0  0  0  0  0
  188.6140  177.6800  143.8180 C   0  0  1  0  0  3  0  0  0  0  0  0
  186.6040  177.9700  142.2910 C   0  0  0  0  0  2  0  0  0  0  0  0
  184.1070  178.6220  145.6470 O   0  0  0  0  0  0  0  0  0  0  0  0
  189.7060  175.6770  143.0500 C   0  0  0  0  0  2  0  0  0  0  0  0
  187.8030  178.3100  144.9610 C   0  0  1  0  0  3  0  0  0  0  0  0
  188.6280  176.2200  143.8930 N   0  0  0  0  0  2  0  0  0  0  0  0
  180.2530  178.8510  142.7960 F   0  0  0  0  0  0  0  0  0  0  0  0
  182.4220  178.8860  141.8110 C   0  0  0  0  0  3  0  0  0  0  0  0
  186.2990  178.1230  144.7550 C   0  0  2  0  0  3  0  0  0  0  0  0
  190.0180  176.5240  141.8020 C   0  0  0  0  0  2  0  0  0  0  0  0
  188.1200  178.1220  142.4240 C   0  0  2  0  0  3  0  0  0  0  0  0
  189.1120  178.1070  140.0510 C   0  0  1  0  0  3  0  0  0  0  0  0
  190.4240  177.7570  139.5140 N   0  0  0  0  0  2  0  0  0  0  0  0
  189.4000  176.4930  137.6470 N   0  0  0  0  0  0  0  0  0  0  0  0
  188.0240  178.0540  138.9660 C   0  0  0  0  0  2  0  0  0  0  0  0
  191.7170  176.5770  137.9830 O   0  0  0  0  0  0  0  0  0  0  0  0
  190.5660  176.9140  138.3690 C   0  0  0  0  0  0  0  0  0  0  0  0
  189.5210  175.7030  136.4330 C   0  0  0  0  0  1  0  0  0  0  0  0
  188.0690  176.7350  138.1930 C   0  0  0  0  0  2  0  0  0  0  0  0
  1 19  1  1  0  0  0
  1 20  1  0  0  0  0
  2  7  1  0  0  0  0
  4 12  1  0  0  0  0
  5 11  1  6  0  0  0
  5 18  1  0  0  0  0
  6  9  2  0  0  0  0
  7  5  1  0  0  0  0
  7  4  2  0  0  0  0
  9  4  1  0  0  0  0
 10 15  1  6  0  0  0
 10 14  1  0  0  0  0
 12  8  1  0  0  0  0
 13 15  1  0  0  0  0
 14  3  1  1  0  0  0
 16  6  1  0  0  0  0
 17  2  2  0  0  0  0
 17  6  1  0  0  0  0
 18 14  1  0  0  0  0
 18  8  1  1  0  0  0
 19 13  1  0  0  0  0
 20 11  1  1  0  0  0
 20 10  1  0  0  0  0
 21 24  1  6  0  0  0
 21  1  1  0  0  0  0
 22 21  1  0  0  0  0
 23 28  1  0  0  0  0
 23 26  1  0  0  0  0
 25 26  2  0  0  0  0
 26 22  1  0  0  0  0
 27 23  1  0  0  0  0
 28 24  1  0  0  0  0
M  END
>  <MODEL>
1

>  <REMARK>
 VINA RESULT:      -9.2      0.000      0.000
  Name = 
  1 active torsions:
  status: ('A' for Active; 'I' for Inactive)
    1  A    between atoms: C_1  and  C_2
                            x       y       z     vdW  Elec       q    Type
                         _______ _______ _______ _____ _____    ______ ____

>  <TORSDO>
F 1

$$$$
=
 OpenBabel10272401593D

 28 32  0  0  1  0  0  0  0  0999 V2000
  184.3270  178.6580  142.2950 C   0  0  1  0  0  3  0  0  0  0  0  0
  189.2140  177.4130  140.8270 C   0  0  0  0  0  3  0  0  0  0  0  0
  186.7290  177.6890  146.4930 O   0  0  0  0  0  1  0  0  0  0  0  0
  190.3630  177.3140  142.9630 C   0  0  0  0  0  0  0  0  0  0  0  0
  187.8390  177.2170  142.9500 C   0  0  2  0  0  3  0  0  0  0  0  0
  191.6320  177.4940  140.9090 C   0  0  0  0  0  0  0  0  0  0  0  0
  189.1600  177.3510  142.2280 C   0  0  0  0  0  0  0  0  0  0  0  0
  189.1310  176.9010  145.0620 C   0  0  0  0  0  2  0  0  0  0  0  0
  191.5920  177.4010  142.3030 C   0  0  0  0  0  3  0  0  0  0  0  0
  185.4490  178.0100  144.4820 C   0  0  1  0  0  3  0  0  0  0  0  0
  186.7360  178.0390  142.2920 C   0  0  0  0  0  2  0  0  0  0  0  0
  190.3350  177.2040  144.3590 O   0  0  0  0  0  0  0  0  0  0  0  0
  184.0950  180.0010  144.4450 C   0  0  0  0  0  2  0  0  0  0  0  0
  186.6480  177.3190  145.1480 C   0  0  1  0  0  3  0  0  0  0  0  0
  185.4260  179.4480  144.7460 N   0  0  0  0  0  2  0  0  0  0  0  0
  192.8250  177.5750  140.2720 F   0  0  0  0  0  0  0  0  0  0  0  0
  190.4460  177.4900  140.1720 C   0  0  0  0  0  3  0  0  0  0  0  0
  187.9570  177.6370  144.4220 C   0  0  2  0  0  3  0  0  0  0  0  0
  183.3550  179.2770  143.3040 C   0  0  0  0  0  2  0  0  0  0  0  0
  185.3890  177.7620  142.9590 C   0  0  2  0  0  3  0  0  0  0  0  0
  183.5710  177.9670  141.1520 C   0  0  1  0  0  3  0  0  0  0  0  0
  182.1460  178.2870  141.1860 N   0  0  0  0  0  2  0  0  0  0  0  0
  182.3720  179.8110  139.2460 N   0  0  0  0  0  0  0  0  0  0  0  0
  184.1720  178.2080  139.7570 C   0  0  0  0  0  2  0  0  0  0  0  0
  180.3520  179.5420  140.4010 O   0  0  0  0  0  0  0  0  0  0  0  0
  181.5690  179.2390  140.2890 C   0  0  0  0  0  0  0  0  0  0  0  0
  181.7910  180.7190  138.2720 C   0  0  0  0  0  1  0  0  0  0  0  0
  183.8160  179.5980  139.2270 C   0  0  0  0  0  2  0  0  0  0  0  0
  1 20  1  0  0  0  0
  1 19  1  1  0  0  0
  2  7  1  0  0  0  0
  4 12  1  0  0  0  0
  5 11  1  6  0  0  0
  5 18  1  0  0  0  0
  6  9  2  0  0  0  0
  7  5  1  0  0  0  0
  7  4  2  0  0  0  0
  9  4  1  0  0  0  0
 10 15  1  6  0  0  0
 10 14  1  0  0  0  0
 12  8  1  0  0  0  0
 13 15  1  0  0  0  0
 14  3  1  1  0  0  0
 16  6  1  0  0  0  0
 17  2  2  0  0  0  0
 17  6  1  0  0  0  0
 18  8  1  1  0  0  0
 18 14  1  0  0  0  0
 19 13  1  0  0  0  0
 20 11  1  6  0  0  0
 20 10  1  0  0  0  0
 21 24  1  6  0  0  0
 21 22  1  0  0  0  0
 21  1  1  0  0  0  0
 23 26  1  0  0  0  0
 26 25  2  0  0  0  0
 26 22  1  0  0  0  0
 27 23  1  0  0  0  0
 28 23  1  0  0  0  0
 28 24  1  0  0  0  0
M  END
>  <MODEL>
2

>  <REMARK>
 VINA RESULT:      -9.1      3.873      6.862
  Name = 
  1 active torsions:
  status: ('A' for Active; 'I' for Inactive)
    1  A    between atoms: C_1  and  C_2
                            x       y       z     vdW  Elec       q    Type
                         _______ _______ _______ _____ _____    ______ ____

>  <TORSDO>
F 1

$$$$
=
 OpenBabel10272401593D

 28 32  0  0  1  0  0  0  0  0999 V2000
  190.6630  176.8180  144.9780 C   0  0  1  0  0  3  0  0  0  0  0  0
  185.8480  178.3610  143.5540 C   0  0  0  0  0  3  0  0  0  0  0  0
  188.4150  178.0820  149.1830 O   0  0  0  0  0  1  0  0  0  0  0  0
  184.7500  178.6060  145.7060 C   0  0  0  0  0  0  0  0  0  0  0  0
  187.2730  178.5240  145.6460 C   0  0  2  0  0  3  0  0  0  0  0  0
  183.4320  178.4540  143.6800 C   0  0  0  0  0  0  0  0  0  0  0  0
  185.9330  178.4610  144.9520 C   0  0  0  0  0  0  0  0  0  0  0  0
  186.0480  178.9930  147.7690 C   0  0  0  0  0  2  0  0  0  0  0  0
  183.5060  178.5860  145.0690 C   0  0  0  0  0  3  0  0  0  0  0  0
  189.6310  177.6100  147.1610 C   0  0  1  0  0  3  0  0  0  0  0  0
  188.3030  177.6060  144.9960 C   0  0  0  0  0  2  0  0  0  0  0  0
  184.8120  178.7560  147.0960 O   0  0  0  0  0  0  0  0  0  0  0  0
  190.8400  175.5280  147.1640 C   0  0  0  0  0  2  0  0  0  0  0  0
  188.4960  178.4040  147.8260 C   0  0  1  0  0  3  0  0  0  0  0  0
  189.5570  176.1830  147.4710 N   0  0  0  0  0  2  0  0  0  0  0  0
  182.2240  178.4380  143.0660 F   0  0  0  0  0  0  0  0  0  0  0  0
  184.6010  178.3510  142.9220 C   0  0  0  0  0  3  0  0  0  0  0  0
  187.1550  178.1580  147.1330 C   0  0  2  0  0  3  0  0  0  0  0  0
  191.6070  176.1630  145.9890 C   0  0  0  0  0  2  0  0  0  0  0  0
  189.6790  177.8070  145.6310 C   0  0  2  0  0  3  0  0  0  0  0  0
  191.4430  177.4190  143.8000 C   0  0  1  0  0  3  0  0  0  0  0  0
  191.4000  176.5430  142.6320 N   0  0  0  0  0  2  0  0  0  0  0  0
  189.7920  178.0380  141.4850 N   0  0  0  0  0  0  0  0  0  0  0  0
  191.0420  178.8600  143.4430 C   0  0  0  0  0  2  0  0  0  0  0  0
  190.4820  175.9970  140.5660 O   0  0  0  0  0  0  0  0  0  0  0  0
  190.5440  176.8170  141.5200 C   0  0  0  0  0  0  0  0  0  0  0  0
  188.9780  178.3770  140.3310 C   0  0  0  0  0  1  0  0  0  0  0  0
  189.7280  178.8970  142.6630 C   0  0  0  0  0  2  0  0  0  0  0  0
  1 20  1  0  0  0  0
  1 19  1  1  0  0  0
  2  7  1  0  0  0  0
  4 12  1  0  0  0  0
  5 11  1  6  0  0  0
  5 18  1  0  0  0  0
  6  9  2  0  0  0  0
  7  5  1  0  0  0  0
  7  4  2  0  0  0  0
  9  4  1  0  0  0  0
 10 15  1  6  0  0  0
 10 14  1  0  0  0  0
 12  8  1  0  0  0  0
 13 15  1  0  0  0  0
 14  3  1  1  0  0  0
 16  6  1  0  0  0  0
 17  2  2  0  0  0  0
 17  6  1  0  0  0  0
 18  8  1  1  0  0  0
 18 14  1  0  0  0  0
 19 13  1  0  0  0  0
 20 11  1  6  0  0  0
 20 10  1  0  0  0  0
 21 24  1  6  0  0  0
 21  1  1  0  0  0  0
 22 21  1  0  0  0  0
 23 26  1  0  0  0  0
 23 28  1  0  0  0  0
 25 26  2  0  0  0  0
 26 22  1  0  0  0  0
 27 23  1  0  0  0  0
 28 24  1  0  0  0  0
M  END
>  <MODEL>
3

>  <REMARK>
 VINA RESULT:      -9.1      2.241      3.395
  Name = 
  1 active torsions:
  status: ('A' for Active; 'I' for Inactive)
    1  A    between atoms: C_1  and  C_2
                            x       y       z     vdW  Elec       q    Type
                         _______ _______ _______ _____ _____    ______ ____

>  <TORSDO>
F 1

$$$$
=
 OpenBabel10272401593D

 28 32  0  0  1  0  0  0  0  0999 V2000
  188.3590  177.3260  138.5270 C   0  0  1  0  0  3  0  0  0  0  0  0
  187.4250  177.9730  143.6560 C   0  0  0  0  0  3  0  0  0  0  0  0
  192.7810  177.0310  140.6930 O   0  0  0  0  0  1  0  0  0  0  0  0
  189.5900  177.4550  144.6230 C   0  0  0  0  0  0  0  0  0  0  0  0
  189.4710  177.9860  142.1570 C   0  0  2  0  0  3  0  0  0  0  0  0
  187.6090  177.4630  146.0150 C   0  0  0  0  0  0  0  0  0  0  0  0
  188.8040  177.7690  143.4950 C   0  0  0  0  0  0  0  0  0  0  0  0
  191.6640  177.6560  143.3010 C   0  0  0  0  0  2  0  0  0  0  0  0
  188.9870  177.2890  145.8730 C   0  0  0  0  0  3  0  0  0  0  0  0
  190.6850  177.3320  139.5510 C   0  0  1  0  0  3  0  0  0  0  0  0
  188.6030  177.5100  140.9960 C   0  0  0  0  0  2  0  0  0  0  0  0
  190.9750  177.2940  144.4970 O   0  0  0  0  0  0  0  0  0  0  0  0
  190.1710  175.6500  137.9080 C   0  0  0  0  0  2  0  0  0  0  0  0
  191.5380  177.6640  140.7850 C   0  0  1  0  0  3  0  0  0  0  0  0
  190.6460  175.8960  139.2790 N   0  0  0  0  0  2  0  0  0  0  0  0
  187.0290  177.3040  147.2290 F   0  0  0  0  0  0  0  0  0  0  0  0
  186.8290  177.8140  144.9100 C   0  0  0  0  0  3  0  0  0  0  0  0
  190.8290  177.2730  142.0830 C   0  0  2  0  0  3  0  0  0  0  0  0
  189.1680  176.6990  137.3900 C   0  0  0  0  0  2  0  0  0  0  0  0
  189.2460  177.8790  139.6590 C   0  0  2  0  0  3  0  0  0  0  0  0
  187.3460  178.3460  137.9890 C   0  0  1  0  0  3  0  0  0  0  0  0
  187.5630  178.6120  136.5690 N   0  0  0  0  0  2  0  0  0  0  0  0
  185.5720  177.2790  135.9440 N   0  0  0  0  0  0  0  0  0  0  0  0
  185.8780  177.9960  138.2810 C   0  0  0  0  0  2  0  0  0  0  0  0
  186.9940  178.2330  134.3460 O   0  0  0  0  0  0  0  0  0  0  0  0
  186.7270  178.0380  135.5620 C   0  0  0  0  0  0  0  0  0  0  0  0
  184.6610  176.7540  134.9410 C   0  0  0  0  0  1  0  0  0  0  0  0
  185.3640  176.9060  137.3390 C   0  0  0  0  0  2  0  0  0  0  0  0
  1 19  1  6  0  0  0
  1 20  1  0  0  0  0
  2 17  1  0  0  0  0
  4  9  2  0  0  0  0
  5 11  1  6  0  0  0
  5  7  1  0  0  0  0
  6 16  1  0  0  0  0
  7  2  2  0  0  0  0
  7  4  1  0  0  0  0
  8 12  1  0  0  0  0
  9  6  1  0  0  0  0
 10 15  1  1  0  0  0
 10 20  1  0  0  0  0
 10 14  1  0  0  0  0
 12  4  1  0  0  0  0
 13 15  1  0  0  0  0
 14  3  1  6  0  0  0
 14 18  1  0  0  0  0
 17  6  2  0  0  0  0
 18  5  1  0  0  0  0
 18  8  1  1  0  0  0
 19 13  1  0  0  0  0
 20 11  1  1  0  0  0
 21 24  1  6  0  0  0
 21  1  1  0  0  0  0
 22 21  1  0  0  0  0
 23 28  1  0  0  0  0
 25 26  2  0  0  0  0
 26 23  1  0  0  0  0
 26 22  1  0  0  0  0
 27 23  1  0  0  0  0
 28 24  1  0  0  0  0
M  END
>  <MODEL>
4

>  <REMARK>
 VINA RESULT:      -9.0      3.349      5.204
  Name = 
  1 active torsions:
  status: ('A' for Active; 'I' for Inactive)
    1  A    between atoms: C_1  and  C_2
                            x       y       z     vdW  Elec       q    Type
                         _______ _______ _______ _____ _____    ______ ____

>  <TORSDO>
F 1

$$$$
=
 OpenBabel10272401593D

 28 32  0  0  1  0  0  0  0  0999 V2000
  187.6040  177.8380  140.2210 C   0  0  1  0  0  3  0  0  0  0  0  0
  187.6220  177.9490  145.4730 C   0  0  0  0  0  3  0  0  0  0  0  0
  192.3340  177.2880  141.5090 O   0  0  0  0  0  1  0  0  0  0  0  0
  189.9120  177.3180  145.9740 C   0  0  0  0  0  0  0  0  0  0  0  0
  189.3660  178.1050  143.6370 C   0  0  2  0  0  3  0  0  0  0  0  0
  188.2130  177.1920  147.6950 C   0  0  0  0  0  0  0  0  0  0  0  0
  188.9440  177.7540  145.0450 C   0  0  0  0  0  0  0  0  0  0  0  0
  191.7190  177.6440  144.3250 C   0  0  0  0  0  2  0  0  0  0  0  0
  189.5390  177.0250  147.2890 C   0  0  0  0  0  3  0  0  0  0  0  0
  190.0750  177.7210  140.8020 C   0  0  1  0  0  3  0  0  0  0  0  0
  188.2920  177.7590  142.6110 C   0  0  0  0  0  2  0  0  0  0  0  0
  191.2470  177.1620  145.5830 O   0  0  0  0  0  0  0  0  0  0  0  0
  189.2330  176.2250  139.1150 C   0  0  0  0  0  2  0  0  0  0  0  0
  191.1440  177.9160  141.8890 C   0  0  1  0  0  3  0  0  0  0  0  0
  189.9520  176.3220  140.3960 N   0  0  0  0  0  2  0  0  0  0  0  0
  187.8570  176.9100  148.9710 F   0  0  0  0  0  0  0  0  0  0  0  0
  187.2570  177.6620  146.7920 C   0  0  0  0  0  3  0  0  0  0  0  0
  190.6700  177.3960  143.2460 C   0  0  2  0  0  3  0  0  0  0  0  0
  188.1800  177.3290  138.8980 C   0  0  0  0  0  2  0  0  0  0  0  0
  188.6930  178.2630  141.2240 C   0  0  2  0  0  3  0  0  0  0  0  0
  186.5370  178.9150  139.9820 C   0  0  1  0  0  3  0  0  0  0  0  0
  185.7810  178.6530  138.7600 N   0  0  0  0  0  2  0  0  0  0  0  0
  183.8070  177.9090  140.0590 N   0  0  0  0  0  0  0  0  0  0  0  0
  185.6070  179.1630  141.1810 C   0  0  0  0  0  2  0  0  0  0  0  0
  183.8740  177.8220  137.7190 O   0  0  0  0  0  0  0  0  0  0  0  0
  184.4620  178.1020  138.7970 C   0  0  0  0  0  0  0  0  0  0  0  0
  182.4380  177.4270  140.1210 C   0  0  0  0  0  1  0  0  0  0  0  0
  184.5500  178.0660  141.3060 C   0  0  0  0  0  2  0  0  0  0  0  0
  1 19  1  6  0  0  0
  1 20  1  0  0  0  0
  2 17  1  0  0  0  0
  4  9  2  0  0  0  0
  5 11  1  6  0  0  0
  5  7  1  0  0  0  0
  6 16  1  0  0  0  0
  7  2  2  0  0  0  0
  7  4  1  0  0  0  0
  8 12  1  0  0  0  0
  9  6  1  0  0  0  0
 10 15  1  1  0  0  0
 10 20  1  0  0  0  0
 10 14  1  0  0  0  0
 12  4  1  0  0  0  0
 13 15  1  0  0  0  0
 14  3  1  6  0  0  0
 14 18  1  0  0  0  0
 17  6  2  0  0  0  0
 18  5  1  0  0  0  0
 18  8  1  1  0  0  0
 19 13  1  0  0  0  0
 20 11  1  1  0  0  0
 21  1  1  0  0  0  0
 21 24  1  1  0  0  0
 22 26  1  0  0  0  0
 22 21  1  0  0  0  0
 23 27  1  0  0  0  0
 23 28  1  0  0  0  0
 24 28  1  0  0  0  0
 25 26  2  0  0  0  0
 26 23  1  0  0  0  0
M  END
>  <MODEL>
5

>  <REMARK>
 VINA RESULT:      -8.5      3.425      5.694
  Name = 
  1 active torsions:
  status: ('A' for Active; 'I' for Inactive)
    1  A    between atoms: C_1  and  C_2
                            x       y       z     vdW  Elec       q    Type
                         _______ _______ _______ _____ _____    ______ ____

>  <TORSDO>
F 1

$$$$
=
 OpenBabel10272401593D

 28 32  0  0  1  0  0  0  0  0999 V2000
  190.6170  177.0350  142.4710 C   0  0  1  0  0  3  0  0  0  0  0  0
  185.7030  178.5790  143.5030 C   0  0  0  0  0  3  0  0  0  0  0  0
  190.3340  177.2420  147.3920 O   0  0  0  0  0  1  0  0  0  0  0  0
  185.5910  178.2960  145.9120 C   0  0  0  0  0  0  0  0  0  0  0  0
  187.8640  178.3680  144.8150 C   0  0  2  0  0  3  0  0  0  0  0  0
  183.5550  178.5090  144.6180 C   0  0  0  0  0  0  0  0  0  0  0  0
  186.3560  178.3820  144.7300 C   0  0  0  0  0  0  0  0  0  0  0  0
  187.6320  178.3030  147.2980 C   0  0  0  0  0  2  0  0  0  0  0  0
  184.1950  178.3450  145.8480 C   0  0  0  0  0  3  0  0  0  0  0  0
  190.5990  177.2820  145.0010 C   0  0  1  0  0  3  0  0  0  0  0  0
  188.5020  177.6690  143.6190 C   0  0  0  0  0  2  0  0  0  0  0  0
  186.2210  178.1480  147.1530 O   0  0  0  0  0  0  0  0  0  0  0  0
  191.6230  175.3180  144.0580 C   0  0  0  0  0  2  0  0  0  0  0  0
  189.8650  177.8520  146.2250 C   0  0  1  0  0  3  0  0  0  0  0  0
  190.6030  175.8200  144.9940 N   0  0  0  0  0  2  0  0  0  0  0  0
  182.2030  178.5590  144.5600 F   0  0  0  0  0  0  0  0  0  0  0  0
  184.3080  178.6360  143.4480 C   0  0  0  0  0  3  0  0  0  0  0  0
  188.3500  177.6860  146.1020 C   0  0  2  0  0  3  0  0  0  0  0  0
  191.8660  176.2310  142.8410 C   0  0  0  0  0  2  0  0  0  0  0  0
  190.0250  177.8040  143.6670 C   0  0  2  0  0  3  0  0  0  0  0  0
  190.8700  177.9160  141.2400 C   0  0  1  0  0  3  0  0  0  0  0  0
  192.2310  177.7460  140.7360 N   0  0  0  0  0  2  0  0  0  0  0  0
  191.4230  176.4150  138.8090 N   0  0  0  0  0  0  0  0  0  0  0  0
  189.8280  177.7570  140.1210 C   0  0  0  0  0  2  0  0  0  0  0  0
  193.7020  176.7760  139.2170 O   0  0  0  0  0  0  0  0  0  0  0  0
  192.5080  176.9580  139.5760 C   0  0  0  0  0  0  0  0  0  0  0  0
  191.6750  175.6800  137.5820 C   0  0  0  0  0  1  0  0  0  0  0  0
  190.0580  176.4760  139.3200 C   0  0  0  0  0  2  0  0  0  0  0  0
  1 19  1  1  0  0  0
  1 20  1  0  0  0  0
  2  7  1  0  0  0  0
  4 12  1  0  0  0  0
  5 11  1  6  0  0  0
  5 18  1  0  0  0  0
  6  9  2  0  0  0  0
  7  5  1  0  0  0  0
  7  4  2  0  0  0  0
  9  4  1  0  0  0  0
 10 15  1  6  0  0  0
 10 14  1  0  0  0  0
 12  8  1  0  0  0  0
 13 15  1  0  0  0  0
 14  3  1  1  0  0  0
 16  6  1  0  0  0  0
 17  2  2  0  0  0  0
 17  6  1  0  0  0  0
 18 14  1  0  0  0  0
 18  8  1  1  0  0  0
 19 13  1  0  0  0  0
 20 11  1  1  0  0  0
 20 10  1  0  0  0  0
 21 24  1  6  0  0  0
 21  1  1  0  0  0  0
 22 21  1  0  0  0  0
 23 28  1  0  0  0  0
 23 26  1  0  0  0  0
 25 26  2  0  0  0  0
 26 22  1  0  0  0  0
 27 23  1  0  0  0  0
 28 24  1  0  0  0  0
M  END
>  <MODEL>
6

>  <REMARK>
 VINA RESULT:      -8.3      1.752      2.401
  Name = 
  1 active torsions:
  status: ('A' for Active; 'I' for Inactive)
    1  A    between atoms: C_1  and  C_2
                            x       y       z     vdW  Elec       q    Type
                         _______ _______ _______ _____ _____    ______ ____

>  <TORSDO>
F 1

$$$$
=
 OpenBabel10272401593D

 28 32  0  0  1  0  0  0  0  0999 V2000
  188.7780  177.9190  143.9520 C   0  0  1  0  0  3  0  0  0  0  0  0
  187.2110  177.7820  138.9400 C   0  0  0  0  0  3  0  0  0  0  0  0
  192.8700  177.0330  141.3430 O   0  0  0  0  0  1  0  0  0  0  0  0
  189.3310  177.7030  137.7600 C   0  0  0  0  0  0  0  0  0  0  0  0
  189.3010  177.1240  140.2180 C   0  0  2  0  0  3  0  0  0  0  0  0
  187.3080  178.3190  136.5810 C   0  0  0  0  0  0  0  0  0  0  0  0
  188.6000  177.5780  138.9590 C   0  0  0  0  0  0  0  0  0  0  0  0
  191.3760  176.8630  138.8570 C   0  0  0  0  0  2  0  0  0  0  0  0
  188.6860  178.0870  136.5810 C   0  0  0  0  0  3  0  0  0  0  0  0
  190.8950  177.2930  142.6920 C   0  0  1  0  0  3  0  0  0  0  0  0
  188.7220  177.7780  141.4680 C   0  0  0  0  0  2  0  0  0  0  0  0
  190.7090  177.4570  137.7440 O   0  0  0  0  0  0  0  0  0  0  0  0
  191.0460  178.9810  144.4020 C   0  0  0  0  0  2  0  0  0  0  0  0
  191.4950  176.7850  141.3720 C   0  0  1  0  0  3  0  0  0  0  0  0
  191.2970  178.6680  142.9860 N   0  0  0  0  0  2  0  0  0  0  0  0
  186.6850  178.6880  135.4360 F   0  0  0  0  0  0  0  0  0  0  0  0
  186.5700  178.1580  137.7560 C   0  0  0  0  0  3  0  0  0  0  0  0
  190.8070  177.4160  140.1600 C   0  0  2  0  0  3  0  0  0  0  0  0
  189.8380  178.2400  145.0080 C   0  0  0  0  0  2  0  0  0  0  0  0
  189.3560  177.1850  142.7270 C   0  0  2  0  0  3  0  0  0  0  0  0
  187.5710  177.2080  144.5790 C   0  0  1  0  0  3  0  0  0  0  0  0
  187.1080  177.9030  145.7770 N   0  0  0  0  0  2  0  0  0  0  0  0
  185.1340  178.7990  144.5790 N   0  0  0  0  0  0  0  0  0  0  0  0
  186.4160  176.9370  143.6010 C   0  0  0  0  0  2  0  0  0  0  0  0
  185.6220  179.3740  146.7970 O   0  0  0  0  0  0  0  0  0  0  0  0
  185.9440  178.7330  145.7610 C   0  0  0  0  0  0  0  0  0  0  0  0
  183.9030  179.5710  144.5620 C   0  0  0  0  0  1  0  0  0  0  0  0
  185.6010  178.2020  143.3320 C   0  0  0  0  0  2  0  0  0  0  0  0
  1 21  1  0  0  0  0
  1 19  1  1  0  0  0
  2  7  1  0  0  0  0
  4  7  2  0  0  0  0
  5 11  1  1  0  0  0
  6 17  1  0  0  0  0
  7  5  1  0  0  0  0
  9  6  2  0  0  0  0
  9  4  1  0  0  0  0
 10 20  1  0  0  0  0
 10 15  1  6  0  0  0
 12  4  1  0  0  0  0
 12  8  1  0  0  0  0
 13 19  1  0  0  0  0
 14  3  1  1  0  0  0
 14 10  1  0  0  0  0
 15 13  1  0  0  0  0
 16  6  1  0  0  0  0
 17  2  2  0  0  0  0
 18  8  1  6  0  0  0
 18  5  1  0  0  0  0
 18 14  1  0  0  0  0
 20 11  1  6  0  0  0
 20  1  1  0  0  0  0
 21 24  1  6  0  0  0
 21 22  1  0  0  0  0
 23 26  1  0  0  0  0
 26 22  1  0  0  0  0
 26 25  2  0  0  0  0
 27 23  1  0  0  0  0
 28 24  1  0  0  0  0
 28 23  1  0  0  0  0
M  END
>  <MODEL>
7

>  <REMARK>
 VINA RESULT:      -8.3      2.820      6.970
  Name = 
  1 active torsions:
  status: ('A' for Active; 'I' for Inactive)
    1  A    between atoms: C_1  and  C_2
                            x       y       z     vdW  Elec       q    Type
                         _______ _______ _______ _____ _____    ______ ____

>  <TORSDO>
F 1

$$$$
=
 OpenBabel10272401593D

 28 32  0  0  1  0  0  0  0  0999 V2000
  190.4080  177.0270  138.0090 C   0  0  1  0  0  3  0  0  0  0  0  0
  191.0810  176.3560  143.1760 C   0  0  0  0  0  3  0  0  0  0  0  0
  186.2870  178.7700  140.0860 O   0  0  0  0  0  1  0  0  0  0  0  0
  189.1790  177.5600  144.0830 C   0  0  0  0  0  0  0  0  0  0  0  0
  189.1350  176.9070  141.6440 C   0  0  2  0  0  3  0  0  0  0  0  0
  191.0560  177.0050  145.5080 C   0  0  0  0  0  0  0  0  0  0  0  0
  189.8330  176.9680  142.9830 C   0  0  0  0  0  0  0  0  0  0  0  0
  187.1480  177.9490  142.7360 C   0  0  0  0  0  2  0  0  0  0  0  0
  189.7990  177.5890  145.3350 C   0  0  0  0  0  3  0  0  0  0  0  0
  188.1910  177.7850  138.9930 C   0  0  1  0  0  3  0  0  0  0  0  0
  190.1110  177.0390  140.4800 C   0  0  0  0  0  2  0  0  0  0  0  0
  187.9120  178.1350  143.9270 O   0  0  0  0  0  0  0  0  0  0  0  0
  189.2040  179.1500  137.2890 C   0  0  0  0  0  2  0  0  0  0  0  0
  187.2730  177.7890  140.2250 C   0  0  1  0  0  3  0  0  0  0  0  0
  188.6720  179.1250  138.6610 N   0  0  0  0  0  2  0  0  0  0  0  0
  191.6530  177.0320  146.7240 F   0  0  0  0  0  0  0  0  0  0  0  0
  191.6920  176.3800  144.4320 C   0  0  0  0  0  3  0  0  0  0  0  0
  188.0640  178.0000  141.5170 C   0  0  2  0  0  3  0  0  0  0  0  0
  189.8350  177.8200  136.8320 C   0  0  0  0  0  2  0  0  0  0  0  0
  189.3900  176.8260  139.1480 C   0  0  2  0  0  3  0  0  0  0  0  0
  191.0580  175.7200  137.5320 C   0  0  1  0  0  3  0  0  0  0  0  0
  190.2030  174.5690  137.8080 N   0  0  0  0  0  2  0  0  0  0  0  0
  189.5790  174.3720  135.4200 N   0  0  0  0  0  0  0  0  0  0  0  0
  191.5210  175.7420  136.0660 C   0  0  0  0  0  2  0  0  0  0  0  0
  188.6480  173.0010  137.0760 O   0  0  0  0  0  0  0  0  0  0  0  0
  189.4290  173.9440  136.7810 C   0  0  0  0  0  0  0  0  0  0  0  0
  188.8660  173.7000  134.3470 C   0  0  0  0  0  1  0  0  0  0  0  0
  190.3450  175.5730  135.1040 C   0  0  0  0  0  2  0  0  0  0  0  0
  1 19  1  6  0  0  0
  1 20  1  0  0  0  0
  2 17  1  0  0  0  0
  4  9  2  0  0  0  0
  5 11  1  6  0  0  0
  5  7  1  0  0  0  0
  6 16  1  0  0  0  0
  7  2  2  0  0  0  0
  7  4  1  0  0  0  0
  8 12  1  0  0  0  0
  9  6  1  0  0  0  0
 10 15  1  1  0  0  0
 10 20  1  0  0  0  0
 10 14  1  0  0  0  0
 12  4  1  0  0  0  0
 13 15  1  0  0  0  0
 14  3  1  6  0  0  0
 14 18  1  0  0  0  0
 17  6  2  0  0  0  0
 18  5  1  0  0  0  0
 18  8  1  1  0  0  0
 19 13  1  0  0  0  0
 20 11  1  1  0  0  0
 21 24  1  6  0  0  0
 21 22  1  0  0  0  0
 21  1  1  0  0  0  0
 23 26  1  0  0  0  0
 26 25  2  0  0  0  0
 26 22  1  0  0  0  0
 27 23  1  0  0  0  0
 28 23  1  0  0  0  0
 28 24  1  0  0  0  0
M  END
>  <MODEL>
8

>  <REMARK>
 VINA RESULT:      -7.9      3.762      5.858
  Name = 
  1 active torsions:
  status: ('A' for Active; 'I' for Inactive)
    1  A    between atoms: C_1  and  C_2
                            x       y       z     vdW  Elec       q    Type
                         _______ _______ _______ _____ _____    ______ ____

>  <TORSDO>
F 1

$$$$
=
 OpenBabel10272401593D

 28 32  0  0  1  0  0  0  0  0999 V2000
  189.0620  177.7040  143.6690 C   0  0  1  0  0  3  0  0  0  0  0  0
  191.3560  176.5660  139.0830 C   0  0  0  0  0  3  0  0  0  0  0  0
  185.7310  178.8880  140.2290 O   0  0  0  0  0  1  0  0  0  0  0  0
  189.5160  176.8480  137.5250 C   0  0  0  0  0  0  0  0  0  0  0  0
  189.3090  177.8640  139.8270 C   0  0  2  0  0  3  0  0  0  0  0  0
  191.4950  175.6220  136.8570 C   0  0  0  0  0  0  0  0  0  0  0  0
  190.0670  177.0470  138.8070 C   0  0  0  0  0  0  0  0  0  0  0  0
  187.5810  178.2770  138.0740 C   0  0  0  0  0  2  0  0  0  0  0  0
  190.2250  176.1240  136.5620 C   0  0  0  0  0  3  0  0  0  0  0  0
  187.3640  178.4950  141.9510 C   0  0  1  0  0  3  0  0  0  0  0  0
  189.5240  177.3570  141.2490 C   0  0  0  0  0  2  0  0  0  0  0  0
  188.2520  177.3600  137.2110 O   0  0  0  0  0  0  0  0  0  0  0  0
  186.5680  177.2290  143.8380 C   0  0  0  0  0  2  0  0  0  0  0  0
  187.1050  178.8530  140.4790 C   0  0  1  0  0  3  0  0  0  0  0  0
  186.6130  177.3110  142.3680 N   0  0  0  0  0  2  0  0  0  0  0  0
  192.1810  174.9240  135.9210 F   0  0  0  0  0  0  0  0  0  0  0  0
  192.0640  175.8500  138.1130 C   0  0  0  0  0  3  0  0  0  0  0  0
  187.8020  177.8780  139.5300 C   0  0  2  0  0  3  0  0  0  0  0  0
  187.8090  177.8110  144.5410 C   0  0  0  0  0  2  0  0  0  0  0  0
  188.8630  178.2940  142.2600 C   0  0  2  0  0  3  0  0  0  0  0  0
  190.2930  178.2620  144.3970 C   0  0  1  0  0  3  0  0  0  0  0  0
  190.0970  178.2660  145.8450 N   0  0  0  0  0  2  0  0  0  0  0  0
  191.6160  176.3300  146.1250 N   0  0  0  0  0  0  0  0  0  0  0  0
  191.6190  177.5900  144.0080 C   0  0  0  0  0  2  0  0  0  0  0  0
  190.4440  177.2750  147.9200 O   0  0  0  0  0  0  0  0  0  0  0  0
  190.6990  177.2800  146.6860 C   0  0  0  0  0  0  0  0  0  0  0  0
  192.3040  175.3700  146.9710 C   0  0  0  0  0  1  0  0  0  0  0  0
  191.7730  176.2240  144.6780 C   0  0  0  0  0  2  0  0  0  0  0  0
  1 21  1  0  0  0  0
  1 19  1  1  0  0  0
  4  7  2  0  0  0  0
  5 11  1  1  0  0  0
  6 17  1  0  0  0  0
  7  2  1  0  0  0  0
  7  5  1  0  0  0  0
  9  6  2  0  0  0  0
  9  4  1  0  0  0  0
 10 20  1  0  0  0  0
 10 15  1  6  0  0  0
 12  4  1  0  0  0  0
 12  8  1  0  0  0  0
 13 19  1  0  0  0  0
 14  3  1  1  0  0  0
 14 10  1  0  0  0  0
 15 13  1  0  0  0  0
 16  6  1  0  0  0  0
 17  2  2  0  0  0  0
 18  8  1  6  0  0  0
 18  5  1  0  0  0  0
 18 14  1  0  0  0  0
 20 11  1  6  0  0  0
 20  1  1  0  0  0  0
 21 24  1  1  0  0  0
 21 22  1  0  0  0  0
 22 26  1  0  0  0  0
 23 26  1  0  0  0  0
 23 27  1  0  0  0  0
 24 28  1  0  0  0  0
 26 25  2  0  0  0  0
 28 23  1  0  0  0  0
M  END
>  <MODEL>
9

>  <REMARK>
 VINA RESULT:      -7.8      4.010      7.697
  Name = 
  1 active torsions:
  status: ('A' for Active; 'I' for Inactive)
    1  A    between atoms: C_1  and  C_2
                            x       y       z     vdW  Elec       q    Type
                         _______ _______ _______ _____ _____    ______ ____

>  <TORSDO>
F 1

$$$$
