=
 OpenBabel10272402033D

 28 29  0  0  1  0  0  0  0  0999 V2000
  188.8620  174.9000  136.0170 C   0  0  0  0  0  2  0  0  0  0  0  0
  191.6970  175.7750  135.6940 C   0  0  0  0  0  1  0  0  0  0  0  0
  191.0530  175.7340  137.0730 C   0  0  0  0  0  0  0  0  0  0  0  0
  186.7940  177.4100  136.0540 C   0  0  0  0  0  3  0  0  0  0  0  0
  191.3260  174.3660  137.6980 C   0  0  0  0  0  1  0  0  0  0  0  0
  190.9580  176.9940  139.2930 C   0  0  0  0  0  2  0  0  0  0  0  0
  189.4620  177.2410  139.1130 C   0  0  1  0  0  3  0  0  0  0  0  0
  191.6510  176.8710  137.9380 C   0  0  1  0  0  3  0  0  0  0  0  0
  186.2360  178.5510  138.1240 C   0  0  0  0  0  1  0  0  0  0  0  0
  188.8160  176.1280  138.2750 C   0  0  1  0  0  3  0  0  0  0  0  0
  187.3650  176.3450  135.1590 C   0  0  0  0  0  2  0  0  0  0  0  0
  187.4100  176.3580  138.1250 O   0  0  0  0  0  0  0  0  0  0  0  0
  186.8580  177.4180  137.3910 C   0  0  0  0  0  0  0  0  0  0  0  0
  187.4860  175.1240  135.8360 O   0  0  0  0  0  0  0  0  0  0  0  0
  189.5310  175.9610  136.9200 C   0  0  2  0  0  3  0  0  0  0  0  0
  193.6870  176.8540  139.3850 O   0  0  0  0  0  1  0  0  0  0  0  0
  193.1400  176.7920  138.1100 C   0  0  0  0  0  0  0  0  0  0  0  0
  193.9010  176.6860  137.1110 O   0  0  0  0  0  0  0  0  0  0  0  0
  188.7510  177.4190  140.4640 C   0  0  2  0  0  3  0  0  0  0  0  0
  187.0600  178.6760  141.1520 C   0  0  0  0  0  1  0  0  0  0  0  0
  188.3590  178.7490  140.6480 O   0  0  0  0  0  0  0  0  0  0  0  0
  189.5750  176.9120  141.6530 C   0  0  2  0  0  3  0  0  0  0  0  0
  188.6670  176.1810  142.6300 C   0  0  0  0  0  2  0  0  0  0  0  0
  188.6280  176.9030  143.9630 C   0  0  0  0  0  2  0  0  0  0  0  0
  187.1900  177.0570  144.4100 C   0  0  0  0  0  1  0  0  0  0  0  0
  190.2370  177.9920  142.2990 O   0  0  0  0  0  0  0  0  0  0  0  0
  191.5780  177.8970  142.6500 C   0  0  0  0  0  3  0  0  0  0  0  0
  191.9250  178.0260  143.8520 O   0  0  0  0  0  0  0  0  0  0  0  0
  2  3  1  0  0  0  0
  3  5  1  0  0  0  0
  3  8  1  0  0  0  0
  4 13  2  0  0  0  0
  7  6  1  0  0  0  0
  7 19  1  1  0  0  0
  8 17  1  1  0  0  0
  8  6  1  0  0  0  0
 10 12  1  6  0  0  0
 10  7  1  0  0  0  0
 11 14  1  0  0  0  0
 11  4  1  0  0  0  0
 13  9  1  0  0  0  0
 13 12  1  0  0  0  0
 14  1  1  0  0  0  0
 15  1  1  1  0  0  0
 15  3  1  0  0  0  0
 15 10  1  0  0  0  0
 17 16  1  0  0  0  0
 18 17  2  0  0  0  0
 19 21  1  1  0  0  0
 19 22  1  0  0  0  0
 21 20  1  0  0  0  0
 22 26  1  0  0  0  0
 22 23  1  1  0  0  0
 23 24  1  0  0  0  0
 24 25  1  0  0  0  0
 26 27  1  0  0  0  0
 27 28  2  0  0  0  0
M  END
>  <MODEL>
1

>  <REMARK>
 VINA RESULT:      -5.6      0.000      0.000
  Name = 
  8 active torsions:
  status: ('A' for Active; 'I' for Inactive)
    1  A    between atoms: C_9  and  C_12
    2  A    between atoms: C_9  and  C_13
    3  A    between atoms: C_9  and  O_14
    4  A    between atoms: C_10  and  C_13
    5  A    between atoms: C_11  and  C_22
    6  A    between atoms: C_12  and  C_15
    7  A    between atoms: C_13  and  O_24
    8  A    between atoms: O_14  and  C_18
                            x       y       z     vdW  Elec       q    Type
                         _______ _______ _______ _____ _____    ______ ____

>  <TORSDO>
F 8

$$$$
=
 OpenBabel10272402033D

 28 29  0  0  1  0  0  0  0  0999 V2000
  187.2240  177.9680  137.5350 C   0  0  0  0  0  2  0  0  0  0  0  0
  186.4280  175.2060  136.7340 C   0  0  0  0  0  1  0  0  0  0  0  0
  185.3720  176.2800  136.9630 C   0  0  0  0  0  0  0  0  0  0  0  0
  187.1370  178.3900  140.7590 C   0  0  0  0  0  3  0  0  0  0  0  0
  185.0870  176.9740  135.6310 C   0  0  0  0  0  1  0  0  0  0  0  0
  183.0310  176.6340  137.9200 C   0  0  0  0  0  2  0  0  0  0  0  0
  183.5800  177.6120  138.9570 C   0  0  1  0  0  3  0  0  0  0  0  0
  184.0940  175.6120  137.5270 C   0  0  1  0  0  3  0  0  0  0  0  0
  185.1050  179.1040  141.8810 C   0  0  0  0  0  1  0  0  0  0  0  0
  184.8420  178.3160  138.4370 C   0  0  1  0  0  3  0  0  0  0  0  0
  188.0700  178.0990  139.6170 C   0  0  0  0  0  2  0  0  0  0  0  0
  185.3410  179.2430  139.4090 O   0  0  0  0  0  0  0  0  0  0  0  0
  185.8930  178.8700  140.6430 C   0  0  0  0  0  0  0  0  0  0  0  0
  187.7440  178.8630  138.4880 O   0  0  0  0  0  0  0  0  0  0  0  0
  185.9100  177.2970  137.9960 C   0  0  2  0  0  3  0  0  0  0  0  0
  183.8230  173.2220  136.8530 O   0  0  0  0  0  1  0  0  0  0  0  0
  183.5080  174.5560  136.6340 C   0  0  0  0  0  0  0  0  0  0  0  0
  182.7460  174.8680  135.6810 O   0  0  0  0  0  0  0  0  0  0  0  0
  182.5120  178.6210  139.4070 C   0  0  2  0  0  3  0  0  0  0  0  0
  181.4460  178.5600  141.3490 C   0  0  0  0  0  1  0  0  0  0  0  0
  181.4710  177.9750  140.0820 O   0  0  0  0  0  0  0  0  0  0  0  0
  181.9770  179.4870  138.2600 C   0  0  2  0  0  3  0  0  0  0  0  0
  182.1870  180.9570  138.5890 C   0  0  0  0  0  2  0  0  0  0  0  0
  180.8580  181.6820  138.6580 C   0  0  0  0  0  2  0  0  0  0  0  0
  180.8050  182.7400  137.5760 C   0  0  0  0  0  1  0  0  0  0  0  0
  180.5990  179.2190  138.0310 O   0  0  0  0  0  0  0  0  0  0  0  0
  180.1620  178.7340  136.8040 C   0  0  0  0  0  3  0  0  0  0  0  0
  180.9470  178.7130  135.8210 O   0  0  0  0  0  0  0  0  0  0  0  0
  1 14  1  0  0  0  0
  2  3  1  0  0  0  0
  3  8  1  0  0  0  0
  3 15  1  0  0  0  0
  5  3  1  0  0  0  0
  6  7  1  0  0  0  0
  7 19  1  6  0  0  0
  8 17  1  6  0  0  0
  8  6  1  0  0  0  0
 10  7  1  0  0  0  0
 10 12  1  1  0  0  0
 11  4  1  0  0  0  0
 12 13  1  0  0  0  0
 13  4  2  0  0  0  0
 13  9  1  0  0  0  0
 14 11  1  0  0  0  0
 15  1  1  6  0  0  0
 15 10  1  0  0  0  0
 17 16  1  0  0  0  0
 18 17  2  0  0  0  0
 19 21  1  6  0  0  0
 21 20  1  0  0  0  0
 22 23  1  1  0  0  0
 22 19  1  0  0  0  0
 23 24  1  0  0  0  0
 25 24  1  0  0  0  0
 26 22  1  0  0  0  0
 27 26  1  0  0  0  0
 28 27  2  0  0  0  0
M  END
>  <MODEL>
2

>  <REMARK>
 VINA RESULT:      -5.4      4.206      7.910
  Name = 
  8 active torsions:
  status: ('A' for Active; 'I' for Inactive)
    1  A    between atoms: C_9  and  C_12
    2  A    between atoms: C_9  and  C_13
    3  A    between atoms: C_9  and  O_14
    4  A    between atoms: C_10  and  C_13
    5  A    between atoms: C_11  and  C_22
    6  A    between atoms: C_12  and  C_15
    7  A    between atoms: C_13  and  O_24
    8  A    between atoms: O_14  and  C_18
                            x       y       z     vdW  Elec       q    Type
                         _______ _______ _______ _____ _____    ______ ____

>  <TORSDO>
F 8

$$$$
=
 OpenBabel10272402033D

 28 29  0  0  1  0  0  0  0  0999 V2000
  183.8560  174.0830  136.9360 C   0  0  0  0  0  2  0  0  0  0  0  0
  185.9060  175.0320  134.9860 C   0  0  0  0  0  1  0  0  0  0  0  0
  185.7700  175.6970  136.3500 C   0  0  0  0  0  0  0  0  0  0  0  0
  181.1010  175.8040  136.7650 C   0  0  0  0  0  3  0  0  0  0  0  0
  186.7170  175.0000  137.3270 C   0  0  0  0  0  1  0  0  0  0  0  0
  185.8710  177.9730  137.5040 C   0  0  0  0  0  2  0  0  0  0  0  0
  184.4140  177.8380  137.9420 C   0  0  1  0  0  3  0  0  0  0  0  0
  186.1190  177.1980  136.2110 C   0  0  1  0  0  3  0  0  0  0  0  0
  180.7970  177.8280  138.0720 C   0  0  0  0  0  1  0  0  0  0  0  0
  184.0230  176.3630  138.1120 C   0  0  1  0  0  3  0  0  0  0  0  0
  181.7380  174.5210  136.3100 C   0  0  0  0  0  2  0  0  0  0  0  0
  182.6600  176.2470  138.5390 O   0  0  0  0  0  0  0  0  0  0  0  0
  181.5540  176.5910  137.7480 C   0  0  0  0  0  0  0  0  0  0  0  0
  182.5120  173.9490  137.3290 O   0  0  0  0  0  0  0  0  0  0  0  0
  184.3060  175.5580  136.8280 C   0  0  2  0  0  3  0  0  0  0  0  0
  187.6870  177.7630  134.3510 O   0  0  0  0  0  0  0  0  0  0  0  0
  187.5030  177.4620  135.6930 C   0  0  0  0  0  0  0  0  0  0  0  0
  188.5010  177.3990  136.4600 O   0  0  0  0  0  1  0  0  0  0  0  0
  184.1280  178.6510  139.2150 C   0  0  2  0  0  3  0  0  0  0  0  0
  183.0590  180.5590  138.8530 C   0  0  0  0  0  1  0  0  0  0  0  0
  184.3380  180.0160  138.9900 O   0  0  0  0  0  0  0  0  0  0  0  0
  184.9170  178.1610  140.4350 C   0  0  2  0  0  3  0  0  0  0  0  0
  183.9970  178.1010  141.6460 C   0  0  0  0  0  2  0  0  0  0  0  0
  184.4130  179.1270  142.6810 C   0  0  0  0  0  2  0  0  0  0  0  0
  184.7520  178.4240  143.9790 C   0  0  0  0  0  1  0  0  0  0  0  0
  186.0240  179.0160  140.6920 O   0  0  0  0  0  0  0  0  0  0  0  0
  187.3120  178.5030  140.7850 C   0  0  0  0  0  3  0  0  0  0  0  0
  188.1670  178.7860  139.9070 O   0  0  0  0  0  0  0  0  0  0  0  0
  1 14  1  0  0  0  0
  2  3  1  0  0  0  0
  3 15  1  0  0  0  0
  3  5  1  0  0  0  0
  4 13  2  0  0  0  0
  6  7  1  0  0  0  0
  7 10  1  0  0  0  0
  7 19  1  1  0  0  0
  8 17  1  1  0  0  0
  8  3  1  0  0  0  0
  8  6  1  0  0  0  0
 10 12  1  6  0  0  0
 11  4  1  0  0  0  0
 11 14  1  0  0  0  0
 13  9  1  0  0  0  0
 13 12  1  0  0  0  0
 15  1  1  1  0  0  0
 15 10  1  0  0  0  0
 16 17  2  0  0  0  0
 17 18  1  0  0  0  0
 19 21  1  6  0  0  0
 19 22  1  0  0  0  0
 20 21  1  0  0  0  0
 22 26  1  0  0  0  0
 22 23  1  1  0  0  0
 23 24  1  0  0  0  0
 24 25  1  0  0  0  0
 26 27  1  0  0  0  0
 28 27  2  0  0  0  0
M  END
>  <MODEL>
3

>  <REMARK>
 VINA RESULT:      -5.3      3.570      5.319
  Name = 
  8 active torsions:
  status: ('A' for Active; 'I' for Inactive)
    1  A    between atoms: C_9  and  C_12
    2  A    between atoms: C_9  and  C_13
    3  A    between atoms: C_9  and  O_14
    4  A    between atoms: C_10  and  C_13
    5  A    between atoms: C_11  and  C_22
    6  A    between atoms: C_12  and  C_15
    7  A    between atoms: C_13  and  O_24
    8  A    between atoms: O_14  and  C_18
                            x       y       z     vdW  Elec       q    Type
                         _______ _______ _______ _____ _____    ______ ____

>  <TORSDO>
F 8

$$$$
=
 OpenBabel10272402033D

 28 29  0  0  1  0  0  0  0  0999 V2000
  189.0270  176.2760  144.2200 C   0  0  0  0  0  2  0  0  0  0  0  0
  188.1940  177.9810  146.5240 C   0  0  0  0  0  1  0  0  0  0  0  0
  187.2130  177.6630  145.4020 C   0  0  0  0  0  0  0  0  0  0  0  0
  190.0430  178.0410  141.6840 C   0  0  0  0  0  3  0  0  0  0  0  0
  186.4330  176.4040  145.7810 C   0  0  0  0  0  1  0  0  0  0  0  0
  185.3350  178.6940  144.0110 C   0  0  0  0  0  2  0  0  0  0  0  0
  186.1440  178.4910  142.7320 C   0  0  1  0  0  3  0  0  0  0  0  0
  186.2620  178.8700  145.2120 C   0  0  1  0  0  3  0  0  0  0  0  0
  188.4870  178.8300  139.9940 C   0  0  0  0  0  1  0  0  0  0  0  0
  187.0920  177.2900  142.8630 C   0  0  1  0  0  3  0  0  0  0  0  0
  190.5360  177.2560  142.8670 C   0  0  0  0  0  2  0  0  0  0  0  0
  187.8340  177.0960  141.6530 O   0  0  0  0  0  0  0  0  0  0  0  0
  188.8070  177.9850  141.1740 C   0  0  0  0  0  0  0  0  0  0  0  0
  189.7830  176.0870  143.0500 O   0  0  0  0  0  0  0  0  0  0  0  0
  188.0070  177.4310  144.0960 C   0  0  2  0  0  3  0  0  0  0  0  0
  184.1680  178.7860  146.5700 O   0  0  0  0  0  0  0  0  0  0  0  0
  185.4760  179.2320  146.4390 C   0  0  0  0  0  0  0  0  0  0  0  0
  185.9840  179.9480  147.3420 O   0  0  0  0  0  1  0  0  0  0  0  0
  185.2330  178.3620  141.5000 C   0  0  2  0  0  3  0  0  0  0  0  0
  185.2340  179.0730  139.4010 C   0  0  0  0  0  1  0  0  0  0  0  0
  185.2830  179.5230  140.7210 O   0  0  0  0  0  0  0  0  0  0  0  0
  183.7880  177.9910  141.8530 C   0  0  2  0  0  3  0  0  0  0  0  0
  183.1720  177.1940  140.7130 C   0  0  0  0  0  2  0  0  0  0  0  0
  181.9980  177.9440  140.1130 C   0  0  0  0  0  2  0  0  0  0  0  0
  180.8190  177.0050  139.9740 C   0  0  0  0  0  1  0  0  0  0  0  0
  183.0220  179.1600  142.1160 O   0  0  0  0  0  0  0  0  0  0  0  0
  182.0490  179.1650  143.1090 C   0  0  0  0  0  3  0  0  0  0  0  0
  181.0170  179.8700  142.9750 O   0  0  0  0  0  0  0  0  0  0  0  0
  3  5  1  0  0  0  0
  3  2  1  0  0  0  0
  4 11  1  0  0  0  0
  6  8  1  0  0  0  0
  7 19  1  6  0  0  0
  7 10  1  0  0  0  0
  7  6  1  0  0  0  0
  8  3  1  0  0  0  0
  8 17  1  1  0  0  0
  9 13  1  0  0  0  0
 10 12  1  6  0  0  0
 10 15  1  0  0  0  0
 11 14  1  0  0  0  0
 13 12  1  0  0  0  0
 13  4  2  0  0  0  0
 14  1  1  0  0  0  0
 15  1  1  1  0  0  0
 15  3  1  0  0  0  0
 17 16  2  0  0  0  0
 17 18  1  0  0  0  0
 19 21  1  1  0  0  0
 19 22  1  0  0  0  0
 20 21  1  0  0  0  0
 22 23  1  6  0  0  0
 22 26  1  0  0  0  0
 24 23  1  0  0  0  0
 25 24  1  0  0  0  0
 26 27  1  0  0  0  0
 28 27  2  0  0  0  0
M  END
>  <MODEL>
4

>  <REMARK>
 VINA RESULT:      -5.2      3.913      8.004
  Name = 
  8 active torsions:
  status: ('A' for Active; 'I' for Inactive)
    1  A    between atoms: C_9  and  C_12
    2  A    between atoms: C_9  and  C_13
    3  A    between atoms: C_9  and  O_14
    4  A    between atoms: C_10  and  C_13
    5  A    between atoms: C_11  and  C_22
    6  A    between atoms: C_12  and  C_15
    7  A    between atoms: C_13  and  O_24
    8  A    between atoms: O_14  and  C_18
                            x       y       z     vdW  Elec       q    Type
                         _______ _______ _______ _____ _____    ______ ____

>  <TORSDO>
F 8

$$$$
=
 OpenBabel10272402033D

 28 29  0  0  1  0  0  0  0  0999 V2000
  190.6810  176.1530  139.5730 C   0  0  0  0  0  2  0  0  0  0  0  0
  192.2800  177.5990  141.6370 C   0  0  0  0  0  1  0  0  0  0  0  0
  190.7850  177.3790  141.8310 C   0  0  0  0  0  0  0  0  0  0  0  0
  189.2510  178.1850  137.4740 C   0  0  0  0  0  3  0  0  0  0  0  0
  190.5820  176.0740  142.6010 C   0  0  0  0  0  1  0  0  0  0  0  0
  188.6790  178.5130  142.7250 C   0  0  0  0  0  2  0  0  0  0  0  0
  188.0360  178.4550  141.3410 C   0  0  1  0  0  3  0  0  0  0  0  0
  190.2000  178.5820  142.6100 C   0  0  1  0  0  3  0  0  0  0  0  0
  187.0520  179.1140  137.9210 C   0  0  0  0  0  1  0  0  0  0  0  0
  188.5710  177.2640  140.5330 C   0  0  1  0  0  3  0  0  0  0  0  0
  190.4480  177.2920  137.6450 C   0  0  0  0  0  2  0  0  0  0  0  0
  187.9500  177.2080  139.2430 O   0  0  0  0  0  0  0  0  0  0  0  0
  188.1470  178.1580  138.2310 C   0  0  0  0  0  0  0  0  0  0  0  0
  190.1020  176.0980  138.2930 O   0  0  0  0  0  0  0  0  0  0  0  0
  190.1100  177.2960  140.4430 C   0  0  2  0  0  3  0  0  0  0  0  0
  190.3100  178.1450  145.0660 O   0  0  0  0  0  1  0  0  0  0  0  0
  190.8230  178.8030  143.9570 C   0  0  0  0  0  0  0  0  0  0  0  0
  191.7970  179.5920  144.0960 O   0  0  0  0  0  0  0  0  0  0  0  0
  186.5010  178.4360  141.4310 C   0  0  2  0  0  3  0  0  0  0  0  0
  184.7760  179.0640  140.1890 C   0  0  0  0  0  1  0  0  0  0  0  0
  185.9510  179.5410  140.7710 O   0  0  0  0  0  0  0  0  0  0  0  0
  185.9800  178.3310  142.8690 C   0  0  2  0  0  3  0  0  0  0  0  0
  186.7520  177.2520  143.6130 C   0  0  0  0  0  2  0  0  0  0  0  0
  186.2910  177.1670  145.0550 C   0  0  0  0  0  2  0  0  0  0  0  0
  186.8230  178.3570  145.8240 C   0  0  0  0  0  1  0  0  0  0  0  0
  184.5880  178.0440  142.8760 O   0  0  0  0  0  0  0  0  0  0  0  0
  183.7130  178.7840  143.6630 C   0  0  0  0  0  3  0  0  0  0  0  0
  184.0570  179.9150  144.0930 O   0  0  0  0  0  0  0  0  0  0  0  0
  2  3  1  0  0  0  0
  3  5  1  0  0  0  0
  3  8  1  0  0  0  0
  4 11  1  0  0  0  0
  4 13  2  0  0  0  0
  7 19  1  1  0  0  0
  7  6  1  0  0  0  0
  8  6  1  0  0  0  0
  8 17  1  1  0  0  0
  9 13  1  0  0  0  0
 10 12  1  6  0  0  0
 10  7  1  0  0  0  0
 11 14  1  0  0  0  0
 13 12  1  0  0  0  0
 14  1  1  0  0  0  0
 15  1  1  1  0  0  0
 15 10  1  0  0  0  0
 15  3  1  0  0  0  0
 17 18  2  0  0  0  0
 17 16  1  0  0  0  0
 19 21  1  1  0  0  0
 19 22  1  0  0  0  0
 20 21  1  0  0  0  0
 22 26  1  0  0  0  0
 22 23  1  1  0  0  0
 23 24  1  0  0  0  0
 24 25  1  0  0  0  0
 26 27  1  0  0  0  0
 27 28  2  0  0  0  0
M  END
>  <MODEL>
5

>  <REMARK>
 VINA RESULT:      -5.1      2.277      4.609
  Name = 
  8 active torsions:
  status: ('A' for Active; 'I' for Inactive)
    1  A    between atoms: C_9  and  C_12
    2  A    between atoms: C_9  and  C_13
    3  A    between atoms: C_9  and  O_14
    4  A    between atoms: C_10  and  C_13
    5  A    between atoms: C_11  and  C_22
    6  A    between atoms: C_12  and  C_15
    7  A    between atoms: C_13  and  O_24
    8  A    between atoms: O_14  and  C_18
                            x       y       z     vdW  Elec       q    Type
                         _______ _______ _______ _____ _____    ______ ____

>  <TORSDO>
F 8

$$$$
=
 OpenBabel10272402033D

 28 29  0  0  1  0  0  0  0  0999 V2000
  186.4250  179.1130  142.3050 C   0  0  0  0  0  2  0  0  0  0  0  0
  187.7520  176.9520  143.8780 C   0  0  0  0  0  1  0  0  0  0  0  0
  188.4470  177.5680  142.6700 C   0  0  0  0  0  0  0  0  0  0  0  0
  184.8200  177.9520  139.7250 C   0  0  0  0  0  3  0  0  0  0  0  0
  189.3110  178.7350  143.1490 C   0  0  0  0  0  1  0  0  0  0  0  0
  189.9330  176.9760  140.6790 C   0  0  0  0  0  2  0  0  0  0  0  0
  188.8490  177.4400  139.7070 C   0  0  1  0  0  3  0  0  0  0  0  0
  189.3110  176.4820  141.9830 C   0  0  1  0  0  3  0  0  0  0  0  0
  185.9260  177.6520  137.5840 C   0  0  0  0  0  1  0  0  0  0  0  0
  187.9750  178.5330  140.3360 C   0  0  1  0  0  3  0  0  0  0  0  0
  184.6280  178.4150  141.1420 C   0  0  0  0  0  2  0  0  0  0  0  0
  186.9720  178.9740  139.4130 O   0  0  0  0  0  0  0  0  0  0  0  0
  185.9020  178.1810  138.9720 C   0  0  0  0  0  0  0  0  0  0  0  0
  185.4180  179.5390  141.4200 O   0  0  0  0  0  0  0  0  0  0  0  0
  187.3730  178.0660  141.6760 C   0  0  2  0  0  3  0  0  0  0  0  0
  191.4180  176.6560  143.3120 O   0  0  0  0  0  1  0  0  0  0  0  0
  190.3580  175.8760  142.8720 C   0  0  0  0  0  0  0  0  0  0  0  0
  190.2930  174.6640  143.2110 O   0  0  0  0  0  0  0  0  0  0  0  0
  189.4490  177.8940  138.3660 C   0  0  2  0  0  3  0  0  0  0  0  0
  188.9760  179.1630  136.6110 C   0  0  0  0  0  1  0  0  0  0  0  0
  188.9610  179.1560  138.0070 O   0  0  0  0  0  0  0  0  0  0  0  0
  189.2460  176.8780  137.2370 C   0  0  2  0  0  3  0  0  0  0  0  0
  188.4350  175.6980  137.7510 C   0  0  0  0  0  2  0  0  0  0  0  0
  188.0940  174.7520  136.6170 C   0  0  0  0  0  2  0  0  0  0  0  0
  186.7550  174.1000  136.8910 C   0  0  0  0  0  1  0  0  0  0  0  0
  190.4990  176.4380  136.7290 O   0  0  0  0  0  0  0  0  0  0  0  0
  191.5490  176.1390  137.5880 C   0  0  0  0  0  3  0  0  0  0  0  0
  191.6400  174.9920  138.0950 O   0  0  0  0  0  0  0  0  0  0  0  0
  3  5  1  0  0  0  0
  3  2  1  0  0  0  0
  4 11  1  0  0  0  0
  6  8  1  0  0  0  0
  7 19  1  6  0  0  0
  7 10  1  0  0  0  0
  7  6  1  0  0  0  0
  8  3  1  0  0  0  0
  8 17  1  1  0  0  0
  9 13  1  0  0  0  0
 10 12  1  6  0  0  0
 10 15  1  0  0  0  0
 11 14  1  0  0  0  0
 13 12  1  0  0  0  0
 13  4  2  0  0  0  0
 14  1  1  0  0  0  0
 15  1  1  1  0  0  0
 15  3  1  0  0  0  0
 17 18  2  0  0  0  0
 17 16  1  0  0  0  0
 19 21  1  6  0  0  0
 20 21  1  0  0  0  0
 22 23  1  1  0  0  0
 22 19  1  0  0  0  0
 24 25  1  0  0  0  0
 24 23  1  0  0  0  0
 26 22  1  0  0  0  0
 26 27  1  0  0  0  0
 27 28  2  0  0  0  0
M  END
>  <MODEL>
6

>  <REMARK>
 VINA RESULT:      -5.1      1.918      5.541
  Name = 
  8 active torsions:
  status: ('A' for Active; 'I' for Inactive)
    1  A    between atoms: C_9  and  C_12
    2  A    between atoms: C_9  and  C_13
    3  A    between atoms: C_9  and  O_14
    4  A    between atoms: C_10  and  C_13
    5  A    between atoms: C_11  and  C_22
    6  A    between atoms: C_12  and  C_15
    7  A    between atoms: C_13  and  O_24
    8  A    between atoms: O_14  and  C_18
                            x       y       z     vdW  Elec       q    Type
                         _______ _______ _______ _____ _____    ______ ____

>  <TORSDO>
F 8

$$$$
=
 OpenBabel10272402033D

 28 29  0  0  1  0  0  0  0  0999 V2000
  186.8500  177.6100  137.2220 C   0  0  0  0  0  2  0  0  0  0  0  0
  187.7850  178.0080  140.0280 C   0  0  0  0  0  1  0  0  0  0  0  0
  188.7670  177.6070  138.9350 C   0  0  0  0  0  0  0  0  0  0  0  0
  186.1710  174.4940  136.5800 C   0  0  0  0  0  3  0  0  0  0  0  0
  189.3680  178.8770  138.3320 C   0  0  0  0  0  1  0  0  0  0  0  0
  190.8170  176.1460  138.5010 C   0  0  0  0  0  2  0  0  0  0  0  0
  190.0460  175.3390  137.4580 C   0  0  1  0  0  3  0  0  0  0  0  0
  189.8670  176.7110  139.5550 C   0  0  1  0  0  3  0  0  0  0  0  0
  187.8850  172.9710  135.7780 C   0  0  0  0  0  1  0  0  0  0  0  0
  188.9520  176.1910  136.7990 C   0  0  1  0  0  3  0  0  0  0  0  0
  185.5330  175.8030  136.9540 C   0  0  0  0  0  2  0  0  0  0  0  0
  188.2450  175.4320  135.8100 O   0  0  0  0  0  0  0  0  0  0  0  0
  187.4110  174.3430  136.1010 C   0  0  0  0  0  0  0  0  0  0  0  0
  186.1270  176.8720  136.2680 O   0  0  0  0  0  0  0  0  0  0  0  0
  188.0090  176.8050  137.8530 C   0  0  2  0  0  3  0  0  0  0  0  0
  191.9850  177.6460  140.4900 O   0  0  0  0  0  0  0  0  0  0  0  0
  190.6380  177.3640  140.6650 C   0  0  0  0  0  0  0  0  0  0  0  0
  190.0800  177.6450  141.7600 O   0  0  0  0  0  1  0  0  0  0  0  0
  190.9870  174.7180  136.4140 C   0  0  2  0  0  3  0  0  0  0  0  0
  191.1130  172.7890  135.3290 C   0  0  0  0  0  1  0  0  0  0  0  0
  191.1070  173.3380  136.6120 O   0  0  0  0  0  0  0  0  0  0  0  0
  192.3630  175.3930  136.3610 C   0  0  2  0  0  3  0  0  0  0  0  0
  192.5930  175.9730  134.9740 C   0  0  0  0  0  2  0  0  0  0  0  0
  193.9980  175.6650  134.4950 C   0  0  0  0  0  2  0  0  0  0  0  0
  194.8900  176.8610  134.7490 C   0  0  0  0  0  1  0  0  0  0  0  0
  193.3880  174.4660  136.6910 O   0  0  0  0  0  0  0  0  0  0  0  0
  194.2300  174.6910  137.7730 C   0  0  0  0  0  3  0  0  0  0  0  0
  194.2000  175.7960  138.3740 O   0  0  0  0  0  0  0  0  0  0  0  0
  3  8  1  0  0  0  0
  3  2  1  0  0  0  0
  4 11  1  0  0  0  0
  5  3  1  0  0  0  0
  6  8  1  0  0  0  0
  7 19  1  6  0  0  0
  7  6  1  0  0  0  0
  8 17  1  1  0  0  0
  9 13  1  0  0  0  0
 10 12  1  6  0  0  0
 10  7  1  0  0  0  0
 10 15  1  0  0  0  0
 12 13  1  0  0  0  0
 13  4  2  0  0  0  0
 14 11  1  0  0  0  0
 14  1  1  0  0  0  0
 15  1  1  6  0  0  0
 15  3  1  0  0  0  0
 16 17  2  0  0  0  0
 17 18  1  0  0  0  0
 19 21  1  1  0  0  0
 20 21  1  0  0  0  0
 22 23  1  6  0  0  0
 22 19  1  0  0  0  0
 22 26  1  0  0  0  0
 24 25  1  0  0  0  0
 24 23  1  0  0  0  0
 26 27  1  0  0  0  0
 27 28  2  0  0  0  0
M  END
>  <MODEL>
7

>  <REMARK>
 VINA RESULT:      -4.9      1.949      5.761
  Name = 
  8 active torsions:
  status: ('A' for Active; 'I' for Inactive)
    1  A    between atoms: C_9  and  C_12
    2  A    between atoms: C_9  and  C_13
    3  A    between atoms: C_9  and  O_14
    4  A    between atoms: C_10  and  C_13
    5  A    between atoms: C_11  and  C_22
    6  A    between atoms: C_12  and  C_15
    7  A    between atoms: C_13  and  O_24
    8  A    between atoms: O_14  and  C_18
                            x       y       z     vdW  Elec       q    Type
                         _______ _______ _______ _____ _____    ______ ____

>  <TORSDO>
F 8

$$$$
=
 OpenBabel10272402033D

 28 29  0  0  1  0  0  0  0  0999 V2000
  190.6440  176.0880  139.5180 C   0  0  0  0  0  2  0  0  0  0  0  0
  192.1390  177.6090  141.6050 C   0  0  0  0  0  1  0  0  0  0  0  0
  190.6420  177.3670  141.7490 C   0  0  0  0  0  0  0  0  0  0  0  0
  189.2580  178.0460  137.3210 C   0  0  0  0  0  3  0  0  0  0  0  0
  190.4320  176.0760  142.5410 C   0  0  0  0  0  1  0  0  0  0  0  0
  188.4850  178.4820  142.5380 C   0  0  0  0  0  2  0  0  0  0  0  0
  187.8940  178.3820  141.1330 C   0  0  1  0  0  3  0  0  0  0  0  0
  190.0070  178.5760  142.4780 C   0  0  1  0  0  3  0  0  0  0  0  0
  187.0280  178.9450  137.6640 C   0  0  0  0  0  1  0  0  0  0  0  0
  188.4800  177.1830  140.3730 C   0  0  1  0  0  3  0  0  0  0  0  0
  190.4630  177.1790  137.5570 C   0  0  0  0  0  2  0  0  0  0  0  0
  187.9090  177.0860  139.0620 O   0  0  0  0  0  0  0  0  0  0  0  0
  188.1280  178.0170  138.0360 C   0  0  0  0  0  0  0  0  0  0  0  0
  190.1140  175.9940  138.2190 O   0  0  0  0  0  0  0  0  0  0  0  0
  190.0200  177.2400  140.3390 C   0  0  2  0  0  3  0  0  0  0  0  0
  191.5500  179.8150  144.0020 O   0  0  0  0  0  0  0  0  0  0  0  0
  190.5760  178.8390  143.8420 C   0  0  0  0  0  0  0  0  0  0  0  0
  190.1910  178.1740  144.8400 O   0  0  0  0  0  1  0  0  0  0  0  0
  186.3580  178.3370  141.1660 C   0  0  2  0  0  3  0  0  0  0  0  0
  184.7110  179.1250  139.9100 C   0  0  0  0  0  1  0  0  0  0  0  0
  185.8160  179.5250  140.6630 O   0  0  0  0  0  0  0  0  0  0  0  0
  185.7920  178.0110  142.5530 C   0  0  2  0  0  3  0  0  0  0  0  0
  185.1580  179.2570  143.1510 C   0  0  0  0  0  2  0  0  0  0  0  0
  183.6900  179.0180  143.4460 C   0  0  0  0  0  2  0  0  0  0  0  0
  183.4770  178.9800  144.9440 C   0  0  0  0  0  1  0  0  0  0  0  0
  186.8140  177.5120  143.4060 O   0  0  0  0  0  0  0  0  0  0  0  0
  186.5260  177.1210  144.7080 C   0  0  0  0  0  3  0  0  0  0  0  0
  187.0480  177.7300  145.6770 O   0  0  0  0  0  0  0  0  0  0  0  0
  2  3  1  0  0  0  0
  3  8  1  0  0  0  0
  3  5  1  0  0  0  0
  4 11  1  0  0  0  0
  4 13  2  0  0  0  0
  7 19  1  1  0  0  0
  7  6  1  0  0  0  0
  8  6  1  0  0  0  0
  8 17  1  1  0  0  0
  9 13  1  0  0  0  0
 10 12  1  6  0  0  0
 10  7  1  0  0  0  0
 11 14  1  0  0  0  0
 13 12  1  0  0  0  0
 14  1  1  0  0  0  0
 15  1  1  1  0  0  0
 15 10  1  0  0  0  0
 15  3  1  0  0  0  0
 17 16  2  0  0  0  0
 17 18  1  0  0  0  0
 19 21  1  1  0  0  0
 19 22  1  0  0  0  0
 20 21  1  0  0  0  0
 22 23  1  1  0  0  0
 22 26  1  0  0  0  0
 23 24  1  0  0  0  0
 24 25  1  0  0  0  0
 26 27  1  0  0  0  0
 27 28  2  0  0  0  0
M  END
>  <MODEL>
8

>  <REMARK>
 VINA RESULT:      -4.8      2.220      4.445
  Name = 
  8 active torsions:
  status: ('A' for Active; 'I' for Inactive)
    1  A    between atoms: C_9  and  C_12
    2  A    between atoms: C_9  and  C_13
    3  A    between atoms: C_9  and  O_14
    4  A    between atoms: C_10  and  C_13
    5  A    between atoms: C_11  and  C_22
    6  A    between atoms: C_12  and  C_15
    7  A    between atoms: C_13  and  O_24
    8  A    between atoms: O_14  and  C_18
                            x       y       z     vdW  Elec       q    Type
                         _______ _______ _______ _____ _____    ______ ____

>  <TORSDO>
F 8

$$$$
=
 OpenBabel10272402033D

 28 29  0  0  1  0  0  0  0  0999 V2000
  188.6020  178.6440  140.0320 C   0  0  0  0  0  2  0  0  0  0  0  0
  188.9980  176.3410  138.1750 C   0  0  0  0  0  1  0  0  0  0  0  0
  187.8590  177.3280  137.9530 C   0  0  0  0  0  0  0  0  0  0  0  0
  186.4440  177.9830  142.3740 C   0  0  0  0  0  3  0  0  0  0  0  0
  188.3500  178.4350  137.0200 C   0  0  0  0  0  1  0  0  0  0  0  0
  185.4190  177.4560  137.2090 C   0  0  0  0  0  2  0  0  0  0  0  0
  185.0110  178.0100  138.5730 C   0  0  1  0  0  3  0  0  0  0  0  0
  186.6570  176.5720  137.3350 C   0  0  1  0  0  3  0  0  0  0  0  0
  184.0710  178.3810  142.0480 C   0  0  0  0  0  1  0  0  0  0  0  0
  186.1660  178.7870  139.2210 C   0  0  1  0  0  3  0  0  0  0  0  0
  187.9190  178.0410  142.0910 C   0  0  0  0  0  2  0  0  0  0  0  0
  185.7700  179.3170  140.4920 O   0  0  0  0  0  0  0  0  0  0  0  0
  185.4860  178.5320  141.6190 C   0  0  0  0  0  0  0  0  0  0  0  0
  188.2400  179.1490  141.2940 O   0  0  0  0  0  0  0  0  0  0  0  0
  187.4380  177.9210  139.3170 C   0  0  2  0  0  3  0  0  0  0  0  0
  186.7830  176.5950  134.8410 O   0  0  0  0  0  0  0  0  0  0  0  0
  186.9610  175.8980  136.0280 C   0  0  0  0  0  0  0  0  0  0  0  0
  187.3610  174.7040  135.9960 O   0  0  0  0  0  1  0  0  0  0  0  0
  183.7360  178.8640  138.4800 C   0  0  2  0  0  3  0  0  0  0  0  0
  182.7550  180.8180  138.8440 C   0  0  0  0  0  1  0  0  0  0  0  0
  183.9100  180.0880  139.1340 O   0  0  0  0  0  0  0  0  0  0  0  0
  182.4830  178.1370  138.9830 C   0  0  2  0  0  3  0  0  0  0  0  0
  182.8710  176.7720  139.5320 C   0  0  0  0  0  2  0  0  0  0  0  0
  182.0190  175.6860  138.9060 C   0  0  0  0  0  2  0  0  0  0  0  0
  182.8860  174.8110  138.0260 C   0  0  0  0  0  1  0  0  0  0  0  0
  181.5290  178.0020  137.9380 O   0  0  0  0  0  0  0  0  0  0  0  0
  181.8620  178.3190  136.6260 C   0  0  0  0  0  3  0  0  0  0  0  0
  181.9390  177.4110  135.7590 O   0  0  0  0  0  0  0  0  0  0  0  0
  1 14  1  0  0  0  0
  3  2  1  0  0  0  0
  3 15  1  0  0  0  0
  5  3  1  0  0  0  0
  6  8  1  0  0  0  0
  6  7  1  0  0  0  0
  7 19  1  6  0  0  0
  7 10  1  0  0  0  0
  8 17  1  6  0  0  0
  8  3  1  0  0  0  0
 10 15  1  0  0  0  0
 10 12  1  1  0  0  0
 11  4  1  0  0  0  0
 12 13  1  0  0  0  0
 13  9  1  0  0  0  0
 13  4  2  0  0  0  0
 14 11  1  0  0  0  0
 15  1  1  6  0  0  0
 16 17  2  0  0  0  0
 18 17  1  0  0  0  0
 19 22  1  0  0  0  0
 19 21  1  1  0  0  0
 20 21  1  0  0  0  0
 22 23  1  6  0  0  0
 24 23  1  0  0  0  0
 25 24  1  0  0  0  0
 26 22  1  0  0  0  0
 27 26  1  0  0  0  0
 28 27  2  0  0  0  0
M  END
>  <MODEL>
9

>  <REMARK>
 VINA RESULT:      -4.7      3.102      6.713
  Name = 
  8 active torsions:
  status: ('A' for Active; 'I' for Inactive)
    1  A    between atoms: C_9  and  C_12
    2  A    between atoms: C_9  and  C_13
    3  A    between atoms: C_9  and  O_14
    4  A    between atoms: C_10  and  C_13
    5  A    between atoms: C_11  and  C_22
    6  A    between atoms: C_12  and  C_15
    7  A    between atoms: C_13  and  O_24
    8  A    between atoms: O_14  and  C_18
                            x       y       z     vdW  Elec       q    Type
                         _______ _______ _______ _____ _____    ______ ____

>  <TORSDO>
F 8

$$$$
