=
 OpenBabel10272413463D

 30 30  0  0  1  0  0  0  0  0999 V2000
  189.7180  177.3080  142.5490 C   0  0  2  0  0  0  0  0  0  0  0  0
  188.0760  178.2360  140.2540 C   0  0  0  0  0  2  0  0  0  0  0  0
  188.0840  179.0430  141.5500 C   0  0  0  0  0  2  0  0  0  0  0  0
  191.4090  176.6880  140.8790 C   0  0  0  0  0  1  0  0  0  0  0  0
  189.2470  177.2540  140.1730 C   0  0  0  0  0  2  0  0  0  0  0  0
  188.4180  178.1570  142.7510 C   0  0  1  0  0  3  0  0  0  0  0  0
  190.2670  177.5450  141.1820 N   0  0  0  0  0  0  0  0  0  0  0  0
  189.4160  175.8130  142.7730 C   0  0  0  0  0  1  0  0  0  0  0  0
  190.7070  177.7950  143.6400 C   0  0  1  0  0  3  0  0  0  0  0  0
  190.9110  179.3030  143.6900 C   0  0  0  0  0  1  0  0  0  0  0  0
  190.3310  177.3090  144.9590 N   0  0  0  0  0  2  0  0  0  0  0  0
  191.5670  177.0530  145.6830 C   0  0  0  0  0  2  0  0  0  0  0  0
  191.2780  176.8350  147.1600 C   0  0  2  0  0  3  0  0  0  0  0  0
  192.0510  175.6330  147.6750 C   0  0  0  0  0  1  0  0  0  0  0  0
  189.7830  176.7010  147.4480 C   0  0  0  0  0  2  0  0  0  0  0  0
  189.2260  177.8940  148.2080 C   0  0  0  0  0  1  0  0  0  0  0  0
  187.2740  177.3980  143.1370 O   0  0  0  0  0  0  0  0  0  0  0  0
  186.5160  177.7040  144.2690 C   0  0  0  0  0  0  0  0  0  0  0  0
  186.6940  176.9810  145.3690 C   0  0  0  0  0  2  0  0  0  0  0  0
  185.4940  178.8110  144.2440 C   0  0  2  0  0  3  0  0  0  0  0  0
  185.1200  179.1410  145.5510 O   0  0  0  0  0  1  0  0  0  0  0  0
  184.2690  178.4370  143.4070 C   0  0  1  0  0  3  0  0  0  0  0  0
  182.9920  178.8100  144.1430 C   0  0  0  0  0  1  0  0  0  0  0  0
  184.2900  179.1720  142.0670 C   0  0  0  0  0  2  0  0  0  0  0  0
  183.9870  178.2630  140.8740 C   0  0  1  0  0  3  0  0  0  0  0  0
  181.3510  177.8710  140.6230 C   0  0  0  0  0  3  0  0  0  0  0  0
  182.5390  178.0450  140.7380 C   0  0  0  0  0  0  0  0  0  0  0  0
  184.5840  178.8130  139.5820 C   0  0  0  0  0  2  0  0  0  0  0  0
  185.6030  177.7890  137.5410 C   0  0  0  0  0  1  0  0  0  0  0  0
  184.3660  177.8640  138.4150 C   0  0  0  0  0  2  0  0  0  0  0  0
  1  6  1  0  0  0  0
  1  8  1  1  0  0  0
  1  9  1  0  0  0  0
  2  3  1  0  0  0  0
  3  6  1  0  0  0  0
  4  7  1  0  0  0  0
  5  2  1  0  0  0  0
  5  7  1  0  0  0  0
  6 17  1  6  0  0  0
  7  1  1  0  0  0  0
  9 10  1  1  0  0  0
  9 11  1  0  0  0  0
 11 12  1  0  0  0  0
 12 13  1  0  0  0  0
 13 15  1  0  0  0  0
 13 14  1  6  0  0  0
 15 16  1  0  0  0  0
 17 18  1  0  0  0  0
 18 19  2  0  0  0  0
 20 18  1  0  0  0  0
 20 21  1  1  0  0  0
 22 23  1  1  0  0  0
 22 20  1  0  0  0  0
 24 22  1  0  0  0  0
 25 28  1  6  0  0  0
 25 24  1  0  0  0  0
 26 27  3  0  0  0  0
 27 25  1  0  0  0  0
 29 30  1  0  0  0  0
 30 28  1  0  0  0  0
M  END
>  <MODEL>
1

>  <REMARK>
 VINA RESULT:      -6.6      0.000      0.000
  Name = 
  14 active torsions:
  status: ('A' for Active; 'I' for Inactive)
    1  A    between atoms: C_1  and  O_2
    2  A    between atoms: C_1  and  C_4
    3  A    between atoms: O_2  and  C_22
    4  A    between atoms: C_3  and  C_11
    5  A    between atoms: C_4  and  C_27
    6  A    between atoms: C_6  and  C_8
    7  A    between atoms: C_6  and  C_21
    8  A    between atoms: C_7  and  C_10
    9  A    between atoms: C_7  and  C_15
   10  A    between atoms: C_8  and  C_12
   11  A    between atoms: C_8  and  C_13
   12  A    between atoms: C_10  and  N_25
   13  A    between atoms: C_11  and  N_25
   14  A    between atoms: C_13  and  C_27
                            x       y       z     vdW  Elec       q    Type
                         _______ _______ _______ _____ _____    ______ ____

>  <TORSDO>
F 14

$$$$
=
 OpenBabel10272413463D

 30 30  0  0  1  0  0  0  0  0999 V2000
  188.4230  177.9020  137.4290 C   0  0  2  0  0  0  0  0  0  0  0  0
  190.6480  176.1550  138.3380 C   0  0  0  0  0  2  0  0  0  0  0  0
  189.2870  176.0590  139.0210 C   0  0  0  0  0  2  0  0  0  0  0  0
  189.2550  177.5030  135.1530 C   0  0  0  0  0  1  0  0  0  0  0  0
  190.5710  176.8710  136.9860 C   0  0  0  0  0  2  0  0  0  0  0  0
  188.5120  177.3720  138.9000 C   0  0  1  0  0  3  0  0  0  0  0  0
  189.1880  176.9990  136.5210 N   0  0  0  0  0  0  0  0  0  0  0  0
  188.9580  179.3460  137.3510 C   0  0  0  0  0  1  0  0  0  0  0  0
  186.9130  177.8990  137.0760 C   0  0  1  0  0  3  0  0  0  0  0  0
  186.2590  176.5250  137.0800 C   0  0  0  0  0  1  0  0  0  0  0  0
  186.1610  178.8020  137.9360 N   0  0  0  0  0  2  0  0  0  0  0  0
  185.0320  178.0440  138.4560 C   0  0  0  0  0  2  0  0  0  0  0  0
  184.0620  178.9710  139.1740 C   0  0  2  0  0  3  0  0  0  0  0  0
  183.7580  178.4380  140.5640 C   0  0  0  0  0  1  0  0  0  0  0  0
  182.7810  179.2060  138.3750 C   0  0  0  0  0  2  0  0  0  0  0  0
  182.1580  180.5640  138.6590 C   0  0  0  0  0  1  0  0  0  0  0  0
  189.0060  178.3250  139.8390 O   0  0  0  0  0  0  0  0  0  0  0  0
  188.6520  178.3020  141.1900 C   0  0  0  0  0  0  0  0  0  0  0  0
  187.3860  178.5280  141.5200 C   0  0  0  0  0  2  0  0  0  0  0  0
  189.6850  178.0540  142.2600 C   0  0  2  0  0  3  0  0  0  0  0  0
  190.8970  177.6780  141.6720 O   0  0  0  0  0  1  0  0  0  0  0  0
  189.2190  176.9980  143.2660 C   0  0  1  0  0  3  0  0  0  0  0  0
  189.9340  175.6800  143.0170 C   0  0  0  0  0  1  0  0  0  0  0  0
  189.5190  177.4510  144.6940 C   0  0  0  0  0  2  0  0  0  0  0  0
  188.3410  177.2530  145.6510 C   0  0  1  0  0  3  0  0  0  0  0  0
  188.9790  178.0630  148.1220 C   0  0  0  0  0  3  0  0  0  0  0  0
  188.6890  177.7000  147.0080 C   0  0  0  0  0  0  0  0  0  0  0  0
  187.0830  177.9520  145.1460 C   0  0  0  0  0  2  0  0  0  0  0  0
  184.7780  178.7320  145.7210 C   0  0  0  0  0  1  0  0  0  0  0  0
  185.9660  177.9090  146.1780 C   0  0  0  0  0  2  0  0  0  0  0  0
  1  8  1  6  0  0  0
  1  6  1  0  0  0  0
  2  3  1  0  0  0  0
  4  7  1  0  0  0  0
  5  2  1  0  0  0  0
  6  3  1  0  0  0  0
  6 17  1  1  0  0  0
  7  5  1  0  0  0  0
  7  1  1  0  0  0  0
  9 10  1  1  0  0  0
  9  1  1  0  0  0  0
  9 11  1  0  0  0  0
 11 12  1  0  0  0  0
 12 13  1  0  0  0  0
 13 14  1  1  0  0  0
 15 16  1  0  0  0  0
 15 13  1  0  0  0  0
 17 18  1  0  0  0  0
 18 19  2  0  0  0  0
 18 20  1  0  0  0  0
 20 21  1  6  0  0  0
 20 22  1  0  0  0  0
 22 23  1  6  0  0  0
 22 24  1  0  0  0  0
 25 24  1  6  0  0  0
 25 27  1  0  0  0  0
 27 26  3  0  0  0  0
 28 25  1  0  0  0  0
 28 30  1  0  0  0  0
 29 30  1  0  0  0  0
M  END
>  <MODEL>
2

>  <REMARK>
 VINA RESULT:      -6.3      2.812      7.451
  Name = 
  14 active torsions:
  status: ('A' for Active; 'I' for Inactive)
    1  A    between atoms: C_1  and  O_2
    2  A    between atoms: C_1  and  C_4
    3  A    between atoms: O_2  and  C_22
    4  A    between atoms: C_3  and  C_11
    5  A    between atoms: C_4  and  C_27
    6  A    between atoms: C_6  and  C_8
    7  A    between atoms: C_6  and  C_21
    8  A    between atoms: C_7  and  C_10
    9  A    between atoms: C_7  and  C_15
   10  A    between atoms: C_8  and  C_12
   11  A    between atoms: C_8  and  C_13
   12  A    between atoms: C_10  and  N_25
   13  A    between atoms: C_11  and  N_25
   14  A    between atoms: C_13  and  C_27
                            x       y       z     vdW  Elec       q    Type
                         _______ _______ _______ _____ _____    ______ ____

>  <TORSDO>
F 14

$$$$
=
 OpenBabel10272413463D

 30 30  0  0  1  0  0  0  0  0999 V2000
  182.2430  177.8030  139.6310 C   0  0  2  0  0  0  0  0  0  0  0  0
  180.2660  178.0580  141.8340 C   0  0  0  0  0  2  0  0  0  0  0  0
  181.3220  179.1430  141.6400 C   0  0  0  0  0  2  0  0  0  0  0  0
  180.3860  176.9270  138.2840 C   0  0  0  0  0  1  0  0  0  0  0  0
  180.1150  177.1650  140.5990 C   0  0  0  0  0  2  0  0  0  0  0  0
  182.5670  178.5860  140.9480 C   0  0  1  0  0  3  0  0  0  0  0  0
  180.7660  177.7520  139.4260 N   0  0  0  0  0  0  0  0  0  0  0  0
  182.8420  176.3840  139.6950 C   0  0  0  0  0  1  0  0  0  0  0  0
  182.9360  178.5970  138.4940 C   0  0  1  0  0  3  0  0  0  0  0  0
  183.3450  180.0160  138.8620 C   0  0  0  0  0  1  0  0  0  0  0  0
  184.0870  177.8790  137.9640 N   0  0  0  0  0  2  0  0  0  0  0  0
  185.2690  178.6400  138.3420 C   0  0  0  0  0  2  0  0  0  0  0  0
  186.5150  178.0170  137.7300 C   0  0  2  0  0  3  0  0  0  0  0  0
  186.1750  176.6800  137.0940 C   0  0  0  0  0  1  0  0  0  0  0  0
  187.6540  177.8820  138.7380 C   0  0  0  0  0  2  0  0  0  0  0  0
  188.9340  178.5530  138.2650 C   0  0  0  0  0  1  0  0  0  0  0  0
  183.3670  177.8620  141.8800 O   0  0  0  0  0  0  0  0  0  0  0  0
  184.3460  178.4750  142.6660 C   0  0  0  0  0  0  0  0  0  0  0  0
  185.3480  179.1020  142.0600 C   0  0  0  0  0  2  0  0  0  0  0  0
  184.2890  178.4080  144.1710 C   0  0  2  0  0  3  0  0  0  0  0  0
  183.3790  179.3520  144.6540 O   0  0  0  0  0  1  0  0  0  0  0  0
  185.6690  178.6110  144.8020 C   0  0  1  0  0  3  0  0  0  0  0  0
  185.5280  179.1170  146.2280 C   0  0  0  0  0  1  0  0  0  0  0  0
  186.4450  177.2940  144.8270 C   0  0  0  0  0  2  0  0  0  0  0  0
  187.8770  177.4260  144.3030 C   0  0  1  0  0  3  0  0  0  0  0  0
  189.6360  177.3130  146.3180 C   0  0  0  0  0  3  0  0  0  0  0  0
  188.8450  177.3660  145.4080 C   0  0  0  0  0  0  0  0  0  0  0  0
  188.1860  176.3740  143.2420 C   0  0  0  0  0  2  0  0  0  0  0  0
  190.3360  176.6170  141.9890 C   0  0  0  0  0  1  0  0  0  0  0  0
  188.8670  176.9870  142.0280 C   0  0  0  0  0  2  0  0  0  0  0  0
  1  8  1  1  0  0  0
  1  6  1  0  0  0  0
  3  2  1  0  0  0  0
  4  7  1  0  0  0  0
  5  2  1  0  0  0  0
  6  3  1  0  0  0  0
  6 17  1  1  0  0  0
  7  1  1  0  0  0  0
  7  5  1  0  0  0  0
  9 10  1  1  0  0  0
  9  1  1  0  0  0  0
 11 12  1  0  0  0  0
 11  9  1  0  0  0  0
 13 14  1  1  0  0  0
 13 12  1  0  0  0  0
 13 15  1  0  0  0  0
 16 15  1  0  0  0  0
 17 18  1  0  0  0  0
 18 20  1  0  0  0  0
 19 18  2  0  0  0  0
 20 21  1  1  0  0  0
 20 22  1  0  0  0  0
 22 24  1  0  0  0  0
 22 23  1  1  0  0  0
 25 28  1  6  0  0  0
 25 24  1  0  0  0  0
 25 27  1  0  0  0  0
 27 26  3  0  0  0  0
 29 30  1  0  0  0  0
 30 28  1  0  0  0  0
M  END
>  <MODEL>
3

>  <REMARK>
 VINA RESULT:      -6.2      2.761      7.624
  Name = 
  14 active torsions:
  status: ('A' for Active; 'I' for Inactive)
    1  A    between atoms: C_1  and  O_2
    2  A    between atoms: C_1  and  C_4
    3  A    between atoms: O_2  and  C_22
    4  A    between atoms: C_3  and  C_11
    5  A    between atoms: C_4  and  C_27
    6  A    between atoms: C_6  and  C_8
    7  A    between atoms: C_6  and  C_21
    8  A    between atoms: C_7  and  C_10
    9  A    between atoms: C_7  and  C_15
   10  A    between atoms: C_8  and  C_12
   11  A    between atoms: C_8  and  C_13
   12  A    between atoms: C_10  and  N_25
   13  A    between atoms: C_11  and  N_25
   14  A    between atoms: C_13  and  C_27
                            x       y       z     vdW  Elec       q    Type
                         _______ _______ _______ _____ _____    ______ ____

>  <TORSDO>
F 14

$$$$
=
 OpenBabel10272413463D

 30 30  0  0  1  0  0  0  0  0999 V2000
  188.4360  177.8540  137.3260 C   0  0  2  0  0  0  0  0  0  0  0  0
  190.6940  176.0290  137.9540 C   0  0  0  0  0  2  0  0  0  0  0  0
  189.4030  175.9360  138.7630 C   0  0  0  0  0  2  0  0  0  0  0  0
  189.0370  177.5220  134.9680 C   0  0  0  0  0  1  0  0  0  0  0  0
  190.5060  176.7960  136.6420 C   0  0  0  0  0  2  0  0  0  0  0  0
  188.6520  177.2680  138.7620 C   0  0  1  0  0  3  0  0  0  0  0  0
  189.0890  176.9690  136.3180 N   0  0  0  0  0  0  0  0  0  0  0  0
  188.9950  179.2890  137.2480 C   0  0  0  0  0  1  0  0  0  0  0  0
  186.9000  177.8960  137.1210 C   0  0  1  0  0  3  0  0  0  0  0  0
  186.2130  176.5380  137.1600 C   0  0  0  0  0  1  0  0  0  0  0  0
  186.2570  178.7960  138.0680 N   0  0  0  0  0  2  0  0  0  0  0  0
  184.9600  178.2170  138.3850 C   0  0  0  0  0  2  0  0  0  0  0  0
  184.2500  179.0590  139.4350 C   0  0  2  0  0  3  0  0  0  0  0  0
  183.9350  178.2170  140.6590 C   0  0  0  0  0  1  0  0  0  0  0  0
  182.9960  179.7380  138.8870 C   0  0  0  0  0  2  0  0  0  0  0  0
  181.7700  179.4840  139.7500 C   0  0  0  0  0  1  0  0  0  0  0  0
  189.2570  178.1750  139.6820 O   0  0  0  0  0  0  0  0  0  0  0  0
  188.9110  178.2160  141.0340 C   0  0  0  0  0  0  0  0  0  0  0  0
  187.6380  178.4120  141.3590 C   0  0  0  0  0  2  0  0  0  0  0  0
  189.9560  178.0700  142.1100 C   0  0  2  0  0  3  0  0  0  0  0  0
  191.1450  177.5880  141.5540 O   0  0  0  0  0  1  0  0  0  0  0  0
  189.4810  177.1610  143.2460 C   0  0  1  0  0  3  0  0  0  0  0  0
  189.9160  175.7270  142.9930 C   0  0  0  0  0  1  0  0  0  0  0  0
  190.0700  177.6200  144.5800 C   0  0  0  0  0  2  0  0  0  0  0  0
  189.0240  177.7500  145.6900 C   0  0  1  0  0  3  0  0  0  0  0  0
  186.5520  177.4070  144.7220 C   0  0  0  0  0  3  0  0  0  0  0  0
  187.6670  177.5620  145.1550 C   0  0  0  0  0  0  0  0  0  0  0  0
  189.3020  176.7860  146.8390 C   0  0  0  0  0  2  0  0  0  0  0  0
  188.5470  178.4430  148.5540 C   0  0  0  0  0  1  0  0  0  0  0  0
  188.3720  177.0360  148.0170 C   0  0  0  0  0  2  0  0  0  0  0  0
  1  8  1  6  0  0  0
  1  6  1  0  0  0  0
  2  3  1  0  0  0  0
  4  7  1  0  0  0  0
  5  2  1  0  0  0  0
  6  3  1  0  0  0  0
  6 17  1  1  0  0  0
  7  5  1  0  0  0  0
  7  1  1  0  0  0  0
  9 10  1  1  0  0  0
  9  1  1  0  0  0  0
  9 11  1  0  0  0  0
 11 12  1  0  0  0  0
 12 13  1  0  0  0  0
 13 14  1  1  0  0  0
 15 13  1  0  0  0  0
 15 16  1  0  0  0  0
 17 18  1  0  0  0  0
 18 19  2  0  0  0  0
 18 20  1  0  0  0  0
 20 21  1  6  0  0  0
 20 22  1  0  0  0  0
 22 23  1  6  0  0  0
 22 24  1  0  0  0  0
 25 24  1  6  0  0  0
 25 28  1  0  0  0  0
 26 27  3  0  0  0  0
 27 25  1  0  0  0  0
 28 30  1  0  0  0  0
 30 29  1  0  0  0  0
M  END
>  <MODEL>
4

>  <REMARK>
 VINA RESULT:      -6.2      2.790      7.555
  Name = 
  14 active torsions:
  status: ('A' for Active; 'I' for Inactive)
    1  A    between atoms: C_1  and  O_2
    2  A    between atoms: C_1  and  C_4
    3  A    between atoms: O_2  and  C_22
    4  A    between atoms: C_3  and  C_11
    5  A    between atoms: C_4  and  C_27
    6  A    between atoms: C_6  and  C_8
    7  A    between atoms: C_6  and  C_21
    8  A    between atoms: C_7  and  C_10
    9  A    between atoms: C_7  and  C_15
   10  A    between atoms: C_8  and  C_12
   11  A    between atoms: C_8  and  C_13
   12  A    between atoms: C_10  and  N_25
   13  A    between atoms: C_11  and  N_25
   14  A    between atoms: C_13  and  C_27
                            x       y       z     vdW  Elec       q    Type
                         _______ _______ _______ _____ _____    ______ ____

>  <TORSDO>
F 14

$$$$
=
 OpenBabel10272413463D

 30 30  0  0  1  0  0  0  0  0999 V2000
  182.3480  177.7950  139.6190 C   0  0  2  0  0  0  0  0  0  0  0  0
  180.2490  178.1230  141.6960 C   0  0  0  0  0  2  0  0  0  0  0  0
  181.3310  179.1880  141.5440 C   0  0  0  0  0  2  0  0  0  0  0  0
  180.5590  176.9180  138.1830 C   0  0  0  0  0  1  0  0  0  0  0  0
  180.1570  177.2070  140.4730 C   0  0  0  0  0  2  0  0  0  0  0  0
  182.6050  178.6000  140.9380 C   0  0  1  0  0  3  0  0  0  0  0  0
  180.8840  177.7610  139.3290 N   0  0  0  0  0  0  0  0  0  0  0  0
  182.9200  176.3690  139.7470 C   0  0  0  0  0  1  0  0  0  0  0  0
  183.1190  178.5550  138.5100 C   0  0  1  0  0  3  0  0  0  0  0  0
  183.6300  179.9310  138.9150 C   0  0  0  0  0  1  0  0  0  0  0  0
  184.2190  177.7610  137.9830 N   0  0  0  0  0  2  0  0  0  0  0  0
  185.4490  178.4290  138.3810 C   0  0  0  0  0  2  0  0  0  0  0  0
  186.6480  177.7660  137.7170 C   0  0  2  0  0  3  0  0  0  0  0  0
  187.8610  177.8410  138.6270 C   0  0  0  0  0  1  0  0  0  0  0  0
  186.9480  178.3520  136.3380 C   0  0  0  0  0  2  0  0  0  0  0  0
  186.5960  177.3960  135.2090 C   0  0  0  0  0  1  0  0  0  0  0  0
  183.3380  177.8830  141.9300 O   0  0  0  0  0  0  0  0  0  0  0  0
  183.9910  178.5200  142.9870 C   0  0  0  0  0  0  0  0  0  0  0  0
  183.3000  178.8000  144.0860 C   0  0  0  0  0  2  0  0  0  0  0  0
  185.4430  178.9090  142.8820 C   0  0  2  0  0  3  0  0  0  0  0  0
  185.6350  179.7330  141.7690 O   0  0  0  0  0  1  0  0  0  0  0  0
  186.3580  177.6840  142.8150 C   0  0  1  0  0  3  0  0  0  0  0  0
  187.7070  178.0640  142.2260 C   0  0  0  0  0  1  0  0  0  0  0  0
  186.5830  177.1060  144.2120 C   0  0  0  0  0  2  0  0  0  0  0  0
  187.1660  178.1210  145.1990 C   0  0  1  0  0  3  0  0  0  0  0  0
  185.4030  178.6780  147.1350 C   0  0  0  0  0  3  0  0  0  0  0  0
  186.1990  178.4300  146.2620 C   0  0  0  0  0  0  0  0  0  0  0  0
  188.4910  177.6390  145.7830 C   0  0  0  0  0  2  0  0  0  0  0  0
  189.1650  178.0100  148.1620 C   0  0  0  0  0  1  0  0  0  0  0  0
  188.3310  177.1660  147.2190 C   0  0  0  0  0  2  0  0  0  0  0  0
  1  8  1  1  0  0  0
  1  6  1  0  0  0  0
  3  2  1  0  0  0  0
  4  7  1  0  0  0  0
  5  2  1  0  0  0  0
  6  3  1  0  0  0  0
  6 17  1  1  0  0  0
  7  1  1  0  0  0  0
  7  5  1  0  0  0  0
  9 10  1  1  0  0  0
  9  1  1  0  0  0  0
 11 12  1  0  0  0  0
 11  9  1  0  0  0  0
 13 12  1  0  0  0  0
 13 14  1  1  0  0  0
 15 13  1  0  0  0  0
 16 15  1  0  0  0  0
 17 18  1  0  0  0  0
 18 19  2  0  0  0  0
 20 21  1  6  0  0  0
 20 18  1  0  0  0  0
 22 23  1  1  0  0  0
 22 20  1  0  0  0  0
 22 24  1  0  0  0  0
 25 24  1  6  0  0  0
 25 28  1  0  0  0  0
 25 27  1  0  0  0  0
 27 26  3  0  0  0  0
 28 30  1  0  0  0  0
 30 29  1  0  0  0  0
M  END
>  <MODEL>
5

>  <REMARK>
 VINA RESULT:      -5.7      2.992      8.037
  Name = 
  14 active torsions:
  status: ('A' for Active; 'I' for Inactive)
    1  A    between atoms: C_1  and  O_2
    2  A    between atoms: C_1  and  C_4
    3  A    between atoms: O_2  and  C_22
    4  A    between atoms: C_3  and  C_11
    5  A    between atoms: C_4  and  C_27
    6  A    between atoms: C_6  and  C_8
    7  A    between atoms: C_6  and  C_21
    8  A    between atoms: C_7  and  C_10
    9  A    between atoms: C_7  and  C_15
   10  A    between atoms: C_8  and  C_12
   11  A    between atoms: C_8  and  C_13
   12  A    between atoms: C_10  and  N_25
   13  A    between atoms: C_11  and  N_25
   14  A    between atoms: C_13  and  C_27
                            x       y       z     vdW  Elec       q    Type
                         _______ _______ _______ _____ _____    ______ ____

>  <TORSDO>
F 14

$$$$
=
 OpenBabel10272413463D

 30 30  0  0  1  0  0  0  0  0999 V2000
  188.2040  177.9990  137.6500 C   0  0  2  0  0  0  0  0  0  0  0  0
  190.2930  175.9240  137.2530 C   0  0  0  0  0  2  0  0  0  0  0  0
  189.4230  175.8870  138.5060 C   0  0  0  0  0  2  0  0  0  0  0  0
  187.7840  177.8050  135.2380 C   0  0  0  0  0  1  0  0  0  0  0  0
  189.6960  176.8100  136.1560 C   0  0  0  0  0  2  0  0  0  0  0  0
  188.8970  177.2790  138.8560 C   0  0  1  0  0  3  0  0  0  0  0  0
  188.2970  177.1420  136.4320 N   0  0  0  0  0  0  0  0  0  0  0  0
  188.8540  179.3760  137.4090 C   0  0  0  0  0  1  0  0  0  0  0  0
  186.7280  178.2010  138.0790 C   0  0  1  0  0  3  0  0  0  0  0  0
  185.7970  177.0480  137.7280 C   0  0  0  0  0  1  0  0  0  0  0  0
  186.6190  178.5020  139.4990 N   0  0  0  0  0  2  0  0  0  0  0  0
  185.2330  178.8700  139.7470 C   0  0  0  0  0  2  0  0  0  0  0  0
  184.8070  178.4140  141.1350 C   0  0  2  0  0  3  0  0  0  0  0  0
  183.2930  178.3170  141.2140 C   0  0  0  0  0  1  0  0  0  0  0  0
  185.3680  179.3080  142.2390 C   0  0  0  0  0  2  0  0  0  0  0  0
  184.4570  179.3720  143.4560 C   0  0  0  0  0  1  0  0  0  0  0  0
  189.9180  178.0470  139.4910 O   0  0  0  0  0  0  0  0  0  0  0  0
  190.9070  177.4680  140.2890 C   0  0  0  0  0  0  0  0  0  0  0  0
  192.0980  177.2290  139.7530 C   0  0  0  0  0  2  0  0  0  0  0  0
  190.6280  177.0940  141.7220 C   0  0  2  0  0  3  0  0  0  0  0  0
  190.2980  175.7380  141.8030 O   0  0  0  0  0  1  0  0  0  0  0  0
  189.5230  177.9600  142.3320 C   0  0  1  0  0  3  0  0  0  0  0  0
  188.2500  177.1470  142.5040 C   0  0  0  0  0  1  0  0  0  0  0  0
  189.9510  178.4880  143.7010 C   0  0  0  0  0  2  0  0  0  0  0  0
  189.6020  177.5400  144.8510 C   0  0  1  0  0  3  0  0  0  0  0  0
  191.8110  176.4230  145.8730 C   0  0  0  0  0  3  0  0  0  0  0  0
  190.8160  176.9260  145.4090 C   0  0  0  0  0  0  0  0  0  0  0  0
  188.7940  178.2450  145.9360 C   0  0  0  0  0  2  0  0  0  0  0  0
  186.3990  177.5490  145.7500 C   0  0  0  0  0  1  0  0  0  0  0  0
  187.7030  177.3450  146.4960 C   0  0  0  0  0  2  0  0  0  0  0  0
  1  8  1  6  0  0  0
  1  9  1  0  0  0  0
  1  6  1  0  0  0  0
  2  3  1  0  0  0  0
  3  6  1  0  0  0  0
  4  7  1  0  0  0  0
  5  7  1  0  0  0  0
  5  2  1  0  0  0  0
  6 17  1  6  0  0  0
  7  1  1  0  0  0  0
  9 10  1  1  0  0  0
  9 11  1  0  0  0  0
 11 12  1  0  0  0  0
 12 13  1  0  0  0  0
 13 14  1  6  0  0  0
 13 15  1  0  0  0  0
 15 16  1  0  0  0  0
 17 18  1  0  0  0  0
 18 20  1  0  0  0  0
 19 18  2  0  0  0  0
 20 21  1  6  0  0  0
 20 22  1  0  0  0  0
 22 23  1  1  0  0  0
 22 24  1  0  0  0  0
 25 24  1  6  0  0  0
 25 27  1  0  0  0  0
 25 28  1  0  0  0  0
 27 26  3  0  0  0  0
 28 30  1  0  0  0  0
 29 30  1  0  0  0  0
M  END
>  <MODEL>
6

>  <REMARK>
 VINA RESULT:      -5.7      2.472      7.171
  Name = 
  14 active torsions:
  status: ('A' for Active; 'I' for Inactive)
    1  A    between atoms: C_1  and  O_2
    2  A    between atoms: C_1  and  C_4
    3  A    between atoms: O_2  and  C_22
    4  A    between atoms: C_3  and  C_11
    5  A    between atoms: C_4  and  C_27
    6  A    between atoms: C_6  and  C_8
    7  A    between atoms: C_6  and  C_21
    8  A    between atoms: C_7  and  C_10
    9  A    between atoms: C_7  and  C_15
   10  A    between atoms: C_8  and  C_12
   11  A    between atoms: C_8  and  C_13
   12  A    between atoms: C_10  and  N_25
   13  A    between atoms: C_11  and  N_25
   14  A    between atoms: C_13  and  C_27
                            x       y       z     vdW  Elec       q    Type
                         _______ _______ _______ _____ _____    ______ ____

>  <TORSDO>
F 14

$$$$
=
 OpenBabel10272413463D

 30 30  0  0  1  0  0  0  0  0999 V2000
  190.1840  177.5050  143.5580 C   0  0  2  0  0  0  0  0  0  0  0  0
  187.5870  176.9700  144.8990 C   0  0  0  0  0  2  0  0  0  0  0  0
  187.8570  176.3800  143.5180 C   0  0  0  0  0  2  0  0  0  0  0  0
  191.1970  177.2570  145.7820 C   0  0  0  0  0  1  0  0  0  0  0  0
  188.8680  177.4390  145.5930 C   0  0  0  0  0  2  0  0  0  0  0  0
  188.8750  177.2210  142.7460 C   0  0  1  0  0  3  0  0  0  0  0  0
  190.0640  176.9200  144.9260 N   0  0  0  0  0  0  0  0  0  0  0  0
  190.4470  179.0220  143.6270 C   0  0  0  0  0  1  0  0  0  0  0  0
  191.3250  176.8260  142.7590 C   0  0  1  0  0  3  0  0  0  0  0  0
  191.8000  175.4950  143.3270 C   0  0  0  0  0  1  0  0  0  0  0  0
  190.9710  176.6600  141.3560 N   0  0  0  0  0  2  0  0  0  0  0  0
  192.0510  177.2450  140.5770 C   0  0  0  0  0  2  0  0  0  0  0  0
  191.7940  177.0510  139.0900 C   0  0  2  0  0  3  0  0  0  0  0  0
  190.6400  176.0860  138.8780 C   0  0  0  0  0  1  0  0  0  0  0  0
  193.0430  176.6000  138.3360 C   0  0  0  0  0  2  0  0  0  0  0  0
  192.9460  175.1610  137.8540 C   0  0  0  0  0  1  0  0  0  0  0  0
  188.2490  178.3860  142.2140 O   0  0  0  0  0  0  0  0  0  0  0  0
  187.8840  178.4960  140.8700 C   0  0  0  0  0  0  0  0  0  0  0  0
  188.7900  178.9210  139.9970 C   0  0  0  0  0  2  0  0  0  0  0  0
  186.4850  178.1680  140.4150 C   0  0  2  0  0  3  0  0  0  0  0  0
  186.3730  178.3760  139.0370 O   0  0  0  0  0  1  0  0  0  0  0  0
  185.4340  178.9820  141.1740 C   0  0  1  0  0  3  0  0  0  0  0  0
  184.3370  179.4410  140.2280 C   0  0  0  0  0  1  0  0  0  0  0  0
  184.8010  178.1400  142.2810 C   0  0  0  0  0  2  0  0  0  0  0  0
  184.1170  178.9780  143.3630 C   0  0  1  0  0  3  0  0  0  0  0  0
  181.4670  179.0450  142.9860 C   0  0  0  0  0  3  0  0  0  0  0  0
  182.6620  179.0170  143.1530 C   0  0  0  0  0  0  0  0  0  0  0  0
  184.4580  178.4760  144.7630 C   0  0  0  0  0  2  0  0  0  0  0  0
  185.6420  178.9620  146.9110 C   0  0  0  0  0  1  0  0  0  0  0  0
  185.3140  179.4770  145.5230 C   0  0  0  0  0  2  0  0  0  0  0  0
  1  8  1  1  0  0  0
  1  7  1  0  0  0  0
  2  5  1  0  0  0  0
  3  2  1  0  0  0  0
  6 17  1  1  0  0  0
  6  3  1  0  0  0  0
  6  1  1  0  0  0  0
  7  5  1  0  0  0  0
  7  4  1  0  0  0  0
  9 10  1  1  0  0  0
  9  1  1  0  0  0  0
 11  9  1  0  0  0  0
 12 11  1  0  0  0  0
 13 14  1  1  0  0  0
 13 12  1  0  0  0  0
 15 13  1  0  0  0  0
 16 15  1  0  0  0  0
 18 17  1  0  0  0  0
 19 18  2  0  0  0  0
 20 21  1  6  0  0  0
 20 18  1  0  0  0  0
 20 22  1  0  0  0  0
 22 23  1  6  0  0  0
 22 24  1  0  0  0  0
 25 24  1  6  0  0  0
 25 28  1  0  0  0  0
 26 27  3  0  0  0  0
 27 25  1  0  0  0  0
 28 30  1  0  0  0  0
 30 29  1  0  0  0  0
M  END
>  <MODEL>
7

>  <REMARK>
 VINA RESULT:      -5.5      1.812      5.394
  Name = 
  14 active torsions:
  status: ('A' for Active; 'I' for Inactive)
    1  A    between atoms: C_1  and  O_2
    2  A    between atoms: C_1  and  C_4
    3  A    between atoms: O_2  and  C_22
    4  A    between atoms: C_3  and  C_11
    5  A    between atoms: C_4  and  C_27
    6  A    between atoms: C_6  and  C_8
    7  A    between atoms: C_6  and  C_21
    8  A    between atoms: C_7  and  C_10
    9  A    between atoms: C_7  and  C_15
   10  A    between atoms: C_8  and  C_12
   11  A    between atoms: C_8  and  C_13
   12  A    between atoms: C_10  and  N_25
   13  A    between atoms: C_11  and  N_25
   14  A    between atoms: C_13  and  C_27
                            x       y       z     vdW  Elec       q    Type
                         _______ _______ _______ _____ _____    ______ ____

>  <TORSDO>
F 14

$$$$
=
 OpenBabel10272413463D

 30 30  0  0  1  0  0  0  0  0999 V2000
  189.4040  177.0410  144.0840 C   0  0  2  0  0  0  0  0  0  0  0  0
  191.7460  178.8650  143.9710 C   0  0  0  0  0  2  0  0  0  0  0  0
  190.4050  179.3250  143.4060 C   0  0  0  0  0  2  0  0  0  0  0  0
  190.2220  176.3930  146.3070 C   0  0  0  0  0  1  0  0  0  0  0  0
  191.6040  177.6540  144.8960 C   0  0  0  0  0  2  0  0  0  0  0  0
  189.5490  178.1340  142.9720 C   0  0  1  0  0  3  0  0  0  0  0  0
  190.2080  177.4290  145.2790 N   0  0  0  0  0  0  0  0  0  0  0  0
  189.8480  175.6680  143.5410 C   0  0  0  0  0  1  0  0  0  0  0  0
  187.8920  176.9890  144.4220 C   0  0  1  0  0  3  0  0  0  0  0  0
  187.4720  177.8460  145.6090 C   0  0  0  0  0  1  0  0  0  0  0  0
  187.0730  177.3230  143.2650 N   0  0  0  0  0  2  0  0  0  0  0  0
  186.1250  178.3380  143.6990 C   0  0  0  0  0  2  0  0  0  0  0  0
  184.8190  178.2020  142.9300 C   0  0  2  0  0  3  0  0  0  0  0  0
  184.9470  178.8440  141.5600 C   0  0  0  0  0  1  0  0  0  0  0  0
  183.6270  178.7660  143.7010 C   0  0  0  0  0  2  0  0  0  0  0  0
  183.8680  178.8010  145.2030 C   0  0  0  0  0  1  0  0  0  0  0  0
  189.9990  177.6360  141.7140 O   0  0  0  0  0  0  0  0  0  0  0  0
  189.2700  177.8050  140.5350 C   0  0  0  0  0  0  0  0  0  0  0  0
  188.3560  178.7670  140.4840 C   0  0  0  0  0  2  0  0  0  0  0  0
  189.4900  176.9010  139.3490 C   0  0  2  0  0  3  0  0  0  0  0  0
  190.4360  175.9220  139.6660 O   0  0  0  0  0  1  0  0  0  0  0  0
  189.9170  177.6860  138.1060 C   0  0  1  0  0  3  0  0  0  0  0  0
  190.9770  176.9180  137.3350 C   0  0  0  0  0  1  0  0  0  0  0  0
  188.7200  177.9210  137.1840 C   0  0  0  0  0  2  0  0  0  0  0  0
  187.6180  176.8710  137.3430 C   0  0  1  0  0  3  0  0  0  0  0  0
  185.2840  178.0310  137.9510 C   0  0  0  0  0  3  0  0  0  0  0  0
  186.3350  177.5070  137.6740 C   0  0  0  0  0  0  0  0  0  0  0  0
  187.4950  175.9940  136.1010 C   0  0  0  0  0  2  0  0  0  0  0  0
  188.8000  174.0500  136.9800 C   0  0  0  0  0  1  0  0  0  0  0  0
  187.4540  174.5170  136.4610 C   0  0  0  0  0  2  0  0  0  0  0  0
  1  8  1  6  0  0  0
  1  9  1  0  0  0  0
  1  7  1  0  0  0  0
  2  5  1  0  0  0  0
  3  2  1  0  0  0  0
  5  7  1  0  0  0  0
  6 17  1  6  0  0  0
  6  3  1  0  0  0  0
  6  1  1  0  0  0  0
  7  4  1  0  0  0  0
  9 10  1  1  0  0  0
 11 12  1  0  0  0  0
 11  9  1  0  0  0  0
 13 14  1  6  0  0  0
 13 12  1  0  0  0  0
 13 15  1  0  0  0  0
 15 16  1  0  0  0  0
 18 17  1  0  0  0  0
 19 18  2  0  0  0  0
 20 21  1  1  0  0  0
 20 18  1  0  0  0  0
 22 23  1  6  0  0  0
 22 20  1  0  0  0  0
 24 25  1  0  0  0  0
 24 22  1  0  0  0  0
 25 28  1  6  0  0  0
 25 27  1  0  0  0  0
 27 26  3  0  0  0  0
 28 30  1  0  0  0  0
 30 29  1  0  0  0  0
M  END
>  <MODEL>
8

>  <REMARK>
 VINA RESULT:      -5.4      2.176      5.762
  Name = 
  14 active torsions:
  status: ('A' for Active; 'I' for Inactive)
    1  A    between atoms: C_1  and  O_2
    2  A    between atoms: C_1  and  C_4
    3  A    between atoms: O_2  and  C_22
    4  A    between atoms: C_3  and  C_11
    5  A    between atoms: C_4  and  C_27
    6  A    between atoms: C_6  and  C_8
    7  A    between atoms: C_6  and  C_21
    8  A    between atoms: C_7  and  C_10
    9  A    between atoms: C_7  and  C_15
   10  A    between atoms: C_8  and  C_12
   11  A    between atoms: C_8  and  C_13
   12  A    between atoms: C_10  and  N_25
   13  A    between atoms: C_11  and  N_25
   14  A    between atoms: C_13  and  C_27
                            x       y       z     vdW  Elec       q    Type
                         _______ _______ _______ _____ _____    ______ ____

>  <TORSDO>
F 14

$$$$
=
 OpenBabel10272413463D

 30 30  0  0  1  0  0  0  0  0999 V2000
  182.1910  177.9060  139.9770 C   0  0  2  0  0  0  0  0  0  0  0  0
  180.2080  178.3530  142.1440 C   0  0  0  0  0  2  0  0  0  0  0  0
  181.3260  179.3690  141.9240 C   0  0  0  0  0  2  0  0  0  0  0  0
  180.3020  177.0870  138.6390 C   0  0  0  0  0  1  0  0  0  0  0  0
  180.0200  177.4250  140.9400 C   0  0  0  0  0  2  0  0  0  0  0  0
  182.5450  178.7170  141.2690 C   0  0  1  0  0  3  0  0  0  0  0  0
  180.7160  177.9300  139.7550 N   0  0  0  0  0  0  0  0  0  0  0  0
  182.7080  176.4580  140.1010 C   0  0  0  0  0  1  0  0  0  0  0  0
  182.9410  178.6160  138.8210 C   0  0  1  0  0  3  0  0  0  0  0  0
  183.6170  179.9250  139.2060 C   0  0  0  0  0  1  0  0  0  0  0  0
  183.9120  177.7330  138.1900 N   0  0  0  0  0  2  0  0  0  0  0  0
  183.5210  177.6070  136.7940 C   0  0  0  0  0  2  0  0  0  0  0  0
  183.9210  176.2400  136.2560 C   0  0  2  0  0  3  0  0  0  0  0  0
  184.7910  176.3960  135.0210 C   0  0  0  0  0  1  0  0  0  0  0  0
  182.7130  175.3470  135.9780 C   0  0  0  0  0  2  0  0  0  0  0  0
  182.5280  174.2700  137.0360 C   0  0  0  0  0  1  0  0  0  0  0  0
  183.2920  177.9840  142.2380 O   0  0  0  0  0  0  0  0  0  0  0  0
  184.2880  178.5710  143.0210 C   0  0  0  0  0  0  0  0  0  0  0  0
  185.2390  179.2750  142.4170 C   0  0  0  0  0  2  0  0  0  0  0  0
  184.3080  178.3920  144.5170 C   0  0  2  0  0  3  0  0  0  0  0  0
  183.3750  179.2480  145.1100 O   0  0  0  0  0  1  0  0  0  0  0  0
  185.7040  178.6240  145.0990 C   0  0  1  0  0  3  0  0  0  0  0  0
  185.6030  179.1210  146.5320 C   0  0  0  0  0  1  0  0  0  0  0  0
  186.5100  177.3250  145.0910 C   0  0  0  0  0  2  0  0  0  0  0  0
  187.9430  177.5060  144.5870 C   0  0  1  0  0  3  0  0  0  0  0  0
  189.6940  177.2680  146.5980 C   0  0  0  0  0  3  0  0  0  0  0  0
  188.9070  177.3730  145.6890 C   0  0  0  0  0  0  0  0  0  0  0  0
  188.2660  176.5380  143.4530 C   0  0  0  0  0  2  0  0  0  0  0  0
  190.1460  177.4870  142.1040 C   0  0  0  0  0  1  0  0  0  0  0  0
  188.6460  177.2750  142.1780 C   0  0  0  0  0  2  0  0  0  0  0  0
  1  8  1  1  0  0  0
  1  6  1  0  0  0  0
  3  2  1  0  0  0  0
  4  7  1  0  0  0  0
  5  2  1  0  0  0  0
  6  3  1  0  0  0  0
  6 17  1  1  0  0  0
  7  1  1  0  0  0  0
  7  5  1  0  0  0  0
  9 10  1  1  0  0  0
  9  1  1  0  0  0  0
 11  9  1  0  0  0  0
 12 11  1  0  0  0  0
 13 14  1  6  0  0  0
 13 12  1  0  0  0  0
 15 13  1  0  0  0  0
 15 16  1  0  0  0  0
 17 18  1  0  0  0  0
 18 20  1  0  0  0  0
 19 18  2  0  0  0  0
 20 22  1  0  0  0  0
 20 21  1  1  0  0  0
 22 23  1  1  0  0  0
 24 22  1  0  0  0  0
 25 28  1  6  0  0  0
 25 24  1  0  0  0  0
 25 27  1  0  0  0  0
 27 26  3  0  0  0  0
 29 30  1  0  0  0  0
 30 28  1  0  0  0  0
M  END
>  <MODEL>
9

>  <REMARK>
 VINA RESULT:      -5.4      2.940      8.375
  Name = 
  14 active torsions:
  status: ('A' for Active; 'I' for Inactive)
    1  A    between atoms: C_1  and  O_2
    2  A    between atoms: C_1  and  C_4
    3  A    between atoms: O_2  and  C_22
    4  A    between atoms: C_3  and  C_11
    5  A    between atoms: C_4  and  C_27
    6  A    between atoms: C_6  and  C_8
    7  A    between atoms: C_6  and  C_21
    8  A    between atoms: C_7  and  C_10
    9  A    between atoms: C_7  and  C_15
   10  A    between atoms: C_8  and  C_12
   11  A    between atoms: C_8  and  C_13
   12  A    between atoms: C_10  and  N_25
   13  A    between atoms: C_11  and  N_25
   14  A    between atoms: C_13  and  C_27
                            x       y       z     vdW  Elec       q    Type
                         _______ _______ _______ _____ _____    ______ ____

>  <TORSDO>
F 14

$$$$
