=
 OpenBabel10272415013D

 37 42  0  0  1  0  0  0  0  0999 V2000
  180.7330  178.5600  137.6540 C   0  0  0  0  0  2  0  0  0  0  0  0
  182.5020  179.5210  139.1060 C   0  0  0  0  0  2  0  0  0  0  0  0
  182.4070  178.4120  140.1430 C   0  0  2  0  0  3  0  0  0  0  0  0
  181.7260  177.5130  138.1020 C   0  0  2  0  0  0  0  0  0  0  0  0
  182.4970  176.0970  139.8930 C   0  0  0  0  0  1  0  0  0  0  0  0
  181.7110  177.2750  139.5500 N   0  0  0  0  0  0  0  0  0  0  0  0
  182.2190  178.8930  137.7610 C   0  0  1  0  0  3  0  0  0  0  0  0
  181.4890  179.0030  141.5980 S   0  0  0  0  0  0  0  0  0  0  0  0
  184.1240  178.3920  142.1760 C   0  0  0  0  0  3  0  0  0  0  0  0
  185.2100  178.2000  143.0320 C   0  0  0  0  0  3  0  0  0  0  0  0
  182.7270  178.9450  144.0720 C   0  0  0  0  0  3  0  0  0  0  0  0
  182.8830  178.7680  142.6940 C   0  0  0  0  0  0  0  0  0  0  0  0
  185.0690  178.3790  144.4190 C   0  0  0  0  0  0  0  0  0  0  0  0
  183.8140  178.7530  144.9290 C   0  0  0  0  0  3  0  0  0  0  0  0
  186.1000  178.4240  146.7060 C   0  0  0  0  0  3  0  0  0  0  0  0
  186.2190  178.1670  145.3290 C   0  0  0  0  0  0  0  0  0  0  0  0
  187.4500  177.7060  144.8310 C   0  0  0  0  0  3  0  0  0  0  0  0
  190.0590  176.9310  145.0510 Cl  0  0  0  0  0  0  0  0  0  0  0  0
  188.4030  177.7700  147.0550 C   0  0  0  0  0  3  0  0  0  0  0  0
  188.5350  177.5090  145.6890 C   0  0  0  0  0  0  0  0  0  0  0  0
  187.1860  178.2270  147.5630 C   0  0  0  0  0  3  0  0  0  0  0  0
  181.9110  176.3790  137.0920 C   0  0  0  0  0  2  0  0  0  0  0  0
  184.3150  176.4500  136.5020 C   0  0  0  0  0  2  0  0  0  0  0  0
  182.9150  176.7680  136.0120 C   0  0  1  0  0  3  0  0  0  0  0  0
  183.7090  175.6060  135.3940 C   0  0  2  0  0  3  0  0  0  0  0  0
  182.2570  173.4560  134.9690 C   0  0  0  0  0  2  0  0  0  0  0  0
  181.3190  172.5950  135.8240 C   0  0  1  0  0  3  0  0  0  0  0  0
  184.4080  171.8080  136.0030 C   0  0  0  0  0  0  0  0  0  0  0  0
  182.0430  171.8580  136.9520 C   0  0  0  0  0  2  0  0  0  0  0  0
  183.2000  171.0120  136.4350 C   0  0  0  0  0  2  0  0  0  0  0  0
  184.5530  173.3100  136.1590 C   0  0  1  0  0  3  0  0  0  0  0  0
  185.4500  171.1290  135.5300 C   0  0  0  0  0  2  0  0  0  0  0  0
  183.3190  174.1690  135.8210 C   0  0  1  0  0  3  0  0  0  0  0  0
  186.5310  173.9080  137.3900 O   0  0  0  0  0  1  0  0  0  0  0  0
  185.1570  173.6860  137.5080 C   0  0  0  0  0  2  0  0  0  0  0  0
  180.1710  173.2830  137.9290 C   0  0  0  0  0  1  0  0  0  0  0  0
  180.2120  173.4480  136.4220 C   0  0  0  0  0  2  0  0  0  0  0  0
  1  4  1  0  0  0  0
  2  3  1  0  0  0  0
  3  8  1  1  0  0  0
  4 22  1  6  0  0  0
  4  6  1  0  0  0  0
  6  5  1  0  0  0  0
  6  3  1  0  0  0  0
  7  1  1  1  0  0  0
  7  4  1  0  0  0  0
  7  2  1  0  0  0  0
  8 12  1  0  0  0  0
  9 12  2  0  0  0  0
  9 10  1  0  0  0  0
 10 13  2  0  0  0  0
 11 14  2  0  0  0  0
 12 11  1  0  0  0  0
 13 14  1  0  0  0  0
 13 16  1  0  0  0  0
 15 21  1  0  0  0  0
 16 15  2  0  0  0  0
 17 16  1  0  0  0  0
 17 20  2  0  0  0  0
 18 20  1  0  0  0  0
 19 21  2  0  0  0  0
 20 19  1  0  0  0  0
 24 23  1  0  0  0  0
 24 22  1  1  0  0  0
 25 33  1  0  0  0  0
 25 24  1  0  0  0  0
 25 23  1  1  0  0  0
 26 27  1  0  0  0  0
 27 37  1  1  0  0  0
 27 29  1  0  0  0  0
 28 31  1  0  0  0  0
 28 30  1  0  0  0  0
 30 29  1  0  0  0  0
 31 35  1  1  0  0  0
 32 28  2  0  0  0  0
 33 26  1  6  0  0  0
 33 31  1  0  0  0  0
 34 35  1  0  0  0  0
 37 36  1  0  0  0  0
M  END
>  <MODEL>
1

>  <REMARK>
 VINA RESULT:      -8.2      0.000      0.000
  Name = 
  8 active torsions:
  status: ('A' for Active; 'I' for Inactive)
    1  A    between atoms: S_4  and  C_16
    2  A    between atoms: S_4  and  C_28
    3  A    between atoms: C_5  and  C_23
    4  A    between atoms: C_6  and  C_31
    5  A    between atoms: C_20  and  C_32
    6  A    between atoms: C_21  and  C_32
    7  A    between atoms: C_27  and  C_33
    8  A    between atoms: C_29  and  C_36
                            x       y       z     vdW  Elec       q    Type
                         _______ _______ _______ _____ _____    ______ ____

>  <TORSDO>
F 8

$$$$
=
 OpenBabel10272415013D

 37 42  0  0  1  0  0  0  0  0999 V2000
  189.7350  177.6320  136.7400 C   0  0  0  0  0  2  0  0  0  0  0  0
  190.5050  175.8100  138.2390 C   0  0  0  0  0  2  0  0  0  0  0  0
  190.1150  176.5440  139.5130 C   0  0  2  0  0  3  0  0  0  0  0  0
  188.7190  177.3160  137.8120 C   0  0  2  0  0  0  0  0  0  0  0  0
  188.0960  177.5320  140.1310 C   0  0  0  0  0  1  0  0  0  0  0  0
  189.1880  177.6180  139.1700 N   0  0  0  0  0  0  0  0  0  0  0  0
  189.4940  176.1920  137.1820 C   0  0  1  0  0  3  0  0  0  0  0  0
  191.5960  177.2400  140.3050 S   0  0  0  0  0  0  0  0  0  0  0  0
  190.9280  178.5500  142.6470 C   0  0  0  0  0  3  0  0  0  0  0  0
  190.3130  178.6540  143.8960 C   0  0  0  0  0  3  0  0  0  0  0  0
  190.0620  176.3040  142.4080 C   0  0  0  0  0  3  0  0  0  0  0  0
  190.8000  177.3770  141.9000 C   0  0  0  0  0  0  0  0  0  0  0  0
  189.5640  177.5850  144.4170 C   0  0  0  0  0  0  0  0  0  0  0  0
  189.4470  176.4080  143.6580 C   0  0  0  0  0  3  0  0  0  0  0  0
  189.6680  177.5170  146.9230 C   0  0  0  0  0  3  0  0  0  0  0  0
  188.9180  177.6910  145.7470 C   0  0  0  0  0  0  0  0  0  0  0  0
  187.5450  177.9690  145.8550 C   0  0  0  0  0  3  0  0  0  0  0  0
  185.2250  178.4150  147.2250 Cl  0  0  0  0  0  0  0  0  0  0  0  0
  187.6930  177.8890  148.2700 C   0  0  0  0  0  3  0  0  0  0  0  0
  186.9360  178.0670  147.1100 C   0  0  0  0  0  0  0  0  0  0  0  0
  189.0580  177.6140  148.1770 C   0  0  0  0  0  3  0  0  0  0  0  0
  187.2750  177.5700  137.3750 C   0  0  0  0  0  2  0  0  0  0  0  0
  186.9190  175.5830  135.9400 C   0  0  0  0  0  2  0  0  0  0  0  0
  187.0460  177.0940  135.9440 C   0  0  1  0  0  3  0  0  0  0  0  0
  185.6870  176.4300  135.6740 C   0  0  2  0  0  3  0  0  0  0  0  0
  183.7140  177.6500  136.9110 C   0  0  0  0  0  2  0  0  0  0  0  0
  183.4290  178.0520  138.3630 C   0  0  1  0  0  3  0  0  0  0  0  0
  182.5600  175.0780  137.5930 C   0  0  0  0  0  0  0  0  0  0  0  0
  183.2410  176.8520  139.2920 C   0  0  0  0  0  2  0  0  0  0  0  0
  182.1590  175.9030  138.7930 C   0  0  0  0  0  2  0  0  0  0  0  0
  183.9450  175.0720  136.9740 C   0  0  1  0  0  3  0  0  0  0  0  0
  181.6550  174.2380  137.0990 C   0  0  0  0  0  2  0  0  0  0  0  0
  184.6500  176.4350  136.8240 C   0  0  1  0  0  3  0  0  0  0  0  0
  184.8140  172.8290  136.9100 O   0  0  0  0  0  1  0  0  0  0  0  0
  184.8520  174.0300  137.6220 C   0  0  0  0  0  2  0  0  0  0  0  0
  184.5850  178.8670  140.4180 C   0  0  0  0  0  1  0  0  0  0  0  0
  184.5510  178.9250  138.9030 C   0  0  0  0  0  2  0  0  0  0  0  0
  1  4  1  0  0  0  0
  2  3  1  0  0  0  0
  3  8  1  6  0  0  0
  4 22  1  6  0  0  0
  4  6  1  0  0  0  0
  6  3  1  0  0  0  0
  6  5  1  0  0  0  0
  7  1  1  6  0  0  0
  7  4  1  0  0  0  0
  7  2  1  0  0  0  0
  8 12  1  0  0  0  0
  9 10  1  0  0  0  0
 10 13  2  0  0  0  0
 11 14  2  0  0  0  0
 12 11  1  0  0  0  0
 12  9  2  0  0  0  0
 13 16  1  0  0  0  0
 14 13  1  0  0  0  0
 15 21  1  0  0  0  0
 16 17  1  0  0  0  0
 16 15  2  0  0  0  0
 17 20  2  0  0  0  0
 20 18  1  0  0  0  0
 20 19  1  0  0  0  0
 21 19  2  0  0  0  0
 23 24  1  0  0  0  0
 24 22  1  1  0  0  0
 25 23  1  1  0  0  0
 25 24  1  0  0  0  0
 25 33  1  0  0  0  0
 26 27  1  0  0  0  0
 27 37  1  1  0  0  0
 27 29  1  0  0  0  0
 28 30  1  0  0  0  0
 30 29  1  0  0  0  0
 31 28  1  0  0  0  0
 31 35  1  1  0  0  0
 32 28  2  0  0  0  0
 33 26  1  6  0  0  0
 33 31  1  0  0  0  0
 34 35  1  0  0  0  0
 37 36  1  0  0  0  0
M  END
>  <MODEL>
2

>  <REMARK>
 VINA RESULT:      -7.5      3.635      5.730
  Name = 
  8 active torsions:
  status: ('A' for Active; 'I' for Inactive)
    1  A    between atoms: S_4  and  C_16
    2  A    between atoms: S_4  and  C_28
    3  A    between atoms: C_5  and  C_23
    4  A    between atoms: C_6  and  C_31
    5  A    between atoms: C_20  and  C_32
    6  A    between atoms: C_21  and  C_32
    7  A    between atoms: C_27  and  C_33
    8  A    between atoms: C_29  and  C_36
                            x       y       z     vdW  Elec       q    Type
                         _______ _______ _______ _____ _____    ______ ____

>  <TORSDO>
F 8

$$$$
=
 OpenBabel10272415013D

 37 42  0  0  1  0  0  0  0  0999 V2000
  186.5730  177.1950  135.5910 C   0  0  0  0  0  2  0  0  0  0  0  0
  187.8900  176.0470  137.3540 C   0  0  0  0  0  2  0  0  0  0  0  0
  187.8090  177.2140  138.3280 C   0  0  2  0  0  3  0  0  0  0  0  0
  185.9300  177.3270  136.9520 C   0  0  2  0  0  0  0  0  0  0  0  0
  185.9650  178.4080  139.1050 C   0  0  0  0  0  1  0  0  0  0  0  0
  186.7320  178.1030  137.9050 N   0  0  0  0  0  0  0  0  0  0  0  0
  186.5940  176.0300  136.5770 C   0  0  1  0  0  3  0  0  0  0  0  0
  189.3850  178.1200  138.3410 S   0  0  0  0  0  0  0  0  0  0  0  0
  188.5990  178.1240  140.9920 C   0  0  0  0  0  3  0  0  0  0  0  0
  188.7950  177.9280  142.3610 C   0  0  0  0  0  3  0  0  0  0  0  0
  190.8690  177.4060  140.5630 C   0  0  0  0  0  3  0  0  0  0  0  0
  189.6340  177.8590  140.0920 C   0  0  0  0  0  0  0  0  0  0  0  0
  190.0310  177.4680  142.8480 C   0  0  0  0  0  0  0  0  0  0  0  0
  191.0660  177.2100  141.9330 C   0  0  0  0  0  3  0  0  0  0  0  0
  191.4510  176.7350  144.7820 C   0  0  0  0  0  3  0  0  0  0  0  0
  190.2430  177.2680  144.3010 C   0  0  0  0  0  0  0  0  0  0  0  0
  189.2380  177.6080  145.2240 C   0  0  0  0  0  3  0  0  0  0  0  0
  188.1770  177.8490  147.7280 Cl  0  0  0  0  0  0  0  0  0  0  0  0
  190.6430  176.8850  147.0580 C   0  0  0  0  0  3  0  0  0  0  0  0
  189.4370  177.4170  146.5940 C   0  0  0  0  0  0  0  0  0  0  0  0
  191.6490  176.5450  146.1530 C   0  0  0  0  0  3  0  0  0  0  0  0
  184.4040  177.4320  136.8950 C   0  0  0  0  0  2  0  0  0  0  0  0
  183.6570  175.4620  138.1960 C   0  0  0  0  0  2  0  0  0  0  0  0
  183.7640  176.0520  136.8030 C   0  0  1  0  0  3  0  0  0  0  0  0
  182.3930  175.9080  137.4820 C   0  0  2  0  0  3  0  0  0  0  0  0
  180.4690  177.6950  137.3720 C   0  0  0  0  0  2  0  0  0  0  0  0
  180.4140  179.2270  137.3170 C   0  0  1  0  0  3  0  0  0  0  0  0
  180.5880  177.9900  140.2550 C   0  0  0  0  0  0  0  0  0  0  0  0
  180.9310  179.8920  138.5940 C   0  0  0  0  0  2  0  0  0  0  0  0
  180.2070  179.3900  139.8370 C   0  0  0  0  0  2  0  0  0  0  0  0
  181.6750  177.1590  139.6000 C   0  0  1  0  0  3  0  0  0  0  0  0
  179.9820  177.4860  141.3270 C   0  0  0  0  0  2  0  0  0  0  0  0
  181.7470  177.1900  138.0610 C   0  0  1  0  0  3  0  0  0  0  0  0
  182.9720  178.4460  141.1660 O   0  0  0  0  0  1  0  0  0  0  0  0
  183.0390  177.4030  140.2380 C   0  0  0  0  0  2  0  0  0  0  0  0
  180.3320  180.5850  135.2260 C   0  0  0  0  0  1  0  0  0  0  0  0
  181.2120  179.7450  136.1320 C   0  0  0  0  0  2  0  0  0  0  0  0
  1  4  1  0  0  0  0
  2  3  1  0  0  0  0
  3  8  1  6  0  0  0
  4 22  1  1  0  0  0
  4  6  1  0  0  0  0
  6  3  1  0  0  0  0
  6  5  1  0  0  0  0
  7  1  1  6  0  0  0
  7  4  1  0  0  0  0
  7  2  1  0  0  0  0
  8 12  1  0  0  0  0
  9 10  1  0  0  0  0
 10 13  2  0  0  0  0
 11 14  2  0  0  0  0
 12 11  1  0  0  0  0
 12  9  2  0  0  0  0
 13 16  1  0  0  0  0
 14 13  1  0  0  0  0
 15 21  1  0  0  0  0
 16 15  2  0  0  0  0
 16 17  1  0  0  0  0
 17 20  2  0  0  0  0
 20 19  1  0  0  0  0
 20 18  1  0  0  0  0
 21 19  2  0  0  0  0
 24 22  1  1  0  0  0
 24 25  1  0  0  0  0
 24 23  1  0  0  0  0
 25 33  1  0  0  0  0
 25 23  1  1  0  0  0
 27 37  1  6  0  0  0
 27 26  1  0  0  0  0
 27 29  1  0  0  0  0
 28 32  2  0  0  0  0
 29 30  1  0  0  0  0
 30 28  1  0  0  0  0
 31 35  1  1  0  0  0
 31 28  1  0  0  0  0
 33 26  1  6  0  0  0
 33 31  1  0  0  0  0
 35 34  1  0  0  0  0
 36 37  1  0  0  0  0
M  END
>  <MODEL>
3

>  <REMARK>
 VINA RESULT:      -7.0      3.498      5.931
  Name = 
  8 active torsions:
  status: ('A' for Active; 'I' for Inactive)
    1  A    between atoms: S_4  and  C_16
    2  A    between atoms: S_4  and  C_28
    3  A    between atoms: C_5  and  C_23
    4  A    between atoms: C_6  and  C_31
    5  A    between atoms: C_20  and  C_32
    6  A    between atoms: C_21  and  C_32
    7  A    between atoms: C_27  and  C_33
    8  A    between atoms: C_29  and  C_36
                            x       y       z     vdW  Elec       q    Type
                         _______ _______ _______ _____ _____    ______ ____

>  <TORSDO>
F 8

$$$$
=
 OpenBabel10272415013D

 37 42  0  0  1  0  0  0  0  0999 V2000
  188.1180  177.0390  135.9090 C   0  0  0  0  0  2  0  0  0  0  0  0
  189.0600  175.5170  137.6290 C   0  0  0  0  0  2  0  0  0  0  0  0
  189.1190  176.5920  138.7050 C   0  0  2  0  0  3  0  0  0  0  0  0
  187.4060  177.1760  137.2340 C   0  0  2  0  0  0  0  0  0  0  0  0
  187.4720  178.0460  139.4810 C   0  0  0  0  0  1  0  0  0  0  0  0
  188.2610  177.7020  138.3050 N   0  0  0  0  0  0  0  0  0  0  0  0
  187.8470  175.8130  136.7770 C   0  0  1  0  0  3  0  0  0  0  0  0
  190.8300  177.1770  138.9010 S   0  0  0  0  0  0  0  0  0  0  0  0
  191.8260  177.5800  141.4490 C   0  0  0  0  0  3  0  0  0  0  0  0
  191.7570  177.5540  142.8440 C   0  0  0  0  0  3  0  0  0  0  0  0
  189.5800  176.6910  141.3210 C   0  0  0  0  0  3  0  0  0  0  0  0
  190.7370  177.1530  140.6870 C   0  0  0  0  0  0  0  0  0  0  0  0
  190.5980  177.0970  143.4950 C   0  0  0  0  0  0  0  0  0  0  0  0
  189.5110  176.6650  142.7170 C   0  0  0  0  0  3  0  0  0  0  0  0
  189.4160  177.5900  145.6520 C   0  0  0  0  0  3  0  0  0  0  0  0
  190.5280  177.0600  144.9740 C   0  0  0  0  0  0  0  0  0  0  0  0
  191.5720  176.4960  145.7270 C   0  0  0  0  0  3  0  0  0  0  0  0
  192.8150  175.7540  148.0420 Cl  0  0  0  0  0  0  0  0  0  0  0  0
  190.3970  176.9960  147.7830 C   0  0  0  0  0  3  0  0  0  0  0  0
  191.5070  176.4640  147.1230 C   0  0  0  0  0  0  0  0  0  0  0  0
  189.3520  177.5580  147.0480 C   0  0  0  0  0  3  0  0  0  0  0  0
  185.9360  177.5750  137.0950 C   0  0  0  0  0  2  0  0  0  0  0  0
  184.9600  175.8650  135.5940 C   0  0  0  0  0  2  0  0  0  0  0  0
  185.4270  177.3040  135.6840 C   0  0  1  0  0  3  0  0  0  0  0  0
  183.9300  176.9800  135.5670 C   0  0  2  0  0  3  0  0  0  0  0  0
  182.2620  178.3870  137.0340 C   0  0  0  0  0  2  0  0  0  0  0  0
  182.2230  178.8390  138.4990 C   0  0  1  0  0  3  0  0  0  0  0  0
  181.0140  175.9350  137.9530 C   0  0  0  0  0  0  0  0  0  0  0  0
  182.0750  177.6770  139.4820 C   0  0  0  0  0  2  0  0  0  0  0  0
  180.8590  176.8140  139.1720 C   0  0  0  0  0  2  0  0  0  0  0  0
  182.2900  175.7990  137.1440 C   0  0  1  0  0  3  0  0  0  0  0  0
  179.9820  175.1650  137.6200 C   0  0  0  0  0  2  0  0  0  0  0  0
  183.0740  177.0940  136.8530 C   0  0  1  0  0  3  0  0  0  0  0  0
  182.9300  173.4820  137.0520 O   0  0  0  0  0  1  0  0  0  0  0  0
  183.1940  174.6970  137.6890 C   0  0  0  0  0  2  0  0  0  0  0  0
  184.0810  179.1140  140.1410 C   0  0  0  0  0  1  0  0  0  0  0  0
  183.4780  179.6240  138.8460 C   0  0  0  0  0  2  0  0  0  0  0  0
  1  4  1  0  0  0  0
  2  3  1  0  0  0  0
  3  8  1  6  0  0  0
  4 22  1  1  0  0  0
  4  6  1  0  0  0  0
  6  3  1  0  0  0  0
  6  5  1  0  0  0  0
  7  1  1  6  0  0  0
  7  4  1  0  0  0  0
  7  2  1  0  0  0  0
  8 12  1  0  0  0  0
  9 10  1  0  0  0  0
 10 13  2  0  0  0  0
 11 14  2  0  0  0  0
 12 11  1  0  0  0  0
 12  9  2  0  0  0  0
 13 16  1  0  0  0  0
 14 13  1  0  0  0  0
 15 21  1  0  0  0  0
 16 15  2  0  0  0  0
 16 17  1  0  0  0  0
 17 20  2  0  0  0  0
 20 19  1  0  0  0  0
 20 18  1  0  0  0  0
 21 19  2  0  0  0  0
 23 24  1  0  0  0  0
 24 22  1  1  0  0  0
 25 23  1  1  0  0  0
 25 24  1  0  0  0  0
 25 33  1  0  0  0  0
 26 27  1  0  0  0  0
 27 37  1  1  0  0  0
 27 29  1  0  0  0  0
 28 30  1  0  0  0  0
 30 29  1  0  0  0  0
 31 35  1  1  0  0  0
 31 28  1  0  0  0  0
 32 28  2  0  0  0  0
 33 26  1  6  0  0  0
 33 31  1  0  0  0  0
 34 35  1  0  0  0  0
 37 36  1  0  0  0  0
M  END
>  <MODEL>
4

>  <REMARK>
 VINA RESULT:      -7.0      3.482      5.787
  Name = 
  8 active torsions:
  status: ('A' for Active; 'I' for Inactive)
    1  A    between atoms: S_4  and  C_16
    2  A    between atoms: S_4  and  C_28
    3  A    between atoms: C_5  and  C_23
    4  A    between atoms: C_6  and  C_31
    5  A    between atoms: C_20  and  C_32
    6  A    between atoms: C_21  and  C_32
    7  A    between atoms: C_27  and  C_33
    8  A    between atoms: C_29  and  C_36
                            x       y       z     vdW  Elec       q    Type
                         _______ _______ _______ _____ _____    ______ ____

>  <TORSDO>
F 8

$$$$
=
 OpenBabel10272415013D

 37 42  0  0  1  0  0  0  0  0999 V2000
  193.4600  176.6360  136.8140 C   0  0  0  0  0  2  0  0  0  0  0  0
  192.3240  176.8200  139.0130 C   0  0  0  0  0  2  0  0  0  0  0  0
  191.0310  176.1840  138.5230 C   0  0  2  0  0  3  0  0  0  0  0  0
  192.7610  175.3530  137.1980 C   0  0  2  0  0  0  0  0  0  0  0  0
  190.6680  174.1750  137.3990 C   0  0  0  0  0  1  0  0  0  0  0  0
  191.3000  175.4820  137.2730 N   0  0  0  0  0  0  0  0  0  0  0  0
  193.4550  176.1560  138.2630 C   0  0  1  0  0  3  0  0  0  0  0  0
  189.7750  177.4690  138.2470 S   0  0  0  0  0  0  0  0  0  0  0  0
  188.2360  178.3210  140.3810 C   0  0  0  0  0  3  0  0  0  0  0  0
  187.8580  178.3500  141.7260 C   0  0  0  0  0  3  0  0  0  0  0  0
  189.9630  176.7090  140.9010 C   0  0  0  0  0  3  0  0  0  0  0  0
  189.2850  177.4980  139.9670 C   0  0  0  0  0  0  0  0  0  0  0  0
  188.5280  177.5580  142.6750 C   0  0  0  0  0  0  0  0  0  0  0  0
  189.5860  176.7390  142.2460 C   0  0  0  0  0  3  0  0  0  0  0  0
  189.0630  177.2810  145.1100 C   0  0  0  0  0  3  0  0  0  0  0  0
  188.1340  177.5960  144.1020 C   0  0  0  0  0  0  0  0  0  0  0  0
  186.8250  177.9460  144.4740 C   0  0  0  0  0  3  0  0  0  0  0  0
  184.8190  178.4200  146.2660 Cl  0  0  0  0  0  0  0  0  0  0  0  0
  187.3850  177.6610  146.8120 C   0  0  0  0  0  3  0  0  0  0  0  0
  186.4530  177.9790  145.8220 C   0  0  0  0  0  0  0  0  0  0  0  0
  188.6890  177.3130  146.4570 C   0  0  0  0  0  3  0  0  0  0  0  0
  193.4410  174.1010  136.6400 C   0  0  0  0  0  2  0  0  0  0  0  0
  194.1590  175.1710  134.5260 C   0  0  0  0  0  2  0  0  0  0  0  0
  193.3290  174.0500  135.1200 C   0  0  1  0  0  3  0  0  0  0  0  0
  194.6330  173.7370  134.3690 C   0  0  2  0  0  3  0  0  0  0  0  0
  196.2420  171.8840  135.3110 C   0  0  0  0  0  2  0  0  0  0  0  0
  196.7640  171.5070  136.7030 C   0  0  1  0  0  3  0  0  0  0  0  0
  198.4540  173.7560  135.1930 C   0  0  0  0  0  0  0  0  0  0  0  0
  197.6720  172.5760  137.3120 C   0  0  0  0  0  2  0  0  0  0  0  0
  198.8380  172.9300  136.3980 C   0  0  0  0  0  2  0  0  0  0  0  0
  197.0670  174.3100  134.9320 C   0  0  1  0  0  3  0  0  0  0  0  0
  199.4250  174.0880  134.3460 C   0  0  0  0  0  2  0  0  0  0  0  0
  195.8760  173.3740  135.2180 C   0  0  1  0  0  3  0  0  0  0  0  0
  197.6110  175.7910  136.7480 O   0  0  0  0  0  1  0  0  0  0  0  0
  196.8750  175.6840  135.5650 C   0  0  0  0  0  2  0  0  0  0  0  0
  194.5530  170.3840  136.9750 C   0  0  0  0  0  1  0  0  0  0  0  0
  195.6060  171.2420  137.6510 C   0  0  0  0  0  2  0  0  0  0  0  0
  1  4  1  0  0  0  0
  3  8  1  6  0  0  0
  3  2  1  0  0  0  0
  4 22  1  6  0  0  0
  4  6  1  0  0  0  0
  4  7  1  0  0  0  0
  6  5  1  0  0  0  0
  6  3  1  0  0  0  0
  7  1  1  6  0  0  0
  7  2  1  0  0  0  0
  8 12  1  0  0  0  0
  9 10  1  0  0  0  0
 10 13  2  0  0  0  0
 11 14  2  0  0  0  0
 12  9  2  0  0  0  0
 12 11  1  0  0  0  0
 13 16  1  0  0  0  0
 14 13  1  0  0  0  0
 15 21  1  0  0  0  0
 16 17  1  0  0  0  0
 16 15  2  0  0  0  0
 17 20  2  0  0  0  0
 20 18  1  0  0  0  0
 20 19  1  0  0  0  0
 21 19  2  0  0  0  0
 23 24  1  0  0  0  0
 24 22  1  1  0  0  0
 25 23  1  1  0  0  0
 25 24  1  0  0  0  0
 25 33  1  0  0  0  0
 26 27  1  0  0  0  0
 27 29  1  0  0  0  0
 27 37  1  1  0  0  0
 28 30  1  0  0  0  0
 30 29  1  0  0  0  0
 31 28  1  0  0  0  0
 31 33  1  0  0  0  0
 31 35  1  1  0  0  0
 32 28  2  0  0  0  0
 33 26  1  6  0  0  0
 35 34  1  0  0  0  0
 36 37  1  0  0  0  0
M  END
>  <MODEL>
5

>  <REMARK>
 VINA RESULT:      -6.7      8.496     10.408
  Name = 
  8 active torsions:
  status: ('A' for Active; 'I' for Inactive)
    1  A    between atoms: S_4  and  C_16
    2  A    between atoms: S_4  and  C_28
    3  A    between atoms: C_5  and  C_23
    4  A    between atoms: C_6  and  C_31
    5  A    between atoms: C_20  and  C_32
    6  A    between atoms: C_21  and  C_32
    7  A    between atoms: C_27  and  C_33
    8  A    between atoms: C_29  and  C_36
                            x       y       z     vdW  Elec       q    Type
                         _______ _______ _______ _____ _____    ______ ____

>  <TORSDO>
F 8

$$$$
=
 OpenBabel10272415013D

 37 42  0  0  1  0  0  0  0  0999 V2000
  193.4350  176.5570  136.6450 C   0  0  0  0  0  2  0  0  0  0  0  0
  192.3370  176.7500  138.8630 C   0  0  0  0  0  2  0  0  0  0  0  0
  191.0380  176.1070  138.3990 C   0  0  2  0  0  3  0  0  0  0  0  0
  192.7470  175.2730  137.0480 C   0  0  2  0  0  0  0  0  0  0  0  0
  190.6610  174.0910  137.2910 C   0  0  0  0  0  1  0  0  0  0  0  0
  191.2870  175.3990  137.1480 N   0  0  0  0  0  0  0  0  0  0  0  0
  193.4570  176.0840  138.0970 C   0  0  1  0  0  3  0  0  0  0  0  0
  189.7730  177.3870  138.1380 S   0  0  0  0  0  0  0  0  0  0  0  0
  188.3290  178.3100  140.3080 C   0  0  0  0  0  3  0  0  0  0  0  0
  187.9770  178.3460  141.6590 C   0  0  0  0  0  3  0  0  0  0  0  0
  189.9570  176.5830  140.7790 C   0  0  0  0  0  3  0  0  0  0  0  0
  189.3160  177.4260  139.8660 C   0  0  0  0  0  0  0  0  0  0  0  0
  188.6100  177.5010  142.5870 C   0  0  0  0  0  0  0  0  0  0  0  0
  189.6050  176.6200  142.1310 C   0  0  0  0  0  3  0  0  0  0  0  0
  189.1950  177.2530  145.0140 C   0  0  0  0  0  3  0  0  0  0  0  0
  188.2430  177.5460  144.0220 C   0  0  0  0  0  0  0  0  0  0  0  0
  186.9370  177.8810  144.4170 C   0  0  0  0  0  3  0  0  0  0  0  0
  184.9590  178.3430  146.2420 Cl  0  0  0  0  0  0  0  0  0  0  0  0
  187.5460  177.6260  146.7450 C   0  0  0  0  0  3  0  0  0  0  0  0
  186.5900  177.9210  145.7710 C   0  0  0  0  0  0  0  0  0  0  0  0
  188.8480  177.2920  146.3680 C   0  0  0  0  0  3  0  0  0  0  0  0
  193.4200  174.0200  136.4850 C   0  0  0  0  0  2  0  0  0  0  0  0
  195.7620  174.5840  135.9130 C   0  0  0  0  0  2  0  0  0  0  0  0
  194.3710  174.3760  135.3470 C   0  0  1  0  0  3  0  0  0  0  0  0
  195.4840  173.3540  135.0680 C   0  0  2  0  0  3  0  0  0  0  0  0
  195.1440  170.7470  135.0630 C   0  0  0  0  0  2  0  0  0  0  0  0
  194.2740  169.7660  135.8590 C   0  0  1  0  0  3  0  0  0  0  0  0
  197.0680  170.4990  137.2190 C   0  0  0  0  0  0  0  0  0  0  0  0
  194.6530  169.6930  137.3380 C   0  0  0  0  0  2  0  0  0  0  0  0
  196.1270  169.3620  137.5390 C   0  0  0  0  0  2  0  0  0  0  0  0
  196.6310  171.9020  136.8410 C   0  0  1  0  0  3  0  0  0  0  0  0
  198.3710  170.2720  137.3610 C   0  0  0  0  0  2  0  0  0  0  0  0
  195.4470  172.0240  135.8620 C   0  0  1  0  0  3  0  0  0  0  0  0
  195.2660  172.4690  138.7390 O   0  0  0  0  0  1  0  0  0  0  0  0
  196.4480  172.7900  138.0690 C   0  0  0  0  0  2  0  0  0  0  0  0
  192.5550  170.9040  134.4540 C   0  0  0  0  0  1  0  0  0  0  0  0
  192.8060  170.1420  135.7420 C   0  0  0  0  0  2  0  0  0  0  0  0
  1  4  1  0  0  0  0
  3  8  1  6  0  0  0
  3  2  1  0  0  0  0
  4 22  1  6  0  0  0
  4  6  1  0  0  0  0
  4  7  1  0  0  0  0
  6  5  1  0  0  0  0
  6  3  1  0  0  0  0
  7  1  1  6  0  0  0
  7  2  1  0  0  0  0
  8 12  1  0  0  0  0
  9 10  1  0  0  0  0
 10 13  2  0  0  0  0
 11 14  2  0  0  0  0
 12  9  2  0  0  0  0
 12 11  1  0  0  0  0
 13 16  1  0  0  0  0
 14 13  1  0  0  0  0
 15 21  1  0  0  0  0
 16 17  1  0  0  0  0
 16 15  2  0  0  0  0
 17 20  2  0  0  0  0
 20 18  1  0  0  0  0
 20 19  1  0  0  0  0
 21 19  2  0  0  0  0
 24 23  1  0  0  0  0
 24 22  1  1  0  0  0
 25 24  1  0  0  0  0
 25 33  1  0  0  0  0
 25 23  1  1  0  0  0
 26 27  1  0  0  0  0
 27 37  1  1  0  0  0
 27 29  1  0  0  0  0
 28 32  2  0  0  0  0
 28 30  1  0  0  0  0
 29 30  1  0  0  0  0
 31 28  1  0  0  0  0
 31 35  1  1  0  0  0
 33 26  1  6  0  0  0
 33 31  1  0  0  0  0
 35 34  1  0  0  0  0
 36 37  1  0  0  0  0
M  END
>  <MODEL>
6

>  <REMARK>
 VINA RESULT:      -6.7      7.851      9.827
  Name = 
  8 active torsions:
  status: ('A' for Active; 'I' for Inactive)
    1  A    between atoms: S_4  and  C_16
    2  A    between atoms: S_4  and  C_28
    3  A    between atoms: C_5  and  C_23
    4  A    between atoms: C_6  and  C_31
    5  A    between atoms: C_20  and  C_32
    6  A    between atoms: C_21  and  C_32
    7  A    between atoms: C_27  and  C_33
    8  A    between atoms: C_29  and  C_36
                            x       y       z     vdW  Elec       q    Type
                         _______ _______ _______ _____ _____    ______ ____

>  <TORSDO>
F 8

$$$$
=
 OpenBabel10272415013D

 37 42  0  0  1  0  0  0  0  0999 V2000
  190.5010  176.6670  136.3220 C   0  0  0  0  0  2  0  0  0  0  0  0
  191.0030  175.3700  138.3770 C   0  0  0  0  0  2  0  0  0  0  0  0
  190.4310  176.4230  139.3150 C   0  0  2  0  0  3  0  0  0  0  0  0
  189.3270  176.6380  137.2720 C   0  0  2  0  0  0  0  0  0  0  0  0
  188.3560  177.4850  139.3090 C   0  0  0  0  0  1  0  0  0  0  0  0
  189.5850  177.3270  138.5420 N   0  0  0  0  0  0  0  0  0  0  0  0
  190.1730  175.4050  137.1150 C   0  0  1  0  0  3  0  0  0  0  0  0
  191.7820  177.3600  140.0910 S   0  0  0  0  0  0  0  0  0  0  0  0
  191.2040  178.5040  142.5410 C   0  0  0  0  0  3  0  0  0  0  0  0
  190.5600  178.5650  143.7790 C   0  0  0  0  0  3  0  0  0  0  0  0
  190.0550  176.4340  142.0430 C   0  0  0  0  0  3  0  0  0  0  0  0
  190.9500  177.4420  141.6710 C   0  0  0  0  0  0  0  0  0  0  0  0
  189.6540  177.5610  144.1640 C   0  0  0  0  0  0  0  0  0  0  0  0
  189.4110  176.4950  143.2820 C   0  0  0  0  0  3  0  0  0  0  0  0
  189.6960  177.3870  146.6670 C   0  0  0  0  0  3  0  0  0  0  0  0
  188.9770  177.6190  145.4810 C   0  0  0  0  0  0  0  0  0  0  0  0
  187.6040  177.9070  145.5670 C   0  0  0  0  0  3  0  0  0  0  0  0
  185.2560  178.3230  146.8980 Cl  0  0  0  0  0  0  0  0  0  0  0  0
  187.6920  177.7250  147.9800 C   0  0  0  0  0  3  0  0  0  0  0  0
  186.9660  177.9600  146.8100 C   0  0  0  0  0  0  0  0  0  0  0  0
  189.0560  177.4390  147.9080 C   0  0  0  0  0  3  0  0  0  0  0  0
  187.9720  176.7140  136.5650 C   0  0  0  0  0  2  0  0  0  0  0  0
  188.1540  174.5340  135.4040 C   0  0  0  0  0  2  0  0  0  0  0  0
  188.0280  176.0310  135.2030 C   0  0  1  0  0  3  0  0  0  0  0  0
  186.8490  175.1020  134.8760 C   0  0  2  0  0  3  0  0  0  0  0  0
  185.9020  174.2690  137.1830 C   0  0  0  0  0  2  0  0  0  0  0  0
  184.6380  173.5250  137.6310 C   0  0  1  0  0  3  0  0  0  0  0  0
  184.3270  176.6950  137.4030 C   0  0  0  0  0  0  0  0  0  0  0  0
  183.3590  174.3370  137.4220 C   0  0  0  0  0  2  0  0  0  0  0  0
  183.4270  175.7010  138.0980 C   0  0  0  0  0  2  0  0  0  0  0  0
  185.0310  176.4460  136.0830 C   0  0  1  0  0  3  0  0  0  0  0  0
  184.4410  177.9020  137.9500 C   0  0  0  0  0  2  0  0  0  0  0  0
  185.6740  175.0590  135.8850 C   0  0  1  0  0  3  0  0  0  0  0  0
  182.9300  177.3400  135.3240 O   0  0  0  0  0  1  0  0  0  0  0  0
  184.1640  176.8470  134.8930 C   0  0  0  0  0  2  0  0  0  0  0  0
  183.0660  171.9500  136.5030 C   0  0  0  0  0  1  0  0  0  0  0  0
  184.5100  172.2020  136.8930 C   0  0  0  0  0  2  0  0  0  0  0  0
  1  4  1  0  0  0  0
  2  3  1  0  0  0  0
  3  8  1  6  0  0  0
  4 22  1  6  0  0  0
  4  6  1  0  0  0  0
  6  5  1  0  0  0  0
  6  3  1  0  0  0  0
  7  1  1  6  0  0  0
  7  4  1  0  0  0  0
  7  2  1  0  0  0  0
  8 12  1  0  0  0  0
  9 10  1  0  0  0  0
 10 13  2  0  0  0  0
 11 14  2  0  0  0  0
 12 11  1  0  0  0  0
 12  9  2  0  0  0  0
 13 16  1  0  0  0  0
 14 13  1  0  0  0  0
 15 21  1  0  0  0  0
 16 17  1  0  0  0  0
 16 15  2  0  0  0  0
 17 20  2  0  0  0  0
 20 18  1  0  0  0  0
 20 19  1  0  0  0  0
 21 19  2  0  0  0  0
 24 23  1  0  0  0  0
 24 22  1  1  0  0  0
 25 24  1  0  0  0  0
 25 23  1  1  0  0  0
 25 33  1  0  0  0  0
 26 27  1  0  0  0  0
 27 37  1  6  0  0  0
 28 32  2  0  0  0  0
 28 30  1  0  0  0  0
 29 27  1  0  0  0  0
 29 30  1  0  0  0  0
 31 35  1  6  0  0  0
 31 28  1  0  0  0  0
 33 31  1  0  0  0  0
 33 26  1  1  0  0  0
 35 34  1  0  0  0  0
 36 37  1  0  0  0  0
M  END
>  <MODEL>
7

>  <REMARK>
 VINA RESULT:      -6.7      3.962      5.868
  Name = 
  8 active torsions:
  status: ('A' for Active; 'I' for Inactive)
    1  A    between atoms: S_4  and  C_16
    2  A    between atoms: S_4  and  C_28
    3  A    between atoms: C_5  and  C_23
    4  A    between atoms: C_6  and  C_31
    5  A    between atoms: C_20  and  C_32
    6  A    between atoms: C_21  and  C_32
    7  A    between atoms: C_27  and  C_33
    8  A    between atoms: C_29  and  C_36
                            x       y       z     vdW  Elec       q    Type
                         _______ _______ _______ _____ _____    ______ ____

>  <TORSDO>
F 8

$$$$
=
 OpenBabel10272415013D

 37 42  0  0  1  0  0  0  0  0999 V2000
  187.6050  176.2340  135.5350 C   0  0  0  0  0  2  0  0  0  0  0  0
  188.6280  175.7850  137.7520 C   0  0  0  0  0  2  0  0  0  0  0  0
  188.0720  177.0510  138.3880 C   0  0  2  0  0  3  0  0  0  0  0  0
  186.6230  176.4460  136.6630 C   0  0  2  0  0  0  0  0  0  0  0  0
  185.8920  177.8720  138.4630 C   0  0  0  0  0  1  0  0  0  0  0  0
  186.9860  177.5550  137.5540 N   0  0  0  0  0  0  0  0  0  0  0  0
  187.6030  175.3080  136.7490 C   0  0  1  0  0  3  0  0  0  0  0  0
  189.3820  178.3060  138.5150 S   0  0  0  0  0  0  0  0  0  0  0  0
  190.7630  177.3260  140.7010 C   0  0  0  0  0  3  0  0  0  0  0  0
  190.9530  177.0890  142.0640 C   0  0  0  0  0  3  0  0  0  0  0  0
  188.6800  178.4560  141.1870 C   0  0  0  0  0  3  0  0  0  0  0  0
  189.6290  178.0120  140.2610 C   0  0  0  0  0  0  0  0  0  0  0  0
  190.0090  177.5340  143.0060 C   0  0  0  0  0  0  0  0  0  0  0  0
  188.8700  178.2200  142.5510 C   0  0  0  0  0  3  0  0  0  0  0  0
  191.4270  176.7730  144.9300 C   0  0  0  0  0  3  0  0  0  0  0  0
  190.2050  177.2760  144.4520 C   0  0  0  0  0  0  0  0  0  0  0  0
  189.1720  177.5290  145.3710 C   0  0  0  0  0  3  0  0  0  0  0  0
  188.0590  177.6070  147.8630 Cl  0  0  0  0  0  0  0  0  0  0  0  0
  190.5750  176.7810  147.1950 C   0  0  0  0  0  3  0  0  0  0  0  0
  189.3560  177.2830  146.7340 C   0  0  0  0  0  0  0  0  0  0  0  0
  191.6100  176.5260  146.2940 C   0  0  0  0  0  3  0  0  0  0  0  0
  185.1730  176.1590  136.2680 C   0  0  0  0  0  2  0  0  0  0  0  0
  184.9650  174.0480  134.9910 C   0  0  0  0  0  2  0  0  0  0  0  0
  185.0970  175.5530  134.8710 C   0  0  1  0  0  3  0  0  0  0  0  0
  183.7720  174.8590  134.5190 C   0  0  2  0  0  3  0  0  0  0  0  0
  181.5040  175.9760  135.2390 C   0  0  0  0  0  2  0  0  0  0  0  0
  180.9910  176.6670  136.5090 C   0  0  1  0  0  3  0  0  0  0  0  0
  180.6830  173.4890  136.4850 C   0  0  0  0  0  0  0  0  0  0  0  0
  180.8800  175.7190  137.7030 C   0  0  0  0  0  2  0  0  0  0  0  0
  180.0220  174.5000  137.3920 C   0  0  0  0  0  2  0  0  0  0  0  0
  182.1160  173.5770  135.9960 C   0  0  1  0  0  3  0  0  0  0  0  0
  179.9820  172.4060  136.1630 C   0  0  0  0  0  2  0  0  0  0  0  0
  182.6180  174.9630  135.5460 C   0  0  1  0  0  3  0  0  0  0  0  0
  183.1070  171.5230  136.7630 O   0  0  0  0  0  1  0  0  0  0  0  0
  183.0880  172.9050  136.9610 C   0  0  0  0  0  2  0  0  0  0  0  0
  181.9980  177.9590  138.3910 C   0  0  0  0  0  1  0  0  0  0  0  0
  181.8950  177.8310  136.8830 C   0  0  0  0  0  2  0  0  0  0  0  0
  1  4  1  0  0  0  0
  2  3  1  0  0  0  0
  3  8  1  6  0  0  0
  4 22  1  6  0  0  0
  4  7  1  0  0  0  0
  4  6  1  0  0  0  0
  6  3  1  0  0  0  0
  6  5  1  0  0  0  0
  7  1  1  6  0  0  0
  7  2  1  0  0  0  0
  8 12  1  0  0  0  0
  9 10  1  0  0  0  0
 10 13  2  0  0  0  0
 11 14  2  0  0  0  0
 12  9  2  0  0  0  0
 12 11  1  0  0  0  0
 13 16  1  0  0  0  0
 14 13  1  0  0  0  0
 15 21  1  0  0  0  0
 16 15  2  0  0  0  0
 16 17  1  0  0  0  0
 17 20  2  0  0  0  0
 20 19  1  0  0  0  0
 20 18  1  0  0  0  0
 21 19  2  0  0  0  0
 24 23  1  0  0  0  0
 24 22  1  1  0  0  0
 25 24  1  0  0  0  0
 25 23  1  1  0  0  0
 25 33  1  0  0  0  0
 26 27  1  0  0  0  0
 27 37  1  1  0  0  0
 27 29  1  0  0  0  0
 28 30  1  0  0  0  0
 30 29  1  0  0  0  0
 31 28  1  0  0  0  0
 31 35  1  1  0  0  0
 32 28  2  0  0  0  0
 33 26  1  6  0  0  0
 33 31  1  0  0  0  0
 34 35  1  0  0  0  0
 37 36  1  0  0  0  0
M  END
>  <MODEL>
8

>  <REMARK>
 VINA RESULT:      -6.6      3.134      4.916
  Name = 
  8 active torsions:
  status: ('A' for Active; 'I' for Inactive)
    1  A    between atoms: S_4  and  C_16
    2  A    between atoms: S_4  and  C_28
    3  A    between atoms: C_5  and  C_23
    4  A    between atoms: C_6  and  C_31
    5  A    between atoms: C_20  and  C_32
    6  A    between atoms: C_21  and  C_32
    7  A    between atoms: C_27  and  C_33
    8  A    between atoms: C_29  and  C_36
                            x       y       z     vdW  Elec       q    Type
                         _______ _______ _______ _____ _____    ______ ____

>  <TORSDO>
F 8

$$$$
=
 OpenBabel10272415013D

 37 42  0  0  1  0  0  0  0  0999 V2000
  185.2250  179.7350  142.6920 C   0  0  0  0  0  2  0  0  0  0  0  0
  183.8850  178.0260  141.4890 C   0  0  0  0  0  2  0  0  0  0  0  0
  184.5310  178.3100  140.1410 C   0  0  2  0  0  3  0  0  0  0  0  0
  186.0810  178.8810  141.7860 C   0  0  2  0  0  0  0  0  0  0  0  0
  186.7780  178.4000  139.5300 C   0  0  0  0  0  1  0  0  0  0  0  0
  185.7710  179.0460  140.3610 N   0  0  0  0  0  0  0  0  0  0  0  0
  184.9490  178.2410  142.5410 C   0  0  1  0  0  3  0  0  0  0  0  0
  183.4040  179.2980  139.1110 S   0  0  0  0  0  0  0  0  0  0  0  0
  181.5050  177.7960  137.7760 C   0  0  0  0  0  3  0  0  0  0  0  0
  181.0580  176.6800  137.0650 C   0  0  0  0  0  3  0  0  0  0  0  0
  183.7190  176.8290  137.9030 C   0  0  0  0  0  3  0  0  0  0  0  0
  182.8360  177.8730  138.1920 C   0  0  0  0  0  0  0  0  0  0  0  0
  181.9370  175.6240  136.7640 C   0  0  0  0  0  0  0  0  0  0  0  0
  183.2720  175.7120  137.1920 C   0  0  0  0  0  3  0  0  0  0  0  0
  180.4330  174.5510  135.0660 C   0  0  0  0  0  3  0  0  0  0  0  0
  181.4610  174.4360  136.0170 C   0  0  0  0  0  0  0  0  0  0  0  0
  182.0310  173.1710  136.2480 C   0  0  0  0  0  3  0  0  0  0  0  0
  182.3030  170.4850  135.8440 Cl  0  0  0  0  0  0  0  0  0  0  0  0
  180.5560  172.1790  134.6050 C   0  0  0  0  0  3  0  0  0  0  0  0
  181.5800  172.0500  135.5460 C   0  0  0  0  0  0  0  0  0  0  0  0
  179.9830  173.4290  134.3650 C   0  0  0  0  0  3  0  0  0  0  0  0
  187.5140  178.7060  142.2930 C   0  0  0  0  0  2  0  0  0  0  0  0
  189.6650  177.6830  141.6180 C   0  0  0  0  0  2  0  0  0  0  0  0
  188.1650  177.4730  141.6760 C   0  0  1  0  0  3  0  0  0  0  0  0
  189.0970  176.6790  142.6050 C   0  0  2  0  0  3  0  0  0  0  0  0
  188.1240  176.5290  145.0420 C   0  0  0  0  0  2  0  0  0  0  0  0
  187.6610  177.5500  146.0890 C   0  0  1  0  0  3  0  0  0  0  0  0
  190.7890  176.9110  146.1210 C   0  0  0  0  0  0  0  0  0  0  0  0
  188.7990  178.4240  146.6190 C   0  0  0  0  0  2  0  0  0  0  0  0
  189.9500  177.5940  147.1740 C   0  0  0  0  0  2  0  0  0  0  0  0
  190.6160  177.0970  144.6260 C   0  0  1  0  0  3  0  0  0  0  0  0
  191.8040  176.1600  146.5410 C   0  0  0  0  0  2  0  0  0  0  0  0
  189.1720  177.1210  144.0870 C   0  0  1  0  0  3  0  0  0  0  0  0
  190.7280  179.4650  144.2150 O   0  0  0  0  0  1  0  0  0  0  0  0
  191.4400  178.2690  144.1000 C   0  0  0  0  0  2  0  0  0  0  0  0
  185.4110  178.5540  146.4800 C   0  0  0  0  0  1  0  0  0  0  0  0
  186.5760  178.4460  145.5140 C   0  0  0  0  0  2  0  0  0  0  0  0
  3  8  1  6  0  0  0
  3  6  1  0  0  0  0
  3  2  1  0  0  0  0
  4 22  1  1  0  0  0
  4  7  1  0  0  0  0
  4  1  1  0  0  0  0
  5  6  1  0  0  0  0
  6  4  1  0  0  0  0
  7  2  1  6  0  0  0
  7  1  1  0  0  0  0
  9 12  1  0  0  0  0
 10  9  2  0  0  0  0
 11 12  2  0  0  0  0
 12  8  1  0  0  0  0
 13 10  1  0  0  0  0
 13 14  2  0  0  0  0
 14 11  1  0  0  0  0
 15 16  1  0  0  0  0
 16 17  2  0  0  0  0
 16 13  1  0  0  0  0
 19 20  2  0  0  0  0
 20 18  1  0  0  0  0
 20 17  1  0  0  0  0
 21 19  1  0  0  0  0
 21 15  2  0  0  0  0
 23 24  1  0  0  0  0
 24 22  1  1  0  0  0
 24 25  1  0  0  0  0
 25 23  1  6  0  0  0
 25 33  1  0  0  0  0
 26 27  1  0  0  0  0
 27 37  1  6  0  0  0
 27 29  1  0  0  0  0
 28 32  2  0  0  0  0
 28 30  1  0  0  0  0
 29 30  1  0  0  0  0
 31 35  1  1  0  0  0
 31 28  1  0  0  0  0
 33 31  1  0  0  0  0
 33 26  1  1  0  0  0
 35 34  1  0  0  0  0
 37 36  1  0  0  0  0
M  END
>  <MODEL>
9

>  <REMARK>
 VINA RESULT:      -6.6      3.464     10.129
  Name = 
  8 active torsions:
  status: ('A' for Active; 'I' for Inactive)
    1  A    between atoms: S_4  and  C_16
    2  A    between atoms: S_4  and  C_28
    3  A    between atoms: C_5  and  C_23
    4  A    between atoms: C_6  and  C_31
    5  A    between atoms: C_20  and  C_32
    6  A    between atoms: C_21  and  C_32
    7  A    between atoms: C_27  and  C_33
    8  A    between atoms: C_29  and  C_36
                            x       y       z     vdW  Elec       q    Type
                         _______ _______ _______ _____ _____    ______ ____

>  <TORSDO>
F 8

$$$$
