=
 OpenBabel10272400513D

 25 28  0  0  1  0  0  0  0  0999 V2000
  187.6560  177.4780  145.2090 C   0  0  0  0  0  0  0  0  0  0  0  0
  188.8080  177.1230  144.5080 C   0  0  0  0  0  0  0  0  0  0  0  0
  188.9070  177.7790  147.2360 C   0  0  0  0  0  3  0  0  0  0  0  0
  186.2300  177.4990  144.7880 C   0  0  1  0  0  3  0  0  0  0  0  0
  183.8810  179.1620  144.8940 C   0  0  0  0  0  3  0  0  0  0  0  0
  190.0440  177.4490  146.5540 N   0  0  0  0  0  0  0  0  0  0  0  0
  185.6010  177.9750  146.0730 C   0  0  0  0  0  0  0  0  0  0  0  0
  184.2770  178.6010  146.0450 C   0  0  0  0  0  3  0  0  0  0  0  0
  191.3330  176.8150  144.5420 C   0  0  2  0  0  3  0  0  0  0  0  0
  191.9760  178.0110  144.2180 O   0  0  0  0  0  1  0  0  0  0  0  0
  188.7260  176.6960  143.0690 C   0  0  0  0  0  2  0  0  0  0  0  0
  184.7810  179.1890  143.7090 C   0  0  0  0  0  3  0  0  0  0  0  0
  187.7010  177.7750  146.5460 C   0  0  0  0  0  0  0  0  0  0  0  0
  186.4260  178.1220  147.0620 N   0  0  0  0  0  0  0  0  0  0  0  0
  191.1310  175.9830  143.2780 C   0  0  0  0  0  2  0  0  0  0  0  0
  185.9120  178.4660  143.6760 C   0  0  0  0  0  3  0  0  0  0  0  0
  190.0580  176.5570  142.4770 N   0  0  0  0  0  0  0  0  0  0  0  0
  190.0300  177.1120  145.2270 C   0  0  0  0  0  0  0  0  0  0  0  0
  190.2940  176.7940  141.0860 C   0  0  0  0  0  3  0  0  0  0  0  0
  189.4360  177.4390  140.3380 C   0  0  0  0  0  0  0  0  0  0  0  0
  188.5780  178.0850  139.5980 C   0  0  0  0  0  0  0  0  0  0  0  0
  187.5290  178.7630  140.2100 O   0  0  0  0  0  1  0  0  0  0  0  0
  188.7090  178.1040  138.1350 C   0  0  0  0  0  0  0  0  0  0  0  0
  188.8410  179.3070  137.4510 O   0  0  0  0  0  0  0  0  0  0  0  0
  188.7020  177.0220  137.4910 O   0  0  0  0  0  1  0  0  0  0  0  0
  1 13  1  0  0  0  0
  2  1  2  0  0  0  0
  2 18  1  0  0  0  0
  4 16  1  6  0  0  0
  4  1  1  0  0  0  0
  4  7  1  0  0  0  0
  5  8  2  0  0  0  0
  6  3  1  0  0  0  0
  7 14  2  0  0  0  0
  8  7  1  0  0  0  0
  9 10  1  6  0  0  0
  9 18  1  0  0  0  0
 11  2  1  0  0  0  0
 12  5  1  0  0  0  0
 13 14  1  0  0  0  0
 13  3  2  0  0  0  0
 15  9  1  0  0  0  0
 16 12  2  0  0  0  0
 17 11  1  0  0  0  0
 17 15  1  0  0  0  0
 18  6  2  0  0  0  0
 19 17  1  0  0  0  0
 20 19  2  0  0  0  0
 21 22  1  0  0  0  0
 21 20  2  0  0  0  0
 23 21  1  0  0  0  0
 24 23  2  0  0  0  0
 25 23  1  0  0  0  0
M  END
>  <MODEL>
1

>  <REMARK>
 VINA RESULT:     -10.3      0.000      0.000
  Name = 
  2 active torsions:
  status: ('A' for Active; 'I' for Inactive)
    1  A    between atoms: C_2  and  C_21
    2  A    between atoms: C_6  and  N_23
                            x       y       z     vdW  Elec       q    Type
                         _______ _______ _______ _____ _____    ______ ____

>  <TORSDO>
F 2

$$$$
=
 OpenBabel10272400513D

 25 28  0  0  1  0  0  0  0  0999 V2000
  187.8900  177.4250  144.8730 C   0  0  0  0  0  0  0  0  0  0  0  0
  188.8030  177.2290  143.8360 C   0  0  0  0  0  0  0  0  0  0  0  0
  189.6600  177.5520  146.4900 C   0  0  0  0  0  3  0  0  0  0  0  0
  186.4030  177.4080  144.8740 C   0  0  1  0  0  3  0  0  0  0  0  0
  184.1420  178.8990  145.8540 C   0  0  0  0  0  3  0  0  0  0  0  0
  190.5620  177.3780  145.4810 N   0  0  0  0  0  0  0  0  0  0  0  0
  186.1550  177.6850  146.3350 C   0  0  0  0  0  0  0  0  0  0  0  0
  184.8630  178.2270  146.7630 C   0  0  0  0  0  3  0  0  0  0  0  0
  191.2400  177.0750  143.1220 C   0  0  2  0  0  3  0  0  0  0  0  0
  191.7340  178.3390  142.7960 O   0  0  0  0  0  1  0  0  0  0  0  0
  188.3250  176.9770  142.4340 C   0  0  0  0  0  2  0  0  0  0  0  0
  184.6660  179.1250  144.4800 C   0  0  0  0  0  3  0  0  0  0  0  0
  188.3070  177.5580  146.1710 C   0  0  0  0  0  0  0  0  0  0  0  0
  187.2240  177.7600  147.0650 N   0  0  0  0  0  0  0  0  0  0  0  0
  190.7060  176.3930  141.8650 C   0  0  0  0  0  2  0  0  0  0  0  0
  185.7590  178.4830  144.0350 C   0  0  0  0  0  3  0  0  0  0  0  0
  189.4360  176.9930  141.4800 N   0  0  0  0  0  0  0  0  0  0  0  0
  190.1790  177.2060  144.1770 C   0  0  0  0  0  0  0  0  0  0  0  0
  189.2600  177.4120  140.1240 C   0  0  0  0  0  3  0  0  0  0  0  0
  189.8220  176.7810  139.1250 C   0  0  0  0  0  0  0  0  0  0  0  0
  190.3830  176.1460  138.1340 C   0  0  0  0  0  0  0  0  0  0  0  0
  190.9680  174.9060  138.3660 O   0  0  0  0  0  1  0  0  0  0  0  0
  190.4020  176.7250  136.7840 C   0  0  0  0  0  0  0  0  0  0  0  0
  189.5980  177.8140  136.4690 O   0  0  0  0  0  1  0  0  0  0  0  0
  191.1520  176.2330  135.9010 O   0  0  0  0  0  0  0  0  0  0  0  0
  1  4  1  0  0  0  0
  1 13  1  0  0  0  0
  2 18  1  0  0  0  0
  2  1  2  0  0  0  0
  4 16  1  6  0  0  0
  4  7  1  0  0  0  0
  5  8  2  0  0  0  0
  6  3  1  0  0  0  0
  7  8  1  0  0  0  0
  7 14  2  0  0  0  0
  9 10  1  6  0  0  0
  9 18  1  0  0  0  0
 11  2  1  0  0  0  0
 12  5  1  0  0  0  0
 13  3  2  0  0  0  0
 13 14  1  0  0  0  0
 15  9  1  0  0  0  0
 16 12  2  0  0  0  0
 17 15  1  0  0  0  0
 17 11  1  0  0  0  0
 18  6  2  0  0  0  0
 19 17  1  0  0  0  0
 20 19  2  0  0  0  0
 21 22  1  0  0  0  0
 21 20  2  0  0  0  0
 23 21  1  0  0  0  0
 24 23  1  0  0  0  0
 25 23  2  0  0  0  0
M  END
>  <MODEL>
2

>  <REMARK>
 VINA RESULT:      -9.3      1.443      1.801
  Name = 
  2 active torsions:
  status: ('A' for Active; 'I' for Inactive)
    1  A    between atoms: C_2  and  C_21
    2  A    between atoms: C_6  and  N_23
                            x       y       z     vdW  Elec       q    Type
                         _______ _______ _______ _____ _____    ______ ____

>  <TORSDO>
F 2

$$$$
=
 OpenBabel10272400513D

 25 28  0  0  1  0  0  0  0  0999 V2000
  184.6880  178.8850  143.7210 C   0  0  0  0  0  0  0  0  0  0  0  0
  184.5610  178.8880  142.3320 C   0  0  0  0  0  0  0  0  0  0  0  0
  182.3040  178.8300  144.0000 C   0  0  0  0  0  3  0  0  0  0  0  0
  185.8900  179.0070  144.5870 C   0  0  1  0  0  3  0  0  0  0  0  0
  187.1230  177.8110  146.8990 C   0  0  0  0  0  3  0  0  0  0  0  0
  182.1700  178.8150  142.6420 N   0  0  0  0  0  0  0  0  0  0  0  0
  185.2290  178.9280  145.9400 C   0  0  0  0  0  0  0  0  0  0  0  0
  186.0150  178.5350  147.1110 C   0  0  0  0  0  3  0  0  0  0  0  0
  183.0120  178.7810  140.3170 C   0  0  2  0  0  3  0  0  0  0  0  0
  182.7860  177.4550  139.9450 O   0  0  0  0  0  1  0  0  0  0  0  0
  185.7760  179.0020  141.4530 C   0  0  0  0  0  2  0  0  0  0  0  0
  187.5040  177.3830  145.5260 C   0  0  0  0  0  3  0  0  0  0  0  0
  183.5860  178.8810  144.5350 C   0  0  0  0  0  0  0  0  0  0  0  0
  183.9340  178.8660  145.9100 N   0  0  0  0  0  0  0  0  0  0  0  0
  184.1920  179.3420  139.5270 C   0  0  0  0  0  2  0  0  0  0  0  0
  186.8900  177.8870  144.4430 C   0  0  0  0  0  3  0  0  0  0  0  0
  185.4370  178.7910  140.0450 N   0  0  0  0  0  0  0  0  0  0  0  0
  183.2480  178.8550  141.7990 C   0  0  0  0  0  0  0  0  0  0  0  0
  186.3710  178.2250  139.1210 C   0  0  0  0  0  3  0  0  0  0  0  0
  187.6240  178.0240  139.4380 C   0  0  0  0  0  0  0  0  0  0  0  0
  188.8720  177.8250  139.7620 C   0  0  0  0  0  0  0  0  0  0  0  0
  189.2550  177.9410  141.0930 O   0  0  0  0  0  1  0  0  0  0  0  0
  189.8690  177.4820  138.7390 C   0  0  0  0  0  0  0  0  0  0  0  0
  189.7660  177.9940  137.4500 O   0  0  0  0  0  0  0  0  0  0  0  0
  190.8260  176.7180  139.0270 O   0  0  0  0  0  1  0  0  0  0  0  0
  1 13  1  0  0  0  0
  1  4  1  0  0  0  0
  2  1  2  0  0  0  0
  3 13  2  0  0  0  0
  4 16  1  6  0  0  0
  4  7  1  0  0  0  0
  5  8  2  0  0  0  0
  6  3  1  0  0  0  0
  7  8  1  0  0  0  0
  9 10  1  6  0  0  0
  9 18  1  0  0  0  0
 11  2  1  0  0  0  0
 12  5  1  0  0  0  0
 13 14  1  0  0  0  0
 14  7  2  0  0  0  0
 15 17  1  0  0  0  0
 15  9  1  0  0  0  0
 16 12  2  0  0  0  0
 17 11  1  0  0  0  0
 18  2  1  0  0  0  0
 18  6  2  0  0  0  0
 19 20  2  0  0  0  0
 19 17  1  0  0  0  0
 20 21  2  0  0  0  0
 21 22  1  0  0  0  0
 23 25  1  0  0  0  0
 23 21  1  0  0  0  0
 24 23  2  0  0  0  0
M  END
>  <MODEL>
3

>  <REMARK>
 VINA RESULT:      -8.9      2.679      5.148
  Name = 
  2 active torsions:
  status: ('A' for Active; 'I' for Inactive)
    1  A    between atoms: C_2  and  C_21
    2  A    between atoms: C_6  and  N_23
                            x       y       z     vdW  Elec       q    Type
                         _______ _______ _______ _____ _____    ______ ____

>  <TORSDO>
F 2

$$$$
=
 OpenBabel10272400513D

 25 28  0  0  1  0  0  0  0  0999 V2000
  187.5820  178.3480  140.9020 C   0  0  0  0  0  0  0  0  0  0  0  0
  188.9200  177.9560  140.8940 C   0  0  0  0  0  0  0  0  0  0  0  0
  187.4120  178.0320  138.5280 C   0  0  0  0  0  3  0  0  0  0  0  0
  186.7290  178.8690  142.0030 C   0  0  1  0  0  3  0  0  0  0  0  0
  184.1180  178.5310  143.1730 C   0  0  0  0  0  3  0  0  0  0  0  0
  188.7160  177.6310  138.5120 N   0  0  0  0  0  0  0  0  0  0  0  0
  185.4410  179.0660  141.2430 C   0  0  0  0  0  0  0  0  0  0  0  0
  184.1700  179.1210  141.9700 C   0  0  0  0  0  3  0  0  0  0  0  0
  190.8960  177.0880  139.5470 C   0  0  2  0  0  3  0  0  0  0  0  0
  190.8930  175.6930  139.5180 O   0  0  0  0  0  1  0  0  0  0  0  0
  189.7370  177.9990  142.1560 C   0  0  0  0  0  2  0  0  0  0  0  0
  185.2970  177.8060  143.7180 C   0  0  0  0  0  3  0  0  0  0  0  0
  186.8530  178.4080  139.7440 C   0  0  0  0  0  0  0  0  0  0  0  0
  185.5130  178.8160  139.9730 N   0  0  0  0  0  0  0  0  0  0  0  0
  191.7550  177.5760  140.7110 C   0  0  0  0  0  2  0  0  0  0  0  0
  186.5060  177.9060  143.1410 C   0  0  0  0  0  3  0  0  0  0  0  0
  191.0450  177.3680  141.9660 N   0  0  0  0  0  0  0  0  0  0  0  0
  189.4850  177.5930  139.6450 C   0  0  0  0  0  0  0  0  0  0  0  0
  191.7280  176.7110  143.0380 C   0  0  0  0  0  3  0  0  0  0  0  0
  191.3110  176.7890  144.2750 C   0  0  0  0  0  0  0  0  0  0  0  0
  190.8900  176.8690  145.5070 C   0  0  0  0  0  0  0  0  0  0  0  0
  189.6300  177.4000  145.7610 O   0  0  0  0  0  1  0  0  0  0  0  0
  191.7280  176.4060  146.6210 C   0  0  0  0  0  0  0  0  0  0  0  0
  192.4410  175.2160  146.5240 O   0  0  0  0  0  0  0  0  0  0  0  0
  191.8060  177.0910  147.6750 O   0  0  0  0  0  1  0  0  0  0  0  0
  1  4  1  0  0  0  0
  2  1  1  0  0  0  0
  2 11  1  0  0  0  0
  3 13  1  0  0  0  0
  4 16  1  1  0  0  0
  5 12  1  0  0  0  0
  6  3  2  0  0  0  0
  6 18  1  0  0  0  0
  7  8  1  0  0  0  0
  7  4  1  0  0  0  0
  8  5  2  0  0  0  0
  9 10  1  1  0  0  0
  9 18  1  0  0  0  0
  9 15  1  0  0  0  0
 13 14  1  0  0  0  0
 13  1  2  0  0  0  0
 14  7  2  0  0  0  0
 15 17  1  0  0  0  0
 16 12  2  0  0  0  0
 17 11  1  0  0  0  0
 17 19  1  0  0  0  0
 18  2  2  0  0  0  0
 19 20  2  0  0  0  0
 20 21  2  0  0  0  0
 21 22  1  0  0  0  0
 21 23  1  0  0  0  0
 23 25  1  0  0  0  0
 24 23  2  0  0  0  0
M  END
>  <MODEL>
4

>  <REMARK>
 VINA RESULT:      -8.7      2.803      5.826
  Name = 
  2 active torsions:
  status: ('A' for Active; 'I' for Inactive)
    1  A    between atoms: C_2  and  C_21
    2  A    between atoms: C_6  and  N_23
                            x       y       z     vdW  Elec       q    Type
                         _______ _______ _______ _____ _____    ______ ____

>  <TORSDO>
F 2

$$$$
=
 OpenBabel10272400513D

 25 28  0  0  1  0  0  0  0  0999 V2000
  188.9350  177.2820  144.9600 C   0  0  0  0  0  0  0  0  0  0  0  0
  189.3070  177.2000  143.6190 C   0  0  0  0  0  0  0  0  0  0  0  0
  191.2270  177.1810  145.6660 C   0  0  0  0  0  3  0  0  0  0  0  0
  187.5910  177.2910  145.5970 C   0  0  1  0  0  3  0  0  0  0  0  0
  186.0640  178.6890  147.6000 C   0  0  0  0  0  3  0  0  0  0  0  0
  191.6030  177.1170  144.3550 N   0  0  0  0  0  0  0  0  0  0  0  0
  188.0050  177.3910  147.0440 C   0  0  0  0  0  0  0  0  0  0  0  0
  187.0560  177.8990  148.0370 C   0  0  0  0  0  3  0  0  0  0  0  0
  191.1940  177.0930  141.9160 C   0  0  2  0  0  3  0  0  0  0  0  0
  191.5880  178.3780  141.5420 O   0  0  0  0  0  1  0  0  0  0  0  0
  188.2640  177.1280  142.5380 C   0  0  0  0  0  2  0  0  0  0  0  0
  185.9710  179.0720  146.1660 C   0  0  0  0  0  3  0  0  0  0  0  0
  189.8710  177.2490  145.9600 C   0  0  0  0  0  0  0  0  0  0  0  0
  189.2850  177.3590  147.2480 N   0  0  0  0  0  0  0  0  0  0  0  0
  190.1340  176.5780  140.9460 C   0  0  0  0  0  2  0  0  0  0  0  0
  186.7260  178.4700  145.2320 C   0  0  0  0  0  3  0  0  0  0  0  0
  188.8640  177.2420  141.2080 N   0  0  0  0  0  0  0  0  0  0  0  0
  190.6930  177.1120  143.3320 C   0  0  0  0  0  0  0  0  0  0  0  0
  188.1580  177.8260  140.1100 C   0  0  0  0  0  3  0  0  0  0  0  0
  186.9450  178.2990  140.2390 C   0  0  0  0  0  0  0  0  0  0  0  0
  185.7370  178.7720  140.3750 C   0  0  0  0  0  0  0  0  0  0  0  0
  185.2100  178.9310  141.6510 O   0  0  0  0  0  1  0  0  0  0  0  0
  184.9350  179.1350  139.1990 C   0  0  0  0  0  0  0  0  0  0  0  0
  184.1640  180.2930  139.1980 O   0  0  0  0  0  1  0  0  0  0  0  0
  184.9410  178.3950  138.1810 O   0  0  0  0  0  0  0  0  0  0  0  0
  1  4  1  0  0  0  0
  1 13  1  0  0  0  0
  2  1  2  0  0  0  0
  3 13  2  0  0  0  0
  4 16  1  6  0  0  0
  4  7  1  0  0  0  0
  5  8  2  0  0  0  0
  6  3  1  0  0  0  0
  7 14  2  0  0  0  0
  7  8  1  0  0  0  0
  9 10  1  6  0  0  0
  9 18  1  0  0  0  0
 11  2  1  0  0  0  0
 12  5  1  0  0  0  0
 13 14  1  0  0  0  0
 15 17  1  0  0  0  0
 15  9  1  0  0  0  0
 16 12  2  0  0  0  0
 17 11  1  0  0  0  0
 18  2  1  0  0  0  0
 18  6  2  0  0  0  0
 19 20  2  0  0  0  0
 19 17  1  0  0  0  0
 20 21  2  0  0  0  0
 21 22  1  0  0  0  0
 23 21  1  0  0  0  0
 24 23  1  0  0  0  0
 25 23  2  0  0  0  0
M  END
>  <MODEL>
5

>  <REMARK>
 VINA RESULT:      -8.3      1.954      2.797
  Name = 
  2 active torsions:
  status: ('A' for Active; 'I' for Inactive)
    1  A    between atoms: C_2  and  C_21
    2  A    between atoms: C_6  and  N_23
                            x       y       z     vdW  Elec       q    Type
                         _______ _______ _______ _____ _____    ______ ____

>  <TORSDO>
F 2

$$$$
=
 OpenBabel10272400513D

 25 28  0  0  1  0  0  0  0  0999 V2000
  184.1100  178.4140  143.0300 C   0  0  0  0  0  0  0  0  0  0  0  0
  185.0120  178.2910  144.0870 C   0  0  0  0  0  0  0  0  0  0  0  0
  182.3970  179.2200  144.5070 C   0  0  0  0  0  3  0  0  0  0  0  0
  184.2320  178.0330  141.5990 C   0  0  1  0  0  3  0  0  0  0  0  0
  183.7330  179.0550  138.9520 C   0  0  0  0  0  3  0  0  0  0  0  0
  183.2780  179.1200  145.5450 N   0  0  0  0  0  0  0  0  0  0  0  0
  182.8710  178.4620  141.1120 C   0  0  0  0  0  0  0  0  0  0  0  0
  182.6600  178.7290  139.6870 C   0  0  0  0  0  3  0  0  0  0  0  0
  185.4770  178.6330  146.5650 C   0  0  2  0  0  3  0  0  0  0  0  0
  185.9820  179.9130  146.7950 O   0  0  0  0  0  1  0  0  0  0  0  0
  186.3820  177.7160  143.8590 C   0  0  0  0  0  2  0  0  0  0  0  0
  185.0750  179.1880  139.5790 C   0  0  0  0  0  3  0  0  0  0  0  0
  182.8260  178.8440  143.2400 C   0  0  0  0  0  0  0  0  0  0  0  0
  182.0790  178.9090  142.0360 N   0  0  0  0  0  0  0  0  0  0  0  0
  186.6320  177.6550  146.3630 C   0  0  0  0  0  2  0  0  0  0  0  0
  185.3020  178.7730  140.8370 C   0  0  0  0  0  3  0  0  0  0  0  0
  187.2250  177.8570  145.0480 N   0  0  0  0  0  0  0  0  0  0  0  0
  184.5570  178.6600  145.3780 C   0  0  0  0  0  0  0  0  0  0  0  0
  188.6450  178.0060  144.9530 C   0  0  0  0  0  3  0  0  0  0  0  0
  189.2800  177.8790  143.8160 C   0  0  0  0  0  0  0  0  0  0  0  0
  189.9070  177.7530  142.6790 C   0  0  0  0  0  0  0  0  0  0  0  0
  189.1720  177.7090  141.5000 O   0  0  0  0  0  1  0  0  0  0  0  0
  191.3720  177.6580  142.6350 C   0  0  0  0  0  0  0  0  0  0  0  0
  192.0220  177.2890  141.4630 O   0  0  0  0  0  0  0  0  0  0  0  0
  192.0490  177.9110  143.6650 O   0  0  0  0  0  1  0  0  0  0  0  0
  1 13  2  0  0  0  0
  1  2  1  0  0  0  0
  2 18  2  0  0  0  0
  3  6  2  0  0  0  0
  4 16  1  6  0  0  0
  4  1  1  0  0  0  0
  5 12  1  0  0  0  0
  5  8  2  0  0  0  0
  7  4  1  0  0  0  0
  7 14  2  0  0  0  0
  8  7  1  0  0  0  0
  9 10  1  6  0  0  0
 11  2  1  0  0  0  0
 11 17  1  0  0  0  0
 12 16  2  0  0  0  0
 13  3  1  0  0  0  0
 14 13  1  0  0  0  0
 15  9  1  0  0  0  0
 17 15  1  0  0  0  0
 18  6  1  0  0  0  0
 18  9  1  0  0  0  0
 19 17  1  0  0  0  0
 20 19  2  0  0  0  0
 21 20  2  0  0  0  0
 22 21  1  0  0  0  0
 23 21  1  0  0  0  0
 23 25  1  0  0  0  0
 24 23  2  0  0  0  0
M  END
>  <MODEL>
6

>  <REMARK>
 VINA RESULT:      -8.3      3.012      5.290
  Name = 
  2 active torsions:
  status: ('A' for Active; 'I' for Inactive)
    1  A    between atoms: C_2  and  C_21
    2  A    between atoms: C_6  and  N_23
                            x       y       z     vdW  Elec       q    Type
                         _______ _______ _______ _____ _____    ______ ____

>  <TORSDO>
F 2

$$$$
=
 OpenBabel10272400513D

 25 28  0  0  1  0  0  0  0  0999 V2000
  188.6020  177.6580  145.5420 C   0  0  0  0  0  0  0  0  0  0  0  0
  187.2970  178.1400  145.4370 C   0  0  0  0  0  0  0  0  0  0  0  0
  188.4460  177.5800  147.9360 C   0  0  0  0  0  3  0  0  0  0  0  0
  189.6430  177.4420  144.5040 C   0  0  1  0  0  3  0  0  0  0  0  0
  191.5770  175.4910  143.6360 C   0  0  0  0  0  3  0  0  0  0  0  0
  187.1620  178.0350  147.8430 N   0  0  0  0  0  0  0  0  0  0  0  0
  190.7580  176.9240  145.3770 C   0  0  0  0  0  0  0  0  0  0  0  0
  191.8380  176.1310  144.7850 C   0  0  0  0  0  3  0  0  0  0  0  0
  185.1390  178.7730  146.6270 C   0  0  2  0  0  3  0  0  0  0  0  0
  184.3040  177.6620  146.7490 O   0  0  0  0  0  1  0  0  0  0  0  0
  186.7240  178.5120  144.0980 C   0  0  0  0  0  2  0  0  0  0  0  0
  190.2240  175.5480  143.0210 C   0  0  0  0  0  3  0  0  0  0  0  0
  189.1700  177.4080  146.7630 C   0  0  0  0  0  0  0  0  0  0  0  0
  190.4950  176.9140  146.6470 N   0  0  0  0  0  0  0  0  0  0  0  0
  184.7960  179.5360  145.3500 C   0  0  0  0  0  2  0  0  0  0  0  0
  189.2930  176.4100  143.4610 C   0  0  0  0  0  3  0  0  0  0  0  0
  185.2930  178.8060  144.1920 N   0  0  0  0  0  0  0  0  0  0  0  0
  186.5740  178.3290  146.6420 C   0  0  0  0  0  0  0  0  0  0  0  0
  184.4000  178.5620  143.1010 C   0  0  0  0  0  3  0  0  0  0  0  0
  184.7830  178.6670  141.8550 C   0  0  0  0  0  0  0  0  0  0  0  0
  185.1730  178.7710  140.6140 C   0  0  0  0  0  0  0  0  0  0  0  0
  186.5290  178.8870  140.3360 O   0  0  0  0  0  1  0  0  0  0  0  0
  184.1960  178.7660  139.5170 C   0  0  0  0  0  0  0  0  0  0  0  0
  183.6690  179.9580  139.0320 O   0  0  0  0  0  1  0  0  0  0  0  0
  183.8310  177.6750  139.0070 O   0  0  0  0  0  0  0  0  0  0  0  0
  1 13  1  0  0  0  0
  2  1  2  0  0  0  0
  2 18  1  0  0  0  0
  4 16  1  6  0  0  0
  4  7  1  0  0  0  0
  4  1  1  0  0  0  0
  5  8  2  0  0  0  0
  6  3  1  0  0  0  0
  7 14  2  0  0  0  0
  8  7  1  0  0  0  0
  9 18  1  0  0  0  0
  9 10  1  6  0  0  0
 11 17  1  0  0  0  0
 11  2  1  0  0  0  0
 12 16  2  0  0  0  0
 12  5  1  0  0  0  0
 13  3  2  0  0  0  0
 14 13  1  0  0  0  0
 15  9  1  0  0  0  0
 17 15  1  0  0  0  0
 18  6  2  0  0  0  0
 19 17  1  0  0  0  0
 20 19  2  0  0  0  0
 21 20  2  0  0  0  0
 22 21  1  0  0  0  0
 23 21  1  0  0  0  0
 24 23  1  0  0  0  0
 25 23  2  0  0  0  0
M  END
>  <MODEL>
7

>  <REMARK>
 VINA RESULT:      -8.3      2.507      5.133
  Name = 
  2 active torsions:
  status: ('A' for Active; 'I' for Inactive)
    1  A    between atoms: C_2  and  C_21
    2  A    between atoms: C_6  and  N_23
                            x       y       z     vdW  Elec       q    Type
                         _______ _______ _______ _____ _____    ______ ____

>  <TORSDO>
F 2

$$$$
=
 OpenBabel10272400513D

 25 28  0  0  1  0  0  0  0  0999 V2000
  190.0080  177.6550  144.5100 C   0  0  0  0  0  0  0  0  0  0  0  0
  189.0520  177.7850  145.5170 C   0  0  0  0  0  0  0  0  0  0  0  0
  191.5780  176.6770  146.0410 C   0  0  0  0  0  3  0  0  0  0  0  0
  189.9950  178.1080  143.0940 C   0  0  1  0  0  3  0  0  0  0  0  0
  190.5920  177.1790  140.4340 C   0  0  0  0  0  3  0  0  0  0  0  0
  190.6430  176.7840  147.0300 N   0  0  0  0  0  0  0  0  0  0  0  0
  191.3550  177.6170  142.6660 C   0  0  0  0  0  0  0  0  0  0  0  0
  191.6360  177.4030  141.2440 C   0  0  0  0  0  3  0  0  0  0  0  0
  188.4190  177.3600  147.9450 C   0  0  2  0  0  3  0  0  0  0  0  0
  187.8260  176.1040  148.0820 O   0  0  0  0  0  1  0  0  0  0  0  0
  187.7350  178.4540  145.2400 C   0  0  0  0  0  2  0  0  0  0  0  0
  189.2090  177.1010  140.9750 C   0  0  0  0  0  3  0  0  0  0  0  0
  191.2490  177.1360  144.7720 C   0  0  0  0  0  0  0  0  0  0  0  0
  192.0630  177.0800  143.6110 N   0  0  0  0  0  0  0  0  0  0  0  0
  187.3390  178.4160  147.7250 C   0  0  0  0  0  2  0  0  0  0  0  0
  188.9310  177.4710  142.2370 C   0  0  0  0  0  3  0  0  0  0  0  0
  186.8150  178.3110  146.3700 N   0  0  0  0  0  0  0  0  0  0  0  0
  189.4060  177.3300  146.8130 C   0  0  0  0  0  0  0  0  0  0  0  0
  185.3980  178.2560  146.1860 C   0  0  0  0  0  3  0  0  0  0  0  0
  184.8450  178.4150  145.0110 C   0  0  0  0  0  0  0  0  0  0  0  0
  184.3000  178.5720  143.8360 C   0  0  0  0  0  0  0  0  0  0  0  0
  185.1080  178.5560  142.7060 O   0  0  0  0  0  1  0  0  0  0  0  0
  182.8500  178.7630  143.6990 C   0  0  0  0  0  0  0  0  0  0  0  0
  182.2740  178.9380  142.4450 O   0  0  0  0  0  0  0  0  0  0  0  0
  182.1180  178.7690  144.7230 O   0  0  0  0  0  1  0  0  0  0  0  0
  1 13  2  0  0  0  0
  1  2  1  0  0  0  0
  2 18  2  0  0  0  0
  3  6  2  0  0  0  0
  4 16  1  6  0  0  0
  4  1  1  0  0  0  0
  5 12  1  0  0  0  0
  5  8  2  0  0  0  0
  7  4  1  0  0  0  0
  7 14  2  0  0  0  0
  8  7  1  0  0  0  0
  9 10  1  6  0  0  0
 11  2  1  0  0  0  0
 11 17  1  0  0  0  0
 12 16  2  0  0  0  0
 13  3  1  0  0  0  0
 14 13  1  0  0  0  0
 15  9  1  0  0  0  0
 17 15  1  0  0  0  0
 18  6  1  0  0  0  0
 18  9  1  0  0  0  0
 19 17  1  0  0  0  0
 20 19  2  0  0  0  0
 21 20  2  0  0  0  0
 22 21  1  0  0  0  0
 23 21  1  0  0  0  0
 23 25  1  0  0  0  0
 24 23  2  0  0  0  0
M  END
>  <MODEL>
8

>  <REMARK>
 VINA RESULT:      -8.2      2.631      5.819
  Name = 
  2 active torsions:
  status: ('A' for Active; 'I' for Inactive)
    1  A    between atoms: C_2  and  C_21
    2  A    between atoms: C_6  and  N_23
                            x       y       z     vdW  Elec       q    Type
                         _______ _______ _______ _____ _____    ______ ____

>  <TORSDO>
F 2

$$$$
=
 OpenBabel10272400513D

 25 28  0  0  1  0  0  0  0  0999 V2000
  184.4090  178.8550  143.4060 C   0  0  0  0  0  0  0  0  0  0  0  0
  184.2360  178.8660  142.0220 C   0  0  0  0  0  0  0  0  0  0  0  0
  182.0350  178.8550  143.7640 C   0  0  0  0  0  3  0  0  0  0  0  0
  185.6420  178.9450  144.2320 C   0  0  1  0  0  3  0  0  0  0  0  0
  186.9220  177.7100  146.4970 C   0  0  0  0  0  3  0  0  0  0  0  0
  181.8540  178.8490  142.4110 N   0  0  0  0  0  0  0  0  0  0  0  0
  185.0240  178.8760  145.6050 C   0  0  0  0  0  0  0  0  0  0  0  0
  185.8390  178.4600  146.7490 C   0  0  0  0  0  3  0  0  0  0  0  0
  182.6180  178.8040  140.0590 C   0  0  2  0  0  3  0  0  0  0  0  0
  182.3480  177.4860  139.6900 O   0  0  0  0  0  1  0  0  0  0  0  0
  185.4220  178.9550  141.1030 C   0  0  0  0  0  2  0  0  0  0  0  0
  187.2460  177.2790  145.1110 C   0  0  0  0  0  3  0  0  0  0  0  0
  183.3340  178.8740  144.2560 C   0  0  0  0  0  0  0  0  0  0  0  0
  183.7280  178.8450  145.6190 N   0  0  0  0  0  0  0  0  0  0  0  0
  183.7840  179.3400  139.2320 C   0  0  0  0  0  2  0  0  0  0  0  0
  186.6090  177.8030  144.0500 C   0  0  0  0  0  3  0  0  0  0  0  0
  185.0320  178.7580  139.7060 N   0  0  0  0  0  0  0  0  0  0  0  0
  182.9050  178.8660  141.5320 C   0  0  0  0  0  0  0  0  0  0  0  0
  185.9210  178.1740  138.7500 C   0  0  0  0  0  3  0  0  0  0  0  0
  185.4850  177.6090  137.6540 C   0  0  0  0  0  0  0  0  0  0  0  0
  185.0430  177.0480  136.5620 C   0  0  0  0  0  0  0  0  0  0  0  0
  183.7140  177.2250  136.1970 O   0  0  0  0  0  1  0  0  0  0  0  0
  185.9330  176.2380  135.7190 C   0  0  0  0  0  0  0  0  0  0  0  0
  187.3130  176.3130  135.8700 O   0  0  0  0  0  1  0  0  0  0  0  0
  185.4460  175.4670  134.8510 O   0  0  0  0  0  0  0  0  0  0  0  0
  1  4  1  0  0  0  0
  1 13  1  0  0  0  0
  2  1  2  0  0  0  0
  3 13  2  0  0  0  0
  4 16  1  6  0  0  0
  4  7  1  0  0  0  0
  5  8  2  0  0  0  0
  6  3  1  0  0  0  0
  7 14  2  0  0  0  0
  7  8  1  0  0  0  0
  9 10  1  6  0  0  0
  9 18  1  0  0  0  0
 11  2  1  0  0  0  0
 12  5  1  0  0  0  0
 13 14  1  0  0  0  0
 15 17  1  0  0  0  0
 15  9  1  0  0  0  0
 16 12  2  0  0  0  0
 17 11  1  0  0  0  0
 18  2  1  0  0  0  0
 18  6  2  0  0  0  0
 19 17  1  0  0  0  0
 20 19  2  0  0  0  0
 21 20  2  0  0  0  0
 22 21  1  0  0  0  0
 23 24  1  0  0  0  0
 23 21  1  0  0  0  0
 25 23  2  0  0  0  0
M  END
>  <MODEL>
9

>  <REMARK>
 VINA RESULT:      -8.1      3.727      5.789
  Name = 
  2 active torsions:
  status: ('A' for Active; 'I' for Inactive)
    1  A    between atoms: C_2  and  C_21
    2  A    between atoms: C_6  and  N_23
                            x       y       z     vdW  Elec       q    Type
                         _______ _______ _______ _____ _____    ______ ____

>  <TORSDO>
F 2

$$$$
