=
 OpenBabel10272413423D

 30 35  0  0  1  0  0  0  0  0999 V2000
  188.1950  179.0150  138.5320 C   0  0  0  0  0  2  0  0  0  0  0  0
  186.8900  177.3230  143.7600 N   0  0  0  0  0  2  0  0  0  0  0  0
  188.2180  177.8550  139.4400 N   0  0  0  0  0  0  0  0  0  0  0  0
  188.9680  178.7490  137.2410 C   0  0  0  0  0  2  0  0  0  0  0  0
  189.3910  175.1330  137.0080 C   0  0  0  0  0  2  0  0  0  0  0  0
  190.7390  177.6720  140.4920 C   0  0  1  0  0  3  0  0  0  0  0  0
  188.5330  176.2440  137.6140 C   0  0  2  0  0  3  0  0  0  0  0  0
  189.4200  177.0620  135.5380 N   0  0  0  0  0  2  0  0  0  0  0  0
  190.0480  177.0750  141.7080 C   0  0  1  0  0  3  0  0  0  0  0  0
  187.8940  176.7400  142.9440 C   0  0  0  0  0  0  0  0  0  0  0  0
  188.5230  177.4300  136.6160 C   0  0  2  0  0  3  0  0  0  0  0  0
  188.9340  176.6360  139.0530 C   0  0  1  0  0  3  0  0  0  0  0  0
  191.1270  177.4100  143.0980 S   0  0  0  0  0  0  0  0  0  0  0  0
  192.1260  177.8240  140.6890 O   0  0  0  0  0  0  0  0  0  0  0  0
  190.7480  175.1810  134.9880 N   0  0  0  0  0  2  0  0  0  0  0  0
  186.5400  178.7110  143.5280 C   0  0  2  0  0  3  0  0  0  0  0  0
  185.5730  179.1720  144.5970 C   0  0  0  0  0  1  0  0  0  0  0  0
  189.8620  175.7360  135.7450 C   0  0  0  0  0  0  0  0  0  0  0  0
  187.7330  178.0070  140.7940 C   0  0  0  0  0  0  0  0  0  0  0  0
  188.1140  175.5010  143.0040 O   0  0  0  0  0  0  0  0  0  0  0  0
  188.6290  177.6200  141.9740 C   0  0  2  0  0  3  0  0  0  0  0  0
  192.4650  177.2060  141.9030 C   0  0  0  0  0  2  0  0  0  0  0  0
  191.0810  175.5890  139.3490 O   0  0  0  0  0  1  0  0  0  0  0  0
  185.9270  178.8420  142.2490 O   0  0  0  0  0  0  0  0  0  0  0  0
  186.4900  178.5430  140.9880 C   0  0  0  0  0  0  0  0  0  0  0  0
  190.4500  176.8310  139.2450 C   0  0  2  0  0  3  0  0  0  0  0  0
  185.6730  178.7990  139.8420 N   0  0  0  0  0  2  0  0  0  0  0  0
  183.7020  178.3470  138.5130 C   0  0  0  0  0  2  0  0  0  0  0  0
  184.2240  178.7040  139.8890 C   0  0  0  0  0  3  0  0  0  0  0  0
  183.6270  179.7770  139.0040 C   0  0  0  0  0  2  0  0  0  0  0  0
  1  3  1  0  0  0  0
  3 19  1  0  0  0  0
  4  1  1  0  0  0  0
  6 14  1  1  0  0  0
  6  9  1  0  0  0  0
  7  5  1  6  0  0  0
  7 12  1  0  0  0  0
  8 18  1  0  0  0  0
  8 11  1  0  0  0  0
  9 21  1  0  0  0  0
  9 13  1  1  0  0  0
 10 20  2  0  0  0  0
 10  2  1  0  0  0  0
 11  4  1  1  0  0  0
 11  7  1  0  0  0  0
 12 26  1  0  0  0  0
 12  3  1  6  0  0  0
 14 22  1  0  0  0  0
 15 18  2  0  0  0  0
 16  2  1  0  0  0  0
 16 17  1  1  0  0  0
 18  5  1  0  0  0  0
 19 25  2  0  0  0  0
 21 19  1  6  0  0  0
 21 10  1  0  0  0  0
 22 13  1  0  0  0  0
 24 16  1  0  0  0  0
 25 24  1  0  0  0  0
 26 23  1  1  0  0  0
 26  6  1  0  0  0  0
 27 29  1  0  0  0  0
 27 25  1  0  0  0  0
 28 30  1  0  0  0  0
 28 29  1  0  0  0  0
 30 29  1  0  0  0  0
M  END
>  <MODEL>
1

>  <REMARK>
 VINA RESULT:      -6.3      0.000      0.000
  Name = 
  2 active torsions:
  status: ('A' for Active; 'I' for Inactive)
    1  A    between atoms: C_14  and  N_22
    2  A    between atoms: N_22  and  C_29
                            x       y       z     vdW  Elec       q    Type
                         _______ _______ _______ _____ _____    ______ ____

>  <TORSDO>
F 2

$$$$
=
 OpenBabel10272413423D

 30 35  0  0  1  0  0  0  0  0999 V2000
  187.8190  178.7450  138.9070 C   0  0  0  0  0  2  0  0  0  0  0  0
  188.2290  176.6090  144.1190 N   0  0  0  0  0  2  0  0  0  0  0  0
  188.2240  177.5490  139.6670 N   0  0  0  0  0  0  0  0  0  0  0  0
  188.2230  178.6540  137.4370 C   0  0  0  0  0  2  0  0  0  0  0  0
  188.9610  175.1440  136.7730 C   0  0  0  0  0  2  0  0  0  0  0  0
  190.9430  177.6400  139.9740 C   0  0  1  0  0  3  0  0  0  0  0  0
  188.1900  176.0980  137.6870 C   0  0  2  0  0  3  0  0  0  0  0  0
  188.3620  177.1390  135.5300 N   0  0  0  0  0  2  0  0  0  0  0  0
  190.6920  176.8920  141.2720 C   0  0  1  0  0  3  0  0  0  0  0  0
  189.0220  176.2100  143.0120 C   0  0  0  0  0  0  0  0  0  0  0  0
  187.7690  177.3250  136.8390 C   0  0  2  0  0  3  0  0  0  0  0  0
  188.9330  176.4580  138.9920 C   0  0  1  0  0  3  0  0  0  0  0  0
  192.0730  177.2880  142.3420 S   0  0  0  0  0  0  0  0  0  0  0  0
  192.3040  177.9620  139.7990 O   0  0  0  0  0  0  0  0  0  0  0  0
  189.6820  175.4820  134.4740 N   0  0  0  0  0  2  0  0  0  0  0  0
  187.6770  177.9500  144.1170 C   0  0  2  0  0  3  0  0  0  0  0  0
  187.0040  178.2200  145.4450 C   0  0  0  0  0  1  0  0  0  0  0  0
  188.9880  175.8720  135.4890 C   0  0  0  0  0  0  0  0  0  0  0  0
  188.1240  177.5610  141.1100 C   0  0  0  0  0  0  0  0  0  0  0  0
  189.3850  175.0090  142.8990 O   0  0  0  0  0  0  0  0  0  0  0  0
  189.3530  177.2310  141.9620 C   0  0  2  0  0  3  0  0  0  0  0  0
  193.0360  177.3270  140.8150 C   0  0  0  0  0  2  0  0  0  0  0  0
  191.1790  175.6870  138.5980 O   0  0  0  0  0  1  0  0  0  0  0  0
  186.7190  178.0700  143.0690 O   0  0  0  0  0  0  0  0  0  0  0  0
  186.9350  177.9180  141.6810 C   0  0  0  0  0  0  0  0  0  0  0  0
  190.4100  176.8400  138.7810 C   0  0  2  0  0  3  0  0  0  0  0  0
  185.8060  178.1280  140.8280 N   0  0  0  0  0  2  0  0  0  0  0  0
  183.4360  178.6040  140.9500 C   0  0  0  0  0  2  0  0  0  0  0  0
  184.8320  179.1770  141.0780 C   0  0  0  0  0  3  0  0  0  0  0  0
  184.0280  179.4180  139.8190 C   0  0  0  0  0  2  0  0  0  0  0  0
  1  3  1  0  0  0  0
  3 19  1  0  0  0  0
  4  1  1  0  0  0  0
  6 14  1  6  0  0  0
  6  9  1  0  0  0  0
  7  5  1  6  0  0  0
  7 12  1  0  0  0  0
  8 11  1  0  0  0  0
  9 21  1  0  0  0  0
  9 13  1  1  0  0  0
 10  2  1  0  0  0  0
 11  4  1  1  0  0  0
 11  7  1  0  0  0  0
 12  3  1  6  0  0  0
 14 22  1  0  0  0  0
 15 18  2  0  0  0  0
 16  2  1  0  0  0  0
 16 17  1  1  0  0  0
 18  8  1  0  0  0  0
 18  5  1  0  0  0  0
 19 25  2  0  0  0  0
 20 10  2  0  0  0  0
 21 19  1  6  0  0  0
 21 10  1  0  0  0  0
 22 13  1  0  0  0  0
 24 16  1  0  0  0  0
 25 24  1  0  0  0  0
 26 23  1  1  0  0  0
 26 12  1  0  0  0  0
 26  6  1  0  0  0  0
 27 29  1  0  0  0  0
 27 25  1  0  0  0  0
 28 29  1  0  0  0  0
 30 28  1  0  0  0  0
 30 29  1  0  0  0  0
M  END
>  <MODEL>
2

>  <REMARK>
 VINA RESULT:      -5.1      1.047      1.119
  Name = 
  2 active torsions:
  status: ('A' for Active; 'I' for Inactive)
    1  A    between atoms: C_14  and  N_22
    2  A    between atoms: N_22  and  C_29
                            x       y       z     vdW  Elec       q    Type
                         _______ _______ _______ _____ _____    ______ ____

>  <TORSDO>
F 2

$$$$
=
 OpenBabel10272413423D

 30 35  0  0  1  0  0  0  0  0999 V2000
  183.0020  175.9620  138.6020 C   0  0  0  0  0  2  0  0  0  0  0  0
  187.6970  176.3220  135.4840 N   0  0  0  0  0  2  0  0  0  0  0  0
  183.8880  176.9090  137.9040 N   0  0  0  0  0  0  0  0  0  0  0  0
  181.9660  176.6770  139.4690 C   0  0  0  0  0  2  0  0  0  0  0  0
  181.8720  180.1420  138.3330 C   0  0  0  0  0  2  0  0  0  0  0  0
  185.5780  177.9940  139.7650 C   0  0  1  0  0  3  0  0  0  0  0  0
  182.2210  178.7110  137.9210 C   0  0  2  0  0  3  0  0  0  0  0  0
  180.4540  178.5900  139.5430 N   0  0  0  0  0  2  0  0  0  0  0  0
  186.5670  178.1000  138.6160 C   0  0  1  0  0  3  0  0  0  0  0  0
  187.1820  177.3610  136.3020 C   0  0  0  0  0  0  0  0  0  0  0  0
  181.2500  177.7570  138.6630 C   0  0  2  0  0  3  0  0  0  0  0  0
  183.7130  178.3520  138.0940 C   0  0  1  0  0  3  0  0  0  0  0  0
  188.1940  178.0790  139.3650 S   0  0  0  0  0  0  0  0  0  0  0  0
  186.1380  178.4080  140.9900 O   0  0  0  0  0  0  0  0  0  0  0  0
  180.2890  180.9020  140.0180 N   0  0  0  0  0  2  0  0  0  0  0  0
  187.3730  174.9520  135.8340 C   0  0  2  0  0  3  0  0  0  0  0  0
  188.1420  174.0070  134.9360 C   0  0  0  0  0  1  0  0  0  0  0  0
  180.7780  179.9440  139.3050 C   0  0  0  0  0  0  0  0  0  0  0  0
  185.0620  176.4090  137.2230 C   0  0  0  0  0  0  0  0  0  0  0  0
  187.3040  178.5630  135.9440 O   0  0  0  0  0  0  0  0  0  0  0  0
  186.4410  176.9880  137.5530 C   0  0  2  0  0  3  0  0  0  0  0  0
  187.4020  178.9610  140.7270 C   0  0  0  0  0  2  0  0  0  0  0  0
  184.5780  180.1510  139.4390 O   0  0  0  0  0  1  0  0  0  0  0  0
  185.9760  174.7330  135.6640 O   0  0  0  0  0  0  0  0  0  0  0  0
  184.9130  175.3870  136.3270 C   0  0  0  0  0  0  0  0  0  0  0  0
  184.3020  178.7810  139.4510 C   0  0  2  0  0  3  0  0  0  0  0  0
  183.5890  174.9540  136.0020 N   0  0  0  0  0  2  0  0  0  0  0  0
  182.0240  173.1390  136.3330 C   0  0  0  0  0  2  0  0  0  0  0  0
  183.2930  173.5800  135.6350 C   0  0  0  0  0  3  0  0  0  0  0  0
  183.3710  172.7080  136.8700 C   0  0  0  0  0  2  0  0  0  0  0  0
  1  4  1  0  0  0  0
  2 16  1  0  0  0  0
  2 10  1  0  0  0  0
  3  1  1  0  0  0  0
  5 18  1  0  0  0  0
  6 14  1  1  0  0  0
  7 12  1  0  0  0  0
  7  5  1  1  0  0  0
  7 11  1  0  0  0  0
  9 13  1  1  0  0  0
  9  6  1  0  0  0  0
 11  4  1  1  0  0  0
 11  8  1  0  0  0  0
 12  3  1  1  0  0  0
 12 26  1  0  0  0  0
 13 22  1  0  0  0  0
 16 17  1  6  0  0  0
 18  8  1  0  0  0  0
 18 15  2  0  0  0  0
 19 21  1  0  0  0  0
 19  3  1  0  0  0  0
 20 10  2  0  0  0  0
 21 10  1  6  0  0  0
 21  9  1  0  0  0  0
 22 14  1  0  0  0  0
 24 16  1  0  0  0  0
 24 25  1  0  0  0  0
 25 19  2  0  0  0  0
 26 23  1  6  0  0  0
 26  6  1  0  0  0  0
 27 25  1  0  0  0  0
 28 30  1  0  0  0  0
 29 27  1  0  0  0  0
 29 28  1  0  0  0  0
 29 30  1  0  0  0  0
M  END
>  <MODEL>
3

>  <REMARK>
 VINA RESULT:      -5.0      3.664      7.401
  Name = 
  2 active torsions:
  status: ('A' for Active; 'I' for Inactive)
    1  A    between atoms: C_14  and  N_22
    2  A    between atoms: N_22  and  C_29
                            x       y       z     vdW  Elec       q    Type
                         _______ _______ _______ _____ _____    ______ ____

>  <TORSDO>
F 2

$$$$
=
 OpenBabel10272413423D

 30 35  0  0  1  0  0  0  0  0999 V2000
  185.1920  179.3030  138.7090 C   0  0  0  0  0  2  0  0  0  0  0  0
  188.4980  175.1980  136.6800 N   0  0  0  0  0  2  0  0  0  0  0  0
  185.2820  177.8460  138.5120 N   0  0  0  0  0  0  0  0  0  0  0  0
  183.8010  179.7350  139.1680 C   0  0  0  0  0  2  0  0  0  0  0  0
  182.1230  176.7290  140.3750 C   0  0  0  0  0  2  0  0  0  0  0  0
  183.8810  177.2240  136.2440 C   0  0  1  0  0  3  0  0  0  0  0  0
  183.4880  177.3690  140.1180 C   0  0  2  0  0  3  0  0  0  0  0  0
  181.9440  179.1340  140.6320 N   0  0  0  0  0  2  0  0  0  0  0  0
  184.8750  176.0840  136.0970 C   0  0  1  0  0  3  0  0  0  0  0  0
  187.0840  175.1250  136.7890 C   0  0  0  0  0  0  0  0  0  0  0  0
  183.3470  178.8940  140.3580 C   0  0  2  0  0  3  0  0  0  0  0  0
  184.1100  177.0000  138.7540 C   0  0  1  0  0  3  0  0  0  0  0  0
  184.9340  175.7080  134.3470 S   0  0  0  0  0  0  0  0  0  0  0  0
  182.9840  177.2920  135.1590 O   0  0  0  0  0  0  0  0  0  0  0  0
  179.9910  177.8120  140.8290 N   0  0  0  0  0  2  0  0  0  0  0  0
  189.1070  176.5080  136.5530 C   0  0  2  0  0  3  0  0  0  0  0  0
  190.5900  176.3500  136.2960 C   0  0  0  0  0  1  0  0  0  0  0  0
  181.2720  177.8930  140.6940 C   0  0  0  0  0  0  0  0  0  0  0  0
  186.4510  177.2910  137.8660 C   0  0  0  0  0  0  0  0  0  0  0  0
  186.5300  174.0270  137.0600 O   0  0  0  0  0  0  0  0  0  0  0  0
  186.2880  176.3890  136.6380 C   0  0  2  0  0  3  0  0  0  0  0  0
  183.1870  176.1590  134.3540 C   0  0  0  0  0  2  0  0  0  0  0  0
  182.2820  175.9980  137.5490 O   0  0  0  0  0  1  0  0  0  0  0  0
  188.9130  177.2440  137.7570 O   0  0  0  0  0  0  0  0  0  0  0  0
  187.6860  177.6270  138.3440 C   0  0  0  0  0  0  0  0  0  0  0  0
  183.1270  177.1110  137.5730 C   0  0  2  0  0  3  0  0  0  0  0  0
  187.7630  178.4010  139.5450 N   0  0  0  0  0  2  0  0  0  0  0  0
  187.1050  178.5560  141.8680 C   0  0  0  0  0  2  0  0  0  0  0  0
  187.9220  177.7860  140.8520 C   0  0  0  0  0  3  0  0  0  0  0  0
  188.6010  178.7680  141.7830 C   0  0  0  0  0  2  0  0  0  0  0  0
  1  4  1  0  0  0  0
  2 10  1  0  0  0  0
  3  1  1  0  0  0  0
  5 18  1  0  0  0  0
  6 14  1  6  0  0  0
  6 26  1  0  0  0  0
  7 11  1  0  0  0  0
  7  5  1  6  0  0  0
  8 18  1  0  0  0  0
  9 13  1  6  0  0  0
  9  6  1  0  0  0  0
  9 21  1  0  0  0  0
 10 20  2  0  0  0  0
 11  4  1  6  0  0  0
 11  8  1  0  0  0  0
 12  3  1  6  0  0  0
 12  7  1  0  0  0  0
 13 22  1  0  0  0  0
 16 17  1  1  0  0  0
 16  2  1  0  0  0  0
 16 24  1  0  0  0  0
 18 15  2  0  0  0  0
 19 25  2  0  0  0  0
 19  3  1  0  0  0  0
 21 10  1  1  0  0  0
 21 19  1  0  0  0  0
 22 14  1  0  0  0  0
 24 25  1  0  0  0  0
 25 27  1  0  0  0  0
 26 23  1  6  0  0  0
 26 12  1  0  0  0  0
 27 29  1  0  0  0  0
 29 30  1  0  0  0  0
 29 28  1  0  0  0  0
 30 28  1  0  0  0  0
M  END
>  <MODEL>
4

>  <REMARK>
 VINA RESULT:      -4.9      3.707      7.448
  Name = 
  2 active torsions:
  status: ('A' for Active; 'I' for Inactive)
    1  A    between atoms: C_14  and  N_22
    2  A    between atoms: N_22  and  C_29
                            x       y       z     vdW  Elec       q    Type
                         _______ _______ _______ _____ _____    ______ ____

>  <TORSDO>
F 2

$$$$
=
 OpenBabel10272413423D

 30 35  0  0  1  0  0  0  0  0999 V2000
  189.8440  176.0250  138.6020 C   0  0  0  0  0  2  0  0  0  0  0  0
  184.7860  178.0750  137.1480 N   0  0  0  0  0  2  0  0  0  0  0  0
  189.0220  176.4400  137.4520 N   0  0  0  0  0  0  0  0  0  0  0  0
  191.1310  175.3270  138.1650 C   0  0  0  0  0  2  0  0  0  0  0  0
  191.6160  176.1460  134.6440 C   0  0  0  0  0  2  0  0  0  0  0  0
  187.9250  174.1850  136.3550 C   0  0  1  0  0  3  0  0  0  0  0  0
  190.9520  176.6040  135.9430 C   0  0  2  0  0  3  0  0  0  0  0  0
  192.9410  175.3930  136.5310 N   0  0  0  0  0  2  0  0  0  0  0  0
  186.7730  175.0940  135.9590 C   0  0  1  0  0  3  0  0  0  0  0  0
  185.6180  177.2900  136.3080 C   0  0  0  0  0  0  0  0  0  0  0  0
  191.8620  176.1630  137.1180 C   0  0  2  0  0  3  0  0  0  0  0  0
  189.4790  176.1630  136.0870 C   0  0  1  0  0  3  0  0  0  0  0  0
  185.3360  174.0330  135.8220 S   0  0  0  0  0  0  0  0  0  0  0  0
  187.6840  172.8390  136.0120 O   0  0  0  0  0  0  0  0  0  0  0  0
  193.5930  174.7580  134.3460 N   0  0  0  0  0  2  0  0  0  0  0  0
  184.9250  177.9220  138.5830 C   0  0  2  0  0  3  0  0  0  0  0  0
  183.8500  178.7250  139.2820 C   0  0  0  0  0  1  0  0  0  0  0  0
  192.8200  175.4380  135.1240 C   0  0  0  0  0  0  0  0  0  0  0  0
  187.6730  176.9090  137.6790 C   0  0  0  0  0  0  0  0  0  0  0  0
  185.6430  177.5070  135.0670 O   0  0  0  0  0  0  0  0  0  0  0  0
  186.5030  176.2550  136.9400 C   0  0  2  0  0  3  0  0  0  0  0  0
  186.5090  172.7890  135.2440 C   0  0  0  0  0  2  0  0  0  0  0  0
  189.2080  174.5150  134.3540 O   0  0  0  0  0  1  0  0  0  0  0  0
  186.2060  178.3920  138.9920 O   0  0  0  0  0  0  0  0  0  0  0  0
  187.4710  177.9040  138.5950 C   0  0  0  0  0  0  0  0  0  0  0  0
  189.2370  174.6810  135.7410 C   0  0  2  0  0  3  0  0  0  0  0  0
  188.6160  178.5300  139.1830 N   0  0  0  0  0  2  0  0  0  0  0  0
  189.7020  177.9780  141.2740 C   0  0  0  0  0  2  0  0  0  0  0  0
  188.6750  178.8610  140.5970 C   0  0  0  0  0  3  0  0  0  0  0  0
  188.2280  177.6620  141.4060 C   0  0  0  0  0  2  0  0  0  0  0  0
  2 16  1  0  0  0  0
  3 19  1  0  0  0  0
  3  1  1  0  0  0  0
  4  1  1  0  0  0  0
  5 18  1  0  0  0  0
  6 14  1  6  0  0  0
  7  5  1  6  0  0  0
  7 12  1  0  0  0  0
  7 11  1  0  0  0  0
  8 11  1  0  0  0  0
  9 13  1  1  0  0  0
  9  6  1  0  0  0  0
  9 21  1  0  0  0  0
 10  2  1  0  0  0  0
 11  4  1  1  0  0  0
 12  3  1  1  0  0  0
 15 18  2  0  0  0  0
 16 24  1  0  0  0  0
 16 17  1  1  0  0  0
 18  8  1  0  0  0  0
 19 25  2  0  0  0  0
 20 10  2  0  0  0  0
 21 10  1  6  0  0  0
 21 19  1  0  0  0  0
 22 13  1  0  0  0  0
 22 14  1  0  0  0  0
 25 24  1  0  0  0  0
 25 27  1  0  0  0  0
 26 23  1  6  0  0  0
 26 12  1  0  0  0  0
 26  6  1  0  0  0  0
 27 29  1  0  0  0  0
 28 30  1  0  0  0  0
 29 28  1  0  0  0  0
 29 30  1  0  0  0  0
M  END
>  <MODEL>
5

>  <REMARK>
 VINA RESULT:      -4.7      3.305      5.491
  Name = 
  2 active torsions:
  status: ('A' for Active; 'I' for Inactive)
    1  A    between atoms: C_14  and  N_22
    2  A    between atoms: N_22  and  C_29
                            x       y       z     vdW  Elec       q    Type
                         _______ _______ _______ _____ _____    ______ ____

>  <TORSDO>
F 2

$$$$
=
 OpenBabel10272413423D

 30 35  0  0  1  0  0  0  0  0999 V2000
  187.8770  178.5990  138.0490 C   0  0  0  0  0  2  0  0  0  0  0  0
  190.5370  177.3770  142.8790 N   0  0  0  0  0  2  0  0  0  0  0  0
  188.4330  177.4910  138.8450 N   0  0  0  0  0  0  0  0  0  0  0  0
  187.4710  178.1500  136.6460 C   0  0  0  0  0  2  0  0  0  0  0  0
  187.2660  174.5090  136.7370 C   0  0  0  0  0  2  0  0  0  0  0  0
  190.9200  176.9190  137.8530 C   0  0  1  0  0  3  0  0  0  0  0  0
  187.2040  175.7760  137.5910 C   0  0  2  0  0  3  0  0  0  0  0  0
  186.4170  176.3410  135.3940 N   0  0  0  0  0  2  0  0  0  0  0  0
  191.2500  176.5020  139.2760 C   0  0  1  0  0  3  0  0  0  0  0  0
  190.6010  176.5960  141.6950 C   0  0  0  0  0  0  0  0  0  0  0  0
  186.5940  176.9030  136.7180 C   0  0  2  0  0  3  0  0  0  0  0  0
  188.5440  176.1520  138.2600 C   0  0  1  0  0  3  0  0  0  0  0  0
  193.0220  176.7030  139.4470 S   0  0  0  0  0  0  0  0  0  0  0  0
  192.0390  176.8380  137.0000 O   0  0  0  0  0  0  0  0  0  0  0  0
  186.7760  174.2380  134.3690 N   0  0  0  0  0  2  0  0  0  0  0  0
  190.2560  178.7930  142.7490 C   0  0  2  0  0  3  0  0  0  0  0  0
  190.3870  179.4590  144.1020 C   0  0  0  0  0  1  0  0  0  0  0  0
  186.7500  174.9680  135.4320 C   0  0  0  0  0  0  0  0  0  0  0  0
  189.0740  177.7810  140.1090 C   0  0  0  0  0  0  0  0  0  0  0  0
  190.6820  175.3410  141.7720 O   0  0  0  0  0  0  0  0  0  0  0  0
  190.5030  177.2950  140.3690 C   0  0  2  0  0  3  0  0  0  0  0  0
  193.0830  176.2210  137.7090 C   0  0  0  0  0  2  0  0  0  0  0  0
  190.1520  174.7630  137.1290 O   0  0  0  0  0  1  0  0  0  0  0  0
  188.9300  178.9750  142.2600 O   0  0  0  0  0  0  0  0  0  0  0  0
  188.3970  178.5310  141.0300 C   0  0  0  0  0  0  0  0  0  0  0  0
  189.7530  176.0900  137.3070 C   0  0  2  0  0  3  0  0  0  0  0  0
  187.0350  178.8770  140.7580 N   0  0  0  0  0  2  0  0  0  0  0  0
  184.6410  178.9900  141.0900 C   0  0  0  0  0  2  0  0  0  0  0  0
  185.9290  178.3150  141.5140 C   0  0  0  0  0  3  0  0  0  0  0  0
  185.3200  179.3970  142.3800 C   0  0  0  0  0  2  0  0  0  0  0  0
  1  3  1  0  0  0  0
  3 19  1  0  0  0  0
  4  1  1  0  0  0  0
  6 14  1  6  0  0  0
  6  9  1  0  0  0  0
  7  5  1  6  0  0  0
  7 12  1  0  0  0  0
  8 18  1  0  0  0  0
  8 11  1  0  0  0  0
  9 13  1  1  0  0  0
  9 21  1  0  0  0  0
 10 20  2  0  0  0  0
 10  2  1  0  0  0  0
 11  4  1  6  0  0  0
 11  7  1  0  0  0  0
 12  3  1  6  0  0  0
 14 22  1  0  0  0  0
 15 18  2  0  0  0  0
 16  2  1  0  0  0  0
 16 17  1  1  0  0  0
 18  5  1  0  0  0  0
 19 25  2  0  0  0  0
 21 19  1  6  0  0  0
 21 10  1  0  0  0  0
 22 13  1  0  0  0  0
 24 16  1  0  0  0  0
 25 24  1  0  0  0  0
 26 23  1  1  0  0  0
 26  6  1  0  0  0  0
 26 12  1  0  0  0  0
 27 25  1  0  0  0  0
 27 29  1  0  0  0  0
 28 29  1  0  0  0  0
 28 30  1  0  0  0  0
 29 30  1  0  0  0  0
M  END
>  <MODEL>
6

>  <REMARK>
 VINA RESULT:      -4.7      2.247      2.895
  Name = 
  2 active torsions:
  status: ('A' for Active; 'I' for Inactive)
    1  A    between atoms: C_14  and  N_22
    2  A    between atoms: N_22  and  C_29
                            x       y       z     vdW  Elec       q    Type
                         _______ _______ _______ _____ _____    ______ ____

>  <TORSDO>
F 2

$$$$
=
 OpenBabel10272413423D

 30 35  0  0  1  0  0  0  0  0999 V2000
  186.4030  173.5580  137.0460 C   0  0  0  0  0  2  0  0  0  0  0  0
  191.6440  174.3030  135.0790 N   0  0  0  0  0  2  0  0  0  0  0  0
  187.2520  174.4690  136.2600 N   0  0  1  0  0  0  0  0  0  0  0  0
  185.0380  174.1710  137.3580 C   0  0  0  0  0  2  0  0  0  0  0  0
  184.6070  176.9720  135.0600 C   0  0  0  0  0  2  0  0  0  0  0  0
  188.0700  176.4870  137.9200 C   0  0  1  0  0  3  0  0  0  0  0  0
  185.3360  175.6440  135.2740 C   0  0  2  0  0  3  0  0  0  0  0  0
  183.2280  175.5090  136.4170 N   0  0  0  0  0  2  0  0  0  0  0  0
  189.3130  176.5260  137.0470 C   0  0  1  0  0  3  0  0  0  0  0  0
  190.7170  175.3460  135.3400 C   0  0  0  0  0  0  0  0  0  0  0  0
  184.3960  174.7160  136.0850 C   0  0  2  0  0  3  0  0  0  0  0  0
  186.7500  175.7920  135.8760 C   0  0  1  0  0  3  0  0  0  0  0  0
  190.6170  177.1900  138.0810 S   0  0  0  0  0  0  0  0  0  0  0  0
  188.1500  177.3840  139.0030 O   0  0  0  0  0  0  0  0  0  0  0  0
  182.4800  177.7120  135.9830 N   0  0  0  0  0  2  0  0  0  0  0  0
  191.5060  173.0650  135.8200 C   0  0  2  0  0  3  0  0  0  0  0  0
  192.6750  172.1570  135.5060 C   0  0  0  0  0  1  0  0  0  0  0  0
  183.3360  176.7670  135.7830 C   0  0  0  0  0  0  0  0  0  0  0  0
  188.6490  174.1450  136.0690 C   0  0  1  0  0  3  0  0  0  0  0  0
  190.7020  176.3720  134.6080 O   0  0  0  0  0  0  0  0  0  0  0  0
  189.7270  175.1630  136.4540 C   0  0  2  0  0  3  0  0  0  0  0  0
  189.3020  178.1710  138.8330 C   0  0  0  0  0  2  0  0  0  0  0  0
  186.8090  178.0750  136.6360 O   0  0  0  0  0  1  0  0  0  0  0  0
  190.2930  172.4170  135.4480 O   0  0  0  0  0  0  0  0  0  0  0  0
  188.9750  172.9080  135.5900 C   0  0  0  0  0  0  0  0  0  0  0  0
  186.8160  176.7500  137.0810 C   0  0  2  0  0  3  0  0  0  0  0  0
  187.9180  172.0400  135.1690 N   0  0  0  0  0  0  0  0  0  0  0  0
  186.9250  169.9320  134.5180 C   0  0  0  0  0  2  0  0  0  0  0  0
  188.1750  170.7860  134.4820 C   0  0  0  0  0  3  0  0  0  0  0  0
  188.0640  169.6460  135.4710 C   0  0  0  0  0  2  0  0  0  0  0  0
  1  4  1  0  0  0  0
  2 10  1  0  0  0  0
  2 16  1  0  0  0  0
  3  1  1  1  0  0  0
  5 18  1  0  0  0  0
  6 14  1  1  0  0  0
  7  5  1  1  0  0  0
  7 12  1  0  0  0  0
  7 11  1  0  0  0  0
  9  6  1  0  0  0  0
  9 13  1  1  0  0  0
 10 21  1  0  0  0  0
 11  8  1  0  0  0  0
 11  4  1  1  0  0  0
 12  3  1  0  0  0  0
 12 26  1  0  0  0  0
 13 22  1  0  0  0  0
 17 16  1  0  0  0  0
 18 15  2  0  0  0  0
 18  8  1  0  0  0  0
 19  3  1  0  0  0  0
 19 21  1  0  0  0  0
 20 10  2  0  0  0  0
 21  9  1  0  0  0  0
 22 14  1  0  0  0  0
 23 26  1  0  0  0  0
 24 25  1  0  0  0  0
 24 16  1  0  0  0  0
 25 19  1  0  0  0  0
 26  6  1  0  0  0  0
 27 25  2  0  0  0  0
 28 30  1  0  0  0  0
 29 28  1  0  0  0  0
 29 27  1  0  0  0  0
 29 30  1  0  0  0  0
M  END
>  <MODEL>
7

>  <REMARK>
 VINA RESULT:      -4.6      3.861      7.541
  Name = 
  2 active torsions:
  status: ('A' for Active; 'I' for Inactive)
    1  A    between atoms: C_14  and  N_22
    2  A    between atoms: N_22  and  C_29
                            x       y       z     vdW  Elec       q    Type
                         _______ _______ _______ _____ _____    ______ ____

>  <TORSDO>
F 2

$$$$
=
 OpenBabel10272413423D

 30 35  0  0  1  0  0  0  0  0999 V2000
  185.0040  174.3030  136.9360 C   0  0  0  0  0  2  0  0  0  0  0  0
  189.1470  178.0520  137.7570 N   0  0  0  0  0  2  0  0  0  0  0  0
  185.3950  175.7040  136.7010 N   0  0  0  0  0  0  0  0  0  0  0  0
  183.5370  174.0510  136.5890 C   0  0  0  0  0  2  0  0  0  0  0  0
  182.4610  176.8530  134.5170 C   0  0  0  0  0  2  0  0  0  0  0  0
  184.2340  177.2310  138.6540 C   0  0  1  0  0  3  0  0  0  0  0  0
  183.6760  176.0510  134.9820 C   0  0  2  0  0  3  0  0  0  0  0  0
  181.7880  174.5680  134.9690 N   0  0  0  0  0  2  0  0  0  0  0  0
  185.4440  178.1350  138.4850 C   0  0  1  0  0  3  0  0  0  0  0  0
  187.7750  178.3780  137.5970 C   0  0  0  0  0  0  0  0  0  0  0  0
  183.2190  174.5850  135.1950 C   0  0  2  0  0  3  0  0  0  0  0  0
  184.4100  176.6650  136.1940 C   0  0  1  0  0  3  0  0  0  0  0  0
  185.6440  178.9840  140.0500 S   0  0  0  0  0  0  0  0  0  0  0  0
  183.3840  177.6670  139.6890 O   0  0  0  0  0  0  0  0  0  0  0  0
  180.1380  176.1470  134.3480 N   0  0  0  0  0  2  0  0  0  0  0  0
  189.4820  176.7400  138.2750 C   0  0  2  0  0  3  0  0  0  0  0  0
  190.9750  176.6580  138.5110 C   0  0  0  0  0  1  0  0  0  0  0  0
  181.3800  175.8480  134.5320 C   0  0  0  0  0  0  0  0  0  0  0  0
  186.6750  176.1710  137.1850 C   0  0  0  0  0  0  0  0  0  0  0  0
  187.4450  179.4390  137.0030 O   0  0  0  0  0  0  0  0  0  0  0  0
  186.7450  177.4040  138.0910 C   0  0  2  0  0  3  0  0  0  0  0  0
  183.8420  178.9190  140.1330 C   0  0  0  0  0  2  0  0  0  0  0  0
  182.8700  178.3250  137.0090 O   0  0  0  0  0  1  0  0  0  0  0  0
  189.0980  175.7420  137.3350 O   0  0  0  0  0  0  0  0  0  0  0  0
  187.7980  175.4640  136.8560 C   0  0  0  0  0  0  0  0  0  0  0  0
  183.4700  177.1050  137.3320 C   0  0  2  0  0  3  0  0  0  0  0  0
  187.6710  174.3760  135.9350 N   0  0  0  0  0  2  0  0  0  0  0  0
  187.6690  171.9640  135.7460 C   0  0  0  0  0  2  0  0  0  0  0  0
  188.5110  173.1930  136.0160 C   0  0  0  0  0  3  0  0  0  0  0  0
  188.0420  172.3290  137.1670 C   0  0  0  0  0  2  0  0  0  0  0  0
  2 16  1  0  0  0  0
  3  1  1  0  0  0  0
  3 19  1  0  0  0  0
  4  1  1  0  0  0  0
  5 18  1  0  0  0  0
  6 14  1  1  0  0  0
  7  5  1  1  0  0  0
  7 11  1  0  0  0  0
  7 12  1  0  0  0  0
  8 11  1  0  0  0  0
  9  6  1  0  0  0  0
  9 13  1  1  0  0  0
 10  2  1  0  0  0  0
 10 21  1  0  0  0  0
 11  4  1  1  0  0  0
 12  3  1  1  0  0  0
 12 26  1  0  0  0  0
 13 22  1  0  0  0  0
 14 22  1  0  0  0  0
 15 18  2  0  0  0  0
 16 17  1  6  0  0  0
 18  8  1  0  0  0  0
 20 10  2  0  0  0  0
 21 19  1  6  0  0  0
 21  9  1  0  0  0  0
 24 16  1  0  0  0  0
 25 19  2  0  0  0  0
 25 24  1  0  0  0  0
 26 23  1  6  0  0  0
 26  6  1  0  0  0  0
 27 29  1  0  0  0  0
 27 25  1  0  0  0  0
 28 29  1  0  0  0  0
 28 30  1  0  0  0  0
 29 30  1  0  0  0  0
M  END
>  <MODEL>
8

>  <REMARK>
 VINA RESULT:      -4.5      3.994      7.108
  Name = 
  2 active torsions:
  status: ('A' for Active; 'I' for Inactive)
    1  A    between atoms: C_14  and  N_22
    2  A    between atoms: N_22  and  C_29
                            x       y       z     vdW  Elec       q    Type
                         _______ _______ _______ _____ _____    ______ ____

>  <TORSDO>
F 2

$$$$
=
 OpenBabel10272413423D

 30 35  0  0  1  0  0  0  0  0999 V2000
  183.2190  177.6740  136.3460 C   0  0  0  0  0  2  0  0  0  0  0  0
  186.3280  172.9580  136.3940 N   0  0  0  0  0  2  0  0  0  0  0  0
  183.6320  176.5380  137.1890 N   0  0  0  0  0  0  0  0  0  0  0  0
  182.1140  178.5010  137.0000 C   0  0  0  0  0  2  0  0  0  0  0  0
  182.0920  177.6020  140.5350 C   0  0  0  0  0  2  0  0  0  0  0  0
  181.6240  174.6790  137.1230 C   0  0  1  0  0  3  0  0  0  0  0  0
  182.9540  177.6450  139.2720 C   0  0  2  0  0  3  0  0  0  0  0  0
  181.3540  179.4310  139.1240 N   0  0  0  0  0  2  0  0  0  0  0  0
  182.7360  173.6610  137.3180 C   0  0  1  0  0  3  0  0  0  0  0  0
  185.1960  173.1950  137.2170 C   0  0  0  0  0  0  0  0  0  0  0  0
  182.4960  178.8650  138.4320 C   0  0  2  0  0  3  0  0  0  0  0  0
  182.9880  176.3160  138.4870 C   0  0  1  0  0  3  0  0  0  0  0  0
  182.1250  172.1290  136.6190 S   0  0  0  0  0  0  0  0  0  0  0  0
  180.3650  174.0680  136.9570 O   0  0  0  0  0  0  0  0  0  0  0  0
  180.1660  178.9700  141.1180 N   0  0  0  0  0  2  0  0  0  0  0  0
  186.4090  173.6580  135.1260 C   0  0  2  0  0  3  0  0  0  0  0  0
  187.6020  173.1490  134.3460 C   0  0  0  0  0  1  0  0  0  0  0  0
  181.1710  178.7390  140.3420 C   0  0  0  0  0  0  0  0  0  0  0  0
  184.5020  175.5250  136.6330 C   0  0  0  0  0  0  0  0  0  0  0  0
  185.1630  172.7350  138.3900 O   0  0  0  0  0  0  0  0  0  0  0  0
  184.0860  174.0520  136.6810 C   0  0  2  0  0  3  0  0  0  0  0  0
  180.5120  172.6920  137.2010 C   0  0  0  0  0  2  0  0  0  0  0  0
  181.1960  175.0360  139.4580 O   0  0  0  0  0  1  0  0  0  0  0  0
  186.5600  175.0550  135.3600 O   0  0  0  0  0  0  0  0  0  0  0  0
  185.6640  175.9180  136.0310 C   0  0  0  0  0  0  0  0  0  0  0  0
  181.6010  175.6770  138.2840 C   0  0  2  0  0  3  0  0  0  0  0  0
  186.0340  177.2990  136.1000 N   0  0  0  0  0  2  0  0  0  0  0  0
  187.5410  179.1270  136.5910 C   0  0  0  0  0  2  0  0  0  0  0  0
  187.0030  177.7930  137.0640 C   0  0  0  0  0  3  0  0  0  0  0  0
  188.3630  177.8700  136.4050 C   0  0  0  0  0  2  0  0  0  0  0  0
  1  4  1  0  0  0  0
  1  3  1  0  0  0  0
  2 10  1  0  0  0  0
  6 14  1  1  0  0  0
  6  9  1  0  0  0  0
  6 26  1  0  0  0  0
  7  5  1  1  0  0  0
  8 18  1  0  0  0  0
  9 13  1  6  0  0  0
 10 20  2  0  0  0  0
 11  4  1  6  0  0  0
 11  8  1  0  0  0  0
 11  7  1  0  0  0  0
 12  3  1  6  0  0  0
 12  7  1  0  0  0  0
 13 22  1  0  0  0  0
 14 22  1  0  0  0  0
 16 17  1  1  0  0  0
 16 24  1  0  0  0  0
 16  2  1  0  0  0  0
 18  5  1  0  0  0  0
 18 15  2  0  0  0  0
 19  3  1  0  0  0  0
 21 19  1  1  0  0  0
 21 10  1  0  0  0  0
 21  9  1  0  0  0  0
 24 25  1  0  0  0  0
 25 27  1  0  0  0  0
 25 19  2  0  0  0  0
 26 12  1  0  0  0  0
 26 23  1  1  0  0  0
 27 29  1  0  0  0  0
 28 29  1  0  0  0  0
 30 28  1  0  0  0  0
 30 29  1  0  0  0  0
M  END
>  <MODEL>
9

>  <REMARK>
 VINA RESULT:      -4.4      5.081      8.551
  Name = 
  2 active torsions:
  status: ('A' for Active; 'I' for Inactive)
    1  A    between atoms: C_14  and  N_22
    2  A    between atoms: N_22  and  C_29
                            x       y       z     vdW  Elec       q    Type
                         _______ _______ _______ _____ _____    ______ ____

>  <TORSDO>
F 2

$$$$
