=
 OpenBabel10272413303D

 32 37  0  0  1  0  0  0  0  0999 V2000
  180.0220  178.7270  138.6130 N   0  0  0  0  0  0  0  0  0  0  0  0
  185.0660  178.9480  139.9080 N   0  0  0  0  0  0  0  0  0  0  0  0
  182.8280  179.3350  138.8650 C   0  0  1  0  0  3  0  0  0  0  0  0
  183.1880  177.2830  140.2100 C   0  0  0  0  0  2  0  0  0  0  0  0
  180.9390  177.7510  139.2300 C   0  0  0  0  0  2  0  0  0  0  0  0
  184.4900  177.8880  140.7570 C   0  0  2  0  0  3  0  0  0  0  0  0
  180.3990  180.1330  138.8370 C   0  0  0  0  0  2  0  0  0  0  0  0
  182.1910  178.3720  139.8550 C   0  0  2  0  0  3  0  0  0  0  0  0
  181.8550  180.4360  138.4430 C   0  0  0  0  0  2  0  0  0  0  0  0
  184.0800  179.9550  139.4860 C   0  0  0  0  0  2  0  0  0  0  0  0
  185.6630  178.3390  138.7270 C   0  0  0  0  0  1  0  0  0  0  0  0
  183.0440  179.1260  144.0600 C   0  0  0  0  0  3  0  0  0  0  0  0
  184.1300  178.9640  144.9210 C   0  0  0  0  0  3  0  0  0  0  0  0
  183.1680  178.7890  142.7100 C   0  0  0  0  0  3  0  0  0  0  0  0
  184.3810  178.2970  142.2050 C   0  0  0  0  0  0  0  0  0  0  0  0
  185.3400  178.4680  144.4320 C   0  0  0  0  0  3  0  0  0  0  0  0
  185.4780  178.1420  143.0770 C   0  0  0  0  0  0  0  0  0  0  0  0
  186.7780  177.5830  142.5870 C   0  0  0  0  0  2  0  0  0  0  0  0
  187.8870  178.0440  143.4290 N   0  0  0  0  0  2  0  0  0  0  0  0
  189.1320  176.8030  146.3780 C   0  0  0  0  0  2  0  0  0  0  0  0
  189.5470  177.3830  145.0430 C   0  0  0  0  0  0  0  0  0  0  0  0
  189.3190  176.1640  142.9650 C   0  0  2  0  0  3  0  0  0  0  0  0
  190.8060  176.0180  143.3130 C   0  0  2  0  0  3  0  0  0  0  0  0
  191.2840  177.0770  144.7170 S   0  0  0  0  0  0  0  0  0  0  0  0
  189.0650  178.3020  146.1480 C   0  0  0  0  0  2  0  0  0  0  0  0
  190.3850  176.9080  142.1680 C   0  0  0  0  0  2  0  0  0  0  0  0
  188.6280  176.9700  143.9890 N   0  0  0  0  0  0  0  0  0  0  0  0
  179.9820  178.4600  137.1790 C   0  0  0  0  0  2  0  0  0  0  0  0
  180.5270  177.0700  136.8780 C   0  0  0  0  0  2  0  0  0  0  0  0
  181.5890  177.1180  135.8280 C   0  0  0  0  0  3  0  0  0  0  0  0
  183.9160  177.0550  135.0830 C   0  0  0  0  0  1  0  0  0  0  0  0
  182.8770  177.0030  136.1480 C   0  0  0  0  0  3  0  0  0  0  0  0
  1  7  1  0  0  0  0
  1  5  1  0  0  0  0
  2  6  1  0  0  0  0
  3  9  1  1  0  0  0
  3 10  1  0  0  0  0
  3  8  1  0  0  0  0
  4  6  1  0  0  0  0
  6 15  1  1  0  0  0
  8  5  1  6  0  0  0
  8  4  1  0  0  0  0
  9  7  1  0  0  0  0
 10  2  1  0  0  0  0
 11  2  1  0  0  0  0
 12 13  1  0  0  0  0
 14 12  2  0  0  0  0
 15 14  1  0  0  0  0
 15 17  2  0  0  0  0
 16 13  2  0  0  0  0
 17 16  1  0  0  0  0
 18 17  1  0  0  0  0
 18 19  1  0  0  0  0
 19 27  1  0  0  0  0
 21 25  1  0  0  0  0
 21 20  1  0  0  0  0
 22 26  1  6  0  0  0
 22 23  1  0  0  0  0
 22 27  1  0  0  0  0
 23 26  1  6  0  0  0
 23 24  1  0  0  0  0
 24 21  1  0  0  0  0
 25 20  1  0  0  0  0
 27 21  1  0  0  0  0
 28  1  1  0  0  0  0
 29 28  1  0  0  0  0
 30 32  2  0  0  0  0
 30 29  1  0  0  0  0
 31 32  1  0  0  0  0
M  END
>  <MODEL>
1

>  <REMARK>
 VINA RESULT:      -7.0      0.000      0.000
  Name = 
  7 active torsions:
  status: ('A' for Active; 'I' for Inactive)
    1  A    between atoms: C_1  and  C_10
    2  A    between atoms: N_2  and  C_24
    3  A    between atoms: C_10  and  C_24
    4  A    between atoms: C_14  and  C_15
    5  A    between atoms: C_16  and  C_26
    6  A    between atoms: C_16  and  N_27
    7  A    between atoms: N_27  and  N_32
                            x       y       z     vdW  Elec       q    Type
                         _______ _______ _______ _____ _____    ______ ____

>  <TORSDO>
F 7

$$$$
=
 OpenBabel10272413303D

 32 37  0  0  1  0  0  0  0  0999 V2000
  181.4720  174.7230  138.7270 N   0  0  0  0  0  0  0  0  0  0  0  0
  182.4110  179.6930  139.9860 N   0  0  0  0  0  0  0  0  0  0  0  0
  181.3380  177.5480  139.2860 C   0  0  1  0  0  3  0  0  0  0  0  0
  183.8140  177.6880  139.3490 C   0  0  0  0  0  2  0  0  0  0  0  0
  182.7030  175.5340  138.7440 C   0  0  0  0  0  2  0  0  0  0  0  0
  183.7040  178.9980  140.1440 C   0  0  2  0  0  3  0  0  0  0  0  0
  180.4320  175.1870  139.6630 C   0  0  0  0  0  2  0  0  0  0  0  0
  182.6170  176.7910  139.6130 C   0  0  2  0  0  3  0  0  0  0  0  0
  180.0980  176.6800  139.5000 C   0  0  0  0  0  2  0  0  0  0  0  0
  181.2500  178.8050  140.1510 C   0  0  0  0  0  2  0  0  0  0  0  0
  182.3600  180.3080  138.6670 C   0  0  0  0  0  1  0  0  0  0  0  0
  183.4910  178.6370  143.9330 C   0  0  0  0  0  3  0  0  0  0  0  0
  184.8300  178.4440  144.2730 C   0  0  0  0  0  3  0  0  0  0  0  0
  183.1320  178.8290  142.5970 C   0  0  0  0  0  3  0  0  0  0  0  0
  184.1080  178.8410  141.5880 C   0  0  0  0  0  0  0  0  0  0  0  0
  185.8100  178.4470  143.2780 C   0  0  0  0  0  3  0  0  0  0  0  0
  185.4600  178.6540  141.9370 C   0  0  0  0  0  0  0  0  0  0  0  0
  186.5290  178.6210  140.8880 C   0  0  0  0  0  2  0  0  0  0  0  0
  187.8560  178.7380  141.5010 N   0  0  0  0  0  2  0  0  0  0  0  0
  189.4500  176.4880  143.5470 C   0  0  0  0  0  2  0  0  0  0  0  0
  189.6890  177.4850  142.4340 C   0  0  0  0  0  0  0  0  0  0  0  0
  188.9800  177.0880  140.1540 C   0  0  2  0  0  3  0  0  0  0  0  0
  190.4800  176.7690  140.1310 C   0  0  2  0  0  3  0  0  0  0  0  0
  191.3010  177.2460  141.6860 S   0  0  0  0  0  0  0  0  0  0  0  0
  189.5040  177.9740  143.8560 C   0  0  0  0  0  2  0  0  0  0  0  0
  189.9660  178.0220  139.4620 C   0  0  0  0  0  2  0  0  0  0  0  0
  188.5640  177.5070  141.5060 N   0  0  0  0  0  0  0  0  0  0  0  0
  180.9420  174.7420  137.3680 C   0  0  0  0  0  2  0  0  0  0  0  0
  180.6600  173.3260  136.8840 C   0  0  0  0  0  2  0  0  0  0  0  0
  181.9050  172.6610  136.3930 C   0  0  0  0  0  3  0  0  0  0  0  0
  183.6430  170.9450  136.5020 C   0  0  0  0  0  1  0  0  0  0  0  0
  182.4000  171.5890  137.0100 C   0  0  0  0  0  3  0  0  0  0  0  0
  1  5  1  0  0  0  0
  1  7  1  0  0  0  0
  2  6  1  0  0  0  0
  2 10  1  0  0  0  0
  3  9  1  1  0  0  0
  3  8  1  0  0  0  0
  3 10  1  0  0  0  0
  4  8  1  0  0  0  0
  4  6  1  0  0  0  0
  6 15  1  1  0  0  0
  8  5  1  6  0  0  0
  9  7  1  0  0  0  0
 11  2  1  0  0  0  0
 12 13  1  0  0  0  0
 14 12  2  0  0  0  0
 15 17  2  0  0  0  0
 15 14  1  0  0  0  0
 16 13  2  0  0  0  0
 17 16  1  0  0  0  0
 18 19  1  0  0  0  0
 18 17  1  0  0  0  0
 19 27  1  0  0  0  0
 20 25  1  0  0  0  0
 21 20  1  0  0  0  0
 21 25  1  0  0  0  0
 22 26  1  6  0  0  0
 22 27  1  0  0  0  0
 23 26  1  6  0  0  0
 23 22  1  0  0  0  0
 23 24  1  0  0  0  0
 24 21  1  0  0  0  0
 27 21  1  0  0  0  0
 28  1  1  0  0  0  0
 29 28  1  0  0  0  0
 30 29  1  0  0  0  0
 30 32  2  0  0  0  0
 31 32  1  0  0  0  0
M  END
>  <MODEL>
2

>  <REMARK>
 VINA RESULT:      -6.5      2.500      3.118
  Name = 
  7 active torsions:
  status: ('A' for Active; 'I' for Inactive)
    1  A    between atoms: C_1  and  C_10
    2  A    between atoms: N_2  and  C_24
    3  A    between atoms: C_10  and  C_24
    4  A    between atoms: C_14  and  C_15
    5  A    between atoms: C_16  and  C_26
    6  A    between atoms: C_16  and  N_27
    7  A    between atoms: N_27  and  N_32
                            x       y       z     vdW  Elec       q    Type
                         _______ _______ _______ _____ _____    ______ ____

>  <TORSDO>
F 7

$$$$
=
 OpenBabel10272413303D

 32 37  0  0  1  0  0  0  0  0999 V2000
  191.5410  177.1790  144.9220 N   0  0  0  0  0  0  0  0  0  0  0  0
  188.2170  178.5330  141.1430 N   0  0  0  0  0  0  0  0  0  0  0  0
  189.6940  178.5150  143.1590 C   0  0  1  0  0  3  0  0  0  0  0  0
  189.1210  176.3620  142.0700 C   0  0  0  0  0  2  0  0  0  0  0  0
  190.6700  176.3930  144.0290 C   0  0  0  0  0  2  0  0  0  0  0  0
  188.5910  177.1350  140.8530 C   0  0  2  0  0  3  0  0  0  0  0  0
  191.9430  178.4860  144.3740 C   0  0  0  0  0  2  0  0  0  0  0  0
  190.2200  177.1410  142.7720 C   0  0  2  0  0  3  0  0  0  0  0  0
  190.7500  179.3340  143.9030 C   0  0  0  0  0  2  0  0  0  0  0  0
  189.2420  179.2640  141.9050 C   0  0  0  0  0  2  0  0  0  0  0  0
  186.9670  178.5450  141.8910 C   0  0  0  0  0  1  0  0  0  0  0  0
  191.6740  176.5420  138.6910 C   0  0  0  0  0  3  0  0  0  0  0  0
  191.1460  176.6730  137.4060 C   0  0  0  0  0  3  0  0  0  0  0  0
  190.8470  176.7050  139.8040 C   0  0  0  0  0  3  0  0  0  0  0  0
  189.4860  177.0110  139.6460 C   0  0  0  0  0  0  0  0  0  0  0  0
  189.7920  176.9690  137.2340 C   0  0  0  0  0  3  0  0  0  0  0  0
  188.9590  177.1500  138.3460 C   0  0  0  0  0  0  0  0  0  0  0  0
  187.5040  177.4370  138.1320 C   0  0  0  0  0  2  0  0  0  0  0  0
  187.0750  176.9610  136.8130 N   0  0  0  0  0  2  0  0  0  0  0  0
  186.1710  173.6900  137.3370 C   0  0  0  0  0  2  0  0  0  0  0  0
  186.2010  174.7790  136.2870 C   0  0  0  0  0  0  0  0  0  0  0  0
  184.7250  176.6970  136.3550 C   0  0  2  0  0  3  0  0  0  0  0  0
  184.0770  175.7740  135.3160 C   0  0  2  0  0  3  0  0  0  0  0  0
  185.1500  174.3640  134.8930 S   0  0  0  0  0  0  0  0  0  0  0  0
  187.4690  174.0190  136.6200 C   0  0  0  0  0  2  0  0  0  0  0  0
  184.7630  177.0430  134.8710 C   0  0  0  0  0  2  0  0  0  0  0  0
  185.9580  176.0860  136.8860 N   0  0  0  0  0  0  0  0  0  0  0  0
  190.8300  177.3800  146.1800 C   0  0  0  0  0  2  0  0  0  0  0  0
  189.5070  176.6260  146.1730 C   0  0  0  0  0  2  0  0  0  0  0  0
  188.3640  177.5290  146.5090 C   0  0  0  0  0  3  0  0  0  0  0  0
  186.1650  178.5060  146.0800 C   0  0  0  0  0  1  0  0  0  0  0  0
  187.2900  177.5970  145.7250 C   0  0  0  0  0  3  0  0  0  0  0  0
  1 28  1  0  0  0  0
  2 11  1  0  0  0  0
  2 10  1  0  0  0  0
  3 10  1  6  0  0  0
  3  9  1  0  0  0  0
  5  1  1  0  0  0  0
  6 15  1  6  0  0  0
  6  2  1  0  0  0  0
  6  4  1  0  0  0  0
  7  1  1  0  0  0  0
  8  4  1  1  0  0  0
  8  3  1  0  0  0  0
  8  5  1  0  0  0  0
  9  7  1  0  0  0  0
 12 14  1  0  0  0  0
 13 12  2  0  0  0  0
 15 14  2  0  0  0  0
 16 13  1  0  0  0  0
 16 17  2  0  0  0  0
 17 15  1  0  0  0  0
 18 17  1  0  0  0  0
 19 27  1  0  0  0  0
 19 18  1  0  0  0  0
 21 25  1  0  0  0  0
 21 27  1  0  0  0  0
 21 20  1  0  0  0  0
 22 26  1  6  0  0  0
 22 27  1  0  0  0  0
 23 26  1  6  0  0  0
 23 22  1  0  0  0  0
 24 23  1  0  0  0  0
 24 21  1  0  0  0  0
 25 20  1  0  0  0  0
 29 28  1  0  0  0  0
 29 30  1  0  0  0  0
 32 31  1  0  0  0  0
 32 30  2  0  0  0  0
M  END
>  <MODEL>
3

>  <REMARK>
 VINA RESULT:      -6.4      3.937      9.454
  Name = 
  7 active torsions:
  status: ('A' for Active; 'I' for Inactive)
    1  A    between atoms: C_1  and  C_10
    2  A    between atoms: N_2  and  C_24
    3  A    between atoms: C_10  and  C_24
    4  A    between atoms: C_14  and  C_15
    5  A    between atoms: C_16  and  C_26
    6  A    between atoms: C_16  and  N_27
    7  A    between atoms: N_27  and  N_32
                            x       y       z     vdW  Elec       q    Type
                         _______ _______ _______ _____ _____    ______ ____

>  <TORSDO>
F 7

$$$$
=
 OpenBabel10272413303D

 32 37  0  0  1  0  0  0  0  0999 V2000
  189.4310  177.2500  142.4540 N   0  0  0  0  0  0  0  0  0  0  0  0
  188.8760  178.0910  137.3400 N   0  0  0  0  0  0  0  0  0  0  0  0
  189.7930  177.7790  139.6440 C   0  0  1  0  0  3  0  0  0  0  0  0
  187.3520  178.1180  139.3580 C   0  0  0  0  0  2  0  0  0  0  0  0
  188.2950  177.7100  141.6350 C   0  0  0  0  0  2  0  0  0  0  0  0
  187.5090  177.8660  137.8500 C   0  0  2  0  0  3  0  0  0  0  0  0
  190.4050  176.4220  141.7220 C   0  0  0  0  0  2  0  0  0  0  0  0
  188.4150  177.3730  140.1460 C   0  0  2  0  0  3  0  0  0  0  0  0
  190.9070  177.0840  140.4280 C   0  0  0  0  0  2  0  0  0  0  0  0
  189.9150  177.4450  138.1570 C   0  0  0  0  0  2  0  0  0  0  0  0
  189.1320  179.5230  137.2850 C   0  0  0  0  0  1  0  0  0  0  0  0
  187.2500  174.1800  136.9130 C   0  0  0  0  0  3  0  0  0  0  0  0
  185.8770  174.0360  136.7140 C   0  0  0  0  0  3  0  0  0  0  0  0
  187.7770  175.4240  137.2680 C   0  0  0  0  0  3  0  0  0  0  0  0
  186.9380  176.5390  137.4170 C   0  0  0  0  0  0  0  0  0  0  0  0
  185.0310  175.1350  136.8670 C   0  0  0  0  0  3  0  0  0  0  0  0
  185.5520  176.3910  137.2070 C   0  0  0  0  0  0  0  0  0  0  0  0
  184.6170  177.5450  137.3950 C   0  0  0  0  0  2  0  0  0  0  0  0
  183.8010  177.3570  138.5990 N   0  0  0  0  0  2  0  0  0  0  0  0
  184.3640  179.2350  141.4170 C   0  0  0  0  0  2  0  0  0  0  0  0
  183.2930  178.4670  140.6750 C   0  0  0  0  0  0  0  0  0  0  0  0
  182.3210  179.2570  138.6030 C   0  0  2  0  0  3  0  0  0  0  0  0
  181.2690  179.6150  139.6610 C   0  0  2  0  0  3  0  0  0  0  0  0
  181.6580  178.8840  141.2840 S   0  0  0  0  0  0  0  0  0  0  0  0
  184.3160  177.7200  141.5060 C   0  0  0  0  0  2  0  0  0  0  0  0
  181.0040  178.4930  138.6850 C   0  0  0  0  0  2  0  0  0  0  0  0
  183.4730  178.5850  139.2330 N   0  0  0  0  0  0  0  0  0  0  0  0
  190.1040  178.4290  142.9890 C   0  0  0  0  0  2  0  0  0  0  0  0
  190.4560  178.2250  144.4560 C   0  0  0  0  0  2  0  0  0  0  0  0
  189.2320  177.9990  145.2840 C   0  0  0  0  0  3  0  0  0  0  0  0
  188.0890  177.3900  147.3570 C   0  0  0  0  0  1  0  0  0  0  0  0
  189.3240  177.6090  146.5540 C   0  0  0  0  0  3  0  0  0  0  0  0
  1 28  1  0  0  0  0
  2  6  1  0  0  0  0
  2 10  1  0  0  0  0
  3 10  1  6  0  0  0
  3  8  1  0  0  0  0
  3  9  1  0  0  0  0
  5  1  1  0  0  0  0
  6 15  1  1  0  0  0
  6  4  1  0  0  0  0
  7  1  1  0  0  0  0
  8  4  1  6  0  0  0
  8  5  1  0  0  0  0
  9  7  1  0  0  0  0
 11  2  1  0  0  0  0
 12 14  1  0  0  0  0
 13 16  1  0  0  0  0
 13 12  2  0  0  0  0
 14 15  2  0  0  0  0
 16 17  2  0  0  0  0
 17 18  1  0  0  0  0
 17 15  1  0  0  0  0
 18 19  1  0  0  0  0
 19 27  1  0  0  0  0
 20 25  1  0  0  0  0
 21 24  1  0  0  0  0
 21 20  1  0  0  0  0
 21 25  1  0  0  0  0
 22 26  1  6  0  0  0
 22 27  1  0  0  0  0
 22 23  1  0  0  0  0
 23 26  1  6  0  0  0
 23 24  1  0  0  0  0
 27 21  1  0  0  0  0
 28 29  1  0  0  0  0
 29 30  1  0  0  0  0
 30 32  2  0  0  0  0
 32 31  1  0  0  0  0
M  END
>  <MODEL>
4

>  <REMARK>
 VINA RESULT:      -6.2      3.047      8.709
  Name = 
  7 active torsions:
  status: ('A' for Active; 'I' for Inactive)
    1  A    between atoms: C_1  and  C_10
    2  A    between atoms: N_2  and  C_24
    3  A    between atoms: C_10  and  C_24
    4  A    between atoms: C_14  and  C_15
    5  A    between atoms: C_16  and  C_26
    6  A    between atoms: C_16  and  N_27
    7  A    between atoms: N_27  and  N_32
                            x       y       z     vdW  Elec       q    Type
                         _______ _______ _______ _____ _____    ______ ____

>  <TORSDO>
F 7

$$$$
=
 OpenBabel10272413303D

 32 37  0  0  1  0  0  0  0  0999 V2000
  186.2500  178.5590  147.3430 N   0  0  0  0  0  0  0  0  0  0  0  0
  185.1900  178.4640  142.2400 N   0  0  0  0  0  0  0  0  0  0  0  0
  186.1560  178.0490  144.5070 C   0  0  1  0  0  3  0  0  0  0  0  0
  184.7080  180.0340  144.1630 C   0  0  0  0  0  2  0  0  0  0  0  0
  185.6160  179.5340  146.4350 C   0  0  0  0  0  2  0  0  0  0  0  0
  184.2550  179.4500  142.8150 C   0  0  2  0  0  3  0  0  0  0  0  0
  186.1250  177.1580  146.9030 C   0  0  0  0  0  2  0  0  0  0  0  0
  185.0840  178.9280  145.1340 C   0  0  2  0  0  3  0  0  0  0  0  0
  186.5990  176.9360  145.4570 C   0  0  0  0  0  2  0  0  0  0  0  0
  185.6280  177.4450  143.2060 C   0  0  0  0  0  2  0  0  0  0  0  0
  186.3580  179.1630  141.7210 C   0  0  0  0  0  1  0  0  0  0  0  0
  180.8180  178.4130  144.0960 C   0  0  0  0  0  3  0  0  0  0  0  0
  180.1460  178.1350  142.9050 C   0  0  0  0  0  3  0  0  0  0  0  0
  182.1510  178.8260  144.0640 C   0  0  0  0  0  3  0  0  0  0  0  0
  182.8310  178.9550  142.8420 C   0  0  0  0  0  0  0  0  0  0  0  0
  180.8080  178.2670  141.6830 C   0  0  0  0  0  3  0  0  0  0  0  0
  182.1510  178.6650  141.6430 C   0  0  0  0  0  0  0  0  0  0  0  0
  182.8270  178.8280  140.3160 C   0  0  0  0  0  2  0  0  0  0  0  0
  183.0850  177.5200  139.7060 N   0  0  0  0  0  2  0  0  0  0  0  0
  180.2450  176.0590  138.4450 C   0  0  0  0  0  2  0  0  0  0  0  0
  181.7560  175.9880  138.4070 C   0  0  0  0  0  0  0  0  0  0  0  0
  183.1120  177.6610  137.3010 C   0  0  2  0  0  3  0  0  0  0  0  0
  183.0760  176.4990  136.3000 C   0  0  2  0  0  3  0  0  0  0  0  0
  182.3220  175.0040  137.0190 S   0  0  0  0  0  0  0  0  0  0  0  0
  181.0030  175.3990  139.5830 C   0  0  0  0  0  2  0  0  0  0  0  0
  184.3480  176.8010  137.0580 C   0  0  0  0  0  2  0  0  0  0  0  0
  182.3420  177.3190  138.5120 N   0  0  0  0  0  0  0  0  0  0  0  0
  187.6620  178.9060  147.4580 C   0  0  0  0  0  2  0  0  0  0  0  0
  188.3460  178.0280  148.4970 C   0  0  0  0  0  2  0  0  0  0  0  0
  189.7340  177.6670  148.0760 C   0  0  0  0  0  3  0  0  0  0  0  0
  191.3410  176.5380  146.6210 C   0  0  0  0  0  1  0  0  0  0  0  0
  189.9490  176.8840  147.0200 C   0  0  0  0  0  3  0  0  0  0  0  0
  1 28  1  0  0  0  0
  2  6  1  0  0  0  0
  2 10  1  0  0  0  0
  3 10  1  6  0  0  0
  3  8  1  0  0  0  0
  3  9  1  0  0  0  0
  5  1  1  0  0  0  0
  6 15  1  1  0  0  0
  6  4  1  0  0  0  0
  7  1  1  0  0  0  0
  8  4  1  6  0  0  0
  8  5  1  0  0  0  0
  9  7  1  0  0  0  0
 11  2  1  0  0  0  0
 13 12  2  0  0  0  0
 14 12  1  0  0  0  0
 15 14  2  0  0  0  0
 16 13  1  0  0  0  0
 17 16  2  0  0  0  0
 17 15  1  0  0  0  0
 18 17  1  0  0  0  0
 19 18  1  0  0  0  0
 20 25  1  0  0  0  0
 21 20  1  0  0  0  0
 21 27  1  0  0  0  0
 21 25  1  0  0  0  0
 22 26  1  1  0  0  0
 22 27  1  0  0  0  0
 23 24  1  0  0  0  0
 23 26  1  1  0  0  0
 23 22  1  0  0  0  0
 24 21  1  0  0  0  0
 27 19  1  0  0  0  0
 28 29  1  0  0  0  0
 30 29  1  0  0  0  0
 31 32  1  0  0  0  0
 32 30  2  0  0  0  0
M  END
>  <MODEL>
5

>  <REMARK>
 VINA RESULT:      -6.1      3.075      8.708
  Name = 
  7 active torsions:
  status: ('A' for Active; 'I' for Inactive)
    1  A    between atoms: C_1  and  C_10
    2  A    between atoms: N_2  and  C_24
    3  A    between atoms: C_10  and  C_24
    4  A    between atoms: C_14  and  C_15
    5  A    between atoms: C_16  and  C_26
    6  A    between atoms: C_16  and  N_27
    7  A    between atoms: N_27  and  N_32
                            x       y       z     vdW  Elec       q    Type
                         _______ _______ _______ _____ _____    ______ ____

>  <TORSDO>
F 7

$$$$
=
 OpenBabel10272413303D

 32 37  0  0  1  0  0  0  0  0999 V2000
  192.7740  174.7380  137.1490 N   0  0  0  0  0  0  0  0  0  0  0  0
  188.7130  177.6770  138.5770 N   0  0  0  0  0  0  0  0  0  0  0  0
  190.2340  176.0770  137.4070 C   0  0  1  0  0  3  0  0  0  0  0  0
  191.1940  177.6540  139.0630 C   0  0  0  0  0  2  0  0  0  0  0  0
  192.6660  175.9770  137.9410 C   0  0  0  0  0  2  0  0  0  0  0  0
  189.7750  177.9740  139.5580 C   0  0  2  0  0  3  0  0  0  0  0  0
  191.5590  173.9040  137.1690 C   0  0  0  0  0  2  0  0  0  0  0  0
  191.2700  176.2420  138.5090 C   0  0  2  0  0  3  0  0  0  0  0  0
  190.2880  174.6800  136.7860 C   0  0  0  0  0  2  0  0  0  0  0  0
  188.8380  176.3430  137.9700 C   0  0  0  0  0  2  0  0  0  0  0  0
  188.7410  178.6850  137.5260 C   0  0  0  0  0  1  0  0  0  0  0  0
  190.1100  175.9240  142.7530 C   0  0  0  0  0  3  0  0  0  0  0  0
  189.0270  176.3860  143.5000 C   0  0  0  0  0  3  0  0  0  0  0  0
  190.3420  176.4300  141.4730 C   0  0  0  0  0  3  0  0  0  0  0  0
  189.4870  177.3970  140.9200 C   0  0  0  0  0  0  0  0  0  0  0  0
  188.1730  177.3530  142.9650 C   0  0  0  0  0  3  0  0  0  0  0  0
  188.3890  177.8550  141.6750 C   0  0  0  0  0  0  0  0  0  0  0  0
  187.4750  178.9140  141.1390 C   0  0  0  0  0  2  0  0  0  0  0  0
  186.2430  178.3150  140.6170 N   0  0  0  0  0  2  0  0  0  0  0  0
  184.0400  179.4630  142.9870 C   0  0  0  0  0  2  0  0  0  0  0  0
  184.1350  178.6020  141.7470 C   0  0  0  0  0  0  0  0  0  0  0  0
  184.4670  179.5310  139.5360 C   0  0  2  0  0  3  0  0  0  0  0  0
  182.9650  179.2210  139.5820 C   0  0  2  0  0  3  0  0  0  0  0  0
  182.5110  178.2660  141.0650 S   0  0  0  0  0  0  0  0  0  0  0  0
  184.5990  178.0550  143.0820 C   0  0  0  0  0  2  0  0  0  0  0  0
  183.8830  178.3740  138.7330 C   0  0  0  0  0  2  0  0  0  0  0  0
  185.1080  179.1480  140.8080 N   0  0  0  0  0  0  0  0  0  0  0  0
  193.0810  175.1110  135.7730 C   0  0  0  0  0  2  0  0  0  0  0  0
  194.5400  174.8160  135.4510 C   0  0  0  0  0  2  0  0  0  0  0  0
  195.3790  176.0500  135.5450 C   0  0  0  0  0  3  0  0  0  0  0  0
  196.1050  178.2500  134.7670 C   0  0  0  0  0  1  0  0  0  0  0  0
  195.2570  177.0310  134.6530 C   0  0  0  0  0  3  0  0  0  0  0  0
  1  7  1  0  0  0  0
  1  5  1  0  0  0  0
  2  6  1  0  0  0  0
  3  9  1  1  0  0  0
  3 10  1  0  0  0  0
  3  8  1  0  0  0  0
  4  6  1  0  0  0  0
  6 15  1  1  0  0  0
  8  5  1  6  0  0  0
  8  4  1  0  0  0  0
  9  7  1  0  0  0  0
 10  2  1  0  0  0  0
 11  2  1  0  0  0  0
 12 13  1  0  0  0  0
 14 12  2  0  0  0  0
 15 14  1  0  0  0  0
 15 17  2  0  0  0  0
 16 13  2  0  0  0  0
 17 16  1  0  0  0  0
 18 17  1  0  0  0  0
 19 27  1  0  0  0  0
 19 18  1  0  0  0  0
 20 25  1  0  0  0  0
 21 20  1  0  0  0  0
 21 25  1  0  0  0  0
 22 26  1  6  0  0  0
 22 23  1  0  0  0  0
 22 27  1  0  0  0  0
 23 26  1  6  0  0  0
 23 24  1  0  0  0  0
 24 21  1  0  0  0  0
 27 21  1  0  0  0  0
 28  1  1  0  0  0  0
 29 30  1  0  0  0  0
 29 28  1  0  0  0  0
 32 31  1  0  0  0  0
 32 30  2  0  0  0  0
M  END
>  <MODEL>
6

>  <REMARK>
 VINA RESULT:      -6.1      4.788      8.732
  Name = 
  7 active torsions:
  status: ('A' for Active; 'I' for Inactive)
    1  A    between atoms: C_1  and  C_10
    2  A    between atoms: N_2  and  C_24
    3  A    between atoms: C_10  and  C_24
    4  A    between atoms: C_14  and  C_15
    5  A    between atoms: C_16  and  C_26
    6  A    between atoms: C_16  and  N_27
    7  A    between atoms: N_27  and  N_32
                            x       y       z     vdW  Elec       q    Type
                         _______ _______ _______ _____ _____    ______ ____

>  <TORSDO>
F 7

$$$$
=
 OpenBabel10272413303D

 32 37  0  0  1  0  0  0  0  0999 V2000
  182.1630  174.7320  137.7270 N   0  0  0  0  0  0  0  0  0  0  0  0
  182.0370  179.6680  139.3980 N   0  0  0  0  0  0  0  0  0  0  0  0
  181.7320  177.5590  138.0930 C   0  0  1  0  0  3  0  0  0  0  0  0
  183.4340  177.6210  139.8960 C   0  0  0  0  0  2  0  0  0  0  0  0
  183.0350  175.5040  138.6320 C   0  0  0  0  0  2  0  0  0  0  0  0
  182.8210  178.9330  140.4090 C   0  0  2  0  0  3  0  0  0  0  0  0
  180.7760  175.2280  137.6610 C   0  0  0  0  0  2  0  0  0  0  0  0
  182.3850  176.7620  139.2130 C   0  0  2  0  0  3  0  0  0  0  0  0
  180.6880  176.7300  137.3450 C   0  0  0  0  0  2  0  0  0  0  0  0
  181.0830  178.8170  138.6700 C   0  0  0  0  0  2  0  0  0  0  0  0
  182.9500  180.2860  138.4460 C   0  0  0  0  0  1  0  0  0  0  0  0
  180.0150  178.2690  142.9030 C   0  0  0  0  0  3  0  0  0  0  0  0
  180.6980  178.3330  144.1180 C   0  0  0  0  0  3  0  0  0  0  0  0
  180.7030  178.4770  141.7050 C   0  0  0  0  0  3  0  0  0  0  0  0
  182.0780  178.7610  141.7100 C   0  0  0  0  0  0  0  0  0  0  0  0
  182.0670  178.6070  144.1360 C   0  0  0  0  0  3  0  0  0  0  0  0
  182.7620  178.8320  142.9400 C   0  0  0  0  0  0  0  0  0  0  0  0
  184.2360  179.0930  142.9880 C   0  0  0  0  0  2  0  0  0  0  0  0
  184.9210  178.0370  143.7400 N   0  0  0  0  0  2  0  0  0  0  0  0
  188.3320  177.8230  144.0710 C   0  0  0  0  0  2  0  0  0  0  0  0
  187.0310  177.5130  144.7780 C   0  0  0  0  0  0  0  0  0  0  0  0
  185.6110  179.2370  145.7110 C   0  0  2  0  0  3  0  0  0  0  0  0
  186.3550  178.6770  146.9300 C   0  0  2  0  0  3  0  0  0  0  0  0
  187.3030  177.1770  146.5180 S   0  0  0  0  0  0  0  0  0  0  0  0
  187.5250  176.6000  143.6740 C   0  0  0  0  0  2  0  0  0  0  0  0
  184.8870  178.3780  146.7410 C   0  0  0  0  0  2  0  0  0  0  0  0
  186.0250  178.5280  144.4860 N   0  0  0  0  0  0  0  0  0  0  0  0
  182.7540  174.7700  136.3940 C   0  0  0  0  0  2  0  0  0  0  0  0
  182.1790  173.6610  135.5220 C   0  0  0  0  0  2  0  0  0  0  0  0
  183.0140  172.4240  135.5950 C   0  0  0  0  0  3  0  0  0  0  0  0
  183.4160  170.1070  136.2620 C   0  0  0  0  0  1  0  0  0  0  0  0
  182.5650  171.3270  136.2020 C   0  0  0  0  0  3  0  0  0  0  0  0
  1  5  1  0  0  0  0
  2  6  1  0  0  0  0
  3  9  1  1  0  0  0
  3 10  1  0  0  0  0
  3  8  1  0  0  0  0
  4  6  1  0  0  0  0
  6 15  1  1  0  0  0
  7  1  1  0  0  0  0
  8  5  1  6  0  0  0
  8  4  1  0  0  0  0
  9  7  1  0  0  0  0
 10  2  1  0  0  0  0
 11  2  1  0  0  0  0
 12 13  1  0  0  0  0
 13 16  2  0  0  0  0
 14 15  1  0  0  0  0
 14 12  2  0  0  0  0
 15 17  2  0  0  0  0
 17 18  1  0  0  0  0
 17 16  1  0  0  0  0
 18 19  1  0  0  0  0
 19 27  1  0  0  0  0
 20 21  1  0  0  0  0
 21 24  1  0  0  0  0
 22 26  1  1  0  0  0
 22 23  1  0  0  0  0
 23 26  1  1  0  0  0
 24 23  1  0  0  0  0
 25 20  1  0  0  0  0
 25 21  1  0  0  0  0
 27 21  1  0  0  0  0
 27 22  1  0  0  0  0
 28  1  1  0  0  0  0
 29 30  1  0  0  0  0
 29 28  1  0  0  0  0
 30 32  2  0  0  0  0
 32 31  1  0  0  0  0
M  END
>  <MODEL>
7

>  <REMARK>
 VINA RESULT:      -6.0      2.773      4.003
  Name = 
  7 active torsions:
  status: ('A' for Active; 'I' for Inactive)
    1  A    between atoms: C_1  and  C_10
    2  A    between atoms: N_2  and  C_24
    3  A    between atoms: C_10  and  C_24
    4  A    between atoms: C_14  and  C_15
    5  A    between atoms: C_16  and  C_26
    6  A    between atoms: C_16  and  N_27
    7  A    between atoms: N_27  and  N_32
                            x       y       z     vdW  Elec       q    Type
                         _______ _______ _______ _____ _____    ______ ____

>  <TORSDO>
F 7

$$$$
=
 OpenBabel10272413303D

 32 37  0  0  1  0  0  0  0  0999 V2000
  186.2200  174.5280  135.6810 N   0  0  0  0  0  0  0  0  0  0  0  0
  187.9860  178.9940  137.7090 N   0  0  0  0  0  0  0  0  0  0  0  0
  187.1620  177.2090  136.1660 C   0  0  1  0  0  3  0  0  0  0  0  0
  187.8840  176.5790  138.4530 C   0  0  0  0  0  2  0  0  0  0  0  0
  186.9670  174.8400  136.9140 C   0  0  0  0  0  2  0  0  0  0  0  0
  187.8720  178.0640  138.8500 C   0  0  2  0  0  3  0  0  0  0  0  0
  185.3990  175.6440  135.1770 C   0  0  0  0  0  2  0  0  0  0  0  0
  186.8740  176.3030  137.3540 C   0  0  2  0  0  3  0  0  0  0  0  0
  186.1940  176.9500  135.0110 C   0  0  0  0  0  2  0  0  0  0  0  0
  187.0710  178.6710  136.6020 C   0  0  0  0  0  2  0  0  0  0  0  0
  189.3570  178.9760  137.2170 C   0  0  0  0  0  1  0  0  0  0  0  0
  184.3930  178.9970  140.0970 C   0  0  0  0  0  3  0  0  0  0  0  0
  184.5710  178.9630  141.4800 C   0  0  0  0  0  3  0  0  0  0  0  0
  185.4670  178.7180  139.2490 C   0  0  0  0  0  3  0  0  0  0  0  0
  186.7320  178.4130  139.7730 C   0  0  0  0  0  0  0  0  0  0  0  0
  185.8230  178.6530  142.0150 C   0  0  0  0  0  3  0  0  0  0  0  0
  186.9100  178.3870  141.1710 C   0  0  0  0  0  0  0  0  0  0  0  0
  188.2330  178.0270  141.7730 C   0  0  0  0  0  2  0  0  0  0  0  0
  188.1600  176.7210  142.4340 N   0  0  0  0  0  2  0  0  0  0  0  0
  189.3320  176.9810  145.6500 C   0  0  0  0  0  2  0  0  0  0  0  0
  189.5370  177.5070  144.2470 C   0  0  0  0  0  0  0  0  0  0  0  0
  190.5030  176.1630  142.4800 C   0  0  2  0  0  3  0  0  0  0  0  0
  191.6630  177.0560  142.9360 C   0  0  2  0  0  3  0  0  0  0  0  0
  191.1130  178.3500  144.0950 S   0  0  0  0  0  0  0  0  0  0  0  0
  188.3960  178.0380  145.0910 C   0  0  0  0  0  2  0  0  0  0  0  0
  191.0040  177.3030  141.6000 C   0  0  0  0  0  2  0  0  0  0  0  0
  189.2870  176.4640  143.2590 N   0  0  0  0  0  0  0  0  0  0  0  0
  187.1840  174.1370  134.6590 C   0  0  0  0  0  2  0  0  0  0  0  0
  188.5150  173.7610  135.2960 C   0  0  0  0  0  2  0  0  0  0  0  0
  189.6450  174.5280  134.6880 C   0  0  0  0  0  3  0  0  0  0  0  0
  191.4590  176.1640  134.7760 C   0  0  0  0  0  1  0  0  0  0  0  0
  190.3390  175.4110  135.4050 C   0  0  0  0  0  3  0  0  0  0  0  0
  1  5  1  0  0  0  0
  2  6  1  0  0  0  0
  3  9  1  6  0  0  0
  3 10  1  0  0  0  0
  3  8  1  0  0  0  0
  4  6  1  0  0  0  0
  6 15  1  6  0  0  0
  7  1  1  0  0  0  0
  8  5  1  6  0  0  0
  8  4  1  0  0  0  0
  9  7  1  0  0  0  0
 10  2  1  0  0  0  0
 11  2  1  0  0  0  0
 12 13  1  0  0  0  0
 13 16  2  0  0  0  0
 14 15  1  0  0  0  0
 14 12  2  0  0  0  0
 15 17  2  0  0  0  0
 17 18  1  0  0  0  0
 17 16  1  0  0  0  0
 18 19  1  0  0  0  0
 19 27  1  0  0  0  0
 21 25  1  0  0  0  0
 21 20  1  0  0  0  0
 22 26  1  6  0  0  0
 22 23  1  0  0  0  0
 22 27  1  0  0  0  0
 23 26  1  6  0  0  0
 23 24  1  0  0  0  0
 24 21  1  0  0  0  0
 25 20  1  0  0  0  0
 27 21  1  0  0  0  0
 28 29  1  0  0  0  0
 28  1  1  0  0  0  0
 30 29  1  0  0  0  0
 30 32  2  0  0  0  0
 31 32  1  0  0  0  0
M  END
>  <MODEL>
8

>  <REMARK>
 VINA RESULT:      -5.8      3.274      4.996
  Name = 
  7 active torsions:
  status: ('A' for Active; 'I' for Inactive)
    1  A    between atoms: C_1  and  C_10
    2  A    between atoms: N_2  and  C_24
    3  A    between atoms: C_10  and  C_24
    4  A    between atoms: C_14  and  C_15
    5  A    between atoms: C_16  and  C_26
    6  A    between atoms: C_16  and  N_27
    7  A    between atoms: N_27  and  N_32
                            x       y       z     vdW  Elec       q    Type
                         _______ _______ _______ _____ _____    ______ ____

>  <TORSDO>
F 7

$$$$
=
 OpenBabel10272413303D

 32 37  0  0  1  0  0  0  0  0999 V2000
  185.8640  173.5790  135.6200 N   0  0  0  0  0  0  0  0  0  0  0  0
  188.0310  178.2230  136.5740 N   0  0  0  0  0  0  0  0  0  0  0  0
  186.9550  176.2440  135.4910 C   0  0  1  0  0  3  0  0  0  0  0  0
  187.9360  175.9890  137.7550 C   0  0  0  0  0  2  0  0  0  0  0  0
  186.7710  174.0600  136.6780 C   0  0  0  0  0  2  0  0  0  0  0  0
  188.0280  177.5180  137.8710 C   0  0  2  0  0  3  0  0  0  0  0  0
  185.0270  174.6330  135.0190 C   0  0  0  0  0  2  0  0  0  0  0  0
  186.7870  175.5810  136.8500 C   0  0  2  0  0  3  0  0  0  0  0  0
  185.8410  175.8400  134.5250 C   0  0  0  0  0  2  0  0  0  0  0  0
  186.9730  177.7630  135.6600 C   0  0  0  0  0  2  0  0  0  0  0  0
  189.3270  178.0380  135.9360 C   0  0  0  0  0  1  0  0  0  0  0  0
  184.7660  178.8470  139.3290 C   0  0  0  0  0  3  0  0  0  0  0  0
  185.1190  179.0600  140.6610 C   0  0  0  0  0  3  0  0  0  0  0  0
  185.7130  178.3610  138.4250 C   0  0  0  0  0  3  0  0  0  0  0  0
  187.0260  178.0920  138.8420 C   0  0  0  0  0  0  0  0  0  0  0  0
  186.4190  178.7880  141.0910 C   0  0  0  0  0  3  0  0  0  0  0  0
  187.3810  178.3150  140.1880 C   0  0  0  0  0  0  0  0  0  0  0  0
  188.7590  178.0020  140.6830 C   0  0  0  0  0  2  0  0  0  0  0  0
  188.9220  178.4520  142.0690 N   0  0  0  0  0  2  0  0  0  0  0  0
  187.4820  176.5380  144.5290 C   0  0  0  0  0  2  0  0  0  0  0  0
  188.5640  177.5650  144.2800 C   0  0  0  0  0  0  0  0  0  0  0  0
  190.6000  177.0480  143.0760 C   0  0  2  0  0  3  0  0  0  0  0  0
  191.0280  177.0200  144.5490 C   0  0  2  0  0  3  0  0  0  0  0  0
  189.7170  177.6380  145.6520 S   0  0  0  0  0  0  0  0  0  0  0  0
  187.1190  178.0060  144.3920 C   0  0  0  0  0  2  0  0  0  0  0  0
  191.4740  178.1540  143.6570 C   0  0  0  0  0  2  0  0  0  0  0  0
  189.1670  177.3780  142.9650 N   0  0  0  0  0  0  0  0  0  0  0  0
  186.6770  172.9570  134.5810 C   0  0  0  0  0  2  0  0  0  0  0  0
  186.7340  171.4480  134.7780 C   0  0  0  0  0  2  0  0  0  0  0  0
  185.3890  170.8920  135.1170 C   0  0  0  0  0  3  0  0  0  0  0  0
  183.8180  169.0500  135.4510 C   0  0  0  0  0  1  0  0  0  0  0  0
  185.1670  169.5790  135.1100 C   0  0  0  0  0  3  0  0  0  0  0  0
  1  5  1  0  0  0  0
  2  6  1  0  0  0  0
  3  9  1  6  0  0  0
  3 10  1  0  0  0  0
  3  8  1  0  0  0  0
  4  6  1  0  0  0  0
  6 15  1  1  0  0  0
  7  1  1  0  0  0  0
  8  5  1  6  0  0  0
  8  4  1  0  0  0  0
  9  7  1  0  0  0  0
 10  2  1  0  0  0  0
 11  2  1  0  0  0  0
 12 13  1  0  0  0  0
 13 16  2  0  0  0  0
 14 15  1  0  0  0  0
 14 12  2  0  0  0  0
 15 17  2  0  0  0  0
 17 18  1  0  0  0  0
 17 16  1  0  0  0  0
 18 19  1  0  0  0  0
 19 27  1  0  0  0  0
 21 25  1  0  0  0  0
 21 20  1  0  0  0  0
 21 24  1  0  0  0  0
 22 26  1  6  0  0  0
 22 23  1  0  0  0  0
 23 26  1  6  0  0  0
 23 24  1  0  0  0  0
 25 20  1  0  0  0  0
 27 22  1  0  0  0  0
 27 21  1  0  0  0  0
 28 29  1  0  0  0  0
 28  1  1  0  0  0  0
 29 30  1  0  0  0  0
 32 30  2  0  0  0  0
 32 31  1  0  0  0  0
M  END
>  <MODEL>
9

>  <REMARK>
 VINA RESULT:      -5.7      3.734      5.385
  Name = 
  7 active torsions:
  status: ('A' for Active; 'I' for Inactive)
    1  A    between atoms: C_1  and  C_10
    2  A    between atoms: N_2  and  C_24
    3  A    between atoms: C_10  and  C_24
    4  A    between atoms: C_14  and  C_15
    5  A    between atoms: C_16  and  C_26
    6  A    between atoms: C_16  and  N_27
    7  A    between atoms: N_27  and  N_32
                            x       y       z     vdW  Elec       q    Type
                         _______ _______ _______ _____ _____    ______ ____

>  <TORSDO>
F 7

$$$$
