=
 OpenBabel10272415003D

 37 44  0  0  1  0  0  0  0  0999 V2000
  187.5770  177.6960  139.4540 C   0  0  1  0  0  3  0  0  0  0  0  0
  182.8800  178.7730  139.0210 C   0  0  0  0  0  0  0  0  0  0  0  0
  185.9040  176.0780  137.0370 C   0  0  1  0  0  3  0  0  0  0  0  0
  188.9260  178.0750  135.5890 C   0  0  0  0  0  2  0  0  0  0  0  0
  183.6860  177.3970  136.9970 C   0  0  1  0  0  3  0  0  0  0  0  0
  187.3130  176.7070  137.1150 C   0  0  1  0  0  3  0  0  0  0  0  0
  186.5010  178.4750  141.4580 O   0  0  0  0  0  0  0  0  0  0  0  0
  184.9710  177.0610  137.7440 C   0  0  2  0  0  3  0  0  0  0  0  0
  187.9570  176.8980  135.7220 C   0  0  2  0  0  3  0  0  0  0  0  0
  183.0170  176.1160  136.5280 C   0  0  0  0  0  2  0  0  0  0  0  0
  185.7350  178.3450  138.0060 C   0  0  1  0  0  3  0  0  0  0  0  0
  184.0380  178.4470  139.9320 C   0  0  0  0  0  2  0  0  0  0  0  0
  186.2030  174.5760  134.9220 C   0  0  0  0  0  2  0  0  0  0  0  0
  186.5090  178.4020  140.2380 C   0  0  0  0  0  0  0  0  0  0  0  0
  183.9210  175.3120  135.5830 C   0  0  0  0  0  2  0  0  0  0  0  0
  185.4010  178.9170  139.3920 C   0  0  1  0  0  3  0  0  0  0  0  0
  189.1480  178.7400  136.9320 C   0  0  0  0  0  2  0  0  0  0  0  0
  185.4100  175.6990  135.6120 C   0  0  1  0  0  3  0  0  0  0  0  0
  187.2160  177.9890  137.9800 C   0  0  1  0  0  0  0  0  0  0  0  0
  182.7210  178.2670  137.7790 C   0  0  0  0  0  3  0  0  0  0  0  0
  188.5500  175.5840  135.1720 C   0  0  2  0  0  3  0  0  0  0  0  0
  181.7930  179.6290  139.5690 C   0  0  0  0  0  1  0  0  0  0  0  0
  187.9080  179.1230  137.4690 O   0  0  0  0  0  0  0  0  0  0  0  0
  187.6380  174.3750  135.4130 C   0  0  0  0  0  2  0  0  0  0  0  0
  190.0500  174.4230  136.8100 C   0  0  0  0  0  3  0  0  0  0  0  0
  189.9190  175.2930  135.7220 C   0  0  0  0  0  0  0  0  0  0  0  0
  191.0670  175.8660  135.1500 C   0  0  0  0  0  3  0  0  0  0  0  0
  193.7560  176.2720  134.9320 Cl  0  0  0  0  0  0  0  0  0  0  0  0
  192.4570  174.6950  136.7470 C   0  0  0  0  0  3  0  0  0  0  0  0
  192.3320  175.5650  135.6600 C   0  0  0  0  0  0  0  0  0  0  0  0
  191.3170  174.1260  137.3220 C   0  0  0  0  0  3  0  0  0  0  0  0
  189.9570  176.8470  139.3430 C   0  0  0  0  0  2  0  0  0  0  0  0
  189.6740  177.0500  140.8210 C   0  0  2  0  0  3  0  0  0  0  0  0
  189.0600  177.9850  139.7910 C   0  0  2  0  0  3  0  0  0  0  0  0
  190.8510  177.7450  141.4710 C   0  0  0  0  0  2  0  0  0  0  0  0
  191.2000  177.0440  142.7680 C   0  0  0  0  0  2  0  0  0  0  0  0
  190.3040  175.8360  142.9460 C   0  0  0  0  0  1  0  0  0  0  0  0
  1 34  1  0  0  0  0
  1 14  1  1  0  0  0
  2 22  1  0  0  0  0
  2 12  1  0  0  0  0
  3  6  1  0  0  0  0
  3  8  1  0  0  0  0
  4  9  1  0  0  0  0
  4 17  1  0  0  0  0
  5  8  1  0  0  0  0
  5 20  1  0  0  0  0
  6 19  1  0  0  0  0
  8 11  1  0  0  0  0
  9  6  1  0  0  0  0
 10  5  1  0  0  0  0
 11 16  1  0  0  0  0
 13 24  1  0  0  0  0
 13 18  1  0  0  0  0
 14  7  2  0  0  0  0
 15 18  1  0  0  0  0
 15 10  1  0  0  0  0
 16 12  1  0  0  0  0
 16 14  1  0  0  0  0
 17 23  1  0  0  0  0
 18  3  1  0  0  0  0
 19 11  1  0  0  0  0
 19  1  1  0  0  0  0
 20  2  2  0  0  0  0
 21 24  1  0  0  0  0
 21 26  1  0  0  0  0
 21  9  1  0  0  0  0
 23 19  1  0  0  0  0
 25 31  1  0  0  0  0
 26 25  2  0  0  0  0
 27 30  2  0  0  0  0
 27 26  1  0  0  0  0
 28 30  1  0  0  0  0
 29 31  2  0  0  0  0
 30 29  1  0  0  0  0
 32 34  1  0  0  0  0
 32 33  1  0  0  0  0
 33 35  1  0  0  0  0
 34 33  1  0  0  0  0
 35 36  1  0  0  0  0
 36 37  1  0  0  0  0
M  END
>  <MODEL>
1

>  <REMARK>
 VINA RESULT:      -6.8      0.000      0.000
  Name = 
  4 active torsions:
  status: ('A' for Active; 'I' for Inactive)
    1  A    between atoms: C_1  and  C_36
    2  A    between atoms: C_6  and  C_31
    3  A    between atoms: C_11  and  C_26
    4  A    between atoms: C_17  and  C_26
                            x       y       z     vdW  Elec       q    Type
                         _______ _______ _______ _____ _____    ______ ____

>  <TORSDO>
F 4

$$$$
=
 OpenBabel10272415003D

 37 44  0  0  1  0  0  0  0  0999 V2000
  186.9880  173.6680  136.3110 C   0  0  1  0  0  3  0  0  0  0  0  0
  191.5950  175.0130  136.9260 C   0  0  0  0  0  0  0  0  0  0  0  0
  187.4840  176.5240  138.0020 C   0  0  1  0  0  3  0  0  0  0  0  0
  185.2570  177.1000  134.8520 C   0  0  0  0  0  2  0  0  0  0  0  0
  189.9970  176.9270  137.5740 C   0  0  1  0  0  3  0  0  0  0  0  0
  186.4570  176.0870  136.9340 C   0  0  1  0  0  3  0  0  0  0  0  0
  188.6000  171.8850  136.3050 O   0  0  0  0  0  0  0  0  0  0  0  0
  188.8260  175.9520  137.5460 C   0  0  2  0  0  3  0  0  0  0  0  0
  185.7100  177.2860  136.3020 C   0  0  2  0  0  3  0  0  0  0  0  0
  190.0370  177.6420  138.9150 C   0  0  0  0  0  2  0  0  0  0  0  0
  188.6670  175.4180  136.1350 C   0  0  1  0  0  3  0  0  0  0  0  0
  190.5710  173.9050  136.9610 C   0  0  0  0  0  2  0  0  0  0  0  0
  186.2830  178.6480  138.9340 C   0  0  0  0  0  2  0  0  0  0  0  0
  188.3600  173.0760  136.1710 C   0  0  0  0  0  0  0  0  0  0  0  0
  188.7490  178.4350  139.1780 C   0  0  0  0  0  2  0  0  0  0  0  0
  189.4210  174.0930  135.9540 C   0  0  1  0  0  3  0  0  0  0  0  0
  185.5350  175.6890  134.3800 C   0  0  0  0  0  2  0  0  0  0  0  0
  187.5490  178.0500  138.2950 C   0  0  1  0  0  3  0  0  0  0  0  0
  187.1810  175.1540  135.9300 C   0  0  1  0  0  0  0  0  0  0  0  0
  191.3370  176.3000  137.2450 C   0  0  0  0  0  3  0  0  0  0  0  0
  184.5780  177.8070  137.2100 C   0  0  2  0  0  3  0  0  0  0  0  0
  193.0020  174.6400  136.6140 C   0  0  0  0  0  1  0  0  0  0  0  0
  186.8990  175.4010  134.5570 O   0  0  0  0  0  0  0  0  0  0  0  0
  184.9850  177.8770  138.6860 C   0  0  0  0  0  2  0  0  0  0  0  0
  183.0820  175.9440  137.9640 C   0  0  0  0  0  3  0  0  0  0  0  0
  183.3150  177.0020  137.0780 C   0  0  0  0  0  0  0  0  0  0  0  0
  182.3590  177.3050  136.0950 C   0  0  0  0  0  3  0  0  0  0  0  0
  179.9920  176.9560  134.7840 Cl  0  0  0  0  0  0  0  0  0  0  0  0
  180.9540  175.5050  136.8920 C   0  0  0  0  0  3  0  0  0  0  0  0
  181.1820  176.5600  136.0040 C   0  0  0  0  0  0  0  0  0  0  0  0
  181.9040  175.1960  137.8690 C   0  0  0  0  0  3  0  0  0  0  0  0
  184.5300  173.0780  136.3840 C   0  0  0  0  0  2  0  0  0  0  0  0
  185.2560  171.7510  136.2520 C   0  0  2  0  0  3  0  0  0  0  0  0
  185.8070  172.9940  135.5720 C   0  0  2  0  0  3  0  0  0  0  0  0
  184.5600  170.8960  135.2140 C   0  0  0  0  0  2  0  0  0  0  0  0
  183.4100  170.1500  135.8600 C   0  0  0  0  0  2  0  0  0  0  0  0
  183.7230  168.6690  135.8900 C   0  0  0  0  0  1  0  0  0  0  0  0
  1 14  1  6  0  0  0
  2 12  1  0  0  0  0
  2 20  2  0  0  0  0
  3 18  1  0  0  0  0
  4  9  1  0  0  0  0
  5 10  1  0  0  0  0
  6  3  1  0  0  0  0
  8  5  1  0  0  0  0
  8  3  1  0  0  0  0
  9  6  1  0  0  0  0
  9 21  1  0  0  0  0
 10 15  1  0  0  0  0
 11  8  1  0  0  0  0
 14  7  2  0  0  0  0
 16 11  1  0  0  0  0
 16 14  1  0  0  0  0
 16 12  1  0  0  0  0
 17 23  1  0  0  0  0
 17  4  1  0  0  0  0
 18 13  1  0  0  0  0
 18 15  1  0  0  0  0
 19 11  1  0  0  0  0
 19  1  1  0  0  0  0
 19  6  1  0  0  0  0
 20  5  1  0  0  0  0
 21 24  1  0  0  0  0
 22  2  1  0  0  0  0
 23 19  1  0  0  0  0
 24 13  1  0  0  0  0
 26 21  1  0  0  0  0
 26 25  2  0  0  0  0
 27 26  1  0  0  0  0
 28 30  1  0  0  0  0
 29 31  2  0  0  0  0
 30 27  2  0  0  0  0
 30 29  1  0  0  0  0
 31 25  1  0  0  0  0
 33 32  1  0  0  0  0
 34 33  1  0  0  0  0
 34  1  1  0  0  0  0
 34 32  1  0  0  0  0
 35 36  1  0  0  0  0
 35 33  1  0  0  0  0
 36 37  1  0  0  0  0
M  END
>  <MODEL>
2

>  <REMARK>
 VINA RESULT:      -5.3      3.375      7.880
  Name = 
  4 active torsions:
  status: ('A' for Active; 'I' for Inactive)
    1  A    between atoms: C_1  and  C_36
    2  A    between atoms: C_6  and  C_31
    3  A    between atoms: C_11  and  C_26
    4  A    between atoms: C_17  and  C_26
                            x       y       z     vdW  Elec       q    Type
                         _______ _______ _______ _____ _____    ______ ____

>  <TORSDO>
F 4

$$$$
=
 OpenBabel10272415003D

 37 44  0  0  1  0  0  0  0  0999 V2000
  185.5690  177.6970  138.4630 C   0  0  1  0  0  3  0  0  0  0  0  0
  180.9650  179.0270  139.1340 C   0  0  0  0  0  0  0  0  0  0  0  0
  183.2530  175.3200  137.9650 C   0  0  1  0  0  3  0  0  0  0  0  0
  185.4310  175.8800  134.7780 C   0  0  0  0  0  2  0  0  0  0  0  0
  181.0860  176.7220  137.9900 C   0  0  1  0  0  3  0  0  0  0  0  0
  184.5550  175.7050  137.2280 C   0  0  1  0  0  3  0  0  0  0  0  0
  185.2270  179.5210  139.9920 O   0  0  0  0  0  0  0  0  0  0  0  0
  182.5720  176.6410  138.3210 C   0  0  2  0  0  3  0  0  0  0  0  0
  184.6490  175.0750  135.8180 C   0  0  2  0  0  3  0  0  0  0  0  0
  180.3770  175.4830  138.5110 C   0  0  0  0  0  2  0  0  0  0  0  0
  183.2950  177.7650  137.6040 C   0  0  1  0  0  3  0  0  0  0  0  0
  182.3890  179.0550  139.6310 C   0  0  0  0  0  2  0  0  0  0  0  0
  182.8770  172.9290  136.9850 C   0  0  0  0  0  2  0  0  0  0  0  0
  184.8050  178.8390  139.0690 C   0  0  0  0  0  0  0  0  0  0  0  0
  180.9360  174.1980  137.8840 C   0  0  0  0  0  2  0  0  0  0  0  0
  183.4390  178.9980  138.5070 C   0  0  1  0  0  3  0  0  0  0  0  0
  186.0720  177.0960  135.4120 C   0  0  0  0  0  2  0  0  0  0  0  0
  182.3110  174.3420  137.2080 C   0  0  1  0  0  3  0  0  0  0  0  0
  184.6900  177.2490  137.2730 C   0  0  1  0  0  0  0  0  0  0  0  0
  180.4080  177.9880  138.4740 C   0  0  0  0  0  3  0  0  0  0  0  0
  185.0900  173.5980  135.8730 C   0  0  2  0  0  3  0  0  0  0  0  0
  180.0910  180.1810  139.4820 C   0  0  0  0  0  1  0  0  0  0  0  0
  185.0820  177.8620  136.0500 O   0  0  0  0  0  0  0  0  0  0  0  0
  184.4020  172.8140  136.9950 C   0  0  0  0  0  2  0  0  0  0  0  0
  187.1000  172.5030  136.8930 C   0  0  0  0  0  3  0  0  0  0  0  0
  186.5810  173.4440  135.9970 C   0  0  0  0  0  0  0  0  0  0  0  0
  187.4580  174.2160  135.2180 C   0  0  0  0  0  3  0  0  0  0  0  0
  189.9230  174.9980  134.3460 Cl  0  0  0  0  0  0  0  0  0  0  0  0
  189.3520  173.0990  136.2280 C   0  0  0  0  0  3  0  0  0  0  0  0
  188.8390  174.0420  135.3320 C   0  0  0  0  0  0  0  0  0  0  0  0
  188.4830  172.3320  137.0090 C   0  0  0  0  0  3  0  0  0  0  0  0
  187.8610  176.6450  138.2740 C   0  0  0  0  0  2  0  0  0  0  0  0
  188.0310  177.8040  139.2400 C   0  0  2  0  0  3  0  0  0  0  0  0
  187.0530  177.9140  138.0820 C   0  0  2  0  0  3  0  0  0  0  0  0
  189.2890  178.5720  138.8910 C   0  0  0  0  0  2  0  0  0  0  0  0
  190.4660  177.6190  138.8350 C   0  0  0  0  0  2  0  0  0  0  0  0
  191.0700  177.4830  140.2170 C   0  0  0  0  0  1  0  0  0  0  0  0
  1 14  1  6  0  0  0
  2 22  1  0  0  0  0
  2 12  1  0  0  0  0
  3  8  1  0  0  0  0
  4 17  1  0  0  0  0
  4  9  1  0  0  0  0
  5  8  1  0  0  0  0
  5 20  1  0  0  0  0
  5 10  1  0  0  0  0
  6 19  1  0  0  0  0
  6  3  1  0  0  0  0
  9 21  1  0  0  0  0
  9  6  1  0  0  0  0
 11  8  1  0  0  0  0
 11 16  1  0  0  0  0
 13 24  1  0  0  0  0
 13 18  1  0  0  0  0
 14  7  2  0  0  0  0
 15 10  1  0  0  0  0
 16 14  1  0  0  0  0
 16 12  1  0  0  0  0
 17 23  1  0  0  0  0
 18 15  1  0  0  0  0
 18  3  1  0  0  0  0
 19 11  1  0  0  0  0
 19  1  1  0  0  0  0
 20  2  2  0  0  0  0
 21 26  1  0  0  0  0
 21 24  1  0  0  0  0
 23 19  1  0  0  0  0
 25 31  1  0  0  0  0
 26 25  2  0  0  0  0
 27 30  2  0  0  0  0
 27 26  1  0  0  0  0
 28 30  1  0  0  0  0
 29 31  2  0  0  0  0
 30 29  1  0  0  0  0
 32 33  1  0  0  0  0
 34 32  1  0  0  0  0
 34  1  1  0  0  0  0
 34 33  1  0  0  0  0
 35 33  1  0  0  0  0
 36 35  1  0  0  0  0
 36 37  1  0  0  0  0
M  END
>  <MODEL>
3

>  <REMARK>
 VINA RESULT:      -5.0      1.962      3.214
  Name = 
  4 active torsions:
  status: ('A' for Active; 'I' for Inactive)
    1  A    between atoms: C_1  and  C_36
    2  A    between atoms: C_6  and  C_31
    3  A    between atoms: C_11  and  C_26
    4  A    between atoms: C_17  and  C_26
                            x       y       z     vdW  Elec       q    Type
                         _______ _______ _______ _____ _____    ______ ____

>  <TORSDO>
F 4

$$$$
=
 OpenBabel10272415003D

 37 44  0  0  1  0  0  0  0  0999 V2000
  187.1950  173.7380  136.4780 C   0  0  1  0  0  3  0  0  0  0  0  0
  191.9960  173.5800  135.8900 C   0  0  0  0  0  0  0  0  0  0  0  0
  188.9540  176.1570  138.0010 C   0  0  1  0  0  3  0  0  0  0  0  0
  186.3220  177.6440  135.5350 C   0  0  0  0  0  2  0  0  0  0  0  0
  191.2840  175.8220  136.9410 C   0  0  1  0  0  3  0  0  0  0  0  0
  187.6150  176.1420  137.2310 C   0  0  1  0  0  3  0  0  0  0  0  0
  188.1180  171.5610  136.0440 O   0  0  0  0  0  0  0  0  0  0  0  0
  189.8970  175.2500  137.2100 C   0  0  2  0  0  3  0  0  0  0  0  0
  187.1490  177.5590  136.8200 C   0  0  2  0  0  3  0  0  0  0  0  0
  191.8690  176.3740  138.2300 C   0  0  0  0  0  2  0  0  0  0  0  0
  189.2410  174.9120  135.8840 C   0  0  1  0  0  3  0  0  0  0  0  0
  190.7190  172.8320  136.1810 C   0  0  0  0  0  2  0  0  0  0  0  0
  188.7410  178.4540  139.2230 C   0  0  0  0  0  2  0  0  0  0  0  0
  188.2370  172.7760  135.9840 C   0  0  0  0  0  0  0  0  0  0  0  0
  190.9990  177.4910  138.8210 C   0  0  0  0  0  2  0  0  0  0  0  0
  189.4760  173.4420  135.5070 C   0  0  1  0  0  3  0  0  0  0  0  0
  186.0220  176.2600  134.9990 C   0  0  0  0  0  2  0  0  0  0  0  0
  189.5610  177.5620  138.2760 C   0  0  1  0  0  3  0  0  0  0  0  0
  187.7440  175.1250  136.0690 C   0  0  1  0  0  0  0  0  0  0  0  0
  192.2380  174.8530  136.2730 C   0  0  0  0  0  3  0  0  0  0  0  0
  186.4930  178.3150  137.9930 C   0  0  2  0  0  3  0  0  0  0  0  0
  193.0960  172.8310  135.2230 C   0  0  0  0  0  1  0  0  0  0  0  0
  187.2280  175.5620  134.8160 O   0  0  0  0  0  0  0  0  0  0  0  0
  187.2480  178.1330  139.3150 C   0  0  0  0  0  2  0  0  0  0  0  0
  184.6680  176.6000  138.0650 C   0  0  0  0  0  3  0  0  0  0  0  0
  185.0500  177.9410  138.1880 C   0  0  0  0  0  0  0  0  0  0  0  0
  184.0850  178.9100  138.5060 C   0  0  0  0  0  3  0  0  0  0  0  0
  181.5620  179.7520  139.1160 Cl  0  0  0  0  0  0  0  0  0  0  0  0
  182.3770  177.1980  138.5830 C   0  0  0  0  0  3  0  0  0  0  0  0
  182.7540  178.5380  138.7050 C   0  0  0  0  0  0  0  0  0  0  0  0
  183.3330  176.2300  138.2610 C   0  0  0  0  0  3  0  0  0  0  0  0
  184.8510  173.2170  137.2690 C   0  0  0  0  0  2  0  0  0  0  0  0
  185.2000  172.1070  136.2950 C   0  0  2  0  0  3  0  0  0  0  0  0
  185.7210  173.5160  136.0640 C   0  0  2  0  0  3  0  0  0  0  0  0
  184.0290  171.8610  135.3680 C   0  0  0  0  0  2  0  0  0  0  0  0
  183.0700  170.8780  136.0100 C   0  0  0  0  0  2  0  0  0  0  0  0
  183.6490  169.4820  135.9270 C   0  0  0  0  0  1  0  0  0  0  0  0
  1 14  1  6  0  0  0
  2 12  1  0  0  0  0
  2 20  2  0  0  0  0
  3 18  1  0  0  0  0
  4  9  1  0  0  0  0
  5  8  1  0  0  0  0
  5 10  1  0  0  0  0
  6  3  1  0  0  0  0
  8  3  1  0  0  0  0
  9  6  1  0  0  0  0
  9 21  1  0  0  0  0
 10 15  1  0  0  0  0
 11 19  1  0  0  0  0
 11  8  1  0  0  0  0
 13 24  1  0  0  0  0
 14  7  2  0  0  0  0
 16 11  1  0  0  0  0
 16 14  1  0  0  0  0
 16 12  1  0  0  0  0
 17  4  1  0  0  0  0
 18 15  1  0  0  0  0
 18 13  1  0  0  0  0
 19  1  1  0  0  0  0
 19  6  1  0  0  0  0
 20  5  1  0  0  0  0
 21 26  1  0  0  0  0
 21 24  1  0  0  0  0
 22  2  1  0  0  0  0
 23 17  1  0  0  0  0
 23 19  1  0  0  0  0
 25 26  2  0  0  0  0
 25 31  1  0  0  0  0
 26 27  1  0  0  0  0
 27 30  2  0  0  0  0
 29 30  1  0  0  0  0
 30 28  1  0  0  0  0
 31 29  2  0  0  0  0
 33 32  1  0  0  0  0
 34 33  1  0  0  0  0
 34  1  1  0  0  0  0
 34 32  1  0  0  0  0
 35 36  1  0  0  0  0
 35 33  1  0  0  0  0
 37 36  1  0  0  0  0
M  END
>  <MODEL>
4

>  <REMARK>
 VINA RESULT:      -4.9      3.271      7.959
  Name = 
  4 active torsions:
  status: ('A' for Active; 'I' for Inactive)
    1  A    between atoms: C_1  and  C_36
    2  A    between atoms: C_6  and  C_31
    3  A    between atoms: C_11  and  C_26
    4  A    between atoms: C_17  and  C_26
                            x       y       z     vdW  Elec       q    Type
                         _______ _______ _______ _____ _____    ______ ____

>  <TORSDO>
F 4

$$$$
=
 OpenBabel10272415003D

 37 44  0  0  1  0  0  0  0  0999 V2000
  185.8150  177.6920  138.9310 C   0  0  1  0  0  3  0  0  0  0  0  0
  183.2000  176.4080  135.0670 C   0  0  0  0  0  0  0  0  0  0  0  0
  187.1960  175.4020  136.9030 C   0  0  1  0  0  3  0  0  0  0  0  0
  189.4780  178.5430  137.2700 C   0  0  0  0  0  2  0  0  0  0  0  0
  185.6090  175.5140  134.8710 C   0  0  1  0  0  3  0  0  0  0  0  0
  187.7580  176.6240  137.6630 C   0  0  1  0  0  3  0  0  0  0  0  0
  183.4340  177.9310  139.1610 O   0  0  0  0  0  0  0  0  0  0  0  0
  185.8480  175.8480  136.3380 C   0  0  2  0  0  3  0  0  0  0  0  0
  189.1520  177.0530  137.1510 C   0  0  2  0  0  3  0  0  0  0  0  0
  185.9490  174.0550  134.6160 C   0  0  0  0  0  2  0  0  0  0  0  0
  185.7210  177.3490  136.5250 C   0  0  1  0  0  3  0  0  0  0  0  0
  183.2360  176.6960  136.5470 C   0  0  0  0  0  2  0  0  0  0  0  0
  189.4230  174.1530  136.3550 C   0  0  0  0  0  2  0  0  0  0  0  0
  184.4070  177.8330  138.4280 C   0  0  0  0  0  0  0  0  0  0  0  0
  187.4170  173.7450  134.9430 C   0  0  0  0  0  2  0  0  0  0  0  0
  184.2970  177.7370  136.9500 C   0  0  1  0  0  3  0  0  0  0  0  0
  188.3760  179.2750  138.0070 C   0  0  0  0  0  2  0  0  0  0  0  0
  188.1290  174.7900  135.8200 C   0  0  1  0  0  3  0  0  0  0  0  0
  186.6760  177.7340  137.6470 C   0  0  1  0  0  0  0  0  0  0  0  0
  184.2160  175.8490  134.3740 C   0  0  0  0  0  3  0  0  0  0  0  0
  190.2760  176.1580  137.7120 C   0  0  2  0  0  3  0  0  0  0  0  0
  181.9240  176.6660  134.3460 C   0  0  0  0  0  1  0  0  0  0  0  0
  187.1520  179.0430  137.3580 O   0  0  0  0  0  0  0  0  0  0  0  0
  189.9070  174.6700  137.7110 C   0  0  0  0  0  2  0  0  0  0  0  0
  191.8960  177.2780  139.2610 C   0  0  0  0  0  3  0  0  0  0  0  0
  190.7030  176.5660  139.0950 C   0  0  0  0  0  0  0  0  0  0  0  0
  189.9180  176.2590  140.2170 C   0  0  0  0  0  3  0  0  0  0  0  0
  189.3260  176.2910  142.8810 Cl  0  0  0  0  0  0  0  0  0  0  0  0
  191.5120  177.3790  141.6510 C   0  0  0  0  0  3  0  0  0  0  0  0
  190.3200  176.6660  141.4910 C   0  0  0  0  0  0  0  0  0  0  0  0
  192.3000  177.6830  140.5370 C   0  0  0  0  0  3  0  0  0  0  0  0
  187.2590  177.9580  140.9900 C   0  0  0  0  0  2  0  0  0  0  0  0
  185.8520  178.3070  141.4400 C   0  0  2  0  0  3  0  0  0  0  0  0
  186.3110  178.6560  140.0340 C   0  0  2  0  0  3  0  0  0  0  0  0
  185.8900  179.5590  142.2910 C   0  0  0  0  0  2  0  0  0  0  0  0
  185.1630  179.3070  143.5970 C   0  0  0  0  0  2  0  0  0  0  0  0
  185.8360  178.1710  144.3370 C   0  0  0  0  0  1  0  0  0  0  0  0
  1 14  1  6  0  0  0
  1 34  1  0  0  0  0
  2 12  1  0  0  0  0
  3  6  1  0  0  0  0
  4 17  1  0  0  0  0
  5  8  1  0  0  0  0
  8 11  1  0  0  0  0
  8  3  1  0  0  0  0
  9  4  1  0  0  0  0
  9  6  1  0  0  0  0
  9 21  1  0  0  0  0
 10  5  1  0  0  0  0
 10 15  1  0  0  0  0
 11 16  1  0  0  0  0
 11 19  1  0  0  0  0
 12 16  1  0  0  0  0
 13 24  1  0  0  0  0
 14  7  2  0  0  0  0
 15 18  1  0  0  0  0
 16 14  1  0  0  0  0
 18 13  1  0  0  0  0
 18  3  1  0  0  0  0
 19  6  1  0  0  0  0
 19  1  1  0  0  0  0
 20  5  1  0  0  0  0
 20  2  2  0  0  0  0
 21 26  1  0  0  0  0
 22  2  1  0  0  0  0
 23 19  1  0  0  0  0
 23 17  1  0  0  0  0
 24 21  1  0  0  0  0
 25 31  1  0  0  0  0
 26 25  2  0  0  0  0
 26 27  1  0  0  0  0
 27 30  2  0  0  0  0
 30 29  1  0  0  0  0
 30 28  1  0  0  0  0
 31 29  2  0  0  0  0
 32 33  1  0  0  0  0
 33 35  1  0  0  0  0
 34 32  1  0  0  0  0
 34 33  1  0  0  0  0
 35 36  1  0  0  0  0
 36 37  1  0  0  0  0
M  END
>  <MODEL>
5

>  <REMARK>
 VINA RESULT:      -4.9      2.208      4.034
  Name = 
  4 active torsions:
  status: ('A' for Active; 'I' for Inactive)
    1  A    between atoms: C_1  and  C_36
    2  A    between atoms: C_6  and  C_31
    3  A    between atoms: C_11  and  C_26
    4  A    between atoms: C_17  and  C_26
                            x       y       z     vdW  Elec       q    Type
                         _______ _______ _______ _____ _____    ______ ____

>  <TORSDO>
F 4

$$$$
=
 OpenBabel10272415003D

 37 44  0  0  1  0  0  0  0  0999 V2000
  190.3300  175.5840  137.3480 C   0  0  1  0  0  3  0  0  0  0  0  0
  186.1730  174.4060  135.1690 C   0  0  0  0  0  0  0  0  0  0  0  0
  190.2960  172.6580  135.7050 C   0  0  1  0  0  3  0  0  0  0  0  0
  193.0850  175.0250  134.3480 C   0  0  0  0  0  2  0  0  0  0  0  0
  188.0720  172.8400  134.4090 C   0  0  1  0  0  3  0  0  0  0  0  0
  191.3420  173.7870  135.8420 C   0  0  1  0  0  3  0  0  0  0  0  0
  188.3450  176.5350  138.3150 O   0  0  0  0  0  0  0  0  0  0  0  0
  188.9480  173.3590  135.5420 C   0  0  2  0  0  3  0  0  0  0  0  0
  192.4600  173.6950  134.7770 C   0  0  2  0  0  3  0  0  0  0  0  0
  187.9930  171.3240  134.4760 C   0  0  0  0  0  2  0  0  0  0  0  0
  189.1980  174.8400  135.3280 C   0  0  1  0  0  3  0  0  0  0  0  0
  186.8650  174.9430  136.3980 C   0  0  0  0  0  2  0  0  0  0  0  0
  191.8220  170.7440  134.7930 C   0  0  0  0  0  2  0  0  0  0  0  0
  188.8950  176.0270  137.3490 C   0  0  0  0  0  0  0  0  0  0  0  0
  189.3770  170.6720  134.3460 C   0  0  0  0  0  2  0  0  0  0  0  0
  188.1750  175.6920  136.0930 C   0  0  1  0  0  3  0  0  0  0  0  0
  192.5420  176.1650  135.1820 C   0  0  0  0  0  2  0  0  0  0  0  0
  190.5700  171.6140  134.5850 C   0  0  1  0  0  3  0  0  0  0  0  0
  190.5830  175.1370  135.8900 C   0  0  1  0  0  0  0  0  0  0  0  0
  186.6900  173.4610  134.3540 C   0  0  0  0  0  3  0  0  0  0  0  0
  193.5210  172.6360  135.1410 C   0  0  2  0  0  3  0  0  0  0  0  0
  184.7890  174.8810  134.8960 C   0  0  0  0  0  1  0  0  0  0  0  0
  191.1400  176.1780  135.0940 O   0  0  0  0  0  0  0  0  0  0  0  0
  192.9070  171.3440  135.6900 C   0  0  0  0  0  2  0  0  0  0  0  0
  194.4120  172.8550  137.4730 C   0  0  0  0  0  3  0  0  0  0  0  0
  194.5450  173.1550  136.1120 C   0  0  0  0  0  0  0  0  0  0  0  0
  195.6390  173.9190  135.6760 C   0  0  0  0  0  3  0  0  0  0  0  0
  197.9590  175.3100  136.0340 Cl  0  0  0  0  0  0  0  0  0  0  0  0
  196.4540  174.0680  137.9480 C   0  0  0  0  0  3  0  0  0  0  0  0
  196.5920  174.3720  136.5910 C   0  0  0  0  0  0  0  0  0  0  0  0
  195.3640  173.3120  138.3890 C   0  0  0  0  0  3  0  0  0  0  0  0
  192.6700  175.8100  138.2800 C   0  0  0  0  0  2  0  0  0  0  0  0
  191.7560  176.3680  139.3560 C   0  0  2  0  0  3  0  0  0  0  0  0
  191.4080  176.5540  137.8880 C   0  0  2  0  0  3  0  0  0  0  0  0
  192.3320  177.6620  139.8890 C   0  0  0  0  0  2  0  0  0  0  0  0
  191.9320  177.8360  141.3400 C   0  0  0  0  0  2  0  0  0  0  0  0
  190.5350  177.2890  141.5460 C   0  0  0  0  0  1  0  0  0  0  0  0
  1 14  1  6  0  0  0
  1 34  1  0  0  0  0
  2 12  1  0  0  0  0
  3  6  1  0  0  0  0
  4  9  1  0  0  0  0
  4 17  1  0  0  0  0
  5 10  1  0  0  0  0
  5  8  1  0  0  0  0
  6 19  1  0  0  0  0
  8  3  1  0  0  0  0
  9 21  1  0  0  0  0
  9  6  1  0  0  0  0
 11  8  1  0  0  0  0
 11 19  1  0  0  0  0
 11 16  1  0  0  0  0
 13 24  1  0  0  0  0
 14  7  2  0  0  0  0
 15 10  1  0  0  0  0
 15 18  1  0  0  0  0
 16 12  1  0  0  0  0
 16 14  1  0  0  0  0
 18 13  1  0  0  0  0
 18  3  1  0  0  0  0
 19  1  1  0  0  0  0
 20  5  1  0  0  0  0
 20  2  2  0  0  0  0
 21 24  1  0  0  0  0
 21 26  1  0  0  0  0
 22  2  1  0  0  0  0
 23 17  1  0  0  0  0
 23 19  1  0  0  0  0
 25 31  1  0  0  0  0
 26 25  2  0  0  0  0
 27 26  1  0  0  0  0
 27 30  2  0  0  0  0
 28 30  1  0  0  0  0
 29 31  2  0  0  0  0
 30 29  1  0  0  0  0
 32 33  1  0  0  0  0
 33 35  1  0  0  0  0
 34 32  1  0  0  0  0
 34 33  1  0  0  0  0
 35 36  1  0  0  0  0
 36 37  1  0  0  0  0
M  END
>  <MODEL>
6

>  <REMARK>
 VINA RESULT:      -4.6      3.068      5.249
  Name = 
  4 active torsions:
  status: ('A' for Active; 'I' for Inactive)
    1  A    between atoms: C_1  and  C_36
    2  A    between atoms: C_6  and  C_31
    3  A    between atoms: C_11  and  C_26
    4  A    between atoms: C_17  and  C_26
                            x       y       z     vdW  Elec       q    Type
                         _______ _______ _______ _____ _____    ______ ____

>  <TORSDO>
F 4

$$$$
=
 OpenBabel10272415003D

 37 44  0  0  1  0  0  0  0  0999 V2000
  189.9810  177.8830  142.3640 C   0  0  1  0  0  3  0  0  0  0  0  0
  189.3000  177.3700  137.6000 C   0  0  0  0  0  0  0  0  0  0  0  0
  186.9450  178.7190  141.2040 C   0  0  1  0  0  3  0  0  0  0  0  0
  186.7140  175.9420  143.9330 C   0  0  0  0  0  2  0  0  0  0  0  0
  187.0580  177.7900  138.7980 C   0  0  1  0  0  3  0  0  0  0  0  0
  187.4310  177.9760  142.4680 C   0  0  1  0  0  3  0  0  0  0  0  0
  191.9610  178.0410  141.0080 O   0  0  0  0  0  0  0  0  0  0  0  0
  187.8120  178.1980  140.0580 C   0  0  2  0  0  3  0  0  0  0  0  0
  186.2950  177.2060  143.1790 C   0  0  2  0  0  3  0  0  0  0  0  0
  186.0850  178.8900  138.4060 C   0  0  0  0  0  2  0  0  0  0  0  0
  188.6070  177.0060  140.5590 C   0  0  1  0  0  3  0  0  0  0  0  0
  190.1930  177.8450  138.7200 C   0  0  0  0  0  2  0  0  0  0  0  0
  184.5040  179.2920  141.9320 C   0  0  0  0  0  2  0  0  0  0  0  0
  190.8050  177.6630  141.1280 C   0  0  0  0  0  0  0  0  0  0  0  0
  185.0560  179.1630  139.5110 C   0  0  0  0  0  2  0  0  0  0  0  0
  190.0440  177.0300  140.0190 C   0  0  1  0  0  3  0  0  0  0  0  0
  188.2210  175.7880  143.9250 C   0  0  0  0  0  2  0  0  0  0  0  0
  185.4230  178.6160  140.9010 C   0  0  1  0  0  3  0  0  0  0  0  0
  188.6650  177.1240  142.0770 C   0  0  1  0  0  0  0  0  0  0  0  0
  187.9500  177.4040  137.6350 C   0  0  0  0  0  3  0  0  0  0  0  0
  185.4120  178.1360  144.0360 C   0  0  2  0  0  3  0  0  0  0  0  0
  189.9550  176.9270  136.3390 C   0  0  0  0  0  1  0  0  0  0  0  0
  188.6800  175.7990  142.5970 O   0  0  0  0  0  0  0  0  0  0  0  0
  185.0900  179.4610  143.3360 C   0  0  0  0  0  2  0  0  0  0  0  0
  185.6030  179.5560  146.0920 C   0  0  0  0  0  3  0  0  0  0  0  0
  186.0100  178.4180  145.3870 C   0  0  0  0  0  0  0  0  0  0  0  0
  186.9560  177.5510  145.9570 C   0  0  0  0  0  3  0  0  0  0  0  0
  188.6500  176.7240  147.9300 Cl  0  0  0  0  0  0  0  0  0  0  0  0
  187.0720  178.9560  147.9230 C   0  0  0  0  0  3  0  0  0  0  0  0
  187.4830  177.8190  147.2220 C   0  0  0  0  0  0  0  0  0  0  0  0
  186.1350  179.8250  147.3580 C   0  0  0  0  0  3  0  0  0  0  0  0
  191.9820  178.1440  143.8880 C   0  0  0  0  0  2  0  0  0  0  0  0
  191.8300  176.6480  143.6820 C   0  0  2  0  0  3  0  0  0  0  0  0
  190.5990  177.5390  143.7400 C   0  0  2  0  0  3  0  0  0  0  0  0
  191.9800  175.9350  145.0090 C   0  0  0  0  0  2  0  0  0  0  0  0
  191.6090  176.8790  146.1360 C   0  0  0  0  0  2  0  0  0  0  0  0
  191.9820  176.2510  147.4620 C   0  0  0  0  0  1  0  0  0  0  0  0
  1 14  1  6  0  0  0
  1 34  1  0  0  0  0
  2 20  2  0  0  0  0
  2 12  1  0  0  0  0
  3  6  1  0  0  0  0
  5  8  1  0  0  0  0
  6  9  1  0  0  0  0
  7 14  2  0  0  0  0
  8 11  1  0  0  0  0
  8  3  1  0  0  0  0
  9  4  1  0  0  0  0
  9 21  1  0  0  0  0
 10  5  1  0  0  0  0
 10 15  1  0  0  0  0
 11 19  1  0  0  0  0
 12 16  1  0  0  0  0
 13 24  1  0  0  0  0
 15 18  1  0  0  0  0
 16 11  1  0  0  0  0
 16 14  1  0  0  0  0
 17  4  1  0  0  0  0
 18  3  1  0  0  0  0
 18 13  1  0  0  0  0
 19  1  1  0  0  0  0
 19  6  1  0  0  0  0
 19 23  1  0  0  0  0
 20  5  1  0  0  0  0
 21 26  1  0  0  0  0
 22  2  1  0  0  0  0
 23 17  1  0  0  0  0
 24 21  1  0  0  0  0
 25 31  1  0  0  0  0
 26 27  1  0  0  0  0
 26 25  2  0  0  0  0
 27 30  2  0  0  0  0
 30 29  1  0  0  0  0
 30 28  1  0  0  0  0
 31 29  2  0  0  0  0
 33 34  1  0  0  0  0
 33 32  1  0  0  0  0
 33 35  1  0  0  0  0
 34 32  1  0  0  0  0
 35 36  1  0  0  0  0
 36 37  1  0  0  0  0
M  END
>  <MODEL>
7

>  <REMARK>
 VINA RESULT:      -4.4      3.986      7.679
  Name = 
  4 active torsions:
  status: ('A' for Active; 'I' for Inactive)
    1  A    between atoms: C_1  and  C_36
    2  A    between atoms: C_6  and  C_31
    3  A    between atoms: C_11  and  C_26
    4  A    between atoms: C_17  and  C_26
                            x       y       z     vdW  Elec       q    Type
                         _______ _______ _______ _____ _____    ______ ____

>  <TORSDO>
F 4

$$$$
=
 OpenBabel10272415003D

 37 44  0  0  1  0  0  0  0  0999 V2000
  190.4040  177.9510  142.8890 C   0  0  1  0  0  3  0  0  0  0  0  0
  191.2460  176.9200  138.2360 C   0  0  0  0  0  0  0  0  0  0  0  0
  187.8270  178.3910  140.7850 C   0  0  1  0  0  3  0  0  0  0  0  0
  186.9310  175.8810  143.6330 C   0  0  0  0  0  2  0  0  0  0  0  0
  188.7240  177.2490  138.6510 C   0  0  1  0  0  3  0  0  0  0  0  0
  187.9440  177.8220  142.2160 C   0  0  1  0  0  3  0  0  0  0  0  0
  192.6920  178.1570  142.1760 O   0  0  0  0  0  0  0  0  0  0  0  0
  189.0320  177.8430  140.0210 C   0  0  2  0  0  3  0  0  0  0  0  0
  186.6900  177.0230  142.6430 C   0  0  2  0  0  3  0  0  0  0  0  0
  187.8570  178.2130  137.8580 C   0  0  0  0  0  2  0  0  0  0  0  0
  189.7020  176.7830  140.8740 C   0  0  1  0  0  3  0  0  0  0  0  0
  191.7240  177.5810  139.5060 C   0  0  0  0  0  2  0  0  0  0  0  0
  185.2510  178.8080  140.6790 C   0  0  0  0  0  2  0  0  0  0  0  0
  191.5780  177.6880  141.9890 C   0  0  0  0  0  0  0  0  0  0  0  0
  186.5240  178.4970  138.5660 C   0  0  0  0  0  2  0  0  0  0  0  0
  191.2320  176.8850  140.7880 C   0  0  1  0  0  3  0  0  0  0  0  0
  188.3740  175.8660  144.0920 C   0  0  0  0  0  2  0  0  0  0  0  0
  186.4800  178.1220  140.0570 C   0  0  1  0  0  3  0  0  0  0  0  0
  189.2850  177.0510  142.3150 C   0  0  1  0  0  0  0  0  0  0  0  0
  189.9510  176.8350  137.8620 C   0  0  0  0  0  3  0  0  0  0  0  0
  185.5360  177.9480  143.0800 C   0  0  2  0  0  3  0  0  0  0  0  0
  192.2790  176.4190  137.2890 C   0  0  0  0  0  1  0  0  0  0  0  0
  189.2160  175.7900  142.9700 O   0  0  0  0  0  0  0  0  0  0  0  0
  185.3680  179.1640  142.1620 C   0  0  0  0  0  2  0  0  0  0  0  0
  184.6350  179.1420  145.0910 C   0  0  0  0  0  3  0  0  0  0  0  0
  185.6750  178.4130  144.5040 C   0  0  0  0  0  0  0  0  0  0  0  0
  186.8210  178.1130  145.2570 C   0  0  0  0  0  3  0  0  0  0  0  0
  188.3490  178.1410  147.5180 Cl  0  0  0  0  0  0  0  0  0  0  0  0
  185.8790  179.2600  147.1660 C   0  0  0  0  0  3  0  0  0  0  0  0
  186.9220  178.5330  146.5840 C   0  0  0  0  0  0  0  0  0  0  0  0
  184.7380  179.5660  146.4200 C   0  0  0  0  0  3  0  0  0  0  0  0
  191.9820  178.2190  144.8460 C   0  0  0  0  0  2  0  0  0  0  0  0
  191.6070  176.7490  144.8350 C   0  0  2  0  0  3  0  0  0  0  0  0
  190.5900  177.7990  144.4170 C   0  0  2  0  0  3  0  0  0  0  0  0
  191.2900  176.2960  146.2450 C   0  0  0  0  0  2  0  0  0  0  0  0
  192.4110  175.4140  146.7580 C   0  0  0  0  0  2  0  0  0  0  0  0
  192.7320  175.7880  148.1890 C   0  0  0  0  0  1  0  0  0  0  0  0
  1 14  1  6  0  0  0
  1 34  1  0  0  0  0
  2 12  1  0  0  0  0
  3  6  1  0  0  0  0
  4 17  1  0  0  0  0
  5  8  1  0  0  0  0
  6 19  1  0  0  0  0
  6  9  1  0  0  0  0
  8  3  1  0  0  0  0
  8 11  1  0  0  0  0
  9 21  1  0  0  0  0
  9  4  1  0  0  0  0
 10 15  1  0  0  0  0
 10  5  1  0  0  0  0
 11 19  1  0  0  0  0
 12 16  1  0  0  0  0
 13 24  1  0  0  0  0
 14  7  2  0  0  0  0
 15 18  1  0  0  0  0
 16 11  1  0  0  0  0
 16 14  1  0  0  0  0
 18 13  1  0  0  0  0
 18  3  1  0  0  0  0
 19  1  1  0  0  0  0
 19 23  1  0  0  0  0
 20  2  2  0  0  0  0
 20  5  1  0  0  0  0
 21 26  1  0  0  0  0
 22  2  1  0  0  0  0
 23 17  1  0  0  0  0
 24 21  1  0  0  0  0
 25 31  1  0  0  0  0
 26 25  2  0  0  0  0
 26 27  1  0  0  0  0
 27 30  2  0  0  0  0
 30 29  1  0  0  0  0
 30 28  1  0  0  0  0
 31 29  2  0  0  0  0
 33 32  1  0  0  0  0
 33 35  1  0  0  0  0
 34 33  1  0  0  0  0
 34 32  1  0  0  0  0
 35 36  1  0  0  0  0
 36 37  1  0  0  0  0
M  END
>  <MODEL>
8

>  <REMARK>
 VINA RESULT:      -4.1      3.990      7.868
  Name = 
  4 active torsions:
  status: ('A' for Active; 'I' for Inactive)
    1  A    between atoms: C_1  and  C_36
    2  A    between atoms: C_6  and  C_31
    3  A    between atoms: C_11  and  C_26
    4  A    between atoms: C_17  and  C_26
                            x       y       z     vdW  Elec       q    Type
                         _______ _______ _______ _____ _____    ______ ____

>  <TORSDO>
F 4

$$$$
