=
 OpenBabel10272401023D

 27 30  0  0  1  0  0  0  0  0999 V2000
  189.6700  177.6580  141.5500 C   0  0  2  0  0  3  0  0  0  0  0  0
  190.7310  177.2500  140.5670 C   0  0  0  0  0  0  0  0  0  0  0  0
  193.6330  175.4810  138.1900 C   0  0  0  0  0  3  0  0  0  0  0  0
  194.2430  173.5580  136.9510 O   0  0  0  0  0  1  0  0  0  0  0  0
  191.9960  177.6740  140.6730 C   0  0  0  0  0  3  0  0  0  0  0  0
  190.8750  174.8990  137.6470 C   0  0  0  0  0  2  0  0  0  0  0  0
  191.8590  174.2300  137.0330 C   0  0  0  0  0  3  0  0  0  0  0  0
  190.3790  176.2980  139.5480 N   0  0  0  0  0  0  0  0  0  0  0  0
  193.2800  174.4610  137.3880 C   0  0  0  0  0  0  0  0  0  0  0  0
  192.6100  176.5090  138.5770 C   0  0  0  0  0  0  0  0  0  0  0  0
  191.2280  175.9190  138.6420 C   0  0  0  0  0  0  0  0  0  0  0  0
  192.9660  177.2480  139.7530 O   0  0  0  0  0  0  0  0  0  0  0  0
  189.5660  176.8440  142.8700 C   0  0  2  0  0  0  0  0  0  0  0  0
  191.3640  178.0050  144.0450 O   0  0  0  0  0  1  0  0  0  0  0  0
  189.8330  178.2010  146.3900 O   0  0  0  0  0  1  0  0  0  0  0  0
  187.9870  177.0130  145.4490 C   0  0  0  0  0  2  0  0  0  0  0  0
  190.5140  175.6470  142.8240 C   0  0  0  0  0  1  0  0  0  0  0  0
  189.5030  177.2700  145.4080 C   0  0  1  0  0  3  0  0  0  0  0  0
  187.3220  177.0770  144.0740 C   0  0  0  0  0  2  0  0  0  0  0  0
  188.1390  176.2790  143.0540 C   0  0  0  0  0  2  0  0  0  0  0  0
  189.9810  177.7760  144.0400 C   0  0  2  0  0  3  0  0  0  0  0  0
  185.9870  178.7430  139.6860 N   0  0  0  0  0  0  0  0  0  0  0  0
  188.3620  178.0420  140.9080 C   0  0  0  0  0  0  0  0  0  0  0  0
  188.1680  177.7840  139.5470 C   0  0  0  0  0  3  0  0  0  0  0  0
  186.9650  178.1500  138.9440 C   0  0  0  0  0  3  0  0  0  0  0  0
  186.1480  178.9980  141.0100 C   0  0  0  0  0  3  0  0  0  0  0  0
  187.3420  178.6540  141.6460 C   0  0  0  0  0  3  0  0  0  0  0  0
  1  2  1  6  0  0  0
  1 13  1  0  0  0  0
  2  5  2  0  0  0  0
  3 10  2  0  0  0  0
  4  9  1  0  0  0  0
  6 11  1  0  0  0  0
  7  9  2  0  0  0  0
  7  6  1  0  0  0  0
  8  2  1  0  0  0  0
  9  3  1  0  0  0  0
 10 11  1  0  0  0  0
 10 12  1  0  0  0  0
 11  8  2  0  0  0  0
 12  5  1  0  0  0  0
 13 17  1  6  0  0  0
 13 20  1  0  0  0  0
 13 21  1  0  0  0  0
 18 16  1  0  0  0  0
 18 15  1  1  0  0  0
 19 16  1  0  0  0  0
 20 19  1  0  0  0  0
 21 14  1  1  0  0  0
 21 18  1  0  0  0  0
 22 26  1  0  0  0  0
 23  1  1  0  0  0  0
 23 27  1  0  0  0  0
 24 23  2  0  0  0  0
 25 24  1  0  0  0  0
 25 22  2  0  0  0  0
 26 27  2  0  0  0  0
M  END
>  <MODEL>
1

>  <REMARK>
 VINA RESULT:      -8.3      0.000      0.000
  Name = 
  3 active torsions:
  status: ('A' for Active; 'I' for Inactive)
    1  A    between atoms: C_1  and  C_15
    2  A    between atoms: C_2  and  C_15
    3  A    between atoms: C_9  and  C_15
                            x       y       z     vdW  Elec       q    Type
                         _______ _______ _______ _____ _____    ______ ____

>  <TORSDO>
F 3

$$$$
=
 OpenBabel10272401023D

 27 30  0  0  1  0  0  0  0  0999 V2000
  187.1330  178.3650  143.0030 C   0  0  2  0  0  3  0  0  0  0  0  0
  187.6830  178.2840  141.6070 C   0  0  0  0  0  0  0  0  0  0  0  0
  188.8970  177.4010  137.7400 C   0  0  0  0  0  3  0  0  0  0  0  0
  188.2520  176.5240  135.6390 O   0  0  0  0  0  1  0  0  0  0  0  0
  188.9860  178.0940  141.3690 C   0  0  0  0  0  3  0  0  0  0  0  0
  186.1890  178.2510  138.1660 C   0  0  0  0  0  2  0  0  0  0  0  0
  186.5920  177.7880  136.9760 C   0  0  0  0  0  3  0  0  0  0  0  0
  186.7530  178.3150  140.5100 N   0  0  0  0  0  0  0  0  0  0  0  0
  187.9630  177.2550  136.7850 C   0  0  0  0  0  0  0  0  0  0  0  0
  188.6140  178.2740  138.9280 C   0  0  0  0  0  0  0  0  0  0  0  0
  187.1510  178.2830  139.2740 C   0  0  0  0  0  0  0  0  0  0  0  0
  189.4600  177.9930  140.0520 O   0  0  0  0  0  0  0  0  0  0  0  0
  187.6640  177.3380  144.0420 C   0  0  2  0  0  0  0  0  0  0  0  0
  189.9900  178.0770  143.9870 O   0  0  0  0  0  1  0  0  0  0  0  0
  190.1810  177.9950  146.7870 O   0  0  0  0  0  1  0  0  0  0  0  0
  187.9480  177.1920  147.0540 C   0  0  0  0  0  2  0  0  0  0  0  0
  188.1580  176.0800  143.3310 C   0  0  0  0  0  1  0  0  0  0  0  0
  189.1710  177.2980  146.1280 C   0  0  1  0  0  3  0  0  0  0  0  0
  186.6340  177.5720  146.3710 C   0  0  0  0  0  2  0  0  0  0  0  0
  186.5340  176.8960  145.0010 C   0  0  0  0  0  2  0  0  0  0  0  0
  188.8490  177.9940  144.7980 C   0  0  2  0  0  3  0  0  0  0  0  0
  182.9510  179.1980  143.2000 N   0  0  0  0  0  0  0  0  0  0  0  0
  185.6550  178.6530  143.0570 C   0  0  0  0  0  0  0  0  0  0  0  0
  185.1740  179.5890  143.9760 C   0  0  0  0  0  3  0  0  0  0  0  0
  183.8050  179.8490  144.0400 C   0  0  0  0  0  3  0  0  0  0  0  0
  183.3930  178.2890  142.2950 C   0  0  0  0  0  3  0  0  0  0  0  0
  184.7550  177.9960  142.2080 C   0  0  0  0  0  3  0  0  0  0  0  0
  1  2  1  6  0  0  0
  1 23  1  0  0  0  0
  1 13  1  0  0  0  0
  3 10  2  0  0  0  0
  4  9  1  0  0  0  0
  5  2  2  0  0  0  0
  6 11  1  0  0  0  0
  7  6  1  0  0  0  0
  8  2  1  0  0  0  0
  9  7  2  0  0  0  0
  9  3  1  0  0  0  0
 10 11  1  0  0  0  0
 10 12  1  0  0  0  0
 11  8  2  0  0  0  0
 12  5  1  0  0  0  0
 13 17  1  6  0  0  0
 13 21  1  0  0  0  0
 13 20  1  0  0  0  0
 18 15  1  1  0  0  0
 18 16  1  0  0  0  0
 19 16  1  0  0  0  0
 20 19  1  0  0  0  0
 21 14  1  6  0  0  0
 21 18  1  0  0  0  0
 22 25  1  0  0  0  0
 23 24  1  0  0  0  0
 24 25  2  0  0  0  0
 26 22  2  0  0  0  0
 27 26  1  0  0  0  0
 27 23  2  0  0  0  0
M  END
>  <MODEL>
2

>  <REMARK>
 VINA RESULT:      -7.6      2.868      4.034
  Name = 
  3 active torsions:
  status: ('A' for Active; 'I' for Inactive)
    1  A    between atoms: C_1  and  C_15
    2  A    between atoms: C_2  and  C_15
    3  A    between atoms: C_9  and  C_15
                            x       y       z     vdW  Elec       q    Type
                         _______ _______ _______ _____ _____    ______ ____

>  <TORSDO>
F 3

$$$$
=
 OpenBabel10272401023D

 27 30  0  0  1  0  0  0  0  0999 V2000
  189.9590  177.1990  138.3920 C   0  0  2  0  0  3  0  0  0  0  0  0
  190.3010  177.1600  139.8550 C   0  0  0  0  0  0  0  0  0  0  0  0
  190.8200  177.6430  143.9420 C   0  0  0  0  0  3  0  0  0  0  0  0
  189.7560  178.0710  146.0120 O   0  0  0  0  0  1  0  0  0  0  0  0
  191.5030  177.5310  140.3120 C   0  0  0  0  0  3  0  0  0  0  0  0
  188.3980  176.4210  143.0030 C   0  0  0  0  0  3  0  0  0  0  0  0
  188.5500  176.7610  144.2890 C   0  0  0  0  0  3  0  0  0  0  0  0
  189.2610  176.8080  140.7840 N   0  0  0  0  0  0  0  0  0  0  0  0
  189.7600  177.4830  144.7530 C   0  0  0  0  0  0  0  0  0  0  0  0
  190.8620  176.9240  142.6250 C   0  0  1  0  0  3  0  0  0  0  0  0
  189.4830  176.7200  142.0600 C   0  0  0  0  0  0  0  0  0  0  0  0
  191.7760  177.5100  141.6880 O   0  0  0  0  0  0  0  0  0  0  0  0
  188.4590  177.3360  138.0100 C   0  0  2  0  0  0  0  0  0  0  0  0
  188.6480  179.5310  136.9580 O   0  0  0  0  0  1  0  0  0  0  0  0
  187.0660  178.7290  134.7820 O   0  0  0  0  0  1  0  0  0  0  0  0
  186.6940  176.5470  135.6790 C   0  0  0  0  0  2  0  0  0  0  0  0
  187.6980  178.0540  139.1230 C   0  0  0  0  0  1  0  0  0  0  0  0
  187.0320  178.0170  135.9790 C   0  0  1  0  0  3  0  0  0  0  0  0
  187.6240  175.5550  136.3770 C   0  0  0  0  0  2  0  0  0  0  0  0
  187.8060  175.9440  137.8470 C   0  0  0  0  0  2  0  0  0  0  0  0
  188.3730  178.1790  136.7100 C   0  0  2  0  0  3  0  0  0  0  0  0
  192.2360  174.5110  135.9820 N   0  0  0  0  0  0  0  0  0  0  0  0
  190.7670  176.2410  137.5560 C   0  0  0  0  0  0  0  0  0  0  0  0
  191.1900  176.6350  136.2820 C   0  0  0  0  0  3  0  0  0  0  0  0
  191.9260  175.7470  135.4980 C   0  0  0  0  0  3  0  0  0  0  0  0
  191.8440  174.1070  137.2170 C   0  0  0  0  0  3  0  0  0  0  0  0
  191.0980  174.9650  138.0270 C   0  0  0  0  0  3  0  0  0  0  0  0
  1 23  1  6  0  0  0
  1  2  1  0  0  0  0
  2  5  2  0  0  0  0
  2  8  1  0  0  0  0
  3  9  2  0  0  0  0
  5 12  1  0  0  0  0
  6  7  2  0  0  0  0
  7  9  1  0  0  0  0
  8 11  2  0  0  0  0
  9  4  1  0  0  0  0
 10  3  1  1  0  0  0
 11 10  1  0  0  0  0
 11  6  1  0  0  0  0
 12 10  1  0  0  0  0
 13  1  1  0  0  0  0
 13 17  1  1  0  0  0
 16 18  1  0  0  0  0
 16 19  1  0  0  0  0
 18 15  1  6  0  0  0
 18 21  1  0  0  0  0
 19 20  1  0  0  0  0
 20 13  1  0  0  0  0
 21 14  1  1  0  0  0
 21 13  1  0  0  0  0
 22 26  1  0  0  0  0
 23 27  1  0  0  0  0
 24 23  2  0  0  0  0
 25 22  2  0  0  0  0
 25 24  1  0  0  0  0
 26 27  2  0  0  0  0
M  END
>  <MODEL>
3

>  <REMARK>
 VINA RESULT:      -7.4      2.678      6.845
  Name = 
  3 active torsions:
  status: ('A' for Active; 'I' for Inactive)
    1  A    between atoms: C_1  and  C_15
    2  A    between atoms: C_2  and  C_15
    3  A    between atoms: C_9  and  C_15
                            x       y       z     vdW  Elec       q    Type
                         _______ _______ _______ _____ _____    ______ ____

>  <TORSDO>
F 3

$$$$
=
 OpenBabel10272401023D

 27 30  0  0  1  0  0  0  0  0999 V2000
  189.5960  177.2840  142.3820 C   0  0  2  0  0  3  0  0  0  0  0  0
  188.2800  177.9300  142.0520 C   0  0  0  0  0  0  0  0  0  0  0  0
  184.4040  179.0330  141.0740 C   0  0  0  0  0  3  0  0  0  0  0  0
  182.1010  178.6410  141.4600 O   0  0  0  0  0  1  0  0  0  0  0  0
  188.0570  178.5230  140.8730 C   0  0  0  0  0  3  0  0  0  0  0  0
  184.9510  178.1850  143.7610 C   0  0  0  0  0  3  0  0  0  0  0  0
  183.6960  178.3860  143.3390 C   0  0  0  0  0  3  0  0  0  0  0  0
  187.2100  177.8110  143.0060 N   0  0  0  0  0  0  0  0  0  0  0  0
  183.4090  178.7260  141.9240 C   0  0  0  0  0  0  0  0  0  0  0  0
  185.7970  179.2220  141.6000 C   0  0  1  0  0  3  0  0  0  0  0  0
  186.0540  178.3680  142.8100 C   0  0  0  0  0  0  0  0  0  0  0  0
  186.8060  179.0900  140.5890 O   0  0  0  0  0  0  0  0  0  0  0  0
  190.2990  177.7200  143.6970 C   0  0  2  0  0  0  0  0  0  0  0  0
  188.2670  177.9270  145.0340 O   0  0  0  0  0  1  0  0  0  0  0  0
  189.4440  176.5870  147.2020 O   0  0  0  0  0  1  0  0  0  0  0  0
  191.5460  176.3500  146.0940 C   0  0  0  0  0  2  0  0  0  0  0  0
  190.3750  179.2440  143.7710 C   0  0  0  0  0  1  0  0  0  0  0  0
  190.2380  177.1520  146.2070 C   0  0  1  0  0  3  0  0  0  0  0  0
  191.9090  175.9800  144.6560 C   0  0  0  0  0  2  0  0  0  0  0  0
  191.7540  177.1970  143.7400 C   0  0  0  0  0  2  0  0  0  0  0  0
  189.4540  177.1950  144.8870 C   0  0  2  0  0  3  0  0  0  0  0  0
  192.1120  176.7070  138.9820 N   0  0  0  0  0  0  0  0  0  0  0  0
  190.4940  177.0930  141.1860 C   0  0  0  0  0  0  0  0  0  0  0  0
  190.0100  176.4040  140.0710 C   0  0  0  0  0  3  0  0  0  0  0  0
  190.8410  176.2120  138.9670 C   0  0  0  0  0  3  0  0  0  0  0  0
  192.6040  177.3850  140.0500 C   0  0  0  0  0  3  0  0  0  0  0  0
  191.8040  177.5890  141.1750 C   0  0  0  0  0  3  0  0  0  0  0  0
  1 23  1  6  0  0  0
  1 13  1  0  0  0  0
  2  1  1  0  0  0  0
  2  8  1  0  0  0  0
  3  9  2  0  0  0  0
  4  9  1  0  0  0  0
  5  2  2  0  0  0  0
  7  6  2  0  0  0  0
  9  7  1  0  0  0  0
 10  3  1  6  0  0  0
 10 11  1  0  0  0  0
 11  8  2  0  0  0  0
 11  6  1  0  0  0  0
 12  5  1  0  0  0  0
 12 10  1  0  0  0  0
 13 20  1  0  0  0  0
 13 17  1  1  0  0  0
 13 21  1  0  0  0  0
 16 18  1  0  0  0  0
 18 15  1  1  0  0  0
 19 16  1  0  0  0  0
 20 19  1  0  0  0  0
 21 14  1  1  0  0  0
 21 18  1  0  0  0  0
 22 26  1  0  0  0  0
 24 23  2  0  0  0  0
 25 22  2  0  0  0  0
 25 24  1  0  0  0  0
 26 27  2  0  0  0  0
 27 23  1  0  0  0  0
M  END
>  <MODEL>
4

>  <REMARK>
 VINA RESULT:      -7.3      2.942      6.293
  Name = 
  3 active torsions:
  status: ('A' for Active; 'I' for Inactive)
    1  A    between atoms: C_1  and  C_15
    2  A    between atoms: C_2  and  C_15
    3  A    between atoms: C_9  and  C_15
                            x       y       z     vdW  Elec       q    Type
                         _______ _______ _______ _____ _____    ______ ____

>  <TORSDO>
F 3

$$$$
=
 OpenBabel10272401023D

 27 30  0  0  1  0  0  0  0  0999 V2000
  187.3130  178.2650  143.3050 C   0  0  2  0  0  3  0  0  0  0  0  0
  187.3730  178.1900  141.8050 C   0  0  0  0  0  0  0  0  0  0  0  0
  188.0870  178.4530  137.7280 C   0  0  0  0  0  3  0  0  0  0  0  0
  189.7320  178.4600  136.0260 O   0  0  0  0  0  1  0  0  0  0  0  0
  186.4610  178.7880  141.0290 C   0  0  0  0  0  3  0  0  0  0  0  0
  189.8030  176.7870  139.3150 C   0  0  0  0  0  3  0  0  0  0  0  0
  190.0840  177.0490  138.0330 C   0  0  0  0  0  3  0  0  0  0  0  0
  188.5040  177.5350  141.2040 N   0  0  0  0  0  0  0  0  0  0  0  0
  189.2520  177.9900  137.2430 C   0  0  0  0  0  0  0  0  0  0  0  0
  187.5250  177.8690  138.9910 C   0  0  1  0  0  3  0  0  0  0  0  0
  188.6130  177.4000  139.9170 C   0  0  0  0  0  0  0  0  0  0  0  0
  186.5660  178.7220  139.6310 O   0  0  0  0  0  0  0  0  0  0  0  0
  188.2080  177.2800  144.1070 C   0  0  2  0  0  0  0  0  0  0  0  0
  190.3260  177.9560  143.0980 O   0  0  0  0  0  1  0  0  0  0  0  0
  191.6060  178.0130  145.5960 O   0  0  0  0  0  1  0  0  0  0  0  0
  189.6580  177.2810  146.7660 C   0  0  0  0  0  2  0  0  0  0  0  0
  188.3780  175.9750  143.3320 C   0  0  0  0  0  1  0  0  0  0  0  0
  190.4170  177.3080  145.4290 C   0  0  1  0  0  3  0  0  0  0  0  0
  188.1820  177.6590  146.6360 C   0  0  0  0  0  2  0  0  0  0  0  0
  187.5470  176.9160  145.4570 C   0  0  0  0  0  2  0  0  0  0  0  0
  189.5980  177.9440  144.2960 C   0  0  2  0  0  3  0  0  0  0  0  0
  183.3610  178.8860  144.7930 N   0  0  0  0  0  0  0  0  0  0  0  0
  185.9240  178.4830  143.8460 C   0  0  0  0  0  0  0  0  0  0  0  0
  184.8220  178.1990  143.0350 C   0  0  0  0  0  3  0  0  0  0  0  0
  183.5340  178.4130  143.5260 C   0  0  0  0  0  3  0  0  0  0  0  0
  184.4140  179.1630  145.6030 C   0  0  0  0  0  3  0  0  0  0  0  0
  185.7180  178.9700  145.1430 C   0  0  0  0  0  3  0  0  0  0  0  0
  1  2  1  6  0  0  0
  1 23  1  0  0  0  0
  1 13  1  0  0  0  0
  4  9  1  0  0  0  0
  5  2  2  0  0  0  0
  6 11  1  0  0  0  0
  7  6  2  0  0  0  0
  8  2  1  0  0  0  0
  9  3  2  0  0  0  0
  9  7  1  0  0  0  0
 10  3  1  6  0  0  0
 10 12  1  0  0  0  0
 10 11  1  0  0  0  0
 11  8  2  0  0  0  0
 12  5  1  0  0  0  0
 13 17  1  6  0  0  0
 13 21  1  0  0  0  0
 13 20  1  0  0  0  0
 18 15  1  1  0  0  0
 18 16  1  0  0  0  0
 19 16  1  0  0  0  0
 20 19  1  0  0  0  0
 21 14  1  6  0  0  0
 21 18  1  0  0  0  0
 22 26  1  0  0  0  0
 23 27  1  0  0  0  0
 24 25  1  0  0  0  0
 24 23  2  0  0  0  0
 25 22  2  0  0  0  0
 27 26  2  0  0  0  0
M  END
>  <MODEL>
5

>  <REMARK>
 VINA RESULT:      -7.3      2.616      4.105
  Name = 
  3 active torsions:
  status: ('A' for Active; 'I' for Inactive)
    1  A    between atoms: C_1  and  C_15
    2  A    between atoms: C_2  and  C_15
    3  A    between atoms: C_9  and  C_15
                            x       y       z     vdW  Elec       q    Type
                         _______ _______ _______ _____ _____    ______ ____

>  <TORSDO>
F 3

$$$$
=
 OpenBabel10272401023D

 27 30  0  0  1  0  0  0  0  0999 V2000
  191.0090  176.1520  136.2210 C   0  0  2  0  0  3  0  0  0  0  0  0
  190.3330  176.9160  137.3250 C   0  0  0  0  0  0  0  0  0  0  0  0
  188.0850  178.4140  140.4720 C   0  0  0  0  0  3  0  0  0  0  0  0
  187.2280  177.9950  142.6380 O   0  0  0  0  0  1  0  0  0  0  0  0
  189.4340  177.8760  137.0740 C   0  0  0  0  0  3  0  0  0  0  0  0
  190.3070  176.6990  141.0700 C   0  0  0  0  0  3  0  0  0  0  0  0
  189.4440  177.0720  142.0220 C   0  0  0  0  0  3  0  0  0  0  0  0
  190.5980  176.5210  138.6820 N   0  0  0  0  0  0  0  0  0  0  0  0
  188.2400  177.8750  141.6930 C   0  0  0  0  0  0  0  0  0  0  0  0
  189.2200  178.3690  139.4910 C   0  0  1  0  0  3  0  0  0  0  0  0
  190.0790  177.1510  139.6920 C   0  0  0  0  0  0  0  0  0  0  0  0
  188.8010  178.5470  138.1310 O   0  0  0  0  0  0  0  0  0  0  0  0
  190.2010  175.0120  135.5400 C   0  0  2  0  0  0  0  0  0  0  0  0
  190.0530  173.5740  137.5080 O   0  0  0  0  0  1  0  0  0  0  0  0
  187.3310  173.0640  137.0460 O   0  0  0  0  0  1  0  0  0  0  0  0
  187.2840  174.3650  135.0450 C   0  0  0  0  0  2  0  0  0  0  0  0
  191.1530  173.9590  134.9750 C   0  0  0  0  0  1  0  0  0  0  0  0
  188.1420  173.5430  136.0210 C   0  0  1  0  0  3  0  0  0  0  0  0
  187.8960  175.7200  134.6900 C   0  0  0  0  0  2  0  0  0  0  0  0
  189.3800  175.5590  134.3490 C   0  0  0  0  0  2  0  0  0  0  0  0
  189.3000  174.3550  136.6200 C   0  0  2  0  0  3  0  0  0  0  0  0
  195.1380  175.3350  136.9280 N   0  0  0  0  0  0  0  0  0  0  0  0
  192.4630  175.8610  136.4870 C   0  0  0  0  0  0  0  0  0  0  0  0
  193.4250  176.2900  135.5680 C   0  0  0  0  0  3  0  0  0  0  0  0
  194.7720  176.0110  135.8020 C   0  0  0  0  0  3  0  0  0  0  0  0
  194.2240  174.9130  137.8390 C   0  0  0  0  0  3  0  0  0  0  0  0
  192.8670  175.1670  137.6340 C   0  0  0  0  0  3  0  0  0  0  0  0
  1 23  1  1  0  0  0
  1  2  1  0  0  0  0
  2  8  1  0  0  0  0
  3  9  2  0  0  0  0
  5  2  2  0  0  0  0
  5 12  1  0  0  0  0
  6  7  2  0  0  0  0
  8 11  2  0  0  0  0
  9  7  1  0  0  0  0
  9  4  1  0  0  0  0
 10 11  1  0  0  0  0
 10  3  1  1  0  0  0
 11  6  1  0  0  0  0
 12 10  1  0  0  0  0
 13 17  1  6  0  0  0
 13  1  1  0  0  0  0
 13 21  1  0  0  0  0
 16 18  1  0  0  0  0
 18 21  1  0  0  0  0
 18 15  1  1  0  0  0
 19 16  1  0  0  0  0
 20 19  1  0  0  0  0
 20 13  1  0  0  0  0
 21 14  1  6  0  0  0
 22 26  1  0  0  0  0
 23 27  1  0  0  0  0
 24 25  1  0  0  0  0
 24 23  2  0  0  0  0
 25 22  2  0  0  0  0
 27 26  2  0  0  0  0
M  END
>  <MODEL>
6

>  <REMARK>
 VINA RESULT:      -7.2      3.066      7.547
  Name = 
  3 active torsions:
  status: ('A' for Active; 'I' for Inactive)
    1  A    between atoms: C_1  and  C_15
    2  A    between atoms: C_2  and  C_15
    3  A    between atoms: C_9  and  C_15
                            x       y       z     vdW  Elec       q    Type
                         _______ _______ _______ _____ _____    ______ ____

>  <TORSDO>
F 3

$$$$
=
 OpenBabel10272401023D

 27 30  0  0  1  0  0  0  0  0999 V2000
  189.5960  178.0580  141.2630 C   0  0  2  0  0  3  0  0  0  0  0  0
  190.5750  177.4500  140.2980 C   0  0  0  0  0  0  0  0  0  0  0  0
  193.1590  175.1580  138.0020 C   0  0  0  0  0  3  0  0  0  0  0  0
  193.4600  173.1130  136.8500 O   0  0  0  0  0  1  0  0  0  0  0  0
  191.8910  177.6810  140.3850 C   0  0  0  0  0  3  0  0  0  0  0  0
  190.3400  174.9790  137.4860 C   0  0  0  0  0  2  0  0  0  0  0  0
  191.2070  174.1420  136.9020 C   0  0  0  0  0  3  0  0  0  0  0  0
  190.0760  176.5190  139.3230 N   0  0  0  0  0  0  0  0  0  0  0  0
  192.6490  174.1700  137.2460 C   0  0  0  0  0  0  0  0  0  0  0  0
  192.3060  176.3460  138.3420 C   0  0  0  0  0  0  0  0  0  0  0  0
  190.8510  175.9760  138.4340 C   0  0  0  0  0  0  0  0  0  0  0  0
  192.7780  177.0730  139.4840 O   0  0  0  0  0  0  0  0  0  0  0  0
  189.6420  177.5640  142.7360 C   0  0  2  0  0  0  0  0  0  0  0  0
  190.1850  175.2400  142.2240 O   0  0  0  0  0  1  0  0  0  0  0  0
  192.1420  175.1550  144.2360 O   0  0  0  0  0  1  0  0  0  0  0  0
  191.7080  177.3940  144.9440 C   0  0  0  0  0  2  0  0  0  0  0  0
  188.2700  177.0390  143.1560 C   0  0  0  0  0  1  0  0  0  0  0  0
  191.1540  176.1360  144.2540 C   0  0  1  0  0  3  0  0  0  0  0  0
  191.4450  178.6820  144.1630 C   0  0  0  0  0  2  0  0  0  0  0  0
  189.9880  178.7280  143.6930 C   0  0  0  0  0  2  0  0  0  0  0  0
  190.6760  176.4100  142.8200 C   0  0  2  0  0  3  0  0  0  0  0  0
  185.7240  178.6590  139.5700 N   0  0  0  0  0  0  0  0  0  0  0  0
  188.2220  178.2680  140.6810 C   0  0  0  0  0  0  0  0  0  0  0  0
  188.0180  178.0510  139.3150 C   0  0  0  0  0  3  0  0  0  0  0  0
  186.7520  178.2590  138.7680 C   0  0  0  0  0  3  0  0  0  0  0  0
  185.8950  178.8710  140.9000 C   0  0  0  0  0  3  0  0  0  0  0  0
  187.1500  178.6820  141.4810 C   0  0  0  0  0  3  0  0  0  0  0  0
  1  2  1  6  0  0  0
  1 13  1  0  0  0  0
  2  5  2  0  0  0  0
  3 10  2  0  0  0  0
  4  9  1  0  0  0  0
  6 11  1  0  0  0  0
  7  9  2  0  0  0  0
  7  6  1  0  0  0  0
  8  2  1  0  0  0  0
  9  3  1  0  0  0  0
 10 11  1  0  0  0  0
 10 12  1  0  0  0  0
 11  8  2  0  0  0  0
 12  5  1  0  0  0  0
 13 21  1  0  0  0  0
 13 17  1  1  0  0  0
 13 20  1  0  0  0  0
 18 15  1  6  0  0  0
 18 16  1  0  0  0  0
 19 16  1  0  0  0  0
 20 19  1  0  0  0  0
 21 14  1  1  0  0  0
 21 18  1  0  0  0  0
 22 26  1  0  0  0  0
 23  1  1  0  0  0  0
 23 27  1  0  0  0  0
 24 23  2  0  0  0  0
 25 24  1  0  0  0  0
 25 22  2  0  0  0  0
 26 27  2  0  0  0  0
M  END
>  <MODEL>
7

>  <REMARK>
 VINA RESULT:      -7.1      1.322      1.888
  Name = 
  3 active torsions:
  status: ('A' for Active; 'I' for Inactive)
    1  A    between atoms: C_1  and  C_15
    2  A    between atoms: C_2  and  C_15
    3  A    between atoms: C_9  and  C_15
                            x       y       z     vdW  Elec       q    Type
                         _______ _______ _______ _____ _____    ______ ____

>  <TORSDO>
F 3

$$$$
=
 OpenBabel10272401023D

 27 30  0  0  1  0  0  0  0  0999 V2000
  189.6240  177.6570  139.5940 C   0  0  2  0  0  3  0  0  0  0  0  0
  189.1360  177.2870  140.9660 C   0  0  0  0  0  0  0  0  0  0  0  0
  187.9720  176.9460  144.9330 C   0  0  0  0  0  3  0  0  0  0  0  0
  186.8130  177.9670  146.7260 O   0  0  0  0  0  1  0  0  0  0  0  0
  189.8420  176.4910  141.7780 C   0  0  0  0  0  3  0  0  0  0  0  0
  186.2130  178.2800  143.0980 C   0  0  0  0  0  2  0  0  0  0  0  0
  185.9770  178.2890  144.4160 C   0  0  0  0  0  3  0  0  0  0  0  0
  187.9220  177.8960  141.4400 N   0  0  0  0  0  0  0  0  0  0  0  0
  186.9390  177.6870  145.3700 C   0  0  0  0  0  0  0  0  0  0  0  0
  188.0490  176.5630  143.4830 C   0  0  0  0  0  0  0  0  0  0  0  0
  187.4170  177.6040  142.6000 C   0  0  0  0  0  0  0  0  0  0  0  0
  189.3690  176.1910  143.0640 O   0  0  0  0  0  0  0  0  0  0  0  0
  188.6340  177.4760  138.4090 C   0  0  2  0  0  0  0  0  0  0  0  0
  189.3380  179.4550  137.1640 O   0  0  0  0  0  1  0  0  0  0  0  0
  189.3700  178.0360  134.7420 O   0  0  0  0  0  1  0  0  0  0  0  0
  188.6090  176.0130  135.7570 C   0  0  0  0  0  2  0  0  0  0  0  0
  187.3400  178.2410  138.6840 C   0  0  0  0  0  1  0  0  0  0  0  0
  188.6590  177.5480  135.8360 C   0  0  1  0  0  3  0  0  0  0  0  0
  188.9780  175.3240  137.0720 C   0  0  0  0  0  2  0  0  0  0  0  0
  188.2470  175.9880  138.2410 C   0  0  0  0  0  2  0  0  0  0  0  0
  189.3040  178.0540  137.1340 C   0  0  2  0  0  3  0  0  0  0  0  0
  193.6810  176.5480  138.8700 N   0  0  0  0  0  0  0  0  0  0  0  0
  191.0510  177.2530  139.3280 C   0  0  0  0  0  0  0  0  0  0  0  0
  192.0510  177.6530  140.2180 C   0  0  0  0  0  3  0  0  0  0  0  0
  193.3760  177.2940  139.9690 C   0  0  0  0  0  3  0  0  0  0  0  0
  192.7270  176.1420  137.9930 C   0  0  0  0  0  3  0  0  0  0  0  0
  191.3920  176.4890  138.2050 C   0  0  0  0  0  3  0  0  0  0  0  0
  1 23  1  6  0  0  0
  1  2  1  0  0  0  0
  2  8  1  0  0  0  0
  2  5  2  0  0  0  0
  3  9  1  0  0  0  0
  5 12  1  0  0  0  0
  6  7  1  0  0  0  0
  7  9  2  0  0  0  0
  8 11  2  0  0  0  0
  9  4  1  0  0  0  0
 10  3  2  0  0  0  0
 11  6  1  0  0  0  0
 11 10  1  0  0  0  0
 12 10  1  0  0  0  0
 13 17  1  1  0  0  0
 13  1  1  0  0  0  0
 16 18  1  0  0  0  0
 16 19  1  0  0  0  0
 18 15  1  6  0  0  0
 18 21  1  0  0  0  0
 19 20  1  0  0  0  0
 20 13  1  0  0  0  0
 21 14  1  1  0  0  0
 21 13  1  0  0  0  0
 22 25  1  0  0  0  0
 23 24  1  0  0  0  0
 25 24  2  0  0  0  0
 26 27  1  0  0  0  0
 26 22  2  0  0  0  0
 27 23  2  0  0  0  0
M  END
>  <MODEL>
8

>  <REMARK>
 VINA RESULT:      -7.1      2.446      7.321
  Name = 
  3 active torsions:
  status: ('A' for Active; 'I' for Inactive)
    1  A    between atoms: C_1  and  C_15
    2  A    between atoms: C_2  and  C_15
    3  A    between atoms: C_9  and  C_15
                            x       y       z     vdW  Elec       q    Type
                         _______ _______ _______ _____ _____    ______ ____

>  <TORSDO>
F 3

$$$$
=
 OpenBabel10272401023D

 27 30  0  0  1  0  0  0  0  0999 V2000
  190.0300  176.7670  142.8660 C   0  0  2  0  0  3  0  0  0  0  0  0
  190.8120  176.8910  141.5890 C   0  0  0  0  0  0  0  0  0  0  0  0
  193.1480  176.5380  138.1800 C   0  0  0  0  0  3  0  0  0  0  0  0
  193.6750  175.2020  136.2980 O   0  0  0  0  0  1  0  0  0  0  0  0
  191.9680  177.5620  141.5280 C   0  0  0  0  0  3  0  0  0  0  0  0
  190.4820  175.4760  138.1310 C   0  0  0  0  0  2  0  0  0  0  0  0
  191.3410  175.2420  137.1300 C   0  0  0  0  0  3  0  0  0  0  0  0
  190.3390  176.1780  140.4330 N   0  0  0  0  0  0  0  0  0  0  0  0
  192.7480  175.7060  137.2040 C   0  0  0  0  0  0  0  0  0  0  0  0
  192.1290  177.1580  139.0920 C   0  0  0  0  0  0  0  0  0  0  0  0
  190.9390  176.2590  139.2850 C   0  0  0  0  0  0  0  0  0  0  0  0
  192.6860  177.6320  140.3250 O   0  0  0  0  0  0  0  0  0  0  0  0
  188.9850  177.8750  143.1760 C   0  0  2  0  0  0  0  0  0  0  0  0
  188.6120  178.5510  140.8600 O   0  0  0  0  0  1  0  0  0  0  0  0
  185.8300  178.6160  141.2280 O   0  0  0  0  0  1  0  0  0  0  0  0
  185.9820  178.0380  143.5390 C   0  0  0  0  0  2  0  0  0  0  0  0
  189.6830  179.2230  143.3450 C   0  0  0  0  0  1  0  0  0  0  0  0
  186.6870  178.6630  142.3240 C   0  0  1  0  0  3  0  0  0  0  0  0
  186.8460  177.0200  144.2860 C   0  0  0  0  0  2  0  0  0  0  0  0
  188.2530  177.5800  144.5070 C   0  0  0  0  0  2  0  0  0  0  0  0
  188.0050  177.9570  141.9760 C   0  0  2  0  0  3  0  0  0  0  0  0
  192.3570  175.3700  146.1610 N   0  0  0  0  0  0  0  0  0  0  0  0
  190.8510  176.2900  144.0360 C   0  0  0  0  0  0  0  0  0  0  0  0
  191.6050  175.1190  143.9090 C   0  0  0  0  0  3  0  0  0  0  0  0
  192.3550  174.6650  144.9940 C   0  0  0  0  0  3  0  0  0  0  0  0
  191.6390  176.5130  146.3070 C   0  0  0  0  0  3  0  0  0  0  0  0
  190.8690  176.9930  145.2470 C   0  0  0  0  0  3  0  0  0  0  0  0
  1  2  1  6  0  0  0
  1 13  1  0  0  0  0
  1 23  1  0  0  0  0
  3 10  2  0  0  0  0
  4  9  1  0  0  0  0
  5  2  2  0  0  0  0
  6 11  1  0  0  0  0
  7  9  2  0  0  0  0
  7  6  1  0  0  0  0
  8  2  1  0  0  0  0
  9  3  1  0  0  0  0
 10 11  1  0  0  0  0
 10 12  1  0  0  0  0
 11  8  2  0  0  0  0
 12  5  1  0  0  0  0
 13 17  1  1  0  0  0
 13 20  1  0  0  0  0
 16 19  1  0  0  0  0
 18 15  1  6  0  0  0
 18 16  1  0  0  0  0
 19 20  1  0  0  0  0
 21 14  1  6  0  0  0
 21 18  1  0  0  0  0
 21 13  1  0  0  0  0
 22 26  1  0  0  0  0
 23 27  1  0  0  0  0
 24 23  2  0  0  0  0
 24 25  1  0  0  0  0
 25 22  2  0  0  0  0
 27 26  2  0  0  0  0
M  END
>  <MODEL>
9

>  <REMARK>
 VINA RESULT:      -7.1      2.355      4.100
  Name = 
  3 active torsions:
  status: ('A' for Active; 'I' for Inactive)
    1  A    between atoms: C_1  and  C_15
    2  A    between atoms: C_2  and  C_15
    3  A    between atoms: C_9  and  C_15
                            x       y       z     vdW  Elec       q    Type
                         _______ _______ _______ _____ _____    ______ ____

>  <TORSDO>
F 3

$$$$
