=
 OpenBabel10272400183D

 31 33  0  0  1  0  0  0  0  0999 V2000
  190.0400  176.5340  137.4670 N   0  0  0  0  0  0  0  0  0  0  0  0
  191.1940  176.0870  136.7160 C   0  0  0  0  0  0  0  0  0  0  0  0
  192.2680  175.0390  134.7900 C   0  0  0  0  0  3  0  0  0  0  0  0
  191.0830  175.5390  135.5030 C   0  0  0  0  0  3  0  0  0  0  0  0
  192.6170  176.6260  138.5950 C   0  0  0  0  0  3  0  0  0  0  0  0
  193.4620  175.1590  135.2920 N   0  0  0  0  0  0  0  0  0  0  0  0
  190.2490  176.9930  138.8190 C   0  0  0  0  0  0  0  0  0  0  0  0
  194.5570  177.0130  136.3100 N   0  0  0  0  0  1  0  0  0  0  0  0
  191.4480  177.0130  139.3300 N   0  0  0  0  0  0  0  0  0  0  0  0
  192.5260  176.1850  137.3390 C   0  0  0  0  0  0  0  0  0  0  0  0
  193.7670  175.8200  136.5670 C   0  0  1  0  0  3  0  0  0  0  0  0
  189.0820  177.3960  139.6720 C   0  0  2  0  0  3  0  0  0  0  0  0
  188.8480  178.7680  139.5700 O   0  0  0  0  0  1  0  0  0  0  0  0
  189.3320  177.0110  141.1200 C   0  0  0  0  0  2  0  0  0  0  0  0
  189.4490  178.4770  142.8250 O   0  0  0  0  0  1  0  0  0  0  0  0
  188.5600  177.8710  142.0020 N   0  0  0  0  0  0  0  0  0  0  0  0
  187.7730  177.0280  142.8040 N   0  0  0  0  0  2  0  0  0  0  0  0
  184.9220  178.6660  144.5850 C   0  0  0  0  0  0  0  0  0  0  0  0
  186.5280  177.8700  146.2120 C   0  0  0  0  0  3  0  0  0  0  0  0
  183.6390  179.3470  144.2700 C   0  0  0  0  0  1  0  0  0  0  0  0
  185.7270  178.1810  143.5520 C   0  0  0  0  0  3  0  0  0  0  0  0
  187.3340  177.3840  145.1780 C   0  0  0  0  0  3  0  0  0  0  0  0
  186.9390  177.5380  143.8450 C   0  0  0  0  0  0  0  0  0  0  0  0
  185.3220  178.5110  145.9160 C   0  0  0  0  0  3  0  0  0  0  0  0
  188.6780  176.5650  136.9160 C   0  0  1  0  0  3  0  0  0  0  0  0
  187.4210  178.6830  136.4410 C   0  0  0  0  0  1  0  0  0  0  0  0
  188.1340  177.2780  134.5200 C   0  0  0  0  0  1  0  0  0  0  0  0
  188.4790  177.7260  135.9310 C   0  0  0  0  0  3  0  0  0  0  0  0
  188.2020  175.1870  136.4520 C   0  0  0  0  0  2  0  0  0  0  0  0
  186.7500  173.1170  137.0990 C   0  0  0  0  0  1  0  0  0  0  0  0
  186.4800  174.9040  136.9540 S   0  0  0  0  0  0  0  0  0  0  0  0
  1  7  1  0  0  0  0
  2 10  1  0  0  0  0
  2  1  1  0  0  0  0
  3  6  2  0  0  0  0
  3  4  1  0  0  0  0
  4  2  2  0  0  0  0
  5  9  1  0  0  0  0
  6 11  1  0  0  0  0
  7  9  2  0  0  0  0
  7 12  1  0  0  0  0
 10  5  2  0  0  0  0
 11  8  1  6  0  0  0
 11 10  1  0  0  0  0
 12 13  1  1  0  0  0
 12 14  1  0  0  0  0
 14 16  1  0  0  0  0
 16 17  1  0  0  0  0
 16 15  1  0  0  0  0
 17 23  1  0  0  0  0
 18 24  1  0  0  0  0
 20 18  1  0  0  0  0
 21 23  1  0  0  0  0
 21 18  2  0  0  0  0
 22 19  1  0  0  0  0
 23 22  2  0  0  0  0
 24 19  2  0  0  0  0
 25 29  1  6  0  0  0
 25  1  1  0  0  0  0
 27 28  1  0  0  0  0
 28 26  1  0  0  0  0
 28 25  1  0  0  0  0
 29 31  1  0  0  0  0
 31 30  1  0  0  0  0
M  END
>  <MODEL>
1

>  <REMARK>
 VINA RESULT:      -7.2      0.000      0.000
  Name = 
  9 active torsions:
  status: ('A' for Active; 'I' for Inactive)
    1  A    between atoms: N_3  and  N_9
    2  A    between atoms: N_3  and  C_22
    3  A    between atoms: N_4  and  C_12
    4  A    between atoms: N_9  and  C_23
    5  A    between atoms: C_12  and  C_25
    6  A    between atoms: C_12  and  C_27
    7  A    between atoms: C_15  and  C_21
    8  A    between atoms: C_15  and  C_23
    9  A    between atoms: C_27  and  S_28
                            x       y       z     vdW  Elec       q    Type
                         _______ _______ _______ _____ _____    ______ ____

>  <TORSDO>
F 9

$$$$
=
 OpenBabel10272400183D

 31 33  0  0  1  0  0  0  0  0999 V2000
  184.7160  177.2900  137.8240 N   0  0  0  0  0  0  0  0  0  0  0  0
  185.5950  176.4910  136.9970 C   0  0  0  0  0  0  0  0  0  0  0  0
  186.0810  174.6190  135.5080 C   0  0  0  0  0  3  0  0  0  0  0  0
  185.1530  175.4490  136.2910 C   0  0  0  0  0  3  0  0  0  0  0  0
  187.4890  177.7740  137.7840 C   0  0  0  0  0  3  0  0  0  0  0  0
  187.3490  174.9020  135.4380 N   0  0  0  0  0  0  0  0  0  0  0  0
  185.3090  178.3150  138.6490 C   0  0  0  0  0  0  0  0  0  0  0  0
  188.4770  176.9620  135.0460 N   0  0  0  0  0  1  0  0  0  0  0  0
  186.5970  178.5130  138.6300 N   0  0  0  0  0  0  0  0  0  0  0  0
  187.0360  176.8040  136.9870 C   0  0  0  0  0  0  0  0  0  0  0  0
  187.9790  176.0640  136.0750 C   0  0  1  0  0  3  0  0  0  0  0  0
  184.4560  179.1220  139.5840 C   0  0  2  0  0  3  0  0  0  0  0  0
  184.2400  180.4020  139.0700 O   0  0  0  0  0  1  0  0  0  0  0  0
  185.1130  179.2090  140.9510 C   0  0  0  0  0  2  0  0  0  0  0  0
  183.3120  178.0160  141.5870 O   0  0  0  0  0  1  0  0  0  0  0  0
  184.6470  178.1220  141.7960 N   0  0  0  0  0  0  0  0  0  0  0  0
  184.8180  178.5390  143.1260 N   0  0  0  0  0  2  0  0  0  0  0  0
  187.0650  177.9270  146.0520 C   0  0  0  0  0  0  0  0  0  0  0  0
  188.0770  176.9960  144.0590 C   0  0  0  0  0  3  0  0  0  0  0  0
  187.1080  178.1910  147.5130 C   0  0  0  0  0  1  0  0  0  0  0  0
  185.9730  178.3590  145.2960 C   0  0  0  0  0  3  0  0  0  0  0  0
  186.9840  177.4280  143.3030 C   0  0  0  0  0  3  0  0  0  0  0  0
  185.9290  178.1110  143.9160 C   0  0  0  0  0  0  0  0  0  0  0  0
  188.1180  177.2450  145.4340 C   0  0  0  0  0  3  0  0  0  0  0  0
  183.2560  177.1260  137.8460 C   0  0  1  0  0  3  0  0  0  0  0  0
  181.6290  178.8200  136.9660 C   0  0  0  0  0  1  0  0  0  0  0  0
  181.8740  176.6710  135.7420 C   0  0  0  0  0  1  0  0  0  0  0  0
  182.5890  177.7090  136.5920 C   0  0  0  0  0  3  0  0  0  0  0  0
  182.8310  175.7140  138.2510 C   0  0  0  0  0  2  0  0  0  0  0  0
  180.5020  174.5620  138.4990 C   0  0  0  0  0  1  0  0  0  0  0  0
  181.4630  175.7740  139.4430 S   0  0  0  0  0  0  0  0  0  0  0  0
  1 25  1  0  0  0  0
  1  7  1  0  0  0  0
  2  1  1  0  0  0  0
  3  4  1  0  0  0  0
  4  2  2  0  0  0  0
  5  9  1  0  0  0  0
  6  3  2  0  0  0  0
  6 11  1  0  0  0  0
  7 12  1  0  0  0  0
  9  7  2  0  0  0  0
 10  2  1  0  0  0  0
 10  5  2  0  0  0  0
 11  8  1  6  0  0  0
 11 10  1  0  0  0  0
 12 13  1  6  0  0  0
 12 14  1  0  0  0  0
 14 16  1  0  0  0  0
 15 16  1  0  0  0  0
 16 17  1  0  0  0  0
 17 23  1  0  0  0  0
 18 20  1  0  0  0  0
 19 24  2  0  0  0  0
 21 18  2  0  0  0  0
 22 23  2  0  0  0  0
 22 19  1  0  0  0  0
 23 21  1  0  0  0  0
 24 18  1  0  0  0  0
 25 29  1  6  0  0  0
 27 28  1  0  0  0  0
 28 26  1  0  0  0  0
 28 25  1  0  0  0  0
 29 31  1  0  0  0  0
 30 31  1  0  0  0  0
M  END
>  <MODEL>
2

>  <REMARK>
 VINA RESULT:      -7.0      3.743      5.076
  Name = 
  9 active torsions:
  status: ('A' for Active; 'I' for Inactive)
    1  A    between atoms: N_3  and  N_9
    2  A    between atoms: N_3  and  C_22
    3  A    between atoms: N_4  and  C_12
    4  A    between atoms: N_9  and  C_23
    5  A    between atoms: C_12  and  C_25
    6  A    between atoms: C_12  and  C_27
    7  A    between atoms: C_15  and  C_21
    8  A    between atoms: C_15  and  C_23
    9  A    between atoms: C_27  and  S_28
                            x       y       z     vdW  Elec       q    Type
                         _______ _______ _______ _____ _____    ______ ____

>  <TORSDO>
F 9

$$$$
=
 OpenBabel10272400183D

 31 33  0  0  1  0  0  0  0  0999 V2000
  187.1430  177.3530  138.3400 N   0  0  0  0  0  0  0  0  0  0  0  0
  188.4670  176.7780  138.4390 C   0  0  2  0  0  3  0  0  0  0  0  0
  190.2830  175.3420  137.6650 C   0  0  0  0  0  3  0  0  0  0  0  0
  188.9580  175.9590  137.5070 C   0  0  0  0  0  3  0  0  0  0  0  0
  188.7320  177.7840  140.6220 C   0  0  0  0  0  3  0  0  0  0  0  0
  191.0380  175.6130  138.6900 N   0  0  0  0  0  0  0  0  0  0  0  0
  186.6520  178.1230  139.4590 C   0  0  0  0  0  0  0  0  0  0  0  0
  191.6120  177.6850  139.7130 N   0  0  0  0  0  1  0  0  0  0  0  0
  187.3970  178.2980  140.5140 N   0  0  0  0  0  0  0  0  0  0  0  0
  189.2720  177.0600  139.6420 C   0  0  0  0  0  0  0  0  0  0  0  0
  190.6890  176.5620  139.7540 C   0  0  0  0  0  0  0  0  0  0  0  0
  185.2580  178.6780  139.4440 C   0  0  2  0  0  3  0  0  0  0  0  0
  185.1510  179.7130  138.5130 O   0  0  0  0  0  1  0  0  0  0  0  0
  184.8760  179.1740  140.8280 C   0  0  0  0  0  2  0  0  0  0  0  0
  183.0620  177.8470  140.9670 O   0  0  0  0  0  1  0  0  0  0  0  0
  184.2420  178.1050  141.5820 N   0  0  0  0  0  0  0  0  0  0  0  0
  183.9360  178.6270  142.8480 N   0  0  0  0  0  2  0  0  0  0  0  0
  186.9100  177.7370  144.9330 C   0  0  0  0  0  0  0  0  0  0  0  0
  185.1530  178.5820  146.3690 C   0  0  0  0  0  3  0  0  0  0  0  0
  188.2830  177.1940  144.7630 C   0  0  0  0  0  1  0  0  0  0  0  0
  186.0870  177.9170  143.8190 C   0  0  0  0  0  3  0  0  0  0  0  0
  184.3290  178.7620  145.2530 C   0  0  0  0  0  3  0  0  0  0  0  0
  184.7910  178.4300  143.9750 C   0  0  0  0  0  0  0  0  0  0  0  0
  186.4440  178.0700  146.2080 C   0  0  0  0  0  3  0  0  0  0  0  0
  186.2860  177.2140  137.1530 C   0  0  1  0  0  3  0  0  0  0  0  0
  187.4910  179.1120  136.0410 C   0  0  0  0  0  1  0  0  0  0  0  0
  186.1230  177.5930  134.6290 C   0  0  0  0  0  1  0  0  0  0  0  0
  186.9880  177.6920  135.8750 C   0  0  0  0  0  3  0  0  0  0  0  0
  185.5990  175.8500  137.0840 C   0  0  0  0  0  2  0  0  0  0  0  0
  183.5920  174.2420  137.5350 C   0  0  0  0  0  1  0  0  0  0  0  0
  183.8050  176.0270  137.2970 S   0  0  0  0  0  0  0  0  0  0  0  0
  1  2  1  0  0  0  0
  1  7  1  0  0  0  0
  2  4  1  1  0  0  0
  2 10  1  0  0  0  0
  3  6  1  0  0  0  0
  4  3  2  0  0  0  0
  6 11  2  0  0  0  0
  7  9  2  0  0  0  0
  8 11  1  0  0  0  0
  9  5  1  0  0  0  0
 10 11  1  0  0  0  0
 10  5  2  0  0  0  0
 12 13  1  6  0  0  0
 12  7  1  0  0  0  0
 12 14  1  0  0  0  0
 14 16  1  0  0  0  0
 15 16  1  0  0  0  0
 16 17  1  0  0  0  0
 17 23  1  0  0  0  0
 18 24  1  0  0  0  0
 20 18  1  0  0  0  0
 21 23  1  0  0  0  0
 21 18  2  0  0  0  0
 22 19  1  0  0  0  0
 23 22  2  0  0  0  0
 24 19  2  0  0  0  0
 25 29  1  6  0  0  0
 25  1  1  0  0  0  0
 27 28  1  0  0  0  0
 28 26  1  0  0  0  0
 28 25  1  0  0  0  0
 29 31  1  0  0  0  0
 31 30  1  0  0  0  0
M  END
>  <MODEL>
3

>  <REMARK>
 VINA RESULT:      -6.7      2.436      3.599
  Name = 
  9 active torsions:
  status: ('A' for Active; 'I' for Inactive)
    1  A    between atoms: N_3  and  N_9
    2  A    between atoms: N_3  and  C_22
    3  A    between atoms: N_4  and  C_12
    4  A    between atoms: N_9  and  C_23
    5  A    between atoms: C_12  and  C_25
    6  A    between atoms: C_12  and  C_27
    7  A    between atoms: C_15  and  C_21
    8  A    between atoms: C_15  and  C_23
    9  A    between atoms: C_27  and  S_28
                            x       y       z     vdW  Elec       q    Type
                         _______ _______ _______ _____ _____    ______ ____

>  <TORSDO>
F 9

$$$$
=
 OpenBabel10272400183D

 31 33  0  0  1  0  0  0  0  0999 V2000
  188.4580  176.4070  137.5730 N   0  0  0  0  0  0  0  0  0  0  0  0
  189.0390  175.4730  136.6330 C   0  0  0  0  0  0  0  0  0  0  0  0
  188.9850  174.0820  134.6290 C   0  0  0  0  0  3  0  0  0  0  0  0
  188.3930  175.0780  135.5340 C   0  0  0  0  0  3  0  0  0  0  0  0
  190.9510  175.2070  138.0900 C   0  0  0  0  0  3  0  0  0  0  0  0
  190.1720  173.5930  134.8410 N   0  0  0  0  0  0  0  0  0  0  0  0
  189.1780  176.6750  138.7960 C   0  0  0  0  0  0  0  0  0  0  0  0
  192.2270  174.6550  135.4070 N   0  0  0  0  0  1  0  0  0  0  0  0
  190.3240  176.0970  139.0250 N   0  0  0  0  0  0  0  0  0  0  0  0
  190.3610  174.8960  136.9350 C   0  0  0  0  0  0  0  0  0  0  0  0
  191.0510  173.9920  135.9470 C   0  0  1  0  0  3  0  0  0  0  0  0
  188.5880  177.5740  139.8420 C   0  0  2  0  0  3  0  0  0  0  0  0
  188.9360  178.9040  139.6000 O   0  0  0  0  0  1  0  0  0  0  0  0
  189.0580  177.1510  141.2240 C   0  0  0  0  0  2  0  0  0  0  0  0
  189.4220  178.5140  142.9780 O   0  0  0  0  0  1  0  0  0  0  0  0
  188.4230  177.9760  142.2380 N   0  0  0  0  0  0  0  0  0  0  0  0
  187.7130  177.1070  143.0820 N   0  0  0  0  0  2  0  0  0  0  0  0
  184.8030  178.6110  144.8860 C   0  0  0  0  0  0  0  0  0  0  0  0
  186.4890  177.9560  146.4960 C   0  0  0  0  0  3  0  0  0  0  0  0
  183.4740  179.2030  144.5830 C   0  0  0  0  0  1  0  0  0  0  0  0
  185.6160  178.1500  143.8470 C   0  0  0  0  0  3  0  0  0  0  0  0
  187.3020  177.4950  145.4560 C   0  0  0  0  0  3  0  0  0  0  0  0
  186.8700  177.5900  144.1300 C   0  0  0  0  0  0  0  0  0  0  0  0
  185.2390  178.5140  146.2110 C   0  0  0  0  0  3  0  0  0  0  0  0
  187.1890  177.1100  137.3370 C   0  0  1  0  0  3  0  0  0  0  0  0
  186.8050  178.0310  135.0350 C   0  0  0  0  0  1  0  0  0  0  0  0
  188.8030  178.8000  136.2960 C   0  0  0  0  0  1  0  0  0  0  0  0
  187.3640  178.3240  136.4130 C   0  0  0  0  0  3  0  0  0  0  0  0
  186.0440  176.1550  136.9980 C   0  0  0  0  0  2  0  0  0  0  0  0
  183.6140  176.3410  136.0630 C   0  0  0  0  0  1  0  0  0  0  0  0
  184.4620  176.8180  137.5930 S   0  0  0  0  0  0  0  0  0  0  0  0
  1  7  1  0  0  0  0
  2 10  1  0  0  0  0
  2  1  1  0  0  0  0
  3  6  2  0  0  0  0
  3  4  1  0  0  0  0
  4  2  2  0  0  0  0
  5  9  1  0  0  0  0
  6 11  1  0  0  0  0
  7  9  2  0  0  0  0
  7 12  1  0  0  0  0
 10  5  2  0  0  0  0
 11  8  1  6  0  0  0
 11 10  1  0  0  0  0
 12 13  1  6  0  0  0
 12 14  1  0  0  0  0
 14 16  1  0  0  0  0
 16 15  1  0  0  0  0
 16 17  1  0  0  0  0
 17 23  1  0  0  0  0
 18 24  1  0  0  0  0
 20 18  1  0  0  0  0
 21 23  1  0  0  0  0
 21 18  2  0  0  0  0
 22 19  1  0  0  0  0
 23 22  2  0  0  0  0
 24 19  2  0  0  0  0
 25 29  1  6  0  0  0
 25  1  1  0  0  0  0
 26 28  1  0  0  0  0
 27 28  1  0  0  0  0
 28 25  1  0  0  0  0
 29 31  1  0  0  0  0
 30 31  1  0  0  0  0
M  END
>  <MODEL>
4

>  <REMARK>
 VINA RESULT:      -6.3      1.585      2.032
  Name = 
  9 active torsions:
  status: ('A' for Active; 'I' for Inactive)
    1  A    between atoms: N_3  and  N_9
    2  A    between atoms: N_3  and  C_22
    3  A    between atoms: N_4  and  C_12
    4  A    between atoms: N_9  and  C_23
    5  A    between atoms: C_12  and  C_25
    6  A    between atoms: C_12  and  C_27
    7  A    between atoms: C_15  and  C_21
    8  A    between atoms: C_15  and  C_23
    9  A    between atoms: C_27  and  S_28
                            x       y       z     vdW  Elec       q    Type
                         _______ _______ _______ _____ _____    ______ ____

>  <TORSDO>
F 9

$$$$
=
 OpenBabel10272400183D

 31 33  0  0  1  0  0  0  0  0999 V2000
  190.6140  177.3580  141.4840 N   0  0  0  0  0  0  0  0  0  0  0  0
  191.6060  177.0650  140.4710 C   0  0  0  0  0  0  0  0  0  0  0  0
  193.8910  176.6760  139.7080 C   0  0  0  0  0  3  0  0  0  0  0  0
  192.8990  176.9130  140.7660 C   0  0  0  0  0  3  0  0  0  0  0  0
  189.9070  177.2610  138.7620 C   0  0  0  0  0  3  0  0  0  0  0  0
  193.5380  176.5570  138.4610 N   0  0  0  0  0  0  0  0  0  0  0  0
  189.2640  177.6320  141.0510 C   0  0  0  0  0  0  0  0  0  0  0  0
  191.7910  175.3030  137.4390 N   0  0  0  0  0  1  0  0  0  0  0  0
  188.9600  177.5980  139.7840 N   0  0  0  0  0  0  0  0  0  0  0  0
  191.1790  176.9950  139.0620 C   0  0  0  0  0  0  0  0  0  0  0  0
  192.1520  176.6020  137.9810 C   0  0  1  0  0  3  0  0  0  0  0  0
  188.2120  178.0170  142.0490 C   0  0  2  0  0  3  0  0  0  0  0  0
  187.4150  176.9180  142.3730 O   0  0  0  0  0  1  0  0  0  0  0  0
  187.3540  179.1440  141.4990 C   0  0  0  0  0  2  0  0  0  0  0  0
  185.7390  178.8540  139.9580 O   0  0  0  0  0  1  0  0  0  0  0  0
  185.9980  178.6720  141.2750 N   0  0  0  0  0  0  0  0  0  0  0  0
  185.1460  179.5360  141.9810 N   0  0  0  0  0  2  0  0  0  0  0  0
  185.1050  178.8020  145.6480 C   0  0  0  0  0  0  0  0  0  0  0  0
  182.8350  178.7890  144.8060 C   0  0  0  0  0  3  0  0  0  0  0  0
  186.0600  178.6550  146.7770 C   0  0  0  0  0  1  0  0  0  0  0  0
  185.5800  179.0930  144.3660 C   0  0  0  0  0  3  0  0  0  0  0  0
  183.3100  179.0800  143.5230 C   0  0  0  0  0  3  0  0  0  0  0  0
  184.6820  179.2320  143.2980 C   0  0  0  0  0  0  0  0  0  0  0  0
  183.7330  178.6500  145.8680 C   0  0  0  0  0  3  0  0  0  0  0  0
  190.9070  177.3680  142.9250 C   0  0  1  0  0  3  0  0  0  0  0  0
  191.6080  179.4880  144.0670 C   0  0  0  0  0  1  0  0  0  0  0  0
  189.4740  178.4230  144.7630 C   0  0  0  0  0  1  0  0  0  0  0  0
  190.4270  178.6590  143.6020 C   0  0  0  0  0  3  0  0  0  0  0  0
  190.5230  176.0550  143.6090 C   0  0  0  0  0  2  0  0  0  0  0  0
  191.6860  176.0900  145.9450 C   0  0  0  0  0  1  0  0  0  0  0  0
  191.9820  175.2730  144.3540 S   0  0  0  0  0  0  0  0  0  0  0  0
  1 25  1  0  0  0  0
  2  4  2  0  0  0  0
  2  1  1  0  0  0  0
  3  4  1  0  0  0  0
  5 10  2  0  0  0  0
  5  9  1  0  0  0  0
  6  3  2  0  0  0  0
  7  1  1  0  0  0  0
  7 12  1  0  0  0  0
  9  7  2  0  0  0  0
 10  2  1  0  0  0  0
 11  8  1  1  0  0  0
 11  6  1  0  0  0  0
 11 10  1  0  0  0  0
 12 13  1  6  0  0  0
 14 12  1  0  0  0  0
 15 16  1  0  0  0  0
 16 14  1  0  0  0  0
 16 17  1  0  0  0  0
 17 23  1  0  0  0  0
 18 24  1  0  0  0  0
 18 20  1  0  0  0  0
 19 24  2  0  0  0  0
 21 18  2  0  0  0  0
 22 19  1  0  0  0  0
 23 22  2  0  0  0  0
 23 21  1  0  0  0  0
 25 28  1  0  0  0  0
 25 29  1  1  0  0  0
 28 26  1  0  0  0  0
 28 27  1  0  0  0  0
 29 31  1  0  0  0  0
 31 30  1  0  0  0  0
M  END
>  <MODEL>
5

>  <REMARK>
 VINA RESULT:      -6.3      2.994      5.176
  Name = 
  9 active torsions:
  status: ('A' for Active; 'I' for Inactive)
    1  A    between atoms: N_3  and  N_9
    2  A    between atoms: N_3  and  C_22
    3  A    between atoms: N_4  and  C_12
    4  A    between atoms: N_9  and  C_23
    5  A    between atoms: C_12  and  C_25
    6  A    between atoms: C_12  and  C_27
    7  A    between atoms: C_15  and  C_21
    8  A    between atoms: C_15  and  C_23
    9  A    between atoms: C_27  and  S_28
                            x       y       z     vdW  Elec       q    Type
                         _______ _______ _______ _____ _____    ______ ____

>  <TORSDO>
F 9

$$$$
=
 OpenBabel10272400183D

 31 33  0  0  1  0  0  0  0  0999 V2000
  188.0920  177.9850  143.6840 N   0  0  0  0  0  0  0  0  0  0  0  0
  187.7970  177.8640  145.0950 C   0  0  2  0  0  3  0  0  0  0  0  0
  188.3710  177.3050  147.4010 C   0  0  0  0  0  3  0  0  0  0  0  0
  188.7170  177.4780  145.9820 C   0  0  0  0  0  3  0  0  0  0  0  0
  185.4790  178.3880  144.6490 C   0  0  0  0  0  3  0  0  0  0  0  0
  187.1770  177.5700  147.8450 N   0  0  0  0  0  0  0  0  0  0  0  0
  187.0000  178.2840  142.7870 C   0  0  0  0  0  0  0  0  0  0  0  0
  185.7420  179.4330  147.4720 N   0  0  0  0  0  1  0  0  0  0  0  0
  185.7940  178.4510  143.2510 N   0  0  0  0  0  0  0  0  0  0  0  0
  186.4190  178.1150  145.5550 C   0  0  0  0  0  0  0  0  0  0  0  0
  186.0800  178.0930  147.0220 C   0  0  0  0  0  0  0  0  0  0  0  0
  187.2320  178.3460  141.3060 C   0  0  2  0  0  3  0  0  0  0  0  0
  187.8640  179.5400  140.9560 O   0  0  0  0  0  1  0  0  0  0  0  0
  185.9130  178.2120  140.5620 C   0  0  0  0  0  2  0  0  0  0  0  0
  184.6530  179.7680  139.5350 O   0  0  0  0  0  1  0  0  0  0  0  0
  185.8630  179.1640  139.4650 N   0  0  0  0  0  0  0  0  0  0  0  0
  185.8770  178.4160  138.2770 N   0  0  0  0  0  2  0  0  0  0  0  0
  188.3820  176.0040  136.9000 C   0  0  0  0  0  0  0  0  0  0  0  0
  189.3580  178.2190  136.9670 C   0  0  0  0  0  3  0  0  0  0  0  0
  188.4930  174.5570  136.5800 C   0  0  0  0  0  1  0  0  0  0  0  0
  187.1940  176.5110  137.4340 C   0  0  0  0  0  3  0  0  0  0  0  0
  188.1700  178.7260  137.5010 C   0  0  0  0  0  3  0  0  0  0  0  0
  187.0850  177.8760  137.7370 C   0  0  0  0  0  0  0  0  0  0  0  0
  189.4640  176.8570  136.6660 C   0  0  0  0  0  3  0  0  0  0  0  0
  189.4430  177.8440  143.1240 C   0  0  1  0  0  3  0  0  0  0  0  0
  191.1910  179.5400  143.7220 C   0  0  0  0  0  1  0  0  0  0  0  0
  191.5880  177.1680  144.3430 C   0  0  0  0  0  1  0  0  0  0  0  0
  190.5310  178.2390  144.1320 C   0  0  0  0  0  3  0  0  0  0  0  0
  189.6390  176.5130  142.3960 C   0  0  0  0  0  2  0  0  0  0  0  0
  191.6260  177.2870  140.8910 C   0  0  0  0  0  1  0  0  0  0  0  0
  189.9040  176.7890  140.6210 S   0  0  0  0  0  0  0  0  0  0  0  0
  1  2  1  0  0  0  0
  2 10  1  0  0  0  0
  2  4  1  6  0  0  0
  3  6  1  0  0  0  0
  4  3  2  0  0  0  0
  5 10  2  0  0  0  0
  7  9  2  0  0  0  0
  7  1  1  0  0  0  0
  9  5  1  0  0  0  0
 10 11  1  0  0  0  0
 11  8  1  0  0  0  0
 11  6  2  0  0  0  0
 12 13  1  1  0  0  0
 12  7  1  0  0  0  0
 14 12  1  0  0  0  0
 16 15  1  0  0  0  0
 16 14  1  0  0  0  0
 17 16  1  0  0  0  0
 18 21  1  0  0  0  0
 19 22  2  0  0  0  0
 20 18  1  0  0  0  0
 21 23  2  0  0  0  0
 22 23  1  0  0  0  0
 23 17  1  0  0  0  0
 24 18  2  0  0  0  0
 24 19  1  0  0  0  0
 25 29  1  1  0  0  0
 25  1  1  0  0  0  0
 25 28  1  0  0  0  0
 26 28  1  0  0  0  0
 28 27  1  0  0  0  0
 31 30  1  0  0  0  0
 31 29  1  0  0  0  0
M  END
>  <MODEL>
6

>  <REMARK>
 VINA RESULT:      -6.3      3.393      8.663
  Name = 
  9 active torsions:
  status: ('A' for Active; 'I' for Inactive)
    1  A    between atoms: N_3  and  N_9
    2  A    between atoms: N_3  and  C_22
    3  A    between atoms: N_4  and  C_12
    4  A    between atoms: N_9  and  C_23
    5  A    between atoms: C_12  and  C_25
    6  A    between atoms: C_12  and  C_27
    7  A    between atoms: C_15  and  C_21
    8  A    between atoms: C_15  and  C_23
    9  A    between atoms: C_27  and  S_28
                            x       y       z     vdW  Elec       q    Type
                         _______ _______ _______ _____ _____    ______ ____

>  <TORSDO>
F 9

$$$$
=
 OpenBabel10272400183D

 31 33  0  0  1  0  0  0  0  0999 V2000
  189.1950  177.3320  144.7180 N   0  0  0  0  0  0  0  0  0  0  0  0
  188.6160  177.7120  145.9890 C   0  0  2  0  0  3  0  0  0  0  0  0
  188.7510  178.3400  148.3440 C   0  0  0  0  0  3  0  0  0  0  0  0
  189.3680  178.0160  147.0490 C   0  0  0  0  0  3  0  0  0  0  0  0
  186.4070  177.2870  145.1020 C   0  0  0  0  0  3  0  0  0  0  0  0
  187.4580  178.3900  148.4850 N   0  0  0  0  0  0  0  0  0  0  0  0
  188.3020  176.8980  143.6700 C   0  0  0  0  0  0  0  0  0  0  0  0
  185.7730  179.4160  147.1510 N   0  0  0  0  0  1  0  0  0  0  0  0
  187.0150  176.8680  143.8720 N   0  0  0  0  0  0  0  0  0  0  0  0
  187.1490  177.7020  146.1290 C   0  0  0  0  0  0  0  0  0  0  0  0
  186.4930  178.1780  147.4000 C   0  0  0  0  0  0  0  0  0  0  0  0
  188.8500  176.4180  142.3580 C   0  0  2  0  0  3  0  0  0  0  0  0
  190.0580  175.7430  142.5470 O   0  0  0  0  0  1  0  0  0  0  0  0
  189.0460  177.5900  141.4110 C   0  0  0  0  0  2  0  0  0  0  0  0
  188.5110  177.8240  139.2370 O   0  0  0  0  0  1  0  0  0  0  0  0
  187.9510  177.6450  140.4570 N   0  0  0  0  0  0  0  0  0  0  0  0
  187.2210  178.8090  140.7440 N   0  0  0  0  0  2  0  0  0  0  0  0
  183.8460  178.7890  142.3560 C   0  0  0  0  0  0  0  0  0  0  0  0
  183.5820  178.7480  139.9500 C   0  0  0  0  0  3  0  0  0  0  0  0
  183.2480  178.8040  143.7160 C   0  0  0  0  0  1  0  0  0  0  0  0
  185.2350  178.8030  142.2040 C   0  0  0  0  0  3  0  0  0  0  0  0
  184.9710  178.7620  139.7970 C   0  0  0  0  0  3  0  0  0  0  0  0
  185.8030  178.7890  140.9220 C   0  0  0  0  0  0  0  0  0  0  0  0
  183.0190  178.7620  141.2290 C   0  0  0  0  0  3  0  0  0  0  0  0
  190.6360  177.3880  144.4360 C   0  0  1  0  0  3  0  0  0  0  0  0
  192.1960  178.3340  142.7140 C   0  0  0  0  0  1  0  0  0  0  0  0
  191.3150  179.8540  144.4710 C   0  0  0  0  0  1  0  0  0  0  0  0
  191.0170  178.6310  143.6190 C   0  0  0  0  0  3  0  0  0  0  0  0
  191.4870  177.0970  145.6730 C   0  0  0  0  0  2  0  0  0  0  0  0
  192.3580  175.4310  147.4830 C   0  0  0  0  0  1  0  0  0  0  0  0
  191.9830  175.3510  145.7110 S   0  0  0  0  0  0  0  0  0  0  0  0
  1  2  1  0  0  0  0
  2 10  1  0  0  0  0
  2  4  1  1  0  0  0
  3  6  1  0  0  0  0
  4  3  2  0  0  0  0
  5 10  2  0  0  0  0
  7  9  2  0  0  0  0
  7  1  1  0  0  0  0
  8 11  1  0  0  0  0
  9  5  1  0  0  0  0
 10 11  1  0  0  0  0
 11  6  2  0  0  0  0
 12 13  1  1  0  0  0
 12  7  1  0  0  0  0
 14 12  1  0  0  0  0
 15 16  1  0  0  0  0
 16 17  1  0  0  0  0
 16 14  1  0  0  0  0
 17 23  1  0  0  0  0
 18 20  1  0  0  0  0
 19 24  1  0  0  0  0
 21 18  1  0  0  0  0
 22 19  2  0  0  0  0
 22 23  1  0  0  0  0
 23 21  2  0  0  0  0
 24 18  2  0  0  0  0
 25  1  1  0  0  0  0
 25 29  1  1  0  0  0
 26 28  1  0  0  0  0
 28 25  1  0  0  0  0
 28 27  1  0  0  0  0
 29 31  1  0  0  0  0
 31 30  1  0  0  0  0
M  END
>  <MODEL>
7

>  <REMARK>
 VINA RESULT:      -6.3      4.785      8.416
  Name = 
  9 active torsions:
  status: ('A' for Active; 'I' for Inactive)
    1  A    between atoms: N_3  and  N_9
    2  A    between atoms: N_3  and  C_22
    3  A    between atoms: N_4  and  C_12
    4  A    between atoms: N_9  and  C_23
    5  A    between atoms: C_12  and  C_25
    6  A    between atoms: C_12  and  C_27
    7  A    between atoms: C_15  and  C_21
    8  A    between atoms: C_15  and  C_23
    9  A    between atoms: C_27  and  S_28
                            x       y       z     vdW  Elec       q    Type
                         _______ _______ _______ _____ _____    ______ ____

>  <TORSDO>
F 9

$$$$
=
 OpenBabel10272400183D

 31 33  0  0  1  0  0  0  0  0999 V2000
  188.1500  177.9880  142.7440 N   0  0  0  0  0  0  0  0  0  0  0  0
  187.0110  178.0340  143.6350 C   0  0  2  0  0  3  0  0  0  0  0  0
  185.9050  177.6600  145.7800 C   0  0  0  0  0  3  0  0  0  0  0  0
  187.0940  177.6600  144.9140 C   0  0  0  0  0  3  0  0  0  0  0  0
  185.6020  178.7110  141.7900 C   0  0  0  0  0  3  0  0  0  0  0  0
  184.7500  178.0710  145.3440 N   0  0  0  0  0  0  0  0  0  0  0  0
  187.9310  178.2900  141.3490 C   0  0  0  0  0  0  0  0  0  0  0  0
  184.1410  180.0060  144.0970 N   0  0  0  0  0  1  0  0  0  0  0  0
  186.7400  178.6060  140.9230 N   0  0  0  0  0  0  0  0  0  0  0  0
  185.7040  178.4490  143.0940 C   0  0  0  0  0  0  0  0  0  0  0  0
  184.5090  178.6030  143.9970 C   0  0  0  0  0  0  0  0  0  0  0  0
  189.0580  178.1830  140.3650 C   0  0  2  0  0  3  0  0  0  0  0  0
  188.9500  179.1700  139.3840 O   0  0  0  0  0  1  0  0  0  0  0  0
  189.0670  176.8050  139.7240 C   0  0  0  0  0  2  0  0  0  0  0  0
  189.2380  176.4950  137.5010 O   0  0  0  0  0  1  0  0  0  0  0  0
  189.9820  176.7880  138.5950 N   0  0  0  0  0  0  0  0  0  0  0  0
  190.8550  175.7070  138.7950 N   0  0  0  0  0  2  0  0  0  0  0  0
  193.1100  173.8660  136.4470 C   0  0  0  0  0  0  0  0  0  0  0  0
  193.8570  176.1620  136.6370 C   0  0  0  0  0  3  0  0  0  0  0  0
  193.2670  172.5050  135.8710 C   0  0  0  0  0  1  0  0  0  0  0  0
  192.0680  174.1310  137.3400 C   0  0  0  0  0  3  0  0  0  0  0  0
  192.8140  176.4260  137.5300 C   0  0  0  0  0  3  0  0  0  0  0  0
  191.9170  175.4140  137.8860 C   0  0  0  0  0  0  0  0  0  0  0  0
  194.0050  174.8810  136.0950 C   0  0  0  0  0  3  0  0  0  0  0  0
  189.5140  177.6740  143.1890 C   0  0  1  0  0  3  0  0  0  0  0  0
  190.9710  179.5060  144.0910 C   0  0  0  0  0  1  0  0  0  0  0  0
  190.3920  177.6120  145.5910 C   0  0  0  0  0  1  0  0  0  0  0  0
  189.9140  178.4760  144.4360 C   0  0  0  0  0  3  0  0  0  0  0  0
  189.7860  176.1700  143.2300 C   0  0  0  0  0  2  0  0  0  0  0  0
  191.9340  177.0030  142.0050 C   0  0  0  0  0  1  0  0  0  0  0  0
  191.5680  175.8450  143.3510 S   0  0  0  0  0  0  0  0  0  0  0  0
  1 25  1  0  0  0  0
  1  2  1  0  0  0  0
  2  4  1  6  0  0  0
  4  3  2  0  0  0  0
  5 10  2  0  0  0  0
  6  3  1  0  0  0  0
  7  1  1  0  0  0  0
  9  7  2  0  0  0  0
  9  5  1  0  0  0  0
 10  2  1  0  0  0  0
 10 11  1  0  0  0  0
 11  8  1  0  0  0  0
 11  6  2  0  0  0  0
 12 13  1  6  0  0  0
 12  7  1  0  0  0  0
 14 12  1  0  0  0  0
 15 16  1  0  0  0  0
 16 17  1  0  0  0  0
 16 14  1  0  0  0  0
 18 21  1  0  0  0  0
 19 22  2  0  0  0  0
 20 18  1  0  0  0  0
 21 23  2  0  0  0  0
 22 23  1  0  0  0  0
 23 17  1  0  0  0  0
 24 18  2  0  0  0  0
 24 19  1  0  0  0  0
 25 29  1  1  0  0  0
 25 28  1  0  0  0  0
 26 28  1  0  0  0  0
 28 27  1  0  0  0  0
 29 31  1  0  0  0  0
 30 31  1  0  0  0  0
M  END
>  <MODEL>
8

>  <REMARK>
 VINA RESULT:      -6.2      2.894      9.171
  Name = 
  9 active torsions:
  status: ('A' for Active; 'I' for Inactive)
    1  A    between atoms: N_3  and  N_9
    2  A    between atoms: N_3  and  C_22
    3  A    between atoms: N_4  and  C_12
    4  A    between atoms: N_9  and  C_23
    5  A    between atoms: C_12  and  C_25
    6  A    between atoms: C_12  and  C_27
    7  A    between atoms: C_15  and  C_21
    8  A    between atoms: C_15  and  C_23
    9  A    between atoms: C_27  and  S_28
                            x       y       z     vdW  Elec       q    Type
                         _______ _______ _______ _____ _____    ______ ____

>  <TORSDO>
F 9

$$$$
=
 OpenBabel10272400183D

 31 33  0  0  1  0  0  0  0  0999 V2000
  187.5400  178.0330  142.7820 N   0  0  0  0  0  0  0  0  0  0  0  0
  186.5060  178.1890  143.7830 C   0  0  2  0  0  3  0  0  0  0  0  0
  185.6060  177.9570  146.0400 C   0  0  0  0  0  3  0  0  0  0  0  0
  186.6950  177.8440  145.0580 C   0  0  0  0  0  3  0  0  0  0  0  0
  184.9660  178.9210  142.0680 C   0  0  0  0  0  3  0  0  0  0  0  0
  184.4440  178.4430  145.7110 N   0  0  0  0  0  0  0  0  0  0  0  0
  187.1990  178.3130  141.4070 C   0  0  0  0  0  0  0  0  0  0  0  0
  183.8510  180.3840  144.4660 N   0  0  0  0  0  1  0  0  0  0  0  0
  185.9970  178.7080  141.0940 N   0  0  0  0  0  0  0  0  0  0  0  0
  185.1840  178.6870  143.3630 C   0  0  0  0  0  0  0  0  0  0  0  0
  184.1030  178.9550  144.3780 C   0  0  0  0  0  0  0  0  0  0  0  0
  188.2070  178.0950  140.3180 C   0  0  2  0  0  3  0  0  0  0  0  0
  188.9560  179.2540  140.1000 O   0  0  0  0  0  1  0  0  0  0  0  0
  187.5110  177.6710  139.0350 C   0  0  0  0  0  2  0  0  0  0  0  0
  187.1270  179.1110  137.3470 O   0  0  0  0  0  1  0  0  0  0  0  0
  188.1060  178.3530  137.8980 N   0  0  0  0  0  0  0  0  0  0  0  0
  188.4340  177.3640  136.9570 N   0  0  0  0  0  2  0  0  0  0  0  0
  191.8100  176.0190  137.8380 C   0  0  0  0  0  0  0  0  0  0  0  0
  190.4080  174.2070  137.0550 C   0  0  0  0  0  3  0  0  0  0  0  0
  193.1150  176.5040  138.3570 C   0  0  0  0  0  1  0  0  0  0  0  0
  190.7580  176.9170  137.6450 C   0  0  0  0  0  3  0  0  0  0  0  0
  189.3550  175.1060  136.8620 C   0  0  0  0  0  3  0  0  0  0  0  0
  189.5250  176.4630  137.1550 C   0  0  0  0  0  0  0  0  0  0  0  0
  191.6360  174.6630  137.5430 C   0  0  0  0  0  3  0  0  0  0  0  0
  188.9170  177.6280  143.0970 C   0  0  1  0  0  3  0  0  0  0  0  0
  190.7680  179.2020  143.7220 C   0  0  0  0  0  1  0  0  0  0  0  0
  189.8550  177.6980  145.4760 C   0  0  0  0  0  1  0  0  0  0  0  0
  189.5290  178.4830  144.2160 C   0  0  0  0  0  3  0  0  0  0  0  0
  189.0650  176.1130  143.2380 C   0  0  0  0  0  2  0  0  0  0  0  0
  190.8850  176.5390  141.4160 C   0  0  0  0  0  1  0  0  0  0  0  0
  190.7890  175.6120  142.9710 S   0  0  0  0  0  0  0  0  0  0  0  0
  1 25  1  0  0  0  0
  1  2  1  0  0  0  0
  2  4  1  6  0  0  0
  4  3  2  0  0  0  0
  5 10  2  0  0  0  0
  6  3  1  0  0  0  0
  7  1  1  0  0  0  0
  9  7  2  0  0  0  0
  9  5  1  0  0  0  0
 10  2  1  0  0  0  0
 10 11  1  0  0  0  0
 11  8  1  0  0  0  0
 11  6  2  0  0  0  0
 12 13  1  6  0  0  0
 12  7  1  0  0  0  0
 14 12  1  0  0  0  0
 15 16  1  0  0  0  0
 16 14  1  0  0  0  0
 17 23  1  0  0  0  0
 17 16  1  0  0  0  0
 18 20  1  0  0  0  0
 19 24  1  0  0  0  0
 21 18  1  0  0  0  0
 22 19  2  0  0  0  0
 22 23  1  0  0  0  0
 23 21  2  0  0  0  0
 24 18  2  0  0  0  0
 25 29  1  1  0  0  0
 25 28  1  0  0  0  0
 26 28  1  0  0  0  0
 28 27  1  0  0  0  0
 30 31  1  0  0  0  0
 31 29  1  0  0  0  0
M  END
>  <MODEL>
9

>  <REMARK>
 VINA RESULT:      -6.2      2.668      8.799
  Name = 
  9 active torsions:
  status: ('A' for Active; 'I' for Inactive)
    1  A    between atoms: N_3  and  N_9
    2  A    between atoms: N_3  and  C_22
    3  A    between atoms: N_4  and  C_12
    4  A    between atoms: N_9  and  C_23
    5  A    between atoms: C_12  and  C_25
    6  A    between atoms: C_12  and  C_27
    7  A    between atoms: C_15  and  C_21
    8  A    between atoms: C_15  and  C_23
    9  A    between atoms: C_27  and  S_28
                            x       y       z     vdW  Elec       q    Type
                         _______ _______ _______ _____ _____    ______ ____

>  <TORSDO>
F 9

$$$$
