=
 OpenBabel10272413333D

 32 36  0  0  1  0  0  0  0  0999 V2000
  187.2590  176.9110  144.4520 C   0  0  0  0  0  3  0  0  0  0  0  0
  190.8750  177.6380  141.2580 C   0  0  0  0  0  0  0  0  0  0  0  0
  187.3920  178.4800  137.2200 C   0  0  0  0  0  3  0  0  0  0  0  0
  188.5290  178.3210  136.4310 C   0  0  0  0  0  3  0  0  0  0  0  0
  189.9280  177.5720  143.9120 C   0  0  0  0  0  0  0  0  0  0  0  0
  189.4910  177.3940  141.4970 C   0  0  0  0  0  0  0  0  0  0  0  0
  187.7080  176.9730  143.1330 C   0  0  0  0  0  3  0  0  0  0  0  0
  187.4410  178.1590  138.5770 C   0  0  0  0  0  3  0  0  0  0  0  0
  188.5720  177.3960  140.5670 N   0  0  0  0  0  0  0  0  0  0  0  0
  188.6190  177.6820  139.1650 C   0  0  0  0  0  0  0  0  0  0  0  0
  190.9590  176.9190  138.9010 N   0  0  0  0  0  0  0  0  0  0  0  0
  190.3200  177.7780  146.2670 F   0  0  0  0  0  0  0  0  0  0  0  0
  189.4710  177.5130  145.2390 C   0  0  0  0  0  0  0  0  0  0  0  0
  189.0450  177.2950  142.8390 C   0  0  0  0  0  0  0  0  0  0  0  0
  191.2480  177.9240  143.6440 C   0  0  0  0  0  3  0  0  0  0  0  0
  188.1350  177.1840  145.5050 C   0  0  0  0  0  0  0  0  0  0  0  0
  189.7020  177.8250  137.0010 C   0  0  0  0  0  3  0  0  0  0  0  0
  189.7570  177.4880  138.3650 C   0  0  0  0  0  0  0  0  0  0  0  0
  191.7130  177.9420  142.3350 C   0  0  0  0  0  3  0  0  0  0  0  0
  191.5190  177.4400  140.1080 C   0  0  0  0  0  3  0  0  0  0  0  0
  191.9420  173.8840  136.8480 C   0  0  0  0  0  0  0  0  0  0  0  0
  193.1900  174.1340  136.4560 C   0  0  0  0  0  3  0  0  0  0  0  0
  193.2440  176.2380  137.9440 C   0  0  2  0  0  3  0  0  0  0  0  0
  194.9880  175.6630  136.4090 O   0  0  0  0  0  0  0  0  0  0  0  0
  193.8620  175.3660  136.8870 C   0  0  0  0  0  0  0  0  0  0  0  0
  191.1960  174.8620  137.6580 C   0  0  0  0  0  3  0  0  0  0  0  0
  191.3280  172.7480  136.4400 F   0  0  0  0  0  0  0  0  0  0  0  0
  193.9000  176.0230  139.1430 F   0  0  0  0  0  0  0  0  0  0  0  0
  191.7550  175.9920  138.1270 C   0  0  0  0  0  0  0  0  0  0  0  0
  187.6420  177.0850  146.9090 C   0  0  0  0  0  2  0  0  0  0  0  0
  187.6420  178.3480  147.4990 O   0  0  0  0  0  0  0  0  0  0  0  0
  188.1780  178.1430  148.7690 C   0  0  0  0  0  1  0  0  0  0  0  0
  1 16  1  0  0  0  0
  2  6  1  0  0  0  0
  2 19  1  0  0  0  0
  3  8  1  0  0  0  0
  4 17  1  0  0  0  0
  4  3  2  0  0  0  0
  5 13  1  0  0  0  0
  6 14  1  0  0  0  0
  7  1  2  0  0  0  0
  8 10  2  0  0  0  0
  9  6  2  0  0  0  0
 10  9  1  0  0  0  0
 11 20  1  0  0  0  0
 13 16  2  0  0  0  0
 13 12  1  0  0  0  0
 14  7  1  0  0  0  0
 14  5  2  0  0  0  0
 15  5  1  0  0  0  0
 16 30  1  0  0  0  0
 17 18  2  0  0  0  0
 18 11  1  0  0  0  0
 18 10  1  0  0  0  0
 19 15  2  0  0  0  0
 20  2  2  0  0  0  0
 21 26  1  0  0  0  0
 22 21  2  0  0  0  0
 22 25  1  0  0  0  0
 23 29  1  0  0  0  0
 23 28  1  1  0  0  0
 24 25  2  0  0  0  0
 25 23  1  0  0  0  0
 26 29  2  0  0  0  0
 27 21  1  0  0  0  0
 29 11  1  0  0  0  0
 30 31  1  0  0  0  0
 31 32  1  0  0  0  0
M  END
>  <MODEL>
1

>  <REMARK>
 VINA RESULT:      -9.4      0.000      0.000
  Name = 
  3 active torsions:
  status: ('A' for Active; 'I' for Inactive)
    1  A    between atoms: O_1  and  C_10
    2  A    between atoms: C_10  and  C_24
    3  A    between atoms: N_16  and  C_32
                            x       y       z     vdW  Elec       q    Type
                         _______ _______ _______ _____ _____    ______ ____

>  <TORSDO>
F 3

$$$$
=
 OpenBabel10272413333D

 32 36  0  0  1  0  0  0  0  0999 V2000
  188.7230  176.9370  145.4210 C   0  0  0  0  0  3  0  0  0  0  0  0
  186.4340  178.5810  141.4390 C   0  0  0  0  0  0  0  0  0  0  0  0
  181.7930  179.1920  144.1280 C   0  0  0  0  0  3  0  0  0  0  0  0
  181.2610  179.3090  142.8460 C   0  0  0  0  0  3  0  0  0  0  0  0
  188.8120  178.0980  142.8720 C   0  0  0  0  0  0  0  0  0  0  0  0
  186.3530  178.0800  142.7700 C   0  0  0  0  0  0  0  0  0  0  0  0
  187.5370  177.2020  144.7350 C   0  0  0  0  0  3  0  0  0  0  0  0
  183.1080  178.7550  144.2950 C   0  0  0  0  0  3  0  0  0  0  0  0
  185.2480  178.0130  143.4650 N   0  0  0  0  0  0  0  0  0  0  0  0
  183.9080  178.4350  143.1910 C   0  0  0  0  0  0  0  0  0  0  0  0
  184.1140  178.1180  140.7450 N   0  0  0  0  0  0  0  0  0  0  0  0
  191.2040  178.1420  143.0110 F   0  0  0  0  0  0  0  0  0  0  0  0
  190.0030  177.8330  143.5680 C   0  0  0  0  0  0  0  0  0  0  0  0
  187.5600  177.7770  143.4510 C   0  0  0  0  0  0  0  0  0  0  0  0
  188.8570  178.6980  141.6170 C   0  0  0  0  0  3  0  0  0  0  0  0
  189.9540  177.2550  144.8440 C   0  0  0  0  0  0  0  0  0  0  0  0
  182.0420  178.9710  141.7400 C   0  0  0  0  0  3  0  0  0  0  0  0
  183.3640  178.5190  141.8990 C   0  0  0  0  0  0  0  0  0  0  0  0
  187.6820  178.9210  140.9080 C   0  0  0  0  0  3  0  0  0  0  0  0
  185.4410  178.6100  140.5490 C   0  0  0  0  0  3  0  0  0  0  0  0
  181.9030  175.6970  138.8350 C   0  0  0  0  0  0  0  0  0  0  0  0
  182.0400  176.0530  137.5590 C   0  0  0  0  0  3  0  0  0  0  0  0
  183.8880  177.7250  138.2160 C   0  0  2  0  0  3  0  0  0  0  0  0
  182.9730  177.5700  136.0100 O   0  0  0  0  0  0  0  0  0  0  0  0
  182.9460  177.1500  137.1950 C   0  0  0  0  0  0  0  0  0  0  0  0
  182.6010  176.4340  139.9020 C   0  0  0  0  0  3  0  0  0  0  0  0
  181.0610  174.6880  139.1610 F   0  0  0  0  0  0  0  0  0  0  0  0
  185.1590  177.2300  137.9830 F   0  0  0  0  0  0  0  0  0  0  0  0
  183.4790  177.4210  139.6480 C   0  0  0  0  0  0  0  0  0  0  0  0
  191.2100  176.9380  145.5820 C   0  0  0  0  0  2  0  0  0  0  0  0
  190.9140  176.6450  146.9130 O   0  0  0  0  0  0  0  0  0  0  0  0
  191.9780  175.8550  147.3450 C   0  0  0  0  0  1  0  0  0  0  0  0
  2  6  1  0  0  0  0
  3  8  1  0  0  0  0
  4  3  2  0  0  0  0
  5 14  2  0  0  0  0
  5 13  1  0  0  0  0
  6 14  1  0  0  0  0
  6  9  2  0  0  0  0
  7  1  2  0  0  0  0
 10  9  1  0  0  0  0
 10  8  2  0  0  0  0
 11 18  1  0  0  0  0
 12 13  1  0  0  0  0
 13 16  2  0  0  0  0
 14  7  1  0  0  0  0
 15  5  1  0  0  0  0
 16  1  1  0  0  0  0
 16 30  1  0  0  0  0
 17 18  2  0  0  0  0
 17  4  1  0  0  0  0
 18 10  1  0  0  0  0
 19  2  1  0  0  0  0
 19 15  2  0  0  0  0
 20 11  1  0  0  0  0
 20  2  2  0  0  0  0
 21 27  1  0  0  0  0
 21 26  1  0  0  0  0
 22 21  2  0  0  0  0
 23 28  1  6  0  0  0
 23 29  1  0  0  0  0
 24 25  2  0  0  0  0
 25 22  1  0  0  0  0
 25 23  1  0  0  0  0
 29 26  2  0  0  0  0
 29 11  1  0  0  0  0
 30 31  1  0  0  0  0
 31 32  1  0  0  0  0
M  END
>  <MODEL>
2

>  <REMARK>
 VINA RESULT:      -8.9      4.887      7.075
  Name = 
  3 active torsions:
  status: ('A' for Active; 'I' for Inactive)
    1  A    between atoms: O_1  and  C_10
    2  A    between atoms: C_10  and  C_24
    3  A    between atoms: N_16  and  C_32
                            x       y       z     vdW  Elec       q    Type
                         _______ _______ _______ _____ _____    ______ ____

>  <TORSDO>
F 3

$$$$
=
 OpenBabel10272413333D

 32 36  0  0  1  0  0  0  0  0999 V2000
  188.1810  176.9130  145.1820 C   0  0  0  0  0  3  0  0  0  0  0  0
  186.1610  178.5930  141.0720 C   0  0  0  0  0  0  0  0  0  0  0  0
  181.3870  179.3120  143.4900 C   0  0  0  0  0  3  0  0  0  0  0  0
  180.9320  179.4360  142.1790 C   0  0  0  0  0  3  0  0  0  0  0  0
  188.4410  178.0640  142.6400 C   0  0  0  0  0  0  0  0  0  0  0  0
  185.9930  178.0980  142.3980 C   0  0  0  0  0  0  0  0  0  0  0  0
  187.0430  177.2010  144.4290 C   0  0  0  0  0  3  0  0  0  0  0  0
  182.6810  178.8480  143.7330 C   0  0  0  0  0  3  0  0  0  0  0  0
  184.8490  178.0560  143.0290 N   0  0  0  0  0  0  0  0  0  0  0  0
  183.5360  178.5060  142.6770 C   0  0  0  0  0  0  0  0  0  0  0  0
  183.8740  178.1770  140.2480 N   0  0  0  0  0  0  0  0  0  0  0  0
  190.8220  178.0570  142.9160 F   0  0  0  0  0  0  0  0  0  0  0  0
  189.5850  177.7760  143.4040 C   0  0  0  0  0  0  0  0  0  0  0  0
  187.1510  177.7710  143.1480 C   0  0  0  0  0  0  0  0  0  0  0  0
  188.5710  178.6580  141.3880 C   0  0  0  0  0  3  0  0  0  0  0  0
  189.4510  177.2030  144.6760 C   0  0  0  0  0  0  0  0  0  0  0  0
  181.7670  179.0780  141.1200 C   0  0  0  0  0  3  0  0  0  0  0  0
  183.0690  178.5980  141.3560 C   0  0  0  0  0  0  0  0  0  0  0  0
  187.4440  178.9040  140.6130 C   0  0  0  0  0  3  0  0  0  0  0  0
  185.2210  178.6400  140.1270 C   0  0  0  0  0  3  0  0  0  0  0  0
  182.4170  177.5390  136.8030 C   0  0  0  0  0  0  0  0  0  0  0  0
  182.2550  176.2180  136.7470 C   0  0  0  0  0  3  0  0  0  0  0  0
  182.9020  176.0250  139.2340 C   0  0  2  0  0  3  0  0  0  0  0  0
  182.5630  174.1330  137.8090 O   0  0  0  0  0  0  0  0  0  0  0  0
  182.5910  175.3860  137.9090 C   0  0  0  0  0  0  0  0  0  0  0  0
  182.9950  178.1770  137.9980 C   0  0  0  0  0  3  0  0  0  0  0  0
  182.1100  178.2970  135.7240 F   0  0  0  0  0  0  0  0  0  0  0  0
  181.7990  175.9020  140.0610 F   0  0  0  0  0  0  0  0  0  0  0  0
  183.2880  177.4900  139.1170 C   0  0  0  0  0  0  0  0  0  0  0  0
  190.6550  176.8620  145.4860 C   0  0  0  0  0  2  0  0  0  0  0  0
  190.3190  176.8240  146.8380 O   0  0  0  0  0  0  0  0  0  0  0  0
  191.5000  176.4650  147.4850 C   0  0  0  0  0  1  0  0  0  0  0  0
  2  6  1  0  0  0  0
  3  8  1  0  0  0  0
  4  3  2  0  0  0  0
  5 14  2  0  0  0  0
  5 13  1  0  0  0  0
  6  9  2  0  0  0  0
  6 14  1  0  0  0  0
  7  1  2  0  0  0  0
 10  9  1  0  0  0  0
 10  8  2  0  0  0  0
 11 18  1  0  0  0  0
 12 13  1  0  0  0  0
 13 16  2  0  0  0  0
 14  7  1  0  0  0  0
 15  5  1  0  0  0  0
 16  1  1  0  0  0  0
 16 30  1  0  0  0  0
 17 18  2  0  0  0  0
 17  4  1  0  0  0  0
 18 10  1  0  0  0  0
 19  2  1  0  0  0  0
 19 15  2  0  0  0  0
 20 11  1  0  0  0  0
 20  2  2  0  0  0  0
 21 26  1  0  0  0  0
 22 21  2  0  0  0  0
 22 25  1  0  0  0  0
 23 28  1  1  0  0  0
 24 25  2  0  0  0  0
 25 23  1  0  0  0  0
 26 29  2  0  0  0  0
 27 21  1  0  0  0  0
 29 23  1  0  0  0  0
 29 11  1  0  0  0  0
 30 31  1  0  0  0  0
 31 32  1  0  0  0  0
M  END
>  <MODEL>
3

>  <REMARK>
 VINA RESULT:      -8.7      5.098      7.258
  Name = 
  3 active torsions:
  status: ('A' for Active; 'I' for Inactive)
    1  A    between atoms: O_1  and  C_10
    2  A    between atoms: C_10  and  C_24
    3  A    between atoms: N_16  and  C_32
                            x       y       z     vdW  Elec       q    Type
                         _______ _______ _______ _____ _____    ______ ____

>  <TORSDO>
F 3

$$$$
=
 OpenBabel10272413333D

 32 36  0  0  1  0  0  0  0  0999 V2000
  187.4600  176.8280  144.5280 C   0  0  0  0  0  3  0  0  0  0  0  0
  190.9350  177.5130  141.1730 C   0  0  0  0  0  0  0  0  0  0  0  0
  187.2860  178.5510  137.3330 C   0  0  0  0  0  3  0  0  0  0  0  0
  188.3770  178.3750  136.4840 C   0  0  0  0  0  3  0  0  0  0  0  0
  190.1180  177.4170  143.8690 C   0  0  0  0  0  0  0  0  0  0  0  0
  189.5570  177.3060  141.4760 C   0  0  0  0  0  0  0  0  0  0  0  0
  187.8440  176.9050  143.1900 C   0  0  0  0  0  3  0  0  0  0  0  0
  187.3910  178.1990  138.6780 C   0  0  0  0  0  3  0  0  0  0  0  0
  188.5940  177.3580  140.5930 N   0  0  0  0  0  0  0  0  0  0  0  0
  188.5810  177.6720  139.1970 C   0  0  0  0  0  0  0  0  0  0  0  0
  190.8790  176.8450  138.8000 N   0  0  0  0  0  0  0  0  0  0  0  0
  190.6320  177.5600  146.2050 F   0  0  0  0  0  0  0  0  0  0  0  0
  189.7260  177.3430  145.2160 C   0  0  0  0  0  0  0  0  0  0  0  0
  189.1750  177.1920  142.8360 C   0  0  0  0  0  0  0  0  0  0  0  0
  191.4340  177.7350  143.5430 C   0  0  0  0  0  3  0  0  0  0  0  0
  188.3940  177.0500  145.5420 C   0  0  0  0  0  0  0  0  0  0  0  0
  189.5600  177.8310  136.9840 C   0  0  0  0  0  3  0  0  0  0  0  0
  189.6710  177.4620  138.3370 C   0  0  0  0  0  0  0  0  0  0  0  0
  191.8340  177.7670  142.2120 C   0  0  0  0  0  3  0  0  0  0  0  0
  191.5150  177.3210  139.9880 C   0  0  0  0  0  3  0  0  0  0  0  0
  193.7250  175.1830  136.9190 C   0  0  0  0  0  0  0  0  0  0  0  0
  193.2020  174.0510  136.4530 C   0  0  0  0  0  3  0  0  0  0  0  0
  190.8700  174.7810  137.2690 C   0  0  2  0  0  3  0  0  0  0  0  0
  191.3330  172.6120  136.3720 O   0  0  0  0  0  0  0  0  0  0  0  0
  191.7880  173.7380  136.6960 C   0  0  0  0  0  0  0  0  0  0  0  0
  192.9180  176.1040  137.7380 C   0  0  0  0  0  3  0  0  0  0  0  0
  195.0320  175.4590  136.6950 F   0  0  0  0  0  0  0  0  0  0  0  0
  190.0900  175.3000  136.2500 F   0  0  0  0  0  0  0  0  0  0  0  0
  191.6070  175.9100  137.9690 C   0  0  0  0  0  0  0  0  0  0  0  0
  187.9690  176.9350  146.9660 C   0  0  0  0  0  2  0  0  0  0  0  0
  187.6420  178.1960  147.4630 O   0  0  0  0  0  0  0  0  0  0  0  0
  188.4200  178.3340  148.6110 C   0  0  0  0  0  1  0  0  0  0  0  0
  1 16  1  0  0  0  0
  2  6  1  0  0  0  0
  2 19  1  0  0  0  0
  3  8  1  0  0  0  0
  4 17  1  0  0  0  0
  4  3  2  0  0  0  0
  5 13  1  0  0  0  0
  6 14  1  0  0  0  0
  7  1  2  0  0  0  0
  8 10  2  0  0  0  0
  9  6  2  0  0  0  0
 10  9  1  0  0  0  0
 11 20  1  0  0  0  0
 13 16  2  0  0  0  0
 13 12  1  0  0  0  0
 14  7  1  0  0  0  0
 14  5  2  0  0  0  0
 15  5  1  0  0  0  0
 16 30  1  0  0  0  0
 17 18  2  0  0  0  0
 18 11  1  0  0  0  0
 18 10  1  0  0  0  0
 19 15  2  0  0  0  0
 20  2  2  0  0  0  0
 21 26  1  0  0  0  0
 22 25  1  0  0  0  0
 22 21  2  0  0  0  0
 23 28  1  6  0  0  0
 23 29  1  0  0  0  0
 24 25  2  0  0  0  0
 25 23  1  0  0  0  0
 26 29  2  0  0  0  0
 27 21  1  0  0  0  0
 29 11  1  0  0  0  0
 30 31  1  0  0  0  0
 31 32  1  0  0  0  0
M  END
>  <MODEL>
4

>  <REMARK>
 VINA RESULT:      -8.7      1.119      1.704
  Name = 
  3 active torsions:
  status: ('A' for Active; 'I' for Inactive)
    1  A    between atoms: O_1  and  C_10
    2  A    between atoms: C_10  and  C_24
    3  A    between atoms: N_16  and  C_32
                            x       y       z     vdW  Elec       q    Type
                         _______ _______ _______ _____ _____    ______ ____

>  <TORSDO>
F 3

$$$$
=
 OpenBabel10272413333D

 32 36  0  0  1  0  0  0  0  0999 V2000
  186.8750  177.4040  145.9620 C   0  0  0  0  0  3  0  0  0  0  0  0
  185.5680  178.5810  141.4120 C   0  0  0  0  0  0  0  0  0  0  0  0
  180.5390  179.7820  142.9660 C   0  0  0  0  0  3  0  0  0  0  0  0
  180.2870  179.7430  141.5960 C   0  0  0  0  0  3  0  0  0  0  0  0
  187.5630  178.1910  143.3630 C   0  0  0  0  0  0  0  0  0  0  0  0
  185.1820  178.2750  142.7500 C   0  0  0  0  0  0  0  0  0  0  0  0
  185.8760  177.6260  145.0140 C   0  0  0  0  0  3  0  0  0  0  0  0
  181.7560  179.3110  143.4590 C   0  0  0  0  0  3  0  0  0  0  0  0
  183.9570  178.3590  143.2000 N   0  0  0  0  0  0  0  0  0  0  0  0
  182.7360  178.8010  142.5980 C   0  0  0  0  0  0  0  0  0  0  0  0
  183.4060  178.1360  140.3110 N   0  0  0  0  0  0  0  0  0  0  0  0
  189.8750  178.1400  143.9940 F   0  0  0  0  0  0  0  0  0  0  0  0
  188.5660  177.9700  144.3210 C   0  0  0  0  0  0  0  0  0  0  0  0
  186.2000  178.0140  143.7020 C   0  0  0  0  0  0  0  0  0  0  0  0
  187.9060  178.6060  142.0790 C   0  0  0  0  0  3  0  0  0  0  0  0
  188.2180  177.5790  145.6220 C   0  0  0  0  0  0  0  0  0  0  0  0
  181.2470  179.2170  140.7310 C   0  0  0  0  0  3  0  0  0  0  0  0
  182.4720  178.7290  141.2210 C   0  0  0  0  0  0  0  0  0  0  0  0
  186.9190  178.7830  141.1170 C   0  0  0  0  0  3  0  0  0  0  0  0
  184.7790  178.5310  140.3370 C   0  0  0  0  0  3  0  0  0  0  0  0
  181.7290  175.3480  138.3590 C   0  0  0  0  0  0  0  0  0  0  0  0
  181.8770  175.6960  137.0820 C   0  0  0  0  0  3  0  0  0  0  0  0
  183.3900  177.6610  137.7860 C   0  0  2  0  0  3  0  0  0  0  0  0
  182.6360  177.3150  135.5410 O   0  0  0  0  0  0  0  0  0  0  0  0
  182.6120  176.9190  136.7350 C   0  0  0  0  0  0  0  0  0  0  0  0
  182.2360  176.2110  139.4400 C   0  0  0  0  0  3  0  0  0  0  0  0
  181.0440  174.2220  138.6700 F   0  0  0  0  0  0  0  0  0  0  0  0
  184.7350  177.3760  137.6330 F   0  0  0  0  0  0  0  0  0  0  0  0
  182.9560  177.3230  139.2020 C   0  0  0  0  0  0  0  0  0  0  0  0
  189.2710  177.3090  146.6420 C   0  0  0  0  0  2  0  0  0  0  0  0
  188.6900  177.2120  147.9050 O   0  0  0  0  0  0  0  0  0  0  0  0
  189.1240  178.3520  148.5800 C   0  0  0  0  0  1  0  0  0  0  0  0
  2  6  1  0  0  0  0
  3  8  1  0  0  0  0
  4  3  2  0  0  0  0
  5 14  2  0  0  0  0
  5 13  1  0  0  0  0
  6  9  2  0  0  0  0
  6 14  1  0  0  0  0
  7  1  2  0  0  0  0
 10  9  1  0  0  0  0
 10  8  2  0  0  0  0
 11 20  1  0  0  0  0
 11 18  1  0  0  0  0
 12 13  1  0  0  0  0
 13 16  2  0  0  0  0
 14  7  1  0  0  0  0
 15  5  1  0  0  0  0
 16  1  1  0  0  0  0
 16 30  1  0  0  0  0
 17 18  2  0  0  0  0
 17  4  1  0  0  0  0
 18 10  1  0  0  0  0
 19  2  1  0  0  0  0
 19 15  2  0  0  0  0
 20  2  2  0  0  0  0
 21 27  1  0  0  0  0
 21 26  1  0  0  0  0
 22 21  2  0  0  0  0
 23 28  1  1  0  0  0
 23 29  1  0  0  0  0
 24 25  2  0  0  0  0
 25 22  1  0  0  0  0
 25 23  1  0  0  0  0
 29 26  2  0  0  0  0
 29 11  1  0  0  0  0
 30 31  1  0  0  0  0
 31 32  1  0  0  0  0
M  END
>  <MODEL>
5

>  <REMARK>
 VINA RESULT:      -8.5      5.262      7.265
  Name = 
  3 active torsions:
  status: ('A' for Active; 'I' for Inactive)
    1  A    between atoms: O_1  and  C_10
    2  A    between atoms: C_10  and  C_24
    3  A    between atoms: N_16  and  C_32
                            x       y       z     vdW  Elec       q    Type
                         _______ _______ _______ _____ _____    ______ ____

>  <TORSDO>
F 3

$$$$
=
 OpenBabel10272413333D

 32 36  0  0  1  0  0  0  0  0999 V2000
  186.0800  178.2610  143.4140 C   0  0  0  0  0  3  0  0  0  0  0  0
  181.9450  178.9770  140.9270 C   0  0  0  0  0  0  0  0  0  0  0  0
  183.9040  176.4540  136.5740 C   0  0  0  0  0  3  0  0  0  0  0  0
  182.8060  177.0410  135.9480 C   0  0  0  0  0  3  0  0  0  0  0  0
  183.3290  178.7930  143.3740 C   0  0  0  0  0  0  0  0  0  0  0  0
  183.3220  178.6110  140.9200 C   0  0  0  0  0  0  0  0  0  0  0  0
  185.3990  178.3170  142.1980 C   0  0  0  0  0  3  0  0  0  0  0  0
  184.2580  176.8490  137.8650 C   0  0  0  0  0  3  0  0  0  0  0  0
  183.9560  178.1510  139.8740 N   0  0  0  0  0  0  0  0  0  0  0  0
  183.5240  177.8270  138.5480 C   0  0  0  0  0  0  0  0  0  0  0  0
  181.7110  179.5110  138.5300 N   0  0  0  0  0  0  0  0  0  0  0  0
  183.3530  178.9250  145.7670 F   0  0  0  0  0  0  0  0  0  0  0  0
  184.0170  178.7310  144.5970 C   0  0  0  0  0  0  0  0  0  0  0  0
  184.0200  178.5900  142.1540 C   0  0  0  0  0  0  0  0  0  0  0  0
  181.9580  179.0320  143.3580 C   0  0  0  0  0  3  0  0  0  0  0  0
  185.3930  178.4620  144.6130 C   0  0  0  0  0  0  0  0  0  0  0  0
  182.0810  178.0320  136.6110 C   0  0  0  0  0  3  0  0  0  0  0  0
  182.4380  178.4450  137.9070 C   0  0  0  0  0  0  0  0  0  0  0  0
  181.2830  179.1360  142.1470 C   0  0  0  0  0  3  0  0  0  0  0  0
  181.2310  179.3630  139.8680 C   0  0  0  0  0  3  0  0  0  0  0  0
  180.3650  181.5730  135.6430 C   0  0  0  0  0  0  0  0  0  0  0  0
  180.1460  182.7780  136.1650 C   0  0  0  0  0  3  0  0  0  0  0  0
  181.2610  182.0360  138.3660 C   0  0  2  0  0  3  0  0  0  0  0  0
  180.1440  184.1350  138.0960 O   0  0  0  0  0  0  0  0  0  0  0  0
  180.4750  183.0400  137.5710 C   0  0  0  0  0  0  0  0  0  0  0  0
  180.8740  180.4710  136.4780 C   0  0  0  0  0  3  0  0  0  0  0  0
  180.0530  181.3380  134.3460 F   0  0  0  0  0  0  0  0  0  0  0  0
  182.5700  182.4730  138.4720 F   0  0  0  0  0  0  0  0  0  0  0  0
  181.2380  180.6420  137.7620 C   0  0  0  0  0  0  0  0  0  0  0  0
  186.1440  178.4250  145.9000 C   0  0  0  0  0  2  0  0  0  0  0  0
  186.9210  177.2690  145.9600 O   0  0  0  0  0  0  0  0  0  0  0  0
  188.1120  177.6750  146.5600 C   0  0  0  0  0  1  0  0  0  0  0  0
  1 16  1  0  0  0  0
  2 19  1  0  0  0  0
  3  8  1  0  0  0  0
  4  3  2  0  0  0  0
  4 17  1  0  0  0  0
  5 13  1  0  0  0  0
  6  2  1  0  0  0  0
  6 14  1  0  0  0  0
  7  1  2  0  0  0  0
  8 10  2  0  0  0  0
  9  6  2  0  0  0  0
 10  9  1  0  0  0  0
 11 20  1  0  0  0  0
 13 16  2  0  0  0  0
 13 12  1  0  0  0  0
 14  7  1  0  0  0  0
 14  5  2  0  0  0  0
 15  5  1  0  0  0  0
 16 30  1  0  0  0  0
 17 18  2  0  0  0  0
 18 11  1  0  0  0  0
 18 10  1  0  0  0  0
 19 15  2  0  0  0  0
 20  2  2  0  0  0  0
 21 22  2  0  0  0  0
 21 26  1  0  0  0  0
 22 25  1  0  0  0  0
 23 28  1  6  0  0  0
 25 24  2  0  0  0  0
 25 23  1  0  0  0  0
 26 29  2  0  0  0  0
 27 21  1  0  0  0  0
 29 23  1  0  0  0  0
 29 11  1  0  0  0  0
 30 31  1  0  0  0  0
 31 32  1  0  0  0  0
M  END
>  <MODEL>
6

>  <REMARK>
 VINA RESULT:      -8.1      6.569      9.246
  Name = 
  3 active torsions:
  status: ('A' for Active; 'I' for Inactive)
    1  A    between atoms: O_1  and  C_10
    2  A    between atoms: C_10  and  C_24
    3  A    between atoms: N_16  and  C_32
                            x       y       z     vdW  Elec       q    Type
                         _______ _______ _______ _____ _____    ______ ____

>  <TORSDO>
F 3

$$$$
=
 OpenBabel10272413333D

 32 36  0  0  1  0  0  0  0  0999 V2000
  188.2320  177.7250  143.3810 C   0  0  0  0  0  3  0  0  0  0  0  0
  191.1310  177.1350  139.5020 C   0  0  0  0  0  0  0  0  0  0  0  0
  187.1640  178.4780  136.0960 C   0  0  0  0  0  3  0  0  0  0  0  0
  188.0290  177.9420  135.1440 C   0  0  0  0  0  3  0  0  0  0  0  0
  190.7980  177.5880  142.2630 C   0  0  0  0  0  0  0  0  0  0  0  0
  189.8160  177.2960  140.0260 C   0  0  0  0  0  0  0  0  0  0  0  0
  188.3840  177.5340  142.0080 C   0  0  0  0  0  3  0  0  0  0  0  0
  187.4270  178.2910  137.4530 C   0  0  0  0  0  3  0  0  0  0  0  0
  188.7450  177.4540  139.2930 N   0  0  0  0  0  0  0  0  0  0  0  0
  188.5540  177.5760  137.8790 C   0  0  0  0  0  0  0  0  0  0  0  0
  190.5230  176.1910  137.3070 N   0  0  0  0  0  0  0  0  0  0  0  0
  191.7310  177.9140  144.4470 F   0  0  0  0  0  0  0  0  0  0  0  0
  190.6410  177.7860  143.6450 C   0  0  0  0  0  0  0  0  0  0  0  0
  189.6630  177.4540  141.4270 C   0  0  0  0  0  0  0  0  0  0  0  0
  192.0730  177.5460  141.7070 C   0  0  0  0  0  3  0  0  0  0  0  0
  189.3550  177.8560  144.2010 C   0  0  0  0  0  0  0  0  0  0  0  0
  189.1420  177.2090  135.5560 C   0  0  0  0  0  3  0  0  0  0  0  0
  189.4090  177.0060  136.9220 C   0  0  0  0  0  0  0  0  0  0  0  0
  192.2320  177.3080  140.3460 C   0  0  0  0  0  3  0  0  0  0  0  0
  191.4430  176.6590  138.2960 C   0  0  0  0  0  3  0  0  0  0  0  0
  190.2620  172.8290  135.5680 C   0  0  0  0  0  0  0  0  0  0  0  0
  191.4280  172.6840  134.9410 C   0  0  0  0  0  3  0  0  0  0  0  0
  192.3170  174.8150  136.0860 C   0  0  2  0  0  3  0  0  0  0  0  0
  193.5110  173.6390  134.3770 O   0  0  0  0  0  0  0  0  0  0  0  0
  192.4670  173.7130  135.0740 C   0  0  0  0  0  0  0  0  0  0  0  0
  189.9700  174.0460  136.3450 C   0  0  0  0  0  3  0  0  0  0  0  0
  189.3080  171.8770  135.4340 F   0  0  0  0  0  0  0  0  0  0  0  0
  193.1220  174.5350  137.1760 F   0  0  0  0  0  0  0  0  0  0  0  0
  190.8840  175.0120  136.5500 C   0  0  0  0  0  0  0  0  0  0  0  0
  189.1710  178.0320  145.6690 C   0  0  0  0  0  2  0  0  0  0  0  0
  189.3350  176.8080  146.3150 O   0  0  0  0  0  0  0  0  0  0  0  0
  188.5700  176.9180  147.4760 C   0  0  0  0  0  1  0  0  0  0  0  0
  1 16  1  0  0  0  0
  2  6  1  0  0  0  0
  2 19  1  0  0  0  0
  3  8  1  0  0  0  0
  4 17  1  0  0  0  0
  4  3  2  0  0  0  0
  5 13  1  0  0  0  0
  6 14  1  0  0  0  0
  7  1  2  0  0  0  0
  8 10  2  0  0  0  0
  9  6  2  0  0  0  0
 10  9  1  0  0  0  0
 11 20  1  0  0  0  0
 13 16  2  0  0  0  0
 13 12  1  0  0  0  0
 14  7  1  0  0  0  0
 14  5  2  0  0  0  0
 15  5  1  0  0  0  0
 16 30  1  0  0  0  0
 17 18  2  0  0  0  0
 18 11  1  0  0  0  0
 18 10  1  0  0  0  0
 19 15  2  0  0  0  0
 20  2  2  0  0  0  0
 21 26  1  0  0  0  0
 22 25  1  0  0  0  0
 22 21  2  0  0  0  0
 23 29  1  0  0  0  0
 23 28  1  1  0  0  0
 24 25  2  0  0  0  0
 25 23  1  0  0  0  0
 26 29  2  0  0  0  0
 27 21  1  0  0  0  0
 29 11  1  0  0  0  0
 30 31  1  0  0  0  0
 31 32  1  0  0  0  0
M  END
>  <MODEL>
7

>  <REMARK>
 VINA RESULT:      -7.7      1.568      2.031
  Name = 
  3 active torsions:
  status: ('A' for Active; 'I' for Inactive)
    1  A    between atoms: O_1  and  C_10
    2  A    between atoms: C_10  and  C_24
    3  A    between atoms: N_16  and  C_32
                            x       y       z     vdW  Elec       q    Type
                         _______ _______ _______ _____ _____    ______ ____

>  <TORSDO>
F 3

$$$$
=
 OpenBabel10272413333D

 32 36  0  0  1  0  0  0  0  0999 V2000
  190.0760  174.5340  136.7290 C   0  0  0  0  0  3  0  0  0  0  0  0
  188.0320  178.0500  139.4220 C   0  0  0  0  0  0  0  0  0  0  0  0
  192.0480  177.8850  143.0260 C   0  0  0  0  0  3  0  0  0  0  0  0
  191.1600  178.6300  143.7990 C   0  0  0  0  0  3  0  0  0  0  0  0
  188.3230  176.7070  136.9620 C   0  0  0  0  0  0  0  0  0  0  0  0
  189.0010  177.0110  139.3080 C   0  0  0  0  0  0  0  0  0  0  0  0
  189.9650  175.2110  137.9430 C   0  0  0  0  0  3  0  0  0  0  0  0
  191.6030  177.2770  141.8520 C   0  0  0  0  0  3  0  0  0  0  0  0
  189.9190  176.7590  140.2040 N   0  0  0  0  0  0  0  0  0  0  0  0
  190.2730  177.4060  141.4310 C   0  0  0  0  0  0  0  0  0  0  0  0
  187.9780  178.2140  141.8820 N   0  0  0  0  0  0  0  0  0  0  0  0
  187.7090  176.4170  134.6640 F   0  0  0  0  0  0  0  0  0  0  0  0
  188.4420  176.0250  135.7400 C   0  0  0  0  0  0  0  0  0  0  0  0
  189.0860  176.3000  138.0840 C   0  0  0  0  0  0  0  0  0  0  0  0
  187.4710  177.8030  137.0690 C   0  0  0  0  0  3  0  0  0  0  0  0
  189.3210  174.9390  135.6260 C   0  0  0  0  0  0  0  0  0  0  0  0
  189.8280  178.7470  143.4010 C   0  0  0  0  0  3  0  0  0  0  0  0
  189.3670  178.1270  142.2250 C   0  0  0  0  0  0  0  0  0  0  0  0
  187.3200  178.4520  138.2890 C   0  0  0  0  0  3  0  0  0  0  0  0
  187.5900  178.5900  140.5590 C   0  0  0  0  0  3  0  0  0  0  0  0
  186.2390  177.5540  145.1890 C   0  0  0  0  0  0  0  0  0  0  0  0
  185.0500  178.1390  145.0650 C   0  0  0  0  0  3  0  0  0  0  0  0
  185.5420  178.6330  142.5840 C   0  0  2  0  0  3  0  0  0  0  0  0
  183.6180  179.4660  143.7380 O   0  0  0  0  0  0  0  0  0  0  0  0
  184.6840  178.8010  143.8070 C   0  0  0  0  0  0  0  0  0  0  0  0
  187.2280  177.6170  144.0990 C   0  0  0  0  0  3  0  0  0  0  0  0
  186.5700  176.9500  146.3560 F   0  0  0  0  0  0  0  0  0  0  0  0
  184.9360  177.7260  141.7330 F   0  0  0  0  0  0  0  0  0  0  0  0
  186.9530  178.1670  142.9020 C   0  0  0  0  0  0  0  0  0  0  0  0
  189.4340  174.1840  134.3460 C   0  0  0  0  0  2  0  0  0  0  0  0
  189.2270  172.8260  134.5800 O   0  0  0  0  0  0  0  0  0  0  0  0
  187.8660  172.6320  134.3460 C   0  0  0  0  0  1  0  0  0  0  0  0
  1  7  1  0  0  0  0
  2 20  2  0  0  0  0
  3  4  1  0  0  0  0
  5 15  1  0  0  0  0
  5 14  1  0  0  0  0
  6  2  1  0  0  0  0
  6  9  2  0  0  0  0
  7 14  2  0  0  0  0
  8  3  2  0  0  0  0
  9 10  1  0  0  0  0
 10  8  1  0  0  0  0
 10 18  2  0  0  0  0
 11 18  1  0  0  0  0
 11 29  1  0  0  0  0
 12 13  1  0  0  0  0
 13  5  2  0  0  0  0
 14  6  1  0  0  0  0
 15 19  2  0  0  0  0
 16 13  1  0  0  0  0
 16  1  2  0  0  0  0
 17  4  2  0  0  0  0
 18 17  1  0  0  0  0
 19  2  1  0  0  0  0
 20 11  1  0  0  0  0
 21 27  1  0  0  0  0
 22 21  2  0  0  0  0
 23 28  1  6  0  0  0
 23 29  1  0  0  0  0
 23 25  1  0  0  0  0
 24 25  2  0  0  0  0
 25 22  1  0  0  0  0
 26 21  1  0  0  0  0
 29 26  2  0  0  0  0
 30 31  1  0  0  0  0
 30 16  1  0  0  0  0
 32 31  1  0  0  0  0
M  END
>  <MODEL>
8

>  <REMARK>
 VINA RESULT:      -7.5      2.952      8.903
  Name = 
  3 active torsions:
  status: ('A' for Active; 'I' for Inactive)
    1  A    between atoms: O_1  and  C_10
    2  A    between atoms: C_10  and  C_24
    3  A    between atoms: N_16  and  C_32
                            x       y       z     vdW  Elec       q    Type
                         _______ _______ _______ _____ _____    ______ ____

>  <TORSDO>
F 3

$$$$
=
 OpenBabel10272413333D

 32 36  0  0  1  0  0  0  0  0999 V2000
  187.8450  177.2530  145.5250 C   0  0  0  0  0  3  0  0  0  0  0  0
  189.2870  177.8870  140.9080 C   0  0  0  0  0  0  0  0  0  0  0  0
  184.3740  179.5420  139.4020 C   0  0  0  0  0  3  0  0  0  0  0  0
  184.8820  179.3360  138.1210 C   0  0  0  0  0  3  0  0  0  0  0  0
  189.8890  177.6540  143.6510 C   0  0  0  0  0  0  0  0  0  0  0  0
  188.2200  177.7800  141.8470 C   0  0  0  0  0  0  0  0  0  0  0  0
  187.5320  177.4000  144.1740 C   0  0  0  0  0  3  0  0  0  0  0  0
  185.0830  179.0780  140.5110 C   0  0  0  0  0  3  0  0  0  0  0  0
  186.9620  177.9860  141.5580 N   0  0  0  0  0  0  0  0  0  0  0  0
  186.3040  178.4090  140.3590 C   0  0  0  0  0  0  0  0  0  0  0  0
  188.0010  177.4130  138.8580 N   0  0  0  0  0  0  0  0  0  0  0  0
  191.4930  177.5660  145.4290 F   0  0  0  0  0  0  0  0  0  0  0  0
  190.2010  177.5090  145.0130 C   0  0  0  0  0  0  0  0  0  0  0  0
  188.5430  177.5940  143.2150 C   0  0  0  0  0  0  0  0  0  0  0  0
  190.9040  177.8770  142.7240 C   0  0  0  0  0  3  0  0  0  0  0  0
  189.1750  177.3120  145.9480 C   0  0  0  0  0  0  0  0  0  0  0  0
  186.0870  178.6520  137.9570 C   0  0  0  0  0  3  0  0  0  0  0  0
  186.8020  178.1690  139.0680 C   0  0  0  0  0  0  0  0  0  0  0  0
  190.6030  177.9770  141.3710 C   0  0  0  0  0  3  0  0  0  0  0  0
  189.1870  177.7370  139.5860 C   0  0  0  0  0  3  0  0  0  0  0  0
  187.3280  174.4610  136.5720 C   0  0  0  0  0  0  0  0  0  0  0  0
  188.1420  174.6470  135.5340 C   0  0  0  0  0  3  0  0  0  0  0  0
  189.2430  176.6370  136.7470 C   0  0  2  0  0  3  0  0  0  0  0  0
  189.7240  176.0440  134.4790 O   0  0  0  0  0  0  0  0  0  0  0  0
  189.0550  175.7970  135.5150 C   0  0  0  0  0  0  0  0  0  0  0  0
  187.2810  175.4320  137.6780 C   0  0  0  0  0  3  0  0  0  0  0  0
  186.4840  173.4010  136.5780 F   0  0  0  0  0  0  0  0  0  0  0  0
  190.4440  176.2950  137.3430 F   0  0  0  0  0  0  0  0  0  0  0  0
  188.1150  176.4860  137.7530 C   0  0  0  0  0  0  0  0  0  0  0  0
  189.4910  177.1240  147.3930 C   0  0  0  0  0  2  0  0  0  0  0  0
  188.3200  176.8520  148.1000 O   0  0  0  0  0  0  0  0  0  0  0  0
  188.1540  177.9500  148.9420 C   0  0  0  0  0  1  0  0  0  0  0  0
  1 16  1  0  0  0  0
  2 19  1  0  0  0  0
  2  6  1  0  0  0  0
  3  8  1  0  0  0  0
  4  3  2  0  0  0  0
  5 13  1  0  0  0  0
  6 14  1  0  0  0  0
  7  1  2  0  0  0  0
  9  6  2  0  0  0  0
 10  8  2  0  0  0  0
 10  9  1  0  0  0  0
 11 18  1  0  0  0  0
 11 20  1  0  0  0  0
 13 12  1  0  0  0  0
 13 16  2  0  0  0  0
 14  5  2  0  0  0  0
 14  7  1  0  0  0  0
 15  5  1  0  0  0  0
 16 30  1  0  0  0  0
 17  4  1  0  0  0  0
 17 18  2  0  0  0  0
 18 10  1  0  0  0  0
 19 15  2  0  0  0  0
 20  2  2  0  0  0  0
 21 27  1  0  0  0  0
 21 26  1  0  0  0  0
 22 21  2  0  0  0  0
 23 28  1  1  0  0  0
 23 29  1  0  0  0  0
 24 25  2  0  0  0  0
 25 22  1  0  0  0  0
 25 23  1  0  0  0  0
 26 29  2  0  0  0  0
 29 11  1  0  0  0  0
 30 31  1  0  0  0  0
 31 32  1  0  0  0  0
M  END
>  <MODEL>
9

>  <REMARK>
 VINA RESULT:      -7.4      2.440      3.091
  Name = 
  3 active torsions:
  status: ('A' for Active; 'I' for Inactive)
    1  A    between atoms: O_1  and  C_10
    2  A    between atoms: C_10  and  C_24
    3  A    between atoms: N_16  and  C_32
                            x       y       z     vdW  Elec       q    Type
                         _______ _______ _______ _____ _____    ______ ____

>  <TORSDO>
F 3

$$$$
