=
 OpenBabel10272400423D

 25 28  0  0  1  0  0  0  0  0999 V2000
  184.2270  178.3850  142.9060 C   0  0  0  0  0  0  0  0  0  0  0  0
  185.3110  178.2080  143.7630 C   0  0  0  0  0  0  0  0  0  0  0  0
  182.8600  179.1740  144.7190 C   0  0  0  0  0  3  0  0  0  0  0  0
  184.0620  178.0590  141.4660 C   0  0  1  0  0  3  0  0  0  0  0  0
  188.7910  177.0520  143.6260 N   0  0  0  0  0  2  0  0  0  0  0  0
  183.0970  179.2140  139.0440 N   0  0  0  0  0  0  0  0  0  0  0  0
  183.9240  179.0200  145.5630 N   0  0  0  0  0  0  0  0  0  0  0  0
  182.6460  178.5320  141.2710 C   0  0  2  0  0  3  0  0  0  0  0  0
  182.1950  178.8840  139.9250 C   0  0  0  0  0  3  0  0  0  0  0  0
  186.2140  178.3860  146.0030 C   0  0  0  0  0  0  0  0  0  0  0  0
  186.0980  178.7260  147.4490 C   0  0  0  0  0  1  0  0  0  0  0  0
  190.0020  176.7920  144.3510 C   0  0  0  0  0  0  0  0  0  0  0  0
  186.5020  177.7280  143.3200 N   0  0  0  0  0  0  0  0  0  0  0  0
  184.5020  179.2920  139.3730 C   0  0  0  0  0  3  0  0  0  0  0  0
  183.0210  178.8320  143.3790 C   0  0  0  0  0  0  0  0  0  0  0  0
  182.0590  178.9620  142.3460 N   0  0  0  0  0  2  0  0  0  0  0  0
  187.4270  177.8920  145.5170 C   0  0  0  0  0  3  0  0  0  0  0  0
  184.9750  178.8140  140.5370 C   0  0  0  0  0  3  0  0  0  0  0  0
  187.5610  177.5600  144.1590 C   0  0  0  0  0  0  0  0  0  0  0  0
  185.1340  178.5490  145.1250 C   0  0  0  0  0  0  0  0  0  0  0  0
  190.0570  176.9540  145.6000 O   0  0  0  0  0  0  0  0  0  0  0  0
  191.9710  177.3010  143.1560 F   0  0  0  0  0  0  0  0  0  0  0  0
  191.1940  176.2570  143.6220 C   0  0  0  0  0  0  0  0  0  0  0  0
  190.7700  175.4930  142.5520 F   0  0  0  0  0  0  0  0  0  0  0  0
  191.9570  175.4720  144.4680 F   0  0  0  0  0  0  0  0  0  0  0  0
  1 15  2  0  0  0  0
  1  2  1  0  0  0  0
  2 20  2  0  0  0  0
  3  7  2  0  0  0  0
  4 18  1  6  0  0  0
  4  1  1  0  0  0  0
  5 19  1  0  0  0  0
  5 12  1  0  0  0  0
  6 14  1  0  0  0  0
  6  9  2  0  0  0  0
  8  9  1  6  0  0  0
  8  4  1  0  0  0  0
  8 16  1  0  0  0  0
 10 11  1  0  0  0  0
 12 21  2  0  0  0  0
 13  2  1  0  0  0  0
 13 19  2  0  0  0  0
 14 18  2  0  0  0  0
 15  3  1  0  0  0  0
 16 15  1  0  0  0  0
 17 10  2  0  0  0  0
 19 17  1  0  0  0  0
 20  7  1  0  0  0  0
 20 10  1  0  0  0  0
 22 23  1  0  0  0  0
 23 12  1  0  0  0  0
 23 25  1  0  0  0  0
 24 23  1  0  0  0  0
M  END
>  <MODEL>
1

>  <REMARK>
 VINA RESULT:      -9.8      0.000      0.000
  Name = 
  1 active torsions:
  status: ('A' for Active; 'I' for Inactive)
    1  A    between atoms: C_7  and  C_15
                            x       y       z     vdW  Elec       q    Type
                         _______ _______ _______ _____ _____    ______ ____

>  <TORSDO>
F 1

$$$$
=
 OpenBabel10272400423D

 25 28  0  0  1  0  0  0  0  0999 V2000
  188.8820  177.5940  145.2260 C   0  0  0  0  0  0  0  0  0  0  0  0
  188.1660  177.7980  144.0490 C   0  0  0  0  0  0  0  0  0  0  0  0
  186.8640  177.6900  146.5290 C   0  0  0  0  0  3  0  0  0  0  0  0
  190.3440  177.4910  145.4710 C   0  0  1  0  0  3  0  0  0  0  0  0
  188.7890  178.1210  140.4470 N   0  0  0  0  0  2  0  0  0  0  0  0
  192.2370  175.8760  146.8630 N   0  0  0  0  0  0  0  0  0  0  0  0
  186.1520  177.8730  145.3770 N   0  0  0  0  0  0  0  0  0  0  0  0
  190.3270  177.2820  146.9610 C   0  0  2  0  0  3  0  0  0  0  0  0
  191.4740  176.6360  147.5990 C   0  0  0  0  0  3  0  0  0  0  0  0
  186.0200  178.1300  142.9770 C   0  0  0  0  0  0  0  0  0  0  0  0
  184.5380  178.2780  143.0110 C   0  0  0  0  0  1  0  0  0  0  0  0
  188.2290  178.3370  139.1440 C   0  0  0  0  0  0  0  0  0  0  0  0
  188.7820  177.8660  142.8400 N   0  0  0  0  0  0  0  0  0  0  0  0
  191.9500  175.6170  145.4710 C   0  0  0  0  0  3  0  0  0  0  0  0
  188.2490  177.5680  146.4410 C   0  0  0  0  0  0  0  0  0  0  0  0
  189.1510  177.3280  147.5080 N   0  0  0  0  0  2  0  0  0  0  0  0
  186.6820  178.1940  141.7490 C   0  0  0  0  0  3  0  0  0  0  0  0
  191.0180  176.3200  144.8060 C   0  0  0  0  0  3  0  0  0  0  0  0
  188.0790  178.0620  141.6910 C   0  0  0  0  0  0  0  0  0  0  0  0
  186.7610  177.9320  144.1500 C   0  0  0  0  0  0  0  0  0  0  0  0
  186.9970  178.5550  138.9970 O   0  0  0  0  0  0  0  0  0  0  0  0
  188.5970  177.6050  136.9320 F   0  0  0  0  0  0  0  0  0  0  0  0
  189.1320  178.3690  137.9530 C   0  0  0  0  0  0  0  0  0  0  0  0
  190.3680  177.8590  138.3020 F   0  0  0  0  0  0  0  0  0  0  0  0
  189.2870  179.6700  137.5060 F   0  0  0  0  0  0  0  0  0  0  0  0
  1  4  1  0  0  0  0
  1 15  1  0  0  0  0
  2 20  1  0  0  0  0
  2  1  2  0  0  0  0
  4 18  1  6  0  0  0
  4  8  1  0  0  0  0
  5 19  1  0  0  0  0
  6  9  2  0  0  0  0
  7  3  1  0  0  0  0
  8 16  1  0  0  0  0
  8  9  1  6  0  0  0
 10 11  1  0  0  0  0
 10 20  1  0  0  0  0
 12  5  1  0  0  0  0
 13  2  1  0  0  0  0
 14  6  1  0  0  0  0
 15  3  2  0  0  0  0
 15 16  1  0  0  0  0
 17 10  2  0  0  0  0
 18 14  2  0  0  0  0
 19 17  1  0  0  0  0
 19 13  2  0  0  0  0
 20  7  2  0  0  0  0
 21 12  2  0  0  0  0
 22 23  1  0  0  0  0
 23 24  1  0  0  0  0
 23 12  1  0  0  0  0
 25 23  1  0  0  0  0
M  END
>  <MODEL>
2

>  <REMARK>
 VINA RESULT:      -9.8      3.488      6.793
  Name = 
  1 active torsions:
  status: ('A' for Active; 'I' for Inactive)
    1  A    between atoms: C_7  and  C_15
                            x       y       z     vdW  Elec       q    Type
                         _______ _______ _______ _____ _____    ______ ____

>  <TORSDO>
F 1

$$$$
=
 OpenBabel10272400423D

 25 28  0  0  1  0  0  0  0  0999 V2000
  188.3100  177.6340  144.8490 C   0  0  0  0  0  0  0  0  0  0  0  0
  187.0610  177.9800  144.3380 C   0  0  0  0  0  0  0  0  0  0  0  0
  187.4690  177.7170  147.0990 C   0  0  0  0  0  3  0  0  0  0  0  0
  189.6170  177.4350  144.1710 C   0  0  1  0  0  3  0  0  0  0  0  0
  185.4680  178.5950  141.0900 N   0  0  0  0  0  2  0  0  0  0  0  0
  191.8030  175.6050  144.0950 N   0  0  0  0  0  0  0  0  0  0  0  0
  186.2360  178.0390  146.6060 N   0  0  0  0  0  0  0  0  0  0  0  0
  190.4620  177.0930  145.3680 C   0  0  2  0  0  3  0  0  0  0  0  0
  191.6970  176.3340  145.1710 C   0  0  0  0  0  3  0  0  0  0  0  0
  184.7400  178.5180  144.7690 C   0  0  0  0  0  0  0  0  0  0  0  0
  183.5840  178.7380  145.6840 C   0  0  0  0  0  1  0  0  0  0  0  0
  184.2710  178.9550  140.3860 C   0  0  0  0  0  0  0  0  0  0  0  0
  186.8490  178.1260  143.0040 N   0  0  0  0  0  0  0  0  0  0  0  0
  190.7270  175.4880  143.1370 C   0  0  0  0  0  3  0  0  0  0  0  0
  188.5160  177.5310  146.1990 C   0  0  0  0  0  0  0  0  0  0  0  0
  189.8460  177.1500  146.5090 N   0  0  0  0  0  2  0  0  0  0  0  0
  184.5520  178.6590  143.3920 C   0  0  0  0  0  3  0  0  0  0  0  0
  189.6540  176.2950  143.1880 C   0  0  0  0  0  3  0  0  0  0  0  0
  185.6260  178.4600  142.5090 C   0  0  0  0  0  0  0  0  0  0  0  0
  186.0060  178.1770  145.2610 C   0  0  0  0  0  0  0  0  0  0  0  0
  183.2160  179.2500  141.0110 O   0  0  0  0  0  0  0  0  0  0  0  0
  185.5600  178.7450  138.4220 F   0  0  0  0  0  0  0  0  0  0  0  0
  184.2960  179.0480  138.8940 C   0  0  0  0  0  0  0  0  0  0  0  0
  183.9640  180.3340  138.5110 F   0  0  0  0  0  0  0  0  0  0  0  0
  183.3870  178.1610  138.3450 F   0  0  0  0  0  0  0  0  0  0  0  0
  1 15  1  0  0  0  0
  2  1  2  0  0  0  0
  2 20  1  0  0  0  0
  4 18  1  6  0  0  0
  4  1  1  0  0  0  0
  4  8  1  0  0  0  0
  5 19  1  0  0  0  0
  6  9  2  0  0  0  0
  7  3  1  0  0  0  0
  8  9  1  6  0  0  0
  8 16  1  0  0  0  0
 10 20  1  0  0  0  0
 10 11  1  0  0  0  0
 12 21  2  0  0  0  0
 12  5  1  0  0  0  0
 13  2  1  0  0  0  0
 14 18  2  0  0  0  0
 14  6  1  0  0  0  0
 15 16  1  0  0  0  0
 15  3  2  0  0  0  0
 17 10  2  0  0  0  0
 19 13  2  0  0  0  0
 19 17  1  0  0  0  0
 20  7  2  0  0  0  0
 22 23  1  0  0  0  0
 23 12  1  0  0  0  0
 24 23  1  0  0  0  0
 25 23  1  0  0  0  0
M  END
>  <MODEL>
3

>  <REMARK>
 VINA RESULT:      -9.2      3.728      6.843
  Name = 
  1 active torsions:
  status: ('A' for Active; 'I' for Inactive)
    1  A    between atoms: C_7  and  C_15
                            x       y       z     vdW  Elec       q    Type
                         _______ _______ _______ _____ _____    ______ ____

>  <TORSDO>
F 1

$$$$
=
 OpenBabel10272400423D

 25 28  0  0  1  0  0  0  0  0999 V2000
  189.5890  177.2960  139.9640 C   0  0  0  0  0  0  0  0  0  0  0  0
  188.7950  177.6070  141.0660 C   0  0  0  0  0  0  0  0  0  0  0  0
  187.9070  178.1220  138.4580 C   0  0  0  0  0  3  0  0  0  0  0  0
  190.9030  176.6080  139.8740 C   0  0  1  0  0  3  0  0  0  0  0  0
  188.9180  177.3670  144.7260 N   0  0  0  0  0  2  0  0  0  0  0  0
  193.4470  176.8740  138.6150 N   0  0  0  0  0  0  0  0  0  0  0  0
  187.1300  178.4460  139.5340 N   0  0  0  0  0  0  0  0  0  0  0  0
  191.0960  176.6480  138.3820 C   0  0  2  0  0  3  0  0  0  0  0  0
  192.4510  176.5460  137.8400 C   0  0  0  0  0  3  0  0  0  0  0  0
  186.7250  178.5320  141.9150 C   0  0  0  0  0  0  0  0  0  0  0  0
  185.3880  179.1650  141.7290 C   0  0  0  0  0  1  0  0  0  0  0  0
  188.2430  177.6000  145.9700 C   0  0  0  0  0  0  0  0  0  0  0  0
  189.2030  177.3510  142.3370 N   0  0  0  0  0  0  0  0  0  0  0  0
  193.2460  177.3800  139.9540 C   0  0  0  0  0  3  0  0  0  0  0  0
  189.1440  177.5240  138.6890 C   0  0  0  0  0  0  0  0  0  0  0  0
  190.1070  177.1590  137.7150 N   0  0  0  0  0  2  0  0  0  0  0  0
  187.1730  178.2590  143.2100 C   0  0  0  0  0  3  0  0  0  0  0  0
  192.0420  177.3260  140.5480 C   0  0  0  0  0  3  0  0  0  0  0  0
  188.4270  177.6590  143.4110 C   0  0  0  0  0  0  0  0  0  0  0  0
  187.5360  178.2050  140.8210 C   0  0  0  0  0  0  0  0  0  0  0  0
  187.0700  178.0610  145.9940 O   0  0  0  0  0  0  0  0  0  0  0  0
  189.2680  178.3650  147.9520 F   0  0  0  0  0  0  0  0  0  0  0  0
  188.9160  177.2250  147.2520 C   0  0  0  0  0  0  0  0  0  0  0  0
  190.0540  176.4930  146.9740 F   0  0  0  0  0  0  0  0  0  0  0  0
  188.0640  176.4640  148.0330 F   0  0  0  0  0  0  0  0  0  0  0  0
  1  2  1  0  0  0  0
  2 13  1  0  0  0  0
  3 15  1  0  0  0  0
  3  7  2  0  0  0  0
  4  1  1  0  0  0  0
  4 18  1  1  0  0  0
  5 12  1  0  0  0  0
  6 14  1  0  0  0  0
  7 20  1  0  0  0  0
  8  9  1  1  0  0  0
  8  4  1  0  0  0  0
  9  6  2  0  0  0  0
 10 17  2  0  0  0  0
 11 10  1  0  0  0  0
 12 21  2  0  0  0  0
 12 23  1  0  0  0  0
 13 19  2  0  0  0  0
 14 18  2  0  0  0  0
 15  1  2  0  0  0  0
 16  8  1  0  0  0  0
 16 15  1  0  0  0  0
 17 19  1  0  0  0  0
 19  5  1  0  0  0  0
 20  2  2  0  0  0  0
 20 10  1  0  0  0  0
 23 22  1  0  0  0  0
 23 25  1  0  0  0  0
 24 23  1  0  0  0  0
M  END
>  <MODEL>
4

>  <REMARK>
 VINA RESULT:      -9.2      3.869      6.405
  Name = 
  1 active torsions:
  status: ('A' for Active; 'I' for Inactive)
    1  A    between atoms: C_7  and  C_15
                            x       y       z     vdW  Elec       q    Type
                         _______ _______ _______ _____ _____    ______ ____

>  <TORSDO>
F 1

$$$$
=
 OpenBabel10272400423D

 25 28  0  0  1  0  0  0  0  0999 V2000
  190.0220  177.6110  143.4020 C   0  0  0  0  0  0  0  0  0  0  0  0
  188.9240  177.6870  144.2570 C   0  0  0  0  0  0  0  0  0  0  0  0
  191.4570  176.9730  145.2220 C   0  0  0  0  0  3  0  0  0  0  0  0
  190.1560  177.9410  141.9600 C   0  0  1  0  0  3  0  0  0  0  0  0
  185.3480  178.4950  144.1100 N   0  0  0  0  0  2  0  0  0  0  0  0
  191.2320  176.8680  139.5470 N   0  0  0  0  0  0  0  0  0  0  0  0
  190.3820  177.0270  146.0640 N   0  0  0  0  0  0  0  0  0  0  0  0
  191.6120  177.6080  141.7700 C   0  0  2  0  0  3  0  0  0  0  0  0
  192.0970  177.2920  140.4270 C   0  0  0  0  0  3  0  0  0  0  0  0
  188.0400  177.4380  146.4980 C   0  0  0  0  0  0  0  0  0  0  0  0
  188.1880  177.1210  147.9470 C   0  0  0  0  0  1  0  0  0  0  0  0
  184.1160  178.6400  144.8320 C   0  0  0  0  0  0  0  0  0  0  0  0
  187.6920  178.0450  143.8100 N   0  0  0  0  0  0  0  0  0  0  0  0
  189.8410  176.6550  139.8760 C   0  0  0  0  0  3  0  0  0  0  0  0
  191.2650  177.2880  143.8790 C   0  0  0  0  0  0  0  0  0  0  0  0
  192.2360  177.2450  142.8480 N   0  0  0  0  0  2  0  0  0  0  0  0
  186.7850  177.8070  146.0070 C   0  0  0  0  0  3  0  0  0  0  0  0
  189.3220  177.0940  141.0360 C   0  0  0  0  0  3  0  0  0  0  0  0
  186.6220  178.1140  144.6470 C   0  0  0  0  0  0  0  0  0  0  0  0
  189.1320  177.3750  145.6220 C   0  0  0  0  0  0  0  0  0  0  0  0
  184.0760  178.4830  146.0820 O   0  0  0  0  0  0  0  0  0  0  0  0
  182.7880  180.4290  144.0590 F   0  0  0  0  0  0  0  0  0  0  0  0
  182.8790  179.0500  144.0990 C   0  0  0  0  0  0  0  0  0  0  0  0
  181.7720  178.5400  144.7500 F   0  0  0  0  0  0  0  0  0  0  0  0
  182.9090  178.5650  142.8030 F   0  0  0  0  0  0  0  0  0  0  0  0
  1 15  2  0  0  0  0
  1  2  1  0  0  0  0
  2 20  2  0  0  0  0
  3  7  2  0  0  0  0
  4 18  1  6  0  0  0
  4  1  1  0  0  0  0
  5 19  1  0  0  0  0
  5 12  1  0  0  0  0
  6 14  1  0  0  0  0
  6  9  2  0  0  0  0
  8  9  1  6  0  0  0
  8  4  1  0  0  0  0
  8 16  1  0  0  0  0
 10 11  1  0  0  0  0
 12 21  2  0  0  0  0
 13  2  1  0  0  0  0
 13 19  2  0  0  0  0
 14 18  2  0  0  0  0
 15  3  1  0  0  0  0
 16 15  1  0  0  0  0
 17 10  2  0  0  0  0
 19 17  1  0  0  0  0
 20  7  1  0  0  0  0
 20 10  1  0  0  0  0
 22 23  1  0  0  0  0
 23 24  1  0  0  0  0
 23 12  1  0  0  0  0
 25 23  1  0  0  0  0
M  END
>  <MODEL>
5

>  <REMARK>
 VINA RESULT:      -9.1      4.178      6.885
  Name = 
  1 active torsions:
  status: ('A' for Active; 'I' for Inactive)
    1  A    between atoms: C_7  and  C_15
                            x       y       z     vdW  Elec       q    Type
                         _______ _______ _______ _____ _____    ______ ____

>  <TORSDO>
F 1

$$$$
=
 OpenBabel10272400423D

 25 28  0  0  1  0  0  0  0  0999 V2000
  187.5620  177.6640  144.2310 C   0  0  0  0  0  0  0  0  0  0  0  0
  188.3320  177.6620  143.0700 C   0  0  0  0  0  0  0  0  0  0  0  0
  189.5240  177.3790  145.5900 C   0  0  0  0  0  3  0  0  0  0  0  0
  186.0900  177.7080  144.4220 C   0  0  1  0  0  3  0  0  0  0  0  0
  187.8710  177.9230  139.4390 N   0  0  0  0  0  2  0  0  0  0  0  0
  184.1090  179.0520  145.9710 N   0  0  0  0  0  0  0  0  0  0  0  0
  190.2880  177.3950  144.4580 N   0  0  0  0  0  0  0  0  0  0  0  0
  186.0380  177.6720  145.9260 C   0  0  2  0  0  3  0  0  0  0  0  0
  184.8530  178.1910  146.6070 C   0  0  0  0  0  3  0  0  0  0  0  0
  190.5280  177.5340  142.0570 C   0  0  0  0  0  0  0  0  0  0  0  0
  192.0100  177.4000  142.1340 C   0  0  0  0  0  1  0  0  0  0  0  0
  188.4900  177.9300  138.1440 C   0  0  0  0  0  0  0  0  0  0  0  0
  187.7700  177.7850  141.8390 N   0  0  0  0  0  0  0  0  0  0  0  0
  184.4500  179.5380  144.6530 C   0  0  0  0  0  3  0  0  0  0  0  0
  188.1430  177.4990  145.4610 C   0  0  0  0  0  0  0  0  0  0  0  0
  187.1910  177.5500  146.5100 N   0  0  0  0  0  2  0  0  0  0  0  0
  189.9210  177.6630  140.8050 C   0  0  0  0  0  3  0  0  0  0  0  0
  185.4240  178.9640  143.9260 C   0  0  0  0  0  3  0  0  0  0  0  0
  188.5260  177.7870  140.7070 C   0  0  0  0  0  0  0  0  0  0  0  0
  189.7340  177.5300  143.2110 C   0  0  0  0  0  0  0  0  0  0  0  0
  189.7320  177.7520  138.0200 O   0  0  0  0  0  0  0  0  0  0  0  0
  186.3830  177.5520  137.1540 F   0  0  0  0  0  0  0  0  0  0  0  0
  187.6400  178.0810  136.9240 C   0  0  0  0  0  0  0  0  0  0  0  0
  188.2300  177.4110  135.8700 F   0  0  0  0  0  0  0  0  0  0  0  0
  187.5090  179.4190  136.5960 F   0  0  0  0  0  0  0  0  0  0  0  0
  1  4  1  0  0  0  0
  1 15  1  0  0  0  0
  2 20  1  0  0  0  0
  2  1  2  0  0  0  0
  4 18  1  1  0  0  0
  4  8  1  0  0  0  0
  5 19  1  0  0  0  0
  6  9  2  0  0  0  0
  7  3  1  0  0  0  0
  8 16  1  0  0  0  0
  8  9  1  1  0  0  0
 10 11  1  0  0  0  0
 10 20  1  0  0  0  0
 12  5  1  0  0  0  0
 13  2  1  0  0  0  0
 14  6  1  0  0  0  0
 15  3  2  0  0  0  0
 15 16  1  0  0  0  0
 17 10  2  0  0  0  0
 18 14  2  0  0  0  0
 19 17  1  0  0  0  0
 19 13  2  0  0  0  0
 20  7  2  0  0  0  0
 21 12  2  0  0  0  0
 23 22  1  0  0  0  0
 23 12  1  0  0  0  0
 24 23  1  0  0  0  0
 25 23  1  0  0  0  0
M  END
>  <MODEL>
6

>  <REMARK>
 VINA RESULT:      -9.1      4.082      6.172
  Name = 
  1 active torsions:
  status: ('A' for Active; 'I' for Inactive)
    1  A    between atoms: C_7  and  C_15
                            x       y       z     vdW  Elec       q    Type
                         _______ _______ _______ _____ _____    ______ ____

>  <TORSDO>
F 1

$$$$
=
 OpenBabel10272400423D

 25 28  0  0  1  0  0  0  0  0999 V2000
  185.2920  178.7630  144.1770 C   0  0  0  0  0  0  0  0  0  0  0  0
  185.2180  178.7040  142.7880 C   0  0  0  0  0  0  0  0  0  0  0  0
  182.8950  178.8440  144.3500 C   0  0  0  0  0  3  0  0  0  0  0  0
  186.4630  178.8560  145.0870 C   0  0  1  0  0  3  0  0  0  0  0  0
  187.4730  178.5310  139.8980 N   0  0  0  0  0  2  0  0  0  0  0  0
  187.4970  177.6880  147.4730 N   0  0  0  0  0  0  0  0  0  0  0  0
  182.8140  178.7690  142.9880 N   0  0  0  0  0  0  0  0  0  0  0  0
  185.7430  178.8790  146.4080 C   0  0  2  0  0  3  0  0  0  0  0  0
  186.4610  178.4670  147.6140 C   0  0  0  0  0  3  0  0  0  0  0  0
  183.8340  178.6360  140.8010 C   0  0  0  0  0  0  0  0  0  0  0  0
  182.5110  178.6280  140.1150 C   0  0  0  0  0  1  0  0  0  0  0  0
  187.5970  178.4800  138.4690 C   0  0  0  0  0  0  0  0  0  0  0  0
  186.3330  178.6500  142.0140 N   0  0  0  0  0  0  0  0  0  0  0  0
  187.9130  177.1870  146.1830 C   0  0  0  0  0  3  0  0  0  0  0  0
  184.1570  178.8580  144.9390 C   0  0  0  0  0  0  0  0  0  0  0  0
  184.4480  178.8840  146.3270 N   0  0  0  0  0  2  0  0  0  0  0  0
  185.0000  178.5790  140.0330 C   0  0  0  0  0  3  0  0  0  0  0  0
  187.3950  177.6750  145.0430 C   0  0  0  0  0  3  0  0  0  0  0  0
  186.2570  178.5890  140.6560 C   0  0  0  0  0  0  0  0  0  0  0  0
  183.9320  178.7010  142.1980 C   0  0  0  0  0  0  0  0  0  0  0  0
  186.5780  178.5410  137.7290 O   0  0  0  0  0  0  0  0  0  0  0  0
  189.9140  178.2260  138.8300 F   0  0  0  0  0  0  0  0  0  0  0  0
  188.9570  178.4240  137.8510 C   0  0  0  0  0  0  0  0  0  0  0  0
  189.2120  179.6160  137.2000 F   0  0  0  0  0  0  0  0  0  0  0  0
  189.0250  177.3850  136.9400 F   0  0  0  0  0  0  0  0  0  0  0  0
  1 15  1  0  0  0  0
  1  4  1  0  0  0  0
  2  1  2  0  0  0  0
  3 15  2  0  0  0  0
  4 18  1  1  0  0  0
  4  8  1  0  0  0  0
  5 19  1  0  0  0  0
  6  9  2  0  0  0  0
  7  3  1  0  0  0  0
  8  9  1  1  0  0  0
 10 20  1  0  0  0  0
 11 10  1  0  0  0  0
 12  5  1  0  0  0  0
 13  2  1  0  0  0  0
 14  6  1  0  0  0  0
 15 16  1  0  0  0  0
 16  8  1  0  0  0  0
 17 19  1  0  0  0  0
 17 10  2  0  0  0  0
 18 14  2  0  0  0  0
 19 13  2  0  0  0  0
 20  2  1  0  0  0  0
 20  7  2  0  0  0  0
 21 12  2  0  0  0  0
 23 12  1  0  0  0  0
 23 22  1  0  0  0  0
 24 23  1  0  0  0  0
 25 23  1  0  0  0  0
M  END
>  <MODEL>
7

>  <REMARK>
 VINA RESULT:      -9.0      3.247      5.790
  Name = 
  1 active torsions:
  status: ('A' for Active; 'I' for Inactive)
    1  A    between atoms: C_7  and  C_15
                            x       y       z     vdW  Elec       q    Type
                         _______ _______ _______ _____ _____    ______ ____

>  <TORSDO>
F 1

$$$$
=
 OpenBabel10272400423D

 25 28  0  0  1  0  0  0  0  0999 V2000
  186.7110  178.4570  141.1310 C   0  0  0  0  0  0  0  0  0  0  0  0
  187.6660  178.0920  142.0760 C   0  0  0  0  0  0  0  0  0  0  0  0
  188.1920  177.8670  139.3320 C   0  0  0  0  0  3  0  0  0  0  0  0
  185.3700  179.0780  141.2910 C   0  0  1  0  0  3  0  0  0  0  0  0
  188.0590  177.9900  145.7230 N   0  0  0  0  0  2  0  0  0  0  0  0
  182.6850  178.7870  140.3770 N   0  0  0  0  0  0  0  0  0  0  0  0
  189.1280  177.4890  140.2530 N   0  0  0  0  0  0  0  0  0  0  0  0
  184.9670  179.1630  139.8440 C   0  0  2  0  0  3  0  0  0  0  0  0
  183.5460  179.2400  139.5080 C   0  0  0  0  0  3  0  0  0  0  0  0
  189.8740  177.2090  142.5350 C   0  0  0  0  0  0  0  0  0  0  0  0
  191.1950  176.6700  142.1040 C   0  0  0  0  0  1  0  0  0  0  0  0
  188.9140  177.6820  146.8330 C   0  0  0  0  0  0  0  0  0  0  0  0
  187.4340  178.2070  143.4100 N   0  0  0  0  0  0  0  0  0  0  0  0
  183.0970  178.1740  141.6190 C   0  0  0  0  0  3  0  0  0  0  0  0
  186.9780  178.3720  139.7900 C   0  0  0  0  0  0  0  0  0  0  0  0
  185.8700  178.7710  138.9990 N   0  0  0  0  0  2  0  0  0  0  0  0
  189.6050  177.3380  143.9000 C   0  0  0  0  0  3  0  0  0  0  0  0
  184.3700  178.2390  142.0430 C   0  0  0  0  0  3  0  0  0  0  0  0
  188.3690  177.8460  144.3300 C   0  0  0  0  0  0  0  0  0  0  0  0
  188.9010  177.5890  141.6010 C   0  0  0  0  0  0  0  0  0  0  0  0
  190.0970  177.2850  146.6490 O   0  0  0  0  0  0  0  0  0  0  0  0
  187.9640  176.7070  148.7590 F   0  0  0  0  0  0  0  0  0  0  0  0
  188.4170  177.9000  148.2260 C   0  0  0  0  0  0  0  0  0  0  0  0
  187.3790  178.8110  148.2040 F   0  0  0  0  0  0  0  0  0  0  0  0
  189.4350  178.3910  149.0250 F   0  0  0  0  0  0  0  0  0  0  0  0
  1  4  1  0  0  0  0
  1  2  1  0  0  0  0
  2 13  1  0  0  0  0
  3 15  1  0  0  0  0
  3  7  2  0  0  0  0
  4 18  1  1  0  0  0
  5 12  1  0  0  0  0
  6 14  1  0  0  0  0
  7 20  1  0  0  0  0
  8  9  1  1  0  0  0
  8  4  1  0  0  0  0
  9  6  2  0  0  0  0
 10 17  2  0  0  0  0
 11 10  1  0  0  0  0
 12 23  1  0  0  0  0
 13 19  2  0  0  0  0
 14 18  2  0  0  0  0
 15  1  2  0  0  0  0
 16 15  1  0  0  0  0
 16  8  1  0  0  0  0
 17 19  1  0  0  0  0
 19  5  1  0  0  0  0
 20  2  2  0  0  0  0
 20 10  1  0  0  0  0
 21 12  2  0  0  0  0
 23 22  1  0  0  0  0
 23 25  1  0  0  0  0
 24 23  1  0  0  0  0
M  END
>  <MODEL>
8

>  <REMARK>
 VINA RESULT:      -8.8      2.888      4.571
  Name = 
  1 active torsions:
  status: ('A' for Active; 'I' for Inactive)
    1  A    between atoms: C_7  and  C_15
                            x       y       z     vdW  Elec       q    Type
                         _______ _______ _______ _____ _____    ______ ____

>  <TORSDO>
F 1

$$$$
=
 OpenBabel10272400423D

 25 28  0  0  1  0  0  0  0  0999 V2000
  186.7620  178.1260  141.7540 C   0  0  0  0  0  0  0  0  0  0  0  0
  186.9880  178.0380  143.1260 C   0  0  0  0  0  0  0  0  0  0  0  0
  184.5550  179.0040  142.1250 C   0  0  0  0  0  3  0  0  0  0  0  0
  187.5940  177.6970  140.6010 C   0  0  1  0  0  3  0  0  0  0  0  0
  189.6310  176.9660  145.4360 N   0  0  0  0  0  2  0  0  0  0  0  0
  188.5330  178.6540  138.0840 N   0  0  0  0  0  0  0  0  0  0  0  0
  184.7760  178.9380  143.4710 N   0  0  0  0  0  0  0  0  0  0  0  0
  186.6870  178.1170  139.4760 C   0  0  2  0  0  3  0  0  0  0  0  0
  187.2630  178.3620  138.1550 C   0  0  0  0  0  3  0  0  0  0  0  0
  186.1640  178.3950  145.3740 C   0  0  0  0  0  0  0  0  0  0  0  0
  185.1180  178.8330  146.3420 C   0  0  0  0  0  1  0  0  0  0  0  0
  190.0370  176.7890  146.8000 C   0  0  0  0  0  0  0  0  0  0  0  0
  188.1560  177.5590  143.6290 N   0  0  0  0  0  0  0  0  0  0  0  0
  189.3570  178.7910  139.2630 C   0  0  0  0  0  3  0  0  0  0  0  0
  185.5630  178.5740  141.2650 C   0  0  0  0  0  0  0  0  0  0  0  0
  185.5440  178.6070  139.8480 N   0  0  0  0  0  2  0  0  0  0  0  0
  187.3760  177.9000  145.8610 C   0  0  0  0  0  3  0  0  0  0  0  0
  188.9160  178.4080  140.4740 C   0  0  0  0  0  3  0  0  0  0  0  0
  188.3750  177.4780  144.9700 C   0  0  0  0  0  0  0  0  0  0  0  0
  185.9540  178.4680  143.9910 C   0  0  0  0  0  0  0  0  0  0  0  0
  189.2460  177.0390  147.7490 O   0  0  0  0  0  0  0  0  0  0  0  0
  191.9820  176.9500  148.1240 F   0  0  0  0  0  0  0  0  0  0  0  0
  191.3940  176.2360  147.0960 C   0  0  0  0  0  0  0  0  0  0  0  0
  192.1840  176.3320  145.9660 F   0  0  0  0  0  0  0  0  0  0  0  0
  191.2970  174.9070  147.4710 F   0  0  0  0  0  0  0  0  0  0  0  0
  1  2  1  0  0  0  0
  2 13  1  0  0  0  0
  2 20  2  0  0  0  0
  3  7  2  0  0  0  0
  4 18  1  6  0  0  0
  4  1  1  0  0  0  0
  5 12  1  0  0  0  0
  6  9  2  0  0  0  0
  6 14  1  0  0  0  0
  7 20  1  0  0  0  0
  8  9  1  1  0  0  0
  8 16  1  0  0  0  0
  8  4  1  0  0  0  0
 10 17  2  0  0  0  0
 10 11  1  0  0  0  0
 12 23  1  0  0  0  0
 12 21  2  0  0  0  0
 13 19  2  0  0  0  0
 14 18  2  0  0  0  0
 15  1  2  0  0  0  0
 15  3  1  0  0  0  0
 16 15  1  0  0  0  0
 19  5  1  0  0  0  0
 19 17  1  0  0  0  0
 20 10  1  0  0  0  0
 23 25  1  0  0  0  0
 23 22  1  0  0  0  0
 24 23  1  0  0  0  0
M  END
>  <MODEL>
9

>  <REMARK>
 VINA RESULT:      -8.6      2.594      3.304
  Name = 
  1 active torsions:
  status: ('A' for Active; 'I' for Inactive)
    1  A    between atoms: C_7  and  C_15
                            x       y       z     vdW  Elec       q    Type
                         _______ _______ _______ _____ _____    ______ ____

>  <TORSDO>
F 1

$$$$
