=
 OpenBabel10272401273D

 55 60  0  0  1  0  0  0  0  0999 V2000
  188.8380  177.7870  138.0430 N   0  0  0  0  0  0  0  0  0  0  0  0
  189.1900  176.7630  137.0770 C   0  0  0  0  0  2  0  0  0  0  0  0
  190.7050  176.6390  136.9940 C   0  0  0  0  0  2  0  0  0  0  0  0
  190.7890  174.3810  137.7720 O   0  0  0  0  0  1  0  0  0  0  0  0
  191.1790  175.2080  136.7140 C   0  0  1  0  0  0  0  0  0  0  0  0
  190.4430  174.7290  135.4680 C   0  0  0  0  0  1  0  0  0  0  0  0
  194.7160  174.3190  137.7670 C   0  0  2  0  0  3  0  0  0  0  0  0
  195.5090  174.4880  135.5080 O   0  0  0  0  0  1  0  0  0  0  0  0
  192.7320  175.1280  136.5360 C   0  0  1  0  0  0  0  0  0  0  0  0
  192.4990  172.7210  136.2800 O   0  0  0  0  0  1  0  0  0  0  0  0
  193.2530  173.8330  135.8840 C   0  0  2  0  0  3  0  0  0  0  0  0
  193.7630  176.5120  138.2560 O   0  0  0  0  0  1  0  0  0  0  0  0
  195.8950  175.0290  138.0280 O   0  0  0  0  0  1  0  0  0  0  0  0
  194.7110  173.7130  136.3590 C   0  0  2  0  0  0  0  0  0  0  0  0
  193.1520  176.1980  135.7320 O   0  0  0  0  0  1  0  0  0  0  0  0
  193.4660  175.1960  137.8850 C   0  0  2  0  0  3  0  0  0  0  0  0
  195.2780  172.2800  136.3820 C   0  0  1  0  0  3  0  0  0  0  0  0
  196.5340  172.2090  135.7700 O   0  0  0  0  0  1  0  0  0  0  0  0
  195.3490  171.7140  137.7950 C   0  0  0  0  0  2  0  0  0  0  0  0
  195.3140  170.3200  137.7480 O   0  0  0  0  0  1  0  0  0  0  0  0
  187.5140  177.4560  138.5550 C   0  0  0  0  0  2  0  0  0  0  0  0
  186.5030  177.4010  137.4200 C   0  0  0  0  0  2  0  0  0  0  0  0
  185.1880  177.5620  137.9290 O   0  0  0  0  0  0  0  0  0  0  0  0
  185.1270  179.6910  138.7760 O   0  0  0  0  0  0  0  0  0  0  0  0
  184.4140  177.9950  140.2140 N   0  0  0  0  0  2  0  0  0  0  0  0
  184.9110  178.4640  138.9560 C   0  0  0  0  0  0  0  0  0  0  0  0
  187.3310  178.0450  143.1570 N   0  0  0  0  0  0  0  0  0  0  0  0
  181.6840  178.5890  140.7920 C   0  0  0  0  0  3  0  0  0  0  0  0
  185.3160  178.5110  146.1880 C   0  0  0  0  0  3  0  0  0  0  0  0
  180.3400  178.5030  141.1650 C   0  0  0  0  0  3  0  0  0  0  0  0
  182.3160  178.8810  143.1150 C   0  0  0  0  0  0  0  0  0  0  0  0
  180.9680  178.8040  143.4810 C   0  0  0  0  0  3  0  0  0  0  0  0
  179.9820  178.6080  142.5110 C   0  0  0  0  0  3  0  0  0  0  0  0
  182.6860  178.7630  141.7590 C   0  0  0  0  0  0  0  0  0  0  0  0
  186.4370  178.2960  142.1670 C   0  0  0  0  0  3  0  0  0  0  0  0
  187.5790  177.8800  146.8080 C   0  0  0  0  0  0  0  0  0  0  0  0
  184.7130  178.7070  143.8160 C   0  0  0  0  0  0  0  0  0  0  0  0
  186.9760  178.0950  144.4650 C   0  0  0  0  0  0  0  0  0  0  0  0
  183.3280  179.1770  144.1750 C   0  0  0  0  0  2  0  0  0  0  0  0
  187.9250  177.8160  145.4510 C   0  0  0  0  0  3  0  0  0  0  0  0
  184.1350  178.8890  141.3360 C   0  0  1  0  0  3  0  0  0  0  0  0
  186.2710  178.2320  147.1690 C   0  0  0  0  0  3  0  0  0  0  0  0
  185.1040  178.6080  142.4650 C   0  0  0  0  0  0  0  0  0  0  0  0
  185.6560  178.4410  144.8290 C   0  0  0  0  0  0  0  0  0  0  0  0
  188.5840  177.5770  147.8390 C   0  0  0  0  0  0  0  0  0  0  0  0
  189.8100  177.0280  147.4840 O   0  0  0  0  0  0  0  0  0  0  0  0
  188.3410  177.8080  149.0540 O   0  0  0  0  0  1  0  0  0  0  0  0
  189.7830  177.6660  139.1420 C   0  0  0  0  0  2  0  0  0  0  0  0
  189.1260  176.9130  140.2850 C   0  0  0  0  0  2  0  0  0  0  0  0
  191.5790  176.9400  143.7690 C   0  0  0  0  0  3  0  0  0  0  0  0
  190.0010  176.9240  141.4880 C   0  0  0  0  0  0  0  0  0  0  0  0
  190.0820  175.8210  142.2810 N   0  0  0  0  0  0  0  0  0  0  0  0
  191.5100  178.0810  142.9680 C   0  0  0  0  0  3  0  0  0  0  0  0
  190.8500  175.8050  143.4050 C   0  0  0  0  0  3  0  0  0  0  0  0
  190.7170  178.0780  141.8190 C   0  0  0  0  0  3  0  0  0  0  0  0
  1 21  1  0  0  0  0
  1 48  1  0  0  0  0
  2  1  1  0  0  0  0
  3  2  1  0  0  0  0
  5  6  1  6  0  0  0
  5  3  1  0  0  0  0
  5  4  1  0  0  0  0
  7 16  1  0  0  0  0
  7 13  1  6  0  0  0
  9 15  1  6  0  0  0
  9  5  1  0  0  0  0
  9 16  1  0  0  0  0
 11 10  1  1  0  0  0
 11 14  1  0  0  0  0
 11  9  1  0  0  0  0
 14  8  1  6  0  0  0
 14 17  1  0  0  0  0
 14  7  1  0  0  0  0
 16 12  1  6  0  0  0
 17 18  1  1  0  0  0
 17 19  1  0  0  0  0
 20 19  1  0  0  0  0
 22 23  1  0  0  0  0
 22 21  1  0  0  0  0
 23 26  1  0  0  0  0
 24 26  2  0  0  0  0
 26 25  1  0  0  0  0
 27 38  1  0  0  0  0
 28 30  2  0  0  0  0
 28 34  1  0  0  0  0
 29 42  1  0  0  0  0
 30 33  1  0  0  0  0
 31 32  1  0  0  0  0
 31 39  1  0  0  0  0
 33 32  2  0  0  0  0
 34 31  2  0  0  0  0
 35 43  1  0  0  0  0
 35 27  2  0  0  0  0
 36 42  2  0  0  0  0
 36 45  1  0  0  0  0
 37 39  1  0  0  0  0
 37 44  1  0  0  0  0
 38 44  1  0  0  0  0
 38 40  2  0  0  0  0
 40 36  1  0  0  0  0
 41 25  1  6  0  0  0
 41 34  1  0  0  0  0
 41 43  1  0  0  0  0
 43 37  2  0  0  0  0
 44 29  2  0  0  0  0
 45 47  1  0  0  0  0
 46 45  2  0  0  0  0
 48 49  1  0  0  0  0
 49 51  1  0  0  0  0
 51 55  2  0  0  0  0
 51 52  1  0  0  0  0
 52 54  2  0  0  0  0
 53 50  2  0  0  0  0
 54 50  1  0  0  0  0
 55 53  1  0  0  0  0
M  END
>  <MODEL>
1

>  <REMARK>
 VINA RESULT:      -9.7      0.000      0.000
  Name = 
  15 active torsions:
  status: ('A' for Active; 'I' for Inactive)
    1  A    between atoms: O_4  and  C_37
    2  A    between atoms: O_4  and  C_40
    3  A    between atoms: C_6  and  C_20
    4  A    between atoms: C_8  and  C_22
    5  A    between atoms: C_8  and  N_43
    6  A    between atoms: C_10  and  C_32
    7  A    between atoms: C_11  and  C_29
    8  A    between atoms: N_19  and  C_45
    9  A    between atoms: C_20  and  C_22
   10  A    between atoms: C_27  and  C_54
   11  A    between atoms: C_29  and  C_38
   12  A    between atoms: C_35  and  C_37
   13  A    between atoms: C_35  and  N_43
   14  A    between atoms: N_43  and  C_51
   15  A    between atoms: C_51  and  C_54
                            x       y       z     vdW  Elec       q    Type
                         _______ _______ _______ _____ _____    ______ ____

>  <TORSDO>
F 15

$$$$
=
 OpenBabel10272401273D

 55 60  0  0  1  0  0  0  0  0999 V2000
  186.3160  175.3690  136.1650 N   0  0  0  0  0  0  0  0  0  0  0  0
  187.6620  175.7910  135.8250 C   0  0  0  0  0  2  0  0  0  0  0  0
  188.5930  175.5260  136.9990 C   0  0  0  0  0  2  0  0  0  0  0  0
  189.9070  173.5720  137.4070 O   0  0  0  0  0  1  0  0  0  0  0  0
  189.8390  174.7210  136.6120 C   0  0  1  0  0  0  0  0  0  0  0  0
  189.6460  174.2650  135.1710 C   0  0  0  0  0  1  0  0  0  0  0  0
  193.0230  175.7830  138.3860 C   0  0  2  0  0  3  0  0  0  0  0  0
  193.9000  176.7630  136.3780 O   0  0  0  0  0  1  0  0  0  0  0  0
  191.1530  175.5520  136.7860 C   0  0  1  0  0  0  0  0  0  0  0  0
  192.4060  173.5160  136.3450 O   0  0  0  0  0  1  0  0  0  0  0  0
  192.4220  174.9080  136.1960 C   0  0  2  0  0  3  0  0  0  0  0  0
  190.9110  176.9440  138.7720 O   0  0  0  0  0  1  0  0  0  0  0  0
  193.5120  176.9680  138.9470 O   0  0  0  0  0  1  0  0  0  0  0  0
  193.5850  175.5380  136.9800 C   0  0  2  0  0  0  0  0  0  0  0  0
  190.9880  176.7980  136.1620 O   0  0  0  0  0  1  0  0  0  0  0  0
  191.4960  175.7760  138.2670 C   0  0  2  0  0  3  0  0  0  0  0  0
  194.8690  174.6880  137.0490 C   0  0  1  0  0  3  0  0  0  0  0  0
  195.9910  175.4080  136.6270 O   0  0  0  0  0  1  0  0  0  0  0  0
  195.1030  174.1140  138.4400 C   0  0  0  0  0  2  0  0  0  0  0  0
  196.1450  174.7990  139.0650 O   0  0  0  0  0  1  0  0  0  0  0  0
  185.5100  176.5760  136.3020 C   0  0  0  0  0  2  0  0  0  0  0  0
  185.7770  177.2440  137.6430 C   0  0  0  0  0  2  0  0  0  0  0  0
  184.7180  178.1340  137.9630 O   0  0  0  0  0  0  0  0  0  0  0  0
  184.6040  180.1340  139.0770 O   0  0  0  0  0  0  0  0  0  0  0  0
  184.9080  178.2370  140.4050 N   0  0  0  0  0  2  0  0  0  0  0  0
  184.7280  178.8820  139.1400 C   0  0  0  0  0  0  0  0  0  0  0  0
  188.4640  177.8510  142.4980 N   0  0  0  0  0  0  0  0  0  0  0  0
  182.4380  178.7780  141.7250 C   0  0  0  0  0  3  0  0  0  0  0  0
  187.2890  177.9230  145.9730 C   0  0  0  0  0  3  0  0  0  0  0  0
  181.2260  178.6570  142.4110 C   0  0  0  0  0  3  0  0  0  0  0  0
  183.6390  178.7430  143.8310 C   0  0  0  0  0  0  0  0  0  0  0  0
  182.4230  178.6330  144.5120 C   0  0  0  0  0  3  0  0  0  0  0  0
  181.2190  178.5820  143.8050 C   0  0  0  0  0  3  0  0  0  0  0  0
  183.6560  178.8070  142.4220 C   0  0  0  0  0  0  0  0  0  0  0  0
  187.3650  178.2450  141.8070 C   0  0  0  0  0  3  0  0  0  0  0  0
  189.6040  177.1870  145.9150 C   0  0  0  0  0  0  0  0  0  0  0  0
  186.1250  178.4480  143.8760 C   0  0  0  0  0  0  0  0  0  0  0  0
  188.4480  177.7270  143.8480 C   0  0  0  0  0  0  0  0  0  0  0  0
  184.8960  178.8800  144.6310 C   0  0  0  0  0  2  0  0  0  0  0  0
  189.5990  177.3050  144.5180 C   0  0  0  0  0  3  0  0  0  0  0  0
  184.9590  178.9730  141.6670 C   0  0  1  0  0  3  0  0  0  0  0  0
  188.4440  177.5020  146.6360 C   0  0  0  0  0  3  0  0  0  0  0  0
  186.1630  178.5290  142.4690 C   0  0  0  0  0  0  0  0  0  0  0  0
  187.2770  178.0350  144.5750 C   0  0  0  0  0  0  0  0  0  0  0  0
  190.8190  176.7350  146.6110 C   0  0  0  0  0  0  0  0  0  0  0  0
  191.9330  176.3300  145.8860 O   0  0  0  0  0  0  0  0  0  0  0  0
  190.8590  176.7060  147.8700 O   0  0  0  0  0  1  0  0  0  0  0  0
  185.8110  174.6250  135.0220 C   0  0  0  0  0  2  0  0  0  0  0  0
  186.0280  173.1410  135.2560 C   0  0  0  0  0  2  0  0  0  0  0  0
  182.5160  171.3650  136.8900 C   0  0  0  0  0  3  0  0  0  0  0  0
  184.7970  172.5130  135.8060 C   0  0  0  0  0  0  0  0  0  0  0  0
  183.7970  173.2940  136.3000 N   0  0  0  0  0  0  0  0  0  0  0  0
  183.5300  170.5470  136.3870 C   0  0  0  0  0  3  0  0  0  0  0  0
  182.6690  172.7530  136.8360 C   0  0  0  0  0  3  0  0  0  0  0  0
  184.6790  171.1210  135.8400 C   0  0  0  0  0  3  0  0  0  0  0  0
  1 21  1  0  0  0  0
  2  1  1  0  0  0  0
  2  3  1  0  0  0  0
  5  6  1  6  0  0  0
  5  9  1  0  0  0  0
  5  3  1  0  0  0  0
  5  4  1  0  0  0  0
  7 13  1  6  0  0  0
  9 15  1  6  0  0  0
  9 16  1  0  0  0  0
 11 10  1  1  0  0  0
 11  9  1  0  0  0  0
 11 14  1  0  0  0  0
 14  8  1  6  0  0  0
 14 17  1  0  0  0  0
 14  7  1  0  0  0  0
 16  7  1  0  0  0  0
 16 12  1  6  0  0  0
 17 18  1  1  0  0  0
 17 19  1  0  0  0  0
 19 20  1  0  0  0  0
 21 22  1  0  0  0  0
 22 23  1  0  0  0  0
 23 26  1  0  0  0  0
 24 26  2  0  0  0  0
 26 25  1  0  0  0  0
 27 38  1  0  0  0  0
 28 30  2  0  0  0  0
 28 34  1  0  0  0  0
 29 42  1  0  0  0  0
 30 33  1  0  0  0  0
 31 32  1  0  0  0  0
 31 39  1  0  0  0  0
 33 32  2  0  0  0  0
 34 31  2  0  0  0  0
 35 43  1  0  0  0  0
 35 27  2  0  0  0  0
 36 45  1  0  0  0  0
 36 42  2  0  0  0  0
 37 44  1  0  0  0  0
 37 39  1  0  0  0  0
 38 40  2  0  0  0  0
 38 44  1  0  0  0  0
 40 36  1  0  0  0  0
 41 25  1  6  0  0  0
 41 34  1  0  0  0  0
 41 43  1  0  0  0  0
 43 37  2  0  0  0  0
 44 29  2  0  0  0  0
 45 47  1  0  0  0  0
 46 45  2  0  0  0  0
 48 49  1  0  0  0  0
 48  1  1  0  0  0  0
 49 51  1  0  0  0  0
 51 55  2  0  0  0  0
 51 52  1  0  0  0  0
 52 54  2  0  0  0  0
 53 50  2  0  0  0  0
 54 50  1  0  0  0  0
 55 53  1  0  0  0  0
M  END
>  <MODEL>
2

>  <REMARK>
 VINA RESULT:      -9.0      2.661      4.327
  Name = 
  15 active torsions:
  status: ('A' for Active; 'I' for Inactive)
    1  A    between atoms: O_4  and  C_37
    2  A    between atoms: O_4  and  C_40
    3  A    between atoms: C_6  and  C_20
    4  A    between atoms: C_8  and  C_22
    5  A    between atoms: C_8  and  N_43
    6  A    between atoms: C_10  and  C_32
    7  A    between atoms: C_11  and  C_29
    8  A    between atoms: N_19  and  C_45
    9  A    between atoms: C_20  and  C_22
   10  A    between atoms: C_27  and  C_54
   11  A    between atoms: C_29  and  C_38
   12  A    between atoms: C_35  and  C_37
   13  A    between atoms: C_35  and  N_43
   14  A    between atoms: N_43  and  C_51
   15  A    between atoms: C_51  and  C_54
                            x       y       z     vdW  Elec       q    Type
                         _______ _______ _______ _____ _____    ______ ____

>  <TORSDO>
F 15

$$$$
=
 OpenBabel10272401273D

 55 60  0  0  1  0  0  0  0  0999 V2000
  190.4100  177.1680  138.4280 N   0  0  0  0  0  0  0  0  0  0  0  0
  191.4330  176.1420  138.5210 C   0  0  0  0  0  2  0  0  0  0  0  0
  192.3720  176.2460  137.3270 C   0  0  0  0  0  2  0  0  0  0  0  0
  191.7570  173.9450  137.1270 O   0  0  0  0  0  1  0  0  0  0  0  0
  192.3420  175.0060  136.4270 C   0  0  1  0  0  0  0  0  0  0  0  0
  191.4290  175.3300  135.2500 C   0  0  0  0  0  1  0  0  0  0  0  0
  196.1200  175.3180  136.2240 C   0  0  2  0  0  3  0  0  0  0  0  0
  196.3380  173.0560  135.4530 O   0  0  0  0  0  1  0  0  0  0  0  0
  193.7740  174.5900  135.9510 C   0  0  1  0  0  0  0  0  0  0  0  0
  194.2330  173.8650  138.2260 O   0  0  0  0  0  1  0  0  0  0  0  0
  194.5160  173.6090  136.8790 C   0  0  2  0  0  3  0  0  0  0  0  0
  194.6700  176.3960  134.5820 O   0  0  0  0  0  1  0  0  0  0  0  0
  197.0550  175.5490  135.2080 O   0  0  0  0  0  1  0  0  0  0  0  0
  196.0070  173.8300  136.5720 C   0  0  2  0  0  0  0  0  0  0  0  0
  193.6740  173.9800  134.6920 O   0  0  0  0  0  1  0  0  0  0  0  0
  194.7150  175.8010  135.8480 C   0  0  2  0  0  3  0  0  0  0  0  0
  196.9740  173.4650  137.7170 C   0  0  1  0  0  3  0  0  0  0  0  0
  198.0620  172.7160  137.2570 O   0  0  0  0  0  1  0  0  0  0  0  0
  197.4620  174.6960  138.4690 C   0  0  0  0  0  2  0  0  0  0  0  0
  196.9490  174.6910  139.7670 O   0  0  0  0  0  1  0  0  0  0  0  0
  189.2050  176.5250  137.9190 C   0  0  0  0  0  2  0  0  0  0  0  0
  188.8090  177.1240  136.5780 C   0  0  0  0  0  2  0  0  0  0  0  0
  187.3950  177.1340  136.4460 O   0  0  0  0  0  0  0  0  0  0  0  0
  186.8580  179.2900  137.0070 O   0  0  0  0  0  0  0  0  0  0  0  0
  185.5430  177.6220  137.9760 N   0  0  0  0  0  2  0  0  0  0  0  0
  186.6070  178.0620  137.1270 C   0  0  0  0  0  0  0  0  0  0  0  0
  186.8890  178.4270  141.8120 N   0  0  0  0  0  0  0  0  0  0  0  0
  182.7790  177.7810  137.2880 C   0  0  0  0  0  3  0  0  0  0  0  0
  183.7300  178.7940  143.6420 C   0  0  0  0  0  3  0  0  0  0  0  0
  181.4260  177.4950  137.0860 C   0  0  0  0  0  3  0  0  0  0  0  0
  182.3150  178.3750  139.5920 C   0  0  0  0  0  0  0  0  0  0  0  0
  180.9600  178.0980  139.3810 C   0  0  0  0  0  3  0  0  0  0  0  0
  180.5170  177.6510  138.1340 C   0  0  0  0  0  3  0  0  0  0  0  0
  183.2410  178.2070  138.5420 C   0  0  0  0  0  0  0  0  0  0  0  0
  186.4820  178.4340  140.5170 C   0  0  0  0  0  3  0  0  0  0  0  0
  185.5680  178.6190  145.2220 C   0  0  0  0  0  0  0  0  0  0  0  0
  184.1820  178.6790  141.2320 C   0  0  0  0  0  0  0  0  0  0  0  0
  186.0060  178.5260  142.8350 C   0  0  0  0  0  0  0  0  0  0  0  0
  182.7320  178.9310  140.9170 C   0  0  0  0  0  2  0  0  0  0  0  0
  186.4670  178.5010  144.1530 C   0  0  0  0  0  3  0  0  0  0  0  0
  184.7050  178.5460  138.7360 C   0  0  1  0  0  3  0  0  0  0  0  0
  184.1990  178.7690  144.9580 C   0  0  0  0  0  3  0  0  0  0  0  0
  185.1230  178.5340  140.1910 C   0  0  0  0  0  0  0  0  0  0  0  0
  184.6250  178.6680  142.5690 C   0  0  0  0  0  0  0  0  0  0  0  0
  186.0630  178.5840  146.6080 C   0  0  0  0  0  0  0  0  0  0  0  0
  187.0370  177.6650  146.9810 O   0  0  0  0  0  0  0  0  0  0  0  0
  185.6070  179.3830  147.4690 O   0  0  0  0  0  1  0  0  0  0  0  0
  190.1390  177.6110  139.7860 C   0  0  0  0  0  2  0  0  0  0  0  0
  190.5850  176.5360  140.7610 C   0  0  0  0  0  2  0  0  0  0  0  0
  190.2840  177.8950  144.7890 C   0  0  0  0  0  3  0  0  0  0  0  0
  190.4590  177.0170  142.1630 C   0  0  0  0  0  0  0  0  0  0  0  0
  191.2440  178.0370  142.6050 N   0  0  0  0  0  0  0  0  0  0  0  0
  189.4690  176.8480  144.3530 C   0  0  0  0  0  3  0  0  0  0  0  0
  191.1760  178.4850  143.8890 C   0  0  0  0  0  3  0  0  0  0  0  0
  189.5530  176.4040  143.0320 C   0  0  0  0  0  3  0  0  0  0  0  0
  1  2  1  0  0  0  0
  1 48  1  0  0  0  0
  3  2  1  0  0  0  0
  5  6  1  6  0  0  0
  5  4  1  0  0  0  0
  5  3  1  0  0  0  0
  7 13  1  6  0  0  0
  7 14  1  0  0  0  0
  9 15  1  6  0  0  0
  9  5  1  0  0  0  0
  9 11  1  0  0  0  0
 11 10  1  1  0  0  0
 14  8  1  6  0  0  0
 14 11  1  0  0  0  0
 14 17  1  0  0  0  0
 16 12  1  6  0  0  0
 16  9  1  0  0  0  0
 16  7  1  0  0  0  0
 17 18  1  6  0  0  0
 17 19  1  0  0  0  0
 19 20  1  0  0  0  0
 21  1  1  0  0  0  0
 22 21  1  0  0  0  0
 23 22  1  0  0  0  0
 23 26  1  0  0  0  0
 24 26  2  0  0  0  0
 26 25  1  0  0  0  0
 27 38  1  0  0  0  0
 28 34  1  0  0  0  0
 29 42  1  0  0  0  0
 30 28  2  0  0  0  0
 30 33  1  0  0  0  0
 31 39  1  0  0  0  0
 32 31  1  0  0  0  0
 33 32  2  0  0  0  0
 34 41  1  0  0  0  0
 34 31  2  0  0  0  0
 35 27  2  0  0  0  0
 36 45  1  0  0  0  0
 37 44  1  0  0  0  0
 38 40  2  0  0  0  0
 39 37  1  0  0  0  0
 40 36  1  0  0  0  0
 41 25  1  6  0  0  0
 41 43  1  0  0  0  0
 42 36  2  0  0  0  0
 43 35  1  0  0  0  0
 43 37  2  0  0  0  0
 44 38  1  0  0  0  0
 44 29  2  0  0  0  0
 45 46  2  0  0  0  0
 45 47  1  0  0  0  0
 48 49  1  0  0  0  0
 49 51  1  0  0  0  0
 51 52  2  0  0  0  0
 51 55  1  0  0  0  0
 52 54  1  0  0  0  0
 53 50  1  0  0  0  0
 54 50  2  0  0  0  0
 55 53  2  0  0  0  0
M  END
>  <MODEL>
3

>  <REMARK>
 VINA RESULT:      -8.6      1.778      2.687
  Name = 
  15 active torsions:
  status: ('A' for Active; 'I' for Inactive)
    1  A    between atoms: O_4  and  C_37
    2  A    between atoms: O_4  and  C_40
    3  A    between atoms: C_6  and  C_20
    4  A    between atoms: C_8  and  C_22
    5  A    between atoms: C_8  and  N_43
    6  A    between atoms: C_10  and  C_32
    7  A    between atoms: C_11  and  C_29
    8  A    between atoms: N_19  and  C_45
    9  A    between atoms: C_20  and  C_22
   10  A    between atoms: C_27  and  C_54
   11  A    between atoms: C_29  and  C_38
   12  A    between atoms: C_35  and  C_37
   13  A    between atoms: C_35  and  N_43
   14  A    between atoms: N_43  and  C_51
   15  A    between atoms: C_51  and  C_54
                            x       y       z     vdW  Elec       q    Type
                         _______ _______ _______ _____ _____    ______ ____

>  <TORSDO>
F 15

$$$$
=
 OpenBabel10272401273D

 55 60  0  0  1  0  0  0  0  0999 V2000
  190.7010  174.6590  136.0140 N   0  0  0  0  0  0  0  0  0  0  0  0
  192.1350  174.8560  135.9090 C   0  0  0  0  0  2  0  0  0  0  0  0
  192.8390  174.0800  137.0140 C   0  0  0  0  0  2  0  0  0  0  0  0
  194.3850  172.2800  137.2970 O   0  0  0  0  0  1  0  0  0  0  0  0
  194.1600  173.4480  136.5610 C   0  0  1  0  0  0  0  0  0  0  0  0
  193.9820  173.0390  135.1030 C   0  0  0  0  0  1  0  0  0  0  0  0
  197.5400  174.5050  137.9270 C   0  0  2  0  0  3  0  0  0  0  0  0
  197.7720  176.1990  136.2430 O   0  0  0  0  0  1  0  0  0  0  0  0
  195.3710  174.4210  136.7450 C   0  0  1  0  0  0  0  0  0  0  0  0
  196.7020  172.8940  135.4000 O   0  0  0  0  0  1  0  0  0  0  0  0
  196.5190  174.2410  135.7340 C   0  0  2  0  0  3  0  0  0  0  0  0
  195.4710  175.0680  139.0930 O   0  0  0  0  0  1  0  0  0  0  0  0
  198.0130  175.5330  138.7510 O   0  0  0  0  0  1  0  0  0  0  0  0
  197.7600  174.8120  136.4420 C   0  0  2  0  0  0  0  0  0  0  0  0
  194.9140  175.7420  136.6270 O   0  0  0  0  0  1  0  0  0  0  0  0
  196.0430  174.2440  138.1160 C   0  0  2  0  0  3  0  0  0  0  0  0
  199.1100  174.2420  135.9620 C   0  0  1  0  0  3  0  0  0  0  0  0
  200.0060  175.2570  135.6100 O   0  0  0  0  0  1  0  0  0  0  0  0
  199.7410  173.3180  136.9960 C   0  0  0  0  0  2  0  0  0  0  0  0
  199.5390  171.9880  136.6260 O   0  0  0  0  0  1  0  0  0  0  0  0
  190.0810  175.9760  135.9410 C   0  0  0  0  0  2  0  0  0  0  0  0
  190.0320  176.6170  137.3200 C   0  0  0  0  0  2  0  0  0  0  0  0
  188.8510  177.3930  137.4550 O   0  0  0  0  0  0  0  0  0  0  0  0
  189.0920  179.3900  138.5540 O   0  0  0  0  0  0  0  0  0  0  0  0
  187.9500  177.7150  139.7120 N   0  0  0  0  0  2  0  0  0  0  0  0
  188.6430  178.2140  138.5630 C   0  0  0  0  0  0  0  0  0  0  0  0
  190.8240  177.2500  142.6620 N   0  0  0  0  0  0  0  0  0  0  0  0
  185.2690  178.4700  140.3290 C   0  0  0  0  0  3  0  0  0  0  0  0
  188.8130  177.5880  145.7120 C   0  0  0  0  0  3  0  0  0  0  0  0
  183.9180  178.4570  140.6860 C   0  0  0  0  0  3  0  0  0  0  0  0
  185.8930  178.4890  142.6730 C   0  0  0  0  0  0  0  0  0  0  0  0
  184.5380  178.4870  143.0230 C   0  0  0  0  0  3  0  0  0  0  0  0
  183.5530  178.4630  142.0340 C   0  0  0  0  0  3  0  0  0  0  0  0
  186.2700  178.4700  141.3140 C   0  0  0  0  0  0  0  0  0  0  0  0
  189.9650  177.6650  141.6950 C   0  0  0  0  0  3  0  0  0  0  0  0
  191.0110  176.7210  146.2810 C   0  0  0  0  0  0  0  0  0  0  0  0
  188.2590  178.0560  143.3670 C   0  0  0  0  0  0  0  0  0  0  0  0
  190.4580  177.2050  143.9660 C   0  0  0  0  0  0  0  0  0  0  0  0
  186.9120  178.6010  143.7620 C   0  0  0  0  0  2  0  0  0  0  0  0
  191.3690  176.7580  144.9260 C   0  0  0  0  0  3  0  0  0  0  0  0
  187.7300  178.5180  140.9120 C   0  0  1  0  0  3  0  0  0  0  0  0
  189.7300  177.1410  146.6670 C   0  0  0  0  0  3  0  0  0  0  0  0
  188.6580  178.0540  142.0140 C   0  0  0  0  0  0  0  0  0  0  0  0
  189.1640  177.6200  144.3540 C   0  0  0  0  0  0  0  0  0  0  0  0
  191.9750  176.2410  147.2840 C   0  0  0  0  0  0  0  0  0  0  0  0
  192.6460  175.0390  147.0930 O   0  0  0  0  0  0  0  0  0  0  0  0
  192.1980  176.9130  148.3260 O   0  0  0  0  0  1  0  0  0  0  0  0
  190.2960  173.9120  134.8320 C   0  0  0  0  0  2  0  0  0  0  0  0
  189.5980  172.6350  135.2640 C   0  0  0  0  0  2  0  0  0  0  0  0
  185.6520  173.4210  136.6690 C   0  0  0  0  0  3  0  0  0  0  0  0
  188.2250  172.9310  135.7530 C   0  0  0  0  0  0  0  0  0  0  0  0
  187.8550  172.5600  137.0090 N   0  0  0  0  0  0  0  0  0  0  0  0
  186.0130  173.8100  135.3770 C   0  0  0  0  0  3  0  0  0  0  0  0
  186.5990  172.7900  137.4800 C   0  0  0  0  0  3  0  0  0  0  0  0
  187.3070  173.5670  134.9130 C   0  0  0  0  0  3  0  0  0  0  0  0
  2  1  1  0  0  0  0
  2  3  1  0  0  0  0
  5  6  1  6  0  0  0
  5  9  1  0  0  0  0
  5  3  1  0  0  0  0
  5  4  1  0  0  0  0
  7 16  1  0  0  0  0
  7 13  1  1  0  0  0
  9 15  1  6  0  0  0
  9 16  1  0  0  0  0
 11 10  1  1  0  0  0
 11 14  1  0  0  0  0
 11  9  1  0  0  0  0
 14  8  1  6  0  0  0
 14  7  1  0  0  0  0
 16 12  1  1  0  0  0
 17 18  1  1  0  0  0
 17 14  1  0  0  0  0
 17 19  1  0  0  0  0
 20 19  1  0  0  0  0
 21  1  1  0  0  0  0
 21 22  1  0  0  0  0
 22 23  1  0  0  0  0
 23 26  1  0  0  0  0
 24 26  2  0  0  0  0
 26 25  1  0  0  0  0
 27 38  1  0  0  0  0
 28 30  2  0  0  0  0
 28 34  1  0  0  0  0
 29 42  1  0  0  0  0
 30 33  1  0  0  0  0
 31 32  1  0  0  0  0
 31 39  1  0  0  0  0
 33 32  2  0  0  0  0
 34 31  2  0  0  0  0
 35 43  1  0  0  0  0
 35 27  2  0  0  0  0
 36 42  2  0  0  0  0
 36 45  1  0  0  0  0
 37 39  1  0  0  0  0
 37 44  1  0  0  0  0
 38 44  1  0  0  0  0
 38 40  2  0  0  0  0
 40 36  1  0  0  0  0
 41 25  1  6  0  0  0
 41 34  1  0  0  0  0
 41 43  1  0  0  0  0
 43 37  2  0  0  0  0
 44 29  2  0  0  0  0
 45 47  1  0  0  0  0
 46 45  2  0  0  0  0
 48 49  1  0  0  0  0
 48  1  1  0  0  0  0
 49 51  1  0  0  0  0
 50 54  1  0  0  0  0
 51 52  1  0  0  0  0
 52 54  2  0  0  0  0
 53 50  2  0  0  0  0
 55 53  1  0  0  0  0
 55 51  2  0  0  0  0
M  END
>  <MODEL>
4

>  <REMARK>
 VINA RESULT:      -8.5      2.543      4.554
  Name = 
  15 active torsions:
  status: ('A' for Active; 'I' for Inactive)
    1  A    between atoms: O_4  and  C_37
    2  A    between atoms: O_4  and  C_40
    3  A    between atoms: C_6  and  C_20
    4  A    between atoms: C_8  and  C_22
    5  A    between atoms: C_8  and  N_43
    6  A    between atoms: C_10  and  C_32
    7  A    between atoms: C_11  and  C_29
    8  A    between atoms: N_19  and  C_45
    9  A    between atoms: C_20  and  C_22
   10  A    between atoms: C_27  and  C_54
   11  A    between atoms: C_29  and  C_38
   12  A    between atoms: C_35  and  C_37
   13  A    between atoms: C_35  and  N_43
   14  A    between atoms: N_43  and  C_51
   15  A    between atoms: C_51  and  C_54
                            x       y       z     vdW  Elec       q    Type
                         _______ _______ _______ _____ _____    ______ ____

>  <TORSDO>
F 15

$$$$
=
 OpenBabel10272401273D

 55 60  0  0  1  0  0  0  0  0999 V2000
  190.1320  176.7010  139.5460 N   0  0  0  0  0  0  0  0  0  0  0  0
  191.5190  176.4880  139.1760 C   0  0  0  0  0  2  0  0  0  0  0  0
  191.6680  176.6050  137.6650 C   0  0  0  0  0  2  0  0  0  0  0  0
  192.0700  174.2530  137.8040 O   0  0  0  0  0  1  0  0  0  0  0  0
  192.3450  175.3850  137.0290 C   0  0  1  0  0  0  0  0  0  0  0  0
  191.6930  175.1720  135.6680 C   0  0  0  0  0  1  0  0  0  0  0  0
  195.9720  174.3610  137.4790 C   0  0  2  0  0  3  0  0  0  0  0  0
  196.6990  175.9400  135.8250 O   0  0  0  0  0  1  0  0  0  0  0  0
  193.8940  175.5700  136.9070 C   0  0  1  0  0  0  0  0  0  0  0  0
  193.8920  173.8080  135.2320 O   0  0  0  0  0  1  0  0  0  0  0  0
  194.5260  174.9920  135.6270 C   0  0  2  0  0  3  0  0  0  0  0  0
  194.8190  175.7060  139.1580 O   0  0  0  0  0  1  0  0  0  0  0  0
  197.0800  174.8670  138.1690 O   0  0  0  0  0  1  0  0  0  0  0  0
  195.9980  174.7400  135.9940 C   0  0  2  0  0  0  0  0  0  0  0  0
  194.1910  176.9400  136.9380 O   0  0  0  0  0  1  0  0  0  0  0  0
  194.6440  174.8680  138.0500 C   0  0  2  0  0  3  0  0  0  0  0  0
  196.7030  173.6460  135.1670 C   0  0  1  0  0  3  0  0  0  0  0  0
  197.8560  174.1330  134.5400 O   0  0  0  0  0  1  0  0  0  0  0  0
  197.0380  172.4190  136.0050 C   0  0  0  0  0  2  0  0  0  0  0  0
  198.4050  172.3940  136.2820 O   0  0  0  0  0  1  0  0  0  0  0  0
  190.1310  177.3280  140.8620 C   0  0  0  0  0  2  0  0  0  0  0  0
  191.5550  177.6010  141.3210 C   0  0  0  0  0  2  0  0  0  0  0  0
  191.5450  178.2490  142.5840 O   0  0  0  0  0  0  0  0  0  0  0  0
  189.9260  179.0810  143.9770 O   0  0  0  0  0  0  0  0  0  0  0  0
  190.0880  176.7540  143.8690 N   0  0  0  0  0  2  0  0  0  0  0  0
  190.4950  178.0710  143.4850 C   0  0  0  0  0  0  0  0  0  0  0  0
  186.2610  177.3370  142.3900 N   0  0  0  0  0  0  0  0  0  0  0  0
  190.6940  177.0670  146.6390 C   0  0  0  0  0  3  0  0  0  0  0  0
  184.5210  178.6540  145.3400 C   0  0  0  0  0  3  0  0  0  0  0  0
  191.0290  177.5920  147.8900 C   0  0  0  0  0  3  0  0  0  0  0  0
  188.3730  177.6650  147.0040 C   0  0  0  0  0  0  0  0  0  0  0  0
  188.7120  178.1790  148.2600 C   0  0  0  0  0  3  0  0  0  0  0  0
  190.0380  178.1500  148.7000 C   0  0  0  0  0  3  0  0  0  0  0  0
  189.3700  177.1110  146.1750 C   0  0  0  0  0  0  0  0  0  0  0  0
  187.4290  176.8870  142.9140 C   0  0  0  0  0  3  0  0  0  0  0  0
  183.1390  178.9850  143.3680 C   0  0  0  0  0  0  0  0  0  0  0  0
  186.7270  177.6000  145.1180 C   0  0  0  0  0  0  0  0  0  0  0  0
  185.3160  177.9260  143.1630 C   0  0  0  0  0  0  0  0  0  0  0  0
  186.9300  177.6390  146.6090 C   0  0  0  0  0  2  0  0  0  0  0  0
  184.1330  178.3880  142.5810 C   0  0  0  0  0  3  0  0  0  0  0  0
  189.0170  176.5070  144.8310 C   0  0  1  0  0  3  0  0  0  0  0  0
  183.3400  179.1110  144.7500 C   0  0  0  0  0  3  0  0  0  0  0  0
  187.7060  177.0270  144.2800 C   0  0  0  0  0  0  0  0  0  0  0  0
  185.5210  178.0620  144.5540 C   0  0  0  0  0  0  0  0  0  0  0  0
  181.9000  179.4740  142.7440 C   0  0  0  0  0  0  0  0  0  0  0  0
  181.0950  180.3920  143.4100 O   0  0  0  0  0  1  0  0  0  0  0  0
  181.5550  179.0640  141.6040 O   0  0  0  0  0  0  0  0  0  0  0  0
  189.5890  177.6610  138.5970 C   0  0  0  0  0  2  0  0  0  0  0  0
  188.4350  178.4050  139.2430 C   0  0  0  0  0  2  0  0  0  0  0  0
  184.7470  177.4230  137.3480 C   0  0  0  0  0  3  0  0  0  0  0  0
  187.1540  178.0730  138.5630 C   0  0  0  0  0  0  0  0  0  0  0  0
  185.9830  178.5840  139.0310 N   0  0  0  0  0  0  0  0  0  0  0  0
  185.9380  176.8890  136.8520 C   0  0  0  0  0  3  0  0  0  0  0  0
  184.7900  178.2800  138.4500 C   0  0  0  0  0  3  0  0  0  0  0  0
  187.1520  177.2140  137.4600 C   0  0  0  0  0  3  0  0  0  0  0  0
  1 21  1  0  0  0  0
  2  1  1  0  0  0  0
  3  2  1  0  0  0  0
  5  6  1  6  0  0  0
  5  3  1  0  0  0  0
  5  4  1  0  0  0  0
  7 16  1  0  0  0  0
  7 13  1  1  0  0  0
  9 15  1  1  0  0  0
  9  5  1  0  0  0  0
  9 16  1  0  0  0  0
 11 10  1  1  0  0  0
 11 14  1  0  0  0  0
 11  9  1  0  0  0  0
 14  8  1  6  0  0  0
 14  7  1  0  0  0  0
 16 12  1  1  0  0  0
 17 18  1  1  0  0  0
 17 14  1  0  0  0  0
 17 19  1  0  0  0  0
 19 20  1  0  0  0  0
 21 22  1  0  0  0  0
 22 23  1  0  0  0  0
 23 26  1  0  0  0  0
 26 25  1  0  0  0  0
 26 24  2  0  0  0  0
 27 35  2  0  0  0  0
 27 38  1  0  0  0  0
 28 30  1  0  0  0  0
 30 33  2  0  0  0  0
 31 32  2  0  0  0  0
 32 33  1  0  0  0  0
 34 28  2  0  0  0  0
 34 31  1  0  0  0  0
 35 43  1  0  0  0  0
 36 42  2  0  0  0  0
 37 39  1  0  0  0  0
 38 44  1  0  0  0  0
 39 31  1  0  0  0  0
 40 38  2  0  0  0  0
 40 36  1  0  0  0  0
 41 25  1  6  0  0  0
 41 34  1  0  0  0  0
 42 29  1  0  0  0  0
 43 41  1  0  0  0  0
 43 37  2  0  0  0  0
 44 37  1  0  0  0  0
 44 29  2  0  0  0  0
 45 36  1  0  0  0  0
 45 46  1  0  0  0  0
 47 45  2  0  0  0  0
 48 49  1  0  0  0  0
 48  1  1  0  0  0  0
 50 54  1  0  0  0  0
 51 52  1  0  0  0  0
 51 49  1  0  0  0  0
 53 50  2  0  0  0  0
 53 55  1  0  0  0  0
 54 52  2  0  0  0  0
 55 51  2  0  0  0  0
M  END
>  <MODEL>
5

>  <REMARK>
 VINA RESULT:      -8.4      1.994      5.607
  Name = 
  15 active torsions:
  status: ('A' for Active; 'I' for Inactive)
    1  A    between atoms: O_4  and  C_37
    2  A    between atoms: O_4  and  C_40
    3  A    between atoms: C_6  and  C_20
    4  A    between atoms: C_8  and  C_22
    5  A    between atoms: C_8  and  N_43
    6  A    between atoms: C_10  and  C_32
    7  A    between atoms: C_11  and  C_29
    8  A    between atoms: N_19  and  C_45
    9  A    between atoms: C_20  and  C_22
   10  A    between atoms: C_27  and  C_54
   11  A    between atoms: C_29  and  C_38
   12  A    between atoms: C_35  and  C_37
   13  A    between atoms: C_35  and  N_43
   14  A    between atoms: N_43  and  C_51
   15  A    between atoms: C_51  and  C_54
                            x       y       z     vdW  Elec       q    Type
                         _______ _______ _______ _____ _____    ______ ____

>  <TORSDO>
F 15

$$$$
=
 OpenBabel10272401273D

 55 60  0  0  1  0  0  0  0  0999 V2000
  190.2110  176.1470  138.9330 N   0  0  0  0  0  0  0  0  0  0  0  0
  190.5640  177.3000  139.7400 C   0  0  0  0  0  2  0  0  0  0  0  0
  189.7330  177.3050  141.0160 C   0  0  0  0  0  2  0  0  0  0  0  0
  190.5200  175.4360  142.2820 O   0  0  0  0  0  1  0  0  0  0  0  0
  190.5160  176.8350  142.2480 C   0  0  1  0  0  0  0  0  0  0  0  0
  191.9590  177.2890  142.0600 C   0  0  0  0  0  1  0  0  0  0  0  0
  189.0640  176.5390  145.7430 C   0  0  2  0  0  3  0  0  0  0  0  0
  189.4850  178.8580  146.1930 O   0  0  0  0  0  1  0  0  0  0  0  0
  189.9040  177.3860  143.5780 C   0  0  1  0  0  0  0  0  0  0  0  0
  191.9820  176.7880  144.6900 O   0  0  0  0  0  1  0  0  0  0  0  0
  190.9230  177.7040  144.6890 C   0  0  2  0  0  3  0  0  0  0  0  0
  187.6260  176.5400  143.7700 O   0  0  0  0  0  1  0  0  0  0  0  0
  187.8400  176.8430  146.3510 O   0  0  0  0  0  1  0  0  0  0  0  0
  190.1170  177.6240  145.9970 C   0  0  2  0  0  0  0  0  0  0  0  0
  189.2060  178.5710  143.3000 O   0  0  0  0  0  1  0  0  0  0  0  0
  188.9400  176.3780  144.2240 C   0  0  2  0  0  3  0  0  0  0  0  0
  190.9410  177.2960  147.2570 C   0  0  1  0  0  3  0  0  0  0  0  0
  190.3200  177.7650  148.4200 O   0  0  0  0  0  1  0  0  0  0  0  0
  191.2330  175.8060  147.3810 C   0  0  0  0  0  2  0  0  0  0  0  0
  192.4370  175.6150  148.0590 O   0  0  0  0  0  1  0  0  0  0  0  0
  188.9010  176.4170  138.3520 C   0  0  0  0  0  2  0  0  0  0  0  0
  189.0420  177.2520  137.0890 C   0  0  0  0  0  2  0  0  0  0  0  0
  187.7730  177.4330  136.4790 O   0  0  0  0  0  0  0  0  0  0  0  0
  186.9780  179.5310  136.9470 O   0  0  0  0  0  0  0  0  0  0  0  0
  185.6750  177.7490  137.7080 N   0  0  0  0  0  2  0  0  0  0  0  0
  186.8160  178.2850  137.0300 C   0  0  0  0  0  0  0  0  0  0  0  0
  186.4120  178.7210  141.6690 N   0  0  0  0  0  0  0  0  0  0  0  0
  183.0260  177.6250  136.6580 C   0  0  0  0  0  3  0  0  0  0  0  0
  183.0170  178.7890  143.0580 C   0  0  0  0  0  3  0  0  0  0  0  0
  181.7460  177.2050  136.2860 C   0  0  0  0  0  3  0  0  0  0  0  0
  182.2030  178.1920  138.8670 C   0  0  0  0  0  0  0  0  0  0  0  0
  180.9210  177.7800  138.4850 C   0  0  0  0  0  3  0  0  0  0  0  0
  180.6940  177.2790  137.2010 C   0  0  0  0  0  3  0  0  0  0  0  0
  183.2730  178.1080  137.9530 C   0  0  0  0  0  0  0  0  0  0  0  0
  186.1830  178.6750  140.3320 C   0  0  0  0  0  3  0  0  0  0  0  0
  184.6350  178.8130  144.8700 C   0  0  0  0  0  0  0  0  0  0  0  0
  183.7960  178.6970  140.7310 C   0  0  0  0  0  0  0  0  0  0  0  0
  185.3950  178.7420  142.5640 C   0  0  0  0  0  0  0  0  0  0  0  0
  182.3820  178.8000  140.2220 C   0  0  0  0  0  2  0  0  0  0  0  0
  185.6760  178.7750  143.9320 C   0  0  0  0  0  3  0  0  0  0  0  0
  184.6580  178.5920  138.3300 C   0  0  1  0  0  3  0  0  0  0  0  0
  183.3060  178.8230  144.4240 C   0  0  0  0  0  3  0  0  0  0  0  0
  184.8760  178.6360  139.8270 C   0  0  0  0  0  0  0  0  0  0  0  0
  184.0550  178.7420  142.1150 C   0  0  0  0  0  0  0  0  0  0  0  0
  184.9420  178.8410  146.3090 C   0  0  0  0  0  0  0  0  0  0  0  0
  185.8650  179.7500  146.8120 O   0  0  0  0  0  0  0  0  0  0  0  0
  184.3740  178.0390  147.0980 O   0  0  0  0  0  1  0  0  0  0  0  0
  191.1750  176.0880  137.8460 C   0  0  0  0  0  2  0  0  0  0  0  0
  192.5320  176.5370  138.3570 C   0  0  0  0  0  2  0  0  0  0  0  0
  195.6980  174.8260  136.0730 C   0  0  0  0  0  3  0  0  0  0  0  0
  193.6220  175.9290  137.5460 C   0  0  0  0  0  0  0  0  0  0  0  0
  194.4690  175.0260  138.1120 N   0  0  0  0  0  0  0  0  0  0  0  0
  194.8390  175.7510  135.4750 C   0  0  0  0  0  3  0  0  0  0  0  0
  195.4940  174.4710  137.4090 C   0  0  0  0  0  3  0  0  0  0  0  0
  193.7930  176.3080  136.2120 C   0  0  0  0  0  3  0  0  0  0  0  0
  1  2  1  0  0  0  0
  2  3  1  0  0  0  0
  3  5  1  0  0  0  0
  5  6  1  6  0  0  0
  5  4  1  0  0  0  0
  5  9  1  0  0  0  0
  7 14  1  0  0  0  0
  7 13  1  6  0  0  0
  9 15  1  6  0  0  0
  9 16  1  0  0  0  0
  9 11  1  0  0  0  0
 11 10  1  1  0  0  0
 11 14  1  0  0  0  0
 14  8  1  1  0  0  0
 14 17  1  0  0  0  0
 16 12  1  6  0  0  0
 16  7  1  0  0  0  0
 17 19  1  0  0  0  0
 17 18  1  1  0  0  0
 19 20  1  0  0  0  0
 21  1  1  0  0  0  0
 22 21  1  0  0  0  0
 23 26  1  0  0  0  0
 23 22  1  0  0  0  0
 24 26  2  0  0  0  0
 26 25  1  0  0  0  0
 27 38  1  0  0  0  0
 28 34  1  0  0  0  0
 29 42  1  0  0  0  0
 30 28  2  0  0  0  0
 30 33  1  0  0  0  0
 31 39  1  0  0  0  0
 32 31  1  0  0  0  0
 33 32  2  0  0  0  0
 34 41  1  0  0  0  0
 34 31  2  0  0  0  0
 35 27  2  0  0  0  0
 36 45  1  0  0  0  0
 37 44  1  0  0  0  0
 38 40  2  0  0  0  0
 39 37  1  0  0  0  0
 40 36  1  0  0  0  0
 41 25  1  6  0  0  0
 41 43  1  0  0  0  0
 42 36  2  0  0  0  0
 43 35  1  0  0  0  0
 43 37  2  0  0  0  0
 44 38  1  0  0  0  0
 44 29  2  0  0  0  0
 45 46  2  0  0  0  0
 45 47  1  0  0  0  0
 48 49  1  0  0  0  0
 48  1  1  0  0  0  0
 50 54  1  0  0  0  0
 51 52  1  0  0  0  0
 51 49  1  0  0  0  0
 53 50  2  0  0  0  0
 53 55  1  0  0  0  0
 54 52  2  0  0  0  0
 55 51  2  0  0  0  0
M  END
>  <MODEL>
6

>  <REMARK>
 VINA RESULT:      -7.9      3.148      6.738
  Name = 
  15 active torsions:
  status: ('A' for Active; 'I' for Inactive)
    1  A    between atoms: O_4  and  C_37
    2  A    between atoms: O_4  and  C_40
    3  A    between atoms: C_6  and  C_20
    4  A    between atoms: C_8  and  C_22
    5  A    between atoms: C_8  and  N_43
    6  A    between atoms: C_10  and  C_32
    7  A    between atoms: C_11  and  C_29
    8  A    between atoms: N_19  and  C_45
    9  A    between atoms: C_20  and  C_22
   10  A    between atoms: C_27  and  C_54
   11  A    between atoms: C_29  and  C_38
   12  A    between atoms: C_35  and  C_37
   13  A    between atoms: C_35  and  N_43
   14  A    between atoms: N_43  and  C_51
   15  A    between atoms: C_51  and  C_54
                            x       y       z     vdW  Elec       q    Type
                         _______ _______ _______ _____ _____    ______ ____

>  <TORSDO>
F 15

$$$$
=
 OpenBabel10272401273D

 55 60  0  0  1  0  0  0  0  0999 V2000
  189.7070  174.3760  136.8060 N   0  0  0  0  0  0  0  0  0  0  0  0
  190.7070  174.7100  135.8090 C   0  0  0  0  0  2  0  0  0  0  0  0
  192.0720  174.2140  136.2680 C   0  0  0  0  0  2  0  0  0  0  0  0
  193.5380  173.9770  134.3950 O   0  0  0  0  0  1  0  0  0  0  0  0
  193.2330  174.8180  135.4710 C   0  0  1  0  0  0  0  0  0  0  0  0
  192.7370  176.1370  134.8880 C   0  0  0  0  0  1  0  0  0  0  0  0
  195.4030  174.2970  138.5420 C   0  0  2  0  0  3  0  0  0  0  0  0
  197.3630  175.0420  137.3730 O   0  0  0  0  0  1  0  0  0  0  0  0
  194.5100  175.0190  136.3530 C   0  0  1  0  0  0  0  0  0  0  0  0
  195.1020  172.7070  135.8830 O   0  0  0  0  0  1  0  0  0  0  0  0
  195.6270  173.9800  136.1390 C   0  0  2  0  0  3  0  0  0  0  0  0
  193.8440  176.1700  138.3960 O   0  0  0  0  0  1  0  0  0  0  0  0
  195.9310  175.1140  139.5490 O   0  0  0  0  0  1  0  0  0  0  0  0
  196.4340  173.9950  137.4480 C   0  0  2  0  0  0  0  0  0  0  0  0
  195.0560  176.2810  136.0800 O   0  0  0  0  0  1  0  0  0  0  0  0
  194.1880  174.9250  137.8530 C   0  0  2  0  0  3  0  0  0  0  0  0
  197.1970  172.6930  137.7640 C   0  0  1  0  0  3  0  0  0  0  0  0
  196.3270  171.6520  138.1050 O   0  0  0  0  0  1  0  0  0  0  0  0
  198.1050  172.2680  136.6180 C   0  0  0  0  0  2  0  0  0  0  0  0
  199.1270  171.4510  137.1020 O   0  0  0  0  0  1  0  0  0  0  0  0
  189.7480  175.4210  137.8210 C   0  0  0  0  0  2  0  0  0  0  0  0
  190.1340  176.7530  137.1960 C   0  0  0  0  0  2  0  0  0  0  0  0
  188.9680  177.5040  136.8890 O   0  0  0  0  0  0  0  0  0  0  0  0
  188.7270  179.5590  137.8740 O   0  0  0  0  0  0  0  0  0  0  0  0
  187.4080  177.8420  138.7490 N   0  0  0  0  0  2  0  0  0  0  0  0
  188.3790  178.3500  137.8280 C   0  0  0  0  0  0  0  0  0  0  0  0
  189.2450  177.7020  142.4620 N   0  0  0  0  0  0  0  0  0  0  0  0
  184.6300  178.4250  138.4670 C   0  0  0  0  0  3  0  0  0  0  0  0
  186.3700  178.0140  144.7210 C   0  0  0  0  0  3  0  0  0  0  0  0
  183.2380  178.3290  138.3910 C   0  0  0  0  0  3  0  0  0  0  0  0
  184.4920  178.5810  140.8820 C   0  0  0  0  0  0  0  0  0  0  0  0
  183.0990  178.4950  140.7990 C   0  0  0  0  0  3  0  0  0  0  0  0
  182.4720  178.3610  139.5580 C   0  0  0  0  0  3  0  0  0  0  0  0
  185.2740  178.5360  139.7090 C   0  0  0  0  0  0  0  0  0  0  0  0
  188.7070  178.0160  141.2550 C   0  0  0  0  0  3  0  0  0  0  0  0
  188.3280  177.3310  145.9880 C   0  0  0  0  0  0  0  0  0  0  0  0
  186.5460  178.3480  142.2950 C   0  0  0  0  0  0  0  0  0  0  0  0
  188.4950  177.6820  143.5900 C   0  0  0  0  0  0  0  0  0  0  0  0
  185.1150  178.8090  142.2240 C   0  0  0  0  0  2  0  0  0  0  0  0
  189.0860  177.3410  144.8090 C   0  0  0  0  0  3  0  0  0  0  0  0
  186.7810  178.6730  139.7730 C   0  0  1  0  0  3  0  0  0  0  0  0
  186.9690  177.6730  145.9360 C   0  0  0  0  0  3  0  0  0  0  0  0
  187.3450  178.3220  141.1330 C   0  0  0  0  0  0  0  0  0  0  0  0
  187.1230  178.0180  143.5370 C   0  0  0  0  0  0  0  0  0  0  0  0
  188.9580  176.9620  147.2660 C   0  0  0  0  0  0  0  0  0  0  0  0
  190.3220  176.7010  147.3250 O   0  0  0  0  0  0  0  0  0  0  0  0
  188.2680  176.8760  148.3160 O   0  0  0  0  0  1  0  0  0  0  0  0
  188.4150  174.4520  136.1410 C   0  0  0  0  0  2  0  0  0  0  0  0
  187.3120  174.3380  137.1780 C   0  0  0  0  0  2  0  0  0  0  0  0
  183.6910  176.0450  135.7160 C   0  0  0  0  0  3  0  0  0  0  0  0
  186.0440  174.9150  136.6560 C   0  0  0  0  0  0  0  0  0  0  0  0
  186.0770  175.9900  135.8210 N   0  0  0  0  0  0  0  0  0  0  0  0
  183.6360  174.9420  136.5710 C   0  0  0  0  0  3  0  0  0  0  0  0
  184.9360  176.5600  135.3470 C   0  0  0  0  0  3  0  0  0  0  0  0
  184.8180  174.3700  137.0460 C   0  0  0  0  0  3  0  0  0  0  0  0
  1 21  1  0  0  0  0
  2  3  1  0  0  0  0
  2  1  1  0  0  0  0
  4  5  1  0  0  0  0
  5  6  1  6  0  0  0
  5  3  1  0  0  0  0
  5  9  1  0  0  0  0
  7 13  1  1  0  0  0
  9 15  1  6  0  0  0
  9 16  1  0  0  0  0
 11 10  1  1  0  0  0
 11  9  1  0  0  0  0
 11 14  1  0  0  0  0
 14  8  1  6  0  0  0
 14 17  1  0  0  0  0
 14  7  1  0  0  0  0
 16 12  1  1  0  0  0
 16  7  1  0  0  0  0
 17 18  1  6  0  0  0
 19 20  1  0  0  0  0
 19 17  1  0  0  0  0
 22 21  1  0  0  0  0
 23 22  1  0  0  0  0
 23 26  1  0  0  0  0
 26 24  2  0  0  0  0
 26 25  1  0  0  0  0
 27 38  1  0  0  0  0
 28 34  1  0  0  0  0
 29 42  1  0  0  0  0
 30 28  2  0  0  0  0
 30 33  1  0  0  0  0
 31 39  1  0  0  0  0
 32 31  1  0  0  0  0
 33 32  2  0  0  0  0
 34 41  1  0  0  0  0
 34 31  2  0  0  0  0
 35 27  2  0  0  0  0
 36 45  1  0  0  0  0
 37 44  1  0  0  0  0
 38 40  2  0  0  0  0
 39 37  1  0  0  0  0
 40 36  1  0  0  0  0
 41 25  1  6  0  0  0
 41 43  1  0  0  0  0
 42 36  2  0  0  0  0
 43 35  1  0  0  0  0
 43 37  2  0  0  0  0
 44 38  1  0  0  0  0
 44 29  2  0  0  0  0
 45 46  2  0  0  0  0
 45 47  1  0  0  0  0
 48  1  1  0  0  0  0
 48 49  1  0  0  0  0
 50 53  1  0  0  0  0
 51 55  1  0  0  0  0
 51 49  1  0  0  0  0
 52 51  2  0  0  0  0
 53 55  2  0  0  0  0
 54 50  2  0  0  0  0
 54 52  1  0  0  0  0
M  END
>  <MODEL>
7

>  <REMARK>
 VINA RESULT:      -7.9      1.997      4.052
  Name = 
  15 active torsions:
  status: ('A' for Active; 'I' for Inactive)
    1  A    between atoms: O_4  and  C_37
    2  A    between atoms: O_4  and  C_40
    3  A    between atoms: C_6  and  C_20
    4  A    between atoms: C_8  and  C_22
    5  A    between atoms: C_8  and  N_43
    6  A    between atoms: C_10  and  C_32
    7  A    between atoms: C_11  and  C_29
    8  A    between atoms: N_19  and  C_45
    9  A    between atoms: C_20  and  C_22
   10  A    between atoms: C_27  and  C_54
   11  A    between atoms: C_29  and  C_38
   12  A    between atoms: C_35  and  C_37
   13  A    between atoms: C_35  and  N_43
   14  A    between atoms: N_43  and  C_51
   15  A    between atoms: C_51  and  C_54
                            x       y       z     vdW  Elec       q    Type
                         _______ _______ _______ _____ _____    ______ ____

>  <TORSDO>
F 15

$$$$
=
 OpenBabel10272401273D

 55 60  0  0  1  0  0  0  0  0999 V2000
  186.8940  175.5850  135.8430 N   0  0  0  0  0  0  0  0  0  0  0  0
  185.5690  175.0600  135.5680 C   0  0  0  0  0  2  0  0  0  0  0  0
  184.6690  175.2850  136.7750 C   0  0  0  0  0  2  0  0  0  0  0  0
  182.9640  174.9110  135.1430 O   0  0  0  0  0  1  0  0  0  0  0  0
  183.2090  174.8960  136.5200 C   0  0  1  0  0  0  0  0  0  0  0  0
  183.0420  173.4560  136.9940 C   0  0  0  0  0  1  0  0  0  0  0  0
  182.1590  177.4060  139.1660 C   0  0  2  0  0  3  0  0  0  0  0  0
  180.2820  178.1180  137.8510 O   0  0  0  0  0  1  0  0  0  0  0  0
  182.2090  175.8620  137.2380 C   0  0  1  0  0  0  0  0  0  0  0  0
  183.5190  177.7240  136.3860 O   0  0  0  0  0  1  0  0  0  0  0  0
  182.2260  177.3180  136.7350 C   0  0  2  0  0  3  0  0  0  0  0  0
  181.8190  175.0110  139.4880 O   0  0  0  0  0  1  0  0  0  0  0  0
  181.2070  177.4450  140.1920 O   0  0  0  0  0  1  0  0  0  0  0  0
  181.6810  178.1460  137.9110 C   0  0  2  0  0  0  0  0  0  0  0  0
  180.9050  175.3750  137.0650 O   0  0  0  0  0  1  0  0  0  0  0  0
  182.5050  175.9760  138.7420 C   0  0  2  0  0  3  0  0  0  0  0  0
  182.1350  179.6190  137.9430 C   0  0  1  0  0  3  0  0  0  0  0  0
  181.0530  180.4970  137.8170 O   0  0  0  0  0  1  0  0  0  0  0  0
  182.9350  179.9460  139.1970 C   0  0  0  0  0  2  0  0  0  0  0  0
  184.2420  180.2880  138.8490 O   0  0  0  0  0  1  0  0  0  0  0  0
  186.9900  175.7690  137.2860 C   0  0  0  0  0  2  0  0  0  0  0  0
  187.4290  177.1880  137.6130 C   0  0  0  0  0  2  0  0  0  0  0  0
  188.4240  177.1700  138.6260 O   0  0  0  0  0  0  0  0  0  0  0  0
  188.8240  179.1650  139.6810 O   0  0  0  0  0  0  0  0  0  0  0  0
  187.7430  177.5320  140.9530 N   0  0  0  0  0  2  0  0  0  0  0  0
  188.3420  178.0030  139.7410 C   0  0  0  0  0  0  0  0  0  0  0  0
  190.8670  177.0080  143.6260 N   0  0  0  0  0  0  0  0  0  0  0  0
  185.1530  178.3640  141.8110 C   0  0  0  0  0  3  0  0  0  0  0  0
  189.1600  177.4210  146.8480 C   0  0  0  0  0  3  0  0  0  0  0  0
  183.8410  178.3910  142.2920 C   0  0  0  0  0  3  0  0  0  0  0  0
  185.9930  178.3810  144.0860 C   0  0  0  0  0  0  0  0  0  0  0  0
  184.6780  178.4190  144.5610 C   0  0  0  0  0  3  0  0  0  0  0  0
  183.6040  178.4150  143.6680 C   0  0  0  0  0  3  0  0  0  0  0  0
  186.2410  178.3430  142.6980 C   0  0  0  0  0  0  0  0  0  0  0  0
  189.9330  177.4400  142.7400 C   0  0  0  0  0  3  0  0  0  0  0  0
  191.3780  176.4970  147.2160 C   0  0  0  0  0  0  0  0  0  0  0  0
  188.4010  177.8880  144.5600 C   0  0  0  0  0  0  0  0  0  0  0  0
  190.6230  176.9810  144.9590 C   0  0  0  0  0  0  0  0  0  0  0  0
  187.1120  178.4720  145.0740 C   0  0  0  0  0  2  0  0  0  0  0  0
  191.6080  176.5160  145.8340 C   0  0  0  0  0  3  0  0  0  0  0  0
  187.6580  178.3480  142.1610 C   0  0  1  0  0  3  0  0  0  0  0  0
  190.1500  176.9550  147.7160 C   0  0  0  0  0  3  0  0  0  0  0  0
  188.6720  177.8670  143.1760 C   0  0  0  0  0  0  0  0  0  0  0  0
  189.3830  177.4340  145.4620 C   0  0  0  0  0  0  0  0  0  0  0  0
  192.4180  175.9980  148.1290 C   0  0  0  0  0  0  0  0  0  0  0  0
  193.0960  176.8760  148.9670 O   0  0  0  0  0  1  0  0  0  0  0  0
  192.7070  174.7720  148.1580 O   0  0  0  0  0  0  0  0  0  0  0  0
  187.8410  174.5480  135.4640 C   0  0  0  0  0  2  0  0  0  0  0  0
  188.6170  174.1070  136.6910 C   0  0  0  0  0  2  0  0  0  0  0  0
  192.7790  174.7910  136.0800 C   0  0  0  0  0  3  0  0  0  0  0  0
  190.0750  174.3350  136.4970 C   0  0  0  0  0  0  0  0  0  0  0  0
  190.5690  175.6040  136.4830 N   0  0  0  0  0  0  0  0  0  0  0  0
  192.2910  173.4820  136.0920 C   0  0  0  0  0  3  0  0  0  0  0  0
  191.8920  175.8510  136.2810 C   0  0  0  0  0  3  0  0  0  0  0  0
  190.9310  173.2490  136.3030 C   0  0  0  0  0  3  0  0  0  0  0  0
  1 21  1  0  0  0  0
  2  1  1  0  0  0  0
  2  3  1  0  0  0  0
  4  5  1  0  0  0  0
  5  3  1  0  0  0  0
  5  6  1  1  0  0  0
  5  9  1  0  0  0  0
  7 13  1  1  0  0  0
  9 15  1  6  0  0  0
  9 16  1  0  0  0  0
 11 10  1  1  0  0  0
 11  9  1  0  0  0  0
 11 14  1  0  0  0  0
 14  8  1  6  0  0  0
 14 17  1  0  0  0  0
 14  7  1  0  0  0  0
 16  7  1  0  0  0  0
 16 12  1  1  0  0  0
 17 18  1  1  0  0  0
 17 19  1  0  0  0  0
 20 19  1  0  0  0  0
 21 22  1  0  0  0  0
 22 23  1  0  0  0  0
 23 26  1  0  0  0  0
 24 26  2  0  0  0  0
 26 25  1  0  0  0  0
 27 38  1  0  0  0  0
 28 30  2  0  0  0  0
 28 34  1  0  0  0  0
 29 42  1  0  0  0  0
 30 33  1  0  0  0  0
 31 32  1  0  0  0  0
 31 39  1  0  0  0  0
 33 32  2  0  0  0  0
 34 31  2  0  0  0  0
 35 43  1  0  0  0  0
 35 27  2  0  0  0  0
 36 42  2  0  0  0  0
 36 45  1  0  0  0  0
 37 39  1  0  0  0  0
 37 44  1  0  0  0  0
 38 44  1  0  0  0  0
 38 40  2  0  0  0  0
 40 36  1  0  0  0  0
 41 25  1  6  0  0  0
 41 34  1  0  0  0  0
 41 43  1  0  0  0  0
 43 37  2  0  0  0  0
 44 29  2  0  0  0  0
 45 47  2  0  0  0  0
 45 46  1  0  0  0  0
 48  1  1  0  0  0  0
 48 49  1  0  0  0  0
 50 53  2  0  0  0  0
 50 54  1  0  0  0  0
 51 49  1  0  0  0  0
 52 51  1  0  0  0  0
 53 55  1  0  0  0  0
 54 52  2  0  0  0  0
 55 51  2  0  0  0  0
M  END
>  <MODEL>
8

>  <REMARK>
 VINA RESULT:      -7.8      3.425      8.083
  Name = 
  15 active torsions:
  status: ('A' for Active; 'I' for Inactive)
    1  A    between atoms: O_4  and  C_37
    2  A    between atoms: O_4  and  C_40
    3  A    between atoms: C_6  and  C_20
    4  A    between atoms: C_8  and  C_22
    5  A    between atoms: C_8  and  N_43
    6  A    between atoms: C_10  and  C_32
    7  A    between atoms: C_11  and  C_29
    8  A    between atoms: N_19  and  C_45
    9  A    between atoms: C_20  and  C_22
   10  A    between atoms: C_27  and  C_54
   11  A    between atoms: C_29  and  C_38
   12  A    between atoms: C_35  and  C_37
   13  A    between atoms: C_35  and  N_43
   14  A    between atoms: N_43  and  C_51
   15  A    between atoms: C_51  and  C_54
                            x       y       z     vdW  Elec       q    Type
                         _______ _______ _______ _____ _____    ______ ____

>  <TORSDO>
F 15

$$$$
=
 OpenBabel10272401273D

 55 60  0  0  1  0  0  0  0  0999 V2000
  189.1590  174.9790  137.0460 N   0  0  0  0  0  0  0  0  0  0  0  0
  190.1030  174.1630  136.3040 C   0  0  0  0  0  2  0  0  0  0  0  0
  191.5170  174.4500  136.7890 C   0  0  0  0  0  2  0  0  0  0  0  0
  192.3840  173.1080  135.0110 O   0  0  0  0  0  1  0  0  0  0  0  0
  192.5720  174.3200  135.6850 C   0  0  1  0  0  0  0  0  0  0  0  0
  192.3110  175.4400  134.6840 C   0  0  0  0  0  1  0  0  0  0  0  0
  195.2350  173.9130  138.3600 C   0  0  2  0  0  3  0  0  0  0  0  0
  196.9870  173.9180  136.7190 O   0  0  0  0  0  1  0  0  0  0  0  0
  194.0290  174.3790  136.2530 C   0  0  1  0  0  0  0  0  0  0  0  0
  194.0390  171.9470  136.2650 O   0  0  0  0  0  1  0  0  0  0  0  0
  194.8450  173.0810  136.1060 C   0  0  2  0  0  3  0  0  0  0  0  0
  194.0780  176.0380  138.0380 O   0  0  0  0  0  1  0  0  0  0  0  0
  196.1240  174.7630  139.0290 O   0  0  0  0  0  1  0  0  0  0  0  0
  195.9140  173.1620  137.2090 C   0  0  2  0  0  0  0  0  0  0  0  0
  194.7340  175.3930  135.5890 O   0  0  0  0  0  1  0  0  0  0  0  0
  194.0410  174.6660  137.7630 C   0  0  2  0  0  3  0  0  0  0  0  0
  196.4610  171.8040  137.6940 C   0  0  1  0  0  3  0  0  0  0  0  0
  195.5200  171.1120  138.4650 O   0  0  0  0  0  1  0  0  0  0  0  0
  196.9390  170.9330  136.5400 C   0  0  0  0  0  2  0  0  0  0  0  0
  196.5410  169.6120  136.7480 O   0  0  0  0  0  1  0  0  0  0  0  0
  189.2490  176.3310  136.5090 C   0  0  0  0  0  2  0  0  0  0  0  0
  189.4060  177.3410  137.6350 C   0  0  0  0  0  2  0  0  0  0  0  0
  188.2530  177.3300  138.4640 O   0  0  0  0  0  0  0  0  0  0  0  0
  188.6920  179.2810  139.5850 O   0  0  0  0  0  0  0  0  0  0  0  0
  187.5070  177.6590  140.7760 N   0  0  0  0  0  2  0  0  0  0  0  0
  188.1650  178.1370  139.5980 C   0  0  0  0  0  0  0  0  0  0  0  0
  190.6450  177.1270  143.4300 N   0  0  0  0  0  0  0  0  0  0  0  0
  184.9060  178.4300  141.6580 C   0  0  0  0  0  3  0  0  0  0  0  0
  188.9410  177.4410  146.6640 C   0  0  0  0  0  3  0  0  0  0  0  0
  183.5950  178.4240  142.1430 C   0  0  0  0  0  3  0  0  0  0  0  0
  185.7510  178.4100  143.9310 C   0  0  0  0  0  0  0  0  0  0  0  0
  184.4370  178.4160  144.4100 C   0  0  0  0  0  3  0  0  0  0  0  0
  183.3610  178.4140  143.5190 C   0  0  0  0  0  3  0  0  0  0  0  0
  185.9960  178.4070  142.5420 C   0  0  0  0  0  0  0  0  0  0  0  0
  189.7030  177.5630  142.5560 C   0  0  0  0  0  3  0  0  0  0  0  0
  191.1740  176.5460  147.0070 C   0  0  0  0  0  0  0  0  0  0  0  0
  188.1680  177.9460  144.3890 C   0  0  0  0  0  0  0  0  0  0  0  0
  190.4060  177.0670  144.7620 C   0  0  0  0  0  0  0  0  0  0  0  0
  186.8710  178.4970  144.9190 C   0  0  0  0  0  2  0  0  0  0  0  0
  191.4000  176.5990  145.6250 C   0  0  0  0  0  3  0  0  0  0  0  0
  187.4110  178.4470  142.0020 C   0  0  1  0  0  3  0  0  0  0  0  0
  189.9400  176.9730  147.5200 C   0  0  0  0  0  3  0  0  0  0  0  0
  188.4360  177.9600  143.0040 C   0  0  0  0  0  0  0  0  0  0  0  0
  189.1600  177.4890  145.2790 C   0  0  0  0  0  0  0  0  0  0  0  0
  192.2240  176.0440  147.9070 C   0  0  0  0  0  0  0  0  0  0  0  0
  192.5400  174.6900  147.9300 O   0  0  0  0  0  0  0  0  0  0  0  0
  192.8450  176.8340  148.6670 O   0  0  0  0  0  1  0  0  0  0  0  0
  187.8330  174.4650  136.7380 C   0  0  0  0  0  2  0  0  0  0  0  0
  187.9160  172.9660  136.5180 C   0  0  0  0  0  2  0  0  0  0  0  0
  184.0210  171.2510  136.3030 C   0  0  0  0  0  3  0  0  0  0  0  0
  186.5540  172.3760  136.4230 C   0  0  0  0  0  0  0  0  0  0  0  0
  185.5640  172.8100  137.2500 N   0  0  0  0  0  0  0  0  0  0  0  0
  185.0220  170.7930  135.4450 C   0  0  0  0  0  3  0  0  0  0  0  0
  184.3140  172.2740  137.2100 C   0  0  0  0  0  3  0  0  0  0  0  0
  186.2980  171.3570  135.5010 C   0  0  0  0  0  3  0  0  0  0  0  0
  2  3  1  0  0  0  0
  2  1  1  0  0  0  0
  4  5  1  0  0  0  0
  5  6  1  6  0  0  0
  5  9  1  0  0  0  0
  5  3  1  0  0  0  0
  7 13  1  6  0  0  0
  9 15  1  6  0  0  0
  9 16  1  0  0  0  0
 11  9  1  0  0  0  0
 11 10  1  1  0  0  0
 11 14  1  0  0  0  0
 14  8  1  6  0  0  0
 14 17  1  0  0  0  0
 14  7  1  0  0  0  0
 16 12  1  6  0  0  0
 16  7  1  0  0  0  0
 17 18  1  6  0  0  0
 19 20  1  0  0  0  0
 19 17  1  0  0  0  0
 21  1  1  0  0  0  0
 21 22  1  0  0  0  0
 22 23  1  0  0  0  0
 23 26  1  0  0  0  0
 24 26  2  0  0  0  0
 26 25  1  0  0  0  0
 27 38  1  0  0  0  0
 28 30  2  0  0  0  0
 28 34  1  0  0  0  0
 29 42  1  0  0  0  0
 30 33  1  0  0  0  0
 31 32  1  0  0  0  0
 31 39  1  0  0  0  0
 33 32  2  0  0  0  0
 34 31  2  0  0  0  0
 35 43  1  0  0  0  0
 35 27  2  0  0  0  0
 36 42  2  0  0  0  0
 36 45  1  0  0  0  0
 37 39  1  0  0  0  0
 37 44  1  0  0  0  0
 38 44  1  0  0  0  0
 38 40  2  0  0  0  0
 40 36  1  0  0  0  0
 41 25  1  6  0  0  0
 41 34  1  0  0  0  0
 41 43  1  0  0  0  0
 43 37  2  0  0  0  0
 44 29  2  0  0  0  0
 45 46  2  0  0  0  0
 45 47  1  0  0  0  0
 48  1  1  0  0  0  0
 49 48  1  0  0  0  0
 50 54  1  0  0  0  0
 51 49  1  0  0  0  0
 51 52  1  0  0  0  0
 53 55  1  0  0  0  0
 53 50  2  0  0  0  0
 54 52  2  0  0  0  0
 55 51  2  0  0  0  0
M  END
>  <MODEL>
9

>  <REMARK>
 VINA RESULT:      -7.6      2.610      4.441
  Name = 
  15 active torsions:
  status: ('A' for Active; 'I' for Inactive)
    1  A    between atoms: O_4  and  C_37
    2  A    between atoms: O_4  and  C_40
    3  A    between atoms: C_6  and  C_20
    4  A    between atoms: C_8  and  C_22
    5  A    between atoms: C_8  and  N_43
    6  A    between atoms: C_10  and  C_32
    7  A    between atoms: C_11  and  C_29
    8  A    between atoms: N_19  and  C_45
    9  A    between atoms: C_20  and  C_22
   10  A    between atoms: C_27  and  C_54
   11  A    between atoms: C_29  and  C_38
   12  A    between atoms: C_35  and  C_37
   13  A    between atoms: C_35  and  N_43
   14  A    between atoms: N_43  and  C_51
   15  A    between atoms: C_51  and  C_54
                            x       y       z     vdW  Elec       q    Type
                         _______ _______ _______ _____ _____    ______ ____

>  <TORSDO>
F 15

$$$$
