=
 OpenBabel10272400283D

 31 35  0  0  1  0  0  0  0  0999 V2000
  190.1390  177.4340  146.9800 C   0  0  0  0  0  0  0  0  0  0  0  0
  188.1330  177.7660  143.8030 N   0  0  0  0  0  0  0  0  0  0  0  0
  186.7900  178.1520  144.1870 C   0  0  0  0  0  0  0  0  0  0  0  0
  184.9150  178.2740  145.7680 C   0  0  0  0  0  0  0  0  0  0  0  0
  189.1660  177.3890  144.7480 C   0  0  0  0  0  0  0  0  0  0  0  0
  191.2440  176.7130  146.5200 C   0  0  0  0  0  3  0  0  0  0  0  0
  186.3010  177.9270  145.4120 C   0  0  0  0  0  3  0  0  0  0  0  0
  189.8310  177.3350  141.9330 C   0  0  2  0  0  3  0  0  0  0  0  0
  190.0660  177.8040  148.2810 F   0  0  0  0  0  0  0  0  0  0  0  0
  186.3150  178.8030  141.9230 N   0  0  0  0  0  0  0  0  0  0  0  0
  184.4450  177.9540  146.9970 F   0  0  0  0  0  0  0  0  0  0  0  0
  190.3810  176.2540  142.8630 C   0  0  0  0  0  2  0  0  0  0  0  0
  188.4620  177.7830  142.3920 C   0  0  0  0  0  0  0  0  0  0  0  0
  189.1110  177.7740  146.0990 C   0  0  0  0  0  3  0  0  0  0  0  0
  184.1040  178.8710  144.8900 C   0  0  0  0  0  3  0  0  0  0  0  0
  190.3000  176.6870  144.2900 C   0  0  0  0  0  0  0  0  0  0  0  0
  191.3230  176.3390  145.1770 C   0  0  0  0  0  3  0  0  0  0  0  0
  187.6010  178.3150  141.5120 C   0  0  0  0  0  3  0  0  0  0  0  0
  185.9040  178.7310  143.1530 C   0  0  0  0  0  0  0  0  0  0  0  0
  184.5550  179.2850  143.5140 C   0  0  0  0  0  2  0  0  0  0  0  0
  191.8910  177.6230  139.9920 O   0  0  0  0  0  0  0  0  0  0  0  0
  190.8620  176.9840  139.6400 C   0  0  0  0  0  0  0  0  0  0  0  0
  189.7860  176.8180  140.5690 N   0  0  0  0  0  2  0  0  0  0  0  0
  190.6250  175.1940  135.7370 C   0  0  0  0  0  0  0  0  0  0  0  0
  191.4000  175.1860  138.0240 C   0  0  0  0  0  3  0  0  0  0  0  0
  189.3030  178.3140  137.3800 C   0  0  0  0  0  1  0  0  0  0  0  0
  190.5630  174.5960  134.4860 O   0  0  0  0  0  1  0  0  0  0  0  0
  191.3390  174.5840  136.7660 C   0  0  0  0  0  3  0  0  0  0  0  0
  190.0270  177.0190  137.2210 C   0  0  0  0  0  0  0  0  0  0  0  0
  190.7510  176.4070  138.2760 C   0  0  0  0  0  0  0  0  0  0  0  0
  189.9720  176.4060  135.9640 C   0  0  0  0  0  3  0  0  0  0  0  0
  1  9  1  0  0  0  0
  2  3  1  0  0  0  0
  2  5  1  0  0  0  0
  3  7  2  0  0  0  0
  4 11  1  0  0  0  0
  5 14  1  0  0  0  0
  6  1  1  0  0  0  0
  7  4  1  0  0  0  0
  8 23  1  6  0  0  0
  8 13  1  0  0  0  0
  8 12  1  0  0  0  0
 10 19  2  0  0  0  0
 12 16  1  0  0  0  0
 13  2  1  0  0  0  0
 14  1  2  0  0  0  0
 15  4  2  0  0  0  0
 16  5  2  0  0  0  0
 16 17  1  0  0  0  0
 17  6  2  0  0  0  0
 18 10  1  0  0  0  0
 18 13  2  0  0  0  0
 19 20  1  0  0  0  0
 19  3  1  0  0  0  0
 20 15  1  0  0  0  0
 22 21  2  0  0  0  0
 22 23  1  0  0  0  0
 24 31  2  0  0  0  0
 24 28  1  0  0  0  0
 25 30  1  0  0  0  0
 27 24  1  0  0  0  0
 28 25  2  0  0  0  0
 29 26  1  0  0  0  0
 29 30  2  0  0  0  0
 30 22  1  0  0  0  0
 31 29  1  0  0  0  0
M  END
>  <MODEL>
1

>  <REMARK>
 VINA RESULT:     -10.8      0.000      0.000
  Name = 
  2 active torsions:
  status: ('A' for Active; 'I' for Inactive)
    1  A    between atoms: C_9  and  C_22
    2  A    between atoms: C_15  and  N_23
                            x       y       z     vdW  Elec       q    Type
                         _______ _______ _______ _____ _____    ______ ____

>  <TORSDO>
F 2

$$$$
=
 OpenBabel10272400283D

 31 35  0  0  1  0  0  0  0  0999 V2000
  188.5950  177.7550  146.3660 C   0  0  0  0  0  0  0  0  0  0  0  0
  187.7540  177.8040  142.6900 N   0  0  0  0  0  0  0  0  0  0  0  0
  186.3570  178.1710  142.5780 C   0  0  0  0  0  0  0  0  0  0  0  0
  184.0630  178.3400  143.4370 C   0  0  0  0  0  0  0  0  0  0  0  0
  188.4190  177.5260  143.9480 C   0  0  0  0  0  0  0  0  0  0  0  0
  189.7960  177.0410  146.3530 C   0  0  0  0  0  3  0  0  0  0  0  0
  185.4910  178.0150  143.5860 C   0  0  0  0  0  3  0  0  0  0  0  0
  189.9800  177.3010  141.5230 C   0  0  2  0  0  3  0  0  0  0  0  0
  188.0920  178.2100  147.5380 F   0  0  0  0  0  0  0  0  0  0  0  0
  186.6560  178.6500  140.2420 N   0  0  0  0  0  0  0  0  0  0  0  0
  183.2140  178.0890  144.4620 F   0  0  0  0  0  0  0  0  0  0  0  0
  190.1990  176.3050  142.6620 C   0  0  0  0  0  2  0  0  0  0  0  0
  188.5330  177.7350  141.4700 C   0  0  0  0  0  0  0  0  0  0  0  0
  187.9150  178.0000  145.1720 C   0  0  0  0  0  3  0  0  0  0  0  0
  183.5840  178.8480  142.2980 C   0  0  0  0  0  3  0  0  0  0  0  0
  189.6450  176.8320  143.9450 C   0  0  0  0  0  0  0  0  0  0  0  0
  190.3180  176.5790  145.1440 C   0  0  0  0  0  3  0  0  0  0  0  0
  188.0080  178.1770  140.3170 C   0  0  0  0  0  3  0  0  0  0  0  0
  185.8600  178.6480  141.2680 C   0  0  0  0  0  0  0  0  0  0  0  0
  184.4630  179.1810  141.1210 C   0  0  0  0  0  2  0  0  0  0  0  0
  192.4810  177.7190  140.2340 O   0  0  0  0  0  0  0  0  0  0  0  0
  191.6750  176.9310  139.6700 C   0  0  0  0  0  0  0  0  0  0  0  0
  190.3950  176.6910  140.2640 N   0  0  0  0  0  2  0  0  0  0  0  0
  192.8570  174.9760  136.0260 C   0  0  0  0  0  0  0  0  0  0  0  0
  193.3950  176.0330  138.1310 C   0  0  0  0  0  3  0  0  0  0  0  0
  189.6070  176.0000  137.6290 C   0  0  0  0  0  1  0  0  0  0  0  0
  193.2640  174.3470  134.8580 O   0  0  0  0  0  1  0  0  0  0  0  0
  193.8050  175.4010  136.9560 C   0  0  0  0  0  3  0  0  0  0  0  0
  191.0760  175.8160  137.4450 C   0  0  0  0  0  0  0  0  0  0  0  0
  192.0330  176.2520  138.3980 C   0  0  0  0  0  0  0  0  0  0  0  0
  191.5000  175.1830  136.2710 C   0  0  0  0  0  3  0  0  0  0  0  0
  1  9  1  0  0  0  0
  2  5  1  0  0  0  0
  3  2  1  0  0  0  0
  3  7  2  0  0  0  0
  4  7  1  0  0  0  0
  4 11  1  0  0  0  0
  5 14  1  0  0  0  0
  6  1  1  0  0  0  0
  8 23  1  6  0  0  0
  8 12  1  0  0  0  0
 10 18  1  0  0  0  0
 10 19  2  0  0  0  0
 12 16  1  0  0  0  0
 13  8  1  0  0  0  0
 13  2  1  0  0  0  0
 14  1  2  0  0  0  0
 15  4  2  0  0  0  0
 16  5  2  0  0  0  0
 16 17  1  0  0  0  0
 17  6  2  0  0  0  0
 18 13  2  0  0  0  0
 19  3  1  0  0  0  0
 20 19  1  0  0  0  0
 20 15  1  0  0  0  0
 22 21  2  0  0  0  0
 22 23  1  0  0  0  0
 24 31  2  0  0  0  0
 24 28  1  0  0  0  0
 25 30  1  0  0  0  0
 27 24  1  0  0  0  0
 28 25  2  0  0  0  0
 29 26  1  0  0  0  0
 29 30  2  0  0  0  0
 30 22  1  0  0  0  0
 31 29  1  0  0  0  0
M  END
>  <MODEL>
2

>  <REMARK>
 VINA RESULT:      -9.5      1.479      1.783
  Name = 
  2 active torsions:
  status: ('A' for Active; 'I' for Inactive)
    1  A    between atoms: C_9  and  C_22
    2  A    between atoms: C_15  and  N_23
                            x       y       z     vdW  Elec       q    Type
                         _______ _______ _______ _____ _____    ______ ____

>  <TORSDO>
F 2

$$$$
=
 OpenBabel10272400283D

 31 35  0  0  1  0  0  0  0  0999 V2000
  182.6150  179.0350  140.3100 C   0  0  0  0  0  0  0  0  0  0  0  0
  186.3220  178.3750  140.0870 N   0  0  0  0  0  0  0  0  0  0  0  0
  186.6400  178.2080  138.6830 C   0  0  0  0  0  0  0  0  0  0  0  0
  186.0720  177.6480  136.3610 C   0  0  0  0  0  0  0  0  0  0  0  0
  184.9710  178.4920  140.6000 C   0  0  0  0  0  0  0  0  0  0  0  0
  182.3860  178.7950  141.6670 C   0  0  0  0  0  3  0  0  0  0  0  0
  185.7200  177.8680  137.7740 C   0  0  0  0  0  3  0  0  0  0  0  0
  187.1470  178.5670  142.5050 C   0  0  2  0  0  3  0  0  0  0  0  0
  181.5910  179.4090  139.5060 F   0  0  0  0  0  0  0  0  0  0  0  0
  188.9760  178.5000  139.1640 N   0  0  0  0  0  0  0  0  0  0  0  0
  185.1170  177.2270  135.4970 F   0  0  0  0  0  0  0  0  0  0  0  0
  185.8480  177.8460  142.8650 C   0  0  0  0  0  2  0  0  0  0  0  0
  187.4250  178.4510  141.0230 C   0  0  0  0  0  0  0  0  0  0  0  0
  183.9000  178.8890  139.7820 C   0  0  0  0  0  3  0  0  0  0  0  0
  187.3220  177.8240  135.9230 C   0  0  0  0  0  3  0  0  0  0  0  0
  184.7320  178.2810  141.9730 C   0  0  0  0  0  0  0  0  0  0  0  0
  183.4430  178.4180  142.4960 C   0  0  0  0  0  3  0  0  0  0  0  0
  188.6830  178.5480  140.5680 C   0  0  0  0  0  3  0  0  0  0  0  0
  188.0550  178.3300  138.2650 C   0  0  0  0  0  0  0  0  0  0  0  0
  188.4350  178.3140  136.8120 C   0  0  0  0  0  2  0  0  0  0  0  0
  187.2230  178.4070  145.3450 O   0  0  0  0  0  0  0  0  0  0  0  0
  188.2160  177.9430  144.7220 C   0  0  0  0  0  0  0  0  0  0  0  0
  188.2420  178.0080  143.2920 N   0  0  0  0  0  2  0  0  0  0  0  0
  191.6020  176.1750  146.6980 C   0  0  0  0  0  0  0  0  0  0  0  0
  190.4970  176.9790  144.7060 C   0  0  0  0  0  3  0  0  0  0  0  0
  188.2080  177.4380  147.7310 C   0  0  0  0  0  1  0  0  0  0  0  0
  192.7070  175.6040  147.3120 O   0  0  0  0  0  1  0  0  0  0  0  0
  191.6090  176.4040  145.3230 C   0  0  0  0  0  3  0  0  0  0  0  0
  189.3630  177.0990  146.8480 C   0  0  0  0  0  0  0  0  0  0  0  0
  189.3600  177.3360  145.4500 C   0  0  0  0  0  0  0  0  0  0  0  0
  190.4840  176.5220  147.4560 C   0  0  0  0  0  3  0  0  0  0  0  0
  1  6  1  0  0  0  0
  2  5  1  0  0  0  0
  2 13  1  0  0  0  0
  3  2  1  0  0  0  0
  4  7  1  0  0  0  0
  5 16  2  0  0  0  0
  6 17  2  0  0  0  0
  7  3  2  0  0  0  0
  8 12  1  0  0  0  0
  8 23  1  1  0  0  0
  9  1  1  0  0  0  0
 10 18  1  0  0  0  0
 11  4  1  0  0  0  0
 13  8  1  0  0  0  0
 14  1  2  0  0  0  0
 14  5  1  0  0  0  0
 15  4  2  0  0  0  0
 15 20  1  0  0  0  0
 16 17  1  0  0  0  0
 16 12  1  0  0  0  0
 18 13  2  0  0  0  0
 19  3  1  0  0  0  0
 19 10  2  0  0  0  0
 20 19  1  0  0  0  0
 22 21  2  0  0  0  0
 22 30  1  0  0  0  0
 23 22  1  0  0  0  0
 24 27  1  0  0  0  0
 24 31  1  0  0  0  0
 25 28  1  0  0  0  0
 25 30  2  0  0  0  0
 28 24  2  0  0  0  0
 29 31  2  0  0  0  0
 29 26  1  0  0  0  0
 30 29  1  0  0  0  0
M  END
>  <MODEL>
3

>  <REMARK>
 VINA RESULT:      -8.9      4.217      8.121
  Name = 
  2 active torsions:
  status: ('A' for Active; 'I' for Inactive)
    1  A    between atoms: C_9  and  C_22
    2  A    between atoms: C_15  and  N_23
                            x       y       z     vdW  Elec       q    Type
                         _______ _______ _______ _____ _____    ______ ____

>  <TORSDO>
F 2

$$$$
=
 OpenBabel10272400283D

 31 35  0  0  1  0  0  0  0  0999 V2000
  181.2800  179.1880  142.2820 C   0  0  0  0  0  0  0  0  0  0  0  0
  184.8160  178.4110  141.2240 N   0  0  0  0  0  0  0  0  0  0  0  0
  184.7880  178.1650  139.7960 C   0  0  0  0  0  0  0  0  0  0  0  0
  183.6740  177.5040  137.7100 C   0  0  0  0  0  0  0  0  0  0  0  0
  183.6290  178.5930  142.0360 C   0  0  0  0  0  0  0  0  0  0  0  0
  181.3770  179.0240  143.6660 C   0  0  0  0  0  3  0  0  0  0  0  0
  183.6720  177.8060  139.1520 C   0  0  0  0  0  3  0  0  0  0  0  0
  186.1960  178.7020  143.3640 C   0  0  2  0  0  3  0  0  0  0  0  0
  180.1000  179.5510  141.7240 F   0  0  0  0  0  0  0  0  0  0  0  0
  187.1760  178.4130  139.6930 N   0  0  0  0  0  0  0  0  0  0  0  0
  182.5340  177.0690  137.1220 F   0  0  0  0  0  0  0  0  0  0  0  0
  185.0090  178.0380  144.0610 C   0  0  0  0  0  2  0  0  0  0  0  0
  186.1110  178.5030  141.8670 C   0  0  0  0  0  0  0  0  0  0  0  0
  182.3990  178.9790  141.4740 C   0  0  0  0  0  3  0  0  0  0  0  0
  184.7860  177.6220  136.9800 C   0  0  0  0  0  3  0  0  0  0  0  0
  183.7200  178.4590  143.4360 C   0  0  0  0  0  0  0  0  0  0  0  0
  182.5950  178.6590  144.2410 C   0  0  0  0  0  3  0  0  0  0  0  0
  187.2260  178.5410  141.1220 C   0  0  0  0  0  3  0  0  0  0  0  0
  186.0640  178.2250  139.0490 C   0  0  0  0  0  0  0  0  0  0  0  0
  186.0860  178.1240  137.5500 C   0  0  0  0  0  2  0  0  0  0  0  0
  186.8560  178.4990  146.1240 O   0  0  0  0  0  0  0  0  0  0  0  0
  187.7070  178.0650  145.3020 C   0  0  0  0  0  0  0  0  0  0  0  0
  187.4380  178.1520  143.8980 N   0  0  0  0  0  2  0  0  0  0  0  0
  191.4600  176.3450  146.5100 C   0  0  0  0  0  0  0  0  0  0  0  0
  189.9970  177.2550  144.8160 C   0  0  0  0  0  3  0  0  0  0  0  0
  188.2320  177.2880  148.2050 C   0  0  0  0  0  1  0  0  0  0  0  0
  192.6790  175.7930  146.8740 O   0  0  0  0  0  1  0  0  0  0  0  0
  191.2230  176.6980  145.1820 C   0  0  0  0  0  3  0  0  0  0  0  0
  189.2360  177.1060  147.1170 C   0  0  0  0  0  0  0  0  0  0  0  0
  188.9850  177.4680  145.7680 C   0  0  0  0  0  0  0  0  0  0  0  0
  190.4700  176.5490  147.4710 C   0  0  0  0  0  3  0  0  0  0  0  0
  1  6  1  0  0  0  0
  2 13  1  0  0  0  0
  2  5  1  0  0  0  0
  3  2  1  0  0  0  0
  4  7  1  0  0  0  0
  5 16  2  0  0  0  0
  6 17  2  0  0  0  0
  7  3  2  0  0  0  0
  8 23  1  1  0  0  0
  8 12  1  0  0  0  0
  9  1  1  0  0  0  0
 10 18  1  0  0  0  0
 11  4  1  0  0  0  0
 13  8  1  0  0  0  0
 14  5  1  0  0  0  0
 14  1  2  0  0  0  0
 15 20  1  0  0  0  0
 15  4  2  0  0  0  0
 16 12  1  0  0  0  0
 16 17  1  0  0  0  0
 18 13  2  0  0  0  0
 19 10  2  0  0  0  0
 19  3  1  0  0  0  0
 20 19  1  0  0  0  0
 22 30  1  0  0  0  0
 22 21  2  0  0  0  0
 23 22  1  0  0  0  0
 24 27  1  0  0  0  0
 24 31  1  0  0  0  0
 25 28  1  0  0  0  0
 25 30  2  0  0  0  0
 28 24  2  0  0  0  0
 29 31  2  0  0  0  0
 29 26  1  0  0  0  0
 30 29  1  0  0  0  0
M  END
>  <MODEL>
4

>  <REMARK>
 VINA RESULT:      -8.8      4.580      7.989
  Name = 
  2 active torsions:
  status: ('A' for Active; 'I' for Inactive)
    1  A    between atoms: C_9  and  C_22
    2  A    between atoms: C_15  and  N_23
                            x       y       z     vdW  Elec       q    Type
                         _______ _______ _______ _____ _____    ______ ____

>  <TORSDO>
F 2

$$$$
=
 OpenBabel10272400283D

 31 35  0  0  1  0  0  0  0  0999 V2000
  186.8260  177.6400  146.2280 C   0  0  0  0  0  0  0  0  0  0  0  0
  187.1530  178.1660  142.5070 N   0  0  0  0  0  0  0  0  0  0  0  0
  188.5530  177.9970  142.1750 C   0  0  0  0  0  0  0  0  0  0  0  0
  190.9480  178.0150  142.7160 C   0  0  0  0  0  0  0  0  0  0  0  0
  186.6410  178.1940  143.8630 C   0  0  0  0  0  0  0  0  0  0  0  0
  185.5630  178.1910  146.4610 C   0  0  0  0  0  3  0  0  0  0  0  0
  189.5270  178.1330  143.0820 C   0  0  0  0  0  3  0  0  0  0  0  0
  184.7460  178.5240  141.7030 C   0  0  2  0  0  3  0  0  0  0  0  0
  187.5320  177.1080  147.2530 F   0  0  0  0  0  0  0  0  0  0  0  0
  187.9910  177.7830  139.8490 N   0  0  0  0  0  0  0  0  0  0  0  0
  191.8970  178.2400  143.6560 F   0  0  0  0  0  0  0  0  0  0  0  0
  184.5780  179.3310  142.9900 C   0  0  0  0  0  2  0  0  0  0  0  0
  186.2110  178.2880  141.4120 C   0  0  0  0  0  0  0  0  0  0  0  0
  187.3580  177.6370  144.9360 C   0  0  0  0  0  3  0  0  0  0  0  0
  191.3190  177.7200  141.4670 C   0  0  0  0  0  3  0  0  0  0  0  0
  185.3570  178.7210  144.1080 C   0  0  0  0  0  0  0  0  0  0  0  0
  184.8310  178.7320  145.4030 C   0  0  0  0  0  3  0  0  0  0  0  0
  186.6170  178.0660  140.1530 C   0  0  0  0  0  3  0  0  0  0  0  0
  188.9150  177.7570  140.7610 C   0  0  0  0  0  0  0  0  0  0  0  0
  190.3290  177.4300  140.3700 C   0  0  0  0  0  2  0  0  0  0  0  0
  182.1550  177.9530  140.6760 O   0  0  0  0  0  0  0  0  0  0  0  0
  182.7830  178.9040  140.1390 C   0  0  0  0  0  0  0  0  0  0  0  0
  184.0980  179.2300  140.6020 N   0  0  0  0  0  2  0  0  0  0  0  0
  181.0430  181.2950  137.0160 C   0  0  0  0  0  0  0  0  0  0  0  0
  181.9210  181.0500  139.2520 C   0  0  0  0  0  3  0  0  0  0  0  0
  182.0910  177.7010  137.4210 C   0  0  0  0  0  1  0  0  0  0  0  0
  180.4830  182.0880  136.0240 O   0  0  0  0  0  1  0  0  0  0  0  0
  181.3570  181.8480  138.2560 C   0  0  0  0  0  3  0  0  0  0  0  0
  181.8580  179.1340  137.7630 C   0  0  0  0  0  0  0  0  0  0  0  0
  182.1810  179.6870  139.0290 C   0  0  0  0  0  0  0  0  0  0  0  0
  181.2930  179.9450  136.7720 C   0  0  0  0  0  3  0  0  0  0  0  0
  1  6  1  0  0  0  0
  1  9  1  0  0  0  0
  2  5  1  0  0  0  0
  3  2  1  0  0  0  0
  3  7  2  0  0  0  0
  4  7  1  0  0  0  0
  4 11  1  0  0  0  0
  5 16  2  0  0  0  0
  5 14  1  0  0  0  0
  8 23  1  6  0  0  0
  8 12  1  0  0  0  0
 10 18  1  0  0  0  0
 10 19  2  0  0  0  0
 12 16  1  0  0  0  0
 13  8  1  0  0  0  0
 13  2  1  0  0  0  0
 14  1  2  0  0  0  0
 15  4  2  0  0  0  0
 16 17  1  0  0  0  0
 17  6  2  0  0  0  0
 18 13  2  0  0  0  0
 19  3  1  0  0  0  0
 20 19  1  0  0  0  0
 20 15  1  0  0  0  0
 22 23  1  0  0  0  0
 22 21  2  0  0  0  0
 24 28  1  0  0  0  0
 26 29  1  0  0  0  0
 27 24  1  0  0  0  0
 28 25  2  0  0  0  0
 29 30  2  0  0  0  0
 30 25  1  0  0  0  0
 30 22  1  0  0  0  0
 31 24  2  0  0  0  0
 31 29  1  0  0  0  0
M  END
>  <MODEL>
5

>  <REMARK>
 VINA RESULT:      -8.8      4.541      7.111
  Name = 
  2 active torsions:
  status: ('A' for Active; 'I' for Inactive)
    1  A    between atoms: C_9  and  C_22
    2  A    between atoms: C_15  and  N_23
                            x       y       z     vdW  Elec       q    Type
                         _______ _______ _______ _____ _____    ______ ____

>  <TORSDO>
F 2

$$$$
=
 OpenBabel10272400283D

 31 35  0  0  1  0  0  0  0  0999 V2000
  186.7520  178.1430  136.7400 C   0  0  0  0  0  0  0  0  0  0  0  0
  185.1540  178.5420  140.1330 N   0  0  0  0  0  0  0  0  0  0  0  0
  183.7940  178.9880  139.9130 C   0  0  2  0  0  3  0  0  0  0  0  0
  182.0370  180.0900  138.5970 C   0  0  0  0  0  0  0  0  0  0  0  0
  186.1460  178.4210  139.0820 C   0  0  0  0  0  0  0  0  0  0  0  0
  188.1040  178.0950  137.0890 C   0  0  0  0  0  3  0  0  0  0  0  0
  183.4100  179.5920  138.7820 C   0  0  0  0  0  3  0  0  0  0  0  0
  186.9560  177.7560  141.7790 C   0  0  2  0  0  3  0  0  0  0  0  0
  186.3840  178.0370  135.4410 F   0  0  0  0  0  0  0  0  0  0  0  0
  183.2240  178.4140  142.1760 N   0  0  0  0  0  0  0  0  0  0  0  0
  181.7220  180.7640  137.4660 F   0  0  0  0  0  0  0  0  0  0  0  0
  187.9300  178.4800  140.8500 C   0  0  0  0  0  2  0  0  0  0  0  0
  185.5330  178.1730  141.4830 C   0  0  0  0  0  0  0  0  0  0  0  0
  185.7800  178.3000  137.7300 C   0  0  0  0  0  3  0  0  0  0  0  0
  181.1060  179.9160  139.5390 C   0  0  0  0  0  3  0  0  0  0  0  0
  187.5110  178.3420  139.4230 C   0  0  0  0  0  0  0  0  0  0  0  0
  188.4820  178.1950  138.4290 C   0  0  0  0  0  3  0  0  0  0  0  0
  184.5950  178.0800  142.4380 C   0  0  0  0  0  3  0  0  0  0  0  0
  182.8220  178.8500  141.0210 C   0  0  0  0  0  0  0  0  0  0  0  0
  181.3660  179.1560  140.8130 C   0  0  0  0  0  3  0  0  0  0  0  0
  187.8600  175.8370  143.6740 O   0  0  0  0  0  0  0  0  0  0  0  0
  187.7730  177.0310  144.0700 C   0  0  0  0  0  0  0  0  0  0  0  0
  187.3110  178.0400  143.1650 N   0  0  0  0  0  2  0  0  0  0  0  0
  188.9790  178.0760  148.0630 C   0  0  0  0  0  0  0  0  0  0  0  0
  189.4870  177.2830  145.8400 C   0  0  0  0  0  3  0  0  0  0  0  0
  185.7520  178.0380  146.1220 C   0  0  0  0  0  1  0  0  0  0  0  0
  189.3930  178.4070  149.3460 O   0  0  0  0  0  1  0  0  0  0  0  0
  189.9050  177.6150  147.1290 C   0  0  0  0  0  3  0  0  0  0  0  0
  187.2050  177.8740  146.4190 C   0  0  0  0  0  0  0  0  0  0  0  0
  188.1400  177.4040  145.4600 C   0  0  0  0  0  0  0  0  0  0  0  0
  187.6360  178.2040  147.7080 C   0  0  0  0  0  3  0  0  0  0  0  0
  1  6  2  0  0  0  0
  1 14  1  0  0  0  0
  2 13  1  0  0  0  0
  3  7  1  1  0  0  0
  3  2  1  0  0  0  0
  3 19  1  0  0  0  0
  4  7  2  0  0  0  0
  4 15  1  0  0  0  0
  5 16  1  0  0  0  0
  5  2  1  0  0  0  0
  6 17  1  0  0  0  0
  8 23  1  1  0  0  0
  9  1  1  0  0  0  0
 10 18  1  0  0  0  0
 11  4  1  0  0  0  0
 12  8  1  0  0  0  0
 13  8  1  0  0  0  0
 13 18  2  0  0  0  0
 14  5  2  0  0  0  0
 15 20  2  0  0  0  0
 16 12  1  0  0  0  0
 17 16  2  0  0  0  0
 19 10  2  0  0  0  0
 20 19  1  0  0  0  0
 21 22  2  0  0  0  0
 22 30  1  0  0  0  0
 23 22  1  0  0  0  0
 24 27  1  0  0  0  0
 25 28  1  0  0  0  0
 26 29  1  0  0  0  0
 28 24  2  0  0  0  0
 29 31  2  0  0  0  0
 30 25  2  0  0  0  0
 30 29  1  0  0  0  0
 31 24  1  0  0  0  0
M  END
>  <MODEL>
6

>  <REMARK>
 VINA RESULT:      -8.7      4.278      8.155
  Name = 
  2 active torsions:
  status: ('A' for Active; 'I' for Inactive)
    1  A    between atoms: C_9  and  C_22
    2  A    between atoms: C_15  and  N_23
                            x       y       z     vdW  Elec       q    Type
                         _______ _______ _______ _____ _____    ______ ____

>  <TORSDO>
F 2

$$$$
=
 OpenBabel10272400283D

 31 35  0  0  1  0  0  0  0  0999 V2000
  185.2560  178.4210  143.7030 C   0  0  0  0  0  0  0  0  0  0  0  0
  188.8550  177.3240  143.4330 N   0  0  0  0  0  0  0  0  0  0  0  0
  189.3790  177.2490  144.7820 C   0  0  2  0  0  3  0  0  0  0  0  0
  189.4080  177.8750  147.1560 C   0  0  0  0  0  0  0  0  0  0  0  0
  187.5480  177.8570  143.1020 C   0  0  0  0  0  0  0  0  0  0  0  0
  185.0010  178.8130  142.3860 C   0  0  0  0  0  3  0  0  0  0  0  0
  188.8290  177.9160  145.8030 C   0  0  0  0  0  3  0  0  0  0  0  0
  189.2080  176.9160  140.9270 C   0  0  2  0  0  3  0  0  0  0  0  0
  184.2780  178.5040  144.6360 F   0  0  0  0  0  0  0  0  0  0  0  0
  191.2510  175.9630  143.9980 N   0  0  0  0  0  0  0  0  0  0  0  0
  188.8600  178.6310  148.1370 F   0  0  0  0  0  0  0  0  0  0  0  0
  188.3460  178.1640  140.7390 C   0  0  0  0  0  2  0  0  0  0  0  0
  189.6810  176.8100  142.3590 C   0  0  0  0  0  0  0  0  0  0  0  0
  186.5190  177.9410  144.0560 C   0  0  0  0  0  3  0  0  0  0  0  0
  190.4840  177.1290  147.4260 C   0  0  0  0  0  3  0  0  0  0  0  0
  187.2690  178.2300  141.7720 C   0  0  0  0  0  0  0  0  0  0  0  0
  186.0070  178.7190  141.4230 C   0  0  0  0  0  3  0  0  0  0  0  0
  190.8020  176.1310  142.6450 C   0  0  0  0  0  3  0  0  0  0  0  0
  190.6220  176.4790  145.0100 C   0  0  0  0  0  0  0  0  0  0  0  0
  191.1380  176.2410  146.4010 C   0  0  0  0  0  3  0  0  0  0  0  0
  189.4420  175.3930  138.5360 O   0  0  0  0  0  0  0  0  0  0  0  0
  190.3890  176.1810  138.8040 C   0  0  0  0  0  0  0  0  0  0  0  0
  190.3340  176.9640  140.0010 N   0  0  0  0  0  2  0  0  0  0  0  0
  193.8660  176.5700  136.3040 C   0  0  0  0  0  0  0  0  0  0  0  0
  192.8050  176.6130  138.4730 C   0  0  0  0  0  3  0  0  0  0  0  0
  190.2170  175.8010  135.7820 C   0  0  0  0  0  1  0  0  0  0  0  0
  195.0030  176.7010  135.5180 O   0  0  0  0  0  1  0  0  0  0  0  0
  193.9490  176.7460  137.6840 C   0  0  0  0  0  3  0  0  0  0  0  0
  191.4870  176.1290  136.4930 C   0  0  0  0  0  0  0  0  0  0  0  0
  191.5600  176.3050  137.8990 C   0  0  0  0  0  0  0  0  0  0  0  0
  192.6410  176.2630  135.7120 C   0  0  0  0  0  3  0  0  0  0  0  0
  1 14  1  0  0  0  0
  1  9  1  0  0  0  0
  2  3  1  0  0  0  0
  3 19  1  0  0  0  0
  3  7  1  6  0  0  0
  4 15  1  0  0  0  0
  4 11  1  0  0  0  0
  5  2  1  0  0  0  0
  5 14  2  0  0  0  0
  6  1  2  0  0  0  0
  7  4  2  0  0  0  0
  8 23  1  6  0  0  0
  8 13  1  0  0  0  0
 10 19  2  0  0  0  0
 12  8  1  0  0  0  0
 12 16  1  0  0  0  0
 13 18  2  0  0  0  0
 13  2  1  0  0  0  0
 16  5  1  0  0  0  0
 17 16  2  0  0  0  0
 17  6  1  0  0  0  0
 18 10  1  0  0  0  0
 19 20  1  0  0  0  0
 20 15  2  0  0  0  0
 21 22  2  0  0  0  0
 22 23  1  0  0  0  0
 24 28  1  0  0  0  0
 26 29  1  0  0  0  0
 27 24  1  0  0  0  0
 28 25  2  0  0  0  0
 29 30  2  0  0  0  0
 30 25  1  0  0  0  0
 30 22  1  0  0  0  0
 31 24  2  0  0  0  0
 31 29  1  0  0  0  0
M  END
>  <MODEL>
7

>  <REMARK>
 VINA RESULT:      -8.7      1.850      4.350
  Name = 
  2 active torsions:
  status: ('A' for Active; 'I' for Inactive)
    1  A    between atoms: C_9  and  C_22
    2  A    between atoms: C_15  and  N_23
                            x       y       z     vdW  Elec       q    Type
                         _______ _______ _______ _____ _____    ______ ____

>  <TORSDO>
F 2

$$$$
=
 OpenBabel10272400283D

 31 35  0  0  1  0  0  0  0  0999 V2000
  191.4730  177.9990  143.7780 C   0  0  0  0  0  0  0  0  0  0  0  0
  187.7840  178.1420  143.0050 N   0  0  0  0  0  0  0  0  0  0  0  0
  187.0840  178.1600  144.2740 C   0  0  2  0  0  3  0  0  0  0  0  0
  186.8930  177.6840  146.6750 C   0  0  0  0  0  0  0  0  0  0  0  0
  189.2120  177.9350  142.8730 C   0  0  0  0  0  0  0  0  0  0  0  0
  191.9870  177.6080  142.5390 C   0  0  0  0  0  3  0  0  0  0  0  0
  187.6390  177.7110  145.4060 C   0  0  0  0  0  3  0  0  0  0  0  0
  187.6770  178.3040  140.4500 C   0  0  2  0  0  3  0  0  0  0  0  0
  192.3100  178.2170  144.8200 F   0  0  0  0  0  0  0  0  0  0  0  0
  185.0770  178.8890  143.1730 N   0  0  0  0  0  0  0  0  0  0  0  0
  187.4740  177.1470  147.7750 F   0  0  0  0  0  0  0  0  0  0  0  0
  188.8320  177.3030  140.4710 C   0  0  0  0  0  2  0  0  0  0  0  0
  187.0070  178.3700  141.8040 C   0  0  0  0  0  0  0  0  0  0  0  0
  190.0960  178.1660  143.9420 C   0  0  0  0  0  3  0  0  0  0  0  0
  185.6440  178.1500  146.7550 C   0  0  0  0  0  3  0  0  0  0  0  0
  189.7460  177.5690  141.6210 C   0  0  0  0  0  0  0  0  0  0  0  0
  191.1240  177.3920  141.4630 C   0  0  0  0  0  3  0  0  0  0  0  0
  185.7270  178.7620  141.9000 C   0  0  0  0  0  3  0  0  0  0  0  0
  185.6730  178.6060  144.2910 C   0  0  0  0  0  0  0  0  0  0  0  0
  184.9360  178.7870  145.5880 C   0  0  0  0  0  3  0  0  0  0  0  0
  187.9330  178.9090  137.6820 O   0  0  0  0  0  0  0  0  0  0  0  0
  186.9180  178.2450  138.0280 C   0  0  0  0  0  0  0  0  0  0  0  0
  186.7270  177.9230  139.4100 N   0  0  0  0  0  2  0  0  0  0  0  0
  183.9150  176.9630  135.2300 C   0  0  0  0  0  0  0  0  0  0  0  0
  184.5810  177.6770  137.4390 C   0  0  0  0  0  3  0  0  0  0  0  0
  187.6280  177.5850  135.1350 C   0  0  0  0  0  1  0  0  0  0  0  0
  182.9270  176.5520  134.3460 O   0  0  0  0  0  1  0  0  0  0  0  0
  183.5870  177.2620  136.5510 C   0  0  0  0  0  3  0  0  0  0  0  0
  186.2410  177.4910  135.6780 C   0  0  0  0  0  0  0  0  0  0  0  0
  185.9180  177.7990  137.0250 C   0  0  0  0  0  0  0  0  0  0  0  0
  185.2360  177.0770  134.7970 C   0  0  0  0  0  3  0  0  0  0  0  0
  1 14  1  0  0  0  0
  1  9  1  0  0  0  0
  2  3  1  0  0  0  0
  3 19  1  0  0  0  0
  3  7  1  6  0  0  0
  4 15  1  0  0  0  0
  4 11  1  0  0  0  0
  5  2  1  0  0  0  0
  5 14  2  0  0  0  0
  6  1  2  0  0  0  0
  7  4  2  0  0  0  0
  8 23  1  6  0  0  0
  8 12  1  0  0  0  0
  8 13  1  0  0  0  0
 10 19  2  0  0  0  0
 12 16  1  0  0  0  0
 13 18  2  0  0  0  0
 13  2  1  0  0  0  0
 16  5  1  0  0  0  0
 17 16  2  0  0  0  0
 17  6  1  0  0  0  0
 18 10  1  0  0  0  0
 19 20  1  0  0  0  0
 20 15  2  0  0  0  0
 21 22  2  0  0  0  0
 22 23  1  0  0  0  0
 24 28  1  0  0  0  0
 26 29  1  0  0  0  0
 27 24  1  0  0  0  0
 28 25  2  0  0  0  0
 29 30  2  0  0  0  0
 30 25  1  0  0  0  0
 30 22  1  0  0  0  0
 31 24  2  0  0  0  0
 31 29  1  0  0  0  0
M  END
>  <MODEL>
8

>  <REMARK>
 VINA RESULT:      -8.6      3.123      4.011
  Name = 
  2 active torsions:
  status: ('A' for Active; 'I' for Inactive)
    1  A    between atoms: C_9  and  C_22
    2  A    between atoms: C_15  and  N_23
                            x       y       z     vdW  Elec       q    Type
                         _______ _______ _______ _____ _____    ______ ____

>  <TORSDO>
F 2

$$$$
=
 OpenBabel10272400283D

 31 35  0  0  1  0  0  0  0  0999 V2000
  184.5740  178.6970  138.4560 C   0  0  0  0  0  0  0  0  0  0  0  0
  188.0130  177.5270  139.4720 N   0  0  0  0  0  0  0  0  0  0  0  0
  188.5250  176.7170  138.3850 C   0  0  0  0  0  0  0  0  0  0  0  0
  188.2560  175.2660  136.4220 C   0  0  0  0  0  0  0  0  0  0  0  0
  186.6560  178.0350  139.5320 C   0  0  0  0  0  0  0  0  0  0  0  0
  184.0630  179.1150  139.6870 C   0  0  0  0  0  3  0  0  0  0  0  0
  187.7240  176.1330  137.4870 C   0  0  0  0  0  3  0  0  0  0  0  0
  188.4260  178.6600  141.7340 C   0  0  2  0  0  3  0  0  0  0  0  0
  183.8190  178.8070  137.3370 F   0  0  0  0  0  0  0  0  0  0  0  0
  190.7450  176.8820  139.2890 N   0  0  0  0  0  0  0  0  0  0  0  0
  187.3970  174.6360  135.5870 F   0  0  0  0  0  0  0  0  0  0  0  0
  186.9540  178.3500  142.0070 C   0  0  0  0  0  2  0  0  0  0  0  0
  188.9230  177.8650  140.5470 C   0  0  0  0  0  0  0  0  0  0  0  0
  185.8630  178.1660  138.3780 C   0  0  0  0  0  3  0  0  0  0  0  0
  189.5700  175.0650  136.2860 C   0  0  0  0  0  3  0  0  0  0  0  0
  186.1400  178.4870  140.7630 C   0  0  0  0  0  0  0  0  0  0  0  0
  184.8450  179.0090  140.8380 C   0  0  0  0  0  3  0  0  0  0  0  0
  190.2300  177.5850  140.4300 C   0  0  0  0  0  3  0  0  0  0  0  0
  189.9800  176.4550  138.3310 C   0  0  0  0  0  0  0  0  0  0  0  0
  190.5930  175.7470  137.1560 C   0  0  0  0  0  2  0  0  0  0  0  0
  188.0810  176.3940  143.4190 O   0  0  0  0  0  0  0  0  0  0  0  0
  188.9970  177.2020  143.7310 C   0  0  0  0  0  0  0  0  0  0  0  0
  189.2090  178.3690  142.9300 N   0  0  0  0  0  2  0  0  0  0  0  0
  191.5900  176.4630  147.0820 C   0  0  0  0  0  0  0  0  0  0  0  0
  191.1510  176.4650  144.7070 C   0  0  0  0  0  3  0  0  0  0  0  0
  188.0800  177.7350  146.5920 C   0  0  0  0  0  1  0  0  0  0  0  0
  192.4460  176.2160  148.1460 O   0  0  0  0  0  1  0  0  0  0  0  0
  192.0120  176.2160  145.7760 C   0  0  0  0  0  3  0  0  0  0  0  0
  189.4350  177.2090  146.2530 C   0  0  0  0  0  0  0  0  0  0  0  0
  189.8540  176.9630  144.9210 C   0  0  0  0  0  0  0  0  0  0  0  0
  190.3070  176.9570  147.3170 C   0  0  0  0  0  3  0  0  0  0  0  0
  1  6  1  0  0  0  0
  2  5  1  0  0  0  0
  2 13  1  0  0  0  0
  3  2  1  0  0  0  0
  4  7  1  0  0  0  0
  5 16  2  0  0  0  0
  6 17  2  0  0  0  0
  7  3  2  0  0  0  0
  8 12  1  0  0  0  0
  8 23  1  1  0  0  0
  9  1  1  0  0  0  0
 10 18  1  0  0  0  0
 11  4  1  0  0  0  0
 13  8  1  0  0  0  0
 14  1  2  0  0  0  0
 14  5  1  0  0  0  0
 15  4  2  0  0  0  0
 15 20  1  0  0  0  0
 16 17  1  0  0  0  0
 16 12  1  0  0  0  0
 18 13  2  0  0  0  0
 19  3  1  0  0  0  0
 19 10  2  0  0  0  0
 20 19  1  0  0  0  0
 21 22  2  0  0  0  0
 22 30  1  0  0  0  0
 23 22  1  0  0  0  0
 24 31  1  0  0  0  0
 24 27  1  0  0  0  0
 25 30  2  0  0  0  0
 25 28  1  0  0  0  0
 28 24  2  0  0  0  0
 29 26  1  0  0  0  0
 29 31  2  0  0  0  0
 30 29  1  0  0  0  0
M  END
>  <MODEL>
9

>  <REMARK>
 VINA RESULT:      -8.6      3.846      8.284
  Name = 
  2 active torsions:
  status: ('A' for Active; 'I' for Inactive)
    1  A    between atoms: C_9  and  C_22
    2  A    between atoms: C_15  and  N_23
                            x       y       z     vdW  Elec       q    Type
                         _______ _______ _______ _____ _____    ______ ____

>  <TORSDO>
F 2

$$$$
