=
 OpenBabel10272415313D

 34 34  0  0  1  0  0  0  0  0999 V2000
  186.7220  178.6640  141.3020 C   0  0  0  0  0  0  0  0  0  0  0  0
  187.9340  178.7670  141.6240 O   0  0  0  0  0  0  0  0  0  0  0  0
  185.8020  178.2670  142.2810 O   0  0  0  0  0  0  0  0  0  0  0  0
  185.7810  178.7890  143.6040 C   0  0  2  0  0  3  0  0  0  0  0  0
  185.8550  177.6390  144.6000 C   0  0  0  0  0  2  0  0  0  0  0  0
  189.5290  176.9970  146.7990 C   0  0  2  0  0  3  0  0  0  0  0  0
  189.7010  177.4260  145.3450 C   0  0  0  0  0  2  0  0  0  0  0  0
  188.4070  177.1770  144.5720 C   0  0  0  0  0  2  0  0  0  0  0  0
  187.1820  177.8540  146.6420 C   0  0  0  0  0  3  0  0  0  0  0  0
  187.1680  177.6260  145.3180 C   0  0  0  0  0  0  0  0  0  0  0  0
  188.4460  177.8490  147.4590 C   0  0  0  0  0  2  0  0  0  0  0  0
  190.7590  177.0930  147.5130 O   0  0  0  0  0  0  0  0  0  0  0  0
  192.2480  175.5660  146.5170 C   0  0  0  0  0  2  0  0  0  0  0  0
  191.6500  176.0240  147.6060 C   0  0  0  0  0  3  0  0  0  0  0  0
  184.4960  179.5760  143.8310 C   0  0  0  0  0  2  0  0  0  0  0  0
  182.1220  178.8490  143.9940 C   0  0  0  0  0  1  0  0  0  0  0  0
  183.3270  178.9610  143.0810 C   0  0  0  0  0  2  0  0  0  0  0  0
  186.3590  178.9410  139.9760 O   0  0  0  0  0  0  0  0  0  0  0  0
  185.3390  178.2410  139.2730 C   0  0  1  0  0  3  0  0  0  0  0  0
  182.9170  178.6180  138.6980 O   0  0  0  0  0  0  0  0  0  0  0  0
  184.1620  179.1410  139.0310 C   0  0  0  0  0  0  0  0  0  0  0  0
  184.2930  180.3860  139.1620 O   0  0  0  0  0  1  0  0  0  0  0  0
  185.8860  177.6630  137.9680 C   0  0  0  0  0  2  0  0  0  0  0  0
  187.3230  178.1120  137.6640 C   0  0  1  0  0  3  0  0  0  0  0  0
  188.1690  176.9400  137.1480 C   0  0  2  0  0  3  0  0  0  0  0  0
  187.4650  175.6130  137.3910 C   0  0  0  0  0  1  0  0  0  0  0  0
  189.5130  176.9110  137.7350 N   0  0  0  0  0  0  0  0  0  0  0  0
  190.4610  175.9100  137.3370 C   0  0  0  0  0  3  0  0  0  0  0  0
  191.0160  175.8980  136.1310 C   0  0  0  0  0  2  0  0  0  0  0  0
  189.8170  177.7110  138.9200 C   0  0  0  0  0  2  0  0  0  0  0  0
  191.4890  177.3610  140.6970 C   0  0  0  0  0  2  0  0  0  0  0  0
  190.4780  176.8820  139.9760 C   0  0  0  0  0  3  0  0  0  0  0  0
  187.3240  179.1770  136.7530 O   0  0  0  0  0  0  0  0  0  0  0  0
  187.1960  178.5800  135.4960 C   0  0  0  0  0  1  0  0  0  0  0  0
  1  2  2  0  0  0  0
  1  3  1  0  0  0  0
  3  4  1  0  0  0  0
  4 15  1  1  0  0  0
  4  5  1  0  0  0  0
  5 10  1  0  0  0  0
  6 11  1  0  0  0  0
  6 12  1  1  0  0  0
  7  6  1  0  0  0  0
  8 10  1  0  0  0  0
  8  7  1  0  0  0  0
  9 11  1  0  0  0  0
 10  9  2  0  0  0  0
 12 14  1  0  0  0  0
 13 14  2  0  0  0  0
 17 15  1  0  0  0  0
 17 16  1  0  0  0  0
 18  1  1  0  0  0  0
 19 23  1  6  0  0  0
 19 18  1  0  0  0  0
 20 21  2  0  0  0  0
 21 22  1  0  0  0  0
 21 19  1  0  0  0  0
 24 23  1  6  0  0  0
 25 26  1  1  0  0  0
 25 24  1  0  0  0  0
 25 27  1  0  0  0  0
 27 30  1  0  0  0  0
 28 27  1  0  0  0  0
 29 28  2  0  0  0  0
 30 32  1  0  0  0  0
 32 31  2  0  0  0  0
 33 24  1  0  0  0  0
 34 33  1  0  0  0  0
M  END
>  <MODEL>
1

>  <REMARK>
 VINA RESULT:      -6.5      0.000      0.000
  Name = 
  19 active torsions:
  status: ('A' for Active; 'I' for Inactive)
    1  A    between atoms: C_1  and  O_8
    2  A    between atoms: C_1  and  O_34
    3  A    between atoms: C_2  and  N_25
    4  A    between atoms: C_2  and  C_32
    5  A    between atoms: C_3  and  C_24
    6  A    between atoms: C_3  and  N_25
    7  A    between atoms: C_5  and  C_20
    8  A    between atoms: C_5  and  C_32
    9  A    between atoms: C_6  and  C_18
   10  A    between atoms: C_6  and  C_28
   11  A    between atoms: C_7  and  O_11
   12  A    between atoms: O_8  and  C_18
   13  A    between atoms: O_11  and  C_21
   14  A    between atoms: C_12  and  C_20
   15  A    between atoms: C_18  and  C_30
   16  A    between atoms: O_19  and  C_32
   17  A    between atoms: C_20  and  O_34
   18  A    between atoms: N_25  and  C_27
   19  A    between atoms: C_30  and  C_31
                            x       y       z     vdW  Elec       q    Type
                         _______ _______ _______ _____ _____    ______ ____

>  <TORSDO>
F 19

$$$$
=
 OpenBabel10272415313D

 34 34  0  0  1  0  0  0  0  0999 V2000
  186.3430  178.7500  141.2190 C   0  0  0  0  0  0  0  0  0  0  0  0
  187.5560  178.5060  141.4470 O   0  0  0  0  0  0  0  0  0  0  0  0
  185.4210  178.5860  142.2610 O   0  0  0  0  0  0  0  0  0  0  0  0
  185.7030  178.8900  143.6220 C   0  0  2  0  0  3  0  0  0  0  0  0
  185.8520  177.5930  144.4060 C   0  0  0  0  0  2  0  0  0  0  0  0
  189.3100  177.0470  146.9550 C   0  0  2  0  0  3  0  0  0  0  0  0
  189.5910  177.6730  145.5920 C   0  0  0  0  0  2  0  0  0  0  0  0
  188.4280  177.3960  144.6420 C   0  0  0  0  0  2  0  0  0  0  0  0
  186.9120  177.6780  146.6080 C   0  0  0  0  0  3  0  0  0  0  0  0
  187.0710  177.6200  145.2750 C   0  0  0  0  0  0  0  0  0  0  0  0
  188.0710  177.6960  147.5690 C   0  0  0  0  0  2  0  0  0  0  0  0
  190.4350  177.1750  147.8210 O   0  0  0  0  0  0  0  0  0  0  0  0
  191.9860  175.4710  147.3420 C   0  0  0  0  0  2  0  0  0  0  0  0
  191.7130  176.7620  147.4460 C   0  0  0  0  0  3  0  0  0  0  0  0
  184.5680  179.7150  144.2150 C   0  0  0  0  0  2  0  0  0  0  0  0
  182.2440  178.9520  143.7640 C   0  0  0  0  0  1  0  0  0  0  0  0
  183.4310  178.8320  144.6990 C   0  0  0  0  0  2  0  0  0  0  0  0
  185.9780  179.1610  139.9290 O   0  0  0  0  0  0  0  0  0  0  0  0
  185.1240  178.4100  139.0720 C   0  0  1  0  0  3  0  0  0  0  0  0
  183.5340  180.3590  138.9800 O   0  0  0  0  0  0  0  0  0  0  0  0
  183.7390  178.9880  139.0810 C   0  0  0  0  0  0  0  0  0  0  0  0
  182.7450  178.2190  139.1470 O   0  0  0  0  0  1  0  0  0  0  0  0
  185.7030  178.3500  137.6580 C   0  0  0  0  0  2  0  0  0  0  0  0
  187.1420  177.8160  137.6160 C   0  0  1  0  0  3  0  0  0  0  0  0
  187.3720  176.9480  136.3720 C   0  0  2  0  0  3  0  0  0  0  0  0
  186.3290  177.2420  135.3040 C   0  0  0  0  0  1  0  0  0  0  0  0
  187.3870  175.5130  136.6790 N   0  0  0  0  0  0  0  0  0  0  0  0
  188.6260  174.8380  136.9460 C   0  0  0  0  0  3  0  0  0  0  0  0
  189.6940  174.9840  136.1720 C   0  0  0  0  0  2  0  0  0  0  0  0
  186.1980  174.6980  136.4480 C   0  0  0  0  0  2  0  0  0  0  0  0
  185.0680  172.9820  137.8100 C   0  0  0  0  0  2  0  0  0  0  0  0
  186.2000  173.4800  137.3180 C   0  0  0  0  0  3  0  0  0  0  0  0
  188.0610  178.8730  137.6730 O   0  0  0  0  0  0  0  0  0  0  0  0
  189.1500  178.3700  138.3890 C   0  0  0  0  0  1  0  0  0  0  0  0
  1  2  2  0  0  0  0
  1  3  1  0  0  0  0
  3  4  1  0  0  0  0
  4 15  1  1  0  0  0
  4  5  1  0  0  0  0
  5 10  1  0  0  0  0
  6 11  1  0  0  0  0
  6 12  1  1  0  0  0
  7  6  1  0  0  0  0
  8 10  1  0  0  0  0
  8  7  1  0  0  0  0
  9 11  1  0  0  0  0
 10  9  2  0  0  0  0
 13 14  2  0  0  0  0
 14 12  1  0  0  0  0
 15 17  1  0  0  0  0
 16 17  1  0  0  0  0
 18  1  1  0  0  0  0
 19 23  1  6  0  0  0
 19 21  1  0  0  0  0
 19 18  1  0  0  0  0
 20 21  2  0  0  0  0
 21 22  1  0  0  0  0
 24 23  1  6  0  0  0
 24 33  1  0  0  0  0
 25 26  1  6  0  0  0
 25 27  1  0  0  0  0
 25 24  1  0  0  0  0
 27 28  1  0  0  0  0
 29 28  2  0  0  0  0
 30 27  1  0  0  0  0
 30 32  1  0  0  0  0
 32 31  2  0  0  0  0
 33 34  1  0  0  0  0
M  END
>  <MODEL>
2

>  <REMARK>
 VINA RESULT:      -6.5      1.192      2.361
  Name = 
  19 active torsions:
  status: ('A' for Active; 'I' for Inactive)
    1  A    between atoms: C_1  and  O_8
    2  A    between atoms: C_1  and  O_34
    3  A    between atoms: C_2  and  N_25
    4  A    between atoms: C_2  and  C_32
    5  A    between atoms: C_3  and  C_24
    6  A    between atoms: C_3  and  N_25
    7  A    between atoms: C_5  and  C_20
    8  A    between atoms: C_5  and  C_32
    9  A    between atoms: C_6  and  C_18
   10  A    between atoms: C_6  and  C_28
   11  A    between atoms: C_7  and  O_11
   12  A    between atoms: O_8  and  C_18
   13  A    between atoms: O_11  and  C_21
   14  A    between atoms: C_12  and  C_20
   15  A    between atoms: C_18  and  C_30
   16  A    between atoms: O_19  and  C_32
   17  A    between atoms: C_20  and  O_34
   18  A    between atoms: N_25  and  C_27
   19  A    between atoms: C_30  and  C_31
                            x       y       z     vdW  Elec       q    Type
                         _______ _______ _______ _____ _____    ______ ____

>  <TORSDO>
F 19

$$$$
=
 OpenBabel10272415313D

 34 34  0  0  1  0  0  0  0  0999 V2000
  184.9380  178.9340  142.3050 C   0  0  0  0  0  0  0  0  0  0  0  0
  185.8560  179.7690  142.0960 O   0  0  0  0  0  0  0  0  0  0  0  0
  183.8880  178.8510  141.3800 O   0  0  0  0  0  0  0  0  0  0  0  0
  183.9070  178.0040  140.2370 C   0  0  2  0  0  3  0  0  0  0  0  0
  184.3810  178.7990  139.0290 C   0  0  0  0  0  2  0  0  0  0  0  0
  188.0380  177.6180  137.0320 C   0  0  2  0  0  3  0  0  0  0  0  0
  188.0640  177.5310  138.5550 C   0  0  0  0  0  2  0  0  0  0  0  0
  186.9380  178.3790  139.1450 C   0  0  0  0  0  2  0  0  0  0  0  0
  185.5400  177.6570  137.2040 C   0  0  0  0  0  3  0  0  0  0  0  0
  185.6150  178.1970  138.4320 C   0  0  0  0  0  0  0  0  0  0  0  0
  186.7240  177.0400  136.5090 C   0  0  0  0  0  2  0  0  0  0  0  0
  189.1550  176.9450  136.4580 O   0  0  0  0  0  0  0  0  0  0  0  0
  191.2300  176.3280  137.3840 C   0  0  0  0  0  2  0  0  0  0  0  0
  189.9480  176.0620  137.1920 C   0  0  0  0  0  3  0  0  0  0  0  0
  182.5080  177.4610  139.9720 C   0  0  0  0  0  2  0  0  0  0  0  0
  180.8370  179.2640  139.5920 C   0  0  0  0  0  1  0  0  0  0  0  0
  181.4420  178.3280  140.6190 C   0  0  0  0  0  2  0  0  0  0  0  0
  185.0090  178.1400  143.4590 O   0  0  0  0  0  0  0  0  0  0  0  0
  185.8100  178.4610  144.5910 C   0  0  1  0  0  3  0  0  0  0  0  0
  183.5700  179.0460  145.5780 O   0  0  0  0  0  0  0  0  0  0  0  0
  184.9550  179.0150  145.6930 C   0  0  0  0  0  0  0  0  0  0  0  0
  185.4960  179.4280  146.7520 O   0  0  0  0  0  1  0  0  0  0  0  0
  186.6030  177.2380  145.0510 C   0  0  0  0  0  2  0  0  0  0  0  0
  188.0550  177.2360  144.5520 C   0  0  1  0  0  3  0  0  0  0  0  0
  189.0380  177.0420  145.7140 C   0  0  2  0  0  3  0  0  0  0  0  0
  188.4720  177.6180  147.0050 C   0  0  0  0  0  1  0  0  0  0  0  0
  190.3580  177.6180  145.4420 N   0  0  0  0  0  0  0  0  0  0  0  0
  190.4900  178.7710  144.5970 C   0  0  0  0  0  3  0  0  0  0  0  0
  191.5370  178.9520  143.8000 C   0  0  0  0  0  2  0  0  0  0  0  0
  191.5710  176.8810  145.7880 C   0  0  0  0  0  2  0  0  0  0  0  0
  192.4830  175.7630  147.7870 C   0  0  0  0  0  2  0  0  0  0  0  0
  191.4200  176.1800  147.1020 C   0  0  0  0  0  3  0  0  0  0  0  0
  188.2370  176.2570  143.5660 O   0  0  0  0  0  0  0  0  0  0  0  0
  188.4190  176.9670  142.3770 C   0  0  0  0  0  1  0  0  0  0  0  0
  1 18  1  0  0  0  0
  2  1  2  0  0  0  0
  3  1  1  0  0  0  0
  4  5  1  6  0  0  0
  4  3  1  0  0  0  0
  6 12  1  6  0  0  0
  6  7  1  0  0  0  0
  7  8  1  0  0  0  0
  9 10  2  0  0  0  0
 10  5  1  0  0  0  0
 10  8  1  0  0  0  0
 11  6  1  0  0  0  0
 11  9  1  0  0  0  0
 12 14  1  0  0  0  0
 14 13  2  0  0  0  0
 15  4  1  0  0  0  0
 15 17  1  0  0  0  0
 16 17  1  0  0  0  0
 18 19  1  0  0  0  0
 19 23  1  1  0  0  0
 19 21  1  0  0  0  0
 20 21  2  0  0  0  0
 21 22  1  0  0  0  0
 24 23  1  1  0  0  0
 24 25  1  0  0  0  0
 25 26  1  1  0  0  0
 27 25  1  0  0  0  0
 27 30  1  0  0  0  0
 28 27  1  0  0  0  0
 29 28  2  0  0  0  0
 30 32  1  0  0  0  0
 32 31  2  0  0  0  0
 33 24  1  0  0  0  0
 34 33  1  0  0  0  0
M  END
>  <MODEL>
3

>  <REMARK>
 VINA RESULT:      -6.3      2.394      7.290
  Name = 
  19 active torsions:
  status: ('A' for Active; 'I' for Inactive)
    1  A    between atoms: C_1  and  O_8
    2  A    between atoms: C_1  and  O_34
    3  A    between atoms: C_2  and  N_25
    4  A    between atoms: C_2  and  C_32
    5  A    between atoms: C_3  and  C_24
    6  A    between atoms: C_3  and  N_25
    7  A    between atoms: C_5  and  C_20
    8  A    between atoms: C_5  and  C_32
    9  A    between atoms: C_6  and  C_18
   10  A    between atoms: C_6  and  C_28
   11  A    between atoms: C_7  and  O_11
   12  A    between atoms: O_8  and  C_18
   13  A    between atoms: O_11  and  C_21
   14  A    between atoms: C_12  and  C_20
   15  A    between atoms: C_18  and  C_30
   16  A    between atoms: O_19  and  C_32
   17  A    between atoms: C_20  and  O_34
   18  A    between atoms: N_25  and  C_27
   19  A    between atoms: C_30  and  C_31
                            x       y       z     vdW  Elec       q    Type
                         _______ _______ _______ _____ _____    ______ ____

>  <TORSDO>
F 19

$$$$
=
 OpenBabel10272415313D

 34 34  0  0  1  0  0  0  0  0999 V2000
  187.5590  178.3210  140.0140 C   0  0  0  0  0  0  0  0  0  0  0  0
  186.7490  178.4130  139.0560 O   0  0  0  0  0  0  0  0  0  0  0  0
  187.3870  179.1650  141.1190 O   0  0  0  0  0  0  0  0  0  0  0  0
  186.6120  178.8240  142.2620 C   0  0  2  0  0  3  0  0  0  0  0  0
  187.0400  177.4530  142.7690 C   0  0  0  0  0  2  0  0  0  0  0  0
  189.7090  177.1760  146.1670 C   0  0  2  0  0  3  0  0  0  0  0  0
  190.1390  178.1480  145.0720 C   0  0  0  0  0  2  0  0  0  0  0  0
  189.4020  177.8280  143.7730 C   0  0  0  0  0  2  0  0  0  0  0  0
  187.4100  177.2780  145.1790 C   0  0  0  0  0  3  0  0  0  0  0  0
  187.9230  177.5690  143.9710 C   0  0  0  0  0  0  0  0  0  0  0  0
  188.2170  177.3500  146.4480 C   0  0  0  0  0  2  0  0  0  0  0  0
  190.4770  177.3650  147.3530 O   0  0  0  0  0  0  0  0  0  0  0  0
  192.1290  175.7840  146.7960 C   0  0  0  0  0  2  0  0  0  0  0  0
  191.5030  176.4940  147.7200 C   0  0  0  0  0  3  0  0  0  0  0  0
  185.1330  178.7920  141.8950 C   0  0  0  0  0  2  0  0  0  0  0  0
  184.3530  179.5350  144.1380 C   0  0  0  0  0  1  0  0  0  0  0  0
  184.2700  178.4390  143.0940 C   0  0  0  0  0  2  0  0  0  0  0  0
  188.5990  177.3850  139.9190 O   0  0  0  0  0  0  0  0  0  0  0  0
  189.9410  177.7250  139.5880 C   0  0  1  0  0  3  0  0  0  0  0  0
  190.5190  176.0740  141.3980 O   0  0  0  0  0  1  0  0  0  0  0  0
  190.8900  177.1500  140.5990 C   0  0  0  0  0  0  0  0  0  0  0  0
  192.0500  177.6260  140.7050 O   0  0  0  0  0  0  0  0  0  0  0  0
  190.2780  177.2610  138.1700 C   0  0  0  0  0  2  0  0  0  0  0  0
  189.5800  175.9490  137.7820 C   0  0  1  0  0  3  0  0  0  0  0  0
  189.1140  175.9840  136.3210 C   0  0  2  0  0  3  0  0  0  0  0  0
  188.9930  177.4170  135.8230 C   0  0  0  0  0  1  0  0  0  0  0  0
  187.8490  175.2710  136.1140 N   0  0  0  0  0  0  0  0  0  0  0  0
  186.7310  175.5030  136.9830 C   0  0  0  0  0  3  0  0  0  0  0  0
  185.5360  175.8590  136.5250 C   0  0  0  0  0  2  0  0  0  0  0  0
  187.7880  174.1250  135.2100 C   0  0  0  0  0  2  0  0  0  0  0  0
  187.6790  171.9830  136.4250 C   0  0  0  0  0  2  0  0  0  0  0  0
  188.4170  172.9160  135.8270 C   0  0  0  0  0  3  0  0  0  0  0  0
  190.4230  174.8550  138.0190 O   0  0  0  0  0  0  0  0  0  0  0  0
  191.4800  175.0090  137.1180 C   0  0  0  0  0  1  0  0  0  0  0  0
  1  3  1  0  0  0  0
  2  1  2  0  0  0  0
  3  4  1  0  0  0  0
  4 15  1  6  0  0  0
  4  5  1  0  0  0  0
  5 10  1  0  0  0  0
  6 11  1  0  0  0  0
  6 12  1  1  0  0  0
  7  6  1  0  0  0  0
  8 10  1  0  0  0  0
  8  7  1  0  0  0  0
  9 11  1  0  0  0  0
 10  9  2  0  0  0  0
 12 14  1  0  0  0  0
 13 14  2  0  0  0  0
 15 17  1  0  0  0  0
 17 16  1  0  0  0  0
 18  1  1  0  0  0  0
 19 23  1  6  0  0  0
 19 18  1  0  0  0  0
 19 21  1  0  0  0  0
 21 22  2  0  0  0  0
 21 20  1  0  0  0  0
 24 33  1  0  0  0  0
 24 23  1  6  0  0  0
 25 26  1  1  0  0  0
 25 24  1  0  0  0  0
 27 25  1  0  0  0  0
 27 28  1  0  0  0  0
 29 28  2  0  0  0  0
 30 32  1  0  0  0  0
 30 27  1  0  0  0  0
 32 31  2  0  0  0  0
 34 33  1  0  0  0  0
M  END
>  <MODEL>
4

>  <REMARK>
 VINA RESULT:      -6.3      2.049      4.029
  Name = 
  19 active torsions:
  status: ('A' for Active; 'I' for Inactive)
    1  A    between atoms: C_1  and  O_8
    2  A    between atoms: C_1  and  O_34
    3  A    between atoms: C_2  and  N_25
    4  A    between atoms: C_2  and  C_32
    5  A    between atoms: C_3  and  C_24
    6  A    between atoms: C_3  and  N_25
    7  A    between atoms: C_5  and  C_20
    8  A    between atoms: C_5  and  C_32
    9  A    between atoms: C_6  and  C_18
   10  A    between atoms: C_6  and  C_28
   11  A    between atoms: C_7  and  O_11
   12  A    between atoms: O_8  and  C_18
   13  A    between atoms: O_11  and  C_21
   14  A    between atoms: C_12  and  C_20
   15  A    between atoms: C_18  and  C_30
   16  A    between atoms: O_19  and  C_32
   17  A    between atoms: C_20  and  O_34
   18  A    between atoms: N_25  and  C_27
   19  A    between atoms: C_30  and  C_31
                            x       y       z     vdW  Elec       q    Type
                         _______ _______ _______ _____ _____    ______ ____

>  <TORSDO>
F 19

$$$$
=
 OpenBabel10272415313D

 34 34  0  0  1  0  0  0  0  0999 V2000
  188.6800  178.0380  139.7690 C   0  0  0  0  0  0  0  0  0  0  0  0
  188.6890  179.0830  139.0680 O   0  0  0  0  0  0  0  0  0  0  0  0
  187.5560  177.7780  140.5660 O   0  0  0  0  0  0  0  0  0  0  0  0
  187.3440  178.3570  141.8480 C   0  0  2  0  0  3  0  0  0  0  0  0
  187.1350  177.2490  142.8710 C   0  0  0  0  0  2  0  0  0  0  0  0
  190.7150  177.4590  145.2970 C   0  0  2  0  0  3  0  0  0  0  0  0
  189.4000  177.4170  146.0700 C   0  0  0  0  0  2  0  0  0  0  0  0
  188.2430  177.8030  145.1500 C   0  0  0  0  0  2  0  0  0  0  0  0
  189.4410  176.5790  143.3300 C   0  0  0  0  0  3  0  0  0  0  0  0
  188.3080  177.1320  143.7940 C   0  0  0  0  0  0  0  0  0  0  0  0
  190.6800  176.4270  144.1710 C   0  0  0  0  0  2  0  0  0  0  0  0
  191.8270  177.2340  146.1600 O   0  0  0  0  0  0  0  0  0  0  0  0
  192.4190  175.4790  147.6130 C   0  0  0  0  0  2  0  0  0  0  0  0
  191.6990  176.5650  147.3770 C   0  0  0  0  0  3  0  0  0  0  0  0
  186.1150  179.2570  141.8140 C   0  0  0  0  0  2  0  0  0  0  0  0
  183.9360  178.2310  141.1940 C   0  0  0  0  0  1  0  0  0  0  0  0
  185.1910  178.8940  140.6640 C   0  0  0  0  0  2  0  0  0  0  0  0
  189.8000  177.1960  139.7250 O   0  0  0  0  0  0  0  0  0  0  0  0
  190.9920  177.5040  139.0100 C   0  0  1  0  0  3  0  0  0  0  0  0
  193.4390  177.0250  139.3520 O   0  0  0  0  0  0  0  0  0  0  0  0
  192.1920  177.3150  139.8930 C   0  0  0  0  0  0  0  0  0  0  0  0
  192.0760  177.4550  141.1380 O   0  0  0  0  0  1  0  0  0  0  0  0
  191.0870  176.6600  137.7390 C   0  0  0  0  0  2  0  0  0  0  0  0
  189.9160  175.6810  137.5730 C   0  0  1  0  0  3  0  0  0  0  0  0
  189.2590  175.8350  136.1950 C   0  0  2  0  0  3  0  0  0  0  0  0
  189.6390  177.1640  135.5580 C   0  0  0  0  0  1  0  0  0  0  0  0
  187.8000  175.7000  136.2450 N   0  0  0  0  0  0  0  0  0  0  0  0
  187.1830  174.4080  136.1400 C   0  0  0  0  0  3  0  0  0  0  0  0
  186.8780  173.6780  137.2070 C   0  0  0  0  0  2  0  0  0  0  0  0
  186.9450  176.8790  136.1220 C   0  0  0  0  0  2  0  0  0  0  0  0
  184.8410  177.0990  137.3850 C   0  0  0  0  0  2  0  0  0  0  0  0
  186.1710  177.1190  137.3800 C   0  0  0  0  0  3  0  0  0  0  0  0
  190.3410  174.3630  137.7880 O   0  0  0  0  0  0  0  0  0  0  0  0
  191.6330  174.3080  137.2600 C   0  0  0  0  0  1  0  0  0  0  0  0
  1  3  1  0  0  0  0
  2  1  2  0  0  0  0
  3  4  1  0  0  0  0
  4 15  1  6  0  0  0
  4  5  1  0  0  0  0
  5 10  1  0  0  0  0
  6  7  1  0  0  0  0
  6 12  1  1  0  0  0
  8  7  1  0  0  0  0
  9 10  2  0  0  0  0
  9 11  1  0  0  0  0
 10  8  1  0  0  0  0
 11  6  1  0  0  0  0
 12 14  1  0  0  0  0
 14 13  2  0  0  0  0
 17 16  1  0  0  0  0
 17 15  1  0  0  0  0
 18  1  1  0  0  0  0
 19 23  1  6  0  0  0
 19 18  1  0  0  0  0
 19 21  1  0  0  0  0
 20 21  2  0  0  0  0
 21 22  1  0  0  0  0
 24 23  1  6  0  0  0
 24 33  1  0  0  0  0
 25 26  1  1  0  0  0
 25 27  1  0  0  0  0
 25 24  1  0  0  0  0
 28 27  1  0  0  0  0
 28 29  2  0  0  0  0
 30 27  1  0  0  0  0
 30 32  1  0  0  0  0
 32 31  2  0  0  0  0
 34 33  1  0  0  0  0
M  END
>  <MODEL>
5

>  <REMARK>
 VINA RESULT:      -6.2      2.245      4.475
  Name = 
  19 active torsions:
  status: ('A' for Active; 'I' for Inactive)
    1  A    between atoms: C_1  and  O_8
    2  A    between atoms: C_1  and  O_34
    3  A    between atoms: C_2  and  N_25
    4  A    between atoms: C_2  and  C_32
    5  A    between atoms: C_3  and  C_24
    6  A    between atoms: C_3  and  N_25
    7  A    between atoms: C_5  and  C_20
    8  A    between atoms: C_5  and  C_32
    9  A    between atoms: C_6  and  C_18
   10  A    between atoms: C_6  and  C_28
   11  A    between atoms: C_7  and  O_11
   12  A    between atoms: O_8  and  C_18
   13  A    between atoms: O_11  and  C_21
   14  A    between atoms: C_12  and  C_20
   15  A    between atoms: C_18  and  C_30
   16  A    between atoms: O_19  and  C_32
   17  A    between atoms: C_20  and  O_34
   18  A    between atoms: N_25  and  C_27
   19  A    between atoms: C_30  and  C_31
                            x       y       z     vdW  Elec       q    Type
                         _______ _______ _______ _____ _____    ______ ____

>  <TORSDO>
F 19

$$$$
=
 OpenBabel10272415313D

 34 34  0  0  1  0  0  0  0  0999 V2000
  185.8210  178.7750  142.2770 C   0  0  0  0  0  0  0  0  0  0  0  0
  187.0050  178.9040  141.8730 O   0  0  0  0  0  0  0  0  0  0  0  0
  184.7940  179.3770  141.5380 O   0  0  0  0  0  0  0  0  0  0  0  0
  183.8220  178.6490  140.7970 C   0  0  2  0  0  3  0  0  0  0  0  0
  183.7170  179.2330  139.3950 C   0  0  0  0  0  2  0  0  0  0  0  0
  185.4760  176.1520  136.9130 C   0  0  2  0  0  3  0  0  0  0  0  0
  184.1160  176.6680  136.4540 C   0  0  0  0  0  2  0  0  0  0  0  0
  183.4120  177.3780  137.6080 C   0  0  0  0  0  2  0  0  0  0  0  0
  185.6570  178.2330  138.2940 C   0  0  0  0  0  3  0  0  0  0  0  0
  184.3190  178.3150  138.3770 C   0  0  0  0  0  0  0  0  0  0  0  0
  186.3610  177.3310  137.3160 C   0  0  0  0  0  2  0  0  0  0  0  0
  186.1000  175.3700  135.8980 O   0  0  0  0  0  0  0  0  0  0  0  0
  186.3500  173.4030  137.1670 C   0  0  0  0  0  2  0  0  0  0  0  0
  186.2010  173.9810  135.9860 C   0  0  0  0  0  3  0  0  0  0  0  0
  182.4670  178.7420  141.4890 C   0  0  0  0  0  2  0  0  0  0  0  0
  180.4170  177.7460  140.4920 C   0  0  0  0  0  1  0  0  0  0  0  0
  181.3440  178.9450  140.4870 C   0  0  0  0  0  2  0  0  0  0  0  0
  185.5940  178.0450  143.4530 O   0  0  0  0  0  0  0  0  0  0  0  0
  186.2030  178.3500  144.7020 C   0  0  1  0  0  3  0  0  0  0  0  0
  185.5600  179.3540  146.9190 O   0  0  0  0  0  1  0  0  0  0  0  0
  185.2150  179.0150  145.6160 C   0  0  0  0  0  0  0  0  0  0  0  0
  184.0660  179.2990  145.1880 O   0  0  0  0  0  0  0  0  0  0  0  0
  186.7950  177.0890  145.3320 C   0  0  0  0  0  2  0  0  0  0  0  0
  188.3190  177.1610  145.5130 C   0  0  1  0  0  3  0  0  0  0  0  0
  189.0290  177.2850  144.1580 C   0  0  2  0  0  3  0  0  0  0  0  0
  188.6460  176.1360  143.2370 C   0  0  0  0  0  1  0  0  0  0  0  0
  190.4880  177.3600  144.2890 N   0  0  0  0  0  0  0  0  0  0  0  0
  191.2260  178.4020  143.6330 C   0  0  0  0  0  3  0  0  0  0  0  0
  191.2520  179.6490  144.0880 C   0  0  0  0  0  2  0  0  0  0  0  0
  191.2370  176.2370  144.8480 C   0  0  0  0  0  2  0  0  0  0  0  0
  192.1440  175.6420  147.0610 C   0  0  0  0  0  2  0  0  0  0  0  0
  191.8210  176.5860  146.1810 C   0  0  0  0  0  3  0  0  0  0  0  0
  188.6640  178.2200  146.3640 O   0  0  0  0  0  0  0  0  0  0  0  0
  188.6270  177.6780  147.6510 C   0  0  0  0  0  1  0  0  0  0  0  0
  1 18  1  0  0  0  0
  2  1  2  0  0  0  0
  3  1  1  0  0  0  0
  4  5  1  6  0  0  0
  4 15  1  0  0  0  0
  4  3  1  0  0  0  0
  6 12  1  6  0  0  0
  6 11  1  0  0  0  0
  7  6  1  0  0  0  0
  7  8  1  0  0  0  0
  8 10  1  0  0  0  0
  9 10  2  0  0  0  0
 10  5  1  0  0  0  0
 11  9  1  0  0  0  0
 12 14  1  0  0  0  0
 14 13  2  0  0  0  0
 17 16  1  0  0  0  0
 17 15  1  0  0  0  0
 18 19  1  0  0  0  0
 19 23  1  1  0  0  0
 19 21  1  0  0  0  0
 21 20  1  0  0  0  0
 22 21  2  0  0  0  0
 24 23  1  6  0  0  0
 24 33  1  0  0  0  0
 25 26  1  6  0  0  0
 25 27  1  0  0  0  0
 25 24  1  0  0  0  0
 27 30  1  0  0  0  0
 28 29  2  0  0  0  0
 28 27  1  0  0  0  0
 30 32  1  0  0  0  0
 32 31  2  0  0  0  0
 33 34  1  0  0  0  0
M  END
>  <MODEL>
6

>  <REMARK>
 VINA RESULT:      -6.2      2.539      7.713
  Name = 
  19 active torsions:
  status: ('A' for Active; 'I' for Inactive)
    1  A    between atoms: C_1  and  O_8
    2  A    between atoms: C_1  and  O_34
    3  A    between atoms: C_2  and  N_25
    4  A    between atoms: C_2  and  C_32
    5  A    between atoms: C_3  and  C_24
    6  A    between atoms: C_3  and  N_25
    7  A    between atoms: C_5  and  C_20
    8  A    between atoms: C_5  and  C_32
    9  A    between atoms: C_6  and  C_18
   10  A    between atoms: C_6  and  C_28
   11  A    between atoms: C_7  and  O_11
   12  A    between atoms: O_8  and  C_18
   13  A    between atoms: O_11  and  C_21
   14  A    between atoms: C_12  and  C_20
   15  A    between atoms: C_18  and  C_30
   16  A    between atoms: O_19  and  C_32
   17  A    between atoms: C_20  and  O_34
   18  A    between atoms: N_25  and  C_27
   19  A    between atoms: C_30  and  C_31
                            x       y       z     vdW  Elec       q    Type
                         _______ _______ _______ _____ _____    ______ ____

>  <TORSDO>
F 19

$$$$
=
 OpenBabel10272415313D

 34 34  0  0  1  0  0  0  0  0999 V2000
  186.6300  178.7380  141.1190 C   0  0  0  0  0  0  0  0  0  0  0  0
  187.8140  178.7810  141.5420 O   0  0  0  0  0  0  0  0  0  0  0  0
  185.5900  178.6360  142.0520 O   0  0  0  0  0  0  0  0  0  0  0  0
  185.7510  178.8750  143.4450 C   0  0  2  0  0  3  0  0  0  0  0  0
  185.7510  177.5450  144.1860 C   0  0  0  0  0  2  0  0  0  0  0  0
  189.4290  177.6920  146.4680 C   0  0  2  0  0  3  0  0  0  0  0  0
  188.1800  177.3100  147.2590 C   0  0  0  0  0  2  0  0  0  0  0  0
  186.9290  177.7310  146.4900 C   0  0  0  0  0  2  0  0  0  0  0  0
  188.1460  177.1000  144.4010 C   0  0  0  0  0  3  0  0  0  0  0  0
  186.9860  177.3860  145.0170 C   0  0  0  0  0  0  0  0  0  0  0  0
  189.4450  176.9330  145.1420 C   0  0  0  0  0  2  0  0  0  0  0  0
  190.6120  177.4330  147.2190 O   0  0  0  0  0  0  0  0  0  0  0  0
  192.0530  175.5960  147.5250 C   0  0  0  0  0  2  0  0  0  0  0  0
  191.6140  176.5800  146.7560 C   0  0  0  0  0  3  0  0  0  0  0  0
  184.6090  179.7430  143.9580 C   0  0  0  0  0  2  0  0  0  0  0  0
  182.2860  178.8530  144.0170 C   0  0  0  0  0  1  0  0  0  0  0  0
  183.6070  178.9280  144.7580 C   0  0  0  0  0  2  0  0  0  0  0  0
  186.4160  178.7840  139.7330 O   0  0  0  0  0  0  0  0  0  0  0  0
  185.2220  178.3340  139.1030 C   0  0  1  0  0  3  0  0  0  0  0  0
  182.9320  178.8950  139.9830 O   0  0  0  0  0  1  0  0  0  0  0  0
  184.1030  179.3020  139.3550 C   0  0  0  0  0  0  0  0  0  0  0  0
  184.2380  180.5090  139.0220 O   0  0  0  0  0  0  0  0  0  0  0  0
  185.4550  178.1150  137.6080 C   0  0  0  0  0  2  0  0  0  0  0  0
  185.8430  176.6700  137.2620 C   0  0  1  0  0  3  0  0  0  0  0  0
  184.7500  175.9910  136.4260 C   0  0  2  0  0  3  0  0  0  0  0  0
  183.8650  177.0250  135.7460 C   0  0  0  0  0  1  0  0  0  0  0  0
  183.9280  175.0660  137.2150 N   0  0  0  0  0  0  0  0  0  0  0  0
  184.0720  173.6470  137.0570 C   0  0  0  0  0  3  0  0  0  0  0  0
  184.9000  172.9290  137.8070 C   0  0  0  0  0  2  0  0  0  0  0  0
  182.7710  175.5590  137.9580 C   0  0  0  0  0  2  0  0  0  0  0  0
  180.6050  174.5240  138.5160 C   0  0  0  0  0  2  0  0  0  0  0  0
  181.5350  174.7930  137.6030 C   0  0  0  0  0  3  0  0  0  0  0  0
  187.0790  176.6370  136.6020 O   0  0  0  0  0  0  0  0  0  0  0  0
  187.9550  176.0270  137.5020 C   0  0  0  0  0  1  0  0  0  0  0  0
  1  2  2  0  0  0  0
  1  3  1  0  0  0  0
  3  4  1  0  0  0  0
  4 15  1  1  0  0  0
  4  5  1  0  0  0  0
  5 10  1  0  0  0  0
  6 12  1  1  0  0  0
  6  7  1  0  0  0  0
  8  7  1  0  0  0  0
  9 10  2  0  0  0  0
  9 11  1  0  0  0  0
 10  8  1  0  0  0  0
 11  6  1  0  0  0  0
 14 12  1  0  0  0  0
 14 13  2  0  0  0  0
 15 17  1  0  0  0  0
 16 17  1  0  0  0  0
 18  1  1  0  0  0  0
 19 23  1  6  0  0  0
 19 21  1  0  0  0  0
 19 18  1  0  0  0  0
 21 20  1  0  0  0  0
 22 21  2  0  0  0  0
 24 23  1  6  0  0  0
 25 26  1  1  0  0  0
 25 27  1  0  0  0  0
 25 24  1  0  0  0  0
 27 30  1  0  0  0  0
 28 27  1  0  0  0  0
 28 29  2  0  0  0  0
 32 30  1  0  0  0  0
 32 31  2  0  0  0  0
 33 24  1  0  0  0  0
 33 34  1  0  0  0  0
M  END
>  <MODEL>
7

>  <REMARK>
 VINA RESULT:      -6.2      2.255      3.813
  Name = 
  19 active torsions:
  status: ('A' for Active; 'I' for Inactive)
    1  A    between atoms: C_1  and  O_8
    2  A    between atoms: C_1  and  O_34
    3  A    between atoms: C_2  and  N_25
    4  A    between atoms: C_2  and  C_32
    5  A    between atoms: C_3  and  C_24
    6  A    between atoms: C_3  and  N_25
    7  A    between atoms: C_5  and  C_20
    8  A    between atoms: C_5  and  C_32
    9  A    between atoms: C_6  and  C_18
   10  A    between atoms: C_6  and  C_28
   11  A    between atoms: C_7  and  O_11
   12  A    between atoms: O_8  and  C_18
   13  A    between atoms: O_11  and  C_21
   14  A    between atoms: C_12  and  C_20
   15  A    between atoms: C_18  and  C_30
   16  A    between atoms: O_19  and  C_32
   17  A    between atoms: C_20  and  O_34
   18  A    between atoms: N_25  and  C_27
   19  A    between atoms: C_30  and  C_31
                            x       y       z     vdW  Elec       q    Type
                         _______ _______ _______ _____ _____    ______ ____

>  <TORSDO>
F 19

$$$$
=
 OpenBabel10272415313D

 34 34  0  0  1  0  0  0  0  0999 V2000
  185.6880  179.0410  140.9300 C   0  0  0  0  0  0  0  0  0  0  0  0
  186.9170  178.8570  141.1220 O   0  0  0  0  0  0  0  0  0  0  0  0
  184.8400  179.1080  142.0450 O   0  0  0  0  0  0  0  0  0  0  0  0
  185.3030  179.1450  143.3890 C   0  0  2  0  0  3  0  0  0  0  0  0
  185.5560  177.7230  143.8730 C   0  0  0  0  0  2  0  0  0  0  0  0
  188.9280  176.9230  146.4690 C   0  0  2  0  0  3  0  0  0  0  0  0
  189.2790  177.2570  145.0220 C   0  0  0  0  0  2  0  0  0  0  0  0
  188.0520  177.0660  144.1320 C   0  0  0  0  0  2  0  0  0  0  0  0
  186.6860  177.9480  146.0290 C   0  0  0  0  0  3  0  0  0  0  0  0
  186.7860  177.6490  144.7230 C   0  0  0  0  0  0  0  0  0  0  0  0
  187.8580  177.8910  146.9720 C   0  0  0  0  0  2  0  0  0  0  0  0
  190.0840  176.9640  147.3010 O   0  0  0  0  0  0  0  0  0  0  0  0
  192.1330  175.8120  147.4300 C   0  0  0  0  0  2  0  0  0  0  0  0
  191.3620  176.6930  146.8120 C   0  0  0  0  0  3  0  0  0  0  0  0
  184.2590  179.8070  144.2790 C   0  0  0  0  0  2  0  0  0  0  0  0
  181.9900  178.8130  144.0520 C   0  0  0  0  0  1  0  0  0  0  0  0
  183.2830  178.7890  144.8430 C   0  0  0  0  0  2  0  0  0  0  0  0
  185.2300  179.1570  139.6100 O   0  0  0  0  0  0  0  0  0  0  0  0
  185.2090  178.0770  138.6830 C   0  0  1  0  0  3  0  0  0  0  0  0
  182.7200  178.3430  138.9440 O   0  0  0  0  0  1  0  0  0  0  0  0
  183.7970  177.7520  138.2930 C   0  0  0  0  0  0  0  0  0  0  0  0
  183.5820  176.9570  137.3410 O   0  0  0  0  0  0  0  0  0  0  0  0
  186.0720  178.4020  137.4630 C   0  0  0  0  0  2  0  0  0  0  0  0
  187.4910  177.8220  137.5540 C   0  0  1  0  0  3  0  0  0  0  0  0
  188.0140  177.4230  136.1670 C   0  0  2  0  0  3  0  0  0  0  0  0
  186.9510  177.6480  135.1010 C   0  0  0  0  0  1  0  0  0  0  0  0
  188.4900  176.0370  136.1190 N   0  0  0  0  0  0  0  0  0  0  0  0
  187.5610  174.9510  135.9910 C   0  0  0  0  0  3  0  0  0  0  0  0
  186.9590  174.4040  137.0410 C   0  0  0  0  0  2  0  0  0  0  0  0
  189.8710  175.7190  136.4760 C   0  0  0  0  0  2  0  0  0  0  0  0
  191.1460  176.2540  138.5160 C   0  0  0  0  0  2  0  0  0  0  0  0
  190.0600  175.7230  137.9610 C   0  0  0  0  0  3  0  0  0  0  0  0
  188.3550  178.7300  138.1800 O   0  0  0  0  0  0  0  0  0  0  0  0
  188.9960  179.4000  137.1340 C   0  0  0  0  0  1  0  0  0  0  0  0
  1  2  2  0  0  0  0
  1  3  1  0  0  0  0
  3  4  1  0  0  0  0
  4  5  1  1  0  0  0
  4 15  1  0  0  0  0
  5 10  1  0  0  0  0
  6 11  1  0  0  0  0
  6 12  1  1  0  0  0
  7  6  1  0  0  0  0
  8 10  1  0  0  0  0
  8  7  1  0  0  0  0
  9 11  1  0  0  0  0
 10  9  2  0  0  0  0
 14 12  1  0  0  0  0
 14 13  2  0  0  0  0
 15 17  1  0  0  0  0
 16 17  1  0  0  0  0
 18  1  1  0  0  0  0
 19 23  1  6  0  0  0
 19 18  1  0  0  0  0
 21 19  1  0  0  0  0
 21 20  1  0  0  0  0
 22 21  2  0  0  0  0
 24 23  1  6  0  0  0
 24 33  1  0  0  0  0
 25 26  1  6  0  0  0
 25 24  1  0  0  0  0
 27 25  1  0  0  0  0
 27 30  1  0  0  0  0
 28 27  1  0  0  0  0
 28 29  2  0  0  0  0
 30 32  1  0  0  0  0
 32 31  2  0  0  0  0
 34 33  1  0  0  0  0
M  END
>  <MODEL>
8

>  <REMARK>
 VINA RESULT:      -6.0      1.187      1.822
  Name = 
  19 active torsions:
  status: ('A' for Active; 'I' for Inactive)
    1  A    between atoms: C_1  and  O_8
    2  A    between atoms: C_1  and  O_34
    3  A    between atoms: C_2  and  N_25
    4  A    between atoms: C_2  and  C_32
    5  A    between atoms: C_3  and  C_24
    6  A    between atoms: C_3  and  N_25
    7  A    between atoms: C_5  and  C_20
    8  A    between atoms: C_5  and  C_32
    9  A    between atoms: C_6  and  C_18
   10  A    between atoms: C_6  and  C_28
   11  A    between atoms: C_7  and  O_11
   12  A    between atoms: O_8  and  C_18
   13  A    between atoms: O_11  and  C_21
   14  A    between atoms: C_12  and  C_20
   15  A    between atoms: C_18  and  C_30
   16  A    between atoms: O_19  and  C_32
   17  A    between atoms: C_20  and  O_34
   18  A    between atoms: N_25  and  C_27
   19  A    between atoms: C_30  and  C_31
                            x       y       z     vdW  Elec       q    Type
                         _______ _______ _______ _____ _____    ______ ____

>  <TORSDO>
F 19

$$$$
=
 OpenBabel10272415313D

 34 34  0  0  1  0  0  0  0  0999 V2000
  188.0210  178.2640  140.8260 C   0  0  0  0  0  0  0  0  0  0  0  0
  188.7930  179.1740  141.2240 O   0  0  0  0  0  0  0  0  0  0  0  0
  186.7740  178.1230  141.4510 O   0  0  0  0  0  0  0  0  0  0  0  0
  186.5500  178.3750  142.8330 C   0  0  2  0  0  3  0  0  0  0  0  0
  186.8700  177.1190  143.6320 C   0  0  0  0  0  2  0  0  0  0  0  0
  190.4280  177.0040  146.0970 C   0  0  2  0  0  3  0  0  0  0  0  0
  190.6550  177.3710  144.6340 C   0  0  0  0  0  2  0  0  0  0  0  0
  189.4530  176.9400  143.7960 C   0  0  0  0  0  2  0  0  0  0  0  0
  188.0200  177.5870  145.7380 C   0  0  0  0  0  3  0  0  0  0  0  0
  188.1240  177.2890  144.4320 C   0  0  0  0  0  0  0  0  0  0  0  0
  189.2170  177.7650  146.6330 C   0  0  0  0  0  2  0  0  0  0  0  0
  191.5880  177.2730  146.8810 O   0  0  0  0  0  0  0  0  0  0  0  0
  192.0410  175.0770  147.5980 C   0  0  0  0  0  2  0  0  0  0  0  0
  192.0600  176.3780  147.8410 C   0  0  0  0  0  3  0  0  0  0  0  0
  185.0940  178.7640  143.0590 C   0  0  0  0  0  2  0  0  0  0  0  0
  183.4700  178.7590  144.9430 C   0  0  0  0  0  1  0  0  0  0  0  0
  184.8510  179.1960  144.4950 C   0  0  0  0  0  2  0  0  0  0  0  0
  188.4550  177.4310  139.7840 O   0  0  0  0  0  0  0  0  0  0  0  0
  189.5540  177.7370  138.9330 C   0  0  1  0  0  3  0  0  0  0  0  0
  191.8590  177.6490  139.9400 O   0  0  0  0  0  1  0  0  0  0  0  0
  190.7770  176.9860  139.3710 C   0  0  0  0  0  0  0  0  0  0  0  0
  190.8140  175.7340  139.2530 O   0  0  0  0  0  0  0  0  0  0  0  0
  189.2010  177.4420  137.4750 C   0  0  0  0  0  2  0  0  0  0  0  0
  188.0530  176.4340  137.3240 C   0  0  1  0  0  3  0  0  0  0  0  0
  187.0050  176.9380  136.3230 C   0  0  2  0  0  3  0  0  0  0  0  0
  187.5640  178.0720  135.4760 C   0  0  0  0  0  1  0  0  0  0  0  0
  185.7600  177.3620  136.9740 N   0  0  0  0  0  0  0  0  0  0  0  0
  184.4880  176.9690  136.4380 C   0  0  0  0  0  3  0  0  0  0  0  0
  184.3740  176.0920  135.4490 C   0  0  0  0  0  2  0  0  0  0  0  0
  185.7810  178.4050  137.9960 C   0  0  0  0  0  2  0  0  0  0  0  0
  183.8160  179.4070  139.0950 C   0  0  0  0  0  2  0  0  0  0  0  0
  184.5660  178.3320  138.8680 C   0  0  0  0  0  3  0  0  0  0  0  0
  188.5470  175.1770  136.9480 O   0  0  0  0  0  0  0  0  0  0  0  0
  187.4230  174.4470  136.5560 C   0  0  0  0  0  1  0  0  0  0  0  0
  1  2  2  0  0  0  0
  1  3  1  0  0  0  0
  3  4  1  0  0  0  0
  4 15  1  6  0  0  0
  4  5  1  0  0  0  0
  5 10  1  0  0  0  0
  6 11  1  0  0  0  0
  6 12  1  1  0  0  0
  7  6  1  0  0  0  0
  8 10  1  0  0  0  0
  8  7  1  0  0  0  0
  9 11  1  0  0  0  0
 10  9  2  0  0  0  0
 12 14  1  0  0  0  0
 13 14  2  0  0  0  0
 15 17  1  0  0  0  0
 17 16  1  0  0  0  0
 18  1  1  0  0  0  0
 19 23  1  6  0  0  0
 19 21  1  0  0  0  0
 19 18  1  0  0  0  0
 21 20  1  0  0  0  0
 22 21  2  0  0  0  0
 24 23  1  6  0  0  0
 25 26  1  1  0  0  0
 25 27  1  0  0  0  0
 25 24  1  0  0  0  0
 27 30  1  0  0  0  0
 28 27  1  0  0  0  0
 29 28  2  0  0  0  0
 30 32  1  0  0  0  0
 32 31  2  0  0  0  0
 33 24  1  0  0  0  0
 34 33  1  0  0  0  0
M  END
>  <MODEL>
9

>  <REMARK>
 VINA RESULT:      -6.0      1.924      3.949
  Name = 
  19 active torsions:
  status: ('A' for Active; 'I' for Inactive)
    1  A    between atoms: C_1  and  O_8
    2  A    between atoms: C_1  and  O_34
    3  A    between atoms: C_2  and  N_25
    4  A    between atoms: C_2  and  C_32
    5  A    between atoms: C_3  and  C_24
    6  A    between atoms: C_3  and  N_25
    7  A    between atoms: C_5  and  C_20
    8  A    between atoms: C_5  and  C_32
    9  A    between atoms: C_6  and  C_18
   10  A    between atoms: C_6  and  C_28
   11  A    between atoms: C_7  and  O_11
   12  A    between atoms: O_8  and  C_18
   13  A    between atoms: O_11  and  C_21
   14  A    between atoms: C_12  and  C_20
   15  A    between atoms: C_18  and  C_30
   16  A    between atoms: O_19  and  C_32
   17  A    between atoms: C_20  and  O_34
   18  A    between atoms: N_25  and  C_27
   19  A    between atoms: C_30  and  C_31
                            x       y       z     vdW  Elec       q    Type
                         _______ _______ _______ _____ _____    ______ ____

>  <TORSDO>
F 19

$$$$
