=
 OpenBabel10272401463D

 28 31  0  0  1  0  0  0  0  0999 V2000
  187.7290  178.2500  138.6110 C   0  0  0  0  0  0  0  0  0  0  0  0
  186.4740  178.1890  137.9290 N   0  0  0  0  0  2  0  0  0  0  0  0
  190.4140  177.8230  140.0290 C   0  0  0  0  0  2  0  0  0  0  0  0
  188.9380  176.4990  141.6290 C   0  0  0  0  0  2  0  0  0  0  0  0
  189.7740  176.5990  137.8770 C   0  0  0  0  0  2  0  0  0  0  0  0
  187.8450  177.7360  139.8040 N   0  0  0  0  0  0  0  0  0  0  0  0
  189.6280  177.7870  137.1240 O   0  0  0  0  0  0  0  0  0  0  0  0
  188.8740  178.6330  141.8530 C   0  0  0  0  0  2  0  0  0  0  0  0
  190.7790  176.7270  139.0250 C   0  0  0  0  0  2  0  0  0  0  0  0
  188.7640  177.4530  142.8040 C   0  0  1  0  0  3  0  0  0  0  0  0
  188.9220  178.7770  137.8600 C   0  0  0  0  0  2  0  0  0  0  0  0
  189.0280  177.6800  140.6830 C   0  0  2  0  0  0  0  0  0  0  0  0
  185.2940  177.5390  138.4920 C   0  0  2  0  0  3  0  0  0  0  0  0
  182.4620  177.5230  137.8360 C   0  0  0  0  0  2  0  0  0  0  0  0
  184.7720  176.4990  137.4900 C   0  0  0  0  0  2  0  0  0  0  0  0
  184.7420  179.8710  139.1690 N   0  0  0  0  0  1  0  0  0  0  0  0
  184.1910  178.5650  138.8350 C   0  0  1  0  0  3  0  0  0  0  0  0
  183.2740  178.6770  137.7730 O   0  0  0  0  0  0  0  0  0  0  0  0
  183.2790  176.2220  137.6760 C   0  0  0  0  0  2  0  0  0  0  0  0
  187.3660  177.3790  143.3360 C   0  0  0  0  0  3  0  0  0  0  0  0
  187.0230  177.3430  144.6280 C   0  0  0  0  0  3  0  0  0  0  0  0
  188.4310  178.2260  148.1060 C   0  0  0  0  0  2  0  0  0  0  0  0
  187.9250  177.3910  145.7930 C   0  0  0  0  0  0  0  0  0  0  0  0
  190.2050  177.2720  146.6840 C   0  0  0  0  0  0  0  0  0  0  0  0
  187.4250  177.4780  147.2200 C   0  0  0  0  0  2  0  0  0  0  0  0
  189.2370  177.2290  145.5700 C   0  0  0  0  0  3  0  0  0  0  0  0
  191.5430  176.8380  146.4770 N   0  0  0  0  0  1  0  0  0  0  0  0
  189.8210  177.6940  147.8930 C   0  0  0  0  0  3  0  0  0  0  0  0
  1  6  2  0  0  0  0
  2  1  1  0  0  0  0
  4 10  1  0  0  0  0
  5  9  1  0  0  0  0
  6 12  1  0  0  0  0
  7 11  1  0  0  0  0
  7  5  1  0  0  0  0
  8 10  1  0  0  0  0
  9  3  1  0  0  0  0
 10 20  1  6  0  0  0
 11  1  1  0  0  0  0
 12  3  1  6  0  0  0
 12  4  1  0  0  0  0
 12  8  1  0  0  0  0
 13  2  1  6  0  0  0
 13 17  1  0  0  0  0
 15 19  1  0  0  0  0
 15 13  1  0  0  0  0
 17 16  1  6  0  0  0
 18 14  1  0  0  0  0
 18 17  1  0  0  0  0
 19 14  1  0  0  0  0
 20 21  2  0  0  0  0
 21 23  1  0  0  0  0
 23 25  1  0  0  0  0
 24 28  2  0  0  0  0
 25 22  1  0  0  0  0
 26 23  2  0  0  0  0
 26 24  1  0  0  0  0
 27 24  1  0  0  0  0
 28 22  1  0  0  0  0
M  END
>  <MODEL>
1

>  <REMARK>
 VINA RESULT:      -8.6      0.000      0.000
  Name = 
  3 active torsions:
  status: ('A' for Active; 'I' for Inactive)
    1  A    between atoms: N_2  and  C_3
    2  A    between atoms: C_9  and  C_18
    3  A    between atoms: C_14  and  C_25
                            x       y       z     vdW  Elec       q    Type
                         _______ _______ _______ _____ _____    ______ ____

>  <TORSDO>
F 3

$$$$
=
 OpenBabel10272401463D

 28 31  0  0  1  0  0  0  0  0999 V2000
  188.6320  175.7870  136.7300 C   0  0  0  0  0  0  0  0  0  0  0  0
  187.4350  175.1280  136.3110 N   0  0  0  0  0  2  0  0  0  0  0  0
  191.2810  176.7450  137.9420 C   0  0  0  0  0  2  0  0  0  0  0  0
  189.9540  176.5030  140.1020 C   0  0  0  0  0  2  0  0  0  0  0  0
  190.9400  174.3690  137.0590 C   0  0  0  0  0  2  0  0  0  0  0  0
  188.7700  176.1530  137.9740 N   0  0  0  0  0  0  0  0  0  0  0  0
  190.6480  174.7910  135.7410 O   0  0  0  0  0  0  0  0  0  0  0  0
  189.5510  178.2710  138.9550 C   0  0  0  0  0  2  0  0  0  0  0  0
  191.8580  175.3330  137.8160 C   0  0  0  0  0  2  0  0  0  0  0  0
  189.5800  177.9410  140.4380 C   0  0  1  0  0  3  0  0  0  0  0  0
  189.7640  175.9030  135.7440 C   0  0  0  0  0  2  0  0  0  0  0  0
  189.9050  176.8340  138.6250 C   0  0  2  0  0  0  0  0  0  0  0  0
  186.3450  174.8020  137.2260 C   0  0  2  0  0  3  0  0  0  0  0  0
  183.7310  173.5630  136.9290 C   0  0  0  0  0  2  0  0  0  0  0  0
  186.2310  173.2750  137.3430 C   0  0  0  0  0  2  0  0  0  0  0  0
  185.2010  176.6350  135.9860 N   0  0  0  0  0  1  0  0  0  0  0  0
  185.0060  175.4120  136.7520 C   0  0  1  0  0  3  0  0  0  0  0  0
  184.2760  174.4730  135.9970 O   0  0  0  0  0  0  0  0  0  0  0  0
  184.8230  172.8320  137.7430 C   0  0  0  0  0  2  0  0  0  0  0  0
  188.1870  178.0060  140.9830 C   0  0  0  0  0  3  0  0  0  0  0  0
  187.8520  177.9580  142.2780 C   0  0  0  0  0  3  0  0  0  0  0  0
  191.0860  177.5640  144.3360 C   0  0  0  0  0  2  0  0  0  0  0  0
  188.7620  177.8570  143.4330 C   0  0  0  0  0  0  0  0  0  0  0  0
  189.1120  177.2380  145.7770 C   0  0  0  0  0  0  0  0  0  0  0  0
  190.1800  178.3900  143.4130 C   0  0  0  0  0  2  0  0  0  0  0  0
  188.2610  177.3770  144.5790 C   0  0  0  0  0  3  0  0  0  0  0  0
  188.5160  176.9860  147.0430 N   0  0  0  0  0  1  0  0  0  0  0  0
  190.4390  177.3730  145.6790 C   0  0  0  0  0  3  0  0  0  0  0  0
  1  6  2  0  0  0  0
  2  1  1  0  0  0  0
  4 10  1  0  0  0  0
  5  9  1  0  0  0  0
  6 12  1  0  0  0  0
  7 11  1  0  0  0  0
  7  5  1  0  0  0  0
  8 10  1  0  0  0  0
  9  3  1  0  0  0  0
 10 20  1  6  0  0  0
 11  1  1  0  0  0  0
 12  3  1  6  0  0  0
 12  8  1  0  0  0  0
 12  4  1  0  0  0  0
 13  2  1  6  0  0  0
 13 15  1  0  0  0  0
 14 19  1  0  0  0  0
 15 19  1  0  0  0  0
 17 16  1  6  0  0  0
 17 13  1  0  0  0  0
 18 17  1  0  0  0  0
 18 14  1  0  0  0  0
 20 21  2  0  0  0  0
 21 23  1  0  0  0  0
 22 28  1  0  0  0  0
 23 26  2  0  0  0  0
 24 27  1  0  0  0  0
 25 23  1  0  0  0  0
 25 22  1  0  0  0  0
 26 24  1  0  0  0  0
 28 24  2  0  0  0  0
M  END
>  <MODEL>
2

>  <REMARK>
 VINA RESULT:      -7.9      2.360      3.237
  Name = 
  3 active torsions:
  status: ('A' for Active; 'I' for Inactive)
    1  A    between atoms: N_2  and  C_3
    2  A    between atoms: C_9  and  C_18
    3  A    between atoms: C_14  and  C_25
                            x       y       z     vdW  Elec       q    Type
                         _______ _______ _______ _____ _____    ______ ____

>  <TORSDO>
F 3

$$$$
=
 OpenBabel10272401463D

 28 31  0  0  1  0  0  0  0  0999 V2000
  187.2610  176.5710  137.5590 C   0  0  0  0  0  0  0  0  0  0  0  0
  186.8570  175.3100  137.0200 N   0  0  0  0  0  2  0  0  0  0  0  0
  188.6070  179.1800  138.4430 C   0  0  0  0  0  2  0  0  0  0  0  0
  190.2750  177.5430  139.4570 C   0  0  0  0  0  2  0  0  0  0  0  0
  188.6990  178.3200  136.0360 C   0  0  0  0  0  2  0  0  0  0  0  0
  188.2450  176.6260  138.4140 N   0  0  0  0  0  0  0  0  0  0  0  0
  187.2960  178.3480  135.8640 O   0  0  0  0  0  0  0  0  0  0  0  0
  188.4530  177.8170  140.5580 C   0  0  0  0  0  2  0  0  0  0  0  0
  189.2080  179.3520  137.0460 C   0  0  0  0  0  2  0  0  0  0  0  0
  189.8990  177.5410  140.9330 C   0  0  1  0  0  3  0  0  0  0  0  0
  186.6300  177.8180  137.0020 C   0  0  0  0  0  2  0  0  0  0  0  0
  188.8280  177.8010  139.0880 C   0  0  2  0  0  0  0  0  0  0  0  0
  187.5210  174.0530  137.3540 C   0  0  2  0  0  3  0  0  0  0  0  0
  187.7070  171.4420  136.0870 C   0  0  0  0  0  2  0  0  0  0  0  0
  188.6470  173.7990  136.3410 C   0  0  0  0  0  2  0  0  0  0  0  0
  185.1760  173.2950  137.7150 N   0  0  0  0  0  1  0  0  0  0  0  0
  186.5250  172.8720  137.3660 C   0  0  1  0  0  3  0  0  0  0  0  0
  186.5250  172.2140  136.1210 O   0  0  0  0  0  0  0  0  0  0  0  0
  188.9780  172.3110  136.2100 C   0  0  0  0  0  2  0  0  0  0  0  0
  190.0050  176.1580  141.4980 C   0  0  0  0  0  3  0  0  0  0  0  0
  189.6500  175.7900  142.7340 C   0  0  0  0  0  3  0  0  0  0  0  0
  189.2110  177.6550  146.0780 C   0  0  0  0  0  2  0  0  0  0  0  0
  189.0650  176.6410  143.7860 C   0  0  0  0  0  0  0  0  0  0  0  0
  187.0700  177.5760  144.8570 C   0  0  0  0  0  0  0  0  0  0  0  0
  189.9040  177.4910  144.7180 C   0  0  0  0  0  2  0  0  0  0  0  0
  187.7310  176.7490  143.8290 C   0  0  0  0  0  3  0  0  0  0  0  0
  185.6900  177.8950  144.7320 N   0  0  0  0  0  1  0  0  0  0  0  0
  187.7710  178.0470  145.8940 C   0  0  0  0  0  3  0  0  0  0  0  0
  1  6  2  0  0  0  0
  2  1  1  0  0  0  0
  4 10  1  0  0  0  0
  5  9  1  0  0  0  0
  6 12  1  0  0  0  0
  7  5  1  0  0  0  0
  7 11  1  0  0  0  0
  8 10  1  0  0  0  0
  9  3  1  0  0  0  0
 10 20  1  6  0  0  0
 11  1  1  0  0  0  0
 12  3  1  6  0  0  0
 12  4  1  0  0  0  0
 12  8  1  0  0  0  0
 13  2  1  6  0  0  0
 13 17  1  0  0  0  0
 14 18  1  0  0  0  0
 14 19  1  0  0  0  0
 15 13  1  0  0  0  0
 17 16  1  6  0  0  0
 18 17  1  0  0  0  0
 19 15  1  0  0  0  0
 20 21  2  0  0  0  0
 21 23  1  0  0  0  0
 23 26  2  0  0  0  0
 23 25  1  0  0  0  0
 24 28  2  0  0  0  0
 25 22  1  0  0  0  0
 26 24  1  0  0  0  0
 27 24  1  0  0  0  0
 28 22  1  0  0  0  0
M  END
>  <MODEL>
3

>  <REMARK>
 VINA RESULT:      -7.5      2.907      4.186
  Name = 
  3 active torsions:
  status: ('A' for Active; 'I' for Inactive)
    1  A    between atoms: N_2  and  C_3
    2  A    between atoms: C_9  and  C_18
    3  A    between atoms: C_14  and  C_25
                            x       y       z     vdW  Elec       q    Type
                         _______ _______ _______ _____ _____    ______ ____

>  <TORSDO>
F 3

$$$$
=
 OpenBabel10272401463D

 28 31  0  0  1  0  0  0  0  0999 V2000
  183.1210  176.5320  138.1940 C   0  0  0  0  0  0  0  0  0  0  0  0
  183.7550  175.6440  137.2700 N   0  0  0  0  0  2  0  0  0  0  0  0
  181.9600  178.8400  139.8450 C   0  0  0  0  0  2  0  0  0  0  0  0
  184.4270  179.4480  140.0430 C   0  0  0  0  0  2  0  0  0  0  0  0
  181.8290  178.7610  137.2920 C   0  0  0  0  0  2  0  0  0  0  0  0
  183.8440  177.3390  138.9200 N   0  0  0  0  0  0  0  0  0  0  0  0
  181.0900  177.5550  137.2660 O   0  0  0  0  0  0  0  0  0  0  0  0
  183.7530  177.8630  141.3230 C   0  0  0  0  0  2  0  0  0  0  0  0
  181.5980  179.5880  138.5600 C   0  0  0  0  0  2  0  0  0  0  0  0
  184.7860  178.9700  141.4440 C   0  0  1  0  0  3  0  0  0  0  0  0
  181.6180  176.6100  138.1870 C   0  0  0  0  0  2  0  0  0  0  0  0
  183.4100  178.3310  139.9220 C   0  0  2  0  0  0  0  0  0  0  0  0
  185.2010  175.6120  137.0640 C   0  0  2  0  0  3  0  0  0  0  0  0
  186.9610  174.3240  135.1420 C   0  0  0  0  0  2  0  0  0  0  0  0
  185.5350  176.3460  135.7570 C   0  0  0  0  0  2  0  0  0  0  0  0
  184.9210  173.2560  137.8220 N   0  0  0  0  0  1  0  0  0  0  0  0
  185.7350  174.1630  137.0250 C   0  0  1  0  0  3  0  0  0  0  0  0
  185.8200  173.7040  135.6960 O   0  0  0  0  0  0  0  0  0  0  0  0
  186.8530  175.8650  135.1480 C   0  0  0  0  0  2  0  0  0  0  0  0
  186.1560  178.3650  141.4560 C   0  0  0  0  0  3  0  0  0  0  0  0
  186.8320  177.9820  142.5450 C   0  0  0  0  0  3  0  0  0  0  0  0
  184.8270  178.9980  145.6750 C   0  0  0  0  0  2  0  0  0  0  0  0
  186.3780  178.0470  143.9460 C   0  0  0  0  0  0  0  0  0  0  0  0
  186.9040  177.8420  146.3300 C   0  0  0  0  0  0  0  0  0  0  0  0
  184.9300  178.2590  144.3340 C   0  0  0  0  0  2  0  0  0  0  0  0
  187.2790  177.7880  144.9030 C   0  0  0  0  0  3  0  0  0  0  0  0
  187.7830  177.3100  147.3140 N   0  0  0  0  0  1  0  0  0  0  0  0
  185.7300  178.3650  146.6970 C   0  0  0  0  0  3  0  0  0  0  0  0
  1  6  2  0  0  0  0
  2  1  1  0  0  0  0
  4 10  1  0  0  0  0
  5  9  1  0  0  0  0
  6 12  1  0  0  0  0
  7  5  1  0  0  0  0
  7 11  1  0  0  0  0
  8 10  1  0  0  0  0
  9  3  1  0  0  0  0
 10 20  1  6  0  0  0
 11  1  1  0  0  0  0
 12  3  1  6  0  0  0
 12  4  1  0  0  0  0
 12  8  1  0  0  0  0
 13  2  1  6  0  0  0
 14 19  1  0  0  0  0
 14 18  1  0  0  0  0
 15 13  1  0  0  0  0
 17 13  1  0  0  0  0
 17 16  1  1  0  0  0
 18 17  1  0  0  0  0
 19 15  1  0  0  0  0
 20 21  2  0  0  0  0
 21 23  1  0  0  0  0
 22 28  1  0  0  0  0
 23 25  1  0  0  0  0
 23 26  2  0  0  0  0
 24 28  2  0  0  0  0
 24 27  1  0  0  0  0
 25 22  1  0  0  0  0
 26 24  1  0  0  0  0
M  END
>  <MODEL>
4

>  <REMARK>
 VINA RESULT:      -7.3      3.022      5.362
  Name = 
  3 active torsions:
  status: ('A' for Active; 'I' for Inactive)
    1  A    between atoms: N_2  and  C_3
    2  A    between atoms: C_9  and  C_18
    3  A    between atoms: C_14  and  C_25
                            x       y       z     vdW  Elec       q    Type
                         _______ _______ _______ _____ _____    ______ ____

>  <TORSDO>
F 3

$$$$
=
 OpenBabel10272401463D

 28 31  0  0  1  0  0  0  0  0999 V2000
  189.2930  175.6200  137.2650 C   0  0  0  0  0  0  0  0  0  0  0  0
  190.2220  174.6530  136.7680 N   0  0  0  0  0  2  0  0  0  0  0  0
  187.6850  178.0680  138.1740 C   0  0  0  0  0  2  0  0  0  0  0  0
  189.7300  178.3970  139.6570 C   0  0  0  0  0  2  0  0  0  0  0  0
  188.9030  177.9660  135.9270 C   0  0  0  0  0  2  0  0  0  0  0  0
  189.6070  176.3510  138.2980 N   0  0  0  0  0  0  0  0  0  0  0  0
  188.1670  176.8510  135.4630 O   0  0  0  0  0  0  0  0  0  0  0  0
  188.3260  176.9170  140.3230 C   0  0  0  0  0  2  0  0  0  0  0  0
  188.1290  178.8320  136.9240 C   0  0  0  0  0  2  0  0  0  0  0  0
  189.2510  177.9020  141.0160 C   0  0  1  0  0  3  0  0  0  0  0  0
  188.0340  175.8660  136.4780 C   0  0  0  0  0  2  0  0  0  0  0  0
  188.8190  177.3990  138.9720 C   0  0  2  0  0  0  0  0  0  0  0  0
  191.5490  174.4560  137.3440 C   0  0  2  0  0  3  0  0  0  0  0  0
  194.2680  174.8670  136.4000 C   0  0  0  0  0  2  0  0  0  0  0  0
  192.2090  175.8260  137.5590 C   0  0  0  0  0  2  0  0  0  0  0  0
  191.6410  172.6200  135.6640 N   0  0  0  0  0  1  0  0  0  0  0  0
  192.4310  173.5630  136.4430 C   0  0  1  0  0  3  0  0  0  0  0  0
  193.2280  174.3540  135.5930 O   0  0  0  0  0  0  0  0  0  0  0  0
  193.7360  175.7350  137.5620 C   0  0  0  0  0  2  0  0  0  0  0  0
  190.3410  177.1480  141.7120 C   0  0  0  0  0  3  0  0  0  0  0  0
  190.3300  176.7630  142.9930 C   0  0  0  0  0  3  0  0  0  0  0  0
  186.8440  177.4640  144.4790 C   0  0  0  0  0  2  0  0  0  0  0  0
  189.2540  176.9720  143.9790 C   0  0  0  0  0  0  0  0  0  0  0  0
  188.5770  177.7030  146.2170 C   0  0  0  0  0  0  0  0  0  0  0  0
  187.8230  176.5410  143.7400 C   0  0  0  0  0  2  0  0  0  0  0  0
  189.5980  177.4580  145.1800 C   0  0  0  0  0  3  0  0  0  0  0  0
  188.9760  177.9600  147.5580 N   0  0  0  0  0  1  0  0  0  0  0  0
  187.2770  177.6600  145.9050 C   0  0  0  0  0  3  0  0  0  0  0  0
  1  6  2  0  0  0  0
  2  1  1  0  0  0  0
  4 10  1  0  0  0  0
  5  9  1  0  0  0  0
  6 12  1  0  0  0  0
  7  5  1  0  0  0  0
  7 11  1  0  0  0  0
  8 10  1  0  0  0  0
  9  3  1  0  0  0  0
 10 20  1  1  0  0  0
 11  1  1  0  0  0  0
 12  3  1  6  0  0  0
 12  4  1  0  0  0  0
 12  8  1  0  0  0  0
 13  2  1  6  0  0  0
 13 15  1  0  0  0  0
 14 19  1  0  0  0  0
 15 19  1  0  0  0  0
 17 16  1  6  0  0  0
 17 13  1  0  0  0  0
 18 14  1  0  0  0  0
 18 17  1  0  0  0  0
 20 21  2  0  0  0  0
 21 23  1  0  0  0  0
 22 28  1  0  0  0  0
 23 26  2  0  0  0  0
 24 27  1  0  0  0  0
 25 23  1  0  0  0  0
 25 22  1  0  0  0  0
 26 24  1  0  0  0  0
 28 24  2  0  0  0  0
M  END
>  <MODEL>
5

>  <REMARK>
 VINA RESULT:      -7.2      2.832      5.661
  Name = 
  3 active torsions:
  status: ('A' for Active; 'I' for Inactive)
    1  A    between atoms: N_2  and  C_3
    2  A    between atoms: C_9  and  C_18
    3  A    between atoms: C_14  and  C_25
                            x       y       z     vdW  Elec       q    Type
                         _______ _______ _______ _____ _____    ______ ____

>  <TORSDO>
F 3

$$$$
=
 OpenBabel10272401463D

 28 31  0  0  1  0  0  0  0  0999 V2000
  189.5120  177.9490  138.5540 C   0  0  0  0  0  0  0  0  0  0  0  0
  189.4010  178.0950  139.9720 N   0  0  0  0  0  2  0  0  0  0  0  0
  189.3230  177.2800  135.5680 C   0  0  0  0  0  2  0  0  0  0  0  0
  189.8110  174.9370  136.4410 C   0  0  0  0  0  2  0  0  0  0  0  0
  187.2680  177.7640  137.0120 C   0  0  0  0  0  2  0  0  0  0  0  0
  189.8630  176.8010  138.0450 N   0  0  0  0  0  0  0  0  0  0  0  0
  187.6880  179.0720  137.3510 O   0  0  0  0  0  0  0  0  0  0  0  0
  191.5040  176.2470  136.2960 C   0  0  0  0  0  2  0  0  0  0  0  0
  187.7950  177.2900  135.6550 C   0  0  0  0  0  2  0  0  0  0  0  0
  191.2890  174.7540  136.1230 C   0  0  1  0  0  3  0  0  0  0  0  0
  189.0700  179.0950  137.6850 C   0  0  0  0  0  2  0  0  0  0  0  0
  190.0350  176.4230  136.6300 C   0  0  2  0  0  0  0  0  0  0  0  0
  189.6320  176.9950  140.9050 C   0  0  2  0  0  3  0  0  0  0  0  0
  190.4390  176.8160  143.6920 C   0  0  0  0  0  2  0  0  0  0  0  0
  188.5490  177.0280  141.9930 C   0  0  0  0  0  2  0  0  0  0  0  0
  192.0020  177.7210  140.6540 N   0  0  0  0  0  1  0  0  0  0  0  0
  191.0400  177.0740  141.5360 C   0  0  1  0  0  3  0  0  0  0  0  0
  190.9880  177.7400  142.7760 O   0  0  0  0  0  0  0  0  0  0  0  0
  189.0170  176.3650  143.2900 C   0  0  0  0  0  2  0  0  0  0  0  0
  191.9780  174.0260  137.2360 C   0  0  0  0  0  3  0  0  0  0  0  0
  193.2730  173.6920  137.2680 C   0  0  0  0  0  3  0  0  0  0  0  0
  195.8330  173.1710  134.4340 C   0  0  0  0  0  2  0  0  0  0  0  0
  194.2950  173.9810  136.2450 C   0  0  0  0  0  0  0  0  0  0  0  0
  196.1510  175.3840  135.4760 C   0  0  0  0  0  0  0  0  0  0  0  0
  194.3820  173.2310  134.9330 C   0  0  0  0  0  2  0  0  0  0  0  0
  195.0980  175.0340  136.4490 C   0  0  0  0  0  3  0  0  0  0  0  0
  196.8100  176.6400  135.5650 N   0  0  0  0  0  1  0  0  0  0  0  0
  196.4690  174.5320  134.4950 C   0  0  0  0  0  3  0  0  0  0  0  0
  1  2  1  0  0  0  0
  3  9  1  0  0  0  0
  4 12  1  0  0  0  0
  5  7  1  0  0  0  0
  6  1  2  0  0  0  0
  7 11  1  0  0  0  0
  8 12  1  0  0  0  0
  9  5  1  0  0  0  0
 10  8  1  0  0  0  0
 10  4  1  0  0  0  0
 10 20  1  1  0  0  0
 11  1  1  0  0  0  0
 12  3  1  6  0  0  0
 12  6  1  0  0  0  0
 13  2  1  6  0  0  0
 13 17  1  0  0  0  0
 13 15  1  0  0  0  0
 15 19  1  0  0  0  0
 17 16  1  6  0  0  0
 17 18  1  0  0  0  0
 18 14  1  0  0  0  0
 19 14  1  0  0  0  0
 20 21  2  0  0  0  0
 22 28  1  0  0  0  0
 22 25  1  0  0  0  0
 23 26  2  0  0  0  0
 23 21  1  0  0  0  0
 24 27  1  0  0  0  0
 24 26  1  0  0  0  0
 25 23  1  0  0  0  0
 28 24  2  0  0  0  0
M  END
>  <MODEL>
6

>  <REMARK>
 VINA RESULT:      -7.2      4.247      8.715
  Name = 
  3 active torsions:
  status: ('A' for Active; 'I' for Inactive)
    1  A    between atoms: N_2  and  C_3
    2  A    between atoms: C_9  and  C_18
    3  A    between atoms: C_14  and  C_25
                            x       y       z     vdW  Elec       q    Type
                         _______ _______ _______ _____ _____    ______ ____

>  <TORSDO>
F 3

$$$$
=
 OpenBabel10272401463D

 28 31  0  0  1  0  0  0  0  0999 V2000
  190.4810  177.2900  140.6470 C   0  0  0  0  0  0  0  0  0  0  0  0
  190.8290  176.7060  139.3900 N   0  0  0  0  0  2  0  0  0  0  0  0
  189.5440  178.0330  143.4700 C   0  0  0  0  0  2  0  0  0  0  0  0
  187.2980  177.3000  142.5170 C   0  0  0  0  0  2  0  0  0  0  0  0
  190.8480  175.8930  142.9620 C   0  0  0  0  0  2  0  0  0  0  0  0
  189.2270  177.3840  140.9930 N   0  0  0  0  0  0  0  0  0  0  0  0
  191.9780  176.5790  142.4590 O   0  0  0  0  0  0  0  0  0  0  0  0
  187.9550  179.2630  141.9490 C   0  0  0  0  0  2  0  0  0  0  0  0
  190.0630  176.6950  144.0030 C   0  0  0  0  0  2  0  0  0  0  0  0
  186.6040  178.6230  142.2200 C   0  0  1  0  0  3  0  0  0  0  0  0
  191.5910  177.6430  141.6000 C   0  0  0  0  0  2  0  0  0  0  0  0
  188.6410  177.9390  142.2280 C   0  0  2  0  0  0  0  0  0  0  0  0
  189.8390  176.1640  138.4630 C   0  0  2  0  0  3  0  0  0  0  0  0
  189.6110  176.0290  135.5670 C   0  0  0  0  0  2  0  0  0  0  0  0
  190.4500  174.9620  137.7270 C   0  0  0  0  0  2  0  0  0  0  0  0
  189.4330  178.5790  138.0080 N   0  0  0  0  0  1  0  0  0  0  0  0
  189.3620  177.2340  137.4550 C   0  0  1  0  0  3  0  0  0  0  0  0
  190.1060  177.1550  136.2620 O   0  0  0  0  0  0  0  0  0  0  0  0
  189.7850  174.7210  136.3700 C   0  0  0  0  0  2  0  0  0  0  0  0
  185.8350  178.5340  140.9370 C   0  0  0  0  0  3  0  0  0  0  0  0
  184.5020  178.5120  140.8250 C   0  0  0  0  0  3  0  0  0  0  0  0
  181.1980  179.1650  142.6980 C   0  0  0  0  0  2  0  0  0  0  0  0
  183.5130  178.5920  141.9150 C   0  0  0  0  0  0  0  0  0  0  0  0
  183.0460  178.8710  144.3040 C   0  0  0  0  0  0  0  0  0  0  0  0
  182.0340  178.3460  141.7050 C   0  0  0  0  0  2  0  0  0  0  0  0
  183.9740  178.7730  143.1600 C   0  0  0  0  0  3  0  0  0  0  0  0
  183.5480  178.7940  145.6320 N   0  0  0  0  0  1  0  0  0  0  0  0
  181.7330  179.0070  144.0950 C   0  0  0  0  0  3  0  0  0  0  0  0
  1  6  2  0  0  0  0
  1 11  1  0  0  0  0
  2  1  1  0  0  0  0
  3  9  1  0  0  0  0
  5  9  1  0  0  0  0
  6 12  1  0  0  0  0
  7  5  1  0  0  0  0
  8 10  1  0  0  0  0
 10 20  1  6  0  0  0
 10  4  1  0  0  0  0
 11  7  1  0  0  0  0
 12  8  1  6  0  0  0
 12  4  1  0  0  0  0
 12  3  1  0  0  0  0
 13  2  1  1  0  0  0
 14 18  1  0  0  0  0
 14 19  1  0  0  0  0
 15 13  1  0  0  0  0
 17 16  1  1  0  0  0
 17 13  1  0  0  0  0
 18 17  1  0  0  0  0
 19 15  1  0  0  0  0
 21 20  2  0  0  0  0
 21 23  1  0  0  0  0
 22 28  1  0  0  0  0
 23 26  2  0  0  0  0
 24 27  1  0  0  0  0
 25 23  1  0  0  0  0
 25 22  1  0  0  0  0
 26 24  1  0  0  0  0
 28 24  2  0  0  0  0
M  END
>  <MODEL>
7

>  <REMARK>
 VINA RESULT:      -6.9      3.161      5.674
  Name = 
  3 active torsions:
  status: ('A' for Active; 'I' for Inactive)
    1  A    between atoms: N_2  and  C_3
    2  A    between atoms: C_9  and  C_18
    3  A    between atoms: C_14  and  C_25
                            x       y       z     vdW  Elec       q    Type
                         _______ _______ _______ _____ _____    ______ ____

>  <TORSDO>
F 3

$$$$
=
 OpenBabel10272401463D

 28 31  0  0  1  0  0  0  0  0999 V2000
  190.1010  178.1980  145.6840 C   0  0  0  0  0  0  0  0  0  0  0  0
  191.2950  178.2410  144.8980 N   0  0  0  0  0  2  0  0  0  0  0  0
  187.5570  177.5540  147.2700 C   0  0  0  0  0  2  0  0  0  0  0  0
  186.7950  176.7080  144.9910 C   0  0  0  0  0  2  0  0  0  0  0  0
  189.6950  176.1630  147.4560 C   0  0  0  0  0  2  0  0  0  0  0  0
  188.9750  177.8390  145.1330 N   0  0  0  0  0  0  0  0  0  0  0  0
  190.4810  177.2460  147.9150 O   0  0  0  0  0  0  0  0  0  0  0  0
  186.7270  178.8350  145.2640 C   0  0  0  0  0  2  0  0  0  0  0  0
  188.2150  176.2880  147.8240 C   0  0  0  0  0  2  0  0  0  0  0  0
  185.8900  177.8280  144.4950 C   0  0  1  0  0  3  0  0  0  0  0  0
  190.2170  178.4240  147.1670 C   0  0  0  0  0  2  0  0  0  0  0  0
  187.6370  177.7190  145.7420 C   0  0  2  0  0  0  0  0  0  0  0  0
  191.3330  177.8660  143.4870 C   0  0  2  0  0  3  0  0  0  0  0  0
  189.7040  176.1640  141.7830 C   0  0  0  0  0  2  0  0  0  0  0  0
  190.1160  178.4770  142.7760 C   0  0  0  0  0  2  0  0  0  0  0  0
  191.9820  175.6560  144.4370 N   0  0  0  0  0  1  0  0  0  0  0  0
  191.3510  176.3310  143.3100 C   0  0  1  0  0  3  0  0  0  0  0  0
  190.0460  175.8410  143.1140 O   0  0  0  0  0  0  0  0  0  0  0  0
  189.7260  177.6870  141.5250 C   0  0  0  0  0  2  0  0  0  0  0  0
  186.0860  178.0470  143.0260 C   0  0  0  0  0  3  0  0  0  0  0  0
  185.1350  178.4080  142.1560 C   0  0  0  0  0  3  0  0  0  0  0  0
  181.8280  178.7890  144.0980 C   0  0  0  0  0  2  0  0  0  0  0  0
  183.7180  178.6890  142.4490 C   0  0  0  0  0  0  0  0  0  0  0  0
  181.3970  178.7820  141.6700 C   0  0  0  0  0  0  0  0  0  0  0  0
  183.2470  179.2690  143.7660 C   0  0  0  0  0  2  0  0  0  0  0  0
  182.8350  178.5290  141.4540 C   0  0  0  0  0  3  0  0  0  0  0  0
  180.5170  178.8690  140.5560 N   0  0  0  0  0  1  0  0  0  0  0  0
  180.9230  178.9540  142.9090 C   0  0  0  0  0  3  0  0  0  0  0  0
  1 11  1  0  0  0  0
  2  1  1  0  0  0  0
  3  9  1  0  0  0  0
  5  9  1  0  0  0  0
  5  7  1  0  0  0  0
  6  1  2  0  0  0  0
  6 12  1  0  0  0  0
  8 12  1  0  0  0  0
 10 20  1  6  0  0  0
 10  4  1  0  0  0  0
 10  8  1  0  0  0  0
 11  7  1  0  0  0  0
 12  4  1  6  0  0  0
 12  3  1  0  0  0  0
 13  2  1  1  0  0  0
 14 18  1  0  0  0  0
 15 13  1  0  0  0  0
 17 13  1  0  0  0  0
 17 16  1  1  0  0  0
 18 17  1  0  0  0  0
 19 14  1  0  0  0  0
 19 15  1  0  0  0  0
 21 23  1  0  0  0  0
 21 20  2  0  0  0  0
 23 25  1  0  0  0  0
 24 28  2  0  0  0  0
 25 22  1  0  0  0  0
 26 24  1  0  0  0  0
 26 23  2  0  0  0  0
 27 24  1  0  0  0  0
 28 22  1  0  0  0  0
M  END
>  <MODEL>
8

>  <REMARK>
 VINA RESULT:      -6.8      3.634      7.894
  Name = 
  3 active torsions:
  status: ('A' for Active; 'I' for Inactive)
    1  A    between atoms: N_2  and  C_3
    2  A    between atoms: C_9  and  C_18
    3  A    between atoms: C_14  and  C_25
                            x       y       z     vdW  Elec       q    Type
                         _______ _______ _______ _____ _____    ______ ____

>  <TORSDO>
F 3

$$$$
=
 OpenBabel10272401463D

 28 31  0  0  1  0  0  0  0  0999 V2000
  187.6840  176.2460  135.7750 C   0  0  0  0  0  0  0  0  0  0  0  0
  186.3460  175.7740  135.5980 N   0  0  0  0  0  2  0  0  0  0  0  0
  190.6330  176.7770  136.4250 C   0  0  0  0  0  2  0  0  0  0  0  0
  189.7600  176.5740  138.8100 C   0  0  0  0  0  2  0  0  0  0  0  0
  189.7900  174.5240  135.5560 C   0  0  0  0  0  2  0  0  0  0  0  0
  188.1260  176.5120  136.9730 N   0  0  0  0  0  0  0  0  0  0  0  0
  189.2930  175.0610  134.3460 O   0  0  0  0  0  0  0  0  0  0  0  0
  189.3790  178.4480  137.8350 C   0  0  0  0  0  2  0  0  0  0  0  0
  190.9690  175.3130  136.1320 C   0  0  0  0  0  2  0  0  0  0  0  0
  189.6680  178.0250  139.2650 C   0  0  1  0  0  3  0  0  0  0  0  0
  188.5920  176.2760  134.5750 C   0  0  0  0  0  2  0  0  0  0  0  0
  189.4540  177.0000  137.3880 C   0  0  2  0  0  0  0  0  0  0  0  0
  185.4340  175.5350  136.7140 C   0  0  2  0  0  3  0  0  0  0  0  0
  182.8880  174.1630  137.0110 C   0  0  0  0  0  2  0  0  0  0  0  0
  185.4350  174.0350  137.0460 C   0  0  0  0  0  2  0  0  0  0  0  0
  184.0000  177.1310  135.4480 N   0  0  0  0  0  1  0  0  0  0  0  0
  184.0030  176.0190  136.3880 C   0  0  1  0  0  3  0  0  0  0  0  0
  183.2240  174.9560  135.8920 O   0  0  0  0  0  0  0  0  0  0  0  0
  184.1360  173.5970  137.7250 C   0  0  0  0  0  2  0  0  0  0  0  0
  188.4400  178.2340  140.0980 C   0  0  0  0  0  3  0  0  0  0  0  0
  188.3480  178.0370  141.4180 C   0  0  0  0  0  3  0  0  0  0  0  0
  190.4000  175.8410  143.8310 C   0  0  0  0  0  2  0  0  0  0  0  0
  189.4190  177.6000  142.3320 C   0  0  0  0  0  0  0  0  0  0  0  0
  191.1500  178.1860  143.9630 C   0  0  0  0  0  0  0  0  0  0  0  0
  189.8930  176.1640  142.4190 C   0  0  0  0  0  2  0  0  0  0  0  0
  190.0710  178.5450  143.0220 C   0  0  0  0  0  3  0  0  0  0  0  0
  192.0050  179.1990  144.4800 N   0  0  0  0  0  1  0  0  0  0  0  0
  191.3420  176.9100  144.3110 C   0  0  0  0  0  3  0  0  0  0  0  0
  1  6  2  0  0  0  0
  2  1  1  0  0  0  0
  4 10  1  0  0  0  0
  5  9  1  0  0  0  0
  6 12  1  0  0  0  0
  7 11  1  0  0  0  0
  7  5  1  0  0  0  0
  8 10  1  0  0  0  0
  9  3  1  0  0  0  0
 10 20  1  1  0  0  0
 11  1  1  0  0  0  0
 12  3  1  6  0  0  0
 12  8  1  0  0  0  0
 12  4  1  0  0  0  0
 13  2  1  6  0  0  0
 13 15  1  0  0  0  0
 14 19  1  0  0  0  0
 15 19  1  0  0  0  0
 17 16  1  6  0  0  0
 17 13  1  0  0  0  0
 18 17  1  0  0  0  0
 18 14  1  0  0  0  0
 20 21  2  0  0  0  0
 21 23  1  0  0  0  0
 22 28  1  0  0  0  0
 23 25  1  0  0  0  0
 23 26  2  0  0  0  0
 24 28  2  0  0  0  0
 24 27  1  0  0  0  0
 25 22  1  0  0  0  0
 26 24  1  0  0  0  0
M  END
>  <MODEL>
9

>  <REMARK>
 VINA RESULT:      -6.7      2.841      3.668
  Name = 
  3 active torsions:
  status: ('A' for Active; 'I' for Inactive)
    1  A    between atoms: N_2  and  C_3
    2  A    between atoms: C_9  and  C_18
    3  A    between atoms: C_14  and  C_25
                            x       y       z     vdW  Elec       q    Type
                         _______ _______ _______ _____ _____    ______ ____

>  <TORSDO>
F 3

$$$$
