=
 OpenBabel10272400043D

 34 41  0  0  1  0  0  0  0  0999 V2000
  189.2810  177.0930  145.9800 C   0  0  0  0  0  0  0  0  0  0  0  0
  191.0430  177.0380  144.3110 C   0  0  0  0  0  0  0  0  0  0  0  0
  188.7540  177.6070  143.6920 C   0  0  0  0  0  0  0  0  0  0  0  0
  188.1980  177.6520  141.3100 C   0  0  2  0  0  3  0  0  0  0  0  0
  191.5030  176.5450  146.5860 C   0  0  0  0  0  3  0  0  0  0  0  0
  191.9190  176.6980  145.2940 N   0  0  0  0  0  0  0  0  0  0  0  0
  190.3410  177.0410  141.9080 C   0  0  2  0  0  3  0  0  0  0  0  0
  189.6900  177.2500  144.6550 C   0  0  0  0  0  0  0  0  0  0  0  0
  189.0190  177.8750  140.0430 C   0  0  0  0  0  2  0  0  0  0  0  0
  190.1960  176.7420  146.9220 N   0  0  0  0  0  0  0  0  0  0  0  0
  187.4230  177.8540  144.0300 C   0  0  0  0  0  0  0  0  0  0  0  0
  187.9360  177.3250  146.3060 C   0  0  0  0  0  3  0  0  0  0  0  0
  191.5240  177.2430  142.8720 C   0  0  0  0  0  2  0  0  0  0  0  0
  187.0070  178.5580  141.6150 C   0  0  0  0  0  2  0  0  0  0  0  0
  186.4930  178.2740  142.9830 N   0  0  0  0  0  0  0  0  0  0  0  0
  190.4630  177.4550  140.4430 C   0  0  2  0  0  3  0  0  0  0  0  0
  189.2230  177.9160  142.3380 C   0  0  2  0  0  3  0  0  0  0  0  0
  187.0460  177.7010  145.3360 N   0  0  0  0  0  0  0  0  0  0  0  0
  182.7890  178.6620  142.4520 C   0  0  0  0  0  0  0  0  0  0  0  0
  182.3620  178.9630  143.7460 C   0  0  0  0  0  3  0  0  0  0  0  0
  185.0880  178.4870  143.2400 C   0  0  0  0  0  0  0  0  0  0  0  0
  183.2900  179.0330  144.7890 C   0  0  0  0  0  3  0  0  0  0  0  0
  184.1440  178.4310  142.2010 C   0  0  0  0  0  3  0  0  0  0  0  0
  184.6450  178.7990  144.5360 C   0  0  0  0  0  3  0  0  0  0  0  0
  181.8040  178.5940  141.3420 C   0  0  0  0  0  1  0  0  0  0  0  0
  190.9170  176.2800  139.5860 C   0  0  0  0  0  2  0  0  0  0  0  0
  191.5460  176.7430  138.2770 C   0  0  0  0  0  2  0  0  0  0  0  0
  193.0360  176.4250  138.2330 C   0  0  0  0  0  2  0  0  0  0  0  0
  194.5010  174.6980  138.1960 C   0  0  0  0  0  2  0  0  0  0  0  0
  194.7280  174.8050  136.7990 C   0  0  1  0  0  3  0  0  0  0  0  0
  194.3980  176.5630  135.6040 C   0  0  0  0  0  2  0  0  0  0  0  0
  193.1050  175.8420  135.9490 C   0  0  0  0  0  2  0  0  0  0  0  0
  193.3160  175.2250  137.3270 C   0  0  2  0  0  0  0  0  0  0  0  0
  195.3740  175.9770  136.4070 O   0  0  0  0  0  0  0  0  0  0  0  0
  1 12  1  0  0  0  0
  1 10  2  0  0  0  0
  2  8  2  0  0  0  0
  2  6  1  0  0  0  0
  3 11  2  0  0  0  0
  3  8  1  0  0  0  0
  4  9  1  6  0  0  0
  4 14  1  0  0  0  0
  4 17  1  0  0  0  0
  5 10  1  0  0  0  0
  6  5  2  0  0  0  0
  7 17  1  0  0  0  0
  7 13  1  1  0  0  0
  8  1  1  0  0  0  0
  9 16  1  0  0  0  0
 11 18  1  0  0  0  0
 13  2  1  0  0  0  0
 14 15  1  0  0  0  0
 15 21  1  0  0  0  0
 15 11  1  0  0  0  0
 16 26  1  6  0  0  0
 16  7  1  0  0  0  0
 17  3  1  1  0  0  0
 18 12  2  0  0  0  0
 19 20  1  0  0  0  0
 20 22  2  0  0  0  0
 21 24  2  0  0  0  0
 23 19  2  0  0  0  0
 23 21  1  0  0  0  0
 24 22  1  0  0  0  0
 25 19  1  0  0  0  0
 27 26  1  0  0  0  0
 28 27  1  0  0  0  0
 30 33  1  0  0  0  0
 30 29  1  1  0  0  0
 31 32  1  0  0  0  0
 31 34  1  0  0  0  0
 32 33  1  0  0  0  0
 33 29  1  0  0  0  0
 33 28  1  1  0  0  0
 34 30  1  0  0  0  0
M  END
>  <MODEL>
1

>  <REMARK>
 VINA RESULT:     -10.5      0.000      0.000
  Name = 
  5 active torsions:
  status: ('A' for Active; 'I' for Inactive)
    1  A    between atoms: C_3  and  C_13
    2  A    between atoms: C_3  and  C_17
    3  A    between atoms: C_12  and  N_28
    4  A    between atoms: C_13  and  C_33
    5  A    between atoms: C_17  and  C_29
                            x       y       z     vdW  Elec       q    Type
                         _______ _______ _______ _____ _____    ______ ____

>  <TORSDO>
F 5

$$$$
=
 OpenBabel10272400043D

 34 41  0  0  1  0  0  0  0  0999 V2000
  189.0130  177.0990  146.2180 C   0  0  0  0  0  0  0  0  0  0  0  0
  190.8560  177.0910  144.6370 C   0  0  0  0  0  0  0  0  0  0  0  0
  188.5940  177.6390  143.9130 C   0  0  0  0  0  0  0  0  0  0  0  0
  188.1560  177.7110  141.5070 C   0  0  2  0  0  3  0  0  0  0  0  0
  191.2090  176.5710  146.9250 C   0  0  0  0  0  3  0  0  0  0  0  0
  191.6860  176.7470  145.6580 N   0  0  0  0  0  0  0  0  0  0  0  0
  190.2750  177.1190  142.2030 C   0  0  2  0  0  3  0  0  0  0  0  0
  189.4850  177.2800  144.9170 C   0  0  0  0  0  0  0  0  0  0  0  0
  189.0360  177.9630  140.2860 C   0  0  0  0  0  2  0  0  0  0  0  0
  189.8850  176.7470  147.1990 N   0  0  0  0  0  0  0  0  0  0  0  0
  187.2440  177.8650  144.1880 C   0  0  0  0  0  0  0  0  0  0  0  0
  187.6510  177.3100  146.4800 C   0  0  0  0  0  3  0  0  0  0  0  0
  191.4050  177.3210  143.2270 C   0  0  0  0  0  2  0  0  0  0  0  0
  186.9390  178.5980  141.7660 C   0  0  0  0  0  2  0  0  0  0  0  0
  186.3620  178.2880  143.1020 N   0  0  0  0  0  0  0  0  0  0  0  0
  190.4630  177.5550  140.7520 C   0  0  2  0  0  3  0  0  0  0  0  0
  189.1250  177.9730  142.5890 C   0  0  2  0  0  3  0  0  0  0  0  0
  186.8050  177.6880  145.4710 N   0  0  0  0  0  0  0  0  0  0  0  0
  182.6820  178.6260  142.3950 C   0  0  0  0  0  0  0  0  0  0  0  0
  182.1890  178.9150  143.6680 C   0  0  0  0  0  3  0  0  0  0  0  0
  184.9430  178.4800  143.2920 C   0  0  0  0  0  0  0  0  0  0  0  0
  183.0640  178.9920  144.7540 C   0  0  0  0  0  3  0  0  0  0  0  0
  184.0510  178.4160  142.2080 C   0  0  0  0  0  3  0  0  0  0  0  0
  184.4330  178.7780  144.5660 C   0  0  0  0  0  3  0  0  0  0  0  0
  181.7540  178.5510  141.2380 C   0  0  0  0  0  1  0  0  0  0  0  0
  190.9740  176.3990  139.9020 C   0  0  0  0  0  2  0  0  0  0  0  0
  191.0240  176.7610  138.4230 C   0  0  0  0  0  2  0  0  0  0  0  0
  190.2490  175.7580  137.5770 C   0  0  0  0  0  2  0  0  0  0  0  0
  188.2700  174.8930  136.8930 C   0  0  0  0  0  2  0  0  0  0  0  0
  188.0610  175.9080  135.9240 C   0  0  1  0  0  3  0  0  0  0  0  0
  189.5930  177.1280  135.0320 C   0  0  0  0  0  2  0  0  0  0  0  0
  189.2470  177.5680  136.4460 C   0  0  0  0  0  2  0  0  0  0  0  0
  188.8690  176.3010  137.2060 C   0  0  2  0  0  0  0  0  0  0  0  0
  188.9700  175.8930  134.8660 O   0  0  0  0  0  0  0  0  0  0  0  0
  1 12  1  0  0  0  0
  1 10  2  0  0  0  0
  2  8  2  0  0  0  0
  2  6  1  0  0  0  0
  3 11  2  0  0  0  0
  3  8  1  0  0  0  0
  4  9  1  6  0  0  0
  4 14  1  0  0  0  0
  4 17  1  0  0  0  0
  5 10  1  0  0  0  0
  6  5  2  0  0  0  0
  7 17  1  0  0  0  0
  7 13  1  1  0  0  0
  8  1  1  0  0  0  0
  9 16  1  0  0  0  0
 11 18  1  0  0  0  0
 13  2  1  0  0  0  0
 14 15  1  0  0  0  0
 15 21  1  0  0  0  0
 15 11  1  0  0  0  0
 16 26  1  6  0  0  0
 16  7  1  0  0  0  0
 17  3  1  1  0  0  0
 18 12  2  0  0  0  0
 19 20  1  0  0  0  0
 20 22  2  0  0  0  0
 21 24  2  0  0  0  0
 23 19  2  0  0  0  0
 23 21  1  0  0  0  0
 24 22  1  0  0  0  0
 25 19  1  0  0  0  0
 27 26  1  0  0  0  0
 28 27  1  0  0  0  0
 29 33  1  0  0  0  0
 30 29  1  1  0  0  0
 30 33  1  0  0  0  0
 31 32  1  0  0  0  0
 32 33  1  0  0  0  0
 33 28  1  6  0  0  0
 34 31  1  0  0  0  0
 34 30  1  0  0  0  0
M  END
>  <MODEL>
2

>  <REMARK>
 VINA RESULT:     -10.4      1.922      2.451
  Name = 
  5 active torsions:
  status: ('A' for Active; 'I' for Inactive)
    1  A    between atoms: C_3  and  C_13
    2  A    between atoms: C_3  and  C_17
    3  A    between atoms: C_12  and  N_28
    4  A    between atoms: C_13  and  C_33
    5  A    between atoms: C_17  and  C_29
                            x       y       z     vdW  Elec       q    Type
                         _______ _______ _______ _____ _____    ______ ____

>  <TORSDO>
F 5

$$$$
=
 OpenBabel10272400043D

 34 41  0  0  1  0  0  0  0  0999 V2000
  187.1480  177.5580  137.7650 C   0  0  0  0  0  0  0  0  0  0  0  0
  186.8230  178.4480  140.0000 C   0  0  0  0  0  0  0  0  0  0  0  0
  188.9520  177.4540  139.3490 C   0  0  0  0  0  0  0  0  0  0  0  0
  190.5620  176.9540  141.1220 C   0  0  2  0  0  3  0  0  0  0  0  0
  185.0810  178.5260  138.3910 C   0  0  0  0  0  3  0  0  0  0  0  0
  185.5570  178.7920  139.6430 N   0  0  0  0  0  0  0  0  0  0  0  0
  188.5150  177.8250  141.7350 C   0  0  2  0  0  3  0  0  0  0  0  0
  187.6480  177.8200  139.0410 C   0  0  0  0  0  0  0  0  0  0  0  0
  190.8000  177.5250  142.5180 C   0  0  0  0  0  2  0  0  0  0  0  0
  185.8720  177.9150  137.4630 N   0  0  0  0  0  0  0  0  0  0  0  0
  189.7860  176.8680  138.3960 C   0  0  0  0  0  0  0  0  0  0  0  0
  187.9890  176.9510  136.8190 C   0  0  0  0  0  3  0  0  0  0  0  0
  187.3600  178.7820  141.3940 C   0  0  0  0  0  2  0  0  0  0  0  0
  191.6880  176.9710  140.0900 C   0  0  0  0  0  2  0  0  0  0  0  0
  191.1650  176.5480  138.7630 N   0  0  0  0  0  0  0  0  0  0  0  0
  189.4170  178.1040  142.9350 C   0  0  2  0  0  3  0  0  0  0  0  0
  189.5120  177.8710  140.6380 C   0  0  2  0  0  3  0  0  0  0  0  0
  189.2770  176.6250  137.1500 N   0  0  0  0  0  0  0  0  0  0  0  0
  193.8710  175.9630  136.2160 C   0  0  0  0  0  0  0  0  0  0  0  0
  193.7860  174.5800  136.0460 C   0  0  0  0  0  3  0  0  0  0  0  0
  192.0700  175.8830  137.8550 C   0  0  0  0  0  0  0  0  0  0  0  0
  192.8440  173.8450  136.7700 C   0  0  0  0  0  3  0  0  0  0  0  0
  193.0150  176.6090  137.1120 C   0  0  0  0  0  3  0  0  0  0  0  0
  191.9900  174.4930  137.6670 C   0  0  0  0  0  3  0  0  0  0  0  0
  194.8670  176.7460  135.4420 C   0  0  0  0  0  1  0  0  0  0  0  0
  188.9070  177.3820  144.1750 C   0  0  0  0  0  2  0  0  0  0  0  0
  187.5470  176.7370  143.9370 C   0  0  0  0  0  2  0  0  0  0  0  0
  186.6040  176.9750  145.1100 C   0  0  0  0  0  2  0  0  0  0  0  0
  186.8780  178.1150  147.0490 C   0  0  0  0  0  2  0  0  0  0  0  0
  185.8330  179.0310  146.7600 C   0  0  1  0  0  3  0  0  0  0  0  0
  184.2040  178.6900  145.3970 C   0  0  0  0  0  2  0  0  0  0  0  0
  185.5040  179.0160  144.6800 C   0  0  0  0  0  2  0  0  0  0  0  0
  186.6220  178.4410  145.5430 C   0  0  2  0  0  0  0  0  0  0  0  0
  184.5600  178.4640  146.7250 O   0  0  0  0  0  0  0  0  0  0  0  0
  1  8  1  0  0  0  0
  2 13  1  0  0  0  0
  4 14  1  6  0  0  0
  4  9  1  0  0  0  0
  5  6  2  0  0  0  0
  6  2  1  0  0  0  0
  7 13  1  6  0  0  0
  7 16  1  0  0  0  0
  8  3  1  0  0  0  0
  8  2  2  0  0  0  0
  9 16  1  0  0  0  0
 10  1  2  0  0  0  0
 10  5  1  0  0  0  0
 11 15  1  0  0  0  0
 11  3  2  0  0  0  0
 12 18  2  0  0  0  0
 12  1  1  0  0  0  0
 15 14  1  0  0  0  0
 16 26  1  1  0  0  0
 17  3  1  6  0  0  0
 17  4  1  0  0  0  0
 17  7  1  0  0  0  0
 18 11  1  0  0  0  0
 19 23  1  0  0  0  0
 20 19  2  0  0  0  0
 20 22  1  0  0  0  0
 21 15  1  0  0  0  0
 22 24  2  0  0  0  0
 23 21  2  0  0  0  0
 24 21  1  0  0  0  0
 25 19  1  0  0  0  0
 27 26  1  0  0  0  0
 27 28  1  0  0  0  0
 30 29  1  1  0  0  0
 31 34  1  0  0  0  0
 32 31  1  0  0  0  0
 32 33  1  0  0  0  0
 33 28  1  1  0  0  0
 33 30  1  0  0  0  0
 33 29  1  0  0  0  0
 34 30  1  0  0  0  0
M  END
>  <MODEL>
3

>  <REMARK>
 VINA RESULT:     -10.2      3.757      9.513
  Name = 
  5 active torsions:
  status: ('A' for Active; 'I' for Inactive)
    1  A    between atoms: C_3  and  C_13
    2  A    between atoms: C_3  and  C_17
    3  A    between atoms: C_12  and  N_28
    4  A    between atoms: C_13  and  C_33
    5  A    between atoms: C_17  and  C_29
                            x       y       z     vdW  Elec       q    Type
                         _______ _______ _______ _____ _____    ______ ____

>  <TORSDO>
F 5

$$$$
=
 OpenBabel10272400043D

 34 41  0  0  1  0  0  0  0  0999 V2000
  191.1290  177.0170  145.1080 C   0  0  0  0  0  0  0  0  0  0  0  0
  189.0560  177.1840  146.3630 C   0  0  0  0  0  0  0  0  0  0  0  0
  189.0520  177.2780  143.9260 C   0  0  0  0  0  0  0  0  0  0  0  0
  186.9970  178.0110  142.8200 C   0  0  2  0  0  3  0  0  0  0  0  0
  191.1360  176.9210  147.4730 C   0  0  0  0  0  3  0  0  0  0  0  0
  189.7780  177.0560  147.5080 N   0  0  0  0  0  0  0  0  0  0  0  0
  187.0350  177.9920  145.1270 C   0  0  2  0  0  3  0  0  0  0  0  0
  189.7400  177.1590  145.1270 C   0  0  0  0  0  0  0  0  0  0  0  0
  185.5240  177.9920  143.2200 C   0  0  0  0  0  2  0  0  0  0  0  0
  191.8020  176.9020  146.2830 N   0  0  0  0  0  0  0  0  0  0  0  0
  189.7160  177.2160  142.7000 C   0  0  0  0  0  0  0  0  0  0  0  0
  191.7890  176.9750  143.8710 C   0  0  0  0  0  3  0  0  0  0  0  0
  187.5310  177.2990  146.4080 C   0  0  0  0  0  2  0  0  0  0  0  0
  187.4480  177.3120  141.5390 C   0  0  0  0  0  2  0  0  0  0  0  0
  188.9350  177.2980  141.4670 N   0  0  0  0  0  0  0  0  0  0  0  0
  185.5490  177.9880  144.7760 C   0  0  2  0  0  3  0  0  0  0  0  0
  187.5870  177.2720  143.9530 C   0  0  2  0  0  3  0  0  0  0  0  0
  191.0760  177.0700  142.7060 N   0  0  0  0  0  0  0  0  0  0  0  0
  189.5840  178.0180  137.8320 C   0  0  0  0  0  0  0  0  0  0  0  0
  190.7350  177.2620  137.6090 C   0  0  0  0  0  3  0  0  0  0  0  0
  189.5530  177.3050  140.1620 C   0  0  0  0  0  0  0  0  0  0  0  0
  191.2970  176.5230  138.6540 C   0  0  0  0  0  3  0  0  0  0  0  0
  188.9940  178.0350  139.0990 C   0  0  0  0  0  3  0  0  0  0  0  0
  190.7070  176.5430  139.9210 C   0  0  0  0  0  3  0  0  0  0  0  0
  188.9810  178.7990  136.7210 C   0  0  0  0  0  1  0  0  0  0  0  0
  184.8650  179.2400  145.3070 C   0  0  0  0  0  2  0  0  0  0  0  0
  183.3490  179.1630  145.1640 C   0  0  0  0  0  2  0  0  0  0  0  0
  182.9010  179.5620  143.7630 C   0  0  0  0  0  2  0  0  0  0  0  0
  182.3450  178.7870  141.7080 C   0  0  0  0  0  2  0  0  0  0  0  0
  180.9530  178.8030  141.9820 C   0  0  1  0  0  3  0  0  0  0  0  0
  179.9820  179.9940  143.4870 C   0  0  0  0  0  2  0  0  0  0  0  0
  180.6960  178.7870  144.0720 C   0  0  0  0  0  2  0  0  0  0  0  0
  181.9150  178.5440  143.1900 C   0  0  2  0  0  0  0  0  0  0  0  0
  180.4140  180.0760  142.1650 O   0  0  0  0  0  0  0  0  0  0  0  0
  1  8  1  0  0  0  0
  1 10  2  0  0  0  0
  2 13  1  0  0  0  0
  2  6  1  0  0  0  0
  3  8  1  0  0  0  0
  4 14  1  6  0  0  0
  4  9  1  0  0  0  0
  4 17  1  0  0  0  0
  5  6  2  0  0  0  0
  7 13  1  1  0  0  0
  8  2  2  0  0  0  0
  9 16  1  0  0  0  0
 10  5  1  0  0  0  0
 11 18  1  0  0  0  0
 11  3  2  0  0  0  0
 12  1  1  0  0  0  0
 15 14  1  0  0  0  0
 15 11  1  0  0  0  0
 16  7  1  0  0  0  0
 16 26  1  1  0  0  0
 17  3  1  6  0  0  0
 17  7  1  0  0  0  0
 18 12  2  0  0  0  0
 19 23  1  0  0  0  0
 20 19  2  0  0  0  0
 20 22  1  0  0  0  0
 21 15  1  0  0  0  0
 22 24  2  0  0  0  0
 23 21  2  0  0  0  0
 24 21  1  0  0  0  0
 25 19  1  0  0  0  0
 27 26  1  0  0  0  0
 28 27  1  0  0  0  0
 29 33  1  0  0  0  0
 30 29  1  6  0  0  0
 30 34  1  0  0  0  0
 30 33  1  0  0  0  0
 31 32  1  0  0  0  0
 33 28  1  1  0  0  0
 33 32  1  0  0  0  0
 34 31  1  0  0  0  0
M  END
>  <MODEL>
4

>  <REMARK>
 VINA RESULT:     -10.2      3.366      8.424
  Name = 
  5 active torsions:
  status: ('A' for Active; 'I' for Inactive)
    1  A    between atoms: C_3  and  C_13
    2  A    between atoms: C_3  and  C_17
    3  A    between atoms: C_12  and  N_28
    4  A    between atoms: C_13  and  C_33
    5  A    between atoms: C_17  and  C_29
                            x       y       z     vdW  Elec       q    Type
                         _______ _______ _______ _____ _____    ______ ____

>  <TORSDO>
F 5

$$$$
=
 OpenBabel10272400043D

 34 41  0  0  1  0  0  0  0  0999 V2000
  190.4590  177.1810  145.8660 C   0  0  0  0  0  0  0  0  0  0  0  0
  188.0900  177.4830  146.3070 C   0  0  0  0  0  0  0  0  0  0  0  0
  188.9340  177.4030  144.0210 C   0  0  0  0  0  0  0  0  0  0  0  0
  187.4240  178.1020  142.2270 C   0  0  2  0  0  3  0  0  0  0  0  0
  189.6430  177.2530  148.0860 C   0  0  0  0  0  3  0  0  0  0  0  0
  188.3640  177.4210  147.6380 N   0  0  0  0  0  0  0  0  0  0  0  0
  186.6610  178.2460  144.4000 C   0  0  2  0  0  3  0  0  0  0  0  0
  189.1570  177.3540  145.3910 C   0  0  0  0  0  0  0  0  0  0  0  0
  185.9050  178.1440  142.0890 C   0  0  0  0  0  2  0  0  0  0  0  0
  190.6780  177.1350  147.2060 N   0  0  0  0  0  0  0  0  0  0  0  0
  189.9770  177.2390  143.1090 C   0  0  0  0  0  0  0  0  0  0  0  0
  191.5030  177.0360  144.9400 C   0  0  0  0  0  3  0  0  0  0  0  0
  186.6500  177.6350  145.8120 C   0  0  0  0  0  2  0  0  0  0  0  0
  188.2580  177.3020  141.2270 C   0  0  0  0  0  2  0  0  0  0  0  0
  189.6750  177.2500  141.6780 N   0  0  0  0  0  0  0  0  0  0  0  0
  185.3900  178.2500  143.5540 C   0  0  2  0  0  3  0  0  0  0  0  0
  187.5510  177.4320  143.5360 C   0  0  2  0  0  3  0  0  0  0  0  0
  191.2430  177.0640  143.5960 N   0  0  0  0  0  0  0  0  0  0  0  0
  191.4660  176.4140  138.4770 C   0  0  0  0  0  0  0  0  0  0  0  0
  192.7420  176.9120  138.7450 C   0  0  0  0  0  3  0  0  0  0  0  0
  190.7070  177.1510  140.6720 C   0  0  0  0  0  0  0  0  0  0  0  0
  193.0090  177.5250  139.9720 C   0  0  0  0  0  3  0  0  0  0  0  0
  190.4570  176.5290  139.4370 C   0  0  0  0  0  3  0  0  0  0  0  0
  191.9970  177.6400  140.9300 C   0  0  0  0  0  3  0  0  0  0  0  0
  191.1830  175.7570  137.1750 C   0  0  0  0  0  1  0  0  0  0  0  0
  184.6220  179.5520  143.7380 C   0  0  0  0  0  2  0  0  0  0  0  0
  183.3020  179.3340  144.4690 C   0  0  0  0  0  2  0  0  0  0  0  0
  182.3640  178.4380  143.6700 C   0  0  0  0  0  2  0  0  0  0  0  0
  180.1180  178.7290  143.7420 C   0  0  0  0  0  2  0  0  0  0  0  0
  179.9820  178.7100  142.3290 C   0  0  1  0  0  3  0  0  0  0  0  0
  181.3720  177.8270  140.9450 C   0  0  0  0  0  2  0  0  0  0  0  0
  181.8580  179.1620  141.4840 C   0  0  0  0  0  2  0  0  0  0  0  0
  181.3270  179.2640  142.9100 C   0  0  2  0  0  0  0  0  0  0  0  0
  180.2780  177.4830  141.7360 O   0  0  0  0  0  0  0  0  0  0  0  0
  1 10  2  0  0  0  0
  2  6  1  0  0  0  0
  3  8  1  0  0  0  0
  4 14  1  6  0  0  0
  4 17  1  0  0  0  0
  6  5  2  0  0  0  0
  7 13  1  1  0  0  0
  8  1  1  0  0  0  0
  8  2  2  0  0  0  0
  9  4  1  0  0  0  0
  9 16  1  0  0  0  0
 10  5  1  0  0  0  0
 11 18  1  0  0  0  0
 11  3  2  0  0  0  0
 12  1  1  0  0  0  0
 13  2  1  0  0  0  0
 14 15  1  0  0  0  0
 15 11  1  0  0  0  0
 16 26  1  6  0  0  0
 16  7  1  0  0  0  0
 17  3  1  1  0  0  0
 17  7  1  0  0  0  0
 18 12  2  0  0  0  0
 19 20  2  0  0  0  0
 19 23  1  0  0  0  0
 20 22  1  0  0  0  0
 21 24  1  0  0  0  0
 21 15  1  0  0  0  0
 22 24  2  0  0  0  0
 23 21  2  0  0  0  0
 25 19  1  0  0  0  0
 26 27  1  0  0  0  0
 28 27  1  0  0  0  0
 30 33  1  0  0  0  0
 30 29  1  1  0  0  0
 31 32  1  0  0  0  0
 31 34  1  0  0  0  0
 32 33  1  0  0  0  0
 33 28  1  6  0  0  0
 33 29  1  0  0  0  0
 34 30  1  0  0  0  0
M  END
>  <MODEL>
5

>  <REMARK>
 VINA RESULT:     -10.1      3.197      8.573
  Name = 
  5 active torsions:
  status: ('A' for Active; 'I' for Inactive)
    1  A    between atoms: C_3  and  C_13
    2  A    between atoms: C_3  and  C_17
    3  A    between atoms: C_12  and  N_28
    4  A    between atoms: C_13  and  C_33
    5  A    between atoms: C_17  and  C_29
                            x       y       z     vdW  Elec       q    Type
                         _______ _______ _______ _____ _____    ______ ____

>  <TORSDO>
F 5

$$$$
=
 OpenBabel10272400043D

 34 41  0  0  1  0  0  0  0  0999 V2000
  187.7580  178.0190  140.3610 C   0  0  0  0  0  0  0  0  0  0  0  0
  185.4880  178.7420  139.8940 C   0  0  0  0  0  0  0  0  0  0  0  0
  186.2400  178.3950  142.1870 C   0  0  0  0  0  0  0  0  0  0  0  0
  184.5400  178.3330  143.9450 C   0  0  2  0  0  3  0  0  0  0  0  0
  187.0320  178.3590  138.1340 C   0  0  0  0  0  3  0  0  0  0  0  0
  185.7900  178.7250  138.5690 N   0  0  0  0  0  0  0  0  0  0  0  0
  183.8310  178.5850  141.7640 C   0  0  2  0  0  3  0  0  0  0  0  0
  186.4920  178.3870  140.8210 C   0  0  0  0  0  0  0  0  0  0  0  0
  183.1380  178.9230  144.0720 C   0  0  0  0  0  2  0  0  0  0  0  0
  188.0040  178.0100  139.0250 N   0  0  0  0  0  0  0  0  0  0  0  0
  187.2390  178.0830  143.1110 C   0  0  0  0  0  0  0  0  0  0  0  0
  188.7490  177.6880  141.2980 C   0  0  0  0  0  3  0  0  0  0  0  0
  184.1040  179.1880  140.3750 C   0  0  0  0  0  2  0  0  0  0  0  0
  185.6100  178.6820  144.9780 C   0  0  0  0  0  2  0  0  0  0  0  0
  186.9300  178.1540  144.5380 N   0  0  0  0  0  0  0  0  0  0  0  0
  182.6560  179.0840  142.6010 C   0  0  2  0  0  3  0  0  0  0  0  0
  184.9610  178.9290  142.6620 C   0  0  2  0  0  3  0  0  0  0  0  0
  188.4730  177.7300  142.6380 N   0  0  0  0  0  0  0  0  0  0  0  0
  190.1250  177.0700  146.2020 C   0  0  0  0  0  0  0  0  0  0  0  0
  189.7270  177.0120  147.5380 C   0  0  0  0  0  3  0  0  0  0  0  0
  187.8880  177.7850  145.5540 C   0  0  0  0  0  0  0  0  0  0  0  0
  188.4130  177.3340  147.8890 C   0  0  0  0  0  3  0  0  0  0  0  0
  189.2100  177.4500  145.2170 C   0  0  0  0  0  3  0  0  0  0  0  0
  187.4990  177.7150  146.9020 C   0  0  0  0  0  3  0  0  0  0  0  0
  191.5200  176.7220  145.8270 C   0  0  0  0  0  1  0  0  0  0  0  0
  181.4200  178.2260  142.3650 C   0  0  0  0  0  2  0  0  0  0  0  0
  180.6500  178.6680  141.1260 C   0  0  0  0  0  2  0  0  0  0  0  0
  180.3100  177.4850  140.2290 C   0  0  0  0  0  2  0  0  0  0  0  0
  180.8200  178.1050  138.1110 C   0  0  0  0  0  2  0  0  0  0  0  0
  181.2300  176.8000  137.7340 C   0  0  1  0  0  3  0  0  0  0  0  0
  180.6380  174.9700  138.6960 C   0  0  0  0  0  2  0  0  0  0  0  0
  181.6930  175.7270  139.4860 C   0  0  0  0  0  2  0  0  0  0  0  0
  181.4340  177.2080  139.2320 C   0  0  2  0  0  0  0  0  0  0  0  0
  180.2050  175.8550  137.7120 O   0  0  0  0  0  0  0  0  0  0  0  0
  1  8  2  0  0  0  0
  1 12  1  0  0  0  0
  2 13  1  0  0  0  0
  2  8  1  0  0  0  0
  3 11  2  0  0  0  0
  4  9  1  1  0  0  0
  4 14  1  0  0  0  0
  5  6  1  0  0  0  0
  5 10  2  0  0  0  0
  6  2  2  0  0  0  0
  7 13  1  6  0  0  0
  7 16  1  0  0  0  0
  7 17  1  0  0  0  0
  8  3  1  0  0  0  0
 10  1  1  0  0  0  0
 11 15  1  0  0  0  0
 12 18  2  0  0  0  0
 15 14  1  0  0  0  0
 15 21  1  0  0  0  0
 16 26  1  1  0  0  0
 16  9  1  0  0  0  0
 17  3  1  6  0  0  0
 17  4  1  0  0  0  0
 18 11  1  0  0  0  0
 19 20  1  0  0  0  0
 20 22  2  0  0  0  0
 21 24  2  0  0  0  0
 23 21  1  0  0  0  0
 23 19  2  0  0  0  0
 24 22  1  0  0  0  0
 25 19  1  0  0  0  0
 27 26  1  0  0  0  0
 28 27  1  0  0  0  0
 29 33  1  0  0  0  0
 30 29  1  6  0  0  0
 30 33  1  0  0  0  0
 31 32  1  0  0  0  0
 33 32  1  0  0  0  0
 33 28  1  1  0  0  0
 34 30  1  0  0  0  0
 34 31  1  0  0  0  0
M  END
>  <MODEL>
6

>  <REMARK>
 VINA RESULT:      -9.9      4.319      8.694
  Name = 
  5 active torsions:
  status: ('A' for Active; 'I' for Inactive)
    1  A    between atoms: C_3  and  C_13
    2  A    between atoms: C_3  and  C_17
    3  A    between atoms: C_12  and  N_28
    4  A    between atoms: C_13  and  C_33
    5  A    between atoms: C_17  and  C_29
                            x       y       z     vdW  Elec       q    Type
                         _______ _______ _______ _____ _____    ______ ____

>  <TORSDO>
F 5

$$$$
=
 OpenBabel10272400043D

 34 41  0  0  1  0  0  0  0  0999 V2000
  182.8990  178.6990  141.4320 C   0  0  0  0  0  0  0  0  0  0  0  0
  183.4940  178.7670  143.7850 C   0  0  0  0  0  0  0  0  0  0  0  0
  185.2120  178.5500  142.0690 C   0  0  0  0  0  0  0  0  0  0  0  0
  187.4670  177.9310  142.7890 C   0  0  2  0  0  3  0  0  0  0  0  0
  181.2290  178.9150  143.0940 C   0  0  0  0  0  3  0  0  0  0  0  0
  182.1730  178.8940  144.0810 N   0  0  0  0  0  0  0  0  0  0  0  0
  185.8170  178.0660  144.3970 C   0  0  2  0  0  3  0  0  0  0  0  0
  183.8760  178.6730  142.4280 C   0  0  0  0  0  0  0  0  0  0  0  0
  188.2320  178.0920  144.1000 C   0  0  0  0  0  2  0  0  0  0  0  0
  181.5920  178.8190  141.7830 N   0  0  0  0  0  0  0  0  0  0  0  0
  185.6010  178.4940  140.7290 C   0  0  0  0  0  0  0  0  0  0  0  0
  183.3000  178.6240  140.0890 C   0  0  0  0  0  3  0  0  0  0  0  0
  184.5480  178.7800  144.8940 C   0  0  0  0  0  2  0  0  0  0  0  0
  188.0310  178.5250  141.5000 C   0  0  0  0  0  2  0  0  0  0  0  0
  187.0250  178.4130  140.4090 N   0  0  0  0  0  0  0  0  0  0  0  0
  187.1200  178.1730  145.1860 C   0  0  2  0  0  3  0  0  0  0  0  0
  186.2350  178.6770  143.1110 C   0  0  2  0  0  3  0  0  0  0  0  0
  184.6280  178.5270  139.7690 N   0  0  0  0  0  0  0  0  0  0  0  0
  187.0950  177.8740  136.6860 C   0  0  0  0  0  0  0  0  0  0  0  0
  188.4610  177.9900  136.4230 C   0  0  0  0  0  3  0  0  0  0  0  0
  187.5040  178.2880  139.0520 C   0  0  0  0  0  0  0  0  0  0  0  0
  189.3530  178.2490  137.4670 C   0  0  0  0  0  3  0  0  0  0  0  0
  186.6220  178.0180  137.9930 C   0  0  0  0  0  3  0  0  0  0  0  0
  188.8770  178.3950  138.7740 C   0  0  0  0  0  3  0  0  0  0  0  0
  186.1470  177.5920  135.5780 C   0  0  0  0  0  1  0  0  0  0  0  0
  187.2610  177.0100  146.1590 C   0  0  0  0  0  2  0  0  0  0  0  0
  188.3130  177.2870  147.2260 C   0  0  0  0  0  2  0  0  0  0  0  0
  189.5140  176.3610  147.0790 C   0  0  0  0  0  2  0  0  0  0  0  0
  190.7460  176.5470  145.1870 C   0  0  0  0  0  2  0  0  0  0  0  0
  191.9820  176.5160  145.8830 C   0  0  1  0  0  3  0  0  0  0  0  0
  192.2970  175.6910  147.8450 C   0  0  0  0  0  2  0  0  0  0  0  0
  191.6180  177.0510  147.8870 C   0  0  0  0  0  2  0  0  0  0  0  0
  190.7550  177.1350  146.6330 C   0  0  2  0  0  0  0  0  0  0  0  0
  192.2620  175.3010  146.5080 O   0  0  0  0  0  0  0  0  0  0  0  0
  1 10  2  0  0  0  0
  1  8  1  0  0  0  0
  2  6  1  0  0  0  0
  2 13  1  0  0  0  0
  3  8  1  0  0  0  0
  4 14  1  6  0  0  0
  4 17  1  0  0  0  0
  4  9  1  0  0  0  0
  5  6  2  0  0  0  0
  7 13  1  1  0  0  0
  7 16  1  0  0  0  0
  8  2  2  0  0  0  0
  9 16  1  0  0  0  0
 10  5  1  0  0  0  0
 11  3  2  0  0  0  0
 12  1  1  0  0  0  0
 15 11  1  0  0  0  0
 15 14  1  0  0  0  0
 16 26  1  1  0  0  0
 17  3  1  6  0  0  0
 17  7  1  0  0  0  0
 18 12  2  0  0  0  0
 18 11  1  0  0  0  0
 19 23  1  0  0  0  0
 20 19  2  0  0  0  0
 20 22  1  0  0  0  0
 21 15  1  0  0  0  0
 22 24  2  0  0  0  0
 23 21  2  0  0  0  0
 24 21  1  0  0  0  0
 25 19  1  0  0  0  0
 26 27  1  0  0  0  0
 28 27  1  0  0  0  0
 29 33  1  0  0  0  0
 30 29  1  6  0  0  0
 30 34  1  0  0  0  0
 30 33  1  0  0  0  0
 31 32  1  0  0  0  0
 33 28  1  1  0  0  0
 33 32  1  0  0  0  0
 34 31  1  0  0  0  0
M  END
>  <MODEL>
7

>  <REMARK>
 VINA RESULT:      -9.6      3.775      7.811
  Name = 
  5 active torsions:
  status: ('A' for Active; 'I' for Inactive)
    1  A    between atoms: C_3  and  C_13
    2  A    between atoms: C_3  and  C_17
    3  A    between atoms: C_12  and  N_28
    4  A    between atoms: C_13  and  C_33
    5  A    between atoms: C_17  and  C_29
                            x       y       z     vdW  Elec       q    Type
                         _______ _______ _______ _____ _____    ______ ____

>  <TORSDO>
F 5

$$$$
=
 OpenBabel10272400043D

 34 41  0  0  1  0  0  0  0  0999 V2000
  188.6110  177.7770  140.0080 C   0  0  0  0  0  0  0  0  0  0  0  0
  186.4000  178.4750  139.2860 C   0  0  0  0  0  0  0  0  0  0  0  0
  186.9130  178.2090  141.6540 C   0  0  0  0  0  0  0  0  0  0  0  0
  185.0410  178.1990  143.2290 C   0  0  2  0  0  3  0  0  0  0  0  0
  188.1180  178.0390  137.7080 C   0  0  0  0  0  3  0  0  0  0  0  0
  186.8370  178.4140  138.0000 N   0  0  0  0  0  0  0  0  0  0  0  0
  184.5600  178.3750  140.9790 C   0  0  2  0  0  3  0  0  0  0  0  0
  187.3050  178.1560  140.3220 C   0  0  0  0  0  0  0  0  0  0  0  0
  183.6330  178.7870  143.1910 C   0  0  0  0  0  2  0  0  0  0  0  0
  188.9930  177.7240  138.7050 N   0  0  0  0  0  0  0  0  0  0  0  0
  187.8110  177.9320  142.6870 C   0  0  0  0  0  0  0  0  0  0  0  0
  189.5000  177.4820  141.0530 C   0  0  0  0  0  3  0  0  0  0  0  0
  184.9750  178.9310  139.6060 C   0  0  0  0  0  2  0  0  0  0  0  0
  185.9990  178.5880  144.3550 C   0  0  0  0  0  2  0  0  0  0  0  0
  187.3570  178.0500  144.0710 N   0  0  0  0  0  0  0  0  0  0  0  0
  183.3040  178.8970  141.6740 C   0  0  2  0  0  3  0  0  0  0  0  0
  185.5910  178.7530  141.9770 C   0  0  2  0  0  3  0  0  0  0  0  0
  189.0880  177.5680  142.3550 N   0  0  0  0  0  0  0  0  0  0  0  0
  188.6520  177.7140  147.5870 C   0  0  0  0  0  0  0  0  0  0  0  0
  189.8960  177.1240  147.3600 C   0  0  0  0  0  3  0  0  0  0  0  0
  188.2060  177.7200  145.1920 C   0  0  0  0  0  0  0  0  0  0  0  0
  190.3030  176.8330  146.0550 C   0  0  0  0  0  3  0  0  0  0  0  0
  187.8150  178.0140  146.5090 C   0  0  0  0  0  3  0  0  0  0  0  0
  189.4630  177.1320  144.9780 C   0  0  0  0  0  3  0  0  0  0  0  0
  188.2210  178.0300  148.9730 C   0  0  0  0  0  1  0  0  0  0  0  0
  182.1010  178.0260  141.3410 C   0  0  0  0  0  2  0  0  0  0  0  0
  180.8540  178.8600  141.0690 C   0  0  0  0  0  2  0  0  0  0  0  0
  180.5430  178.9280  139.5790 C   0  0  0  0  0  2  0  0  0  0  0  0
  180.7270  181.1560  139.2150 C   0  0  0  0  0  2  0  0  0  0  0  0
  181.1040  180.9930  137.8570 C   0  0  1  0  0  3  0  0  0  0  0  0
  180.6950  179.2670  136.6390 C   0  0  0  0  0  2  0  0  0  0  0  0
  181.8390  179.0340  137.6130 C   0  0  0  0  0  2  0  0  0  0  0  0
  181.5160  179.8580  138.8550 C   0  0  2  0  0  0  0  0  0  0  0  0
  180.1060  180.4640  137.0400 O   0  0  0  0  0  0  0  0  0  0  0  0
  1  8  2  0  0  0  0
  1 12  1  0  0  0  0
  2 13  1  0  0  0  0
  2  8  1  0  0  0  0
  3 11  2  0  0  0  0
  4  9  1  1  0  0  0
  4 14  1  0  0  0  0
  5  6  1  0  0  0  0
  5 10  2  0  0  0  0
  6  2  2  0  0  0  0
  7 13  1  6  0  0  0
  7 16  1  0  0  0  0
  7 17  1  0  0  0  0
  8  3  1  0  0  0  0
 10  1  1  0  0  0  0
 11 15  1  0  0  0  0
 12 18  2  0  0  0  0
 15 14  1  0  0  0  0
 15 21  1  0  0  0  0
 16 26  1  1  0  0  0
 16  9  1  0  0  0  0
 17  3  1  6  0  0  0
 17  4  1  0  0  0  0
 18 11  1  0  0  0  0
 19 25  1  0  0  0  0
 20 19  1  0  0  0  0
 21 23  1  0  0  0  0
 22 20  2  0  0  0  0
 23 19  2  0  0  0  0
 24 21  2  0  0  0  0
 24 22  1  0  0  0  0
 27 26  1  0  0  0  0
 28 27  1  0  0  0  0
 30 33  1  0  0  0  0
 30 29  1  1  0  0  0
 31 34  1  0  0  0  0
 31 32  1  0  0  0  0
 32 33  1  0  0  0  0
 33 29  1  0  0  0  0
 33 28  1  6  0  0  0
 34 30  1  0  0  0  0
M  END
>  <MODEL>
8

>  <REMARK>
 VINA RESULT:      -9.3      4.103      8.713
  Name = 
  5 active torsions:
  status: ('A' for Active; 'I' for Inactive)
    1  A    between atoms: C_3  and  C_13
    2  A    between atoms: C_3  and  C_17
    3  A    between atoms: C_12  and  N_28
    4  A    between atoms: C_13  and  C_33
    5  A    between atoms: C_17  and  C_29
                            x       y       z     vdW  Elec       q    Type
                         _______ _______ _______ _____ _____    ______ ____

>  <TORSDO>
F 5

$$$$
=
 OpenBabel10272400043D

 34 41  0  0  1  0  0  0  0  0999 V2000
  183.8980  178.7010  142.7660 C   0  0  0  0  0  0  0  0  0  0  0  0
  184.6400  178.4820  140.4650 C   0  0  0  0  0  0  0  0  0  0  0  0
  186.1970  178.1620  142.3130 C   0  0  0  0  0  0  0  0  0  0  0  0
  188.5860  178.0880  141.7890 C   0  0  2  0  0  3  0  0  0  0  0  0
  182.3830  179.0080  140.9740 C   0  0  0  0  0  3  0  0  0  0  0  0
  183.3700  178.7570  140.0640 N   0  0  0  0  0  0  0  0  0  0  0  0
  187.1090  178.4660  140.0560 C   0  0  2  0  0  3  0  0  0  0  0  0
  184.9180  178.4450  141.8480 C   0  0  0  0  0  0  0  0  0  0  0  0
  189.3750  177.7200  140.5360 C   0  0  0  0  0  2  0  0  0  0  0  0
  182.6480  178.9790  142.3120 N   0  0  0  0  0  0  0  0  0  0  0  0
  186.4720  178.0860  143.6800 C   0  0  0  0  0  0  0  0  0  0  0  0
  184.1900  178.6410  144.1380 C   0  0  0  0  0  3  0  0  0  0  0  0
  185.7320  178.1660  139.4400 C   0  0  0  0  0  2  0  0  0  0  0  0
  188.8390  177.3410  143.0970 C   0  0  0  0  0  2  0  0  0  0  0  0
  187.8240  177.7370  144.1110 N   0  0  0  0  0  0  0  0  0  0  0  0
  188.3830  177.9840  139.3660 C   0  0  2  0  0  3  0  0  0  0  0  0
  187.2190  177.7460  141.3490 C   0  0  2  0  0  3  0  0  0  0  0  0
  185.4560  178.3350  144.5610 N   0  0  0  0  0  0  0  0  0  0  0  0
  189.8370  177.2180  147.2470 C   0  0  0  0  0  0  0  0  0  0  0  0
  188.9090  177.5790  148.2250 C   0  0  0  0  0  3  0  0  0  0  0  0
  188.2040  177.7000  145.5040 C   0  0  0  0  0  0  0  0  0  0  0  0
  187.6290  177.9960  147.8520 C   0  0  0  0  0  3  0  0  0  0  0  0
  189.4840  177.2740  145.8960 C   0  0  0  0  0  3  0  0  0  0  0  0
  187.2790  178.0530  146.4990 C   0  0  0  0  0  3  0  0  0  0  0  0
  191.1960  176.7680  147.6430 C   0  0  0  0  0  1  0  0  0  0  0  0
  188.9420  179.0610  138.4470 C   0  0  0  0  0  2  0  0  0  0  0  0
  189.1800  178.5370  137.0360 C   0  0  0  0  0  2  0  0  0  0  0  0
  188.8980  177.0420  136.9420 C   0  0  0  0  0  2  0  0  0  0  0  0
  189.0770  175.1430  135.7200 C   0  0  0  0  0  2  0  0  0  0  0  0
  190.3330  174.7960  136.2810 C   0  0  1  0  0  3  0  0  0  0  0  0
  191.0980  175.4820  138.1710 C   0  0  0  0  0  2  0  0  0  0  0  0
  191.1970  176.5400  137.0840 C   0  0  0  0  0  2  0  0  0  0  0  0
  190.0000  176.3210  136.1660 C   0  0  2  0  0  0  0  0  0  0  0  0
  190.2920  174.4780  137.6380 O   0  0  0  0  0  0  0  0  0  0  0  0
  1 12  1  0  0  0  0
  2  8  1  0  0  0  0
  3 11  2  0  0  0  0
  4  9  1  6  0  0  0
  4 14  1  0  0  0  0
  5 10  2  0  0  0  0
  6  2  2  0  0  0  0
  6  5  1  0  0  0  0
  7 13  1  6  0  0  0
  7 17  1  0  0  0  0
  8  3  1  0  0  0  0
  8  1  2  0  0  0  0
 10  1  1  0  0  0  0
 11 15  1  0  0  0  0
 11 18  1  0  0  0  0
 12 18  2  0  0  0  0
 13  2  1  0  0  0  0
 14 15  1  0  0  0  0
 15 21  1  0  0  0  0
 16 26  1  6  0  0  0
 16  7  1  0  0  0  0
 16  9  1  0  0  0  0
 17  4  1  0  0  0  0
 17  3  1  1  0  0  0
 19 25  1  0  0  0  0
 19 20  1  0  0  0  0
 21 23  1  0  0  0  0
 21 24  2  0  0  0  0
 22 20  2  0  0  0  0
 23 19  2  0  0  0  0
 24 22  1  0  0  0  0
 27 26  1  0  0  0  0
 28 27  1  0  0  0  0
 29 33  1  0  0  0  0
 30 29  1  6  0  0  0
 30 34  1  0  0  0  0
 32 31  1  0  0  0  0
 33 30  1  0  0  0  0
 33 28  1  1  0  0  0
 33 32  1  0  0  0  0
 34 31  1  0  0  0  0
M  END
>  <MODEL>
9

>  <REMARK>
 VINA RESULT:      -9.3      2.188      5.672
  Name = 
  5 active torsions:
  status: ('A' for Active; 'I' for Inactive)
    1  A    between atoms: C_3  and  C_13
    2  A    between atoms: C_3  and  C_17
    3  A    between atoms: C_12  and  N_28
    4  A    between atoms: C_13  and  C_33
    5  A    between atoms: C_17  and  C_29
                            x       y       z     vdW  Elec       q    Type
                         _______ _______ _______ _____ _____    ______ ____

>  <TORSDO>
F 5

$$$$
