=
 OpenBabel10272413233D

 32 36  0  0  1  0  0  0  0  0999 V2000
  192.7800  176.5890  139.1180 C   0  0  0  0  0  3  0  0  0  0  0  0
  187.8590  178.9110  139.5890 C   0  0  0  0  0  3  0  0  0  0  0  0
  188.0090  176.9160  145.2370 C   0  0  0  0  0  3  0  0  0  0  0  0
  186.6820  177.4000  145.2290 C   0  0  0  0  0  3  0  0  0  0  0  0
  189.7930  177.5800  138.8300 C   0  0  0  0  0  0  0  0  0  0  0  0
  190.1470  177.5320  141.2900 C   0  0  0  0  0  3  0  0  0  0  0  0
  192.0890  177.3330  139.9750 C   0  0  0  0  0  3  0  0  0  0  0  0
  188.8010  176.9810  144.0770 C   0  0  0  0  0  3  0  0  0  0  0  0
  188.7510  177.7440  141.6730 C   0  0  0  0  0  0  0  0  0  0  0  0
  188.2260  177.5270  142.9320 C   0  0  0  0  0  0  0  0  0  0  0  0
  186.6370  178.5180  141.7160 N   0  0  0  0  0  0  0  0  0  0  0  0
  191.0750  175.8650  137.4700 C   0  0  0  0  0  3  0  0  0  0  0  0
  190.6310  177.4600  140.0520 C   0  0  0  0  0  0  0  0  0  0  0  0
  190.0340  176.8710  137.7260 C   0  0  0  0  0  3  0  0  0  0  0  0
  192.2590  175.7010  138.0700 C   0  0  0  0  0  0  0  0  0  0  0  0
  186.1320  177.9570  144.0600 C   0  0  0  0  0  3  0  0  0  0  0  0
  186.9390  178.0020  142.9220 C   0  0  0  0  0  0  0  0  0  0  0  0
  188.7450  178.5520  138.7120 N   0  0  0  0  0  0  0  0  0  0  0  0
  187.7440  178.3640  140.9450 C   0  0  0  0  0  0  0  0  0  0  0  0
  194.3950  174.8470  136.9120 C   0  0  0  0  0  0  0  0  0  0  0  0
  193.1560  174.6750  137.6150 N   0  0  0  0  0  2  0  0  0  0  0  0
  194.7950  175.9860  136.5530 O   0  0  0  0  0  0  0  0  0  0  0  0
  195.2140  173.6510  136.5870 C   0  0  0  0  0  1  0  0  0  0  0  0
  185.3950  179.1920  141.3460 C   0  0  0  0  0  2  0  0  0  0  0  0
  183.2670  178.2400  140.7350 O   0  0  0  0  0  0  0  0  0  0  0  0
  182.7420  177.1380  140.0290 C   0  0  2  0  0  3  0  0  0  0  0  0
  184.6940  178.9130  138.9080 C   0  0  1  0  0  3  0  0  0  0  0  0
  183.7410  178.1580  138.0170 C   0  0  0  0  0  3  0  0  0  0  0  0
  182.7950  177.3610  138.5360 C   0  0  0  0  0  3  0  0  0  0  0  0
  181.3120  176.8880  140.4600 C   0  0  0  0  0  1  0  0  0  0  0  0
  184.3420  180.2650  138.8980 O   0  0  0  0  0  1  0  0  0  0  0  0
  184.6140  178.3520  140.3410 C   0  0  1  0  0  3  0  0  0  0  0  0
  1  7  1  0  0  0  0
  2 19  2  0  0  0  0
  4  3  1  0  0  0  0
  5 13  1  0  0  0  0
  6  9  2  0  0  0  0
  7 13  2  0  0  0  0
  8  3  2  0  0  0  0
  9 10  1  0  0  0  0
 10  8  1  0  0  0  0
 11 17  1  0  0  0  0
 12 14  2  0  0  0  0
 12 15  1  0  0  0  0
 13  6  1  0  0  0  0
 14  5  1  0  0  0  0
 15  1  2  0  0  0  0
 16  4  2  0  0  0  0
 17 10  2  0  0  0  0
 17 16  1  0  0  0  0
 18  5  2  0  0  0  0
 18  2  1  0  0  0  0
 19  9  1  0  0  0  0
 19 11  1  0  0  0  0
 20 21  1  0  0  0  0
 21 15  1  0  0  0  0
 22 20  2  0  0  0  0
 23 20  1  0  0  0  0
 24 11  1  0  0  0  0
 26 30  1  1  0  0  0
 26 25  1  0  0  0  0
 27 31  1  1  0  0  0
 27 32  1  0  0  0  0
 28 29  2  0  0  0  0
 28 27  1  0  0  0  0
 29 26  1  0  0  0  0
 32 25  1  0  0  0  0
 32 24  1  1  0  0  0
M  END
>  <MODEL>
1

>  <REMARK>
 VINA RESULT:      -8.6      0.000      0.000
  Name = 
  3 active torsions:
  status: ('A' for Active; 'I' for Inactive)
    1  A    between atoms: N_10  and  C_24
    2  A    between atoms: N_16  and  C_27
    3  A    between atoms: C_27  and  C_32
                            x       y       z     vdW  Elec       q    Type
                         _______ _______ _______ _____ _____    ______ ____

>  <TORSDO>
F 3

$$$$
=
 OpenBabel10272413233D

 32 36  0  0  1  0  0  0  0  0999 V2000
  190.4230  177.4210  139.2760 C   0  0  0  0  0  3  0  0  0  0  0  0
  185.1770  178.8750  138.8280 C   0  0  0  0  0  3  0  0  0  0  0  0
  185.0870  178.5260  144.8100 C   0  0  0  0  0  3  0  0  0  0  0  0
  183.7080  178.7470  144.5990 C   0  0  0  0  0  3  0  0  0  0  0  0
  187.3600  177.7540  138.5710 C   0  0  0  0  0  0  0  0  0  0  0  0
  187.4760  178.4310  140.9610 C   0  0  0  0  0  3  0  0  0  0  0  0
  189.5440  178.2340  139.8540 C   0  0  0  0  0  3  0  0  0  0  0  0
  185.9690  178.4180  143.7190 C   0  0  0  0  0  3  0  0  0  0  0  0
  186.0340  178.4860  141.1990 C   0  0  0  0  0  0  0  0  0  0  0  0
  185.4290  178.5260  142.4390 C   0  0  0  0  0  0  0  0  0  0  0  0
  183.8300  178.8560  140.9160 N   0  0  0  0  0  0  0  0  0  0  0  0
  189.0200  175.9920  137.8130 C   0  0  0  0  0  3  0  0  0  0  0  0
  188.0840  178.1160  139.8180 C   0  0  0  0  0  0  0  0  0  0  0  0
  187.8150  176.8290  137.7240 C   0  0  0  0  0  3  0  0  0  0  0  0
  190.1510  176.2080  138.4940 C   0  0  0  0  0  0  0  0  0  0  0  0
  183.1940  178.8640  143.2950 C   0  0  0  0  0  3  0  0  0  0  0  0
  184.0900  178.7450  142.2320 C   0  0  0  0  0  0  0  0  0  0  0  0
  186.1890  178.4570  138.1330 N   0  0  0  0  0  0  0  0  0  0  0  0
  185.0170  178.7000  140.2760 C   0  0  0  0  0  0  0  0  0  0  0  0
  192.3120  175.2840  137.4410 C   0  0  0  0  0  0  0  0  0  0  0  0
  191.2370  175.2730  138.3910 N   0  0  0  0  0  2  0  0  0  0  0  0
  192.3610  176.1350  136.5130 O   0  0  0  0  0  0  0  0  0  0  0  0
  193.3810  174.2580  137.5450 C   0  0  0  0  0  1  0  0  0  0  0  0
  182.5410  179.1750  140.3100 C   0  0  0  0  0  2  0  0  0  0  0  0
  181.0520  177.2850  140.1840 O   0  0  0  0  0  0  0  0  0  0  0  0
  180.9640  176.0210  139.5640 C   0  0  2  0  0  3  0  0  0  0  0  0
  181.4890  178.4330  138.1070 C   0  0  1  0  0  3  0  0  0  0  0  0
  180.8290  177.2580  137.4330 C   0  0  0  0  0  3  0  0  0  0  0  0
  180.5380  176.1420  138.1190 C   0  0  0  0  0  3  0  0  0  0  0  0
  179.9820  175.1480  140.3160 C   0  0  0  0  0  1  0  0  0  0  0  0
  180.5420  179.4490  138.2640 O   0  0  0  0  0  1  0  0  0  0  0  0
  182.0390  177.9990  139.4790 C   0  0  1  0  0  3  0  0  0  0  0  0
  1  7  1  0  0  0  0
  2 19  2  0  0  0  0
  4  3  1  0  0  0  0
  5 13  1  0  0  0  0
  6  9  2  0  0  0  0
  8  3  2  0  0  0  0
  9 10  1  0  0  0  0
 10  8  1  0  0  0  0
 11 17  1  0  0  0  0
 12 15  1  0  0  0  0
 13  7  2  0  0  0  0
 13  6  1  0  0  0  0
 14 12  2  0  0  0  0
 14  5  1  0  0  0  0
 15  1  2  0  0  0  0
 16  4  2  0  0  0  0
 17 10  2  0  0  0  0
 17 16  1  0  0  0  0
 18  5  2  0  0  0  0
 18  2  1  0  0  0  0
 19 11  1  0  0  0  0
 19  9  1  0  0  0  0
 20 23  1  0  0  0  0
 20 21  1  0  0  0  0
 21 15  1  0  0  0  0
 22 20  2  0  0  0  0
 24 11  1  0  0  0  0
 26 25  1  0  0  0  0
 26 30  1  1  0  0  0
 27 31  1  1  0  0  0
 27 32  1  0  0  0  0
 28 27  1  0  0  0  0
 28 29  2  0  0  0  0
 29 26  1  0  0  0  0
 32 25  1  0  0  0  0
 32 24  1  1  0  0  0
M  END
>  <MODEL>
2

>  <REMARK>
 VINA RESULT:      -8.5      1.885      2.764
  Name = 
  3 active torsions:
  status: ('A' for Active; 'I' for Inactive)
    1  A    between atoms: N_10  and  C_24
    2  A    between atoms: N_16  and  C_27
    3  A    between atoms: C_27  and  C_32
                            x       y       z     vdW  Elec       q    Type
                         _______ _______ _______ _____ _____    ______ ____

>  <TORSDO>
F 3

$$$$
=
 OpenBabel10272413233D

 32 36  0  0  1  0  0  0  0  0999 V2000
  185.2470  179.0630  144.9750 C   0  0  0  0  0  3  0  0  0  0  0  0
  185.6390  178.5930  139.5480 C   0  0  0  0  0  3  0  0  0  0  0  0
  179.9820  176.6320  139.8090 C   0  0  0  0  0  3  0  0  0  0  0  0
  180.2170  176.3900  138.4370 C   0  0  0  0  0  3  0  0  0  0  0  0
  186.0380  178.4470  141.9780 C   0  0  0  0  0  0  0  0  0  0  0  0
  183.5520  178.4480  141.9270 C   0  0  0  0  0  3  0  0  0  0  0  0
  184.5340  179.3150  143.8830 C   0  0  0  0  0  3  0  0  0  0  0  0
  181.0010  177.1470  140.6290 C   0  0  0  0  0  3  0  0  0  0  0  0
  183.4040  177.9130  140.5730 C   0  0  0  0  0  0  0  0  0  0  0  0
  182.2400  177.3960  140.0410 C   0  0  0  0  0  0  0  0  0  0  0  0
  183.7230  177.5270  138.3770 N   0  0  0  0  0  0  0  0  0  0  0  0
  187.1240  177.6760  144.1370 C   0  0  0  0  0  3  0  0  0  0  0  0
  184.6950  178.6940  142.5650 C   0  0  0  0  0  0  0  0  0  0  0  0
  187.0680  178.0140  142.7070 C   0  0  0  0  0  3  0  0  0  0  0  0
  186.3380  178.0920  145.1360 C   0  0  0  0  0  0  0  0  0  0  0  0
  181.4750  176.6610  137.8690 C   0  0  0  0  0  3  0  0  0  0  0  0
  182.4690  177.1650  138.7080 C   0  0  0  0  0  0  0  0  0  0  0  0
  186.3510  178.7720  140.6170 N   0  0  0  0  0  0  0  0  0  0  0  0
  184.3020  177.9880  139.5150 C   0  0  0  0  0  0  0  0  0  0  0  0
  187.8720  177.7090  147.1680 C   0  0  0  0  0  0  0  0  0  0  0  0
  186.6120  177.6770  146.4830 N   0  0  0  0  0  2  0  0  0  0  0  0
  188.9290  178.0700  146.5840 O   0  0  0  0  0  0  0  0  0  0  0  0
  187.9340  177.2940  148.5930 C   0  0  0  0  0  1  0  0  0  0  0  0
  184.3070  177.5110  137.0390 C   0  0  0  0  0  2  0  0  0  0  0  0
  184.6450  175.1250  137.0750 O   0  0  0  0  0  0  0  0  0  0  0  0
  185.6540  174.1840  137.3660 C   0  0  2  0  0  3  0  0  0  0  0  0
  186.0470  176.3740  135.5590 C   0  0  1  0  0  3  0  0  0  0  0  0
  186.8490  175.1060  135.4150 C   0  0  0  0  0  3  0  0  0  0  0  0
  186.6390  174.0600  136.2270 C   0  0  0  0  0  3  0  0  0  0  0  0
  185.0290  172.8350  137.6530 C   0  0  0  0  0  1  0  0  0  0  0  0
  185.1360  176.4510  134.5010 O   0  0  0  0  0  1  0  0  0  0  0  0
  185.2990  176.3600  136.9060 C   0  0  1  0  0  3  0  0  0  0  0  0
  1 15  1  0  0  0  0
  2 18  2  0  0  0  0
  3  8  1  0  0  0  0
  4  3  2  0  0  0  0
  5 13  1  0  0  0  0
  5 14  2  0  0  0  0
  6 13  2  0  0  0  0
  7  1  2  0  0  0  0
  9  6  1  0  0  0  0
 10  9  1  0  0  0  0
 10  8  2  0  0  0  0
 11 17  1  0  0  0  0
 11 19  1  0  0  0  0
 12 15  2  0  0  0  0
 13  7  1  0  0  0  0
 14 12  1  0  0  0  0
 15 21  1  0  0  0  0
 16  4  1  0  0  0  0
 16 17  2  0  0  0  0
 17 10  1  0  0  0  0
 18  5  1  0  0  0  0
 19  2  1  0  0  0  0
 19  9  2  0  0  0  0
 20 23  1  0  0  0  0
 21 20  1  0  0  0  0
 22 20  2  0  0  0  0
 24 11  1  0  0  0  0
 25 26  1  0  0  0  0
 26 30  1  6  0  0  0
 27 31  1  6  0  0  0
 27 32  1  0  0  0  0
 28 27  1  0  0  0  0
 28 29  2  0  0  0  0
 29 26  1  0  0  0  0
 32 24  1  6  0  0  0
 32 25  1  0  0  0  0
M  END
>  <MODEL>
3

>  <REMARK>
 VINA RESULT:      -8.3      4.349      7.556
  Name = 
  3 active torsions:
  status: ('A' for Active; 'I' for Inactive)
    1  A    between atoms: N_10  and  C_24
    2  A    between atoms: N_16  and  C_27
    3  A    between atoms: C_27  and  C_32
                            x       y       z     vdW  Elec       q    Type
                         _______ _______ _______ _____ _____    ______ ____

>  <TORSDO>
F 3

$$$$
=
 OpenBabel10272413233D

 32 36  0  0  1  0  0  0  0  0999 V2000
  192.5890  175.2080  137.0450 C   0  0  0  0  0  3  0  0  0  0  0  0
  188.7740  178.6060  138.9760 C   0  0  0  0  0  3  0  0  0  0  0  0
  190.3430  176.5060  144.3650 C   0  0  0  0  0  3  0  0  0  0  0  0
  189.2360  177.2870  144.7670 C   0  0  0  0  0  3  0  0  0  0  0  0
  189.9870  176.8760  137.7010 C   0  0  0  0  0  0  0  0  0  0  0  0
  191.1210  176.6930  139.9050 C   0  0  0  0  0  3  0  0  0  0  0  0
  192.4130  176.0740  138.0370 C   0  0  0  0  0  3  0  0  0  0  0  0
  190.6950  176.4090  143.0070 C   0  0  0  0  0  3  0  0  0  0  0  0
  190.0200  177.2160  140.7150 C   0  0  0  0  0  0  0  0  0  0  0  0
  189.9110  177.1000  142.0860 C   0  0  0  0  0  0  0  0  0  0  0  0
  188.2770  178.4620  141.4070 N   0  0  0  0  0  0  0  0  0  0  0  0
  190.3140  174.9400  136.0960 C   0  0  0  0  0  3  0  0  0  0  0  0
  191.1340  176.5370  138.5830 C   0  0  0  0  0  0  0  0  0  0  0  0
  189.6760  176.1560  136.6220 C   0  0  0  0  0  3  0  0  0  0  0  0
  191.5600  174.4910  136.2800 C   0  0  0  0  0  0  0  0  0  0  0  0
  188.4700  177.9820  143.8150 C   0  0  0  0  0  3  0  0  0  0  0  0
  188.8380  177.8630  142.4740 C   0  0  0  0  0  0  0  0  0  0  0  0
  189.2100  178.0690  137.8790 N   0  0  0  0  0  0  0  0  0  0  0  0
  188.9970  178.0710  140.3240 C   0  0  0  0  0  0  0  0  0  0  0  0
  193.0830  172.4350  135.9860 C   0  0  0  0  0  0  0  0  0  0  0  0
  191.9950  173.2940  135.6150 N   0  0  0  0  0  2  0  0  0  0  0  0
  193.8400  172.7120  136.9550 O   0  0  0  0  0  0  0  0  0  0  0  0
  193.3300  171.2000  135.1990 C   0  0  0  0  0  1  0  0  0  0  0  0
  187.1710  179.4160  141.4280 C   0  0  0  0  0  2  0  0  0  0  0  0
  185.1310  179.3200  142.7080 O   0  0  0  0  0  0  0  0  0  0  0  0
  184.1800  178.3770  143.1510 C   0  0  2  0  0  3  0  0  0  0  0  0
  184.9770  178.6070  140.4070 C   0  0  1  0  0  3  0  0  0  0  0  0
  183.6170  178.0700  140.7690 C   0  0  0  0  0  3  0  0  0  0  0  0
  183.2180  178.0020  142.0470 C   0  0  0  0  0  3  0  0  0  0  0  0
  183.4140  178.9380  144.3300 C   0  0  0  0  0  1  0  0  0  0  0  0
  184.8220  179.8750  139.8400 O   0  0  0  0  0  1  0  0  0  0  0  0
  185.8510  178.6920  141.6730 C   0  0  1  0  0  3  0  0  0  0  0  0
  1  7  1  0  0  0  0
  2 19  2  0  0  0  0
  3  4  1  0  0  0  0
  5 18  2  0  0  0  0
  5 13  1  0  0  0  0
  6  9  2  0  0  0  0
  7 13  2  0  0  0  0
  8  3  2  0  0  0  0
  9 10  1  0  0  0  0
 10 17  2  0  0  0  0
 10  8  1  0  0  0  0
 11 24  1  0  0  0  0
 11 17  1  0  0  0  0
 12 15  1  0  0  0  0
 12 14  2  0  0  0  0
 13  6  1  0  0  0  0
 14  5  1  0  0  0  0
 15  1  2  0  0  0  0
 16  4  2  0  0  0  0
 17 16  1  0  0  0  0
 18  2  1  0  0  0  0
 19  9  1  0  0  0  0
 19 11  1  0  0  0  0
 20 22  2  0  0  0  0
 21 20  1  0  0  0  0
 21 15  1  0  0  0  0
 23 20  1  0  0  0  0
 25 26  1  0  0  0  0
 26 30  1  1  0  0  0
 27 31  1  1  0  0  0
 27 28  1  0  0  0  0
 27 32  1  0  0  0  0
 28 29  2  0  0  0  0
 29 26  1  0  0  0  0
 32 24  1  6  0  0  0
 32 25  1  0  0  0  0
M  END
>  <MODEL>
4

>  <REMARK>
 VINA RESULT:      -8.1      1.765      2.419
  Name = 
  3 active torsions:
  status: ('A' for Active; 'I' for Inactive)
    1  A    between atoms: N_10  and  C_24
    2  A    between atoms: N_16  and  C_27
    3  A    between atoms: C_27  and  C_32
                            x       y       z     vdW  Elec       q    Type
                         _______ _______ _______ _____ _____    ______ ____

>  <TORSDO>
F 3

$$$$
=
 OpenBabel10272413233D

 32 36  0  0  1  0  0  0  0  0999 V2000
  188.7930  178.2280  143.6200 C   0  0  0  0  0  3  0  0  0  0  0  0
  192.5350  177.2140  139.7730 C   0  0  0  0  0  3  0  0  0  0  0  0
  187.8730  175.6080  136.3670 C   0  0  0  0  0  3  0  0  0  0  0  0
  188.9090  175.2220  135.4880 C   0  0  0  0  0  3  0  0  0  0  0  0
  191.2580  177.2810  141.8830 C   0  0  0  0  0  0  0  0  0  0  0  0
  189.4070  177.4170  140.2280 C   0  0  0  0  0  3  0  0  0  0  0  0
  188.9830  178.4130  142.3180 C   0  0  0  0  0  3  0  0  0  0  0  0
  188.1720  176.1420  137.6330 C   0  0  0  0  0  3  0  0  0  0  0  0
  190.1100  176.7630  139.1240 C   0  0  0  0  0  0  0  0  0  0  0  0
  189.5150  176.2620  137.9830 C   0  0  0  0  0  0  0  0  0  0  0  0
  191.7250  176.1480  137.6790 N   0  0  0  0  0  0  0  0  0  0  0  0
  190.6100  176.6640  144.2560 C   0  0  0  0  0  3  0  0  0  0  0  0
  189.8880  177.6600  141.4460 C   0  0  0  0  0  0  0  0  0  0  0  0
  191.5230  176.8640  143.1210 C   0  0  0  0  0  3  0  0  0  0  0  0
  189.4140  177.2180  144.4880 C   0  0  0  0  0  0  0  0  0  0  0  0
  190.2560  175.3660  135.8640 C   0  0  0  0  0  3  0  0  0  0  0  0
  190.5230  175.8920  137.1280 C   0  0  0  0  0  0  0  0  0  0  0  0
  192.4060  177.4550  141.0410 N   0  0  0  0  0  0  0  0  0  0  0  0
  191.4790  176.6840  138.9020 C   0  0  0  0  0  0  0  0  0  0  0  0
  189.1420  177.1790  147.0480 C   0  0  0  0  0  0  0  0  0  0  0  0
  188.7110  176.9200  145.7040 N   0  0  0  0  0  2  0  0  0  0  0  0
  190.2790  177.6640  147.2920 O   0  0  0  0  0  0  0  0  0  0  0  0
  188.2320  176.8520  148.1760 C   0  0  0  0  0  1  0  0  0  0  0  0
  193.0270  175.9710  137.0430 C   0  0  0  0  0  2  0  0  0  0  0  0
  193.6150  173.8020  136.1720 O   0  0  0  0  0  0  0  0  0  0  0  0
  193.7130  172.4610  136.5960 C   0  0  2  0  0  3  0  0  0  0  0  0
  194.9810  174.6250  137.9840 C   0  0  1  0  0  3  0  0  0  0  0  0
  195.5430  173.2300  138.0620 C   0  0  0  0  0  3  0  0  0  0  0  0
  194.9830  172.2200  137.3790 C   0  0  0  0  0  3  0  0  0  0  0  0
  193.6680  171.5390  135.3950 C   0  0  0  0  0  1  0  0  0  0  0  0
  195.8400  175.4130  137.2130 O   0  0  0  0  0  1  0  0  0  0  0  0
  193.5790  174.5820  137.3440 C   0  0  1  0  0  3  0  0  0  0  0  0
  1 15  1  0  0  0  0
  2 18  2  0  0  0  0
  3  8  1  0  0  0  0
  4 16  1  0  0  0  0
  4  3  2  0  0  0  0
  5 14  2  0  0  0  0
  6 13  2  0  0  0  0
  7  1  2  0  0  0  0
  8 10  2  0  0  0  0
  9  6  1  0  0  0  0
 10  9  1  0  0  0  0
 11 19  1  0  0  0  0
 12 15  2  0  0  0  0
 13  5  1  0  0  0  0
 13  7  1  0  0  0  0
 14 12  1  0  0  0  0
 15 21  1  0  0  0  0
 16 17  2  0  0  0  0
 17 11  1  0  0  0  0
 17 10  1  0  0  0  0
 18  5  1  0  0  0  0
 19  9  2  0  0  0  0
 19  2  1  0  0  0  0
 20 22  2  0  0  0  0
 20 23  1  0  0  0  0
 21 20  1  0  0  0  0
 24 11  1  0  0  0  0
 25 26  1  0  0  0  0
 25 32  1  0  0  0  0
 26 30  1  6  0  0  0
 26 29  1  0  0  0  0
 27 31  1  6  0  0  0
 27 28  1  0  0  0  0
 29 28  2  0  0  0  0
 32 24  1  6  0  0  0
 32 27  1  0  0  0  0
M  END
>  <MODEL>
5

>  <REMARK>
 VINA RESULT:      -8.1      3.945      9.016
  Name = 
  3 active torsions:
  status: ('A' for Active; 'I' for Inactive)
    1  A    between atoms: N_10  and  C_24
    2  A    between atoms: N_16  and  C_27
    3  A    between atoms: C_27  and  C_32
                            x       y       z     vdW  Elec       q    Type
                         _______ _______ _______ _____ _____    ______ ____

>  <TORSDO>
F 3

$$$$
=
 OpenBabel10272413233D

 32 36  0  0  1  0  0  0  0  0999 V2000
  191.0270  178.1530  144.4730 C   0  0  0  0  0  3  0  0  0  0  0  0
  189.2920  178.0330  139.2960 C   0  0  0  0  0  3  0  0  0  0  0  0
  183.8520  178.9950  141.6190 C   0  0  0  0  0  3  0  0  0  0  0  0
  183.4660  178.7920  140.2760 C   0  0  0  0  0  3  0  0  0  0  0  0
  190.3650  177.5000  141.4520 C   0  0  0  0  0  0  0  0  0  0  0  0
  188.3300  178.6920  142.2410 C   0  0  0  0  0  3  0  0  0  0  0  0
  190.2000  178.8100  143.6660 C   0  0  0  0  0  3  0  0  0  0  0  0
  185.2020  178.8870  141.9990 C   0  0  0  0  0  3  0  0  0  0  0  0
  187.4990  178.4150  141.0690 C   0  0  0  0  0  0  0  0  0  0  0  0
  186.1280  178.5640  141.0090 C   0  0  0  0  0  0  0  0  0  0  0  0
  186.8340  178.1170  138.9380 N   0  0  0  0  0  0  0  0  0  0  0  0
  191.6070  176.1180  143.1790 C   0  0  0  0  0  3  0  0  0  0  0  0
  189.5910  178.3060  142.4320 C   0  0  0  0  0  0  0  0  0  0  0  0
  191.2400  176.5660  141.8280 C   0  0  0  0  0  3  0  0  0  0  0  0
  191.5030  176.7700  144.3430 C   0  0  0  0  0  0  0  0  0  0  0  0
  184.4240  178.4790  139.2960 C   0  0  0  0  0  3  0  0  0  0  0  0
  185.7550  178.3710  139.7020 C   0  0  0  0  0  0  0  0  0  0  0  0
  190.3160  177.7550  140.0410 N   0  0  0  0  0  0  0  0  0  0  0  0
  187.9070  178.1440  139.7690 C   0  0  0  0  0  0  0  0  0  0  0  0
  191.3890  176.2170  146.8560 C   0  0  0  0  0  0  0  0  0  0  0  0
  191.9820  176.1570  145.5510 N   0  0  0  0  0  2  0  0  0  0  0  0
  190.3630  176.9140  147.0810 O   0  0  0  0  0  0  0  0  0  0  0  0
  192.0080  175.4530  147.9690 C   0  0  0  0  0  1  0  0  0  0  0  0
  186.8490  177.9430  137.4880 C   0  0  0  0  0  2  0  0  0  0  0  0
  185.8620  175.7700  137.1560 O   0  0  0  0  0  0  0  0  0  0  0  0
  186.2050  174.4040  137.2480 C   0  0  2  0  0  3  0  0  0  0  0  0
  187.7590  176.2990  135.7610 C   0  0  1  0  0  3  0  0  0  0  0  0
  187.7660  174.8400  135.3880 C   0  0  0  0  0  3  0  0  0  0  0  0
  187.0070  173.9540  136.0500 C   0  0  0  0  0  3  0  0  0  0  0  0
  184.9490  173.5680  137.3700 C   0  0  0  0  0  1  0  0  0  0  0  0
  187.0630  177.0100  134.7800 O   0  0  0  0  0  1  0  0  0  0  0  0
  187.0790  176.4780  137.1320 C   0  0  1  0  0  3  0  0  0  0  0  0
  2 19  1  0  0  0  0
  2 18  2  0  0  0  0
  3  8  1  0  0  0  0
  4  3  2  0  0  0  0
  5 14  2  0  0  0  0
  5 13  1  0  0  0  0
  6 13  2  0  0  0  0
  7  1  2  0  0  0  0
  9  6  1  0  0  0  0
 10  9  1  0  0  0  0
 10  8  2  0  0  0  0
 11 17  1  0  0  0  0
 11 19  1  0  0  0  0
 12 15  2  0  0  0  0
 13  7  1  0  0  0  0
 14 12  1  0  0  0  0
 15  1  1  0  0  0  0
 15 21  1  0  0  0  0
 16 17  2  0  0  0  0
 16  4  1  0  0  0  0
 17 10  1  0  0  0  0
 18  5  1  0  0  0  0
 19  9  2  0  0  0  0
 20 22  2  0  0  0  0
 20 23  1  0  0  0  0
 21 20  1  0  0  0  0
 24 11  1  0  0  0  0
 25 26  1  0  0  0  0
 26 30  1  6  0  0  0
 27 31  1  6  0  0  0
 27 32  1  0  0  0  0
 28 27  1  0  0  0  0
 28 29  2  0  0  0  0
 29 26  1  0  0  0  0
 32 25  1  0  0  0  0
 32 24  1  6  0  0  0
M  END
>  <MODEL>
6

>  <REMARK>
 VINA RESULT:      -8.0      3.507      5.678
  Name = 
  3 active torsions:
  status: ('A' for Active; 'I' for Inactive)
    1  A    between atoms: N_10  and  C_24
    2  A    between atoms: N_16  and  C_27
    3  A    between atoms: C_27  and  C_32
                            x       y       z     vdW  Elec       q    Type
                         _______ _______ _______ _____ _____    ______ ____

>  <TORSDO>
F 3

$$$$
=
 OpenBabel10272413233D

 32 36  0  0  1  0  0  0  0  0999 V2000
  190.7380  178.0970  144.6930 C   0  0  0  0  0  3  0  0  0  0  0  0
  188.2960  178.3110  139.8120 C   0  0  0  0  0  3  0  0  0  0  0  0
  183.2110  178.8600  142.9350 C   0  0  0  0  0  3  0  0  0  0  0  0
  182.6450  178.7470  141.6460 C   0  0  0  0  0  3  0  0  0  0  0  0
  189.6780  177.6560  141.7480 C   0  0  0  0  0  0  0  0  0  0  0  0
  187.7390  178.6960  142.9060 C   0  0  0  0  0  3  0  0  0  0  0  0
  189.7860  178.7800  144.0650 C   0  0  0  0  0  3  0  0  0  0  0  0
  184.6040  178.7790  143.1150 C   0  0  0  0  0  3  0  0  0  0  0  0
  186.7600  178.4770  141.8410 C   0  0  0  0  0  0  0  0  0  0  0  0
  185.3900  178.5740  141.9830 C   0  0  0  0  0  0  0  0  0  0  0  0
  185.8110  178.3200  139.8050 N   0  0  0  0  0  0  0  0  0  0  0  0
  191.1920  176.1960  143.1660 C   0  0  0  0  0  3  0  0  0  0  0  0
  189.0250  178.3500  142.8890 C   0  0  0  0  0  0  0  0  0  0  0  0
  190.6250  176.7330  141.9200 C   0  0  0  0  0  3  0  0  0  0  0  0
  191.2330  176.7490  144.3830 C   0  0  0  0  0  0  0  0  0  0  0  0
  183.4660  178.5520  140.5200 C   0  0  0  0  0  3  0  0  0  0  0  0
  184.8430  178.4680  140.7290 C   0  0  0  0  0  0  0  0  0  0  0  0
  189.4230  178.0180  140.3840 N   0  0  0  0  0  0  0  0  0  0  0  0
  186.9890  178.3270  140.4790 C   0  0  0  0  0  0  0  0  0  0  0  0
  191.6330  176.1830  146.8630 C   0  0  0  0  0  0  0  0  0  0  0  0
  191.8960  176.0640  145.4580 N   0  0  0  0  0  2  0  0  0  0  0  0
  190.7850  177.0030  147.3070 O   0  0  0  0  0  0  0  0  0  0  0  0
  192.3900  175.3310  147.8160 C   0  0  0  0  0  1  0  0  0  0  0  0
  185.6270  178.2610  138.3580 C   0  0  0  0  0  2  0  0  0  0  0  0
  184.0460  176.5920  137.6370 O   0  0  0  0  0  0  0  0  0  0  0  0
  183.8710  175.1920  137.6580 C   0  0  2  0  0  3  0  0  0  0  0  0
  186.2550  176.4460  136.6770 C   0  0  1  0  0  3  0  0  0  0  0  0
  185.8370  175.0900  136.1710 C   0  0  0  0  0  3  0  0  0  0  0  0
  184.7000  174.5160  136.5900 C   0  0  0  0  0  3  0  0  0  0  0  0
  182.4080  174.8560  137.4610 C   0  0  0  0  0  1  0  0  0  0  0  0
  186.0660  177.3830  135.6580 O   0  0  0  0  0  1  0  0  0  0  0  0
  185.4080  176.8200  137.9090 C   0  0  1  0  0  3  0  0  0  0  0  0
  2 18  2  0  0  0  0
  2 19  1  0  0  0  0
  3  8  1  0  0  0  0
  4  3  2  0  0  0  0
  5 14  2  0  0  0  0
  5 13  1  0  0  0  0
  7  1  2  0  0  0  0
  9 10  1  0  0  0  0
  9  6  1  0  0  0  0
 10  8  2  0  0  0  0
 11 19  1  0  0  0  0
 11 17  1  0  0  0  0
 12 15  2  0  0  0  0
 13  6  2  0  0  0  0
 13  7  1  0  0  0  0
 14 12  1  0  0  0  0
 15  1  1  0  0  0  0
 15 21  1  0  0  0  0
 16 17  2  0  0  0  0
 16  4  1  0  0  0  0
 17 10  1  0  0  0  0
 18  5  1  0  0  0  0
 19  9  2  0  0  0  0
 20 22  2  0  0  0  0
 20 23  1  0  0  0  0
 21 20  1  0  0  0  0
 24 11  1  0  0  0  0
 25 26  1  0  0  0  0
 25 32  1  0  0  0  0
 26 30  1  6  0  0  0
 27 31  1  6  0  0  0
 27 32  1  0  0  0  0
 28 29  2  0  0  0  0
 28 27  1  0  0  0  0
 29 26  1  0  0  0  0
 32 24  1  6  0  0  0
M  END
>  <MODEL>
7

>  <REMARK>
 VINA RESULT:      -7.8      3.415      5.273
  Name = 
  3 active torsions:
  status: ('A' for Active; 'I' for Inactive)
    1  A    between atoms: N_10  and  C_24
    2  A    between atoms: N_16  and  C_27
    3  A    between atoms: C_27  and  C_32
                            x       y       z     vdW  Elec       q    Type
                         _______ _______ _______ _____ _____    ______ ____

>  <TORSDO>
F 3

$$$$
=
 OpenBabel10272413233D

 32 36  0  0  1  0  0  0  0  0999 V2000
  192.9930  174.1460  136.7220 C   0  0  0  0  0  3  0  0  0  0  0  0
  190.2540  177.3510  140.1950 C   0  0  0  0  0  3  0  0  0  0  0  0
  185.6320  176.6110  136.4530 C   0  0  0  0  0  3  0  0  0  0  0  0
  185.0470  177.5690  137.3110 C   0  0  0  0  0  3  0  0  0  0  0  0
  191.9400  176.4130  138.6570 C   0  0  0  0  0  0  0  0  0  0  0  0
  189.8550  175.4950  137.6590 C   0  0  0  0  0  3  0  0  0  0  0  0
  191.8020  174.2200  137.3080 C   0  0  0  0  0  3  0  0  0  0  0  0
  186.9590  176.1880  136.6520 C   0  0  0  0  0  3  0  0  0  0  0  0
  188.9500  176.5280  138.1640 C   0  0  0  0  0  0  0  0  0  0  0  0
  187.6650  176.7550  137.7120 C   0  0  0  0  0  0  0  0  0  0  0  0
  187.9660  178.0390  139.5130 N   0  0  0  0  0  0  0  0  0  0  0  0
  194.0120  176.3560  137.1960 C   0  0  0  0  0  3  0  0  0  0  0  0
  191.1690  175.4190  137.8640 C   0  0  0  0  0  0  0  0  0  0  0  0
  193.1800  176.7800  138.3310 C   0  0  0  0  0  3  0  0  0  0  0  0
  193.9400  175.2380  136.4650 C   0  0  0  0  0  0  0  0  0  0  0  0
  185.7820  178.1150  138.3790 C   0  0  0  0  0  3  0  0  0  0  0  0
  187.0970  177.6830  138.5480 C   0  0  0  0  0  0  0  0  0  0  0  0
  191.4510  176.9520  139.8930 N   0  0  0  0  0  0  0  0  0  0  0  0
  189.1030  177.3340  139.2850 C   0  0  0  0  0  0  0  0  0  0  0  0
  196.3330  175.0590  135.5290 C   0  0  0  0  0  0  0  0  0  0  0  0
  194.9030  174.9990  135.4260 N   0  0  0  0  0  2  0  0  0  0  0  0
  196.9010  175.4130  136.5970 O   0  0  0  0  0  0  0  0  0  0  0  0
  197.1600  174.7110  134.3460 C   0  0  0  0  0  1  0  0  0  0  0  0
  187.6980  178.9360  140.6340 C   0  0  0  0  0  2  0  0  0  0  0  0
  188.2450  178.3960  142.9180 O   0  0  0  0  0  0  0  0  0  0  0  0
  188.1060  177.3370  143.8390 C   0  0  2  0  0  3  0  0  0  0  0  0
  185.8970  178.4130  142.3640 C   0  0  1  0  0  3  0  0  0  0  0  0
  185.6780  177.7520  143.7000 C   0  0  0  0  0  3  0  0  0  0  0  0
  186.7120  177.2870  144.4180 C   0  0  0  0  0  3  0  0  0  0  0  0
  189.1200  177.4900  144.9540 C   0  0  0  0  0  1  0  0  0  0  0  0
  185.6920  179.7890  142.5050 O   0  0  0  0  0  1  0  0  0  0  0  0
  187.3320  178.1350  141.8790 C   0  0  1  0  0  3  0  0  0  0  0  0
  1  7  1  0  0  0  0
  3  8  2  0  0  0  0
  3  4  1  0  0  0  0
  4 16  2  0  0  0  0
  5 18  2  0  0  0  0
  6 13  1  0  0  0  0
  6  9  2  0  0  0  0
  7 13  2  0  0  0  0
  8 10  1  0  0  0  0
  9 19  1  0  0  0  0
 10  9  1  0  0  0  0
 10 17  2  0  0  0  0
 11 24  1  0  0  0  0
 12 14  2  0  0  0  0
 13  5  1  0  0  0  0
 14  5  1  0  0  0  0
 15  1  2  0  0  0  0
 15 12  1  0  0  0  0
 16 17  1  0  0  0  0
 17 11  1  0  0  0  0
 18  2  1  0  0  0  0
 19 11  1  0  0  0  0
 19  2  2  0  0  0  0
 20 22  2  0  0  0  0
 21 20  1  0  0  0  0
 21 15  1  0  0  0  0
 23 20  1  0  0  0  0
 25 26  1  0  0  0  0
 26 29  1  0  0  0  0
 26 30  1  1  0  0  0
 27 31  1  1  0  0  0
 27 28  1  0  0  0  0
 28 29  2  0  0  0  0
 32 24  1  6  0  0  0
 32 27  1  0  0  0  0
 32 25  1  0  0  0  0
M  END
>  <MODEL>
8

>  <REMARK>
 VINA RESULT:      -7.5      2.049      4.786
  Name = 
  3 active torsions:
  status: ('A' for Active; 'I' for Inactive)
    1  A    between atoms: N_10  and  C_24
    2  A    between atoms: N_16  and  C_27
    3  A    between atoms: C_27  and  C_32
                            x       y       z     vdW  Elec       q    Type
                         _______ _______ _______ _____ _____    ______ ____

>  <TORSDO>
F 3

$$$$
=
 OpenBabel10272413233D

 32 36  0  0  1  0  0  0  0  0999 V2000
  188.2610  178.2770  145.5520 C   0  0  0  0  0  3  0  0  0  0  0  0
  185.5340  178.7550  140.8450 C   0  0  0  0  0  3  0  0  0  0  0  0
  180.6080  178.4660  144.2450 C   0  0  0  0  0  3  0  0  0  0  0  0
  179.9820  178.4320  142.9790 C   0  0  0  0  0  3  0  0  0  0  0  0
  187.0800  178.0430  142.6300 C   0  0  0  0  0  0  0  0  0  0  0  0
  185.1220  178.7580  143.9850 C   0  0  0  0  0  3  0  0  0  0  0  0
  187.2150  178.9240  145.0490 C   0  0  0  0  0  3  0  0  0  0  0  0
  182.0100  178.5050  144.3490 C   0  0  0  0  0  3  0  0  0  0  0  0
  184.1080  178.5550  142.9500 C   0  0  0  0  0  0  0  0  0  0  0  0
  182.7450  178.4990  143.1660 C   0  0  0  0  0  0  0  0  0  0  0  0
  183.0620  178.5180  140.9560 N   0  0  0  0  0  0  0  0  0  0  0  0
  188.8040  176.6010  143.8070 C   0  0  0  0  0  3  0  0  0  0  0  0
  186.4320  178.5450  143.8700 C   0  0  0  0  0  0  0  0  0  0  0  0
  188.1180  177.2060  142.6550 C   0  0  0  0  0  3  0  0  0  0  0  0
  188.8630  177.0250  145.0740 C   0  0  0  0  0  0  0  0  0  0  0  0
  180.7510  178.4390  141.8020 C   0  0  0  0  0  3  0  0  0  0  0  0
  182.1400  178.4710  141.9350 C   0  0  0  0  0  0  0  0  0  0  0  0
  186.7140  178.5190  141.3270 N   0  0  0  0  0  0  0  0  0  0  0  0
  184.2720  178.5710  141.5700 C   0  0  0  0  0  0  0  0  0  0  0  0
  191.0190  176.5270  146.3920 C   0  0  0  0  0  0  0  0  0  0  0  0
  189.6470  176.3010  146.0350 N   0  0  0  0  0  2  0  0  0  0  0  0
  191.7160  177.3980  145.8060 O   0  0  0  0  0  0  0  0  0  0  0  0
  191.6320  175.7040  147.4650 C   0  0  0  0  0  1  0  0  0  0  0  0
  182.8030  178.5920  139.5210 C   0  0  0  0  0  2  0  0  0  0  0  0
  181.3920  176.7420  138.8930 O   0  0  0  0  0  0  0  0  0  0  0  0
  181.4540  175.3400  138.7460 C   0  0  2  0  0  3  0  0  0  0  0  0
  183.3330  177.1170  137.5070 C   0  0  1  0  0  3  0  0  0  0  0  0
  183.0390  175.7680  136.9040 C   0  0  0  0  0  3  0  0  0  0  0  0
  182.1280  174.9500  137.4510 C   0  0  0  0  0  3  0  0  0  0  0  0
  180.0580  174.7580  138.7940 C   0  0  0  0  0  1  0  0  0  0  0  0
  182.7770  178.1050  136.6900 O   0  0  0  0  0  1  0  0  0  0  0  0
  182.7260  177.1920  138.9220 C   0  0  1  0  0  3  0  0  0  0  0  0
  2 18  2  0  0  0  0
  2 19  1  0  0  0  0
  3  8  1  0  0  0  0
  4  3  2  0  0  0  0
  5 14  2  0  0  0  0
  5 13  1  0  0  0  0
  7  1  2  0  0  0  0
  9 10  1  0  0  0  0
  9  6  1  0  0  0  0
 10  8  2  0  0  0  0
 11 19  1  0  0  0  0
 11 17  1  0  0  0  0
 12 15  2  0  0  0  0
 13  6  2  0  0  0  0
 13  7  1  0  0  0  0
 14 12  1  0  0  0  0
 15  1  1  0  0  0  0
 15 21  1  0  0  0  0
 16 17  2  0  0  0  0
 16  4  1  0  0  0  0
 17 10  1  0  0  0  0
 18  5  1  0  0  0  0
 19  9  2  0  0  0  0
 20 23  1  0  0  0  0
 21 20  1  0  0  0  0
 22 20  2  0  0  0  0
 24 11  1  0  0  0  0
 25 32  1  0  0  0  0
 26 30  1  6  0  0  0
 26 25  1  0  0  0  0
 27 31  1  6  0  0  0
 27 32  1  0  0  0  0
 28 29  2  0  0  0  0
 28 27  1  0  0  0  0
 29 26  1  0  0  0  0
 32 24  1  6  0  0  0
M  END
>  <MODEL>
9

>  <REMARK>
 VINA RESULT:      -7.4      4.356      6.009
  Name = 
  3 active torsions:
  status: ('A' for Active; 'I' for Inactive)
    1  A    between atoms: N_10  and  C_24
    2  A    between atoms: N_16  and  C_27
    3  A    between atoms: C_27  and  C_32
                            x       y       z     vdW  Elec       q    Type
                         _______ _______ _______ _____ _____    ______ ____

>  <TORSDO>
F 3

$$$$
