=
 OpenBabel10272415223D

 34 39  0  0  1  0  0  0  0  0999 V2000
  187.6620  177.4120  144.0930 C   0  0  0  0  0  0  0  0  0  0  0  0
  185.5430  179.5990  145.4120 C   0  0  0  0  0  2  0  0  0  0  0  0
  186.3800  177.6340  146.6140 N   0  0  0  0  0  2  0  0  0  0  0  0
  190.4030  177.1790  143.9650 N   0  0  0  0  0  0  0  0  0  0  0  0
  188.3070  177.3060  142.8980 N   0  0  0  0  0  0  0  0  0  0  0  0
  189.8130  177.2560  145.1850 C   0  0  0  0  0  0  0  0  0  0  0  0
  189.9590  177.2480  147.6020 C   0  0  0  0  0  3  0  0  0  0  0  0
  190.5810  177.1890  146.3490 C   0  0  0  0  0  3  0  0  0  0  0  0
  189.6640  177.2070  142.8220 C   0  0  0  0  0  0  0  0  0  0  0  0
  187.7960  177.4630  146.5310 C   0  0  0  0  0  0  0  0  0  0  0  0
  188.4150  177.3840  145.2750 C   0  0  0  0  0  0  0  0  0  0  0  0
  188.5690  177.3820  147.6940 C   0  0  0  0  0  3  0  0  0  0  0  0
  184.5650  180.1710  144.3740 C   0  0  0  0  0  2  0  0  0  0  0  0
  183.4970  179.1670  143.9330 C   0  0  2  0  0  3  0  0  0  0  0  0
  184.0150  178.1420  142.9070 C   0  0  0  0  0  2  0  0  0  0  0  0
  185.6070  178.0640  145.4520 C   0  0  2  0  0  3  0  0  0  0  0  0
  185.5400  177.9990  142.8640 C   0  0  0  0  0  2  0  0  0  0  0  0
  186.1480  177.4180  144.1490 C   0  0  1  0  0  3  0  0  0  0  0  0
  192.3560  177.3370  140.1380 C   0  0  0  0  0  3  0  0  0  0  0  0
  189.5920  176.7180  140.3700 C   0  0  0  0  0  3  0  0  0  0  0  0
  190.9610  176.4130  137.0810 C   0  0  0  0  0  0  0  0  0  0  0  0
  192.0010  176.8010  137.7990 O   0  0  0  0  0  0  0  0  0  0  0  0
  191.5970  176.9440  139.0400 C   0  0  0  0  0  0  0  0  0  0  0  0
  189.8330  176.2990  137.8950 C   0  0  0  0  0  0  0  0  0  0  0  0
  190.2660  176.6460  139.1530 C   0  0  0  0  0  0  0  0  0  0  0  0
  188.4520  175.8910  137.5060 C   0  0  0  0  0  1  0  0  0  0  0  0
  190.3260  177.1140  141.5080 C   0  0  0  0  0  0  0  0  0  0  0  0
  191.7050  177.4200  141.3820 C   0  0  0  0  0  3  0  0  0  0  0  0
  191.0380  176.1520  135.6370 C   0  0  0  0  0  0  0  0  0  0  0  0
  191.8200  175.2770  135.1810 O   0  0  0  0  0  1  0  0  0  0  0  0
  190.2390  176.8780  134.7630 O   0  0  0  0  0  0  0  0  0  0  0  0
  182.3580  179.8770  143.3790 N   0  0  0  0  0  2  0  0  0  0  0  0
  181.4500  178.8780  142.8440 C   0  0  0  0  0  2  0  0  0  0  0  0
  180.3620  178.5910  143.8580 C   0  0  0  0  0  1  0  0  0  0  0  0
  1 18  1  0  0  0  0
  1 11  1  0  0  0  0
  4  6  1  0  0  0  0
  5  1  2  0  0  0  0
  6 11  2  0  0  0  0
  6  8  1  0  0  0  0
  7 12  1  0  0  0  0
  8  7  2  0  0  0  0
  9  5  1  0  0  0  0
  9  4  2  0  0  0  0
 10  3  1  0  0  0  0
 10 12  2  0  0  0  0
 11 10  1  0  0  0  0
 13  2  1  0  0  0  0
 14 32  1  6  0  0  0
 14 13  1  0  0  0  0
 15 14  1  0  0  0  0
 16  2  1  6  0  0  0
 16  3  1  0  0  0  0
 17 15  1  0  0  0  0
 18 17  1  6  0  0  0
 18 16  1  0  0  0  0
 19 28  1  0  0  0  0
 20 27  1  0  0  0  0
 21 22  1  0  0  0  0
 21 24  2  0  0  0  0
 22 23  1  0  0  0  0
 23 25  1  0  0  0  0
 23 19  2  0  0  0  0
 24 25  1  0  0  0  0
 25 20  2  0  0  0  0
 26 24  1  0  0  0  0
 27  9  1  0  0  0  0
 28 27  2  0  0  0  0
 29 21  1  0  0  0  0
 30 29  1  0  0  0  0
 31 29  2  0  0  0  0
 33 32  1  0  0  0  0
 33 34  1  0  0  0  0
M  END
>  <MODEL>
1

>  <REMARK>
 VINA RESULT:      -9.6      0.000      0.000
  Name = 
  4 active torsions:
  status: ('A' for Active; 'I' for Inactive)
    1  A    between atoms: N_3  and  C_13
    2  A    between atoms: N_3  and  C_25
    3  A    between atoms: C_7  and  C_11
    4  A    between atoms: C_18  and  C_30
                            x       y       z     vdW  Elec       q    Type
                         _______ _______ _______ _____ _____    ______ ____

>  <TORSDO>
F 4

$$$$
=
 OpenBabel10272415223D

 34 39  0  0  1  0  0  0  0  0999 V2000
  188.1680  177.7170  138.8770 C   0  0  0  0  0  0  0  0  0  0  0  0
  185.6680  176.5660  137.0250 C   0  0  0  0  0  2  0  0  0  0  0  0
  187.6470  177.6650  136.0890 N   0  0  0  0  0  2  0  0  0  0  0  0
  190.5230  176.6720  139.8500 N   0  0  0  0  0  0  0  0  0  0  0  0
  188.4470  177.7250  140.2100 N   0  0  0  0  0  0  0  0  0  0  0  0
  190.3100  176.6590  138.5100 C   0  0  0  0  0  0  0  0  0  0  0  0
  191.0600  176.1640  136.2620 C   0  0  0  0  0  3  0  0  0  0  0  0
  191.2810  176.1510  137.6430 C   0  0  0  0  0  3  0  0  0  0  0  0
  189.6010  177.1950  140.7050 C   0  0  0  0  0  0  0  0  0  0  0  0
  188.8840  177.1730  136.6070 C   0  0  0  0  0  0  0  0  0  0  0  0
  189.1110  177.1800  137.9900 C   0  0  0  0  0  0  0  0  0  0  0  0
  189.8640  176.6750  135.7430 C   0  0  0  0  0  3  0  0  0  0  0  0
  184.3050  176.7090  137.7210 C   0  0  0  0  0  2  0  0  0  0  0  0
  183.8040  178.1550  137.7750 C   0  0  2  0  0  3  0  0  0  0  0  0
  184.4770  178.9890  138.8810 C   0  0  0  0  0  2  0  0  0  0  0  0
  186.4930  177.8600  136.9620 C   0  0  2  0  0  3  0  0  0  0  0  0
  185.8010  178.4130  139.3960 C   0  0  0  0  0  2  0  0  0  0  0  0
  186.9250  178.4050  138.3490 C   0  0  1  0  0  3  0  0  0  0  0  0
  191.4290  176.9720  144.0330 C   0  0  0  0  0  3  0  0  0  0  0  0
  188.8020  177.4560  143.0610 C   0  0  0  0  0  3  0  0  0  0  0  0
  189.1620  177.5360  146.6180 C   0  0  0  0  0  0  0  0  0  0  0  0
  190.3890  177.2730  146.2020 O   0  0  0  0  0  0  0  0  0  0  0  0
  190.3630  177.2210  144.8910 C   0  0  0  0  0  0  0  0  0  0  0  0
  188.3030  177.6610  145.5250 C   0  0  0  0  0  0  0  0  0  0  0  0
  189.0980  177.4540  144.4220 C   0  0  0  0  0  0  0  0  0  0  0  0
  186.8410  177.9540  145.5290 C   0  0  0  0  0  1  0  0  0  0  0  0
  189.8570  177.2060  142.1570 C   0  0  0  0  0  0  0  0  0  0  0  0
  191.1630  176.9660  142.6510 C   0  0  0  0  0  3  0  0  0  0  0  0
  188.8080  177.6680  148.0380 C   0  0  0  0  0  0  0  0  0  0  0  0
  189.3570  178.5420  148.7600 O   0  0  0  0  0  1  0  0  0  0  0  0
  187.8570  176.8230  148.5910 O   0  0  0  0  0  0  0  0  0  0  0  0
  182.3650  178.1660  137.9640 N   0  0  0  0  0  2  0  0  0  0  0  0
  182.0140  176.9340  138.6500 C   0  0  0  0  0  2  0  0  0  0  0  0
  181.3520  177.2630  139.9710 C   0  0  0  0  0  1  0  0  0  0  0  0
  1  5  2  0  0  0  0
  2 13  1  0  0  0  0
  3 10  1  0  0  0  0
  3 16  1  0  0  0  0
  4  9  2  0  0  0  0
  5  9  1  0  0  0  0
  6  4  1  0  0  0  0
  7  8  1  0  0  0  0
  8  6  2  0  0  0  0
  9 27  1  0  0  0  0
 10 11  2  0  0  0  0
 11  6  1  0  0  0  0
 11  1  1  0  0  0  0
 12  7  2  0  0  0  0
 12 10  1  0  0  0  0
 13 14  1  0  0  0  0
 14 32  1  1  0  0  0
 14 15  1  0  0  0  0
 15 17  1  0  0  0  0
 16  2  1  1  0  0  0
 16 18  1  0  0  0  0
 18  1  1  0  0  0  0
 18 17  1  1  0  0  0
 19 23  1  0  0  0  0
 20 25  1  0  0  0  0
 21 29  1  0  0  0  0
 22 21  1  0  0  0  0
 23 22  1  0  0  0  0
 24 26  1  0  0  0  0
 24 21  2  0  0  0  0
 25 23  2  0  0  0  0
 25 24  1  0  0  0  0
 27 28  1  0  0  0  0
 27 20  2  0  0  0  0
 28 19  2  0  0  0  0
 29 31  2  0  0  0  0
 29 30  1  0  0  0  0
 32 33  1  0  0  0  0
 33 34  1  0  0  0  0
M  END
>  <MODEL>
2

>  <REMARK>
 VINA RESULT:      -9.1      4.185      7.783
  Name = 
  4 active torsions:
  status: ('A' for Active; 'I' for Inactive)
    1  A    between atoms: N_3  and  C_13
    2  A    between atoms: N_3  and  C_25
    3  A    between atoms: C_7  and  C_11
    4  A    between atoms: C_18  and  C_30
                            x       y       z     vdW  Elec       q    Type
                         _______ _______ _______ _____ _____    ______ ____

>  <TORSDO>
F 4

$$$$
=
 OpenBabel10272415223D

 34 39  0  0  1  0  0  0  0  0999 V2000
  187.5110  177.4290  143.6930 C   0  0  0  0  0  0  0  0  0  0  0  0
  185.5640  179.6290  145.2350 C   0  0  0  0  0  2  0  0  0  0  0  0
  186.5290  177.6670  146.3440 N   0  0  0  0  0  2  0  0  0  0  0  0
  190.2190  177.1860  143.2510 N   0  0  0  0  0  0  0  0  0  0  0  0
  188.0130  177.3150  142.4320 N   0  0  0  0  0  0  0  0  0  0  0  0
  189.7730  177.2710  144.5300 C   0  0  0  0  0  0  0  0  0  0  0  0
  190.1970  177.2740  146.9140 C   0  0  0  0  0  3  0  0  0  0  0  0
  190.6700  177.2070  145.5980 C   0  0  0  0  0  3  0  0  0  0  0  0
  189.3520  177.2120  142.2000 C   0  0  0  0  0  0  0  0  0  0  0  0
  187.9250  177.4910  146.0980 C   0  0  0  0  0  0  0  0  0  0  0  0
  188.3950  177.4040  144.7800 C   0  0  0  0  0  0  0  0  0  0  0  0
  188.8260  177.4140  147.1650 C   0  0  0  0  0  3  0  0  0  0  0  0
  184.4750  180.1990  144.3140 C   0  0  0  0  0  2  0  0  0  0  0  0
  183.3600  179.1960  144.0050 C   0  0  2  0  0  3  0  0  0  0  0  0
  183.7540  178.1650  142.9310 C   0  0  0  0  0  2  0  0  0  0  0  0
  185.6280  178.0940  145.2760 C   0  0  2  0  0  3  0  0  0  0  0  0
  185.2630  178.0170  142.7130 C   0  0  0  0  0  2  0  0  0  0  0  0
  186.0130  177.4400  143.9230 C   0  0  1  0  0  3  0  0  0  0  0  0
  189.4410  177.1970  138.3970 C   0  0  0  0  0  3  0  0  0  0  0  0
  191.2220  176.8340  140.5820 C   0  0  0  0  0  3  0  0  0  0  0  0
  192.6950  176.5390  137.3370 C   0  0  0  0  0  0  0  0  0  0  0  0
  191.4270  176.7960  137.0650 O   0  0  0  0  0  0  0  0  0  0  0  0
  190.7920  176.9230  138.2060 C   0  0  0  0  0  0  0  0  0  0  0  0
  192.8880  176.4980  138.7190 C   0  0  0  0  0  0  0  0  0  0  0  0
  191.6490  176.7480  139.2590 C   0  0  0  0  0  0  0  0  0  0  0  0
  194.1530  176.2420  139.4660 C   0  0  0  0  0  1  0  0  0  0  0  0
  189.8590  177.1100  140.8190 C   0  0  0  0  0  0  0  0  0  0  0  0
  188.9790  177.2890  139.7230 C   0  0  0  0  0  3  0  0  0  0  0  0
  193.7120  176.3340  136.2960 C   0  0  0  0  0  0  0  0  0  0  0  0
  193.6840  175.3130  135.5600 O   0  0  0  0  0  0  0  0  0  0  0  0
  194.7150  177.2780  136.1200 O   0  0  0  0  0  1  0  0  0  0  0  0
  182.1670  179.9080  143.5820 N   0  0  0  0  0  2  0  0  0  0  0  0
  181.2580  178.9240  143.0210 C   0  0  0  0  0  2  0  0  0  0  0  0
  180.3030  178.4490  144.0960 C   0  0  0  0  0  1  0  0  0  0  0  0
  1 18  1  0  0  0  0
  1 11  1  0  0  0  0
  4  6  1  0  0  0  0
  5  1  2  0  0  0  0
  6 11  2  0  0  0  0
  6  8  1  0  0  0  0
  7 12  1  0  0  0  0
  8  7  2  0  0  0  0
  9  5  1  0  0  0  0
  9  4  2  0  0  0  0
 10  3  1  0  0  0  0
 10 12  2  0  0  0  0
 11 10  1  0  0  0  0
 13  2  1  0  0  0  0
 14 32  1  6  0  0  0
 14 13  1  0  0  0  0
 15 14  1  0  0  0  0
 16  2  1  6  0  0  0
 16  3  1  0  0  0  0
 17 15  1  0  0  0  0
 18 17  1  6  0  0  0
 18 16  1  0  0  0  0
 19 28  1  0  0  0  0
 20 27  1  0  0  0  0
 21 24  2  0  0  0  0
 22 21  1  0  0  0  0
 22 23  1  0  0  0  0
 23 19  2  0  0  0  0
 23 25  1  0  0  0  0
 24 25  1  0  0  0  0
 24 26  1  0  0  0  0
 25 20  2  0  0  0  0
 27  9  1  0  0  0  0
 28 27  2  0  0  0  0
 29 21  1  0  0  0  0
 30 29  2  0  0  0  0
 31 29  1  0  0  0  0
 33 32  1  0  0  0  0
 33 34  1  0  0  0  0
M  END
>  <MODEL>
3

>  <REMARK>
 VINA RESULT:      -8.9      1.114      1.853
  Name = 
  4 active torsions:
  status: ('A' for Active; 'I' for Inactive)
    1  A    between atoms: N_3  and  C_13
    2  A    between atoms: N_3  and  C_25
    3  A    between atoms: C_7  and  C_11
    4  A    between atoms: C_18  and  C_30
                            x       y       z     vdW  Elec       q    Type
                         _______ _______ _______ _____ _____    ______ ____

>  <TORSDO>
F 4

$$$$
=
 OpenBabel10272415223D

 34 39  0  0  1  0  0  0  0  0999 V2000
  190.5280  176.0460  138.0690 C   0  0  0  0  0  0  0  0  0  0  0  0
  192.5570  176.4140  135.4700 C   0  0  0  0  0  2  0  0  0  0  0  0
  190.1740  175.8800  135.2600 N   0  0  0  0  0  2  0  0  0  0  0  0
  188.9290  177.7260  139.5550 N   0  0  0  0  0  0  0  0  0  0  0  0
  190.6750  176.1490  139.4200 N   0  0  0  0  0  0  0  0  0  0  0  0
  188.7220  177.6450  138.2170 C   0  0  0  0  0  0  0  0  0  0  0  0
  187.4780  178.2700  136.2350 C   0  0  0  0  0  3  0  0  0  0  0  0
  187.6980  178.3790  137.6130 C   0  0  0  0  0  3  0  0  0  0  0  0
  189.9010  176.9900  140.1620 C   0  0  0  0  0  0  0  0  0  0  0  0
  189.3220  176.7080  136.0520 C   0  0  0  0  0  0  0  0  0  0  0  0
  189.5310  176.8000  137.4360 C   0  0  0  0  0  0  0  0  0  0  0  0
  188.2880  177.4350  135.4550 C   0  0  0  0  0  3  0  0  0  0  0  0
  193.9820  175.9170  135.7600 C   0  0  0  0  0  2  0  0  0  0  0  0
  194.0880  174.3910  135.8240 C   0  0  2  0  0  3  0  0  0  0  0  0
  193.5930  173.8050  137.1590 C   0  0  0  0  0  2  0  0  0  0  0  0
  191.4490  175.3970  135.7840 C   0  0  2  0  0  3  0  0  0  0  0  0
  192.6810  174.7370  137.9650 C   0  0  0  0  0  2  0  0  0  0  0  0
  191.3340  175.0290  137.2870 C   0  0  1  0  0  3  0  0  0  0  0  0
  191.6310  177.2130  143.5430 C   0  0  0  0  0  3  0  0  0  0  0  0
  188.9930  177.1530  142.4870 C   0  0  0  0  0  3  0  0  0  0  0  0
  189.2160  177.3970  146.0480 C   0  0  0  0  0  0  0  0  0  0  0  0
  190.4830  177.3650  145.6740 O   0  0  0  0  0  0  0  0  0  0  0  0
  190.5100  177.2750  144.3650 C   0  0  0  0  0  0  0  0  0  0  0  0
  188.3850  177.3230  144.9290 C   0  0  0  0  0  0  0  0  0  0  0  0
  189.2400  177.2460  143.8560 C   0  0  0  0  0  0  0  0  0  0  0  0
  186.8940  177.3280  144.8850 C   0  0  0  0  0  1  0  0  0  0  0  0
  190.1040  177.0890  141.6200 C   0  0  0  0  0  0  0  0  0  0  0  0
  191.4160  177.1200  142.1560 C   0  0  0  0  0  3  0  0  0  0  0  0
  188.7980  177.4950  147.4530 C   0  0  0  0  0  0  0  0  0  0  0  0
  188.2060  176.5380  148.0180 O   0  0  0  0  0  0  0  0  0  0  0  0
  189.0610  178.6550  148.1690 O   0  0  0  0  0  1  0  0  0  0  0  0
  195.4640  173.9880  135.5960 N   0  0  0  0  0  2  0  0  0  0  0  0
  196.2560  174.5360  136.6840 C   0  0  0  0  0  2  0  0  0  0  0  0
  197.5930  175.0040  136.1480 C   0  0  0  0  0  1  0  0  0  0  0  0
  1  5  2  0  0  0  0
  2 13  1  0  0  0  0
  3 16  1  0  0  0  0
  3 10  1  0  0  0  0
  4  9  2  0  0  0  0
  5  9  1  0  0  0  0
  6  4  1  0  0  0  0
  7  8  2  0  0  0  0
  8  6  1  0  0  0  0
  9 27  1  0  0  0  0
 10 11  1  0  0  0  0
 11  1  1  0  0  0  0
 11  6  2  0  0  0  0
 12 10  2  0  0  0  0
 12  7  1  0  0  0  0
 13 14  1  0  0  0  0
 14 32  1  1  0  0  0
 14 15  1  0  0  0  0
 15 17  1  0  0  0  0
 16  2  1  1  0  0  0
 16 18  1  0  0  0  0
 18 17  1  1  0  0  0
 18  1  1  0  0  0  0
 19 23  1  0  0  0  0
 20 25  1  0  0  0  0
 21 29  1  0  0  0  0
 22 21  1  0  0  0  0
 23 22  1  0  0  0  0
 24 21  2  0  0  0  0
 25 23  2  0  0  0  0
 25 24  1  0  0  0  0
 26 24  1  0  0  0  0
 27 28  1  0  0  0  0
 27 20  2  0  0  0  0
 28 19  2  0  0  0  0
 29 30  2  0  0  0  0
 29 31  1  0  0  0  0
 32 33  1  0  0  0  0
 34 33  1  0  0  0  0
M  END
>  <MODEL>
4

>  <REMARK>
 VINA RESULT:      -8.8      4.426     10.256
  Name = 
  4 active torsions:
  status: ('A' for Active; 'I' for Inactive)
    1  A    between atoms: N_3  and  C_13
    2  A    between atoms: N_3  and  C_25
    3  A    between atoms: C_7  and  C_11
    4  A    between atoms: C_18  and  C_30
                            x       y       z     vdW  Elec       q    Type
                         _______ _______ _______ _____ _____    ______ ____

>  <TORSDO>
F 4

$$$$
=
 OpenBabel10272415223D

 34 39  0  0  1  0  0  0  0  0999 V2000
  188.9040  177.3470  138.5380 C   0  0  0  0  0  0  0  0  0  0  0  0
  186.9310  175.6940  136.4440 C   0  0  0  0  0  2  0  0  0  0  0  0
  188.9370  176.9120  135.7350 N   0  0  0  0  0  2  0  0  0  0  0  0
  191.1180  176.7150  140.0500 N   0  0  0  0  0  0  0  0  0  0  0  0
  188.9180  177.5420  139.8860 N   0  0  0  0  0  0  0  0  0  0  0  0
  191.1690  176.5220  138.7070 C   0  0  0  0  0  0  0  0  0  0  0  0
  192.3830  175.8660  136.7170 C   0  0  0  0  0  3  0  0  0  0  0  0
  192.3340  176.0400  138.1050 C   0  0  0  0  0  3  0  0  0  0  0  0
  190.0010  177.2170  140.6460 C   0  0  0  0  0  0  0  0  0  0  0  0
  190.0930  176.6360  136.5280 C   0  0  0  0  0  0  0  0  0  0  0  0
  190.0480  176.8300  137.9150 C   0  0  0  0  0  0  0  0  0  0  0  0
  191.2650  176.1650  135.9280 C   0  0  0  0  0  3  0  0  0  0  0  0
  185.4530  175.7500  136.8590 C   0  0  0  0  0  2  0  0  0  0  0  0
  184.8120  177.1210  136.6260 C   0  0  2  0  0  3  0  0  0  0  0  0
  185.1740  178.1520  137.7110 C   0  0  0  0  0  2  0  0  0  0  0  0
  187.6220  177.0640  136.3540 C   0  0  2  0  0  3  0  0  0  0  0  0
  186.4240  177.8040  138.5270 C   0  0  0  0  0  2  0  0  0  0  0  0
  187.7240  177.8130  137.7090 C   0  0  1  0  0  3  0  0  0  0  0  0
  191.1700  177.8340  144.2130 C   0  0  0  0  0  3  0  0  0  0  0  0
  188.7410  177.4200  142.7970 C   0  0  0  0  0  3  0  0  0  0  0  0
  188.3980  177.9020  146.3240 C   0  0  0  0  0  0  0  0  0  0  0  0
  189.7040  177.9880  146.1390 O   0  0  0  0  0  0  0  0  0  0  0  0
  189.9370  177.8220  144.8580 C   0  0  0  0  0  0  0  0  0  0  0  0
  187.7570  177.6700  145.1060 C   0  0  0  0  0  0  0  0  0  0  0  0
  188.7680  177.6220  144.1750 C   0  0  0  0  0  0  0  0  0  0  0  0
  186.2970  177.5070  144.8480 C   0  0  0  0  0  1  0  0  0  0  0  0
  189.9710  177.4250  142.1060 C   0  0  0  0  0  0  0  0  0  0  0  0
  191.1770  177.6340  142.8210 C   0  0  0  0  0  3  0  0  0  0  0  0
  187.7650  178.0390  147.6430 C   0  0  0  0  0  0  0  0  0  0  0  0
  186.8010  178.8310  147.8160 O   0  0  0  0  0  0  0  0  0  0  0  0
  188.2320  177.2870  148.7110 O   0  0  0  0  0  1  0  0  0  0  0  0
  183.3690  176.9780  136.5520 N   0  0  0  0  0  2  0  0  0  0  0  0
  182.9940  177.1390  135.1580 C   0  0  0  0  0  2  0  0  0  0  0  0
  181.7910  178.0540  135.0620 C   0  0  0  0  0  1  0  0  0  0  0  0
  1  5  2  0  0  0  0
  2 13  1  0  0  0  0
  3 16  1  0  0  0  0
  3 10  1  0  0  0  0
  4  9  2  0  0  0  0
  5  9  1  0  0  0  0
  6  4  1  0  0  0  0
  7  8  2  0  0  0  0
  8  6  1  0  0  0  0
  9 27  1  0  0  0  0
 10 11  1  0  0  0  0
 11  1  1  0  0  0  0
 11  6  2  0  0  0  0
 12 10  2  0  0  0  0
 12  7  1  0  0  0  0
 14 32  1  1  0  0  0
 14 13  1  0  0  0  0
 14 15  1  0  0  0  0
 15 17  1  0  0  0  0
 16  2  1  1  0  0  0
 16 18  1  0  0  0  0
 18 17  1  1  0  0  0
 18  1  1  0  0  0  0
 19 23  1  0  0  0  0
 20 25  1  0  0  0  0
 21 29  1  0  0  0  0
 22 21  1  0  0  0  0
 23 22  1  0  0  0  0
 24 21  2  0  0  0  0
 25 23  2  0  0  0  0
 25 24  1  0  0  0  0
 26 24  1  0  0  0  0
 27 20  2  0  0  0  0
 27 28  1  0  0  0  0
 28 19  2  0  0  0  0
 29 30  2  0  0  0  0
 29 31  1  0  0  0  0
 33 32  1  0  0  0  0
 34 33  1  0  0  0  0
M  END
>  <MODEL>
5

>  <REMARK>
 VINA RESULT:      -8.7      4.367      8.214
  Name = 
  4 active torsions:
  status: ('A' for Active; 'I' for Inactive)
    1  A    between atoms: N_3  and  C_13
    2  A    between atoms: N_3  and  C_25
    3  A    between atoms: C_7  and  C_11
    4  A    between atoms: C_18  and  C_30
                            x       y       z     vdW  Elec       q    Type
                         _______ _______ _______ _____ _____    ______ ____

>  <TORSDO>
F 4

$$$$
=
 OpenBabel10272415223D

 34 39  0  0  1  0  0  0  0  0999 V2000
  188.6410  177.3040  138.4390 C   0  0  0  0  0  0  0  0  0  0  0  0
  187.6210  175.4180  135.9070 C   0  0  0  0  0  2  0  0  0  0  0  0
  189.5530  176.9200  135.7800 N   0  0  0  0  0  2  0  0  0  0  0  0
  190.3830  176.9710  140.5470 N   0  0  0  0  0  0  0  0  0  0  0  0
  188.2330  177.4790  139.7270 N   0  0  0  0  0  0  0  0  0  0  0  0
  190.8510  176.8090  139.2830 C   0  0  0  0  0  0  0  0  0  0  0  0
  192.6730  176.3630  137.7520 C   0  0  0  0  0  3  0  0  0  0  0  0
  192.1970  176.5070  139.0600 C   0  0  0  0  0  3  0  0  0  0  0  0
  189.0820  177.3000  140.7780 C   0  0  0  0  0  0  0  0  0  0  0  0
  190.4540  176.8000  136.8820 C   0  0  0  0  0  0  0  0  0  0  0  0
  189.9780  176.9650  138.1910 C   0  0  0  0  0  0  0  0  0  0  0  0
  191.8040  176.5110  136.6640 C   0  0  0  0  0  3  0  0  0  0  0  0
  186.0930  175.2560  135.8710 C   0  0  0  0  0  2  0  0  0  0  0  0
  185.3620  176.5240  135.4240 C   0  0  2  0  0  3  0  0  0  0  0  0
  185.2420  177.5800  136.5390 C   0  0  0  0  0  2  0  0  0  0  0  0
  188.1080  176.8730  135.9840 C   0  0  2  0  0  3  0  0  0  0  0  0
  186.2340  177.4020  137.6930 C   0  0  0  0  0  2  0  0  0  0  0  0
  187.7020  177.6090  137.2890 C   0  0  1  0  0  3  0  0  0  0  0  0
  186.7670  178.0290  143.7070 C   0  0  0  0  0  3  0  0  0  0  0  0
  189.4700  177.2800  143.2490 C   0  0  0  0  0  3  0  0  0  0  0  0
  188.5420  177.6500  146.6820 C   0  0  0  0  0  0  0  0  0  0  0  0
  187.4210  177.9320  146.0410 O   0  0  0  0  0  0  0  0  0  0  0  0
  187.6600  177.8230  144.7550 C   0  0  0  0  0  0  0  0  0  0  0  0
  189.5520  177.3440  145.7690 C   0  0  0  0  0  0  0  0  0  0  0  0
  188.9610  177.4620  144.5330 C   0  0  0  0  0  0  0  0  0  0  0  0
  190.9680  176.9700  146.0500 C   0  0  0  0  0  1  0  0  0  0  0  0
  188.5960  177.4800  142.1590 C   0  0  0  0  0  0  0  0  0  0  0  0
  187.2500  177.8530  142.3980 C   0  0  0  0  0  3  0  0  0  0  0  0
  188.6530  177.6690  148.1470 C   0  0  0  0  0  0  0  0  0  0  0  0
  187.8400  177.0290  148.8640 O   0  0  0  0  0  1  0  0  0  0  0  0
  189.6670  178.4010  148.7510 O   0  0  0  0  0  0  0  0  0  0  0  0
  184.0380  176.1780  134.9370 N   0  0  0  0  0  2  0  0  0  0  0  0
  183.1440  176.1920  136.0820 C   0  0  0  0  0  2  0  0  0  0  0  0
  182.3740  174.8900  136.1360 C   0  0  0  0  0  1  0  0  0  0  0  0
  1  5  2  0  0  0  0
  3 16  1  0  0  0  0
  3 10  1  0  0  0  0
  4  9  2  0  0  0  0
  5  9  1  0  0  0  0
  6  4  1  0  0  0  0
  7  8  2  0  0  0  0
  8  6  1  0  0  0  0
  9 27  1  0  0  0  0
 10 11  1  0  0  0  0
 11  1  1  0  0  0  0
 11  6  2  0  0  0  0
 12 10  2  0  0  0  0
 12  7  1  0  0  0  0
 13  2  1  0  0  0  0
 14 32  1  1  0  0  0
 14 13  1  0  0  0  0
 14 15  1  0  0  0  0
 15 17  1  0  0  0  0
 16  2  1  1  0  0  0
 16 18  1  0  0  0  0
 18 17  1  1  0  0  0
 18  1  1  0  0  0  0
 19 23  1  0  0  0  0
 20 25  1  0  0  0  0
 21 29  1  0  0  0  0
 22 21  1  0  0  0  0
 23 22  1  0  0  0  0
 24 26  1  0  0  0  0
 24 21  2  0  0  0  0
 25 23  2  0  0  0  0
 25 24  1  0  0  0  0
 27 28  1  0  0  0  0
 27 20  2  0  0  0  0
 28 19  2  0  0  0  0
 29 31  2  0  0  0  0
 29 30  1  0  0  0  0
 32 33  1  0  0  0  0
 33 34  1  0  0  0  0
M  END
>  <MODEL>
6

>  <REMARK>
 VINA RESULT:      -8.5      4.394      8.511
  Name = 
  4 active torsions:
  status: ('A' for Active; 'I' for Inactive)
    1  A    between atoms: N_3  and  C_13
    2  A    between atoms: N_3  and  C_25
    3  A    between atoms: C_7  and  C_11
    4  A    between atoms: C_18  and  C_30
                            x       y       z     vdW  Elec       q    Type
                         _______ _______ _______ _____ _____    ______ ____

>  <TORSDO>
F 4

$$$$
=
 OpenBabel10272415223D

 34 39  0  0  1  0  0  0  0  0999 V2000
  186.5150  178.2050  139.6480 C   0  0  0  0  0  0  0  0  0  0  0  0
  183.5530  176.9830  138.7890 C   0  0  0  0  0  2  0  0  0  0  0  0
  184.8910  178.4300  137.3330 N   0  0  0  0  0  2  0  0  0  0  0  0
  189.1240  177.3540  139.4130 N   0  0  0  0  0  0  0  0  0  0  0  0
  187.3200  178.0850  140.7400 N   0  0  0  0  0  0  0  0  0  0  0  0
  188.3770  177.4790  138.2880 C   0  0  0  0  0  0  0  0  0  0  0  0
  188.1590  177.3610  135.8790 C   0  0  0  0  0  3  0  0  0  0  0  0
  188.9320  177.2080  137.0350 C   0  0  0  0  0  3  0  0  0  0  0  0
  188.6070  177.6480  140.6380 C   0  0  0  0  0  0  0  0  0  0  0  0
  186.2600  178.0380  137.2250 C   0  0  0  0  0  0  0  0  0  0  0  0
  187.0390  177.9040  138.3830 C   0  0  0  0  0  0  0  0  0  0  0  0
  186.8250  177.7780  135.9720 C   0  0  0  0  0  3  0  0  0  0  0  0
  182.5940  176.8670  139.9840 C   0  0  0  0  0  2  0  0  0  0  0  0
  182.0690  178.2210  140.4700 C   0  0  2  0  0  3  0  0  0  0  0  0
  183.0840  178.9900  141.3350 C   0  0  0  0  0  2  0  0  0  0  0  0
  184.1920  178.3690  138.6140 C   0  0  2  0  0  3  0  0  0  0  0  0
  184.5360  178.5270  141.1760 C   0  0  0  0  0  2  0  0  0  0  0  0
  185.1240  178.7900  139.7810 C   0  0  1  0  0  3  0  0  0  0  0  0
  191.6510  177.1780  142.8700 C   0  0  0  0  0  3  0  0  0  0  0  0
  188.8490  177.5840  143.1270 C   0  0  0  0  0  3  0  0  0  0  0  0
  190.6450  177.2880  146.2050 C   0  0  0  0  0  0  0  0  0  0  0  0
  191.5950  177.1600  145.2950 O   0  0  0  0  0  0  0  0  0  0  0  0
  191.0310  177.2550  144.1140 C   0  0  0  0  0  0  0  0  0  0  0  0
  189.4100  177.4750  145.5840 C   0  0  0  0  0  0  0  0  0  0  0  0
  189.6820  177.4500  144.2360 C   0  0  0  0  0  0  0  0  0  0  0  0
  188.0750  177.6640  146.2220 C   0  0  0  0  0  1  0  0  0  0  0  0
  189.4400  177.5120  141.8480 C   0  0  0  0  0  0  0  0  0  0  0  0
  190.8380  177.3100  141.7300 C   0  0  0  0  0  3  0  0  0  0  0  0
  190.9080  177.2350  147.6500 C   0  0  0  0  0  0  0  0  0  0  0  0
  191.9830  176.7490  148.0910 O   0  0  0  0  0  0  0  0  0  0  0  0
  189.9630  177.7260  148.5400 O   0  0  0  0  0  1  0  0  0  0  0  0
  180.8390  178.0270  141.2180 N   0  0  0  0  0  2  0  0  0  0  0  0
  180.8390  178.9970  142.2990 C   0  0  0  0  0  2  0  0  0  0  0  0
  180.1260  178.4130  143.5010 C   0  0  0  0  0  1  0  0  0  0  0  0
  1 18  1  0  0  0  0
  1  5  2  0  0  0  0
  2 13  1  0  0  0  0
  3 16  1  0  0  0  0
  4  9  2  0  0  0  0
  6 11  1  0  0  0  0
  6  4  1  0  0  0  0
  7 12  2  0  0  0  0
  7  8  1  0  0  0  0
  8  6  2  0  0  0  0
  9  5  1  0  0  0  0
  9 27  1  0  0  0  0
 10  3  1  0  0  0  0
 10 11  2  0  0  0  0
 11  1  1  0  0  0  0
 12 10  1  0  0  0  0
 13 14  1  0  0  0  0
 14 32  1  1  0  0  0
 14 15  1  0  0  0  0
 16  2  1  1  0  0  0
 16 18  1  0  0  0  0
 17 15  1  0  0  0  0
 18 17  1  1  0  0  0
 19 23  1  0  0  0  0
 20 25  1  0  0  0  0
 21 29  1  0  0  0  0
 22 21  1  0  0  0  0
 23 25  2  0  0  0  0
 23 22  1  0  0  0  0
 24 21  2  0  0  0  0
 24 26  1  0  0  0  0
 25 24  1  0  0  0  0
 27 20  2  0  0  0  0
 28 27  1  0  0  0  0
 28 19  2  0  0  0  0
 29 30  2  0  0  0  0
 29 31  1  0  0  0  0
 32 33  1  0  0  0  0
 33 34  1  0  0  0  0
M  END
>  <MODEL>
7

>  <REMARK>
 VINA RESULT:      -8.4      3.790      7.187
  Name = 
  4 active torsions:
  status: ('A' for Active; 'I' for Inactive)
    1  A    between atoms: N_3  and  C_13
    2  A    between atoms: N_3  and  C_25
    3  A    between atoms: C_7  and  C_11
    4  A    between atoms: C_18  and  C_30
                            x       y       z     vdW  Elec       q    Type
                         _______ _______ _______ _____ _____    ______ ____

>  <TORSDO>
F 4

$$$$
=
 OpenBabel10272415223D

 34 39  0  0  1  0  0  0  0  0999 V2000
  188.0980  178.1860  144.4310 C   0  0  0  0  0  0  0  0  0  0  0  0
  190.6530  176.1320  143.9230 C   0  0  0  0  0  2  0  0  0  0  0  0
  190.6000  177.8040  145.7130 N   0  0  0  0  0  2  0  0  0  0  0  0
  185.7740  178.0880  145.9060 N   0  0  0  0  0  0  0  0  0  0  0  0
  186.8820  178.3630  143.8440 N   0  0  0  0  0  0  0  0  0  0  0  0
  186.9590  177.9290  146.5470 C   0  0  0  0  0  0  0  0  0  0  0  0
  188.2250  177.6080  148.5860 C   0  0  0  0  0  3  0  0  0  0  0  0
  186.9960  177.7490  147.9320 C   0  0  0  0  0  3  0  0  0  0  0  0
  185.7240  178.3000  144.5610 C   0  0  0  0  0  0  0  0  0  0  0  0
  189.3880  177.8060  146.4690 C   0  0  0  0  0  0  0  0  0  0  0  0
  188.1590  177.9670  145.8140 C   0  0  0  0  0  0  0  0  0  0  0  0
  189.4200  177.6390  147.8570 C   0  0  0  0  0  3  0  0  0  0  0  0
  190.8750  175.8250  142.4330 C   0  0  0  0  0  2  0  0  0  0  0  0
  191.4670  177.0030  141.6560 C   0  0  2  0  0  3  0  0  0  0  0  0
  190.4240  178.0780  141.2980 C   0  0  0  0  0  2  0  0  0  0  0  0
  190.5790  177.6280  144.2630 C   0  0  2  0  0  3  0  0  0  0  0  0
  189.1470  178.0330  142.1430 C   0  0  0  0  0  2  0  0  0  0  0  0
  189.3700  178.3640  143.6270 C   0  0  1  0  0  3  0  0  0  0  0  0
  182.0160  178.9510  144.0180 C   0  0  0  0  0  3  0  0  0  0  0  0
  184.3320  178.3520  142.4830 C   0  0  0  0  0  3  0  0  0  0  0  0
  181.3090  178.7370  140.6130 C   0  0  0  0  0  0  0  0  0  0  0  0
  180.9140  178.9400  141.8580 O   0  0  0  0  0  0  0  0  0  0  0  0
  181.9650  178.8180  142.6340 C   0  0  0  0  0  0  0  0  0  0  0  0
  182.6790  178.4720  140.5820 C   0  0  0  0  0  0  0  0  0  0  0  0
  183.0810  178.5300  141.8960 C   0  0  0  0  0  0  0  0  0  0  0  0
  183.5380  178.1880  139.3970 C   0  0  0  0  0  1  0  0  0  0  0  0
  184.4250  178.4780  143.8860 C   0  0  0  0  0  0  0  0  0  0  0  0
  183.2640  178.7770  144.6420 C   0  0  0  0  0  3  0  0  0  0  0  0
  180.3950  178.7940  139.4640 C   0  0  0  0  0  0  0  0  0  0  0  0
  179.9820  179.8990  139.0230 O   0  0  0  0  0  1  0  0  0  0  0  0
  179.9830  177.6170  138.8540 O   0  0  0  0  0  0  0  0  0  0  0  0
  192.1030  176.5180  140.4440 N   0  0  0  0  0  2  0  0  0  0  0  0
  191.4390  177.1650  139.3250 C   0  0  0  0  0  2  0  0  0  0  0  0
  191.0590  176.1230  138.2940 C   0  0  0  0  0  1  0  0  0  0  0  0
  1 11  1  0  0  0  0
  3 10  1  0  0  0  0
  4  6  1  0  0  0  0
  5  1  2  0  0  0  0
  5  9  1  0  0  0  0
  6  8  1  0  0  0  0
  8  7  2  0  0  0  0
  9  4  2  0  0  0  0
 10 12  2  0  0  0  0
 11 10  1  0  0  0  0
 11  6  2  0  0  0  0
 12  7  1  0  0  0  0
 13  2  1  0  0  0  0
 14 32  1  6  0  0  0
 14 13  1  0  0  0  0
 15 14  1  0  0  0  0
 15 17  1  0  0  0  0
 16  2  1  1  0  0  0
 16  3  1  0  0  0  0
 18 17  1  6  0  0  0
 18 16  1  0  0  0  0
 18  1  1  0  0  0  0
 19 28  1  0  0  0  0
 20 27  1  0  0  0  0
 21 22  1  0  0  0  0
 22 23  1  0  0  0  0
 23 19  2  0  0  0  0
 24 21  2  0  0  0  0
 24 25  1  0  0  0  0
 25 20  2  0  0  0  0
 25 23  1  0  0  0  0
 26 24  1  0  0  0  0
 27  9  1  0  0  0  0
 27 28  2  0  0  0  0
 29 21  1  0  0  0  0
 30 29  1  0  0  0  0
 31 29  2  0  0  0  0
 33 32  1  0  0  0  0
 34 33  1  0  0  0  0
M  END
>  <MODEL>
8

>  <REMARK>
 VINA RESULT:      -8.4      3.848      7.667
  Name = 
  4 active torsions:
  status: ('A' for Active; 'I' for Inactive)
    1  A    between atoms: N_3  and  C_13
    2  A    between atoms: N_3  and  C_25
    3  A    between atoms: C_7  and  C_11
    4  A    between atoms: C_18  and  C_30
                            x       y       z     vdW  Elec       q    Type
                         _______ _______ _______ _____ _____    ______ ____

>  <TORSDO>
F 4

$$$$
=
 OpenBabel10272415223D

 34 39  0  0  1  0  0  0  0  0999 V2000
  189.8960  176.9650  139.7370 C   0  0  0  0  0  0  0  0  0  0  0  0
  188.1470  176.9970  142.5560 C   0  0  0  0  0  2  0  0  0  0  0  0
  187.8330  178.6270  140.7530 N   0  0  0  0  0  2  0  0  0  0  0  0
  189.6060  175.7750  137.2700 N   0  0  0  0  0  0  0  0  0  0  0  0
  190.8670  176.1600  139.2230 N   0  0  0  0  0  0  0  0  0  0  0  0
  188.6170  176.5870  137.7210 C   0  0  0  0  0  0  0  0  0  0  0  0
  186.4850  177.6910  137.4000 C   0  0  0  0  0  3  0  0  0  0  0  0
  187.4890  176.8340  136.9350 C   0  0  0  0  0  3  0  0  0  0  0  0
  190.7270  175.5520  138.0110 C   0  0  0  0  0  0  0  0  0  0  0  0
  187.7220  178.0410  139.4550 C   0  0  0  0  0  0  0  0  0  0  0  0
  188.7390  177.1990  138.9820 C   0  0  0  0  0  0  0  0  0  0  0  0
  186.6010  178.2960  138.6580 C   0  0  0  0  0  3  0  0  0  0  0  0
  188.9740  176.5380  143.7680 C   0  0  0  0  0  2  0  0  0  0  0  0
  190.0110  177.5720  144.2170 C   0  0  2  0  0  3  0  0  0  0  0  0
  191.2740  177.5840  143.3360 C   0  0  0  0  0  2  0  0  0  0  0  0
  188.7950  178.1160  141.7260 C   0  0  2  0  0  3  0  0  0  0  0  0
  191.0940  176.9450  141.9550 C   0  0  0  0  0  2  0  0  0  0  0  0
  190.1250  177.7060  141.0390 C   0  0  1  0  0  3  0  0  0  0  0  0
  192.5420  172.9660  135.8920 C   0  0  0  0  0  3  0  0  0  0  0  0
  193.0700  174.6820  138.0960 C   0  0  0  0  0  3  0  0  0  0  0  0
  195.8170  172.6510  137.0390 C   0  0  0  0  0  0  0  0  0  0  0  0
  194.8550  172.3060  136.2020 O   0  0  0  0  0  0  0  0  0  0  0  0
  193.7880  173.0050  136.5100 C   0  0  0  0  0  0  0  0  0  0  0  0
  195.3510  173.6190  137.9310 C   0  0  0  0  0  0  0  0  0  0  0  0
  194.0410  173.8310  137.5710 C   0  0  0  0  0  0  0  0  0  0  0  0
  196.0940  174.2880  139.0360 C   0  0  0  0  0  1  0  0  0  0  0  0
  191.7930  174.6720  137.4970 C   0  0  0  0  0  0  0  0  0  0  0  0
  191.5390  173.8130  136.3980 C   0  0  0  0  0  3  0  0  0  0  0  0
  197.1660  172.0690  136.9930 C   0  0  0  0  0  0  0  0  0  0  0  0
  197.3650  170.8760  137.3450 O   0  0  0  0  0  1  0  0  0  0  0  0
  198.2340  172.8400  136.5560 O   0  0  0  0  0  0  0  0  0  0  0  0
  190.3820  177.3210  145.5980 N   0  0  0  0  0  2  0  0  0  0  0  0
  191.6070  176.5390  145.5760 C   0  0  0  0  0  2  0  0  0  0  0  0
  191.9370  176.0800  146.9810 C   0  0  0  0  0  1  0  0  0  0  0  0
  1 18  1  0  0  0  0
  2 13  1  0  0  0  0
  3 16  1  0  0  0  0
  4  6  1  0  0  0  0
  4  9  2  0  0  0  0
  5  1  2  0  0  0  0
  6 11  1  0  0  0  0
  7 12  2  0  0  0  0
  8  7  1  0  0  0  0
  8  6  2  0  0  0  0
  9  5  1  0  0  0  0
 10  3  1  0  0  0  0
 11 10  2  0  0  0  0
 11  1  1  0  0  0  0
 12 10  1  0  0  0  0
 13 14  1  0  0  0  0
 14 32  1  1  0  0  0
 15 14  1  0  0  0  0
 16  2  1  6  0  0  0
 17 15  1  0  0  0  0
 18 16  1  0  0  0  0
 18 17  1  1  0  0  0
 19 28  2  0  0  0  0
 19 23  1  0  0  0  0
 21 24  2  0  0  0  0
 22 23  1  0  0  0  0
 22 21  1  0  0  0  0
 23 25  2  0  0  0  0
 24 26  1  0  0  0  0
 25 24  1  0  0  0  0
 25 20  1  0  0  0  0
 27  9  1  0  0  0  0
 27 20  2  0  0  0  0
 28 27  1  0  0  0  0
 29 21  1  0  0  0  0
 29 30  1  0  0  0  0
 31 29  2  0  0  0  0
 33 32  1  0  0  0  0
 33 34  1  0  0  0  0
M  END
>  <MODEL>
9

>  <REMARK>
 VINA RESULT:      -8.4      3.655      7.111
  Name = 
  4 active torsions:
  status: ('A' for Active; 'I' for Inactive)
    1  A    between atoms: N_3  and  C_13
    2  A    between atoms: N_3  and  C_25
    3  A    between atoms: C_7  and  C_11
    4  A    between atoms: C_18  and  C_30
                            x       y       z     vdW  Elec       q    Type
                         _______ _______ _______ _____ _____    ______ ____

>  <TORSDO>
F 4

$$$$
