=
 OpenBabel10272413553D

 30 33  0  0  1  0  0  0  0  0999 V2000
  186.9580  178.0580  144.4470 N   0  0  0  0  0  2  0  0  0  0  0  0
  186.8720  178.3940  146.8870 C   0  0  0  0  0  0  0  0  0  0  0  0
  190.9270  176.6580  144.8120 N   0  0  0  0  0  2  0  0  0  0  0  0
  187.6050  177.5540  143.2350 C   0  0  2  0  0  3  0  0  0  0  0  0
  191.4540  175.7940  143.7500 C   0  0  0  0  0  2  0  0  0  0  0  0
  187.4480  178.2470  148.1520 C   0  0  0  0  0  3  0  0  0  0  0  0
  185.5540  179.0800  146.7700 C   0  0  0  0  0  1  0  0  0  0  0  0
  189.4710  176.6970  144.6780 C   0  0  2  0  0  3  0  0  0  0  0  0
  188.6820  177.6080  148.2940 C   0  0  0  0  0  3  0  0  0  0  0  0
  187.5360  177.9000  145.7530 C   0  0  0  0  0  0  0  0  0  0  0  0
  189.1240  177.5030  143.4240 C   0  0  1  0  0  3  0  0  0  0  0  0
  190.9580  176.2040  142.3790 C   0  0  0  0  0  3  0  0  0  0  0  0
  189.8490  176.9450  142.2280 C   0  0  0  0  0  3  0  0  0  0  0  0
  189.3510  177.1210  147.1690 C   0  0  0  0  0  3  0  0  0  0  0  0
  188.7980  177.2830  145.8920 C   0  0  0  0  0  0  0  0  0  0  0  0
  185.6560  179.6880  140.9450 O   0  0  0  0  0  0  0  0  0  0  0  0
  185.9020  178.9190  141.9150 C   0  0  0  0  0  0  0  0  0  0  0  0
  187.2290  178.3800  142.0870 N   0  0  0  0  0  0  0  0  0  0  0  0
  184.4260  179.7350  143.7440 C   0  0  0  0  0  2  0  0  0  0  0  0
  183.5460  178.1640  142.1370 C   0  0  0  0  0  2  0  0  0  0  0  0
  184.8000  178.5660  142.8690 C   0  0  1  0  0  3  0  0  0  0  0  0
  183.1690  179.4150  144.3980 N   0  0  0  0  0  2  0  0  0  0  0  0
  182.1430  178.5900  143.2080 S   0  0  0  0  0  0  0  0  0  0  0  0
  188.2800  178.6930  141.1280 C   0  0  0  0  0  2  0  0  0  0  0  0
  187.9300  178.1280  139.7620 C   0  0  0  0  0  2  0  0  0  0  0  0
  189.1700  178.0520  138.8910 C   0  0  0  0  0  2  0  0  0  0  0  0
  189.4340  176.6710  138.5220 N   0  0  0  0  0  2  0  0  0  0  0  0
  191.8140  176.8880  139.0380 O   0  0  0  0  0  1  0  0  0  0  0  0
  190.7450  176.1150  138.6010 C   0  0  0  0  0  0  0  0  0  0  0  0
  190.9350  174.9160  138.2740 O   0  0  0  0  0  0  0  0  0  0  0  0
  1 10  1  0  0  0  0
  2  6  1  0  0  0  0
  4 18  1  6  0  0  0
  4 11  1  0  0  0  0
  4  1  1  0  0  0  0
  5  3  1  0  0  0  0
  6  9  2  0  0  0  0
  7  2  1  0  0  0  0
  8  3  1  1  0  0  0
  8 15  1  0  0  0  0
 10 15  1  0  0  0  0
 10  2  2  0  0  0  0
 11 13  1  6  0  0  0
 11  8  1  0  0  0  0
 12  5  1  0  0  0  0
 13 12  2  0  0  0  0
 14  9  1  0  0  0  0
 15 14  2  0  0  0  0
 16 17  2  0  0  0  0
 17 18  1  0  0  0  0
 19 22  1  0  0  0  0
 20 21  1  0  0  0  0
 20 23  1  0  0  0  0
 21 17  1  6  0  0  0
 21 19  1  0  0  0  0
 23 22  1  0  0  0  0
 24 18  1  0  0  0  0
 25 24  1  0  0  0  0
 26 25  1  0  0  0  0
 27 29  1  0  0  0  0
 27 26  1  0  0  0  0
 29 28  1  0  0  0  0
 30 29  2  0  0  0  0
M  END
>  <MODEL>
1

>  <REMARK>
 VINA RESULT:      -9.4      0.000      0.000
  Name = 
  6 active torsions:
  status: ('A' for Active; 'I' for Inactive)
    1  A    between atoms: C_4  and  N_13
    2  A    between atoms: N_7  and  C_16
    3  A    between atoms: C_8  and  C_12
    4  A    between atoms: N_13  and  C_27
    5  A    between atoms: C_16  and  C_30
    6  A    between atoms: C_27  and  C_30
                            x       y       z     vdW  Elec       q    Type
                         _______ _______ _______ _____ _____    ______ ____

>  <TORSDO>
F 6

$$$$
=
 OpenBabel10272413553D

 30 33  0  0  1  0  0  0  0  0999 V2000
  186.9450  178.0720  144.4400 N   0  0  0  0  0  2  0  0  0  0  0  0
  186.8510  178.3960  146.8810 C   0  0  0  0  0  0  0  0  0  0  0  0
  190.9110  176.6660  144.8090 N   0  0  0  0  0  2  0  0  0  0  0  0
  187.5950  177.5740  143.2270 C   0  0  2  0  0  3  0  0  0  0  0  0
  191.4400  175.8080  143.7440 C   0  0  0  0  0  2  0  0  0  0  0  0
  187.4230  178.2400  148.1480 C   0  0  0  0  0  3  0  0  0  0  0  0
  185.5340  179.0830  146.7640 C   0  0  0  0  0  1  0  0  0  0  0  0
  189.4550  176.7080  144.6710 C   0  0  2  0  0  3  0  0  0  0  0  0
  188.6560  177.6000  148.2900 C   0  0  0  0  0  3  0  0  0  0  0  0
  187.5180  177.9060  145.7470 C   0  0  0  0  0  0  0  0  0  0  0  0
  189.1140  177.5210  143.4200 C   0  0  1  0  0  3  0  0  0  0  0  0
  190.9490  176.2250  142.3740 C   0  0  0  0  0  3  0  0  0  0  0  0
  189.8410  176.9690  142.2240 C   0  0  0  0  0  3  0  0  0  0  0  0
  189.3280  177.1180  147.1640 C   0  0  0  0  0  3  0  0  0  0  0  0
  188.7790  177.2880  145.8860 C   0  0  0  0  0  0  0  0  0  0  0  0
  185.6440  179.6930  140.9250 O   0  0  0  0  0  0  0  0  0  0  0  0
  185.8870  178.9160  141.8890 C   0  0  0  0  0  0  0  0  0  0  0  0
  187.2240  178.4070  142.0820 N   0  0  0  0  0  0  0  0  0  0  0  0
  184.3920  179.6540  143.7360 C   0  0  0  0  0  2  0  0  0  0  0  0
  183.5290  178.1570  142.0510 C   0  0  0  0  0  2  0  0  0  0  0  0
  184.7740  178.5250  142.8150 C   0  0  1  0  0  3  0  0  0  0  0  0
  183.1270  179.3090  144.3610 N   0  0  0  0  0  2  0  0  0  0  0  0
  182.1140  178.5380  143.1250 S   0  0  0  0  0  0  0  0  0  0  0  0
  188.2860  178.7590  141.1500 C   0  0  0  0  0  2  0  0  0  0  0  0
  188.0570  178.0790  139.8110 C   0  0  0  0  0  2  0  0  0  0  0  0
  189.1710  178.4340  138.8440 C   0  0  0  0  0  2  0  0  0  0  0  0
  188.9390  177.7900  137.5610 N   0  0  0  0  0  2  0  0  0  0  0  0
  187.4650  179.5940  136.8160 O   0  0  0  0  0  1  0  0  0  0  0  0
  188.0940  178.3780  136.5750 C   0  0  0  0  0  0  0  0  0  0  0  0
  187.9160  177.7920  135.4760 O   0  0  0  0  0  0  0  0  0  0  0  0
  1 10  1  0  0  0  0
  2  6  1  0  0  0  0
  4 18  1  6  0  0  0
  4 11  1  0  0  0  0
  4  1  1  0  0  0  0
  5  3  1  0  0  0  0
  6  9  2  0  0  0  0
  7  2  1  0  0  0  0
  8  3  1  1  0  0  0
  8 15  1  0  0  0  0
 10 15  1  0  0  0  0
 10  2  2  0  0  0  0
 11 13  1  6  0  0  0
 11  8  1  0  0  0  0
 12  5  1  0  0  0  0
 13 12  2  0  0  0  0
 14  9  1  0  0  0  0
 15 14  2  0  0  0  0
 16 17  2  0  0  0  0
 17 18  1  0  0  0  0
 19 22  1  0  0  0  0
 20 21  1  0  0  0  0
 20 23  1  0  0  0  0
 21 17  1  6  0  0  0
 21 19  1  0  0  0  0
 23 22  1  0  0  0  0
 24 18  1  0  0  0  0
 25 24  1  0  0  0  0
 26 25  1  0  0  0  0
 27 26  1  0  0  0  0
 29 28  1  0  0  0  0
 29 27  1  0  0  0  0
 30 29  2  0  0  0  0
M  END
>  <MODEL>
2

>  <REMARK>
 VINA RESULT:      -9.1      1.466      1.584
  Name = 
  6 active torsions:
  status: ('A' for Active; 'I' for Inactive)
    1  A    between atoms: C_4  and  N_13
    2  A    between atoms: N_7  and  C_16
    3  A    between atoms: C_8  and  C_12
    4  A    between atoms: N_13  and  C_27
    5  A    between atoms: C_16  and  C_30
    6  A    between atoms: C_27  and  C_30
                            x       y       z     vdW  Elec       q    Type
                         _______ _______ _______ _____ _____    ______ ____

>  <TORSDO>
F 6

$$$$
=
 OpenBabel10272413553D

 30 33  0  0  1  0  0  0  0  0999 V2000
  187.2570  177.6970  143.4400 N   0  0  0  0  0  2  0  0  0  0  0  0
  184.8860  178.3070  143.1560 C   0  0  0  0  0  0  0  0  0  0  0  0
  186.9660  178.6060  147.5550 N   0  0  0  0  0  2  0  0  0  0  0  0
  188.4290  177.4190  144.2720 C   0  0  2  0  0  3  0  0  0  0  0  0
  187.9310  177.9850  148.4680 C   0  0  0  0  0  2  0  0  0  0  0  0
  183.6530  178.6690  143.7070 C   0  0  0  0  0  3  0  0  0  0  0  0
  185.0100  178.1920  141.6750 C   0  0  0  0  0  1  0  0  0  0  0  0
  187.0080  177.8720  146.2910 C   0  0  2  0  0  3  0  0  0  0  0  0
  183.5070  178.7840  145.0910 C   0  0  0  0  0  3  0  0  0  0  0  0
  185.9830  178.0580  143.9970 C   0  0  0  0  0  0  0  0  0  0  0  0
  188.3350  178.1840  145.5960 C   0  0  1  0  0  3  0  0  0  0  0  0
  189.3100  177.8690  147.8530 C   0  0  0  0  0  3  0  0  0  0  0  0
  189.4880  177.9040  146.5230 C   0  0  0  0  0  3  0  0  0  0  0  0
  184.5960  178.5460  145.9320 C   0  0  0  0  0  3  0  0  0  0  0  0
  185.8440  178.2050  145.3930 C   0  0  0  0  0  0  0  0  0  0  0  0
  191.9150  177.3640  143.0720 O   0  0  0  0  0  0  0  0  0  0  0  0
  190.9110  177.0910  143.7870 C   0  0  0  0  0  0  0  0  0  0  0  0
  189.6520  177.7510  143.5410 N   0  0  0  0  0  0  0  0  0  0  0  0
  191.9820  174.9660  144.5140 C   0  0  0  0  0  2  0  0  0  0  0  0
  191.6230  176.7160  146.1360 C   0  0  0  0  0  2  0  0  0  0  0  0
  191.0500  176.0880  144.8930 C   0  0  1  0  0  3  0  0  0  0  0  0
  192.3040  174.2290  145.7240 N   0  0  0  0  0  2  0  0  0  0  0  0
  192.5190  175.4120  147.0280 S   0  0  0  0  0  0  0  0  0  0  0  0
  189.5410  178.7570  142.4930 C   0  0  0  0  0  2  0  0  0  0  0  0
  189.8780  178.1470  141.1420 C   0  0  0  0  0  2  0  0  0  0  0  0
  188.6060  177.8020  140.3900 C   0  0  0  0  0  2  0  0  0  0  0  0
  188.3600  178.7890  139.3510 N   0  0  0  0  0  2  0  0  0  0  0  0
  189.8190  177.6270  137.7700 O   0  0  0  0  0  1  0  0  0  0  0  0
  188.9680  178.6850  138.0660 C   0  0  0  0  0  0  0  0  0  0  0  0
  188.7310  179.5580  137.1920 O   0  0  0  0  0  0  0  0  0  0  0  0
  1 10  1  0  0  0  0
  1  4  1  0  0  0  0
  2  6  2  0  0  0  0
  2 10  1  0  0  0  0
  3  5  1  0  0  0  0
  4 18  1  6  0  0  0
  4 11  1  0  0  0  0
  6  9  1  0  0  0  0
  7  2  1  0  0  0  0
  8 15  1  6  0  0  0
  8  3  1  0  0  0  0
  9 14  2  0  0  0  0
 10 15  2  0  0  0  0
 11  8  1  0  0  0  0
 11 13  1  1  0  0  0
 12  5  1  0  0  0  0
 13 12  2  0  0  0  0
 15 14  1  0  0  0  0
 16 17  2  0  0  0  0
 18 17  1  0  0  0  0
 19 21  1  0  0  0  0
 19 22  1  0  0  0  0
 20 23  1  0  0  0  0
 21 17  1  6  0  0  0
 21 20  1  0  0  0  0
 22 23  1  0  0  0  0
 24 18  1  0  0  0  0
 25 24  1  0  0  0  0
 26 25  1  0  0  0  0
 27 26  1  0  0  0  0
 28 29  1  0  0  0  0
 29 27  1  0  0  0  0
 30 29  2  0  0  0  0
M  END
>  <MODEL>
3

>  <REMARK>
 VINA RESULT:      -8.2      2.849      5.502
  Name = 
  6 active torsions:
  status: ('A' for Active; 'I' for Inactive)
    1  A    between atoms: C_4  and  N_13
    2  A    between atoms: N_7  and  C_16
    3  A    between atoms: C_8  and  C_12
    4  A    between atoms: N_13  and  C_27
    5  A    between atoms: C_16  and  C_30
    6  A    between atoms: C_27  and  C_30
                            x       y       z     vdW  Elec       q    Type
                         _______ _______ _______ _____ _____    ______ ____

>  <TORSDO>
F 6

$$$$
=
 OpenBabel10272413553D

 30 33  0  0  1  0  0  0  0  0999 V2000
  187.4120  178.2800  142.7410 N   0  0  0  0  0  2  0  0  0  0  0  0
  186.3190  178.1840  144.9480 C   0  0  0  0  0  0  0  0  0  0  0  0
  183.6330  178.8100  140.9280 N   0  0  0  0  0  2  0  0  0  0  0  0
  187.3890  178.5240  141.2980 C   0  0  2  0  0  3  0  0  0  0  0  0
  183.5860  179.4440  139.6060 C   0  0  0  0  0  2  0  0  0  0  0  0
  185.1750  178.3120  145.7410 C   0  0  0  0  0  3  0  0  0  0  0  0
  187.6050  177.7930  145.5930 C   0  0  0  0  0  1  0  0  0  0  0  0
  184.9500  179.0770  141.5060 C   0  0  2  0  0  3  0  0  0  0  0  0
  183.9570  178.6770  145.1650 C   0  0  0  0  0  3  0  0  0  0  0  0
  186.2440  178.4220  143.5660 C   0  0  0  0  0  0  0  0  0  0  0  0
  185.9890  178.2600  140.7350 C   0  0  1  0  0  3  0  0  0  0  0  0
  184.7520  179.0340  138.7320 C   0  0  0  0  0  3  0  0  0  0  0  0
  185.8840  178.5410  139.2600 C   0  0  0  0  0  3  0  0  0  0  0  0
  183.8740  178.9070  143.7900 C   0  0  0  0  0  3  0  0  0  0  0  0
  185.0070  178.7590  142.9780 C   0  0  0  0  0  0  0  0  0  0  0  0
  190.3090  176.3430  140.7360 O   0  0  0  0  0  0  0  0  0  0  0  0
  189.5080  177.1050  141.3450 C   0  0  0  0  0  0  0  0  0  0  0  0
  188.4030  177.7030  140.6350 N   0  0  0  0  0  0  0  0  0  0  0  0
  190.2680  176.1810  143.5270 C   0  0  0  0  0  2  0  0  0  0  0  0
  190.7340  178.4900  143.0030 C   0  0  0  0  0  2  0  0  0  0  0  0
  189.7280  177.3860  142.8020 C   0  0  1  0  0  3  0  0  0  0  0  0
  190.7440  176.6210  144.8270 N   0  0  0  0  0  2  0  0  0  0  0  0
  191.5450  178.1880  144.5990 S   0  0  0  0  0  0  0  0  0  0  0  0
  188.2260  177.4590  139.2110 C   0  0  0  0  0  2  0  0  0  0  0  0
  189.1830  178.3220  138.4060 C   0  0  0  0  0  2  0  0  0  0  0  0
  189.5980  177.6040  137.1360 C   0  0  0  0  0  2  0  0  0  0  0  0
  189.7680  176.1850  137.4000 N   0  0  0  0  0  2  0  0  0  0  0  0
  192.2020  176.4020  137.5090 O   0  0  0  0  0  0  0  0  0  0  0  0
  191.0610  175.6110  137.5810 C   0  0  0  0  0  0  0  0  0  0  0  0
  191.1700  174.3790  137.8090 O   0  0  0  0  0  1  0  0  0  0  0  0
  1 10  1  0  0  0  0
  2  7  1  0  0  0  0
  2  6  1  0  0  0  0
  4 18  1  6  0  0  0
  4  1  1  0  0  0  0
  5  3  1  0  0  0  0
  8  3  1  6  0  0  0
  8 15  1  0  0  0  0
  9  6  2  0  0  0  0
 10  2  2  0  0  0  0
 11 13  1  6  0  0  0
 11  4  1  0  0  0  0
 11  8  1  0  0  0  0
 12 13  2  0  0  0  0
 12  5  1  0  0  0  0
 14  9  1  0  0  0  0
 15 10  1  0  0  0  0
 15 14  2  0  0  0  0
 16 17  2  0  0  0  0
 18 17  1  0  0  0  0
 19 22  1  0  0  0  0
 20 23  1  0  0  0  0
 21 17  1  6  0  0  0
 21 20  1  0  0  0  0
 21 19  1  0  0  0  0
 23 22  1  0  0  0  0
 24 18  1  0  0  0  0
 25 24  1  0  0  0  0
 26 27  1  0  0  0  0
 26 25  1  0  0  0  0
 27 29  1  0  0  0  0
 28 29  2  0  0  0  0
 29 30  1  0  0  0  0
M  END
>  <MODEL>
4

>  <REMARK>
 VINA RESULT:      -8.2      2.519      5.160
  Name = 
  6 active torsions:
  status: ('A' for Active; 'I' for Inactive)
    1  A    between atoms: C_4  and  N_13
    2  A    between atoms: N_7  and  C_16
    3  A    between atoms: C_8  and  C_12
    4  A    between atoms: N_13  and  C_27
    5  A    between atoms: C_16  and  C_30
    6  A    between atoms: C_27  and  C_30
                            x       y       z     vdW  Elec       q    Type
                         _______ _______ _______ _____ _____    ______ ____

>  <TORSDO>
F 6

$$$$
=
 OpenBabel10272413553D

 30 33  0  0  1  0  0  0  0  0999 V2000
  187.8240  177.3880  142.6920 N   0  0  0  0  0  2  0  0  0  0  0  0
  188.1130  177.2310  145.1350 C   0  0  0  0  0  0  0  0  0  0  0  0
  192.0230  177.4580  142.2310 N   0  0  0  0  0  2  0  0  0  0  0  0
  188.3490  177.3730  141.3250 C   0  0  2  0  0  3  0  0  0  0  0  0
  192.5810  177.0430  140.9400 C   0  0  0  0  0  2  0  0  0  0  0  0
  188.9420  177.0760  146.2500 C   0  0  0  0  0  3  0  0  0  0  0  0
  186.6490  177.4100  145.3430 C   0  0  0  0  0  1  0  0  0  0  0  0
  190.6350  176.9980  142.2880 C   0  0  2  0  0  3  0  0  0  0  0  0
  190.3190  176.9060  146.0860 C   0  0  0  0  0  3  0  0  0  0  0  0
  188.6660  177.2170  143.8440 C   0  0  0  0  0  0  0  0  0  0  0  0
  189.8090  177.8350  141.3110 C   0  0  1  0  0  3  0  0  0  0  0  0
  191.7220  177.4860  139.7740 C   0  0  0  0  0  3  0  0  0  0  0  0
  190.4260  177.7960  139.9380 C   0  0  0  0  0  3  0  0  0  0  0  0
  190.8750  176.8990  144.8050 C   0  0  0  0  0  3  0  0  0  0  0  0
  190.0600  177.0770  143.6790 C   0  0  0  0  0  0  0  0  0  0  0  0
  186.5730  178.6560  138.3590 O   0  0  0  0  0  0  0  0  0  0  0  0
  187.3710  177.9570  139.0430 C   0  0  0  0  0  0  0  0  0  0  0  0
  187.5090  178.2010  140.4590 N   0  0  0  0  0  0  0  0  0  0  0  0
  187.2910  175.8270  137.7580 C   0  0  0  0  0  2  0  0  0  0  0  0
  189.0000  177.4500  137.2390 C   0  0  0  0  0  2  0  0  0  0  0  0
  188.1740  176.8870  138.3660 C   0  0  1  0  0  3  0  0  0  0  0  0
  188.1110  175.0230  136.8690 N   0  0  0  0  0  2  0  0  0  0  0  0
  189.2130  176.1230  136.0180 S   0  0  0  0  0  0  0  0  0  0  0  0
  186.7570  179.2720  141.0970 C   0  0  0  0  0  2  0  0  0  0  0  0
  185.3070  178.8590  141.2800 C   0  0  0  0  0  2  0  0  0  0  0  0
  184.8490  179.1620  142.6950 C   0  0  0  0  0  2  0  0  0  0  0  0
  183.4330  178.8620  142.8330 N   0  0  0  0  0  2  0  0  0  0  0  0
  183.5000  179.2070  145.2530 O   0  0  0  0  0  1  0  0  0  0  0  0
  182.7860  178.8890  144.1030 C   0  0  0  0  0  0  0  0  0  0  0  0
  181.5590  178.6240  144.1850 O   0  0  0  0  0  0  0  0  0  0  0  0
  1 10  1  0  0  0  0
  2  7  1  0  0  0  0
  2  6  1  0  0  0  0
  4 18  1  6  0  0  0
  4  1  1  0  0  0  0
  5  3  1  0  0  0  0
  8  3  1  1  0  0  0
  8 15  1  0  0  0  0
  9  6  2  0  0  0  0
 10  2  2  0  0  0  0
 11 13  1  6  0  0  0
 11  4  1  0  0  0  0
 11  8  1  0  0  0  0
 12 13  2  0  0  0  0
 12  5  1  0  0  0  0
 14  9  1  0  0  0  0
 15 10  1  0  0  0  0
 15 14  2  0  0  0  0
 16 17  2  0  0  0  0
 17 18  1  0  0  0  0
 18 24  1  0  0  0  0
 19 21  1  0  0  0  0
 20 21  1  0  0  0  0
 21 17  1  6  0  0  0
 22 19  1  0  0  0  0
 23 22  1  0  0  0  0
 23 20  1  0  0  0  0
 24 25  1  0  0  0  0
 25 26  1  0  0  0  0
 26 27  1  0  0  0  0
 27 29  1  0  0  0  0
 29 30  2  0  0  0  0
 29 28  1  0  0  0  0
M  END
>  <MODEL>
5

>  <REMARK>
 VINA RESULT:      -8.1      2.895      5.593
  Name = 
  6 active torsions:
  status: ('A' for Active; 'I' for Inactive)
    1  A    between atoms: C_4  and  N_13
    2  A    between atoms: N_7  and  C_16
    3  A    between atoms: C_8  and  C_12
    4  A    between atoms: N_13  and  C_27
    5  A    between atoms: C_16  and  C_30
    6  A    between atoms: C_27  and  C_30
                            x       y       z     vdW  Elec       q    Type
                         _______ _______ _______ _____ _____    ______ ____

>  <TORSDO>
F 6

$$$$
=
 OpenBabel10272413553D

 30 33  0  0  1  0  0  0  0  0999 V2000
  187.2990  177.6990  142.3110 N   0  0  0  0  0  2  0  0  0  0  0  0
  185.1240  178.6580  141.6590 C   0  0  0  0  0  0  0  0  0  0  0  0
  186.3430  178.3690  146.3700 N   0  0  0  0  0  2  0  0  0  0  0  0
  188.2450  177.2040  143.3120 C   0  0  2  0  0  3  0  0  0  0  0  0
  187.0280  177.5590  147.3830 C   0  0  0  0  0  2  0  0  0  0  0  0
  183.8660  179.1560  142.0080 C   0  0  0  0  0  3  0  0  0  0  0  0
  185.5140  178.6240  140.2210 C   0  0  0  0  0  1  0  0  0  0  0  0
  186.5330  177.7210  145.0730 C   0  0  2  0  0  3  0  0  0  0  0  0
  183.4720  179.2000  143.3470 C   0  0  0  0  0  3  0  0  0  0  0  0
  185.9990  178.2010  142.6580 C   0  0  0  0  0  0  0  0  0  0  0  0
  187.9970  177.8860  144.6620 C   0  0  1  0  0  3  0  0  0  0  0  0
  188.4730  177.2880  147.0190 C   0  0  0  0  0  3  0  0  0  0  0  0
  188.9060  177.3840  145.7520 C   0  0  0  0  0  3  0  0  0  0  0  0
  184.3400  178.7540  144.3460 C   0  0  0  0  0  3  0  0  0  0  0  0
  185.6150  178.2750  144.0140 C   0  0  0  0  0  0  0  0  0  0  0  0
  191.1370  177.8910  141.1320 O   0  0  0  0  0  0  0  0  0  0  0  0
  189.9440  177.6490  141.4630 C   0  0  0  0  0  0  0  0  0  0  0  0
  189.6170  177.4040  142.8470 N   0  0  0  0  0  0  0  0  0  0  0  0
  188.9770  178.7890  139.4740 C   0  0  0  0  0  2  0  0  0  0  0  0
  189.0130  176.3770  139.5450 C   0  0  0  0  0  2  0  0  0  0  0  0
  188.8830  177.6070  140.4040 C   0  0  1  0  0  3  0  0  0  0  0  0
  188.1420  178.5120  138.3190 N   0  0  0  0  0  2  0  0  0  0  0  0
  188.3520  176.7990  137.9070 S   0  0  0  0  0  0  0  0  0  0  0  0
  190.6640  177.4030  143.8610 C   0  0  0  0  0  2  0  0  0  0  0  0
  191.5830  176.2090  143.6650 C   0  0  0  0  0  2  0  0  0  0  0  0
  191.9820  175.6280  145.0090 C   0  0  0  0  0  2  0  0  0  0  0  0
  191.9820  176.6710  146.0210 N   0  0  0  0  0  2  0  0  0  0  0  0
  191.9820  175.0360  147.8400 O   0  0  0  0  0  0  0  0  0  0  0  0
  191.9810  176.3590  147.4120 C   0  0  0  0  0  0  0  0  0  0  0  0
  191.9820  177.2880  148.2600 O   0  0  0  0  0  1  0  0  0  0  0  0
  1 10  1  0  0  0  0
  1  4  1  0  0  0  0
  2  6  2  0  0  0  0
  2 10  1  0  0  0  0
  3  5  1  0  0  0  0
  4 18  1  6  0  0  0
  4 11  1  0  0  0  0
  6  9  1  0  0  0  0
  7  2  1  0  0  0  0
  8 15  1  6  0  0  0
  8  3  1  0  0  0  0
  9 14  2  0  0  0  0
 10 15  2  0  0  0  0
 11  8  1  0  0  0  0
 11 13  1  1  0  0  0
 12  5  1  0  0  0  0
 13 12  2  0  0  0  0
 15 14  1  0  0  0  0
 16 17  2  0  0  0  0
 17 18  1  0  0  0  0
 18 24  1  0  0  0  0
 19 21  1  0  0  0  0
 20 21  1  0  0  0  0
 21 17  1  1  0  0  0
 22 19  1  0  0  0  0
 23 22  1  0  0  0  0
 23 20  1  0  0  0  0
 25 24  1  0  0  0  0
 25 26  1  0  0  0  0
 26 27  1  0  0  0  0
 27 29  1  0  0  0  0
 29 28  2  0  0  0  0
 29 30  1  0  0  0  0
M  END
>  <MODEL>
6

>  <REMARK>
 VINA RESULT:      -8.1      3.138      6.018
  Name = 
  6 active torsions:
  status: ('A' for Active; 'I' for Inactive)
    1  A    between atoms: C_4  and  N_13
    2  A    between atoms: N_7  and  C_16
    3  A    between atoms: C_8  and  C_12
    4  A    between atoms: N_13  and  C_27
    5  A    between atoms: C_16  and  C_30
    6  A    between atoms: C_27  and  C_30
                            x       y       z     vdW  Elec       q    Type
                         _______ _______ _______ _____ _____    ______ ____

>  <TORSDO>
F 6

$$$$
=
 OpenBabel10272413553D

 30 33  0  0  1  0  0  0  0  0999 V2000
  185.1310  178.9710  138.6360 N   0  0  0  0  0  2  0  0  0  0  0  0
  187.4520  178.3350  138.1010 C   0  0  0  0  0  0  0  0  0  0  0  0
  185.8340  178.0050  142.6880 N   0  0  0  0  0  2  0  0  0  0  0  0
  184.0560  179.2520  139.5880 C   0  0  2  0  0  3  0  0  0  0  0  0
  184.9760  178.6260  143.7030 C   0  0  0  0  0  2  0  0  0  0  0  0
  188.7300  177.9510  138.5170 C   0  0  0  0  0  3  0  0  0  0  0  0
  187.1770  178.4710  136.6430 C   0  0  0  0  0  1  0  0  0  0  0  0
  185.6710  178.7560  141.4430 C   0  0  2  0  0  3  0  0  0  0  0  0
  189.0170  177.8150  139.8770 C   0  0  0  0  0  3  0  0  0  0  0  0
  186.4510  178.5870  139.0540 C   0  0  0  0  0  0  0  0  0  0  0  0
  184.2750  178.4690  140.8870 C   0  0  1  0  0  3  0  0  0  0  0  0
  183.5430  178.7670  143.2350 C   0  0  0  0  0  3  0  0  0  0  0  0
  183.2280  178.7520  141.9300 C   0  0  0  0  0  3  0  0  0  0  0  0
  188.0240  178.0560  140.8290 C   0  0  0  0  0  3  0  0  0  0  0  0
  186.7320  178.4200  140.4270 C   0  0  0  0  0  0  0  0  0  0  0  0
  181.3390  177.4700  137.8460 O   0  0  0  0  0  0  0  0  0  0  0  0
  182.4980  177.7130  138.2810 C   0  0  0  0  0  0  0  0  0  0  0  0
  182.7590  178.9460  138.9830 N   0  0  0  0  0  0  0  0  0  0  0  0
  183.1730  175.3230  138.4450 C   0  0  0  0  0  2  0  0  0  0  0  0
  183.9720  176.6460  136.5910 C   0  0  0  0  0  2  0  0  0  0  0  0
  183.5930  176.7150  138.0480 C   0  0  1  0  0  3  0  0  0  0  0  0
  184.1470  174.3930  137.9010 N   0  0  0  0  0  2  0  0  0  0  0  0
  184.5820  174.9640  136.2780 S   0  0  0  0  0  0  0  0  0  0  0  0
  181.6980  179.9280  139.1650 C   0  0  0  0  0  2  0  0  0  0  0  0
  181.5730  180.8000  137.9270 C   0  0  0  0  0  2  0  0  0  0  0  0
  181.1530  182.2060  138.3160 C   0  0  0  0  0  2  0  0  0  0  0  0
  180.7850  182.9600  137.1290 N   0  0  0  0  0  2  0  0  0  0  0  0
  182.3890  184.7330  137.6420 O   0  0  0  0  0  1  0  0  0  0  0  0
  181.4050  184.2050  136.8140 C   0  0  0  0  0  0  0  0  0  0  0  0
  181.0610  184.8290  135.7780 O   0  0  0  0  0  0  0  0  0  0  0  0
  1 10  1  0  0  0  0
  1  4  1  0  0  0  0
  2  6  2  0  0  0  0
  2 10  1  0  0  0  0
  3  5  1  0  0  0  0
  4 18  1  6  0  0  0
  4 11  1  0  0  0  0
  6  9  1  0  0  0  0
  7  2  1  0  0  0  0
  8 15  1  6  0  0  0
  8  3  1  0  0  0  0
  9 14  2  0  0  0  0
 10 15  2  0  0  0  0
 11  8  1  0  0  0  0
 11 13  1  1  0  0  0
 12  5  1  0  0  0  0
 13 12  2  0  0  0  0
 15 14  1  0  0  0  0
 16 17  2  0  0  0  0
 17 18  1  0  0  0  0
 18 24  1  0  0  0  0
 20 21  1  0  0  0  0
 21 17  1  6  0  0  0
 21 19  1  0  0  0  0
 22 19  1  0  0  0  0
 23 20  1  0  0  0  0
 23 22  1  0  0  0  0
 25 26  1  0  0  0  0
 25 24  1  0  0  0  0
 27 26  1  0  0  0  0
 29 27  1  0  0  0  0
 29 28  1  0  0  0  0
 30 29  2  0  0  0  0
M  END
>  <MODEL>
7

>  <REMARK>
 VINA RESULT:      -7.9      4.626      8.032
  Name = 
  6 active torsions:
  status: ('A' for Active; 'I' for Inactive)
    1  A    between atoms: C_4  and  N_13
    2  A    between atoms: N_7  and  C_16
    3  A    between atoms: C_8  and  C_12
    4  A    between atoms: N_13  and  C_27
    5  A    between atoms: C_16  and  C_30
    6  A    between atoms: C_27  and  C_30
                            x       y       z     vdW  Elec       q    Type
                         _______ _______ _______ _____ _____    ______ ____

>  <TORSDO>
F 6

$$$$
=
 OpenBabel10272413553D

 30 33  0  0  1  0  0  0  0  0999 V2000
  184.7010  178.5090  138.8060 N   0  0  0  0  0  2  0  0  0  0  0  0
  187.1300  178.1680  138.5570 C   0  0  0  0  0  0  0  0  0  0  0  0
  185.1730  178.5890  143.0030 N   0  0  0  0  0  2  0  0  0  0  0  0
  183.5140  178.8090  139.6080 C   0  0  2  0  0  3  0  0  0  0  0  0
  184.1440  179.2660  143.7990 C   0  0  0  0  0  2  0  0  0  0  0  0
  188.4080  178.1040  139.1190 C   0  0  0  0  0  3  0  0  0  0  0  0
  186.9710  177.9320  137.0950 C   0  0  0  0  0  1  0  0  0  0  0  0
  185.0120  179.0100  141.6110 C   0  0  2  0  0  3  0  0  0  0  0  0
  188.5890  178.3210  140.4860 C   0  0  0  0  0  3  0  0  0  0  0  0
  186.0210  178.4530  139.3710 C   0  0  0  0  0  0  0  0  0  0  0  0
  183.7320  178.3780  141.0620 C   0  0  1  0  0  3  0  0  0  0  0  0
  182.7540  179.0590  143.2350 C   0  0  0  0  0  3  0  0  0  0  0  0
  182.5640  178.7050  141.9540 C   0  0  0  0  0  3  0  0  0  0  0  0
  187.4890  178.5960  141.3020 C   0  0  0  0  0  3  0  0  0  0  0  0
  186.1980  178.6410  140.7580 C   0  0  0  0  0  0  0  0  0  0  0  0
  180.3820  178.2740  137.7370 O   0  0  0  0  0  0  0  0  0  0  0  0
  181.3350  178.8940  138.2850 C   0  0  0  0  0  0  0  0  0  0  0  0
  182.3380  178.1640  139.0220 N   0  0  0  0  0  0  0  0  0  0  0  0
  180.9520  180.8630  136.8130 C   0  0  0  0  0  2  0  0  0  0  0  0
  180.4970  181.0550  139.1750 C   0  0  0  0  0  2  0  0  0  0  0  0
  181.4000  180.3880  138.1710 C   0  0  1  0  0  3  0  0  0  0  0  0
  180.7430  182.2980  136.8920 N   0  0  0  0  0  2  0  0  0  0  0  0
  179.9820  182.6420  138.4570 S   0  0  0  0  0  0  0  0  0  0  0  0
  182.2400  176.7180  139.1640 C   0  0  0  0  0  2  0  0  0  0  0  0
  182.5390  176.0380  137.8390 C   0  0  0  0  0  2  0  0  0  0  0  0
  183.7380  175.1190  137.9780 C   0  0  0  0  0  2  0  0  0  0  0  0
  183.4650  173.8450  137.3350 N   0  0  0  0  0  2  0  0  0  0  0  0
  185.5870  172.8970  138.0970 O   0  0  0  0  0  1  0  0  0  0  0  0
  184.3890  172.7610  137.4040 C   0  0  0  0  0  0  0  0  0  0  0  0
  184.1190  171.6730  136.8350 O   0  0  0  0  0  0  0  0  0  0  0  0
  1 10  1  0  0  0  0
  1  4  1  0  0  0  0
  2  6  2  0  0  0  0
  2 10  1  0  0  0  0
  3  5  1  0  0  0  0
  4 18  1  6  0  0  0
  4 11  1  0  0  0  0
  6  9  1  0  0  0  0
  7  2  1  0  0  0  0
  8 15  1  6  0  0  0
  8  3  1  0  0  0  0
  9 14  2  0  0  0  0
 10 15  2  0  0  0  0
 11  8  1  0  0  0  0
 11 13  1  1  0  0  0
 12  5  1  0  0  0  0
 13 12  2  0  0  0  0
 15 14  1  0  0  0  0
 16 17  2  0  0  0  0
 17 18  1  0  0  0  0
 18 24  1  0  0  0  0
 19 22  1  0  0  0  0
 19 21  1  0  0  0  0
 21 17  1  6  0  0  0
 21 20  1  0  0  0  0
 22 23  1  0  0  0  0
 23 20  1  0  0  0  0
 25 26  1  0  0  0  0
 25 24  1  0  0  0  0
 27 29  1  0  0  0  0
 27 26  1  0  0  0  0
 29 28  1  0  0  0  0
 30 29  2  0  0  0  0
M  END
>  <MODEL>
8

>  <REMARK>
 VINA RESULT:      -7.8      4.471      7.036
  Name = 
  6 active torsions:
  status: ('A' for Active; 'I' for Inactive)
    1  A    between atoms: C_4  and  N_13
    2  A    between atoms: N_7  and  C_16
    3  A    between atoms: C_8  and  C_12
    4  A    between atoms: N_13  and  C_27
    5  A    between atoms: C_16  and  C_30
    6  A    between atoms: C_27  and  C_30
                            x       y       z     vdW  Elec       q    Type
                         _______ _______ _______ _____ _____    ______ ____

>  <TORSDO>
F 6

$$$$
=
 OpenBabel10272413553D

 30 33  0  0  1  0  0  0  0  0999 V2000
  188.6800  176.9950  139.7550 N   0  0  0  0  0  2  0  0  0  0  0  0
  189.0070  177.8550  142.0410 C   0  0  0  0  0  0  0  0  0  0  0  0
  192.8620  177.0570  139.1650 N   0  0  0  0  0  2  0  0  0  0  0  0
  189.1870  176.4500  138.4940 C   0  0  2  0  0  3  0  0  0  0  0  0
  193.4260  176.1790  138.1340 C   0  0  0  0  0  2  0  0  0  0  0  0
  189.8570  178.2020  143.0950 C   0  0  0  0  0  3  0  0  0  0  0  0
  187.5380  178.0380  142.2080 C   0  0  0  0  0  1  0  0  0  0  0  0
  191.5020  176.5990  139.4500 C   0  0  2  0  0  3  0  0  0  0  0  0
  191.2390  178.0420  142.9680 C   0  0  0  0  0  3  0  0  0  0  0  0
  189.5440  177.3430  140.8490 C   0  0  0  0  0  0  0  0  0  0  0  0
  190.6200  176.9310  138.2450 C   0  0  1  0  0  3  0  0  0  0  0  0
  192.5290  176.0730  136.9180 C   0  0  0  0  0  3  0  0  0  0  0  0
  191.2210  176.3660  136.9860 C   0  0  0  0  0  3  0  0  0  0  0  0
  191.7790  177.5400  141.7820 C   0  0  0  0  0  3  0  0  0  0  0  0
  190.9410  177.2100  140.7080 C   0  0  0  0  0  0  0  0  0  0  0  0
  186.8970  176.2110  135.6140 O   0  0  0  0  0  0  0  0  0  0  0  0
  187.7220  175.8440  136.4960 C   0  0  0  0  0  0  0  0  0  0  0  0
  188.2930  176.8180  137.3950 N   0  0  0  0  0  0  0  0  0  0  0  0
  186.8960  173.5090  136.7350 C   0  0  0  0  0  2  0  0  0  0  0  0
  188.8180  173.9400  135.3410 C   0  0  0  0  0  2  0  0  0  0  0  0
  188.1050  174.3970  136.5860 C   0  0  1  0  0  3  0  0  0  0  0  0
  187.3200  172.1400  136.4970 N   0  0  0  0  0  2  0  0  0  0  0  0
  188.4770  172.1660  135.1520 S   0  0  0  0  0  0  0  0  0  0  0  0
  187.9480  178.2270  137.2690 C   0  0  0  0  0  2  0  0  0  0  0  0
  186.4390  178.4040  137.3110 C   0  0  0  0  0  2  0  0  0  0  0  0
  185.9510  178.4140  138.7470 C   0  0  0  0  0  2  0  0  0  0  0  0
  184.5090  178.2300  138.7820 N   0  0  0  0  0  2  0  0  0  0  0  0
  184.1070  180.6410  138.8460 O   0  0  0  0  0  0  0  0  0  0  0  0
  183.6170  179.3400  138.8320 C   0  0  0  0  0  0  0  0  0  0  0  0
  182.3750  179.1420  138.8610 O   0  0  0  0  0  1  0  0  0  0  0  0
  1 10  1  0  0  0  0
  2  7  1  0  0  0  0
  2  6  1  0  0  0  0
  4 18  1  6  0  0  0
  4  1  1  0  0  0  0
  5  3  1  0  0  0  0
  8  3  1  6  0  0  0
  8 15  1  0  0  0  0
  9  6  2  0  0  0  0
 10  2  2  0  0  0  0
 11 13  1  6  0  0  0
 11  4  1  0  0  0  0
 11  8  1  0  0  0  0
 12 13  2  0  0  0  0
 12  5  1  0  0  0  0
 14  9  1  0  0  0  0
 15 10  1  0  0  0  0
 15 14  2  0  0  0  0
 16 17  2  0  0  0  0
 17 18  1  0  0  0  0
 20 21  1  0  0  0  0
 21 17  1  6  0  0  0
 21 19  1  0  0  0  0
 22 19  1  0  0  0  0
 23 20  1  0  0  0  0
 23 22  1  0  0  0  0
 24 25  1  0  0  0  0
 24 18  1  0  0  0  0
 25 26  1  0  0  0  0
 26 27  1  0  0  0  0
 27 29  1  0  0  0  0
 29 28  2  0  0  0  0
 29 30  1  0  0  0  0
M  END
>  <MODEL>
9

>  <REMARK>
 VINA RESULT:      -7.7      4.219      6.810
  Name = 
  6 active torsions:
  status: ('A' for Active; 'I' for Inactive)
    1  A    between atoms: C_4  and  N_13
    2  A    between atoms: N_7  and  C_16
    3  A    between atoms: C_8  and  C_12
    4  A    between atoms: N_13  and  C_27
    5  A    between atoms: C_16  and  C_30
    6  A    between atoms: C_27  and  C_30
                            x       y       z     vdW  Elec       q    Type
                         _______ _______ _______ _____ _____    ______ ____

>  <TORSDO>
F 6

$$$$
