=
 OpenBabel10272414133D

 43 47  0  0  0  0  0  0  0  0999 V2000
  186.1910  177.6040  145.8240 C   0  0  0  0  0  3  0  0  0  0  0  0
  182.7450  178.7450  141.7130 C   0  0  0  0  0  0  0  0  0  0  0  0
  184.5460  178.3680  139.5920 C   0  0  0  0  0  0  0  0  0  0  0  0
  183.6720  178.7760  144.3850 C   0  0  0  0  0  0  0  0  0  0  0  0
  186.4830  177.4580  144.5320 C   0  0  0  0  0  3  0  0  0  0  0  0
  185.4360  178.8050  146.2920 C   0  0  0  0  0  2  0  0  0  0  0  0
  184.6000  178.5860  143.3190 C   0  0  0  0  0  0  0  0  0  0  0  0
  183.9780  178.6970  145.8650 C   0  0  0  0  0  2  0  0  0  0  0  0
  186.0920  178.5100  143.5430 C   0  0  0  0  0  2  0  0  0  0  0  0
  185.0090  178.3750  140.9100 C   0  0  0  0  0  3  0  0  0  0  0  0
  184.1250  178.5680  141.9850 C   0  0  0  0  0  0  0  0  0  0  0  0
  181.8580  178.9290  142.7760 C   0  0  0  0  0  3  0  0  0  0  0  0
  182.2810  178.7360  140.3800 C   0  0  0  0  0  0  0  0  0  0  0  0
  183.1880  178.5460  139.3330 C   0  0  0  0  0  3  0  0  0  0  0  0
  182.3180  178.9380  144.0880 C   0  0  0  0  0  3  0  0  0  0  0  0
  180.8330  178.9390  140.0420 C   0  0  0  0  0  2  0  0  0  0  0  0
  180.1390  181.3120  139.2690 C   0  0  0  0  0  2  0  0  0  0  0  0
  180.6590  179.9420  138.9060 C   0  0  0  0  0  0  0  0  0  0  0  0
  181.6030  181.1180  138.8810 C   0  0  0  0  0  2  0  0  0  0  0  0
  181.0220  179.5430  136.5940 C   0  0  0  0  0  3  0  0  0  0  0  0
  180.2390  179.4760  137.6080 N   0  0  0  0  0  0  0  0  0  0  0  0
  180.5770  179.0320  135.2640 C   0  0  0  0  0  2  0  0  0  0  0  0
  181.3390  177.7720  134.8980 C   0  0  0  0  0  2  0  0  0  0  0  0
  182.5050  177.5980  135.8470 C   0  0  0  0  0  1  0  0  0  0  0  0
  185.4860  178.1270  138.4570 C   0  0  0  0  0  2  0  0  0  0  0  0
  186.8210  178.6510  138.7740 N   0  0  0  0  0  2  0  0  0  0  0  0
  187.7340  176.9560  137.4110 C   0  0  0  0  0  1  0  0  0  0  0  0
  187.8230  177.6500  138.6900 N   0  0  0  0  0  0  0  0  0  0  0  0
  189.1530  178.2410  138.8220 C   0  0  0  0  0  2  0  0  0  0  0  0
  190.2130  177.1780  138.6210 C   0  0  0  0  0  2  0  0  0  0  0  0
  190.3440  176.3490  139.8830 C   0  0  0  0  0  2  0  0  0  0  0  0
  190.8850  177.1630  140.9620 N   0  0  0  0  0  0  0  0  0  0  0  0
  192.2260  177.6980  140.8110 C   0  0  0  0  0  1  0  0  0  0  0  0
  188.8770  177.1150  142.1580 O   0  0  0  0  0  0  0  0  0  0  0  0
  190.0670  177.5270  142.0890 C   0  0  0  0  0  0  0  0  0  0  0  0
  190.5960  178.4410  143.1560 C   0  0  0  0  0  2  0  0  0  0  0  0
  191.6630  176.7880  144.7180 C   0  0  0  0  0  3  0  0  0  0  0  0
  190.6820  177.7600  144.4820 C   0  0  0  0  0  0  0  0  0  0  0  0
  188.9510  177.7650  147.7030 F   0  0  0  0  0  0  0  0  0  0  0  0
  190.8170  176.4750  146.9640 C   0  0  0  0  0  3  0  0  0  0  0  0
  189.8380  177.4460  146.7300 C   0  0  0  0  0  0  0  0  0  0  0  0
  191.7280  176.1440  145.9570 C   0  0  0  0  0  3  0  0  0  0  0  0
  189.7690  178.0850  145.4890 C   0  0  0  0  0  3  0  0  0  0  0  0
  1  6  1  0  0  0  0
  2 11  1  0  0  0  0
  2 12  1  0  0  0  0
  3 10  1  0  0  0  0
  4  8  1  0  0  0  0
  5  1  2  0  0  0  0
  7  9  1  0  0  0  0
  7  4  2  0  0  0  0
  8  6  1  0  0  0  0
  9  5  1  0  0  0  0
 10 11  2  0  0  0  0
 11  7  1  0  0  0  0
 12 15  2  0  0  0  0
 13  2  2  0  0  0  0
 14  3  2  0  0  0  0
 14 13  1  0  0  0  0
 15  4  1  0  0  0  0
 16 13  1  0  0  0  0
 18 17  1  0  0  0  0
 18 16  1  0  0  0  0
 19 18  1  0  0  0  0
 19 17  1  0  0  0  0
 20 21  2  0  0  0  0
 21 18  1  0  0  0  0
 22 20  1  0  0  0  0
 23 22  1  0  0  0  0
 23 24  1  0  0  0  0
 25 26  1  0  0  0  0
 25  3  1  0  0  0  0
 27 28  1  0  0  0  0
 28 26  1  0  0  0  0
 28 29  1  0  0  0  0
 30 29  1  0  0  0  0
 30 31  1  0  0  0  0
 31 32  1  0  0  0  0
 32 35  1  0  0  0  0
 33 32  1  0  0  0  0
 35 34  2  0  0  0  0
 35 36  1  0  0  0  0
 36 38  1  0  0  0  0
 37 42  1  0  0  0  0
 38 37  2  0  0  0  0
 38 43  1  0  0  0  0
 41 40  1  0  0  0  0
 41 39  1  0  0  0  0
 42 40  2  0  0  0  0
 43 41  2  0  0  0  0
M  END
>  <MODEL>
1

>  <REMARK>
 VINA RESULT:      -8.7      0.000      0.000
  Name = 
  14 active torsions:
  status: ('A' for Active; 'I' for Inactive)
    1  A    between atoms: C_1  and  C_34
    2  A    between atoms: C_1  and  C_35
    3  A    between atoms: C_2  and  N_7
    4  A    between atoms: C_2  and  C_13
    5  A    between atoms: C_3  and  C_17
    6  A    between atoms: C_3  and  C_42
    7  A    between atoms: C_4  and  C_14
    8  A    between atoms: C_4  and  C_41
    9  A    between atoms: N_7  and  N_12
   10  A    between atoms: C_9  and  C_37
   11  A    between atoms: N_10  and  C_42
   12  A    between atoms: N_12  and  C_17
   13  A    between atoms: C_19  and  C_37
   14  A    between atoms: N_32  and  C_35
                            x       y       z     vdW  Elec       q    Type
                         _______ _______ _______ _____ _____    ______ ____

>  <TORSDO>
F 14

$$$$
=
 OpenBabel10272414133D

 43 47  0  0  0  0  0  0  0  0999 V2000
  188.0090  177.0470  146.4330 C   0  0  0  0  0  3  0  0  0  0  0  0
  183.8250  178.7330  143.3150 C   0  0  0  0  0  0  0  0  0  0  0  0
  185.0710  178.4360  140.8160 C   0  0  0  0  0  0  0  0  0  0  0  0
  185.3280  178.4810  145.6970 C   0  0  0  0  0  0  0  0  0  0  0  0
  187.9920  176.9960  145.1020 C   0  0  0  0  0  3  0  0  0  0  0  0
  187.4720  178.2450  147.1450 C   0  0  0  0  0  2  0  0  0  0  0  0
  185.9760  178.3300  144.4360 C   0  0  0  0  0  0  0  0  0  0  0  0
  185.9510  178.2580  147.0580 C   0  0  0  0  0  2  0  0  0  0  0  0
  187.4700  178.1500  144.3050 C   0  0  0  0  0  2  0  0  0  0  0  0
  185.8160  178.3030  141.9890 C   0  0  0  0  0  3  0  0  0  0  0  0
  185.2140  178.4540  143.2490 C   0  0  0  0  0  0  0  0  0  0  0  0
  183.2160  178.8760  144.5630 C   0  0  0  0  0  3  0  0  0  0  0  0
  183.0740  178.8650  142.1260 C   0  0  0  0  0  0  0  0  0  0  0  0
  183.7070  178.7130  140.8880 C   0  0  0  0  0  3  0  0  0  0  0  0
  183.9570  178.7450  145.7320 C   0  0  0  0  0  3  0  0  0  0  0  0
  181.6070  179.1800  142.1460 C   0  0  0  0  0  2  0  0  0  0  0  0
  179.9980  179.8920  140.2450 C   0  0  0  0  0  2  0  0  0  0  0  0
  180.9490  178.8620  140.8070 C   0  0  0  0  0  0  0  0  0  0  0  0
  181.3770  179.6920  139.6210 C   0  0  0  0  0  2  0  0  0  0  0  0
  180.9100  176.9740  139.3690 C   0  0  0  0  0  3  0  0  0  0  0  0
  180.5960  177.5000  140.4960 N   0  0  0  0  0  0  0  0  0  0  0  0
  180.5580  175.5530  139.0760 C   0  0  0  0  0  2  0  0  0  0  0  0
  181.5940  174.9270  138.1620 C   0  0  0  0  0  2  0  0  0  0  0  0
  182.9560  175.5060  138.4770 C   0  0  0  0  0  1  0  0  0  0  0  0
  185.7100  178.2390  139.4810 C   0  0  0  0  0  2  0  0  0  0  0  0
  187.1330  178.6020  139.5340 N   0  0  0  0  0  2  0  0  0  0  0  0
  188.9100  179.2800  138.1380 C   0  0  0  0  0  1  0  0  0  0  0  0
  187.7950  178.3550  138.3030 N   0  0  0  0  0  0  0  0  0  0  0  0
  188.2990  176.9840  138.2560 C   0  0  0  0  0  2  0  0  0  0  0  0
  189.8060  176.9930  138.1050 C   0  0  0  0  0  2  0  0  0  0  0  0
  190.4240  176.0740  139.1390 C   0  0  0  0  0  2  0  0  0  0  0  0
  191.0440  176.8580  140.1980 N   0  0  0  0  0  0  0  0  0  0  0  0
  192.3530  177.4350  139.9470 C   0  0  0  0  0  1  0  0  0  0  0  0
  189.1600  176.7060  141.5720 O   0  0  0  0  0  0  0  0  0  0  0  0
  190.3280  177.1520  141.4100 C   0  0  0  0  0  0  0  0  0  0  0  0
  190.9330  178.0360  142.4620 C   0  0  0  0  0  2  0  0  0  0  0  0
  191.2520  177.8960  144.9500 C   0  0  0  0  0  3  0  0  0  0  0  0
  191.2870  177.2720  143.6960 C   0  0  0  0  0  0  0  0  0  0  0  0
  192.3790  173.9140  144.6440 F   0  0  0  0  0  0  0  0  0  0  0  0
  191.9750  175.8370  145.9970 C   0  0  0  0  0  3  0  0  0  0  0  0
  192.0090  175.2130  144.7460 C   0  0  0  0  0  0  0  0  0  0  0  0
  191.5980  177.1790  146.0980 C   0  0  0  0  0  3  0  0  0  0  0  0
  191.6690  175.9310  143.5960 C   0  0  0  0  0  3  0  0  0  0  0  0
  1  6  1  0  0  0  0
  2 12  1  0  0  0  0
  3 14  2  0  0  0  0
  3 10  1  0  0  0  0
  4 15  1  0  0  0  0
  4  8  1  0  0  0  0
  5  1  2  0  0  0  0
  7  4  2  0  0  0  0
  8  6  1  0  0  0  0
  9  7  1  0  0  0  0
  9  5  1  0  0  0  0
 10 11  2  0  0  0  0
 11  2  1  0  0  0  0
 11  7  1  0  0  0  0
 12 15  2  0  0  0  0
 13 16  1  0  0  0  0
 13  2  2  0  0  0  0
 14 13  1  0  0  0  0
 17 18  1  0  0  0  0
 18 16  1  0  0  0  0
 19 17  1  0  0  0  0
 19 18  1  0  0  0  0
 20 21  2  0  0  0  0
 21 18  1  0  0  0  0
 22 20  1  0  0  0  0
 23 24  1  0  0  0  0
 23 22  1  0  0  0  0
 25 26  1  0  0  0  0
 25  3  1  0  0  0  0
 27 28  1  0  0  0  0
 28 26  1  0  0  0  0
 29 28  1  0  0  0  0
 30 29  1  0  0  0  0
 30 31  1  0  0  0  0
 31 32  1  0  0  0  0
 32 35  1  0  0  0  0
 33 32  1  0  0  0  0
 35 34  2  0  0  0  0
 35 36  1  0  0  0  0
 36 38  1  0  0  0  0
 37 42  1  0  0  0  0
 38 37  2  0  0  0  0
 39 41  1  0  0  0  0
 40 42  2  0  0  0  0
 41 40  1  0  0  0  0
 43 38  1  0  0  0  0
 43 41  2  0  0  0  0
M  END
>  <MODEL>
2

>  <REMARK>
 VINA RESULT:      -8.4      1.860      2.357
  Name = 
  14 active torsions:
  status: ('A' for Active; 'I' for Inactive)
    1  A    between atoms: C_1  and  C_34
    2  A    between atoms: C_1  and  C_35
    3  A    between atoms: C_2  and  N_7
    4  A    between atoms: C_2  and  C_13
    5  A    between atoms: C_3  and  C_17
    6  A    between atoms: C_3  and  C_42
    7  A    between atoms: C_4  and  C_14
    8  A    between atoms: C_4  and  C_41
    9  A    between atoms: N_7  and  N_12
   10  A    between atoms: C_9  and  C_37
   11  A    between atoms: N_10  and  C_42
   12  A    between atoms: N_12  and  C_17
   13  A    between atoms: C_19  and  C_37
   14  A    between atoms: N_32  and  C_35
                            x       y       z     vdW  Elec       q    Type
                         _______ _______ _______ _____ _____    ______ ____

>  <TORSDO>
F 14

$$$$
=
 OpenBabel10272414133D

 43 47  0  0  0  0  0  0  0  0999 V2000
  188.6200  177.7910  146.9440 C   0  0  0  0  0  3  0  0  0  0  0  0
  190.8030  177.2990  141.9370 C   0  0  0  0  0  0  0  0  0  0  0  0
  188.4820  177.8490  140.4560 C   0  0  0  0  0  0  0  0  0  0  0  0
  190.6520  176.9090  144.7350 C   0  0  0  0  0  0  0  0  0  0  0  0
  187.9810  178.0770  145.8120 C   0  0  0  0  0  3  0  0  0  0  0  0
  189.4860  176.5760  147.0320 C   0  0  0  0  0  2  0  0  0  0  0  0
  189.4640  177.1850  143.9960 C   0  0  0  0  0  0  0  0  0  0  0  0
  190.7680  176.7970  146.2400 C   0  0  0  0  0  2  0  0  0  0  0  0
  188.0910  177.1690  144.6280 C   0  0  0  0  0  2  0  0  0  0  0  0
  188.4020  177.6650  141.8380 C   0  0  0  0  0  3  0  0  0  0  0  0
  189.5500  177.3820  142.5970 C   0  0  0  0  0  0  0  0  0  0  0  0
  191.9510  177.0280  142.6850 C   0  0  0  0  0  3  0  0  0  0  0  0
  190.8790  177.4880  140.5400 C   0  0  0  0  0  0  0  0  0  0  0  0
  189.7160  177.7630  139.8150 C   0  0  0  0  0  3  0  0  0  0  0  0
  191.8730  176.8430  144.0600 C   0  0  0  0  0  3  0  0  0  0  0  0
  192.1790  177.3890  139.7970 C   0  0  0  0  0  2  0  0  0  0  0  0
  192.8820  176.5830  137.4380 C   0  0  0  0  0  2  0  0  0  0  0  0
  192.1250  176.3140  138.7160 C   0  0  0  0  0  0  0  0  0  0  0  0
  193.4020  175.5570  138.4410 C   0  0  0  0  0  2  0  0  0  0  0  0
  190.6280  175.0200  137.4050 C   0  0  0  0  0  3  0  0  0  0  0  0
  190.9180  175.5480  138.5380 N   0  0  0  0  0  0  0  0  0  0  0  0
  189.3850  174.2090  137.2470 C   0  0  0  0  0  2  0  0  0  0  0  0
  188.9770  174.1420  135.7880 C   0  0  0  0  0  2  0  0  0  0  0  0
  189.3970  175.4190  135.0910 C   0  0  0  0  0  1  0  0  0  0  0  0
  187.2630  178.1830  139.6620 C   0  0  0  0  0  2  0  0  0  0  0  0
  187.6280  178.5340  138.2830 N   0  0  0  0  0  2  0  0  0  0  0  0
  186.6100  177.5640  136.3880 C   0  0  0  0  0  1  0  0  0  0  0  0
  186.4980  178.5820  137.4250 N   0  0  0  0  0  0  0  0  0  0  0  0
  185.2680  178.3610  138.1820 C   0  0  0  0  0  2  0  0  0  0  0  0
  184.3480  177.4350  137.4130 C   0  0  0  0  0  2  0  0  0  0  0  0
  182.9180  177.9210  137.5420 C   0  0  0  0  0  2  0  0  0  0  0  0
  182.4160  177.6490  138.8820 N   0  0  0  0  0  0  0  0  0  0  0  0
  182.3990  176.2710  139.3400 C   0  0  0  0  0  1  0  0  0  0  0  0
  182.1630  179.9200  139.3710 O   0  0  0  0  0  0  0  0  0  0  0  0
  182.0630  178.7270  139.7660 C   0  0  0  0  0  0  0  0  0  0  0  0
  181.6330  178.4490  141.1780 C   0  0  0  0  0  2  0  0  0  0  0  0
  184.0860  178.5440  141.7080 C   0  0  0  0  0  3  0  0  0  0  0  0
  182.7580  178.6080  142.1470 C   0  0  0  0  0  0  0  0  0  0  0  0
  183.2570  179.1450  145.7290 F   0  0  0  0  0  0  0  0  0  0  0  0
  184.8550  178.8850  143.9770 C   0  0  0  0  0  3  0  0  0  0  0  0
  183.5290  178.9500  144.4170 C   0  0  0  0  0  0  0  0  0  0  0  0
  185.1330  178.6790  142.6230 C   0  0  0  0  0  3  0  0  0  0  0  0
  182.4810  178.8090  143.5030 C   0  0  0  0  0  3  0  0  0  0  0  0
  1  6  1  0  0  0  0
  2 11  1  0  0  0  0
  2 12  1  0  0  0  0
  3 10  1  0  0  0  0
  4  8  1  0  0  0  0
  5  1  2  0  0  0  0
  7  9  1  0  0  0  0
  7  4  2  0  0  0  0
  8  6  1  0  0  0  0
  9  5  1  0  0  0  0
 10 11  2  0  0  0  0
 11  7  1  0  0  0  0
 12 15  2  0  0  0  0
 13  2  2  0  0  0  0
 14  3  2  0  0  0  0
 14 13  1  0  0  0  0
 15  4  1  0  0  0  0
 16 13  1  0  0  0  0
 17 19  1  0  0  0  0
 17 18  1  0  0  0  0
 18 16  1  0  0  0  0
 19 18  1  0  0  0  0
 20 21  2  0  0  0  0
 21 18  1  0  0  0  0
 22 20  1  0  0  0  0
 23 22  1  0  0  0  0
 24 23  1  0  0  0  0
 25  3  1  0  0  0  0
 26 25  1  0  0  0  0
 27 28  1  0  0  0  0
 28 29  1  0  0  0  0
 28 26  1  0  0  0  0
 30 31  1  0  0  0  0
 30 29  1  0  0  0  0
 31 32  1  0  0  0  0
 32 33  1  0  0  0  0
 32 35  1  0  0  0  0
 34 35  2  0  0  0  0
 35 36  1  0  0  0  0
 36 38  1  0  0  0  0
 37 38  2  0  0  0  0
 37 42  1  0  0  0  0
 38 43  1  0  0  0  0
 40 41  1  0  0  0  0
 41 39  1  0  0  0  0
 42 40  2  0  0  0  0
 43 41  2  0  0  0  0
M  END
>  <MODEL>
3

>  <REMARK>
 VINA RESULT:      -8.3      2.338      7.831
  Name = 
  14 active torsions:
  status: ('A' for Active; 'I' for Inactive)
    1  A    between atoms: C_1  and  C_34
    2  A    between atoms: C_1  and  C_35
    3  A    between atoms: C_2  and  N_7
    4  A    between atoms: C_2  and  C_13
    5  A    between atoms: C_3  and  C_17
    6  A    between atoms: C_3  and  C_42
    7  A    between atoms: C_4  and  C_14
    8  A    between atoms: C_4  and  C_41
    9  A    between atoms: N_7  and  N_12
   10  A    between atoms: C_9  and  C_37
   11  A    between atoms: N_10  and  C_42
   12  A    between atoms: N_12  and  C_17
   13  A    between atoms: C_19  and  C_37
   14  A    between atoms: N_32  and  C_35
                            x       y       z     vdW  Elec       q    Type
                         _______ _______ _______ _____ _____    ______ ____

>  <TORSDO>
F 14

$$$$
=
 OpenBabel10272414133D

 43 47  0  0  0  0  0  0  0  0999 V2000
  191.9200  176.1630  147.0100 C   0  0  0  0  0  3  0  0  0  0  0  0
  187.4090  177.4890  144.1870 C   0  0  0  0  0  0  0  0  0  0  0  0
  188.5840  177.6370  141.6410 C   0  0  0  0  0  0  0  0  0  0  0  0
  189.0260  177.2340  146.4940 C   0  0  0  0  0  0  0  0  0  0  0  0
  191.8580  176.2430  145.6820 C   0  0  0  0  0  3  0  0  0  0  0  0
  191.2370  177.1870  147.8560 C   0  0  0  0  0  2  0  0  0  0  0  0
  189.6390  177.3110  145.2080 C   0  0  0  0  0  0  0  0  0  0  0  0
  189.7300  176.9750  147.8080 C   0  0  0  0  0  2  0  0  0  0  0  0
  191.1370  177.3760  145.0230 C   0  0  0  0  0  2  0  0  0  0  0  0
  189.3880  177.5040  142.7760 C   0  0  0  0  0  3  0  0  0  0  0  0
  188.8200  177.4340  144.0600 C   0  0  0  0  0  0  0  0  0  0  0  0
  186.8360  177.4110  145.4580 C   0  0  0  0  0  3  0  0  0  0  0  0
  186.6000  177.6220  143.0380 C   0  0  0  0  0  0  0  0  0  0  0  0
  187.1980  177.6930  141.7760 C   0  0  0  0  0  3  0  0  0  0  0  0
  187.6340  177.2810  146.5880 C   0  0  0  0  0  3  0  0  0  0  0  0
  185.1050  177.7040  143.1250 C   0  0  0  0  0  2  0  0  0  0  0  0
  183.4870  179.6330  143.7330 C   0  0  0  0  0  2  0  0  0  0  0  0
  184.6050  179.1200  142.8570 C   0  0  0  0  0  0  0  0  0  0  0  0
  184.9090  180.1610  143.9060 C   0  0  0  0  0  2  0  0  0  0  0  0
  184.2010  178.8640  140.5320 C   0  0  0  0  0  3  0  0  0  0  0  0
  184.5710  179.6150  141.5050 N   0  0  0  0  0  0  0  0  0  0  0  0
  184.1480  179.4040  139.1410 C   0  0  0  0  0  2  0  0  0  0  0  0
  184.3390  178.2880  138.1320 C   0  0  0  0  0  2  0  0  0  0  0  0
  183.0210  177.5760  137.9160 C   0  0  0  0  0  1  0  0  0  0  0  0
  189.1930  177.6750  140.2790 C   0  0  0  0  0  2  0  0  0  0  0  0
  188.7600  178.8780  139.5550 N   0  0  0  0  0  2  0  0  0  0  0  0
  188.9470  179.0240  137.2080 C   0  0  0  0  0  1  0  0  0  0  0  0
  188.1290  178.5640  138.3230 N   0  0  0  0  0  0  0  0  0  0  0  0
  187.9230  177.1220  138.2030 C   0  0  0  0  0  2  0  0  0  0  0  0
  188.1640  176.6840  136.7730 C   0  0  0  0  0  2  0  0  0  0  0  0
  188.9010  175.3600  136.7670 C   0  0  0  0  0  2  0  0  0  0  0  0
  190.2950  175.5650  136.4030 N   0  0  0  0  0  0  0  0  0  0  0  0
  190.6060  175.8390  135.0110 C   0  0  0  0  0  1  0  0  0  0  0  0
  191.0120  175.4530  138.6240 O   0  0  0  0  0  0  0  0  0  0  0  0
  191.3190  175.6150  137.4120 C   0  0  0  0  0  0  0  0  0  0  0  0
  192.7430  175.9160  137.0450 C   0  0  0  0  0  2  0  0  0  0  0  0
  193.5210  173.5500  136.7230 C   0  0  0  0  0  3  0  0  0  0  0  0
  193.6570  174.7820  137.3740 C   0  0  0  0  0  0  0  0  0  0  0  0
  196.4550  174.0560  139.6130 F   0  0  0  0  0  0  0  0  0  0  0  0
  195.3610  172.6590  138.0190 C   0  0  0  0  0  3  0  0  0  0  0  0
  195.4990  173.8900  138.6680 C   0  0  0  0  0  0  0  0  0  0  0  0
  194.3700  172.4890  137.0470 C   0  0  0  0  0  3  0  0  0  0  0  0
  194.6450  174.9490  138.3490 C   0  0  0  0  0  3  0  0  0  0  0  0
  1  6  1  0  0  0  0
  2 12  1  0  0  0  0
  3 14  2  0  0  0  0
  3 10  1  0  0  0  0
  4 15  1  0  0  0  0
  4  8  1  0  0  0  0
  5  1  2  0  0  0  0
  7  4  2  0  0  0  0
  8  6  1  0  0  0  0
  9  7  1  0  0  0  0
  9  5  1  0  0  0  0
 10 11  2  0  0  0  0
 11  2  1  0  0  0  0
 11  7  1  0  0  0  0
 12 15  2  0  0  0  0
 13 16  1  0  0  0  0
 13  2  2  0  0  0  0
 14 13  1  0  0  0  0
 17 19  1  0  0  0  0
 18 16  1  0  0  0  0
 18 17  1  0  0  0  0
 18 19  1  0  0  0  0
 20 21  2  0  0  0  0
 21 18  1  0  0  0  0
 22 20  1  0  0  0  0
 23 22  1  0  0  0  0
 24 23  1  0  0  0  0
 25  3  1  0  0  0  0
 26 25  1  0  0  0  0
 27 28  1  0  0  0  0
 28 26  1  0  0  0  0
 29 28  1  0  0  0  0
 30 29  1  0  0  0  0
 31 30  1  0  0  0  0
 32 31  1  0  0  0  0
 32 35  1  0  0  0  0
 33 32  1  0  0  0  0
 35 34  2  0  0  0  0
 36 38  1  0  0  0  0
 36 35  1  0  0  0  0
 37 42  2  0  0  0  0
 37 38  1  0  0  0  0
 38 43  2  0  0  0  0
 40 41  2  0  0  0  0
 41 39  1  0  0  0  0
 42 40  1  0  0  0  0
 43 41  1  0  0  0  0
M  END
>  <MODEL>
4

>  <REMARK>
 VINA RESULT:      -8.3      3.215      6.120
  Name = 
  14 active torsions:
  status: ('A' for Active; 'I' for Inactive)
    1  A    between atoms: C_1  and  C_34
    2  A    between atoms: C_1  and  C_35
    3  A    between atoms: C_2  and  N_7
    4  A    between atoms: C_2  and  C_13
    5  A    between atoms: C_3  and  C_17
    6  A    between atoms: C_3  and  C_42
    7  A    between atoms: C_4  and  C_14
    8  A    between atoms: C_4  and  C_41
    9  A    between atoms: N_7  and  N_12
   10  A    between atoms: C_9  and  C_37
   11  A    between atoms: N_10  and  C_42
   12  A    between atoms: N_12  and  C_17
   13  A    between atoms: C_19  and  C_37
   14  A    between atoms: N_32  and  C_35
                            x       y       z     vdW  Elec       q    Type
                         _______ _______ _______ _____ _____    ______ ____

>  <TORSDO>
F 14

$$$$
=
 OpenBabel10272414133D

 43 47  0  0  0  0  0  0  0  0999 V2000
  188.1870  177.2060  135.0300 C   0  0  0  0  0  3  0  0  0  0  0  0
  189.3290  177.1780  140.3940 C   0  0  0  0  0  0  0  0  0  0  0  0
  187.0400  178.5460  141.2750 C   0  0  0  0  0  0  0  0  0  0  0  0
  189.9130  177.0050  137.6320 C   0  0  0  0  0  0  0  0  0  0  0  0
  187.3540  177.6280  135.9800 C   0  0  0  0  0  3  0  0  0  0  0  0
  189.6410  177.5390  135.1040 C   0  0  0  0  0  2  0  0  0  0  0  0
  188.7480  177.7070  138.0630 C   0  0  0  0  0  0  0  0  0  0  0  0
  190.3050  176.7150  136.1990 C   0  0  0  0  0  2  0  0  0  0  0  0
  187.8570  178.4690  137.1110 C   0  0  0  0  0  2  0  0  0  0  0  0
  187.3200  178.4580  139.9100 C   0  0  0  0  0  3  0  0  0  0  0  0
  188.4630  177.7840  139.4480 C   0  0  0  0  0  0  0  0  0  0  0  0
  190.4610  176.4970  139.9430 C   0  0  0  0  0  3  0  0  0  0  0  0
  189.0410  177.2670  141.7730 C   0  0  0  0  0  0  0  0  0  0  0  0
  187.8980  177.9500  142.1990 C   0  0  0  0  0  3  0  0  0  0  0  0
  190.7420  176.4100  138.5850 C   0  0  0  0  0  3  0  0  0  0  0  0
  189.9380  176.6600  142.8110 C   0  0  0  0  0  2  0  0  0  0  0  0
  191.5530  177.6170  144.5960 C   0  0  0  0  0  2  0  0  0  0  0  0
  190.1770  177.6170  143.9750 C   0  0  0  0  0  0  0  0  0  0  0  0
  191.1000  178.7830  143.7220 C   0  0  0  0  0  2  0  0  0  0  0  0
  188.9750  177.1870  145.9760 C   0  0  0  0  0  3  0  0  0  0  0  0
  189.1090  177.8810  144.9050 N   0  0  0  0  0  0  0  0  0  0  0  0
  187.8780  177.4920  146.9410 C   0  0  0  0  0  2  0  0  0  0  0  0
  186.5670  177.6940  146.2060 C   0  0  0  0  0  2  0  0  0  0  0  0
  185.8820  178.9350  146.7340 C   0  0  0  0  0  1  0  0  0  0  0  0
  185.8060  179.2340  141.7570 C   0  0  0  0  0  2  0  0  0  0  0  0
  185.2950  178.5850  142.9710 N   0  0  0  0  0  2  0  0  0  0  0  0
  183.2470  179.1800  143.9800 C   0  0  0  0  0  1  0  0  0  0  0  0
  183.8890  178.3990  142.9290 N   0  0  0  0  0  0  0  0  0  0  0  0
  183.3540  178.8110  141.6320 C   0  0  0  0  0  2  0  0  0  0  0  0
  182.8020  177.6080  140.8960 C   0  0  0  0  0  2  0  0  0  0  0  0
  182.2040  178.0540  139.5770 C   0  0  0  0  0  2  0  0  0  0  0  0
  182.3060  176.9840  138.5940 N   0  0  0  0  0  0  0  0  0  0  0  0
  181.2730  175.9640  138.5820 C   0  0  0  0  0  1  0  0  0  0  0  0
  184.1730  177.9470  137.5700 O   0  0  0  0  0  0  0  0  0  0  0  0
  183.3340  177.0070  137.5880 C   0  0  0  0  0  0  0  0  0  0  0  0
  183.3840  175.9520  136.5210 C   0  0  0  0  0  2  0  0  0  0  0  0
  183.8900  173.5930  137.2180 C   0  0  0  0  0  3  0  0  0  0  0  0
  184.3510  174.8640  136.8550 C   0  0  0  0  0  0  0  0  0  0  0  0
  187.9650  174.3660  137.1010 F   0  0  0  0  0  0  0  0  0  0  0  0
  186.1740  172.8430  137.5010 C   0  0  0  0  0  3  0  0  0  0  0  0
  186.6350  174.1120  137.1380 C   0  0  0  0  0  0  0  0  0  0  0  0
  184.8010  172.5840  137.5430 C   0  0  0  0  0  3  0  0  0  0  0  0
  185.7250  175.1230  136.8180 C   0  0  0  0  0  3  0  0  0  0  0  0
  1  6  1  0  0  0  0
  1  5  2  0  0  0  0
  2 13  1  0  0  0  0
  3 25  1  0  0  0  0
  3 14  1  0  0  0  0
  4  7  2  0  0  0  0
  4 15  1  0  0  0  0
  5  9  1  0  0  0  0
  6  8  1  0  0  0  0
  7 11  1  0  0  0  0
  8  4  1  0  0  0  0
  9  7  1  0  0  0  0
 10  3  2  0  0  0  0
 11 10  1  0  0  0  0
 11  2  2  0  0  0  0
 12  2  1  0  0  0  0
 13 14  2  0  0  0  0
 13 16  1  0  0  0  0
 15 12  2  0  0  0  0
 16 18  1  0  0  0  0
 18 17  1  0  0  0  0
 18 21  1  0  0  0  0
 19 18  1  0  0  0  0
 19 17  1  0  0  0  0
 20 22  1  0  0  0  0
 21 20  2  0  0  0  0
 23 24  1  0  0  0  0
 23 22  1  0  0  0  0
 25 26  1  0  0  0  0
 28 26  1  0  0  0  0
 28 27  1  0  0  0  0
 29 28  1  0  0  0  0
 30 29  1  0  0  0  0
 31 30  1  0  0  0  0
 32 31  1  0  0  0  0
 33 32  1  0  0  0  0
 34 35  2  0  0  0  0
 35 32  1  0  0  0  0
 36 38  1  0  0  0  0
 36 35  1  0  0  0  0
 37 42  1  0  0  0  0
 38 37  2  0  0  0  0
 39 41  1  0  0  0  0
 40 42  2  0  0  0  0
 41 40  1  0  0  0  0
 43 38  1  0  0  0  0
 43 41  2  0  0  0  0
M  END
>  <MODEL>
5

>  <REMARK>
 VINA RESULT:      -8.0      3.136      9.464
  Name = 
  14 active torsions:
  status: ('A' for Active; 'I' for Inactive)
    1  A    between atoms: C_1  and  C_34
    2  A    between atoms: C_1  and  C_35
    3  A    between atoms: C_2  and  N_7
    4  A    between atoms: C_2  and  C_13
    5  A    between atoms: C_3  and  C_17
    6  A    between atoms: C_3  and  C_42
    7  A    between atoms: C_4  and  C_14
    8  A    between atoms: C_4  and  C_41
    9  A    between atoms: N_7  and  N_12
   10  A    between atoms: C_9  and  C_37
   11  A    between atoms: N_10  and  C_42
   12  A    between atoms: N_12  and  C_17
   13  A    between atoms: C_19  and  C_37
   14  A    between atoms: N_32  and  C_35
                            x       y       z     vdW  Elec       q    Type
                         _______ _______ _______ _____ _____    ______ ____

>  <TORSDO>
F 14

$$$$
=
 OpenBabel10272414133D

 43 47  0  0  0  0  0  0  0  0999 V2000
  188.6140  176.9510  146.8940 C   0  0  0  0  0  3  0  0  0  0  0  0
  184.3690  178.7040  143.8960 C   0  0  0  0  0  0  0  0  0  0  0  0
  185.6020  178.5680  141.3770 C   0  0  0  0  0  0  0  0  0  0  0  0
  185.8950  178.3600  146.2520 C   0  0  0  0  0  0  0  0  0  0  0  0
  188.5880  176.9710  145.5620 C   0  0  0  0  0  3  0  0  0  0  0  0
  188.0540  178.0970  147.6720 C   0  0  0  0  0  2  0  0  0  0  0  0
  186.5370  178.2910  144.9810 C   0  0  0  0  0  0  0  0  0  0  0  0
  186.5330  178.0790  147.5960 C   0  0  0  0  0  2  0  0  0  0  0  0
  188.0330  178.1520  144.8310 C   0  0  0  0  0  2  0  0  0  0  0  0
  186.3600  178.3910  142.5370 C   0  0  0  0  0  3  0  0  0  0  0  0
  185.7630  178.4610  143.8070 C   0  0  0  0  0  0  0  0  0  0  0  0
  183.7660  178.7660  145.1540 C   0  0  0  0  0  3  0  0  0  0  0  0
  183.6070  178.8810  142.7210 C   0  0  0  0  0  0  0  0  0  0  0  0
  184.2330  178.8100  141.4720 C   0  0  0  0  0  3  0  0  0  0  0  0
  184.5190  178.5900  146.3090 C   0  0  0  0  0  3  0  0  0  0  0  0
  182.1330  179.1600  142.7660 C   0  0  0  0  0  2  0  0  0  0  0  0
  181.6930  177.3650  140.9520 C   0  0  0  0  0  2  0  0  0  0  0  0
  181.4480  178.7650  141.4610 C   0  0  0  0  0  0  0  0  0  0  0  0
  180.3420  177.7430  141.5530 C   0  0  0  0  0  2  0  0  0  0  0  0
  180.1890  180.4210  140.3180 C   0  0  0  0  0  3  0  0  0  0  0  0
  181.2780  179.7500  140.4240 N   0  0  0  0  0  0  0  0  0  0  0  0
  180.0410  181.4550  139.2520 C   0  0  0  0  0  2  0  0  0  0  0  0
  181.2970  181.5270  138.4040 C   0  0  0  0  0  2  0  0  0  0  0  0
  181.4260  182.9150  137.8160 C   0  0  0  0  0  1  0  0  0  0  0  0
  186.2360  178.4580  140.0300 C   0  0  0  0  0  2  0  0  0  0  0  0
  185.2480  178.7150  138.9730 N   0  0  0  0  0  2  0  0  0  0  0  0
  183.8070  177.5990  137.4740 C   0  0  0  0  0  1  0  0  0  0  0  0
  185.1400  177.6290  138.0660 N   0  0  0  0  0  0  0  0  0  0  0  0
  186.1330  177.7470  137.0010 C   0  0  0  0  0  2  0  0  0  0  0  0
  186.8630  176.4310  136.8260 C   0  0  0  0  0  2  0  0  0  0  0  0
  188.1090  176.6500  135.9930 C   0  0  0  0  0  2  0  0  0  0  0  0
  189.2940  176.2950  136.7610 N   0  0  0  0  0  0  0  0  0  0  0  0
  189.8740  174.9800  136.5570 C   0  0  0  0  0  1  0  0  0  0  0  0
  189.4620  178.4270  137.7040 O   0  0  0  0  0  0  0  0  0  0  0  0
  189.9400  177.2650  137.6050 C   0  0  0  0  0  0  0  0  0  0  0  0
  191.2120  176.9260  138.3260 C   0  0  0  0  0  2  0  0  0  0  0  0
  192.0800  177.5410  140.6020 C   0  0  0  0  0  3  0  0  0  0  0  0
  191.0540  177.0110  139.8090 C   0  0  0  0  0  0  0  0  0  0  0  0
  188.5890  176.1640  142.3730 F   0  0  0  0  0  0  0  0  0  0  0  0
  190.7540  177.1440  142.5870 C   0  0  0  0  0  3  0  0  0  0  0  0
  189.7280  176.6160  141.7960 C   0  0  0  0  0  0  0  0  0  0  0  0
  191.9300  177.6040  141.9900 C   0  0  0  0  0  3  0  0  0  0  0  0
  189.8800  176.5460  140.4090 C   0  0  0  0  0  3  0  0  0  0  0  0
  1  6  1  0  0  0  0
  2 12  1  0  0  0  0
  3 14  2  0  0  0  0
  3 10  1  0  0  0  0
  4 15  1  0  0  0  0
  4  8  1  0  0  0  0
  5  1  2  0  0  0  0
  7  4  2  0  0  0  0
  8  6  1  0  0  0  0
  9  7  1  0  0  0  0
  9  5  1  0  0  0  0
 10 11  2  0  0  0  0
 11  2  1  0  0  0  0
 11  7  1  0  0  0  0
 12 15  2  0  0  0  0
 13 16  1  0  0  0  0
 13  2  2  0  0  0  0
 14 13  1  0  0  0  0
 17 18  1  0  0  0  0
 17 19  1  0  0  0  0
 18 19  1  0  0  0  0
 18 16  1  0  0  0  0
 20 21  2  0  0  0  0
 21 18  1  0  0  0  0
 22 20  1  0  0  0  0
 23 22  1  0  0  0  0
 24 23  1  0  0  0  0
 25  3  1  0  0  0  0
 26 25  1  0  0  0  0
 27 28  1  0  0  0  0
 28 26  1  0  0  0  0
 29 28  1  0  0  0  0
 30 29  1  0  0  0  0
 31 32  1  0  0  0  0
 31 30  1  0  0  0  0
 32 35  1  0  0  0  0
 33 32  1  0  0  0  0
 35 34  2  0  0  0  0
 35 36  1  0  0  0  0
 36 38  1  0  0  0  0
 37 42  1  0  0  0  0
 38 43  1  0  0  0  0
 38 37  2  0  0  0  0
 41 39  1  0  0  0  0
 41 40  1  0  0  0  0
 42 40  2  0  0  0  0
 43 41  2  0  0  0  0
M  END
>  <MODEL>
6

>  <REMARK>
 VINA RESULT:      -8.0      2.151      3.832
  Name = 
  14 active torsions:
  status: ('A' for Active; 'I' for Inactive)
    1  A    between atoms: C_1  and  C_34
    2  A    between atoms: C_1  and  C_35
    3  A    between atoms: C_2  and  N_7
    4  A    between atoms: C_2  and  C_13
    5  A    between atoms: C_3  and  C_17
    6  A    between atoms: C_3  and  C_42
    7  A    between atoms: C_4  and  C_14
    8  A    between atoms: C_4  and  C_41
    9  A    between atoms: N_7  and  N_12
   10  A    between atoms: C_9  and  C_37
   11  A    between atoms: N_10  and  C_42
   12  A    between atoms: N_12  and  C_17
   13  A    between atoms: C_19  and  C_37
   14  A    between atoms: N_32  and  C_35
                            x       y       z     vdW  Elec       q    Type
                         _______ _______ _______ _____ _____    ______ ____

>  <TORSDO>
F 14

$$$$
=
 OpenBabel10272414133D

 43 47  0  0  0  0  0  0  0  0999 V2000
  184.0140  171.9540  137.0550 C   0  0  0  0  0  3  0  0  0  0  0  0
  188.3190  175.3240  136.6210 C   0  0  0  0  0  0  0  0  0  0  0  0
  187.0810  177.6490  137.5930 C   0  0  0  0  0  0  0  0  0  0  0  0
  186.7830  173.0170  136.0580 C   0  0  0  0  0  0  0  0  0  0  0  0
  184.0400  173.2070  137.5080 C   0  0  0  0  0  3  0  0  0  0  0  0
  184.6160  171.6230  135.7290 C   0  0  0  0  0  2  0  0  0  0  0  0
  186.1380  174.1900  136.5490 C   0  0  0  0  0  0  0  0  0  0  0  0
  186.1350  171.6690  135.8250 C   0  0  0  0  0  2  0  0  0  0  0  0
  184.6370  174.3000  136.6790 C   0  0  0  0  0  2  0  0  0  0  0  0
  186.3180  176.5100  137.3240 C   0  0  0  0  0  3  0  0  0  0  0  0
  186.9170  175.3390  136.8310 C   0  0  0  0  0  0  0  0  0  0  0  0
  188.9240  174.1610  136.1400 C   0  0  0  0  0  3  0  0  0  0  0  0
  189.0870  176.4760  136.8960 C   0  0  0  0  0  0  0  0  0  0  0  0
  188.4580  177.6270  137.3810 C   0  0  0  0  0  3  0  0  0  0  0  0
  188.1660  173.0280  135.8710 C   0  0  0  0  0  3  0  0  0  0  0  0
  190.5700  176.5140  136.6700 C   0  0  0  0  0  2  0  0  0  0  0  0
  192.5160  175.1770  137.7340 C   0  0  0  0  0  2  0  0  0  0  0  0
  191.3380  176.1010  137.9220 C   0  0  0  0  0  0  0  0  0  0  0  0
  192.7350  176.6480  138.0770 C   0  0  0  0  0  2  0  0  0  0  0  0
  190.7160  176.7490  140.1190 C   0  0  0  0  0  3  0  0  0  0  0  0
  190.6240  175.9040  139.1580 N   0  0  0  0  0  0  0  0  0  0  0  0
  189.9490  176.5410  141.3830 C   0  0  0  0  0  2  0  0  0  0  0  0
  188.6290  177.2870  141.3320 C   0  0  0  0  0  2  0  0  0  0  0  0
  188.8900  178.7740  141.4390 C   0  0  0  0  0  1  0  0  0  0  0  0
  186.4420  178.8780  138.1490 C   0  0  0  0  0  2  0  0  0  0  0  0
  186.1000  178.6840  139.5650 N   0  0  0  0  0  2  0  0  0  0  0  0
  183.9740  179.4290  138.8600 C   0  0  0  0  0  1  0  0  0  0  0  0
  184.9500  179.4250  139.9440 N   0  0  0  0  0  0  0  0  0  0  0  0
  184.3360  178.8480  141.1380 C   0  0  0  0  0  2  0  0  0  0  0  0
  185.2210  179.0930  142.3430 C   0  0  0  0  0  2  0  0  0  0  0  0
  184.8340  178.1400  143.4560 C   0  0  0  0  0  2  0  0  0  0  0  0
  185.6340  178.4070  144.6430 N   0  0  0  0  0  0  0  0  0  0  0  0
  185.2160  179.4830  145.5240 C   0  0  0  0  0  1  0  0  0  0  0  0
  187.0300  176.5730  144.2540 O   0  0  0  0  0  0  0  0  0  0  0  0
  186.7350  177.5500  144.9950 C   0  0  0  0  0  0  0  0  0  0  0  0
  187.5020  177.7720  146.2660 C   0  0  0  0  0  2  0  0  0  0  0  0
  189.6370  177.9510  144.9540 C   0  0  0  0  0  3  0  0  0  0  0  0
  188.9600  177.4980  146.0930 C   0  0  0  0  0  0  0  0  0  0  0  0
  191.6760  175.8010  147.8590 F   0  0  0  0  0  0  0  0  0  0  0  0
  191.6860  176.9570  145.7720 C   0  0  0  0  0  3  0  0  0  0  0  0
  191.0120  176.5040  146.9110 C   0  0  0  0  0  0  0  0  0  0  0  0
  190.9980  177.6780  144.7920 C   0  0  0  0  0  3  0  0  0  0  0  0
  189.6490  176.7720  147.0690 C   0  0  0  0  0  3  0  0  0  0  0  0
  1  5  2  0  0  0  0
  2 11  1  0  0  0  0
  2 13  1  0  0  0  0
  3 25  1  0  0  0  0
  4  7  1  0  0  0  0
  6  8  1  0  0  0  0
  6  1  1  0  0  0  0
  7  9  1  0  0  0  0
  7 11  2  0  0  0  0
  8  4  1  0  0  0  0
  9  5  1  0  0  0  0
 10  3  2  0  0  0  0
 11 10  1  0  0  0  0
 12  2  2  0  0  0  0
 13 14  2  0  0  0  0
 14  3  1  0  0  0  0
 15  4  2  0  0  0  0
 15 12  1  0  0  0  0
 16 13  1  0  0  0  0
 16 18  1  0  0  0  0
 17 18  1  0  0  0  0
 17 19  1  0  0  0  0
 18 19  1  0  0  0  0
 18 21  1  0  0  0  0
 20 22  1  0  0  0  0
 21 20  2  0  0  0  0
 23 22  1  0  0  0  0
 23 24  1  0  0  0  0
 25 26  1  0  0  0  0
 26 28  1  0  0  0  0
 27 28  1  0  0  0  0
 28 29  1  0  0  0  0
 29 30  1  0  0  0  0
 30 31  1  0  0  0  0
 31 32  1  0  0  0  0
 32 35  1  0  0  0  0
 32 33  1  0  0  0  0
 34 35  2  0  0  0  0
 35 36  1  0  0  0  0
 37 38  1  0  0  0  0
 38 36  1  0  0  0  0
 38 43  2  0  0  0  0
 40 41  2  0  0  0  0
 41 43  1  0  0  0  0
 41 39  1  0  0  0  0
 42 37  2  0  0  0  0
 42 40  1  0  0  0  0
M  END
>  <MODEL>
7

>  <REMARK>
 VINA RESULT:      -8.0      2.780      7.948
  Name = 
  14 active torsions:
  status: ('A' for Active; 'I' for Inactive)
    1  A    between atoms: C_1  and  C_34
    2  A    between atoms: C_1  and  C_35
    3  A    between atoms: C_2  and  N_7
    4  A    between atoms: C_2  and  C_13
    5  A    between atoms: C_3  and  C_17
    6  A    between atoms: C_3  and  C_42
    7  A    between atoms: C_4  and  C_14
    8  A    between atoms: C_4  and  C_41
    9  A    between atoms: N_7  and  N_12
   10  A    between atoms: C_9  and  C_37
   11  A    between atoms: N_10  and  C_42
   12  A    between atoms: N_12  and  C_17
   13  A    between atoms: C_19  and  C_37
   14  A    between atoms: N_32  and  C_35
                            x       y       z     vdW  Elec       q    Type
                         _______ _______ _______ _____ _____    ______ ____

>  <TORSDO>
F 14

$$$$
=
 OpenBabel10272414133D

 43 47  0  0  0  0  0  0  0  0999 V2000
  190.5440  178.5080  143.4100 C   0  0  0  0  0  3  0  0  0  0  0  0
  189.4190  177.4450  138.1490 C   0  0  0  0  0  0  0  0  0  0  0  0
  186.6750  178.0400  138.2210 C   0  0  0  0  0  0  0  0  0  0  0  0
  190.9110  177.3000  140.5470 C   0  0  0  0  0  0  0  0  0  0  0  0
  189.3700  178.7450  142.8280 C   0  0  0  0  0  3  0  0  0  0  0  0
  191.2860  177.2450  143.1170 C   0  0  0  0  0  2  0  0  0  0  0  0
  189.5180  177.6000  140.6010 C   0  0  0  0  0  0  0  0  0  0  0  0
  191.8750  177.3050  141.7140 C   0  0  0  0  0  2  0  0  0  0  0  0
  188.7640  177.7370  141.9030 C   0  0  0  0  0  2  0  0  0  0  0  0
  187.4080  177.9770  139.4080 C   0  0  0  0  0  3  0  0  0  0  0  0
  188.7810  177.6750  139.3950 C   0  0  0  0  0  0  0  0  0  0  0  0
  190.7840  177.1540  138.1260 C   0  0  0  0  0  3  0  0  0  0  0  0
  188.6740  177.5120  136.9510 C   0  0  0  0  0  0  0  0  0  0  0  0
  187.3090  177.8110  137.0010 C   0  0  0  0  0  3  0  0  0  0  0  0
  191.5150  177.0890  139.3070 C   0  0  0  0  0  3  0  0  0  0  0  0
  189.3020  177.2580  135.6120 C   0  0  0  0  0  2  0  0  0  0  0  0
  188.4900  174.8580  136.1510 C   0  0  0  0  0  2  0  0  0  0  0  0
  189.3110  175.7710  135.2720 C   0  0  0  0  0  0  0  0  0  0  0  0
  188.0290  175.1860  134.7330 C   0  0  0  0  0  2  0  0  0  0  0  0
  191.3290  174.5470  135.5300 C   0  0  0  0  0  3  0  0  0  0  0  0
  190.5150  175.1690  134.7570 N   0  0  0  0  0  0  0  0  0  0  0  0
  192.5570  173.9080  134.9730 C   0  0  0  0  0  2  0  0  0  0  0  0
  193.6630  173.8900  136.0110 C   0  0  0  0  0  2  0  0  0  0  0  0
  193.0980  174.3020  137.3530 C   0  0  0  0  0  1  0  0  0  0  0  0
  185.2260  178.3960  138.2400 C   0  0  0  0  0  2  0  0  0  0  0  0
  185.0110  179.6390  138.9930 N   0  0  0  0  0  2  0  0  0  0  0  0
  182.6530  179.7360  138.9910 C   0  0  0  0  0  1  0  0  0  0  0  0
  183.8510  179.5780  139.8080 N   0  0  0  0  0  0  0  0  0  0  0  0
  183.7830  178.2990  140.5130 C   0  0  0  0  0  2  0  0  0  0  0  0
  183.8210  178.5320  142.0090 C   0  0  0  0  0  2  0  0  0  0  0  0
  185.2190  178.2640  142.5290 C   0  0  0  0  0  2  0  0  0  0  0  0
  185.2790  178.5220  143.9600 N   0  0  0  0  0  0  0  0  0  0  0  0
  184.4320  179.5690  144.5040 C   0  0  0  0  0  1  0  0  0  0  0  0
  186.7300  176.7290  144.3390 O   0  0  0  0  0  0  0  0  0  0  0  0
  186.0640  177.6830  144.8260 C   0  0  0  0  0  0  0  0  0  0  0  0
  186.0540  177.8940  146.3120 C   0  0  0  0  0  2  0  0  0  0  0  0
  187.6980  178.4300  148.1330 C   0  0  0  0  0  3  0  0  0  0  0  0
  187.4280  177.8380  146.8930 C   0  0  0  0  0  0  0  0  0  0  0  0
  190.7350  176.5350  146.0350 F   0  0  0  0  0  0  0  0  0  0  0  0
  190.0130  177.7450  147.9600 C   0  0  0  0  0  3  0  0  0  0  0  0
  189.7450  177.1520  146.7220 C   0  0  0  0  0  0  0  0  0  0  0  0
  188.9900  178.3860  148.6640 C   0  0  0  0  0  3  0  0  0  0  0  0
  188.4540  177.2020  146.1880 C   0  0  0  0  0  3  0  0  0  0  0  0
  2 11  1  0  0  0  0
  3 25  1  0  0  0  0
  3 10  1  0  0  0  0
  4  7  2  0  0  0  0
  4  8  1  0  0  0  0
  5  1  2  0  0  0  0
  6  1  1  0  0  0  0
  7  9  1  0  0  0  0
  8  6  1  0  0  0  0
  9  5  1  0  0  0  0
 11 10  2  0  0  0  0
 11  7  1  0  0  0  0
 12  2  1  0  0  0  0
 12 15  2  0  0  0  0
 13 14  1  0  0  0  0
 13  2  2  0  0  0  0
 14  3  2  0  0  0  0
 15  4  1  0  0  0  0
 16 13  1  0  0  0  0
 18 16  1  0  0  0  0
 18 17  1  0  0  0  0
 19 18  1  0  0  0  0
 19 17  1  0  0  0  0
 21 18  1  0  0  0  0
 21 20  2  0  0  0  0
 22 20  1  0  0  0  0
 22 23  1  0  0  0  0
 23 24  1  0  0  0  0
 25 26  1  0  0  0  0
 26 28  1  0  0  0  0
 27 28  1  0  0  0  0
 28 29  1  0  0  0  0
 29 30  1  0  0  0  0
 30 31  1  0  0  0  0
 31 32  1  0  0  0  0
 32 33  1  0  0  0  0
 32 35  1  0  0  0  0
 34 35  2  0  0  0  0
 35 36  1  0  0  0  0
 36 38  1  0  0  0  0
 37 42  1  0  0  0  0
 38 37  2  0  0  0  0
 39 41  1  0  0  0  0
 40 42  2  0  0  0  0
 41 40  1  0  0  0  0
 43 41  2  0  0  0  0
 43 38  1  0  0  0  0
M  END
>  <MODEL>
8

>  <REMARK>
 VINA RESULT:      -7.8      2.483      7.258
  Name = 
  14 active torsions:
  status: ('A' for Active; 'I' for Inactive)
    1  A    between atoms: C_1  and  C_34
    2  A    between atoms: C_1  and  C_35
    3  A    between atoms: C_2  and  N_7
    4  A    between atoms: C_2  and  C_13
    5  A    between atoms: C_3  and  C_17
    6  A    between atoms: C_3  and  C_42
    7  A    between atoms: C_4  and  C_14
    8  A    between atoms: C_4  and  C_41
    9  A    between atoms: N_7  and  N_12
   10  A    between atoms: C_9  and  C_37
   11  A    between atoms: N_10  and  C_42
   12  A    between atoms: N_12  and  C_17
   13  A    between atoms: C_19  and  C_37
   14  A    between atoms: N_32  and  C_35
                            x       y       z     vdW  Elec       q    Type
                         _______ _______ _______ _____ _____    ______ ____

>  <TORSDO>
F 14

$$$$
=
 OpenBabel10272414133D

 43 47  0  0  0  0  0  0  0  0999 V2000
  190.8040  177.0680  138.8640 C   0  0  0  0  0  3  0  0  0  0  0  0
  187.6440  177.3870  143.3340 C   0  0  0  0  0  0  0  0  0  0  0  0
  185.4020  178.5740  142.1300 C   0  0  0  0  0  0  0  0  0  0  0  0
  190.0720  177.1460  141.9050 C   0  0  0  0  0  0  0  0  0  0  0  0
  189.5290  177.4530  138.8600 C   0  0  0  0  0  3  0  0  0  0  0  0
  191.7260  177.5380  139.9410 C   0  0  0  0  0  2  0  0  0  0  0  0
  188.9440  177.7550  141.2800 C   0  0  0  0  0  0  0  0  0  0  0  0
  191.3980  176.8290  141.2480 C   0  0  0  0  0  2  0  0  0  0  0  0
  189.0150  178.3870  139.9100 C   0  0  0  0  0  2  0  0  0  0  0  0
  186.5960  178.4520  141.4170 C   0  0  0  0  0  3  0  0  0  0  0  0
  187.7320  177.8670  142.0030 C   0  0  0  0  0  0  0  0  0  0  0  0
  188.7640  176.7960  143.9210 C   0  0  0  0  0  3  0  0  0  0  0  0
  186.4340  177.5110  144.0510 C   0  0  0  0  0  0  0  0  0  0  0  0
  185.3250  178.1030  143.4400 C   0  0  0  0  0  3  0  0  0  0  0  0
  189.9540  176.6740  143.2130 C   0  0  0  0  0  3  0  0  0  0  0  0
  186.3000  177.0370  145.4690 C   0  0  0  0  0  2  0  0  0  0  0  0
  185.9790  179.4650  146.3110 C   0  0  0  0  0  2  0  0  0  0  0  0
  186.6710  178.1330  146.4630 C   0  0  0  0  0  0  0  0  0  0  0  0
  185.6160  178.5330  147.4640 C   0  0  0  0  0  2  0  0  0  0  0  0
  188.6460  177.1880  147.3810 C   0  0  0  0  0  3  0  0  0  0  0  0
  188.0270  178.2230  146.9440 N   0  0  0  0  0  0  0  0  0  0  0  0
  190.0590  177.2970  147.8510 C   0  0  0  0  0  2  0  0  0  0  0  0
  191.0130  176.7830  146.7900 C   0  0  0  0  0  2  0  0  0  0  0  0
  192.0570  175.9010  147.4390 C   0  0  0  0  0  1  0  0  0  0  0  0
  184.1900  179.1660  141.4890 C   0  0  0  0  0  2  0  0  0  0  0  0
  183.4820  178.1520  140.6950 N   0  0  0  0  0  2  0  0  0  0  0  0
  183.1740  179.7540  138.9910 C   0  0  0  0  0  1  0  0  0  0  0  0
  182.5360  178.7310  139.8100 N   0  0  0  0  0  0  0  0  0  0  0  0
  181.9570  177.7120  138.9370 C   0  0  0  0  0  2  0  0  0  0  0  0
  182.6820  177.6990  137.6070 C   0  0  0  0  0  2  0  0  0  0  0  0
  183.6420  176.5270  137.5640 C   0  0  0  0  0  2  0  0  0  0  0  0
  184.6000  176.7040  136.4820 N   0  0  0  0  0  0  0  0  0  0  0  0
  184.2350  176.2270  135.1600 C   0  0  0  0  0  1  0  0  0  0  0  0
  186.0750  177.9140  137.8320 O   0  0  0  0  0  0  0  0  0  0  0  0
  185.8180  177.4390  136.6920 C   0  0  0  0  0  0  0  0  0  0  0  0
  186.7620  177.6980  135.5540 C   0  0  0  0  0  2  0  0  0  0  0  0
  189.2170  177.3190  135.1820 C   0  0  0  0  0  3  0  0  0  0  0  0
  187.9810  176.8390  135.6320 C   0  0  0  0  0  0  0  0  0  0  0  0
  188.9180  173.4730  136.7110 F   0  0  0  0  0  0  0  0  0  0  0  0
  190.2510  175.2090  135.7630 C   0  0  0  0  0  3  0  0  0  0  0  0
  189.0170  174.7290  136.2130 C   0  0  0  0  0  0  0  0  0  0  0  0
  190.3500  176.5040  135.2450 C   0  0  0  0  0  3  0  0  0  0  0  0
  187.8830  175.5420  136.1450 C   0  0  0  0  0  3  0  0  0  0  0  0
  1  6  1  0  0  0  0
  2 12  1  0  0  0  0
  2 13  1  0  0  0  0
  3 14  1  0  0  0  0
  4 15  1  0  0  0  0
  5  1  2  0  0  0  0
  5  9  1  0  0  0  0
  6  8  1  0  0  0  0
  7  4  2  0  0  0  0
  7 11  1  0  0  0  0
  8  4  1  0  0  0  0
  9  7  1  0  0  0  0
 10 11  1  0  0  0  0
 10  3  2  0  0  0  0
 11  2  2  0  0  0  0
 13 16  1  0  0  0  0
 14 13  2  0  0  0  0
 15 12  2  0  0  0  0
 16 18  1  0  0  0  0
 17 18  1  0  0  0  0
 17 19  1  0  0  0  0
 18 21  1  0  0  0  0
 18 19  1  0  0  0  0
 20 22  1  0  0  0  0
 21 20  2  0  0  0  0
 23 24  1  0  0  0  0
 23 22  1  0  0  0  0
 25  3  1  0  0  0  0
 26 25  1  0  0  0  0
 27 28  1  0  0  0  0
 28 26  1  0  0  0  0
 29 28  1  0  0  0  0
 30 29  1  0  0  0  0
 31 30  1  0  0  0  0
 32 35  1  0  0  0  0
 32 31  1  0  0  0  0
 33 32  1  0  0  0  0
 35 34  2  0  0  0  0
 36 38  1  0  0  0  0
 36 35  1  0  0  0  0
 37 42  2  0  0  0  0
 37 38  1  0  0  0  0
 38 43  2  0  0  0  0
 40 41  2  0  0  0  0
 41 39  1  0  0  0  0
 42 40  1  0  0  0  0
 43 41  1  0  0  0  0
M  END
>  <MODEL>
9

>  <REMARK>
 VINA RESULT:      -7.8      2.986      8.783
  Name = 
  14 active torsions:
  status: ('A' for Active; 'I' for Inactive)
    1  A    between atoms: C_1  and  C_34
    2  A    between atoms: C_1  and  C_35
    3  A    between atoms: C_2  and  N_7
    4  A    between atoms: C_2  and  C_13
    5  A    between atoms: C_3  and  C_17
    6  A    between atoms: C_3  and  C_42
    7  A    between atoms: C_4  and  C_14
    8  A    between atoms: C_4  and  C_41
    9  A    between atoms: N_7  and  N_12
   10  A    between atoms: C_9  and  C_37
   11  A    between atoms: N_10  and  C_42
   12  A    between atoms: N_12  and  C_17
   13  A    between atoms: C_19  and  C_37
   14  A    between atoms: N_32  and  C_35
                            x       y       z     vdW  Elec       q    Type
                         _______ _______ _______ _____ _____    ______ ____

>  <TORSDO>
F 14

$$$$
