=
 OpenBabel10272400503D

 25 28  0  0  1  0  0  0  0  0999 V2000
  187.8750  177.6930  145.6620 C   0  0  0  0  0  0  0  0  0  0  0  0
  186.7210  178.0240  144.9480 C   0  0  0  0  0  0  0  0  0  0  0  0
  186.8600  178.2510  147.7810 C   0  0  0  0  0  3  0  0  0  0  0  0
  189.1780  177.2010  145.2650 C   0  0  2  0  0  3  0  0  0  0  0  0
  185.2350  178.1970  141.4050 N   0  0  0  0  0  2  0  0  0  0  0  0
  191.8340  176.2650  145.1310 C   0  0  0  0  0  3  0  0  0  0  0  0
  185.6830  178.5930  147.0930 C   0  0  0  0  0  3  0  0  0  0  0  0
  189.9190  177.0640  146.5060 C   0  0  0  0  0  0  0  0  0  0  0  0
  191.3350  176.5740  146.5310 C   0  0  0  0  0  3  0  0  0  0  0  0
  184.3860  178.8370  144.9600 C   0  0  0  0  0  0  0  0  0  0  0  0
  183.3690  179.2500  145.5760 O   0  0  0  0  0  0  0  0  0  0  0  0
  186.6730  177.8950  143.4490 C   0  0  0  0  0  2  0  0  0  0  0  0
  191.0850  176.4170  144.0200 C   0  0  0  0  0  3  0  0  0  0  0  0
  187.9470  177.8000  147.0350 C   0  0  0  0  0  0  0  0  0  0  0  0
  189.2240  177.4070  147.5470 N   0  0  0  0  0  0  0  0  0  0  0  0
  184.3480  178.7120  143.5360 N   0  0  0  0  0  0  0  0  0  0  0  0
  189.6900  176.9080  144.0750 C   0  0  0  0  0  3  0  0  0  0  0  0
  185.3560  178.2920  142.8250 C   0  0  0  0  0  0  0  0  0  0  0  0
  185.6110  178.4820  145.6860 C   0  0  0  0  0  0  0  0  0  0  0  0
  184.0150  178.5530  140.6990 C   0  0  0  0  0  2  0  0  0  0  0  0
  184.3270  178.7840  139.2340 C   0  0  0  0  0  2  0  0  0  0  0  0
  185.7660  178.7970  139.0350 N   0  0  0  0  0  2  0  0  0  0  0  0
  186.0360  178.0580  137.8130 C   0  0  0  0  0  2  0  0  0  0  0  0
  188.3420  178.1070  139.2930 S   0  0  0  0  0  1  0  0  0  0  0  0
  187.4230  177.4440  137.8730 C   0  0  0  0  0  2  0  0  0  0  0  0
  1 14  1  0  0  0  0
  2  1  2  0  0  0  0
  2 19  1  0  0  0  0
  4 17  1  6  0  0  0
  4  1  1  0  0  0  0
  4  8  1  0  0  0  0
  5 18  1  0  0  0  0
  6  9  2  0  0  0  0
  7  3  1  0  0  0  0
  8  9  1  0  0  0  0
  8 15  2  0  0  0  0
 10 11  2  0  0  0  0
 10 19  1  0  0  0  0
 12  2  1  0  0  0  0
 13 17  2  0  0  0  0
 13  6  1  0  0  0  0
 14 15  1  0  0  0  0
 14  3  2  0  0  0  0
 16 10  1  0  0  0  0
 18 12  1  0  0  0  0
 18 16  2  0  0  0  0
 19  7  2  0  0  0  0
 20  5  1  0  0  0  0
 21 20  1  0  0  0  0
 22 21  1  0  0  0  0
 23 25  1  0  0  0  0
 23 22  1  0  0  0  0
 25 24  1  0  0  0  0
M  END
>  <MODEL>
1

>  <REMARK>
 VINA RESULT:      -9.2      0.000      0.000
  Name = 
  5 active torsions:
  status: ('A' for Active; 'I' for Inactive)
    1  A    between atoms: C_2  and  C_12
    2  A    between atoms: C_2  and  N_25
    3  A    between atoms: N_6  and  C_15
    4  A    between atoms: C_15  and  C_21
    5  A    between atoms: C_21  and  N_25
                            x       y       z     vdW  Elec       q    Type
                         _______ _______ _______ _____ _____    ______ ____

>  <TORSDO>
F 5

$$$$
=
 OpenBabel10272400503D

 25 28  0  0  1  0  0  0  0  0999 V2000
  187.2210  178.0280  145.3400 C   0  0  0  0  0  0  0  0  0  0  0  0
  188.4960  177.7880  144.8200 C   0  0  0  0  0  0  0  0  0  0  0  0
  187.9800  177.7700  147.6180 C   0  0  0  0  0  3  0  0  0  0  0  0
  185.9420  178.3200  144.7290 C   0  0  2  0  0  3  0  0  0  0  0  0
  190.4810  177.5210  141.5370 N   0  0  0  0  0  2  0  0  0  0  0  0
  183.2430  178.9030  144.1560 C   0  0  0  0  0  3  0  0  0  0  0  0
  189.2740  177.5240  147.1280 C   0  0  0  0  0  3  0  0  0  0  0  0
  185.0200  178.4610  145.8420 C   0  0  0  0  0  0  0  0  0  0  0  0
  183.5700  178.7710  145.6340 C   0  0  0  0  0  3  0  0  0  0  0  0
  190.8820  177.2760  145.2180 C   0  0  0  0  0  0  0  0  0  0  0  0
  191.8400  177.0430  146.0000 O   0  0  0  0  0  0  0  0  0  0  0  0
  188.7420  177.8020  143.3350 C   0  0  0  0  0  2  0  0  0  0  0  0
  184.1560  178.7580  143.1740 C   0  0  0  0  0  3  0  0  0  0  0  0
  186.9680  178.0210  146.6950 C   0  0  0  0  0  0  0  0  0  0  0  0
  185.5940  178.2910  146.9940 N   0  0  0  0  0  0  0  0  0  0  0  0
  191.1080  177.2910  143.8060 N   0  0  0  0  0  0  0  0  0  0  0  0
  185.5750  178.4510  143.4600 C   0  0  0  0  0  3  0  0  0  0  0  0
  190.1710  177.5240  142.9310 C   0  0  0  0  0  0  0  0  0  0  0  0
  189.5340  177.5310  145.7390 C   0  0  0  0  0  0  0  0  0  0  0  0
  191.8230  177.2650  141.0360 C   0  0  0  0  0  2  0  0  0  0  0  0
  191.7630  177.0050  139.5440 C   0  0  0  0  0  2  0  0  0  0  0  0
  190.7370  176.0170  139.2580 N   0  0  0  0  0  2  0  0  0  0  0  0
  190.1050  176.4060  138.0090 C   0  0  0  0  0  2  0  0  0  0  0  0
  188.9700  178.7810  137.2450 S   0  0  0  0  0  1  0  0  0  0  0  0
  188.9060  177.2940  138.2880 C   0  0  0  0  0  2  0  0  0  0  0  0
  1 14  1  0  0  0  0
  2  1  2  0  0  0  0
  2 19  1  0  0  0  0
  4 17  1  6  0  0  0
  4  1  1  0  0  0  0
  4  8  1  0  0  0  0
  5 18  1  0  0  0  0
  6  9  2  0  0  0  0
  7  3  1  0  0  0  0
  8 15  2  0  0  0  0
  9  8  1  0  0  0  0
 10 19  1  0  0  0  0
 10 11  2  0  0  0  0
 12  2  1  0  0  0  0
 13 17  2  0  0  0  0
 13  6  1  0  0  0  0
 14 15  1  0  0  0  0
 14  3  2  0  0  0  0
 16 10  1  0  0  0  0
 18 12  1  0  0  0  0
 18 16  2  0  0  0  0
 19  7  2  0  0  0  0
 20  5  1  0  0  0  0
 21 20  1  0  0  0  0
 22 21  1  0  0  0  0
 23 25  1  0  0  0  0
 23 22  1  0  0  0  0
 24 25  1  0  0  0  0
M  END
>  <MODEL>
2

>  <REMARK>
 VINA RESULT:      -9.2      3.047      5.355
  Name = 
  5 active torsions:
  status: ('A' for Active; 'I' for Inactive)
    1  A    between atoms: C_2  and  C_12
    2  A    between atoms: C_2  and  N_25
    3  A    between atoms: N_6  and  C_15
    4  A    between atoms: C_15  and  C_21
    5  A    between atoms: C_21  and  N_25
                            x       y       z     vdW  Elec       q    Type
                         _______ _______ _______ _____ _____    ______ ____

>  <TORSDO>
F 5

$$$$
=
 OpenBabel10272400503D

 25 28  0  0  1  0  0  0  0  0999 V2000
  187.3000  177.9980  145.3310 C   0  0  0  0  0  0  0  0  0  0  0  0
  188.5840  177.7590  144.8310 C   0  0  0  0  0  0  0  0  0  0  0  0
  188.0180  177.7170  147.6200 C   0  0  0  0  0  3  0  0  0  0  0  0
  186.0330  178.3000  144.7000 C   0  0  2  0  0  3  0  0  0  0  0  0
  190.6260  177.5170  141.5820 N   0  0  0  0  0  2  0  0  0  0  0  0
  183.3470  178.8970  144.0840 C   0  0  0  0  0  3  0  0  0  0  0  0
  189.3200  177.4720  147.1500 C   0  0  0  0  0  3  0  0  0  0  0  0
  185.0920  178.4330  145.7980 C   0  0  0  0  0  0  0  0  0  0  0  0
  183.6460  178.7490  145.5660 C   0  0  0  0  0  3  0  0  0  0  0  0
  190.9600  177.2370  145.2670 C   0  0  0  0  0  0  0  0  0  0  0  0
  191.9040  176.9930  146.0640 O   0  0  0  0  0  0  0  0  0  0  0  0
  188.8560  177.7860  143.3510 C   0  0  0  0  0  2  0  0  0  0  0  0
  184.2760  178.7570  143.1170 C   0  0  0  0  0  3  0  0  0  0  0  0
  187.0220  177.9800  146.6810 C   0  0  0  0  0  0  0  0  0  0  0  0
  185.6440  178.2510  146.9580 N   0  0  0  0  0  0  0  0  0  0  0  0
  191.2120  177.2640  143.8600 N   0  0  0  0  0  0  0  0  0  0  0  0
  185.6890  178.4440  143.4250 C   0  0  0  0  0  3  0  0  0  0  0  0
  190.2910  177.5080  142.9710 C   0  0  0  0  0  0  0  0  0  0  0  0
  189.6040  177.4910  145.7660 C   0  0  0  0  0  0  0  0  0  0  0  0
  191.9760  177.2620  141.1030 C   0  0  0  0  0  2  0  0  0  0  0  0
  191.9450  177.0410  139.6030 C   0  0  0  0  0  2  0  0  0  0  0  0
  193.3010  176.8940  139.1010 N   0  0  0  0  0  2  0  0  0  0  0  0
  193.1990  176.4810  137.7110 C   0  0  0  0  0  2  0  0  0  0  0  0
  194.8050  174.2870  138.0560 S   0  0  0  0  0  1  0  0  0  0  0  0
  193.1780  174.9670  137.6190 C   0  0  0  0  0  2  0  0  0  0  0  0
  1 14  1  0  0  0  0
  2  1  2  0  0  0  0
  2 19  1  0  0  0  0
  4 17  1  6  0  0  0
  4  1  1  0  0  0  0
  4  8  1  0  0  0  0
  5 18  1  0  0  0  0
  6  9  2  0  0  0  0
  7  3  1  0  0  0  0
  8 15  2  0  0  0  0
  9  8  1  0  0  0  0
 10 19  1  0  0  0  0
 10 11  2  0  0  0  0
 12  2  1  0  0  0  0
 13 17  2  0  0  0  0
 13  6  1  0  0  0  0
 14 15  1  0  0  0  0
 14  3  2  0  0  0  0
 16 10  1  0  0  0  0
 18 12  1  0  0  0  0
 18 16  2  0  0  0  0
 19  7  2  0  0  0  0
 20  5  1  0  0  0  0
 21 20  1  0  0  0  0
 22 21  1  0  0  0  0
 23 22  1  0  0  0  0
 25 23  1  0  0  0  0
 25 24  1  0  0  0  0
M  END
>  <MODEL>
3

>  <REMARK>
 VINA RESULT:      -9.0      3.883      5.919
  Name = 
  5 active torsions:
  status: ('A' for Active; 'I' for Inactive)
    1  A    between atoms: C_2  and  C_12
    2  A    between atoms: C_2  and  N_25
    3  A    between atoms: N_6  and  C_15
    4  A    between atoms: C_15  and  C_21
    5  A    between atoms: C_21  and  N_25
                            x       y       z     vdW  Elec       q    Type
                         _______ _______ _______ _____ _____    ______ ____

>  <TORSDO>
F 5

$$$$
=
 OpenBabel10272400503D

 25 28  0  0  1  0  0  0  0  0999 V2000
  187.7230  177.7830  144.4870 C   0  0  0  0  0  0  0  0  0  0  0  0
  188.5700  177.6630  143.3820 C   0  0  0  0  0  0  0  0  0  0  0  0
  189.4720  177.1680  146.0350 C   0  0  0  0  0  3  0  0  0  0  0  0
  186.3280  178.1430  144.6300 C   0  0  0  0  0  0  0  0  0  0  0  0
  188.7000  177.9950  139.5530 N   0  0  0  0  0  2  0  0  0  0  0  0
  183.7300  178.7500  145.5430 C   0  0  0  0  0  3  0  0  0  0  0  0
  190.3500  177.0370  144.9450 C   0  0  0  0  0  3  0  0  0  0  0  0
  186.0700  178.0750  146.0580 C   0  0  0  0  0  0  0  0  0  0  0  0
  184.7220  178.3810  146.6330 C   0  0  0  0  0  3  0  0  0  0  0  0
  190.8150  177.1490  142.4820 C   0  0  0  0  0  0  0  0  0  0  0  0
  192.0150  176.8120  142.6510 O   0  0  0  0  0  0  0  0  0  0  0  0
  188.0680  177.9310  141.9880 C   0  0  0  0  0  2  0  0  0  0  0  0
  184.0440  178.7920  144.2320 C   0  0  0  0  0  3  0  0  0  0  0  0
  188.1560  177.5450  145.7740 C   0  0  2  0  0  3  0  0  0  0  0  0
  187.1180  177.7290  146.7420 N   0  0  0  0  0  0  0  0  0  0  0  0
  190.3300  177.4050  141.1610 N   0  0  0  0  0  0  0  0  0  0  0  0
  185.4020  178.4760  143.7390 C   0  0  0  0  0  3  0  0  0  0  0  0
  189.1030  177.7580  140.9020 C   0  0  0  0  0  0  0  0  0  0  0  0
  189.9050  177.2820  143.6260 C   0  0  0  0  0  0  0  0  0  0  0  0
  189.6130  177.8580  138.4290 C   0  0  0  0  0  2  0  0  0  0  0  0
  189.0950  178.6660  137.2560 C   0  0  0  0  0  2  0  0  0  0  0  0
  187.6680  178.8920  137.4070 N   0  0  0  0  0  2  0  0  0  0  0  0
  186.9990  178.1030  136.3870 C   0  0  0  0  0  2  0  0  0  0  0  0
  185.1910  178.3310  138.4340 S   0  0  0  0  0  1  0  0  0  0  0  0
  185.7790  177.4190  136.9770 C   0  0  0  0  0  2  0  0  0  0  0  0
  1  4  2  0  0  0  0
  1 14  1  0  0  0  0
  2 19  2  0  0  0  0
  2  1  1  0  0  0  0
  4  8  1  0  0  0  0
  5 18  1  0  0  0  0
  6  9  2  0  0  0  0
  7  3  2  0  0  0  0
  8  9  1  0  0  0  0
  8 15  2  0  0  0  0
 10 11  2  0  0  0  0
 10 19  1  0  0  0  0
 12  2  1  0  0  0  0
 13  6  1  0  0  0  0
 14  3  1  6  0  0  0
 14 15  1  0  0  0  0
 16 10  1  0  0  0  0
 17 13  2  0  0  0  0
 17  4  1  0  0  0  0
 18 16  2  0  0  0  0
 18 12  1  0  0  0  0
 19  7  1  0  0  0  0
 20  5  1  0  0  0  0
 21 22  1  0  0  0  0
 21 20  1  0  0  0  0
 23 25  1  0  0  0  0
 23 22  1  0  0  0  0
 25 24  1  0  0  0  0
M  END
>  <MODEL>
4

>  <REMARK>
 VINA RESULT:      -8.9      2.760      4.925
  Name = 
  5 active torsions:
  status: ('A' for Active; 'I' for Inactive)
    1  A    between atoms: C_2  and  C_12
    2  A    between atoms: C_2  and  N_25
    3  A    between atoms: N_6  and  C_15
    4  A    between atoms: C_15  and  C_21
    5  A    between atoms: C_21  and  N_25
                            x       y       z     vdW  Elec       q    Type
                         _______ _______ _______ _____ _____    ______ ____

>  <TORSDO>
F 5

$$$$
=
 OpenBabel10272400503D

 25 28  0  0  1  0  0  0  0  0999 V2000
  187.9280  177.6490  145.5350 C   0  0  0  0  0  0  0  0  0  0  0  0
  186.7460  178.0020  144.8780 C   0  0  0  0  0  0  0  0  0  0  0  0
  186.9850  178.0960  147.7120 C   0  0  0  0  0  3  0  0  0  0  0  0
  189.2200  177.1900  145.0690 C   0  0  1  0  0  3  0  0  0  0  0  0
  185.1340  178.3270  141.4020 N   0  0  0  0  0  2  0  0  0  0  0  0
  191.8780  176.2880  144.7970 C   0  0  0  0  0  3  0  0  0  0  0  0
  185.7810  178.4580  147.0840 C   0  0  0  0  0  3  0  0  0  0  0  0
  190.0060  177.0020  146.2750 C   0  0  0  0  0  0  0  0  0  0  0  0
  191.4260  176.5260  146.2280 C   0  0  0  0  0  3  0  0  0  0  0  0
  184.4070  178.7890  145.0110 C   0  0  0  0  0  0  0  0  0  0  0  0
  183.4090  179.1630  145.6820 O   0  0  0  0  0  0  0  0  0  0  0  0
  186.6460  177.9440  143.3780 C   0  0  0  0  0  2  0  0  0  0  0  0
  191.0880  176.4860  143.7220 C   0  0  0  0  0  3  0  0  0  0  0  0
  188.0480  177.6920  146.9080 C   0  0  0  0  0  0  0  0  0  0  0  0
  189.3460  177.2880  147.3550 N   0  0  0  0  0  0  0  0  0  0  0  0
  184.3190  178.7320  143.5850 N   0  0  0  0  0  0  0  0  0  0  0  0
  189.6920  176.9580  143.8490 C   0  0  0  0  0  3  0  0  0  0  0  0
  185.3050  178.3570  142.8200 C   0  0  0  0  0  0  0  0  0  0  0  0
  185.6590  178.4130  145.6760 C   0  0  0  0  0  0  0  0  0  0  0  0
  183.8860  178.7040  140.7580 C   0  0  0  0  0  2  0  0  0  0  0  0
  184.1510  179.0420  139.3040 C   0  0  0  0  0  2  0  0  0  0  0  0
  183.6050  180.3520  138.9970 N   0  0  0  0  0  2  0  0  0  0  0  0
  182.2360  180.1520  138.5500 C   0  0  0  0  0  2  0  0  0  0  0  0
  180.7340  181.7170  136.8760 S   0  0  0  0  0  1  0  0  0  0  0  0
  181.5050  181.4810  138.5040 C   0  0  0  0  0  2  0  0  0  0  0  0
  1 14  1  0  0  0  0
  2  1  2  0  0  0  0
  2 19  1  0  0  0  0
  4 17  1  1  0  0  0
  4  1  1  0  0  0  0
  4  8  1  0  0  0  0
  5 18  1  0  0  0  0
  6  9  2  0  0  0  0
  7  3  1  0  0  0  0
  8 15  2  0  0  0  0
  9  8  1  0  0  0  0
 10 19  1  0  0  0  0
 10 11  2  0  0  0  0
 12  2  1  0  0  0  0
 13 17  2  0  0  0  0
 13  6  1  0  0  0  0
 14 15  1  0  0  0  0
 14  3  2  0  0  0  0
 16 10  1  0  0  0  0
 18 12  1  0  0  0  0
 18 16  2  0  0  0  0
 19  7  2  0  0  0  0
 20  5  1  0  0  0  0
 21 20  1  0  0  0  0
 22 21  1  0  0  0  0
 23 22  1  0  0  0  0
 24 25  1  0  0  0  0
 25 23  1  0  0  0  0
M  END
>  <MODEL>
5

>  <REMARK>
 VINA RESULT:      -8.8      2.071      2.497
  Name = 
  5 active torsions:
  status: ('A' for Active; 'I' for Inactive)
    1  A    between atoms: C_2  and  C_12
    2  A    between atoms: C_2  and  N_25
    3  A    between atoms: N_6  and  C_15
    4  A    between atoms: C_15  and  C_21
    5  A    between atoms: C_21  and  N_25
                            x       y       z     vdW  Elec       q    Type
                         _______ _______ _______ _____ _____    ______ ____

>  <TORSDO>
F 5

$$$$
=
 OpenBabel10272400503D

 25 28  0  0  1  0  0  0  0  0999 V2000
  187.1870  177.7840  144.5190 C   0  0  0  0  0  0  0  0  0  0  0  0
  188.3230  177.4210  143.7910 C   0  0  0  0  0  0  0  0  0  0  0  0
  188.3050  177.4700  146.6360 C   0  0  0  0  0  3  0  0  0  0  0  0
  185.8520  178.1920  144.1330 C   0  0  2  0  0  3  0  0  0  0  0  0
  189.6710  176.9480  140.2200 N   0  0  0  0  0  2  0  0  0  0  0  0
  183.1600  179.0240  144.0240 C   0  0  0  0  0  3  0  0  0  0  0  0
  189.4650  177.0990  145.9340 C   0  0  0  0  0  3  0  0  0  0  0  0
  185.1570  178.4260  145.3860 C   0  0  0  0  0  0  0  0  0  0  0  0
  183.7270  178.8700  145.4250 C   0  0  0  0  0  3  0  0  0  0  0  0
  190.6840  176.6890  143.7810 C   0  0  0  0  0  0  0  0  0  0  0  0
  191.7390  176.3710  144.3890 O   0  0  0  0  0  0  0  0  0  0  0  0
  188.3060  177.4030  142.2860 C   0  0  0  0  0  2  0  0  0  0  0  0
  183.8700  178.7870  142.9020 C   0  0  0  0  0  3  0  0  0  0  0  0
  187.1740  177.8090  145.8970 C   0  0  0  0  0  0  0  0  0  0  0  0
  185.9050  178.2100  146.4240 N   0  0  0  0  0  0  0  0  0  0  0  0
  190.6610  176.6740  142.3510 N   0  0  0  0  0  0  0  0  0  0  0  0
  185.2830  178.3500  142.9440 C   0  0  0  0  0  3  0  0  0  0  0  0
  189.6100  176.9890  141.6470 C   0  0  0  0  0  0  0  0  0  0  0  0
  189.4780  177.0740  144.5210 C   0  0  0  0  0  0  0  0  0  0  0  0
  190.8740  176.5640  139.5000 C   0  0  0  0  0  2  0  0  0  0  0  0
  190.4920  175.9550  138.1660 C   0  0  0  0  0  2  0  0  0  0  0  0
  191.0440  174.6160  138.0600 N   0  0  0  0  0  2  0  0  0  0  0  0
  191.6000  174.4870  136.7230 C   0  0  0  0  0  2  0  0  0  0  0  0
  194.1320  174.7760  137.7320 S   0  0  0  0  0  1  0  0  0  0  0  0
  192.9420  173.7820  136.7840 C   0  0  0  0  0  2  0  0  0  0  0  0
  1 14  1  0  0  0  0
  2  1  2  0  0  0  0
  2 19  1  0  0  0  0
  4 17  1  1  0  0  0
  4  1  1  0  0  0  0
  4  8  1  0  0  0  0
  5 18  1  0  0  0  0
  6  9  2  0  0  0  0
  7  3  1  0  0  0  0
  8  9  1  0  0  0  0
  8 15  2  0  0  0  0
 10 11  2  0  0  0  0
 10 19  1  0  0  0  0
 12  2  1  0  0  0  0
 13 17  2  0  0  0  0
 13  6  1  0  0  0  0
 14 15  1  0  0  0  0
 14  3  2  0  0  0  0
 16 10  1  0  0  0  0
 18 12  1  0  0  0  0
 18 16  2  0  0  0  0
 19  7  2  0  0  0  0
 20  5  1  0  0  0  0
 21 20  1  0  0  0  0
 22 21  1  0  0  0  0
 23 25  1  0  0  0  0
 23 22  1  0  0  0  0
 25 24  1  0  0  0  0
M  END
>  <MODEL>
6

>  <REMARK>
 VINA RESULT:      -8.7      3.770      5.769
  Name = 
  5 active torsions:
  status: ('A' for Active; 'I' for Inactive)
    1  A    between atoms: C_2  and  C_12
    2  A    between atoms: C_2  and  N_25
    3  A    between atoms: N_6  and  C_15
    4  A    between atoms: C_15  and  C_21
    5  A    between atoms: C_21  and  N_25
                            x       y       z     vdW  Elec       q    Type
                         _______ _______ _______ _____ _____    ______ ____

>  <TORSDO>
F 5

$$$$
=
 OpenBabel10272400503D

 25 28  0  0  1  0  0  0  0  0999 V2000
  186.2990  178.2890  144.5300 C   0  0  0  0  0  0  0  0  0  0  0  0
  186.2240  178.4130  143.1400 C   0  0  0  0  0  0  0  0  0  0  0  0
  183.9740  178.8740  144.8200 C   0  0  0  0  0  3  0  0  0  0  0  0
  187.3730  177.9390  145.4360 C   0  0  2  0  0  3  0  0  0  0  0  0
  188.2870  178.1200  139.9080 N   0  0  0  0  0  2  0  0  0  0  0  0
  189.0070  177.3440  147.6560 C   0  0  0  0  0  3  0  0  0  0  0  0
  183.8650  179.0090  143.4250 C   0  0  0  0  0  3  0  0  0  0  0  0
  186.7770  177.9950  146.7590 C   0  0  0  0  0  0  0  0  0  0  0  0
  187.5680  177.6940  147.9960 C   0  0  0  0  0  3  0  0  0  0  0  0
  184.8760  178.9180  141.1310 C   0  0  0  0  0  0  0  0  0  0  0  0
  183.7860  179.2440  140.5920 O   0  0  0  0  0  0  0  0  0  0  0  0
  187.4300  178.1650  142.2740 C   0  0  0  0  0  2  0  0  0  0  0  0
  189.4900  177.3140  146.3980 C   0  0  0  0  0  3  0  0  0  0  0  0
  185.2110  178.5110  145.3480 C   0  0  0  0  0  0  0  0  0  0  0  0
  185.5220  178.3250  146.7320 N   0  0  0  0  0  0  0  0  0  0  0  0
  186.0250  178.6800  140.3150 N   0  0  0  0  0  0  0  0  0  0  0  0
  188.6450  177.6230  145.2240 C   0  0  0  0  0  3  0  0  0  0  0  0
  187.1880  178.3400  140.7940 C   0  0  0  0  0  0  0  0  0  0  0  0
  184.9810  178.7810  142.5880 C   0  0  0  0  0  0  0  0  0  0  0  0
  188.1670  178.2610  138.4650 C   0  0  0  0  0  2  0  0  0  0  0  0
  189.3940  177.6730  137.7970 C   0  0  0  0  0  2  0  0  0  0  0  0
  189.1740  176.2640  137.5190 N   0  0  0  0  0  2  0  0  0  0  0  0
  190.4400  175.5820  137.7340 C   0  0  0  0  0  2  0  0  0  0  0  0
  193.0770  176.3240  137.8080 S   0  0  0  0  0  1  0  0  0  0  0  0
  191.3980  176.4910  138.4820 C   0  0  0  0  0  2  0  0  0  0  0  0
  1 14  2  0  0  0  0
  1  4  1  0  0  0  0
  2  1  1  0  0  0  0
  3 14  1  0  0  0  0
  4 17  1  1  0  0  0
  4  8  1  0  0  0  0
  5 18  1  0  0  0  0
  6  9  2  0  0  0  0
  7  3  2  0  0  0  0
  8  9  1  0  0  0  0
 10 19  1  0  0  0  0
 11 10  2  0  0  0  0
 12  2  1  0  0  0  0
 13  6  1  0  0  0  0
 14 15  1  0  0  0  0
 15  8  2  0  0  0  0
 16 18  2  0  0  0  0
 16 10  1  0  0  0  0
 17 13  2  0  0  0  0
 18 12  1  0  0  0  0
 19  2  2  0  0  0  0
 19  7  1  0  0  0  0
 20  5  1  0  0  0  0
 21 20  1  0  0  0  0
 22 23  1  0  0  0  0
 22 21  1  0  0  0  0
 23 25  1  0  0  0  0
 24 25  1  0  0  0  0
M  END
>  <MODEL>
7

>  <REMARK>
 VINA RESULT:      -8.5      2.443      3.764
  Name = 
  5 active torsions:
  status: ('A' for Active; 'I' for Inactive)
    1  A    between atoms: C_2  and  C_12
    2  A    between atoms: C_2  and  N_25
    3  A    between atoms: N_6  and  C_15
    4  A    between atoms: C_15  and  C_21
    5  A    between atoms: C_21  and  N_25
                            x       y       z     vdW  Elec       q    Type
                         _______ _______ _______ _____ _____    ______ ____

>  <TORSDO>
F 5

$$$$
=
 OpenBabel10272400503D

 25 28  0  0  1  0  0  0  0  0999 V2000
  186.8500  178.0030  145.0180 C   0  0  0  0  0  0  0  0  0  0  0  0
  185.9520  178.3250  143.9980 C   0  0  0  0  0  0  0  0  0  0  0  0
  185.1780  178.2940  146.7360 C   0  0  0  0  0  3  0  0  0  0  0  0
  188.2510  177.6340  145.0240 C   0  0  0  0  0  0  0  0  0  0  0  0
  185.6380  178.7340  140.1870 N   0  0  0  0  0  2  0  0  0  0  0  0
  190.8890  176.8860  145.6800 C   0  0  0  0  0  3  0  0  0  0  0  0
  184.2490  178.6240  145.7340 C   0  0  0  0  0  3  0  0  0  0  0  0
  188.5760  177.4290  146.4240 C   0  0  0  0  0  0  0  0  0  0  0  0
  189.9510  177.0310  146.8660 C   0  0  0  0  0  3  0  0  0  0  0  0
  183.6670  178.9830  143.3210 C   0  0  0  0  0  0  0  0  0  0  0  0
  182.4760  179.2710  143.6070 O   0  0  0  0  0  0  0  0  0  0  0  0
  186.3860  178.3350  142.5570 C   0  0  0  0  0  2  0  0  0  0  0  0
  190.5130  177.0940  144.4020 C   0  0  0  0  0  3  0  0  0  0  0  0
  186.4790  177.9860  146.3460 C   0  0  2  0  0  3  0  0  0  0  0  0
  187.5630  177.6280  147.2110 N   0  0  0  0  0  0  0  0  0  0  0  0
  184.0870  178.9900  141.9540 N   0  0  0  0  0  0  0  0  0  0  0  0
  189.1330  177.4870  144.0430 C   0  0  0  0  0  3  0  0  0  0  0  0
  185.3000  178.7040  141.5750 C   0  0  0  0  0  0  0  0  0  0  0  0
  184.6300  178.6410  144.3730 C   0  0  0  0  0  0  0  0  0  0  0  0
  184.6720  179.0760  139.1550 C   0  0  0  0  0  2  0  0  0  0  0  0
  184.3140  177.8320  138.3660 C   0  0  0  0  0  2  0  0  0  0  0  0
  183.2120  177.1410  139.0130 N   0  0  0  0  0  2  0  0  0  0  0  0
  182.0030  177.4900  138.2850 C   0  0  0  0  0  2  0  0  0  0  0  0
  180.9080  179.2290  140.0980 S   0  0  0  0  0  1  0  0  0  0  0  0
  180.8380  177.6250  139.2490 C   0  0  0  0  0  2  0  0  0  0  0  0
  1  4  2  0  0  0  0
  1 14  1  0  0  0  0
  2 19  2  0  0  0  0
  2  1  1  0  0  0  0
  4  8  1  0  0  0  0
  5 18  1  0  0  0  0
  6  9  2  0  0  0  0
  7  3  2  0  0  0  0
  8  9  1  0  0  0  0
  8 15  2  0  0  0  0
 10 11  2  0  0  0  0
 10 19  1  0  0  0  0
 12  2  1  0  0  0  0
 13  6  1  0  0  0  0
 14  3  1  1  0  0  0
 14 15  1  0  0  0  0
 16 10  1  0  0  0  0
 17 13  2  0  0  0  0
 17  4  1  0  0  0  0
 18 16  2  0  0  0  0
 18 12  1  0  0  0  0
 19  7  1  0  0  0  0
 20  5  1  0  0  0  0
 21 22  1  0  0  0  0
 21 20  1  0  0  0  0
 23 22  1  0  0  0  0
 23 25  1  0  0  0  0
 25 24  1  0  0  0  0
M  END
>  <MODEL>
8

>  <REMARK>
 VINA RESULT:      -8.5      2.142      2.656
  Name = 
  5 active torsions:
  status: ('A' for Active; 'I' for Inactive)
    1  A    between atoms: C_2  and  C_12
    2  A    between atoms: C_2  and  N_25
    3  A    between atoms: N_6  and  C_15
    4  A    between atoms: C_15  and  C_21
    5  A    between atoms: C_21  and  N_25
                            x       y       z     vdW  Elec       q    Type
                         _______ _______ _______ _____ _____    ______ ____

>  <TORSDO>
F 5

$$$$
=
 OpenBabel10272400503D

 25 28  0  0  1  0  0  0  0  0999 V2000
  186.4310  178.3340  144.5620 C   0  0  0  0  0  0  0  0  0  0  0  0
  186.4360  178.4770  143.1720 C   0  0  0  0  0  0  0  0  0  0  0  0
  184.1070  178.9660  144.7310 C   0  0  0  0  0  3  0  0  0  0  0  0
  187.4460  177.9510  145.5220 C   0  0  1  0  0  3  0  0  0  0  0  0
  188.6690  178.1790  140.0550 N   0  0  0  0  0  2  0  0  0  0  0  0
  188.9410  177.2940  147.8200 C   0  0  0  0  0  3  0  0  0  0  0  0
  184.0780  179.1200  143.3340 C   0  0  0  0  0  3  0  0  0  0  0  0
  186.7790  178.0030  146.8100 C   0  0  0  0  0  0  0  0  0  0  0  0
  187.4930  177.6710  148.0840 C   0  0  0  0  0  3  0  0  0  0  0  0
  185.2120  179.0350  141.0980 C   0  0  0  0  0  0  0  0  0  0  0  0
  184.1610  179.3910  140.5040 O   0  0  0  0  0  0  0  0  0  0  0  0
  187.6830  178.2130  142.3710 C   0  0  0  0  0  2  0  0  0  0  0  0
  189.4930  177.2680  146.5900 C   0  0  0  0  0  3  0  0  0  0  0  0
  185.3040  178.5700  145.3210 C   0  0  0  0  0  0  0  0  0  0  0  0
  185.5340  178.3610  146.7190 N   0  0  0  0  0  0  0  0  0  0  0  0
  186.4000  178.7820  140.3430 N   0  0  0  0  0  0  0  0  0  0  0  0
  188.7210  177.6100  145.3750 C   0  0  0  0  0  3  0  0  0  0  0  0
  187.5270  178.4110  140.8810 C   0  0  0  0  0  0  0  0  0  0  0  0
  185.2330  178.8780  142.5570 C   0  0  0  0  0  0  0  0  0  0  0  0
  188.6320  178.3390  138.6100 C   0  0  0  0  0  2  0  0  0  0  0  0
  188.8430  176.9930  137.9460 C   0  0  0  0  0  2  0  0  0  0  0  0
  187.9750  176.8740  136.7880 N   0  0  0  0  0  2  0  0  0  0  0  0
  186.6620  176.4850  137.2750 C   0  0  0  0  0  2  0  0  0  0  0  0
  184.0490  177.2700  137.5350 S   0  0  0  0  0  1  0  0  0  0  0  0
  185.5870  177.2890  136.5680 C   0  0  0  0  0  2  0  0  0  0  0  0
  1 14  2  0  0  0  0
  1  4  1  0  0  0  0
  2  1  1  0  0  0  0
  3 14  1  0  0  0  0
  4 17  1  6  0  0  0
  4  8  1  0  0  0  0
  5 18  1  0  0  0  0
  6  9  2  0  0  0  0
  7  3  2  0  0  0  0
  8  9  1  0  0  0  0
 10 19  1  0  0  0  0
 11 10  2  0  0  0  0
 12  2  1  0  0  0  0
 13  6  1  0  0  0  0
 14 15  1  0  0  0  0
 15  8  2  0  0  0  0
 16 18  2  0  0  0  0
 16 10  1  0  0  0  0
 17 13  2  0  0  0  0
 18 12  1  0  0  0  0
 19  2  2  0  0  0  0
 19  7  1  0  0  0  0
 20  5  1  0  0  0  0
 21 20  1  0  0  0  0
 22 23  1  0  0  0  0
 22 21  1  0  0  0  0
 25 23  1  0  0  0  0
 25 24  1  0  0  0  0
M  END
>  <MODEL>
9

>  <REMARK>
 VINA RESULT:      -8.5      2.204      3.554
  Name = 
  5 active torsions:
  status: ('A' for Active; 'I' for Inactive)
    1  A    between atoms: C_2  and  C_12
    2  A    between atoms: C_2  and  N_25
    3  A    between atoms: N_6  and  C_15
    4  A    between atoms: C_15  and  C_21
    5  A    between atoms: C_21  and  N_25
                            x       y       z     vdW  Elec       q    Type
                         _______ _______ _______ _____ _____    ______ ____

>  <TORSDO>
F 5

$$$$
