=
 OpenBabel10272400533D

 25 26  0  0  1  0  0  0  0  0999 V2000
  189.5870  176.6610  142.8910 C   0  0  2  0  0  3  0  0  0  0  0  0
  189.8460  177.4920  144.1580 C   0  0  1  0  0  3  0  0  0  0  0  0
  192.3360  174.9060  144.1750 O   0  0  0  0  0  0  0  0  0  0  0  0
  191.3970  175.7180  143.9710 C   0  0  0  0  0  0  0  0  0  0  0  0
  191.1810  176.7120  146.2520 C   0  0  0  0  0  0  0  0  0  0  0  0
  192.2080  176.3180  146.7820 O   0  0  0  0  0  0  0  0  0  0  0  0
  188.6390  177.3310  145.0780 C   0  0  0  0  0  2  0  0  0  0  0  0
  190.5120  175.5860  142.9240 O   0  0  0  0  0  0  0  0  0  0  0  0
  189.9760  176.9470  147.1200 C   0  0  0  0  0  2  0  0  0  0  0  0
  188.9630  177.8680  146.4560 C   0  0  2  0  0  3  0  0  0  0  0  0
  191.1700  176.9530  144.7560 C   0  0  2  0  0  3  0  0  0  0  0  0
  189.7460  177.5080  141.6210 C   0  0  1  0  0  3  0  0  0  0  0  0
  190.6850  176.8760  140.5850 C   0  0  1  0  0  3  0  0  0  0  0  0
  190.1590  176.9790  139.2940 O   0  0  0  0  0  1  0  0  0  0  0  0
  192.8620  177.0840  139.5200 N   0  0  0  0  0  1  0  0  0  0  0  0
  192.0570  177.5260  140.6440 C   0  0  0  0  0  2  0  0  0  0  0  0
  187.6800  178.6610  141.6000 O   0  0  0  0  0  0  0  0  0  0  0  0
  188.4090  177.8590  141.0380 C   0  0  0  0  0  3  0  0  0  0  0  0
  187.6920  177.9270  147.2830 C   0  0  0  0  0  2  0  0  0  0  0  0
  186.4880  177.5630  146.4310 C   0  0  0  0  0  2  0  0  0  0  0  0
  185.5510  178.7190  146.3580 C   0  0  0  0  0  0  0  0  0  0  0  0
  185.6050  179.6160  147.2410 O   0  0  0  0  0  0  0  0  0  0  0  0
  184.5900  178.8290  145.2530 C   0  0  0  0  0  0  0  0  0  0  0  0
  183.4010  179.1800  145.4800 O   0  0  0  0  0  1  0  0  0  0  0  0
  184.9840  178.5470  143.9520 O   0  0  0  0  0  0  0  0  0  0  0  0
  1 12  1  6  0  0  0
  1  8  1  0  0  0  0
  1  2  1  0  0  0  0
  2 11  1  0  0  0  0
  2  7  1  1  0  0  0
  4  3  2  0  0  0  0
  5  6  2  0  0  0  0
  5  9  1  0  0  0  0
  7 10  1  0  0  0  0
  8  4  1  0  0  0  0
 10  9  1  0  0  0  0
 10 19  1  1  0  0  0
 11  4  1  6  0  0  0
 11  5  1  0  0  0  0
 12 18  1  6  0  0  0
 13 14  1  6  0  0  0
 13 16  1  0  0  0  0
 13 12  1  0  0  0  0
 15 16  1  0  0  0  0
 18 17  2  0  0  0  0
 20 19  1  0  0  0  0
 21 20  1  0  0  0  0
 21 22  2  0  0  0  0
 23 24  1  0  0  0  0
 23 21  1  0  0  0  0
 25 23  2  0  0  0  0
M  END
>  <MODEL>
1

>  <REMARK>
 VINA RESULT:      -8.3      0.000      0.000
  Name = 
  8 active torsions:
  status: ('A' for Active; 'I' for Inactive)
    1  A    between atoms: C_1  and  C_5
    2  A    between atoms: C_2  and  C_21
    3  A    between atoms: C_5  and  C_10
    4  A    between atoms: C_5  and  C_22
    5  A    between atoms: C_6  and  C_15
    6  A    between atoms: C_6  and  C_23
    7  A    between atoms: C_10  and  C_11
    8  A    between atoms: C_15  and  C_21
                            x       y       z     vdW  Elec       q    Type
                         _______ _______ _______ _____ _____    ______ ____

>  <TORSDO>
F 8

$$$$
=
 OpenBabel10272400533D

 25 26  0  0  1  0  0  0  0  0999 V2000
  189.8020  176.1130  142.8780 C   0  0  2  0  0  3  0  0  0  0  0  0
  190.0600  177.0860  144.0400 C   0  0  1  0  0  3  0  0  0  0  0  0
  192.4920  174.4700  144.4110 O   0  0  0  0  0  0  0  0  0  0  0  0
  191.5740  175.2700  144.0950 C   0  0  0  0  0  0  0  0  0  0  0  0
  191.3470  176.5370  146.2360 C   0  0  0  0  0  0  0  0  0  0  0  0
  192.3570  176.1890  146.8270 O   0  0  0  0  0  0  0  0  0  0  0  0
  188.8370  177.0620  144.9510 C   0  0  0  0  0  2  0  0  0  0  0  0
  190.7020  175.0310  143.0570 O   0  0  0  0  0  0  0  0  0  0  0  0
  190.1350  176.9000  147.0480 C   0  0  0  0  0  2  0  0  0  0  0  0
  189.1520  177.7550  146.2600 C   0  0  2  0  0  3  0  0  0  0  0  0
  191.3640  176.5960  144.7220 C   0  0  2  0  0  3  0  0  0  0  0  0
  189.9980  176.7960  141.5180 C   0  0  1  0  0  3  0  0  0  0  0  0
  188.7140  177.4350  140.9700 C   0  0  1  0  0  3  0  0  0  0  0  0
  188.5500  178.7370  141.4530 O   0  0  0  0  0  1  0  0  0  0  0  0
  188.4130  178.7670  138.9570 N   0  0  0  0  0  1  0  0  0  0  0  0
  188.7280  177.4380  139.4510 C   0  0  0  0  0  2  0  0  0  0  0  0
  192.2310  177.4600  141.1030 O   0  0  0  0  0  0  0  0  0  0  0  0
  191.1420  177.7660  141.5630 C   0  0  0  0  0  3  0  0  0  0  0  0
  187.8710  177.9390  147.0520 C   0  0  0  0  0  2  0  0  0  0  0  0
  186.6670  177.5620  146.2060 C   0  0  0  0  0  2  0  0  0  0  0  0
  185.6670  178.6660  146.2270 C   0  0  0  0  0  0  0  0  0  0  0  0
  185.6490  179.4660  147.2000 O   0  0  0  0  0  0  0  0  0  0  0  0
  184.7270  178.8400  145.1120 C   0  0  0  0  0  0  0  0  0  0  0  0
  185.1160  178.6770  143.9250 O   0  0  0  0  0  0  0  0  0  0  0  0
  183.4050  179.1860  145.3580 O   0  0  0  0  0  1  0  0  0  0  0  0
  1 12  1  6  0  0  0
  1  8  1  0  0  0  0
  1  2  1  0  0  0  0
  2 11  1  0  0  0  0
  2  7  1  1  0  0  0
  4  3  2  0  0  0  0
  5  6  2  0  0  0  0
  5  9  1  0  0  0  0
  7 10  1  0  0  0  0
  8  4  1  0  0  0  0
 10  9  1  0  0  0  0
 10 19  1  1  0  0  0
 11  4  1  6  0  0  0
 11  5  1  0  0  0  0
 12 18  1  1  0  0  0
 13 14  1  1  0  0  0
 13 12  1  0  0  0  0
 15 16  1  0  0  0  0
 16 13  1  0  0  0  0
 17 18  2  0  0  0  0
 20 21  1  0  0  0  0
 20 19  1  0  0  0  0
 21 22  2  0  0  0  0
 23 25  1  0  0  0  0
 23 21  1  0  0  0  0
 24 23  2  0  0  0  0
M  END
>  <MODEL>
2

>  <REMARK>
 VINA RESULT:      -8.3      1.252      1.935
  Name = 
  8 active torsions:
  status: ('A' for Active; 'I' for Inactive)
    1  A    between atoms: C_1  and  C_5
    2  A    between atoms: C_2  and  C_21
    3  A    between atoms: C_5  and  C_10
    4  A    between atoms: C_5  and  C_22
    5  A    between atoms: C_6  and  C_15
    6  A    between atoms: C_6  and  C_23
    7  A    between atoms: C_10  and  C_11
    8  A    between atoms: C_15  and  C_21
                            x       y       z     vdW  Elec       q    Type
                         _______ _______ _______ _____ _____    ______ ____

>  <TORSDO>
F 8

$$$$
=
 OpenBabel10272400533D

 25 26  0  0  1  0  0  0  0  0999 V2000
  188.5200  178.0970  142.2310 C   0  0  2  0  0  3  0  0  0  0  0  0
  187.5380  177.4430  143.2160 C   0  0  1  0  0  3  0  0  0  0  0  0
  185.5310  179.5330  141.0950 O   0  0  0  0  0  0  0  0  0  0  0  0
  186.4090  178.8730  141.7090 C   0  0  0  0  0  0  0  0  0  0  0  0
  185.1470  178.3010  143.7870 C   0  0  0  0  0  0  0  0  0  0  0  0
  184.0070  178.5900  143.4610 O   0  0  0  0  0  0  0  0  0  0  0  0
  187.8710  177.9510  144.6150 C   0  0  0  0  0  2  0  0  0  0  0  0
  187.7540  178.9900  141.4380 O   0  0  0  0  0  0  0  0  0  0  0  0
  185.5240  178.4150  145.2380 C   0  0  0  0  0  2  0  0  0  0  0  0
  186.7580  177.5890  145.5760 C   0  0  2  0  0  3  0  0  0  0  0  0
  186.1210  177.8330  142.7240 C   0  0  2  0  0  3  0  0  0  0  0  0
  189.2390  177.0480  141.3730 C   0  0  1  0  0  3  0  0  0  0  0  0
  189.6550  177.5760  139.9930 C   0  0  1  0  0  3  0  0  0  0  0  0
  191.0370  177.4670  139.8040 O   0  0  0  0  0  1  0  0  0  0  0  0
  187.8350  177.6530  138.3810 N   0  0  0  0  0  1  0  0  0  0  0  0
  188.9170  176.8310  138.8930 C   0  0  0  0  0  2  0  0  0  0  0  0
  190.2520  175.3730  142.7010 O   0  0  0  0  0  0  0  0  0  0  0  0
  190.3880  176.4370  142.1200 C   0  0  0  0  0  3  0  0  0  0  0  0
  187.2050  177.8800  146.9960 C   0  0  0  0  0  2  0  0  0  0  0  0
  188.2020  176.8320  147.4620 C   0  0  0  0  0  2  0  0  0  0  0  0
  189.5030  177.4800  147.7900 C   0  0  0  0  0  0  0  0  0  0  0  0
  189.5320  178.4210  148.6270 O   0  0  0  0  0  0  0  0  0  0  0  0
  190.7460  177.0100  147.1670 C   0  0  0  0  0  0  0  0  0  0  0  0
  190.7670  176.7030  145.9450 O   0  0  0  0  0  0  0  0  0  0  0  0
  191.9090  176.8990  147.9200 O   0  0  0  0  0  1  0  0  0  0  0  0
  1 12  1  6  0  0  0
  1  2  1  0  0  0  0
  2  7  1  1  0  0  0
  3  4  2  0  0  0  0
  5  9  1  0  0  0  0
  6  5  2  0  0  0  0
  7 10  1  0  0  0  0
  8  4  1  0  0  0  0
  8  1  1  0  0  0  0
  9 10  1  0  0  0  0
 10 19  1  1  0  0  0
 11  4  1  6  0  0  0
 11  2  1  0  0  0  0
 11  5  1  0  0  0  0
 12 18  1  1  0  0  0
 13 14  1  6  0  0  0
 13 12  1  0  0  0  0
 15 16  1  0  0  0  0
 16 13  1  0  0  0  0
 18 17  2  0  0  0  0
 19 20  1  0  0  0  0
 20 21  1  0  0  0  0
 21 22  2  0  0  0  0
 23 21  1  0  0  0  0
 23 25  1  0  0  0  0
 24 23  2  0  0  0  0
M  END
>  <MODEL>
3

>  <REMARK>
 VINA RESULT:      -7.9      1.960      4.997
  Name = 
  8 active torsions:
  status: ('A' for Active; 'I' for Inactive)
    1  A    between atoms: C_1  and  C_5
    2  A    between atoms: C_2  and  C_21
    3  A    between atoms: C_5  and  C_10
    4  A    between atoms: C_5  and  C_22
    5  A    between atoms: C_6  and  C_15
    6  A    between atoms: C_6  and  C_23
    7  A    between atoms: C_10  and  C_11
    8  A    between atoms: C_15  and  C_21
                            x       y       z     vdW  Elec       q    Type
                         _______ _______ _______ _____ _____    ______ ____

>  <TORSDO>
F 8

$$$$
=
 OpenBabel10272400533D

 25 26  0  0  1  0  0  0  0  0999 V2000
  189.4140  176.6970  142.0060 C   0  0  2  0  0  3  0  0  0  0  0  0
  189.2340  177.5880  143.2450 C   0  0  1  0  0  3  0  0  0  0  0  0
  191.9440  175.3700  144.0360 O   0  0  0  0  0  0  0  0  0  0  0  0
  190.9930  176.0390  143.5560 C   0  0  0  0  0  0  0  0  0  0  0  0
  190.0790  177.0520  145.6490 C   0  0  0  0  0  0  0  0  0  0  0  0
  190.9790  176.8170  146.4400 O   0  0  0  0  0  0  0  0  0  0  0  0
  187.8630  177.2860  143.8430 C   0  0  0  0  0  2  0  0  0  0  0  0
  190.4280  175.7590  142.3320 O   0  0  0  0  0  0  0  0  0  0  0  0
  188.6730  177.1420  146.1730 C   0  0  0  0  0  2  0  0  0  0  0  0
  187.7550  177.8980  145.2240 C   0  0  2  0  0  3  0  0  0  0  0  0
  190.4200  177.2510  144.1850 C   0  0  2  0  0  3  0  0  0  0  0  0
  189.7830  177.5240  140.7670 C   0  0  1  0  0  3  0  0  0  0  0  0
  190.9270  176.9110  139.9480 C   0  0  1  0  0  3  0  0  0  0  0  0
  190.6990  177.0510  138.5750 O   0  0  0  0  0  1  0  0  0  0  0  0
  193.2870  177.1230  139.3990 N   0  0  0  0  0  1  0  0  0  0  0  0
  192.2530  177.5480  140.3260 C   0  0  0  0  0  2  0  0  0  0  0  0
  187.7470  178.6310  140.2930 O   0  0  0  0  0  0  0  0  0  0  0  0
  188.5710  177.8070  139.9300 C   0  0  0  0  0  3  0  0  0  0  0  0
  186.3180  177.8030  145.7040 C   0  0  0  0  0  2  0  0  0  0  0  0
  185.6470  179.1640  145.6370 C   0  0  0  0  0  2  0  0  0  0  0  0
  184.4730  179.1060  144.7220 C   0  0  0  0  0  0  0  0  0  0  0  0
  183.3100  179.1510  145.2050 O   0  0  0  0  0  0  0  0  0  0  0  0
  184.6650  179.0270  143.2690 C   0  0  0  0  0  0  0  0  0  0  0  0
  185.3900  179.8720  142.6780 O   0  0  0  0  0  1  0  0  0  0  0  0
  184.0480  178.0220  142.5340 O   0  0  0  0  0  0  0  0  0  0  0  0
  1 12  1  6  0  0  0
  1  8  1  0  0  0  0
  1  2  1  0  0  0  0
  2  7  1  1  0  0  0
  2 11  1  0  0  0  0
  4  3  2  0  0  0  0
  5  9  1  0  0  0  0
  5  6  2  0  0  0  0
  7 10  1  0  0  0  0
  8  4  1  0  0  0  0
 10 19  1  1  0  0  0
 10  9  1  0  0  0  0
 11  4  1  6  0  0  0
 11  5  1  0  0  0  0
 12 18  1  6  0  0  0
 13 14  1  6  0  0  0
 13 16  1  0  0  0  0
 13 12  1  0  0  0  0
 15 16  1  0  0  0  0
 18 17  2  0  0  0  0
 20 19  1  0  0  0  0
 21 22  2  0  0  0  0
 21 20  1  0  0  0  0
 23 21  1  0  0  0  0
 24 23  1  0  0  0  0
 25 23  2  0  0  0  0
M  END
>  <MODEL>
4

>  <REMARK>
 VINA RESULT:      -7.9      1.161      1.577
  Name = 
  8 active torsions:
  status: ('A' for Active; 'I' for Inactive)
    1  A    between atoms: C_1  and  C_5
    2  A    between atoms: C_2  and  C_21
    3  A    between atoms: C_5  and  C_10
    4  A    between atoms: C_5  and  C_22
    5  A    between atoms: C_6  and  C_15
    6  A    between atoms: C_6  and  C_23
    7  A    between atoms: C_10  and  C_11
    8  A    between atoms: C_15  and  C_21
                            x       y       z     vdW  Elec       q    Type
                         _______ _______ _______ _____ _____    ______ ____

>  <TORSDO>
F 8

$$$$
=
 OpenBabel10272400533D

 25 26  0  0  1  0  0  0  0  0999 V2000
  189.1490  176.8830  145.1410 C   0  0  2  0  0  3  0  0  0  0  0  0
  188.1230  177.9890  144.8450 C   0  0  1  0  0  3  0  0  0  0  0  0
  187.9000  177.3840  148.3770 O   0  0  0  0  0  0  0  0  0  0  0  0
  188.1420  177.4360  147.1440 C   0  0  0  0  0  0  0  0  0  0  0  0
  186.1040  178.6440  146.3520 C   0  0  0  0  0  0  0  0  0  0  0  0
  185.6420  179.0480  147.4080 O   0  0  0  0  0  0  0  0  0  0  0  0
  187.0430  177.3960  143.9470 C   0  0  0  0  0  2  0  0  0  0  0  0
  189.0160  176.5740  146.5200 O   0  0  0  0  0  0  0  0  0  0  0  0
  185.1550  178.3500  145.2240 C   0  0  0  0  0  2  0  0  0  0  0  0
  185.8570  178.3350  143.8740 C   0  0  2  0  0  3  0  0  0  0  0  0
  187.6040  178.4660  146.2260 C   0  0  2  0  0  3  0  0  0  0  0  0
  190.5750  177.3310  144.7940 C   0  0  1  0  0  3  0  0  0  0  0  0
  191.2660  176.4170  143.7730 C   0  0  1  0  0  3  0  0  0  0  0  0
  192.0180  175.4240  144.4100 O   0  0  0  0  0  1  0  0  0  0  0  0
  190.4380  176.2650  141.4910 N   0  0  0  0  0  1  0  0  0  0  0  0
  190.2420  175.7840  142.8470 C   0  0  0  0  0  2  0  0  0  0  0  0
  191.6050  179.2560  143.8830 O   0  0  0  0  0  0  0  0  0  0  0  0
  190.6000  178.7720  144.3780 C   0  0  0  0  0  3  0  0  0  0  0  0
  184.9020  177.8560  142.7960 C   0  0  0  0  0  2  0  0  0  0  0  0
  184.4560  179.0210  141.9290 C   0  0  0  0  0  2  0  0  0  0  0  0
  185.2020  179.0080  140.6390 C   0  0  0  0  0  0  0  0  0  0  0  0
  186.4440  178.7970  140.6460 O   0  0  0  0  0  0  0  0  0  0  0  0
  184.4960  179.2120  139.3690 C   0  0  0  0  0  0  0  0  0  0  0  0
  184.2260  178.2280  138.6290 O   0  0  0  0  0  0  0  0  0  0  0  0
  184.1220  180.4900  138.9730 O   0  0  0  0  0  1  0  0  0  0  0  0
  1 12  1  1  0  0  0
  1  8  1  0  0  0  0
  2  7  1  6  0  0  0
  2  1  1  0  0  0  0
  2 11  1  0  0  0  0
  4  3  2  0  0  0  0
  5  6  2  0  0  0  0
  8  4  1  0  0  0  0
  9  5  1  0  0  0  0
 10 19  1  6  0  0  0
 10  7  1  0  0  0  0
 10  9  1  0  0  0  0
 11  5  1  6  0  0  0
 11  4  1  0  0  0  0
 12 18  1  6  0  0  0
 13 14  1  1  0  0  0
 13 12  1  0  0  0  0
 15 16  1  0  0  0  0
 16 13  1  0  0  0  0
 17 18  2  0  0  0  0
 20 19  1  0  0  0  0
 21 22  2  0  0  0  0
 21 20  1  0  0  0  0
 23 21  1  0  0  0  0
 24 23  2  0  0  0  0
 25 23  1  0  0  0  0
M  END
>  <MODEL>
5

>  <REMARK>
 VINA RESULT:      -7.7      2.537      4.886
  Name = 
  8 active torsions:
  status: ('A' for Active; 'I' for Inactive)
    1  A    between atoms: C_1  and  C_5
    2  A    between atoms: C_2  and  C_21
    3  A    between atoms: C_5  and  C_10
    4  A    between atoms: C_5  and  C_22
    5  A    between atoms: C_6  and  C_15
    6  A    between atoms: C_6  and  C_23
    7  A    between atoms: C_10  and  C_11
    8  A    between atoms: C_15  and  C_21
                            x       y       z     vdW  Elec       q    Type
                         _______ _______ _______ _____ _____    ______ ____

>  <TORSDO>
F 8

$$$$
=
 OpenBabel10272400533D

 25 26  0  0  1  0  0  0  0  0999 V2000
  188.5420  178.1930  141.3940 C   0  0  2  0  0  3  0  0  0  0  0  0
  187.9910  177.3630  142.5640 C   0  0  1  0  0  3  0  0  0  0  0  0
  185.3130  179.5430  141.5820 O   0  0  0  0  0  0  0  0  0  0  0  0
  186.3670  178.8780  141.7540 C   0  0  0  0  0  0  0  0  0  0  0  0
  185.9430  177.9830  144.0470 C   0  0  0  0  0  0  0  0  0  0  0  0
  184.7550  178.2300  144.1840 O   0  0  0  0  0  0  0  0  0  0  0  0
  188.7900  177.7260  143.8120 C   0  0  0  0  0  2  0  0  0  0  0  0
  187.5240  179.1170  141.0460 O   0  0  0  0  0  0  0  0  0  0  0  0
  186.8110  177.9530  145.2750 C   0  0  0  0  0  2  0  0  0  0  0  0
  188.1020  177.1790  145.0450 C   0  0  2  0  0  3  0  0  0  0  0  0
  186.4830  177.7100  142.6580 C   0  0  2  0  0  3  0  0  0  0  0  0
  188.9310  177.3020  140.2060 C   0  0  1  0  0  3  0  0  0  0  0  0
  188.7560  177.9940  138.8480 C   0  0  1  0  0  3  0  0  0  0  0  0
  189.9110  177.8780  138.0680 O   0  0  0  0  0  1  0  0  0  0  0  0
  186.5520  178.4410  137.9190 N   0  0  0  0  0  1  0  0  0  0  0  0
  187.5640  177.4160  138.1050 C   0  0  0  0  0  2  0  0  0  0  0  0
  191.1270  177.3120  141.0850 O   0  0  0  0  0  0  0  0  0  0  0  0
  190.3090  176.7370  140.3860 C   0  0  0  0  0  3  0  0  0  0  0  0
  189.0200  177.3330  146.2430 C   0  0  0  0  0  2  0  0  0  0  0  0
  190.3970  177.7960  145.7980 C   0  0  0  0  0  2  0  0  0  0  0  0
  191.3400  176.6440  145.7820 C   0  0  0  0  0  0  0  0  0  0  0  0
  191.6280  176.0960  144.6840 O   0  0  0  0  0  0  0  0  0  0  0  0
  191.9530  176.1660  147.0270 C   0  0  0  0  0  0  0  0  0  0  0  0
  192.5380  175.0500  147.0580 O   0  0  0  0  0  0  0  0  0  0  0  0
  191.8930  176.9390  148.1790 O   0  0  0  0  0  1  0  0  0  0  0  0
  1 12  1  6  0  0  0
  1  2  1  0  0  0  0
  2 11  1  0  0  0  0
  2  7  1  1  0  0  0
  3  4  2  0  0  0  0
  5  6  2  0  0  0  0
  5  9  1  0  0  0  0
  7 10  1  0  0  0  0
  8  1  1  0  0  0  0
  8  4  1  0  0  0  0
 10  9  1  0  0  0  0
 10 19  1  1  0  0  0
 11  4  1  6  0  0  0
 11  5  1  0  0  0  0
 12 18  1  1  0  0  0
 13 14  1  6  0  0  0
 13 12  1  0  0  0  0
 15 16  1  0  0  0  0
 16 13  1  0  0  0  0
 18 17  2  0  0  0  0
 20 19  1  0  0  0  0
 21 20  1  0  0  0  0
 21 23  1  0  0  0  0
 22 21  2  0  0  0  0
 23 24  2  0  0  0  0
 23 25  1  0  0  0  0
M  END
>  <MODEL>
6

>  <REMARK>
 VINA RESULT:      -7.6      2.066      5.484
  Name = 
  8 active torsions:
  status: ('A' for Active; 'I' for Inactive)
    1  A    between atoms: C_1  and  C_5
    2  A    between atoms: C_2  and  C_21
    3  A    between atoms: C_5  and  C_10
    4  A    between atoms: C_5  and  C_22
    5  A    between atoms: C_6  and  C_15
    6  A    between atoms: C_6  and  C_23
    7  A    between atoms: C_10  and  C_11
    8  A    between atoms: C_15  and  C_21
                            x       y       z     vdW  Elec       q    Type
                         _______ _______ _______ _____ _____    ______ ____

>  <TORSDO>
F 8

$$$$
=
 OpenBabel10272400533D

 25 26  0  0  1  0  0  0  0  0999 V2000
  189.7620  177.0170  144.3060 C   0  0  2  0  0  3  0  0  0  0  0  0
  188.9070  178.0370  145.0740 C   0  0  1  0  0  3  0  0  0  0  0  0
  190.9440  176.4250  147.5520 O   0  0  0  0  0  0  0  0  0  0  0  0
  190.3410  176.8550  146.5350 C   0  0  0  0  0  0  0  0  0  0  0  0
  188.4090  178.0000  147.6290 C   0  0  0  0  0  0  0  0  0  0  0  0
  188.7780  178.0310  148.7920 O   0  0  0  0  0  0  0  0  0  0  0  0
  187.4480  177.6080  144.9550 C   0  0  0  0  0  2  0  0  0  0  0  0
  190.5150  176.3130  145.2810 O   0  0  0  0  0  0  0  0  0  0  0  0
  186.9340  177.9370  147.3500 C   0  0  0  0  0  2  0  0  0  0  0  0
  186.5980  178.3890  145.9350 C   0  0  2  0  0  3  0  0  0  0  0  0
  189.4490  178.0370  146.5260 C   0  0  2  0  0  3  0  0  0  0  0  0
  190.6690  177.7040  143.2760 C   0  0  1  0  0  3  0  0  0  0  0  0
  190.2060  177.4950  141.8270 C   0  0  1  0  0  3  0  0  0  0  0  0
  190.3580  176.1610  141.4340 O   0  0  0  0  0  1  0  0  0  0  0  0
  188.5390  178.4120  140.3110 N   0  0  0  0  0  1  0  0  0  0  0  0
  188.7590  177.9270  141.6630 C   0  0  0  0  0  2  0  0  0  0  0  0
  191.8920  179.5360  144.1370 O   0  0  0  0  0  0  0  0  0  0  0  0
  190.8600  179.1540  143.6100 C   0  0  0  0  0  3  0  0  0  0  0  0
  185.1310  178.1330  145.6420 C   0  0  0  0  0  2  0  0  0  0  0  0
  184.5000  179.3550  144.9970 C   0  0  0  0  0  2  0  0  0  0  0  0
  183.7890  178.9600  143.7490 C   0  0  0  0  0  0  0  0  0  0  0  0
  182.5390  178.8010  143.7730 O   0  0  0  0  0  0  0  0  0  0  0  0
  184.5300  178.7840  142.4940 C   0  0  0  0  0  0  0  0  0  0  0  0
  185.5590  179.4740  142.2630 O   0  0  0  0  0  1  0  0  0  0  0  0
  184.1020  177.8570  141.5520 O   0  0  0  0  0  0  0  0  0  0  0  0
  1 12  1  6  0  0  0
  1  2  1  0  0  0  0
  1  8  1  0  0  0  0
  2  7  1  1  0  0  0
  2 11  1  0  0  0  0
  4  3  2  0  0  0  0
  5  6  2  0  0  0  0
  7 10  1  0  0  0  0
  8  4  1  0  0  0  0
  9  5  1  0  0  0  0
 10 19  1  6  0  0  0
 10  9  1  0  0  0  0
 11  4  1  6  0  0  0
 11  5  1  0  0  0  0
 12 18  1  1  0  0  0
 13 14  1  1  0  0  0
 13 12  1  0  0  0  0
 15 16  1  0  0  0  0
 16 13  1  0  0  0  0
 18 17  2  0  0  0  0
 20 19  1  0  0  0  0
 21 22  2  0  0  0  0
 21 20  1  0  0  0  0
 23 21  1  0  0  0  0
 24 23  1  0  0  0  0
 25 23  2  0  0  0  0
M  END
>  <MODEL>
7

>  <REMARK>
 VINA RESULT:      -7.5      2.017      3.186
  Name = 
  8 active torsions:
  status: ('A' for Active; 'I' for Inactive)
    1  A    between atoms: C_1  and  C_5
    2  A    between atoms: C_2  and  C_21
    3  A    between atoms: C_5  and  C_10
    4  A    between atoms: C_5  and  C_22
    5  A    between atoms: C_6  and  C_15
    6  A    between atoms: C_6  and  C_23
    7  A    between atoms: C_10  and  C_11
    8  A    between atoms: C_15  and  C_21
                            x       y       z     vdW  Elec       q    Type
                         _______ _______ _______ _____ _____    ______ ____

>  <TORSDO>
F 8

$$$$
=
 OpenBabel10272400533D

 25 26  0  0  1  0  0  0  0  0999 V2000
  188.7600  177.0630  144.1170 C   0  0  2  0  0  3  0  0  0  0  0  0
  187.9660  178.1670  144.8330 C   0  0  1  0  0  3  0  0  0  0  0  0
  189.8350  176.4970  147.4050 O   0  0  0  0  0  0  0  0  0  0  0  0
  189.2840  176.9350  146.3610 C   0  0  0  0  0  0  0  0  0  0  0  0
  187.4200  178.2510  147.3770 C   0  0  0  0  0  0  0  0  0  0  0  0
  187.7680  178.2940  148.5470 O   0  0  0  0  0  0  0  0  0  0  0  0
  186.4820  177.8400  144.6980 C   0  0  0  0  0  2  0  0  0  0  0  0
  189.4410  176.3400  145.1300 O   0  0  0  0  0  0  0  0  0  0  0  0
  185.9480  178.2840  147.0700 C   0  0  0  0  0  2  0  0  0  0  0  0
  185.6730  178.7110  145.6350 C   0  0  2  0  0  3  0  0  0  0  0  0
  188.4790  178.1770  146.2960 C   0  0  2  0  0  3  0  0  0  0  0  0
  189.7320  177.6480  143.0840 C   0  0  1  0  0  3  0  0  0  0  0  0
  191.2040  177.3530  143.4030 C   0  0  1  0  0  3  0  0  0  0  0  0
  191.9160  177.0200  142.2470 O   0  0  0  0  0  1  0  0  0  0  0  0
  190.9990  179.7140  143.9530 N   0  0  0  0  0  1  0  0  0  0  0  0
  191.8500  178.5450  144.0900 C   0  0  0  0  0  2  0  0  0  0  0  0
  189.0490  178.0670  140.8590 O   0  0  0  0  0  0  0  0  0  0  0  0
  189.3550  177.2310  141.6940 C   0  0  0  0  0  3  0  0  0  0  0  0
  184.1970  178.5520  145.3200 C   0  0  0  0  0  2  0  0  0  0  0  0
  183.7400  179.6410  144.3640 C   0  0  0  0  0  2  0  0  0  0  0  0
  183.2390  179.0300  143.1010 C   0  0  0  0  0  0  0  0  0  0  0  0
  182.0060  178.8040  142.9700 O   0  0  0  0  0  0  0  0  0  0  0  0
  184.1650  178.7190  142.0060 C   0  0  0  0  0  0  0  0  0  0  0  0
  183.9410  177.7400  141.2450 O   0  0  0  0  0  0  0  0  0  0  0  0
  185.2950  179.5010  141.8010 O   0  0  0  0  0  1  0  0  0  0  0  0
  1 12  1  6  0  0  0
  1  2  1  0  0  0  0
  1  8  1  0  0  0  0
  2  7  1  1  0  0  0
  2 11  1  0  0  0  0
  4  3  2  0  0  0  0
  5  6  2  0  0  0  0
  7 10  1  0  0  0  0
  8  4  1  0  0  0  0
  9  5  1  0  0  0  0
 10 19  1  6  0  0  0
 10  9  1  0  0  0  0
 11  4  1  1  0  0  0
 11  5  1  0  0  0  0
 12 18  1  6  0  0  0
 12 13  1  0  0  0  0
 13 14  1  6  0  0  0
 13 16  1  0  0  0  0
 15 16  1  0  0  0  0
 17 18  2  0  0  0  0
 20 19  1  0  0  0  0
 21 20  1  0  0  0  0
 22 21  2  0  0  0  0
 23 21  1  0  0  0  0
 24 23  2  0  0  0  0
 25 23  1  0  0  0  0
M  END
>  <MODEL>
8

>  <REMARK>
 VINA RESULT:      -7.4      2.151      3.590
  Name = 
  8 active torsions:
  status: ('A' for Active; 'I' for Inactive)
    1  A    between atoms: C_1  and  C_5
    2  A    between atoms: C_2  and  C_21
    3  A    between atoms: C_5  and  C_10
    4  A    between atoms: C_5  and  C_22
    5  A    between atoms: C_6  and  C_15
    6  A    between atoms: C_6  and  C_23
    7  A    between atoms: C_10  and  C_11
    8  A    between atoms: C_15  and  C_21
                            x       y       z     vdW  Elec       q    Type
                         _______ _______ _______ _____ _____    ______ ____

>  <TORSDO>
F 8

$$$$
=
 OpenBabel10272400533D

 25 26  0  0  1  0  0  0  0  0999 V2000
  186.1710  179.0070  142.2090 C   0  0  2  0  0  3  0  0  0  0  0  0
  186.2390  177.9610  143.3340 C   0  0  1  0  0  3  0  0  0  0  0  0
  183.5940  180.2050  144.2620 O   0  0  0  0  0  0  0  0  0  0  0  0
  184.5390  179.5500  143.7500 C   0  0  0  0  0  0  0  0  0  0  0  0
  185.2860  178.2400  145.7400 C   0  0  0  0  0  0  0  0  0  0  0  0
  184.3550  178.4220  146.5090 O   0  0  0  0  0  0  0  0  0  0  0  0
  187.5870  178.1140  144.0330 C   0  0  0  0  0  2  0  0  0  0  0  0
  185.1840  179.9490  142.6010 O   0  0  0  0  0  0  0  0  0  0  0  0
  186.6540  178.0120  146.3190 C   0  0  0  0  0  2  0  0  0  0  0  0
  187.5890  177.3310  145.3290 C   0  0  2  0  0  3  0  0  0  0  0  0
  185.0190  178.2410  144.2490 C   0  0  2  0  0  3  0  0  0  0  0  0
  185.8350  178.3600  140.8590 C   0  0  1  0  0  3  0  0  0  0  0  0
  184.5570  178.9210  140.2200 C   0  0  1  0  0  3  0  0  0  0  0  0
  184.8550  179.9120  139.2780 O   0  0  0  0  0  1  0  0  0  0  0  0
  183.7080  178.0040  138.1330 N   0  0  0  0  0  1  0  0  0  0  0  0
  183.7530  177.8070  139.5710 C   0  0  0  0  0  2  0  0  0  0  0  0
  188.1420  178.5380  140.3690 O   0  0  0  0  0  0  0  0  0  0  0  0
  187.0100  178.4160  139.9290 C   0  0  0  0  0  3  0  0  0  0  0  0
  188.9990  177.2900  145.8880 C   0  0  0  0  0  2  0  0  0  0  0  0
  189.9630  177.9880  144.9450 C   0  0  0  0  0  2  0  0  0  0  0  0
  191.0460  177.0480  144.5400 C   0  0  0  0  0  0  0  0  0  0  0  0
  191.8730  176.6490  145.4030 O   0  0  0  0  0  0  0  0  0  0  0  0
  191.1360  176.5680  143.1550 C   0  0  0  0  0  0  0  0  0  0  0  0
  191.9780  177.0700  142.3640 O   0  0  0  0  0  0  0  0  0  0  0  0
  190.2950  175.5570  142.7090 O   0  0  0  0  0  1  0  0  0  0  0  0
  1 12  1  6  0  0  0
  1  8  1  0  0  0  0
  1  2  1  0  0  0  0
  2  7  1  1  0  0  0
  2 11  1  0  0  0  0
  4  3  2  0  0  0  0
  5  9  1  0  0  0  0
  5  6  2  0  0  0  0
  7 10  1  0  0  0  0
  8  4  1  0  0  0  0
 10 19  1  1  0  0  0
 10  9  1  0  0  0  0
 11  4  1  6  0  0  0
 11  5  1  0  0  0  0
 12 18  1  6  0  0  0
 13 14  1  6  0  0  0
 13 12  1  0  0  0  0
 15 16  1  0  0  0  0
 16 13  1  0  0  0  0
 18 17  2  0  0  0  0
 20 19  1  0  0  0  0
 21 20  1  0  0  0  0
 21 22  2  0  0  0  0
 23 21  1  0  0  0  0
 24 23  2  0  0  0  0
 25 23  1  0  0  0  0
M  END
>  <MODEL>
9

>  <REMARK>
 VINA RESULT:      -7.1      2.808      6.164
  Name = 
  8 active torsions:
  status: ('A' for Active; 'I' for Inactive)
    1  A    between atoms: C_1  and  C_5
    2  A    between atoms: C_2  and  C_21
    3  A    between atoms: C_5  and  C_10
    4  A    between atoms: C_5  and  C_22
    5  A    between atoms: C_6  and  C_15
    6  A    between atoms: C_6  and  C_23
    7  A    between atoms: C_10  and  C_11
    8  A    between atoms: C_15  and  C_21
                            x       y       z     vdW  Elec       q    Type
                         _______ _______ _______ _____ _____    ______ ____

>  <TORSDO>
F 8

$$$$
