=
 OpenBabel10272401113D

 27 30  0  0  1  0  0  0  0  0999 V2000
  187.5230  178.5090  141.5900 N   0  0  0  0  0  2  0  0  0  0  0  0
  188.0790  177.9090  143.9580 C   0  0  2  0  0  3  0  0  0  0  0  0
  189.5300  176.5130  142.5390 C   0  0  0  0  0  2  0  0  0  0  0  0
  190.5040  177.1020  138.9330 C   0  0  0  0  0  3  0  0  0  0  0  0
  189.5820  178.0670  138.5270 C   0  0  0  0  0  0  0  0  0  0  0  0
  187.0500  177.8340  142.7940 C   0  0  1  0  0  3  0  0  0  0  0  0
  188.5400  178.0090  140.7180 C   0  0  0  0  0  0  0  0  0  0  0  0
  189.4590  177.5520  143.5860 N   0  0  1  0  0  0  0  0  0  0  0  0
  190.4580  176.5980  140.2350 C   0  0  0  0  0  3  0  0  0  0  0  0
  189.6320  178.5640  137.2670 F   0  0  0  0  0  0  0  0  0  0  0  0
  188.6070  178.5200  139.4180 C   0  0  0  0  0  3  0  0  0  0  0  0
  189.4880  177.0500  141.1360 C   0  0  0  0  0  0  0  0  0  0  0  0
  184.3630  179.9570  144.4510 C   0  0  0  0  0  3  0  0  0  0  0  0
  185.7190  178.4060  143.1700 C   0  0  0  0  0  0  0  0  0  0  0  0
  184.5670  177.9360  142.5270 C   0  0  0  0  0  3  0  0  0  0  0  0
  183.3160  178.4710  142.8520 C   0  0  0  0  0  3  0  0  0  0  0  0
  183.2140  179.4790  143.8150 C   0  0  0  0  0  3  0  0  0  0  0  0
  185.6140  179.4250  144.1280 C   0  0  0  0  0  3  0  0  0  0  0  0
  191.0490  179.1670  144.4860 C   0  0  0  0  0  2  0  0  0  0  0  0
  191.7150  178.4450  143.3380 C   0  0  0  0  0  2  0  0  0  0  0  0
  190.2310  178.7570  143.2750 C   0  0  0  0  0  3  0  0  0  0  0  0
  187.6860  177.0970  145.2050 C   0  0  2  0  0  3  0  0  0  0  0  0
  186.2170  177.2370  145.5880 C   0  0  0  0  0  1  0  0  0  0  0  0
  189.6390  176.5530  146.4880 O   0  0  0  0  0  0  0  0  0  0  0  0
  188.6220  177.2870  146.3680 C   0  0  0  0  0  0  0  0  0  0  0  0
  188.1840  177.9410  148.7080 C   0  0  0  0  0  1  0  0  0  0  0  0
  188.3820  178.2620  147.3400 O   0  0  0  0  0  0  0  0  0  0  0  0
  1  6  1  0  0  0  0
  2 22  1  1  0  0  0
  3  8  1  0  0  0  0
  4  9  1  0  0  0  0
  5  4  2  0  0  0  0
  5 11  1  0  0  0  0
  6 14  1  1  0  0  0
  6  2  1  0  0  0  0
  7 12  1  0  0  0  0
  7  1  1  0  0  0  0
  8 21  1  6  0  0  0
  8  2  1  0  0  0  0
  9 12  2  0  0  0  0
 10  5  1  0  0  0  0
 11  7  2  0  0  0  0
 12  3  1  0  0  0  0
 14 18  2  0  0  0  0
 15 16  2  0  0  0  0
 15 14  1  0  0  0  0
 16 17  1  0  0  0  0
 17 13  2  0  0  0  0
 18 13  1  0  0  0  0
 20 19  1  0  0  0  0
 21 20  1  0  0  0  0
 21 19  1  0  0  0  0
 22 23  1  1  0  0  0
 22 25  1  0  0  0  0
 25 24  2  0  0  0  0
 25 27  1  0  0  0  0
 27 26  1  0  0  0  0
M  END
>  <MODEL>
1

>  <REMARK>
 VINA RESULT:      -8.0      0.000      0.000
  Name = 
  5 active torsions:
  status: ('A' for Active; 'I' for Inactive)
    1  A    between atoms: C_2  and  C_6
    2  A    between atoms: C_6  and  C_17
    3  A    between atoms: C_9  and  C_15
    4  A    between atoms: C_14  and  N_19
    5  A    between atoms: O_16  and  C_17
                            x       y       z     vdW  Elec       q    Type
                         _______ _______ _______ _____ _____    ______ ____

>  <TORSDO>
F 5

$$$$
=
 OpenBabel10272401113D

 27 30  0  0  1  0  0  0  0  0999 V2000
  187.6420  178.1460  142.6090 N   0  0  0  0  0  2  0  0  0  0  0  0
  188.6110  178.0000  144.9150 C   0  0  2  0  0  3  0  0  0  0  0  0
  190.0020  176.5460  143.4940 C   0  0  0  0  0  2  0  0  0  0  0  0
  190.3550  176.6360  139.7300 C   0  0  0  0  0  3  0  0  0  0  0  0
  189.2690  177.4230  139.3450 C   0  0  0  0  0  0  0  0  0  0  0  0
  187.4400  177.6310  143.9600 C   0  0  1  0  0  3  0  0  0  0  0  0
  188.5750  177.6170  141.6630 C   0  0  0  0  0  0  0  0  0  0  0  0
  189.9540  177.7300  144.3760 N   0  0  1  0  0  0  0  0  0  0  0  0
  190.5640  176.3490  141.0810 C   0  0  0  0  0  3  0  0  0  0  0  0
  189.0700  177.7100  138.0360 F   0  0  0  0  0  0  0  0  0  0  0  0
  188.3850  177.9130  140.3090 C   0  0  0  0  0  3  0  0  0  0  0  0
  189.6870  176.8400  142.0540 C   0  0  0  0  0  0  0  0  0  0  0  0
  184.1280  179.4860  144.2160 C   0  0  0  0  0  3  0  0  0  0  0  0
  186.1160  178.1180  144.4620 C   0  0  0  0  0  0  0  0  0  0  0  0
  185.6040  177.5960  145.6570 C   0  0  0  0  0  3  0  0  0  0  0  0
  184.3620  178.0260  146.1330 C   0  0  0  0  0  3  0  0  0  0  0  0
  183.6250  178.9710  145.4150 C   0  0  0  0  0  3  0  0  0  0  0  0
  185.3690  179.0590  143.7380 C   0  0  0  0  0  3  0  0  0  0  0  0
  191.5670  179.5320  144.6910 C   0  0  0  0  0  2  0  0  0  0  0  0
  191.9890  178.7320  143.4800 C   0  0  0  0  0  2  0  0  0  0  0  0
  190.5140  178.9400  143.7710 C   0  0  0  0  0  3  0  0  0  0  0  0
  188.5100  177.3660  146.3140 C   0  0  2  0  0  3  0  0  0  0  0  0
  187.5540  178.0970  147.2500 C   0  0  0  0  0  1  0  0  0  0  0  0
  190.2960  177.8290  147.8470 O   0  0  0  0  0  0  0  0  0  0  0  0
  189.8480  177.0760  146.9420 C   0  0  0  0  0  0  0  0  0  0  0  0
  192.0170  175.9100  146.7760 C   0  0  0  0  0  1  0  0  0  0  0  0
  190.6220  175.9890  146.5310 O   0  0  0  0  0  0  0  0  0  0  0  0
  1  6  1  0  0  0  0
  2 22  1  1  0  0  0
  3  8  1  0  0  0  0
  4  9  1  0  0  0  0
  5  4  2  0  0  0  0
  5 11  1  0  0  0  0
  6 14  1  1  0  0  0
  6  2  1  0  0  0  0
  7 12  1  0  0  0  0
  7  1  1  0  0  0  0
  8 21  1  6  0  0  0
  8  2  1  0  0  0  0
  9 12  2  0  0  0  0
 10  5  1  0  0  0  0
 11  7  2  0  0  0  0
 12  3  1  0  0  0  0
 13 17  1  0  0  0  0
 14 15  2  0  0  0  0
 15 16  1  0  0  0  0
 17 16  2  0  0  0  0
 18 13  2  0  0  0  0
 18 14  1  0  0  0  0
 20 21  1  0  0  0  0
 20 19  1  0  0  0  0
 21 19  1  0  0  0  0
 22 25  1  0  0  0  0
 22 23  1  1  0  0  0
 25 24  2  0  0  0  0
 27 26  1  0  0  0  0
 27 25  1  0  0  0  0
M  END
>  <MODEL>
2

>  <REMARK>
 VINA RESULT:      -7.3      1.284      1.823
  Name = 
  5 active torsions:
  status: ('A' for Active; 'I' for Inactive)
    1  A    between atoms: C_2  and  C_6
    2  A    between atoms: C_6  and  C_17
    3  A    between atoms: C_9  and  C_15
    4  A    between atoms: C_14  and  N_19
    5  A    between atoms: O_16  and  C_17
                            x       y       z     vdW  Elec       q    Type
                         _______ _______ _______ _____ _____    ______ ____

>  <TORSDO>
F 5

$$$$
=
 OpenBabel10272401113D

 27 30  0  0  1  0  0  0  0  0999 V2000
  185.8040  178.8060  140.0050 N   0  0  0  0  0  2  0  0  0  0  0  0
  184.4360  178.1740  138.0040 C   0  0  2  0  0  3  0  0  0  0  0  0
  183.0960  177.5510  139.9740 C   0  0  0  0  0  2  0  0  0  0  0  0
  183.4270  178.8530  143.5080 C   0  0  0  0  0  3  0  0  0  0  0  0
  184.6780  179.4720  143.4850 C   0  0  0  0  0  0  0  0  0  0  0  0
  185.6800  177.8740  138.8890 C   0  0  1  0  0  3  0  0  0  0  0  0
  184.9770  178.8000  141.1720 C   0  0  0  0  0  0  0  0  0  0  0  0
  183.1820  178.3720  138.7490 N   0  0  1  0  0  0  0  0  0  0  0  0
  182.9400  178.2210  142.3620 C   0  0  0  0  0  3  0  0  0  0  0  0
  185.1470  180.0940  144.5930 F   0  0  0  0  0  0  0  0  0  0  0  0
  185.4470  179.4470  142.3200 C   0  0  0  0  0  3  0  0  0  0  0  0
  183.7020  178.1950  141.1890 C   0  0  0  0  0  0  0  0  0  0  0  0
  188.2910  178.6950  136.2470 C   0  0  0  0  0  3  0  0  0  0  0  0
  186.9560  177.8930  138.1070 C   0  0  0  0  0  0  0  0  0  0  0  0
  188.0470  177.1420  138.5600 C   0  0  0  0  0  3  0  0  0  0  0  0
  189.2530  177.1610  137.8530 C   0  0  0  0  0  3  0  0  0  0  0  0
  189.3760  177.9350  136.6960 C   0  0  0  0  0  3  0  0  0  0  0  0
  187.0850  178.6780  136.9510 C   0  0  0  0  0  3  0  0  0  0  0  0
  181.8980  180.3040  137.9980 C   0  0  0  0  0  2  0  0  0  0  0  0
  181.5100  180.0120  139.4290 C   0  0  0  0  0  2  0  0  0  0  0  0
  182.9430  179.7990  138.9760 C   0  0  0  0  0  3  0  0  0  0  0  0
  184.1850  177.1390  136.8930 C   0  0  2  0  0  3  0  0  0  0  0  0
  182.8420  177.3090  136.1910 C   0  0  0  0  0  1  0  0  0  0  0  0
  183.6190  175.1080  138.0380 O   0  0  0  0  0  0  0  0  0  0  0  0
  184.4540  175.7200  137.3200 C   0  0  0  0  0  0  0  0  0  0  0  0
  186.2310  175.2400  135.6750 C   0  0  0  0  0  1  0  0  0  0  0  0
  185.6280  175.0610  136.9470 O   0  0  0  0  0  0  0  0  0  0  0  0
  1  7  1  0  0  0  0
  2 22  1  6  0  0  0
  2  8  1  0  0  0  0
  2  6  1  0  0  0  0
  3 12  1  0  0  0  0
  5  4  1  0  0  0  0
  5 10  1  0  0  0  0
  6 14  1  6  0  0  0
  6  1  1  0  0  0  0
  7 12  2  0  0  0  0
  7 11  1  0  0  0  0
  8 21  1  1  0  0  0
  8  3  1  0  0  0  0
  9  4  2  0  0  0  0
 11  5  2  0  0  0  0
 12  9  1  0  0  0  0
 13 17  2  0  0  0  0
 13 18  1  0  0  0  0
 14 15  1  0  0  0  0
 16 15  2  0  0  0  0
 17 16  1  0  0  0  0
 18 14  2  0  0  0  0
 19 21  1  0  0  0  0
 19 20  1  0  0  0  0
 21 20  1  0  0  0  0
 22 23  1  1  0  0  0
 22 25  1  0  0  0  0
 25 24  2  0  0  0  0
 26 27  1  0  0  0  0
 27 25  1  0  0  0  0
M  END
>  <MODEL>
3

>  <REMARK>
 VINA RESULT:      -6.9      4.749      8.354
  Name = 
  5 active torsions:
  status: ('A' for Active; 'I' for Inactive)
    1  A    between atoms: C_2  and  C_6
    2  A    between atoms: C_6  and  C_17
    3  A    between atoms: C_9  and  C_15
    4  A    between atoms: C_14  and  N_19
    5  A    between atoms: O_16  and  C_17
                            x       y       z     vdW  Elec       q    Type
                         _______ _______ _______ _____ _____    ______ ____

>  <TORSDO>
F 5

$$$$
=
 OpenBabel10272401113D

 27 30  0  0  1  0  0  0  0  0999 V2000
  192.3730  176.8710  139.1720 N   0  0  0  0  0  2  0  0  0  0  0  0
  191.0050  176.3540  137.1380 C   0  0  2  0  0  3  0  0  0  0  0  0
  189.4850  176.1230  139.0620 C   0  0  0  0  0  2  0  0  0  0  0  0
  189.8860  177.5940  142.5220 C   0  0  0  0  0  3  0  0  0  0  0  0
  191.2290  177.9750  142.5330 C   0  0  0  0  0  0  0  0  0  0  0  0
  192.1310  175.9000  138.1100 C   0  0  1  0  0  3  0  0  0  0  0  0
  191.5060  177.0970  140.2870 C   0  0  0  0  0  0  0  0  0  0  0  0
  189.7750  176.8260  137.7960 N   0  0  1  0  0  0  0  0  0  0  0  0
  189.3450  176.9790  141.3920 C   0  0  0  0  0  3  0  0  0  0  0  0
  191.7530  178.5800  143.6260 F   0  0  0  0  0  0  0  0  0  0  0  0
  192.0330  177.7290  141.4180 C   0  0  0  0  0  3  0  0  0  0  0  0
  190.1420  176.7330  140.2680 C   0  0  0  0  0  0  0  0  0  0  0  0
  195.4740  174.3630  137.1430 C   0  0  0  0  0  3  0  0  0  0  0  0
  193.4240  175.6330  137.4040 C   0  0  0  0  0  0  0  0  0  0  0  0
  193.7630  176.4020  136.2840 C   0  0  0  0  0  3  0  0  0  0  0  0
  194.9570  176.1560  135.6010 C   0  0  0  0  0  3  0  0  0  0  0  0
  195.8140  175.1390  136.0300 C   0  0  0  0  0  3  0  0  0  0  0  0
  194.2800  174.6060  137.8270 C   0  0  0  0  0  3  0  0  0  0  0  0
  188.9220  178.9000  136.8380 C   0  0  0  0  0  2  0  0  0  0  0  0
  188.3970  178.7860  138.2520 C   0  0  0  0  0  2  0  0  0  0  0  0
  189.7910  178.2850  137.9200 C   0  0  0  0  0  3  0  0  0  0  0  0
  190.6200  175.3040  136.0810 C   0  0  2  0  0  3  0  0  0  0  0  0
  189.3160  175.6160  135.3550 C   0  0  0  0  0  1  0  0  0  0  0  0
  189.8370  173.4660  137.4100 O   0  0  0  0  0  0  0  0  0  0  0  0
  190.6910  173.8860  136.5850 C   0  0  0  0  0  0  0  0  0  0  0  0
  192.3450  173.1470  134.9080 C   0  0  0  0  0  1  0  0  0  0  0  0
  191.7020  173.0180  136.1670 O   0  0  0  0  0  0  0  0  0  0  0  0
  1  7  1  0  0  0  0
  2 22  1  6  0  0  0
  2  8  1  0  0  0  0
  2  6  1  0  0  0  0
  3 12  1  0  0  0  0
  4  5  1  0  0  0  0
  5 10  1  0  0  0  0
  6 14  1  6  0  0  0
  6  1  1  0  0  0  0
  7 11  1  0  0  0  0
  8 21  1  1  0  0  0
  8  3  1  0  0  0  0
  9  4  2  0  0  0  0
 11  5  2  0  0  0  0
 12  7  2  0  0  0  0
 12  9  1  0  0  0  0
 13 18  1  0  0  0  0
 14 18  2  0  0  0  0
 15 14  1  0  0  0  0
 16 17  1  0  0  0  0
 16 15  2  0  0  0  0
 17 13  2  0  0  0  0
 19 21  1  0  0  0  0
 19 20  1  0  0  0  0
 21 20  1  0  0  0  0
 22 23  1  1  0  0  0
 22 25  1  0  0  0  0
 25 24  2  0  0  0  0
 26 27  1  0  0  0  0
 27 25  1  0  0  0  0
M  END
>  <MODEL>
4

>  <REMARK>
 VINA RESULT:      -6.6      4.837      9.104
  Name = 
  5 active torsions:
  status: ('A' for Active; 'I' for Inactive)
    1  A    between atoms: C_2  and  C_6
    2  A    between atoms: C_6  and  C_17
    3  A    between atoms: C_9  and  C_15
    4  A    between atoms: C_14  and  N_19
    5  A    between atoms: O_16  and  C_17
                            x       y       z     vdW  Elec       q    Type
                         _______ _______ _______ _____ _____    ______ ____

>  <TORSDO>
F 5

$$$$
=
 OpenBabel10272401113D

 27 30  0  0  1  0  0  0  0  0999 V2000
  191.1700  175.5890  138.9880 N   0  0  0  0  0  2  0  0  0  0  0  0
  189.0180  176.8640  138.8590 C   0  0  2  0  0  3  0  0  0  0  0  0
  190.0210  176.9860  136.6130 C   0  0  0  0  0  2  0  0  0  0  0  0
  192.6360  174.7000  135.1160 C   0  0  0  0  0  3  0  0  0  0  0  0
  193.1260  174.0290  136.2370 C   0  0  0  0  0  0  0  0  0  0  0  0
  190.4790  176.8090  139.3910 C   0  0  1  0  0  3  0  0  0  0  0  0
  191.6450  175.3160  137.6670 C   0  0  0  0  0  0  0  0  0  0  0  0
  188.8700  176.5490  137.4290 N   0  0  1  0  0  0  0  0  0  0  0  0
  191.6400  175.6680  135.2630 C   0  0  0  0  0  3  0  0  0  0  0  0
  194.0840  173.0820  136.0950 F   0  0  0  0  0  0  0  0  0  0  0  0
  192.6290  174.3350  137.5060 C   0  0  0  0  0  3  0  0  0  0  0  0
  191.1340  175.9780  136.5300 C   0  0  0  0  0  0  0  0  0  0  0  0
  189.8060  176.2750  143.0980 C   0  0  0  0  0  3  0  0  0  0  0  0
  190.5490  176.9270  140.8820 C   0  0  0  0  0  0  0  0  0  0  0  0
  191.4920  177.7880  141.4560 C   0  0  0  0  0  3  0  0  0  0  0  0
  191.5850  177.8980  142.8470 C   0  0  0  0  0  3  0  0  0  0  0  0
  190.7420  177.1440  143.6670 C   0  0  0  0  0  3  0  0  0  0  0  0
  189.7110  176.1630  141.7080 C   0  0  0  0  0  3  0  0  0  0  0  0
  187.0230  175.0010  137.0560 C   0  0  0  0  0  2  0  0  0  0  0  0
  187.9480  174.9220  135.8620 C   0  0  0  0  0  2  0  0  0  0  0  0
  188.5230  175.1370  137.2510 C   0  0  0  0  0  3  0  0  0  0  0  0
  188.2910  178.1910  139.1420 C   0  0  2  0  0  3  0  0  0  0  0  0
  187.8530  178.3510  140.5940 C   0  0  0  0  0  1  0  0  0  0  0  0
  187.4130  179.2880  137.1980 O   0  0  0  0  0  0  0  0  0  0  0  0
  187.1950  178.5000  138.1570 C   0  0  0  0  0  0  0  0  0  0  0  0
  184.7900  178.7040  138.6730 C   0  0  0  0  0  1  0  0  0  0  0  0
  185.9230  177.9400  138.2890 O   0  0  0  0  0  0  0  0  0  0  0  0
  1  6  1  0  0  0  0
  2 22  1  6  0  0  0
  2  6  1  0  0  0  0
  3  8  1  0  0  0  0
  4  9  2  0  0  0  0
  4  5  1  0  0  0  0
  5 11  2  0  0  0  0
  6 14  1  1  0  0  0
  7  1  1  0  0  0  0
  8 21  1  1  0  0  0
  8  2  1  0  0  0  0
  9 12  1  0  0  0  0
 10  5  1  0  0  0  0
 11  7  1  0  0  0  0
 12  3  1  0  0  0  0
 12  7  2  0  0  0  0
 13 17  1  0  0  0  0
 14 15  2  0  0  0  0
 14 18  1  0  0  0  0
 15 16  1  0  0  0  0
 16 17  2  0  0  0  0
 18 13  2  0  0  0  0
 19 21  1  0  0  0  0
 20 19  1  0  0  0  0
 20 21  1  0  0  0  0
 22 23  1  1  0  0  0
 24 25  2  0  0  0  0
 25 27  1  0  0  0  0
 25 22  1  0  0  0  0
 27 26  1  0  0  0  0
M  END
>  <MODEL>
5

>  <REMARK>
 VINA RESULT:      -6.6      4.285      7.024
  Name = 
  5 active torsions:
  status: ('A' for Active; 'I' for Inactive)
    1  A    between atoms: C_2  and  C_6
    2  A    between atoms: C_6  and  C_17
    3  A    between atoms: C_9  and  C_15
    4  A    between atoms: C_14  and  N_19
    5  A    between atoms: O_16  and  C_17
                            x       y       z     vdW  Elec       q    Type
                         _______ _______ _______ _____ _____    ______ ____

>  <TORSDO>
F 5

$$$$
=
 OpenBabel10272401113D

 27 30  0  0  1  0  0  0  0  0999 V2000
  191.3130  176.0560  138.7190 N   0  0  0  0  0  2  0  0  0  0  0  0
  188.9770  175.9790  137.8170 C   0  0  2  0  0  3  0  0  0  0  0  0
  190.4630  176.1310  135.8580 C   0  0  0  0  0  2  0  0  0  0  0  0
  194.1400  175.2690  135.6680 C   0  0  0  0  0  3  0  0  0  0  0  0
  194.5020  175.1970  137.0130 C   0  0  0  0  0  0  0  0  0  0  0  0
  190.0640  176.7970  138.5710 C   0  0  1  0  0  3  0  0  0  0  0  0
  192.2430  175.8000  137.6640 C   0  0  0  0  0  0  0  0  0  0  0  0
  189.4370  175.3430  136.5710 N   0  0  1  0  0  0  0  0  0  0  0  0
  192.8280  175.5910  135.3150 C   0  0  0  0  0  3  0  0  0  0  0  0
  195.7730  174.8750  137.3570 F   0  0  0  0  0  0  0  0  0  0  0  0
  193.5550  175.4590  138.0060 C   0  0  0  0  0  3  0  0  0  0  0  0
  191.8710  175.8500  136.3030 C   0  0  0  0  0  0  0  0  0  0  0  0
  188.1960  178.6120  141.3430 C   0  0  0  0  0  3  0  0  0  0  0  0
  189.6090  177.2420  139.9260 C   0  0  0  0  0  0  0  0  0  0  0  0
  190.1580  176.6390  141.0640 C   0  0  0  0  0  3  0  0  0  0  0  0
  189.7330  177.0280  142.3370 C   0  0  0  0  0  3  0  0  0  0  0  0
  188.7540  178.0150  142.4780 C   0  0  0  0  0  3  0  0  0  0  0  0
  188.6190  178.2250  140.0690 C   0  0  0  0  0  3  0  0  0  0  0  0
  188.6560  173.0330  136.5260 C   0  0  0  0  0  2  0  0  0  0  0  0
  189.7800  173.1670  135.5240 C   0  0  0  0  0  2  0  0  0  0  0  0
  189.8270  173.9540  136.8210 C   0  0  0  0  0  3  0  0  0  0  0  0
  187.6890  176.7660  137.5160 C   0  0  2  0  0  3  0  0  0  0  0  0
  186.4940  175.8780  137.1840 C   0  0  0  0  0  1  0  0  0  0  0  0
  188.1440  179.0500  136.9400 O   0  0  0  0  0  0  0  0  0  0  0  0
  187.8840  177.8870  136.5300 C   0  0  0  0  0  0  0  0  0  0  0  0
  186.6660  178.1520  134.3990 C   0  0  0  0  0  1  0  0  0  0  0  0
  187.7670  177.6720  135.1550 O   0  0  0  0  0  0  0  0  0  0  0  0
  2 22  1  6  0  0  0
  2  6  1  0  0  0  0
  3 12  1  0  0  0  0
  3  8  1  0  0  0  0
  4  5  1  0  0  0  0
  5 10  1  0  0  0  0
  5 11  2  0  0  0  0
  6  1  1  0  0  0  0
  6 14  1  1  0  0  0
  7 11  1  0  0  0  0
  7  1  1  0  0  0  0
  8 21  1  1  0  0  0
  8  2  1  0  0  0  0
  9  4  2  0  0  0  0
  9 12  1  0  0  0  0
 12  7  2  0  0  0  0
 13 17  1  0  0  0  0
 14 18  1  0  0  0  0
 14 15  2  0  0  0  0
 15 16  1  0  0  0  0
 16 17  2  0  0  0  0
 18 13  2  0  0  0  0
 19 21  1  0  0  0  0
 20 19  1  0  0  0  0
 20 21  1  0  0  0  0
 22 23  1  6  0  0  0
 25 24  2  0  0  0  0
 25 22  1  0  0  0  0
 26 27  1  0  0  0  0
 27 25  1  0  0  0  0
M  END
>  <MODEL>
6

>  <REMARK>
 VINA RESULT:      -6.5      4.704      7.650
  Name = 
  5 active torsions:
  status: ('A' for Active; 'I' for Inactive)
    1  A    between atoms: C_2  and  C_6
    2  A    between atoms: C_6  and  C_17
    3  A    between atoms: C_9  and  C_15
    4  A    between atoms: C_14  and  N_19
    5  A    between atoms: O_16  and  C_17
                            x       y       z     vdW  Elec       q    Type
                         _______ _______ _______ _____ _____    ______ ____

>  <TORSDO>
F 5

$$$$
=
 OpenBabel10272401113D

 27 30  0  0  1  0  0  0  0  0999 V2000
  185.3280  178.6690  139.6840 N   0  0  0  0  0  2  0  0  0  0  0  0
  183.7250  178.1340  137.8350 C   0  0  2  0  0  3  0  0  0  0  0  0
  182.5210  177.6830  139.9360 C   0  0  0  0  0  2  0  0  0  0  0  0
  183.3040  179.0170  143.3870 C   0  0  0  0  0  3  0  0  0  0  0  0
  184.6000  179.5100  143.2320 C   0  0  0  0  0  0  0  0  0  0  0  0
  185.0120  177.7330  138.6110 C   0  0  1  0  0  3  0  0  0  0  0  0
  184.6170  178.7670  140.9210 C   0  0  0  0  0  0  0  0  0  0  0  0
  182.5700  178.4670  138.6850 N   0  0  1  0  0  0  0  0  0  0  0  0
  182.6540  178.4120  142.3090 C   0  0  0  0  0  3  0  0  0  0  0  0
  185.2280  180.1060  144.2740 F   0  0  0  0  0  0  0  0  0  0  0  0
  185.2510  179.3870  142.0020 C   0  0  0  0  0  3  0  0  0  0  0  0
  183.2970  178.2890  141.0720 C   0  0  0  0  0  0  0  0  0  0  0  0
  187.8050  176.2660  136.4850 C   0  0  0  0  0  3  0  0  0  0  0  0
  186.2060  177.6120  137.7160 C   0  0  0  0  0  0  0  0  0  0  0  0
  186.8130  178.7740  137.2260 C   0  0  0  0  0  3  0  0  0  0  0  0
  187.9190  178.6810  136.3740 C   0  0  0  0  0  3  0  0  0  0  0  0
  188.4160  177.4290  136.0050 C   0  0  0  0  0  3  0  0  0  0  0  0
  186.7000  176.3560  137.3350 C   0  0  0  0  0  3  0  0  0  0  0  0
  181.4960  180.5170  137.9160 C   0  0  0  0  0  2  0  0  0  0  0  0
  181.0940  180.2900  139.3560 C   0  0  0  0  0  2  0  0  0  0  0  0
  182.4900  179.9150  138.8930 C   0  0  0  0  0  3  0  0  0  0  0  0
  183.2740  177.1060  136.7820 C   0  0  2  0  0  3  0  0  0  0  0  0
  182.3690  177.6920  135.7030 C   0  0  0  0  0  1  0  0  0  0  0  0
  183.5260  174.9830  137.8700 O   0  0  0  0  0  0  0  0  0  0  0  0
  182.7370  175.8310  137.3760 C   0  0  0  0  0  0  0  0  0  0  0  0
  180.7550  174.7580  138.3830 C   0  0  0  0  0  1  0  0  0  0  0  0
  181.3680  175.5540  137.3810 O   0  0  0  0  0  0  0  0  0  0  0  0
  1  7  1  0  0  0  0
  2 22  1  6  0  0  0
  2  6  1  0  0  0  0
  2  8  1  0  0  0  0
  3 12  1  0  0  0  0
  5  4  1  0  0  0  0
  5 10  1  0  0  0  0
  6 14  1  6  0  0  0
  6  1  1  0  0  0  0
  7 12  2  0  0  0  0
  7 11  1  0  0  0  0
  8 21  1  1  0  0  0
  8  3  1  0  0  0  0
  9  4  2  0  0  0  0
 11  5  2  0  0  0  0
 12  9  1  0  0  0  0
 13 18  1  0  0  0  0
 15 14  1  0  0  0  0
 16 15  2  0  0  0  0
 17 16  1  0  0  0  0
 17 13  2  0  0  0  0
 18 14  2  0  0  0  0
 19 21  1  0  0  0  0
 19 20  1  0  0  0  0
 21 20  1  0  0  0  0
 22 23  1  1  0  0  0
 22 25  1  0  0  0  0
 25 27  1  0  0  0  0
 25 24  2  0  0  0  0
 27 26  1  0  0  0  0
M  END
>  <MODEL>
7

>  <REMARK>
 VINA RESULT:      -6.5      5.187      8.674
  Name = 
  5 active torsions:
  status: ('A' for Active; 'I' for Inactive)
    1  A    between atoms: C_2  and  C_6
    2  A    between atoms: C_6  and  C_17
    3  A    between atoms: C_9  and  C_15
    4  A    between atoms: C_14  and  N_19
    5  A    between atoms: O_16  and  C_17
                            x       y       z     vdW  Elec       q    Type
                         _______ _______ _______ _____ _____    ______ ____

>  <TORSDO>
F 5

$$$$
=
 OpenBabel10272401113D

 27 30  0  0  1  0  0  0  0  0999 V2000
  191.2810  176.2710  137.9830 N   0  0  0  0  0  2  0  0  0  0  0  0
  188.9060  175.7610  137.3740 C   0  0  2  0  0  3  0  0  0  0  0  0
  190.1030  176.0860  135.2460 C   0  0  0  0  0  2  0  0  0  0  0  0
  193.8260  175.8580  134.6240 C   0  0  0  0  0  3  0  0  0  0  0  0
  194.3500  175.9020  135.9160 C   0  0  0  0  0  0  0  0  0  0  0  0
  189.9150  176.7810  137.9740 C   0  0  1  0  0  3  0  0  0  0  0  0
  192.1120  176.1360  136.8260 C   0  0  0  0  0  0  0  0  0  0  0  0
  189.3200  175.1640  136.0940 N   0  0  1  0  0  0  0  0  0  0  0  0
  192.4450  175.9370  134.4280 C   0  0  0  0  0  3  0  0  0  0  0  0
  195.6880  175.8150  136.1080 F   0  0  0  0  0  0  0  0  0  0  0  0
  193.4950  176.0370  137.0120 C   0  0  0  0  0  3  0  0  0  0  0  0
  191.5810  176.0680  135.5200 C   0  0  0  0  0  0  0  0  0  0  0  0
  189.9070  177.1090  141.7650 C   0  0  0  0  0  3  0  0  0  0  0  0
  189.5510  177.1950  139.3660 C   0  0  0  0  0  0  0  0  0  0  0  0
  188.5180  178.1200  139.5570 C   0  0  0  0  0  3  0  0  0  0  0  0
  188.1760  178.5320  140.8490 C   0  0  0  0  0  3  0  0  0  0  0  0
  188.8680  178.0260  141.9520 C   0  0  0  0  0  3  0  0  0  0  0  0
  190.2520  176.6960  140.4750 C   0  0  0  0  0  3  0  0  0  0  0  0
  188.9650  172.7520  136.1370 C   0  0  0  0  0  2  0  0  0  0  0  0
  189.9570  173.0590  135.0380 C   0  0  0  0  0  2  0  0  0  0  0  0
  189.9720  173.8730  136.3200 C   0  0  0  0  0  3  0  0  0  0  0  0
  187.4740  176.3040  137.2180 C   0  0  2  0  0  3  0  0  0  0  0  0
  186.4060  175.2150  137.1990 C   0  0  0  0  0  1  0  0  0  0  0  0
  187.6560  178.5010  136.2730 O   0  0  0  0  0  0  0  0  0  0  0  0
  187.3250  177.2980  136.0980 C   0  0  0  0  0  0  0  0  0  0  0  0
  185.5900  177.4410  134.3470 C   0  0  0  0  0  1  0  0  0  0  0  0
  186.8080  176.9200  134.8560 O   0  0  0  0  0  0  0  0  0  0  0  0
  2 22  1  6  0  0  0
  2  6  1  0  0  0  0
  3 12  1  0  0  0  0
  3  8  1  0  0  0  0
  4  5  1  0  0  0  0
  5 10  1  0  0  0  0
  5 11  2  0  0  0  0
  6  1  1  0  0  0  0
  6 14  1  1  0  0  0
  7 11  1  0  0  0  0
  7  1  1  0  0  0  0
  8 21  1  1  0  0  0
  8  2  1  0  0  0  0
  9  4  2  0  0  0  0
  9 12  1  0  0  0  0
 12  7  2  0  0  0  0
 13 17  1  0  0  0  0
 14 15  2  0  0  0  0
 14 18  1  0  0  0  0
 15 16  1  0  0  0  0
 16 17  2  0  0  0  0
 18 13  2  0  0  0  0
 19 21  1  0  0  0  0
 20 19  1  0  0  0  0
 20 21  1  0  0  0  0
 22 23  1  6  0  0  0
 25 24  2  0  0  0  0
 25 22  1  0  0  0  0
 26 27  1  0  0  0  0
 27 25  1  0  0  0  0
M  END
>  <MODEL>
8

>  <REMARK>
 VINA RESULT:      -6.2      5.002      7.960
  Name = 
  5 active torsions:
  status: ('A' for Active; 'I' for Inactive)
    1  A    between atoms: C_2  and  C_6
    2  A    between atoms: C_6  and  C_17
    3  A    between atoms: C_9  and  C_15
    4  A    between atoms: C_14  and  N_19
    5  A    between atoms: O_16  and  C_17
                            x       y       z     vdW  Elec       q    Type
                         _______ _______ _______ _____ _____    ______ ____

>  <TORSDO>
F 5

$$$$
=
 OpenBabel10272401113D

 27 30  0  0  1  0  0  0  0  0999 V2000
  183.5990  177.8120  139.8820 N   0  0  0  0  0  2  0  0  0  0  0  0
  181.6180  177.9490  138.3560 C   0  0  2  0  0  3  0  0  0  0  0  0
  180.7370  178.1840  140.6440 C   0  0  0  0  0  2  0  0  0  0  0  0
  182.6210  179.2070  143.7590 C   0  0  0  0  0  3  0  0  0  0  0  0
  183.9530  179.0670  143.3640 C   0  0  0  0  0  0  0  0  0  0  0  0
  182.7250  177.0590  138.9890 C   0  0  1  0  0  3  0  0  0  0  0  0
  183.2340  178.2770  141.1850 C   0  0  0  0  0  0  0  0  0  0  0  0
  180.8900  178.8010  139.3110 N   0  0  1  0  0  0  0  0  0  0  0  0
  181.5930  178.8980  142.8660 C   0  0  0  0  0  3  0  0  0  0  0  0
  184.9510  179.3750  144.2270 F   0  0  0  0  0  0  0  0  0  0  0  0
  184.2560  178.6070  142.0810 C   0  0  0  0  0  3  0  0  0  0  0  0
  181.8870  178.4410  141.5770 C   0  0  0  0  0  0  0  0  0  0  0  0
  185.1280  176.4620  136.1000 C   0  0  0  0  0  3  0  0  0  0  0  0
  183.5700  176.3770  137.9580 C   0  0  0  0  0  0  0  0  0  0  0  0
  183.6250  174.9790  137.9340 C   0  0  0  0  0  3  0  0  0  0  0  0
  184.4220  174.3240  136.9900 C   0  0  0  0  0  3  0  0  0  0  0  0
  185.1720  175.0650  136.0720 C   0  0  0  0  0  3  0  0  0  0  0  0
  184.3320  177.1190  137.0430 C   0  0  0  0  0  3  0  0  0  0  0  0
  180.9640  180.9550  138.1690 C   0  0  0  0  0  2  0  0  0  0  0  0
  180.3800  181.1750  139.5470 C   0  0  0  0  0  2  0  0  0  0  0  0
  181.4760  180.1430  139.3460 C   0  0  0  0  0  3  0  0  0  0  0  0
  180.5890  177.1750  137.5130 C   0  0  2  0  0  3  0  0  0  0  0  0
  180.2730  175.7860  138.0560 C   0  0  0  0  0  1  0  0  0  0  0  0
  181.3230  178.2250  135.4840 O   0  0  0  0  0  0  0  0  0  0  0  0
  180.8940  177.1780  136.0380 C   0  0  0  0  0  0  0  0  0  0  0  0
  181.7540  175.4000  134.5580 C   0  0  0  0  0  1  0  0  0  0  0  0
  180.6960  176.0380  135.2550 O   0  0  0  0  0  0  0  0  0  0  0  0
  1  7  1  0  0  0  0
  2 22  1  1  0  0  0
  2  6  1  0  0  0  0
  2  8  1  0  0  0  0
  3 12  1  0  0  0  0
  5  4  1  0  0  0  0
  5 10  1  0  0  0  0
  6 14  1  6  0  0  0
  6  1  1  0  0  0  0
  7 12  2  0  0  0  0
  7 11  1  0  0  0  0
  8 21  1  1  0  0  0
  8  3  1  0  0  0  0
  9  4  2  0  0  0  0
 11  5  2  0  0  0  0
 12  9  1  0  0  0  0
 13 18  1  0  0  0  0
 15 14  1  0  0  0  0
 16 15  2  0  0  0  0
 17 13  2  0  0  0  0
 17 16  1  0  0  0  0
 18 14  2  0  0  0  0
 19 21  1  0  0  0  0
 19 20  1  0  0  0  0
 21 20  1  0  0  0  0
 22 23  1  1  0  0  0
 24 25  2  0  0  0  0
 25 22  1  0  0  0  0
 26 27  1  0  0  0  0
 27 25  1  0  0  0  0
M  END
>  <MODEL>
9

>  <REMARK>
 VINA RESULT:      -6.1      6.298      9.579
  Name = 
  5 active torsions:
  status: ('A' for Active; 'I' for Inactive)
    1  A    between atoms: C_2  and  C_6
    2  A    between atoms: C_6  and  C_17
    3  A    between atoms: C_9  and  C_15
    4  A    between atoms: C_14  and  N_19
    5  A    between atoms: O_16  and  C_17
                            x       y       z     vdW  Elec       q    Type
                         _______ _______ _______ _____ _____    ______ ____

>  <TORSDO>
F 5

$$$$
