=
 OpenBabel10272413143D

 32 37  0  0  1  0  0  0  0  0999 V2000
  186.0670  178.4630  141.2770 C   0  0  0  0  0  0  0  0  0  0  0  0
  187.2700  178.0690  143.4860 C   0  0  1  0  0  3  0  0  0  0  0  0
  184.8870  178.7190  140.5590 C   0  0  0  0  0  3  0  0  0  0  0  0
  186.0080  178.2800  142.6750 C   0  0  0  0  0  0  0  0  0  0  0  0
  187.0010  177.7980  144.9750 C   0  0  1  0  0  3  0  0  0  0  0  0
  191.5910  175.7870  144.0020 C   0  0  0  0  0  3  0  0  0  0  0  0
  188.1320  176.9260  142.9490 C   0  0  0  0  0  2  0  0  0  0  0  0
  190.5890  176.9510  145.8740 C   0  0  0  0  0  3  0  0  0  0  0  0
  189.4360  177.1870  145.1200 C   0  0  0  0  0  0  0  0  0  0  0  0
  184.7710  178.4360  143.3360 C   0  0  0  0  0  0  0  0  0  0  0  0
  188.3240  178.0010  145.7270 C   0  0  0  0  0  2  0  0  0  0  0  0
  184.6760  178.2880  144.8240 C   0  0  0  0  0  2  0  0  0  0  0  0
  183.6070  178.6820  142.6050 C   0  0  0  0  0  3  0  0  0  0  0  0
  189.3740  176.7400  143.7780 C   0  0  0  0  0  0  0  0  0  0  0  0
  185.9290  178.6710  145.4790 N   0  0  0  0  0  0  0  0  0  0  0  0
  183.6640  178.8210  141.2200 C   0  0  0  0  0  3  0  0  0  0  0  0
  191.6620  176.2500  145.3190 C   0  0  0  0  0  3  0  0  0  0  0  0
  190.4470  176.0290  143.2360 C   0  0  0  0  0  3  0  0  0  0  0  0
  185.7380  178.4900  146.9230 C   0  0  0  0  0  2  0  0  0  0  0  0
  185.7500  179.7150  147.6010 O   0  0  0  0  0  1  0  0  0  0  0  0
  187.3010  178.3960  140.6200 O   0  0  0  0  0  0  0  0  0  0  0  0
  187.4260  178.1930  139.2200 C   0  0  0  0  0  2  0  0  0  0  0  0
  189.3980  176.7320  136.8380 C   0  0  2  0  0  0  0  0  0  0  0  0
  189.3250  175.2440  137.1840 C   0  0  0  0  0  1  0  0  0  0  0  0
  189.8460  177.9350  139.3510 C   0  0  2  0  0  3  0  0  0  0  0  0
  188.6000  177.2740  138.9570 C   0  0  2  0  0  3  0  0  0  0  0  0
  190.6060  177.2240  137.2710 O   0  0  0  0  0  0  0  0  0  0  0  0
  189.4690  177.8830  137.8340 C   0  0  1  0  0  0  0  0  0  0  0  0
  191.9560  177.4810  140.3700 O   0  0  0  0  0  1  0  0  0  0  0  0
  190.8100  176.8680  139.8660 C   0  0  0  0  0  2  0  0  0  0  0  0
  189.1690  177.1160  135.3900 C   0  0  0  0  0  2  0  0  0  0  0  0
  190.1360  176.5210  134.5820 O   0  0  0  0  0  1  0  0  0  0  0  0
  1  4  1  0  0  0  0
  2  7  1  6  0  0  0
  2  5  1  0  0  0  0
  3 16  1  0  0  0  0
  3  1  2  0  0  0  0
  4 10  2  0  0  0  0
  4  2  1  0  0  0  0
  5 15  1  0  0  0  0
  5 11  1  1  0  0  0
  6 17  1  0  0  0  0
  7 14  1  0  0  0  0
  9 11  1  0  0  0  0
  9  8  1  0  0  0  0
 10 12  1  0  0  0  0
 12 15  1  0  0  0  0
 13 10  1  0  0  0  0
 14  9  2  0  0  0  0
 15 19  1  0  0  0  0
 16 13  2  0  0  0  0
 17  8  2  0  0  0  0
 18 14  1  0  0  0  0
 18  6  2  0  0  0  0
 19 20  1  0  0  0  0
 21  1  1  0  0  0  0
 22 21  1  0  0  0  0
 23 24  1  1  0  0  0
 23 27  1  0  0  0  0
 23 28  1  0  0  0  0
 25 30  1  6  0  0  0
 26 22  1  1  0  0  0
 26 25  1  0  0  0  0
 28 27  1  1  0  0  0
 28 26  1  0  0  0  0
 28 25  1  0  0  0  0
 30 29  1  0  0  0  0
 31 23  1  0  0  0  0
 32 31  1  0  0  0  0
M  END
>  <MODEL>
1

>  <REMARK>
 VINA RESULT:      -9.5      0.000      0.000
  Name = 
  6 active torsions:
  status: ('A' for Active; 'I' for Inactive)
    1  A    between atoms: C_1  and  O_27
    2  A    between atoms: C_3  and  C_22
    3  A    between atoms: C_13  and  N_29
    4  A    between atoms: C_15  and  C_26
    5  A    between atoms: C_16  and  C_24
    6  A    between atoms: C_24  and  O_27
                            x       y       z     vdW  Elec       q    Type
                         _______ _______ _______ _____ _____    ______ ____

>  <TORSDO>
F 6

$$$$
=
 OpenBabel10272413143D

 32 37  0  0  1  0  0  0  0  0999 V2000
  189.6020  176.7120  143.1060 C   0  0  0  0  0  0  0  0  0  0  0  0
  187.6510  177.3790  144.6000 C   0  0  1  0  0  3  0  0  0  0  0  0
  190.9680  176.4300  142.9370 C   0  0  0  0  0  3  0  0  0  0  0  0
  189.1270  177.1310  144.3680 C   0  0  0  0  0  0  0  0  0  0  0  0
  187.3350  177.9140  146.0050 C   0  0  1  0  0  3  0  0  0  0  0  0
  183.4400  179.3810  143.0500 C   0  0  0  0  0  3  0  0  0  0  0  0
  187.0480  178.3470  143.5820 C   0  0  0  0  0  2  0  0  0  0  0  0
  183.6680  178.6260  145.3400 C   0  0  0  0  0  3  0  0  0  0  0  0
  185.0220  178.3550  145.1230 C   0  0  0  0  0  0  0  0  0  0  0  0
  190.0230  177.1810  145.4570 C   0  0  0  0  0  0  0  0  0  0  0  0
  185.8280  177.7410  146.2370 C   0  0  0  0  0  2  0  0  0  0  0  0
  189.5480  177.5830  146.8200 C   0  0  0  0  0  2  0  0  0  0  0  0
  191.3800  176.9060  145.2680 C   0  0  0  0  0  3  0  0  0  0  0  0
  185.5840  178.5740  143.8430 C   0  0  0  0  0  0  0  0  0  0  0  0
  188.1430  177.2220  147.0220 N   0  0  0  0  0  0  0  0  0  0  0  0
  191.8520  176.5330  144.0110 C   0  0  0  0  0  3  0  0  0  0  0  0
  182.8800  179.1410  144.3080 C   0  0  0  0  0  3  0  0  0  0  0  0
  184.7900  179.1020  142.8210 C   0  0  0  0  0  3  0  0  0  0  0  0
  187.7720  177.6560  148.3740 C   0  0  0  0  0  2  0  0  0  0  0  0
  188.8430  178.2850  149.0230 O   0  0  0  0  0  1  0  0  0  0  0  0
  188.7080  176.5740  142.0390 O   0  0  0  0  0  0  0  0  0  0  0  0
  188.5840  177.5360  141.0000 C   0  0  0  0  0  2  0  0  0  0  0  0
  188.4190  177.5590  137.5840 C   0  0  2  0  0  0  0  0  0  0  0  0
  188.1870  176.0890  137.2330 C   0  0  0  0  0  1  0  0  0  0  0  0
  190.4960  177.4230  139.4910 C   0  0  2  0  0  3  0  0  0  0  0  0
  189.1280  176.9470  139.7160 C   0  0  2  0  0  3  0  0  0  0  0  0
  189.7360  177.8660  137.3380 O   0  0  0  0  0  0  0  0  0  0  0  0
  189.3270  178.0850  138.6900 C   0  0  1  0  0  0  0  0  0  0  0  0
  192.6190  176.6810  138.6930 O   0  0  0  0  0  1  0  0  0  0  0  0
  191.2780  176.3130  138.7920 C   0  0  0  0  0  2  0  0  0  0  0  0
  187.5150  178.5790  136.9230 C   0  0  0  0  0  2  0  0  0  0  0  0
  186.3500  178.7380  137.6730 O   0  0  0  0  0  1  0  0  0  0  0  0
  1  4  1  0  0  0  0
  2  7  1  6  0  0  0
  2  5  1  0  0  0  0
  3  1  2  0  0  0  0
  3 16  1  0  0  0  0
  4  2  1  0  0  0  0
  4 10  2  0  0  0  0
  5 11  1  1  0  0  0
  5 15  1  0  0  0  0
  6 17  1  0  0  0  0
  7 14  1  0  0  0  0
  9  8  1  0  0  0  0
  9 11  1  0  0  0  0
 10 12  1  0  0  0  0
 12 15  1  0  0  0  0
 13 10  1  0  0  0  0
 14  9  2  0  0  0  0
 15 19  1  0  0  0  0
 16 13  2  0  0  0  0
 17  8  2  0  0  0  0
 18  6  2  0  0  0  0
 18 14  1  0  0  0  0
 19 20  1  0  0  0  0
 21  1  1  0  0  0  0
 22 21  1  0  0  0  0
 23 24  1  1  0  0  0
 23 28  1  0  0  0  0
 25 30  1  6  0  0  0
 25 26  1  0  0  0  0
 26 22  1  1  0  0  0
 27 23  1  0  0  0  0
 28 27  1  6  0  0  0
 28 25  1  0  0  0  0
 28 26  1  0  0  0  0
 29 30  1  0  0  0  0
 31 23  1  0  0  0  0
 31 32  1  0  0  0  0
M  END
>  <MODEL>
2

>  <REMARK>
 VINA RESULT:      -9.3      1.643      4.664
  Name = 
  6 active torsions:
  status: ('A' for Active; 'I' for Inactive)
    1  A    between atoms: C_1  and  O_27
    2  A    between atoms: C_3  and  C_22
    3  A    between atoms: C_13  and  N_29
    4  A    between atoms: C_15  and  C_26
    5  A    between atoms: C_16  and  C_24
    6  A    between atoms: C_24  and  O_27
                            x       y       z     vdW  Elec       q    Type
                         _______ _______ _______ _____ _____    ______ ____

>  <TORSDO>
F 6

$$$$
=
 OpenBabel10272413143D

 32 37  0  0  1  0  0  0  0  0999 V2000
  189.7750  176.8960  143.0490 C   0  0  0  0  0  0  0  0  0  0  0  0
  187.3200  177.5410  143.2470 C   0  0  1  0  0  3  0  0  0  0  0  0
  191.0370  176.7030  143.6360 C   0  0  0  0  0  3  0  0  0  0  0  0
  188.7080  177.3850  143.8330 C   0  0  0  0  0  0  0  0  0  0  0  0
  186.3120  178.1710  144.2220 C   0  0  1  0  0  3  0  0  0  0  0  0
  184.4770  179.0810  139.5460 C   0  0  0  0  0  3  0  0  0  0  0  0
  187.3110  178.3700  141.9620 C   0  0  0  0  0  2  0  0  0  0  0  0
  183.5040  178.5460  141.6970 C   0  0  0  0  0  3  0  0  0  0  0  0
  184.7800  178.3600  142.2370 C   0  0  0  0  0  0  0  0  0  0  0  0
  188.9110  177.5970  145.2130 C   0  0  0  0  0  0  0  0  0  0  0  0
  184.9060  177.9060  143.6680 C   0  0  0  0  0  2  0  0  0  0  0  0
  187.7920  178.0780  146.0850 C   0  0  0  0  0  2  0  0  0  0  0  0
  190.1750  177.4090  145.7770 C   0  0  0  0  0  3  0  0  0  0  0  0
  185.9190  178.5090  141.4090 C   0  0  0  0  0  0  0  0  0  0  0  0
  186.4920  177.6320  145.5790 N   0  0  0  0  0  0  0  0  0  0  0  0
  191.2360  176.9650  144.9900 C   0  0  0  0  0  3  0  0  0  0  0  0
  183.3530  178.9090  140.3570 C   0  0  0  0  0  3  0  0  0  0  0  0
  185.7570  178.8850  140.0730 C   0  0  0  0  0  3  0  0  0  0  0  0
  185.4670  178.1520  146.4920 C   0  0  0  0  0  2  0  0  0  0  0  0
  185.6490  179.5180  146.7440 O   0  0  0  0  0  1  0  0  0  0  0  0
  189.5640  176.6000  141.6980 O   0  0  0  0  0  0  0  0  0  0  0  0
  190.4540  177.0030  140.6660 C   0  0  0  0  0  2  0  0  0  0  0  0
  189.0630  177.8010  137.6440 C   0  0  2  0  0  0  0  0  0  0  0  0
  187.8250  176.9040  137.5790 C   0  0  0  0  0  1  0  0  0  0  0  0
  191.0740  176.0240  138.5210 C   0  0  2  0  0  3  0  0  0  0  0  0
  189.9460  176.4730  139.3420 C   0  0  2  0  0  3  0  0  0  0  0  0
  190.0390  177.2600  136.8440 O   0  0  0  0  0  0  0  0  0  0  0  0
  190.4230  177.4130  138.2120 C   0  0  1  0  0  0  0  0  0  0  0  0
  191.6410  173.9030  137.5850 O   0  0  0  0  0  1  0  0  0  0  0  0
  190.6090  174.8360  137.6810 C   0  0  0  0  0  2  0  0  0  0  0  0
  188.8720  179.2670  137.3150 C   0  0  0  0  0  2  0  0  0  0  0  0
  187.5370  179.5120  136.9940 O   0  0  0  0  0  1  0  0  0  0  0  0
  1  3  2  0  0  0  0
  1  4  1  0  0  0  0
  2  7  1  6  0  0  0
  2  4  1  0  0  0  0
  2  5  1  0  0  0  0
  3 16  1  0  0  0  0
  4 10  2  0  0  0  0
  5 11  1  6  0  0  0
  5 15  1  0  0  0  0
  6 18  2  0  0  0  0
  6 17  1  0  0  0  0
  8  9  1  0  0  0  0
  9 11  1  0  0  0  0
 10 13  1  0  0  0  0
 10 12  1  0  0  0  0
 14  7  1  0  0  0  0
 14  9  2  0  0  0  0
 15 12  1  0  0  0  0
 15 19  1  0  0  0  0
 16 13  2  0  0  0  0
 17  8  2  0  0  0  0
 18 14  1  0  0  0  0
 19 20  1  0  0  0  0
 21  1  1  0  0  0  0
 22 21  1  0  0  0  0
 23 24  1  1  0  0  0
 23 28  1  0  0  0  0
 25 30  1  6  0  0  0
 25 26  1  0  0  0  0
 26 22  1  1  0  0  0
 27 23  1  0  0  0  0
 28 27  1  6  0  0  0
 28 25  1  0  0  0  0
 28 26  1  0  0  0  0
 29 30  1  0  0  0  0
 31 23  1  0  0  0  0
 32 31  1  0  0  0  0
M  END
>  <MODEL>
3

>  <REMARK>
 VINA RESULT:      -9.2      1.421      4.710
  Name = 
  6 active torsions:
  status: ('A' for Active; 'I' for Inactive)
    1  A    between atoms: C_1  and  O_27
    2  A    between atoms: C_3  and  C_22
    3  A    between atoms: C_13  and  N_29
    4  A    between atoms: C_15  and  C_26
    5  A    between atoms: C_16  and  C_24
    6  A    between atoms: C_24  and  O_27
                            x       y       z     vdW  Elec       q    Type
                         _______ _______ _______ _____ _____    ______ ____

>  <TORSDO>
F 6

$$$$
=
 OpenBabel10272413143D

 32 37  0  0  1  0  0  0  0  0999 V2000
  190.1680  177.9510  142.4030 C   0  0  0  0  0  0  0  0  0  0  0  0
  187.7740  178.3550  141.6350 C   0  0  1  0  0  3  0  0  0  0  0  0
  191.4890  177.5610  142.1250 C   0  0  0  0  0  3  0  0  0  0  0  0
  189.1910  177.8810  141.3860 C   0  0  0  0  0  0  0  0  0  0  0  0
  186.8320  178.1180  140.4430 C   0  0  1  0  0  3  0  0  0  0  0  0
  183.8240  178.4200  144.5560 C   0  0  0  0  0  3  0  0  0  0  0  0
  187.1430  177.7090  142.8680 C   0  0  0  0  0  2  0  0  0  0  0  0
  183.6520  179.1330  142.2480 C   0  0  0  0  0  3  0  0  0  0  0  0
  184.9730  178.7350  142.0200 C   0  0  0  0  0  0  0  0  0  0  0  0
  189.5800  177.4950  140.0860 C   0  0  0  0  0  0  0  0  0  0  0  0
  185.5820  178.9810  140.6640 C   0  0  0  0  0  2  0  0  0  0  0  0
  188.5800  177.4460  138.9710 C   0  0  0  0  0  2  0  0  0  0  0  0
  190.8960  177.1020  139.8300 C   0  0  0  0  0  3  0  0  0  0  0  0
  185.7370  178.1990  143.0840 C   0  0  0  0  0  0  0  0  0  0  0  0
  187.5090  178.4260  139.1740 N   0  0  0  0  0  0  0  0  0  0  0  0
  191.8480  177.1330  140.8470 C   0  0  0  0  0  3  0  0  0  0  0  0
  183.0780  178.9720  143.5120 C   0  0  0  0  0  3  0  0  0  0  0  0
  185.1490  178.0310  144.3400 C   0  0  0  0  0  3  0  0  0  0  0  0
  186.5850  178.3000  138.0410 C   0  0  0  0  0  2  0  0  0  0  0  0
  186.9040  179.1980  137.0140 O   0  0  0  0  0  1  0  0  0  0  0  0
  189.8130  178.4140  143.6740 O   0  0  0  0  0  0  0  0  0  0  0  0
  190.7340  179.0400  144.5570 C   0  0  0  0  0  2  0  0  0  0  0  0
  188.7580  177.7430  147.0300 C   0  0  2  0  0  0  0  0  0  0  0  0
  189.2920  178.4150  148.2960 C   0  0  0  0  0  1  0  0  0  0  0  0
  191.1190  176.9290  145.7130 C   0  0  2  0  0  3  0  0  0  0  0  0
  190.7040  178.3230  145.8900 C   0  0  2  0  0  3  0  0  0  0  0  0
  189.2300  176.4530  146.9850 O   0  0  0  0  0  0  0  0  0  0  0  0
  189.5940  177.2490  145.8550 C   0  0  1  0  0  0  0  0  0  0  0  0
  192.4110  175.2240  146.7720 O   0  0  0  0  0  1  0  0  0  0  0  0
  191.8570  176.4870  146.9760 C   0  0  0  0  0  2  0  0  0  0  0  0
  187.2570  177.7560  146.8210 C   0  0  0  0  0  2  0  0  0  0  0  0
  186.6650  178.6720  147.6900 O   0  0  0  0  0  1  0  0  0  0  0  0
  1 21  1  0  0  0  0
  2  7  1  1  0  0  0
  3  1  1  0  0  0  0
  4  2  1  0  0  0  0
  4  1  2  0  0  0  0
  5 11  1  1  0  0  0
  5  2  1  0  0  0  0
  7 14  1  0  0  0  0
  8 17  1  0  0  0  0
  9  8  2  0  0  0  0
  9 14  1  0  0  0  0
 10  4  1  0  0  0  0
 11  9  1  0  0  0  0
 12 15  1  0  0  0  0
 12 10  1  0  0  0  0
 13 10  2  0  0  0  0
 13 16  1  0  0  0  0
 14 18  2  0  0  0  0
 15  5  1  0  0  0  0
 16  3  2  0  0  0  0
 17  6  2  0  0  0  0
 18  6  1  0  0  0  0
 19 15  1  0  0  0  0
 20 19  1  0  0  0  0
 21 22  1  0  0  0  0
 23 24  1  1  0  0  0
 25 28  1  0  0  0  0
 25 26  1  0  0  0  0
 25 30  1  1  0  0  0
 26 22  1  6  0  0  0
 27 23  1  0  0  0  0
 28 26  1  0  0  0  0
 28 27  1  1  0  0  0
 28 23  1  0  0  0  0
 29 30  1  0  0  0  0
 31 23  1  0  0  0  0
 31 32  1  0  0  0  0
M  END
>  <MODEL>
4

>  <REMARK>
 VINA RESULT:      -8.9      2.467      7.634
  Name = 
  6 active torsions:
  status: ('A' for Active; 'I' for Inactive)
    1  A    between atoms: C_1  and  O_27
    2  A    between atoms: C_3  and  C_22
    3  A    between atoms: C_13  and  N_29
    4  A    between atoms: C_15  and  C_26
    5  A    between atoms: C_16  and  C_24
    6  A    between atoms: C_24  and  O_27
                            x       y       z     vdW  Elec       q    Type
                         _______ _______ _______ _____ _____    ______ ____

>  <TORSDO>
F 6

$$$$
=
 OpenBabel10272413143D

 32 37  0  0  1  0  0  0  0  0999 V2000
  184.9790  178.4660  143.2560 C   0  0  0  0  0  0  0  0  0  0  0  0
  187.1010  178.0300  144.5930 C   0  0  1  0  0  3  0  0  0  0  0  0
  183.6090  178.7750  143.2080 C   0  0  0  0  0  3  0  0  0  0  0  0
  185.6130  178.2980  144.5060 C   0  0  0  0  0  0  0  0  0  0  0  0
  187.5950  177.7850  146.0280 C   0  0  1  0  0  3  0  0  0  0  0  0
  191.0160  175.5380  142.9780 C   0  0  0  0  0  3  0  0  0  0  0  0
  187.5380  176.8410  143.7370 C   0  0  0  0  0  2  0  0  0  0  0  0
  191.1200  176.7660  145.0620 C   0  0  0  0  0  3  0  0  0  0  0  0
  189.7550  177.0540  144.9700 C   0  0  0  0  0  0  0  0  0  0  0  0
  184.8730  178.5210  145.6860 C   0  0  0  0  0  0  0  0  0  0  0  0
  189.1220  177.9280  146.0210 C   0  0  0  0  0  2  0  0  0  0  0  0
  185.5210  178.3900  147.0310 C   0  0  0  0  0  2  0  0  0  0  0  0
  183.5100  178.8190  145.6190 C   0  0  0  0  0  3  0  0  0  0  0  0
  189.0190  176.6000  143.8490 C   0  0  0  0  0  0  0  0  0  0  0  0
  186.9480  178.7150  146.9680 N   0  0  0  0  0  0  0  0  0  0  0  0
  182.8790  178.9430  144.3830 C   0  0  0  0  0  3  0  0  0  0  0  0
  191.7480  176.0080  144.0720 C   0  0  0  0  0  3  0  0  0  0  0  0
  189.6540  175.8310  142.8700 C   0  0  0  0  0  3  0  0  0  0  0  0
  187.4910  178.5550  148.3220 C   0  0  0  0  0  2  0  0  0  0  0  0
  187.6360  177.2040  148.6620 O   0  0  0  0  0  1  0  0  0  0  0  0
  185.7210  178.3320  142.0780 O   0  0  0  0  0  0  0  0  0  0  0  0
  185.4830  179.1150  140.9160 C   0  0  0  0  0  2  0  0  0  0  0  0
  182.3510  178.5700  139.6550 C   0  0  2  0  0  0  0  0  0  0  0  0
  182.1510  177.0660  139.8450 C   0  0  0  0  0  1  0  0  0  0  0  0
  184.9520  178.7220  138.5690 C   0  0  2  0  0  3  0  0  0  0  0  0
  184.6470  178.3120  139.9430 C   0  0  2  0  0  3  0  0  0  0  0  0
  182.6400  178.8110  138.3340 O   0  0  0  0  0  0  0  0  0  0  0  0
  183.6470  179.2590  139.2440 C   0  0  1  0  0  0  0  0  0  0  0  0
  186.0290  177.2600  137.0210 O   0  0  0  0  0  1  0  0  0  0  0  0
  184.8160  177.4990  137.6650 C   0  0  0  0  0  2  0  0  0  0  0  0
  181.2300  179.4790  140.1170 C   0  0  0  0  0  2  0  0  0  0  0  0
  180.1830  179.4470  139.1970 O   0  0  0  0  0  1  0  0  0  0  0  0
  1  4  1  0  0  0  0
  2  7  1  6  0  0  0
  2  5  1  0  0  0  0
  3  1  2  0  0  0  0
  3 16  1  0  0  0  0
  4  2  1  0  0  0  0
  4 10  2  0  0  0  0
  5 11  1  6  0  0  0
  5 15  1  0  0  0  0
  6 17  1  0  0  0  0
  7 14  1  0  0  0  0
  9  8  1  0  0  0  0
  9 11  1  0  0  0  0
 10 12  1  0  0  0  0
 13 10  1  0  0  0  0
 14  9  2  0  0  0  0
 15 12  1  0  0  0  0
 15 19  1  0  0  0  0
 16 13  2  0  0  0  0
 17  8  2  0  0  0  0
 18  6  2  0  0  0  0
 18 14  1  0  0  0  0
 19 20  1  0  0  0  0
 21  1  1  0  0  0  0
 22 21  1  0  0  0  0
 23 24  1  1  0  0  0
 23 31  1  0  0  0  0
 25 30  1  6  0  0  0
 25 28  1  0  0  0  0
 25 26  1  0  0  0  0
 26 22  1  1  0  0  0
 27 23  1  0  0  0  0
 28 27  1  6  0  0  0
 28 23  1  0  0  0  0
 28 26  1  0  0  0  0
 29 30  1  0  0  0  0
 32 31  1  0  0  0  0
M  END
>  <MODEL>
5

>  <REMARK>
 VINA RESULT:      -8.8      2.867      4.566
  Name = 
  6 active torsions:
  status: ('A' for Active; 'I' for Inactive)
    1  A    between atoms: C_1  and  O_27
    2  A    between atoms: C_3  and  C_22
    3  A    between atoms: C_13  and  N_29
    4  A    between atoms: C_15  and  C_26
    5  A    between atoms: C_16  and  C_24
    6  A    between atoms: C_24  and  O_27
                            x       y       z     vdW  Elec       q    Type
                         _______ _______ _______ _____ _____    ______ ____

>  <TORSDO>
F 6

$$$$
=
 OpenBabel10272413143D

 32 37  0  0  1  0  0  0  0  0999 V2000
  186.8800  178.4050  140.5550 C   0  0  0  0  0  0  0  0  0  0  0  0
  187.6410  178.0260  142.9550 C   0  0  1  0  0  3  0  0  0  0  0  0
  185.8570  178.6530  139.6240 C   0  0  0  0  0  3  0  0  0  0  0  0
  186.5560  178.2280  141.9170 C   0  0  0  0  0  0  0  0  0  0  0  0
  187.0940  177.7610  144.3670 C   0  0  1  0  0  3  0  0  0  0  0  0
  191.7920  175.7660  144.2980 C   0  0  0  0  0  3  0  0  0  0  0  0
  188.5930  176.8850  142.5980 C   0  0  0  0  0  2  0  0  0  0  0  0
  190.4480  176.9340  145.9380 C   0  0  0  0  0  3  0  0  0  0  0  0
  189.4590  177.1610  144.9760 C   0  0  0  0  0  0  0  0  0  0  0  0
  185.2160  178.3820  142.3290 C   0  0  0  0  0  0  0  0  0  0  0  0
  188.2480  177.9730  145.3560 C   0  0  0  0  0  2  0  0  0  0  0  0
  184.8380  178.2410  143.7730 C   0  0  0  0  0  2  0  0  0  0  0  0
  184.2110  178.6190  141.3890 C   0  0  0  0  0  3  0  0  0  0  0  0
  189.6550  176.7080  143.6500 C   0  0  0  0  0  0  0  0  0  0  0  0
  185.9430  178.6310  144.6520 N   0  0  0  0  0  0  0  0  0  0  0  0
  184.5300  178.7520  140.0390 C   0  0  0  0  0  3  0  0  0  0  0  0
  191.6090  176.2350  145.6010 C   0  0  0  0  0  3  0  0  0  0  0  0
  190.8150  175.9990  143.3260 C   0  0  0  0  0  3  0  0  0  0  0  0
  185.4810  178.4560  146.0340 C   0  0  0  0  0  2  0  0  0  0  0  0
  184.1300  178.8010  146.1730 O   0  0  0  0  0  1  0  0  0  0  0  0
  188.2170  178.3410  140.1460 O   0  0  0  0  0  0  0  0  0  0  0  0
  188.6520  178.7250  138.8490 C   0  0  0  0  0  2  0  0  0  0  0  0
  191.4450  176.7510  138.8710 C   0  0  2  0  0  0  0  0  0  0  0  0
  191.9500  176.8400  137.4300 C   0  0  0  0  0  1  0  0  0  0  0  0
  188.6780  176.3080  138.5350 C   0  0  2  0  0  3  0  0  0  0  0  0
  189.3660  177.5580  138.2020 C   0  0  2  0  0  3  0  0  0  0  0  0
  190.8150  175.5420  139.0410 O   0  0  0  0  0  0  0  0  0  0  0  0
  189.9870  176.6760  139.3080 C   0  0  1  0  0  0  0  0  0  0  0  0
  188.2630  175.9500  136.2120 O   0  0  0  0  0  1  0  0  0  0  0  0
  188.8150  175.3570  137.3470 C   0  0  0  0  0  2  0  0  0  0  0  0
  192.4610  176.9690  139.9740 C   0  0  0  0  0  2  0  0  0  0  0  0
  193.7310  177.1320  139.4230 O   0  0  0  0  0  1  0  0  0  0  0  0
  1  4  1  0  0  0  0
  2  7  1  6  0  0  0
  2  5  1  0  0  0  0
  3 16  1  0  0  0  0
  3  1  2  0  0  0  0
  4 10  2  0  0  0  0
  4  2  1  0  0  0  0
  5 15  1  0  0  0  0
  5 11  1  1  0  0  0
  6 17  1  0  0  0  0
  7 14  1  0  0  0  0
  9 11  1  0  0  0  0
  9  8  1  0  0  0  0
 10 12  1  0  0  0  0
 12 15  1  0  0  0  0
 13 10  1  0  0  0  0
 14  9  2  0  0  0  0
 15 19  1  0  0  0  0
 16 13  2  0  0  0  0
 17  8  2  0  0  0  0
 18 14  1  0  0  0  0
 18  6  2  0  0  0  0
 19 20  1  0  0  0  0
 21  1  1  0  0  0  0
 22 21  1  0  0  0  0
 23 24  1  6  0  0  0
 23 27  1  0  0  0  0
 23 28  1  0  0  0  0
 23 31  1  0  0  0  0
 25 30  1  6  0  0  0
 25 28  1  0  0  0  0
 26 25  1  0  0  0  0
 26 22  1  1  0  0  0
 26 28  1  0  0  0  0
 28 27  1  6  0  0  0
 29 30  1  0  0  0  0
 32 31  1  0  0  0  0
M  END
>  <MODEL>
6

>  <REMARK>
 VINA RESULT:      -8.7      1.222      2.306
  Name = 
  6 active torsions:
  status: ('A' for Active; 'I' for Inactive)
    1  A    between atoms: C_1  and  O_27
    2  A    between atoms: C_3  and  C_22
    3  A    between atoms: C_13  and  N_29
    4  A    between atoms: C_15  and  C_26
    5  A    between atoms: C_16  and  C_24
    6  A    between atoms: C_24  and  O_27
                            x       y       z     vdW  Elec       q    Type
                         _______ _______ _______ _____ _____    ______ ____

>  <TORSDO>
F 6

$$$$
=
 OpenBabel10272413143D

 32 37  0  0  1  0  0  0  0  0999 V2000
  185.8620  178.0380  143.9250 C   0  0  0  0  0  0  0  0  0  0  0  0
  184.4870  178.0710  141.7830 C   0  0  1  0  0  3  0  0  0  0  0  0
  185.9810  178.2890  145.3020 C   0  0  0  0  0  3  0  0  0  0  0  0
  184.6720  178.3880  143.2520 C   0  0  0  0  0  0  0  0  0  0  0  0
  183.1690  178.6060  141.2020 C   0  0  1  0  0  3  0  0  0  0  0  0
  186.3250  178.0820  137.2250 C   0  0  0  0  0  3  0  0  0  0  0  0
  185.6310  178.5990  140.9160 C   0  0  0  0  0  2  0  0  0  0  0  0
  183.9540  177.7560  137.5890 C   0  0  0  0  0  3  0  0  0  0  0  0
  184.1210  178.0070  138.9540 C   0  0  0  0  0  0  0  0  0  0  0  0
  183.5930  178.9120  143.9940 C   0  0  0  0  0  0  0  0  0  0  0  0
  182.9280  177.8920  139.8660 C   0  0  0  0  0  2  0  0  0  0  0  0
  182.2990  179.2590  143.3210 C   0  0  0  0  0  2  0  0  0  0  0  0
  183.7320  179.1640  145.3610 C   0  0  0  0  0  3  0  0  0  0  0  0
  185.4140  178.2710  139.4640 C   0  0  0  0  0  0  0  0  0  0  0  0
  182.0620  178.4090  142.1520 N   0  0  0  0  0  0  0  0  0  0  0  0
  184.9240  178.8550  146.0130 C   0  0  0  0  0  3  0  0  0  0  0  0
  185.0520  177.7970  136.7260 C   0  0  0  0  0  3  0  0  0  0  0  0
  186.5040  178.3230  138.5900 C   0  0  0  0  0  3  0  0  0  0  0  0
  180.7830  178.8250  141.5640 C   0  0  0  0  0  2  0  0  0  0  0  0
  180.4070  180.1010  142.0020 O   0  0  0  0  0  1  0  0  0  0  0  0
  186.9090  177.4370  143.2170 O   0  0  0  0  0  0  0  0  0  0  0  0
  187.9530  176.7060  143.8440 C   0  0  0  0  0  2  0  0  0  0  0  0
  191.3080  176.9900  144.4460 C   0  0  2  0  0  0  0  0  0  0  0  0
  191.5770  178.4820  144.2440 C   0  0  0  0  0  1  0  0  0  0  0  0
  189.7200  176.3340  142.2060 C   0  0  2  0  0  3  0  0  0  0  0  0
  189.2840  177.1920  143.3120 C   0  0  2  0  0  3  0  0  0  0  0  0
  191.7520  176.3100  143.3380 O   0  0  0  0  0  0  0  0  0  0  0  0
  190.3630  176.1280  143.6180 C   0  0  1  0  0  0  0  0  0  0  0  0
  189.5970  177.7940  140.3220 O   0  0  0  0  0  1  0  0  0  0  0  0
  190.4920  177.1970  141.2100 C   0  0  0  0  0  2  0  0  0  0  0  0
  191.8620  176.3520  145.7040 C   0  0  0  0  0  2  0  0  0  0  0  0
  191.6060  177.1720  146.8030 O   0  0  0  0  0  1  0  0  0  0  0  0
  1  3  1  0  0  0  0
  2  7  1  6  0  0  0
  2  4  1  0  0  0  0
  3 16  2  0  0  0  0
  4  1  2  0  0  0  0
  4 10  1  0  0  0  0
  5 11  1  6  0  0  0
  5  2  1  0  0  0  0
  5 15  1  0  0  0  0
  6 18  1  0  0  0  0
  8  9  2  0  0  0  0
  9 14  1  0  0  0  0
  9 11  1  0  0  0  0
 10 13  2  0  0  0  0
 12 10  1  0  0  0  0
 13 16  1  0  0  0  0
 14  7  1  0  0  0  0
 15 12  1  0  0  0  0
 17  6  2  0  0  0  0
 17  8  1  0  0  0  0
 18 14  2  0  0  0  0
 19 20  1  0  0  0  0
 19 15  1  0  0  0  0
 21 22  1  0  0  0  0
 21  1  1  0  0  0  0
 23 24  1  6  0  0  0
 23 31  1  0  0  0  0
 25 30  1  6  0  0  0
 25 26  1  0  0  0  0
 25 28  1  0  0  0  0
 26 28  1  0  0  0  0
 26 22  1  1  0  0  0
 27 23  1  0  0  0  0
 28 27  1  6  0  0  0
 28 23  1  0  0  0  0
 29 30  1  0  0  0  0
 31 32  1  0  0  0  0
M  END
>  <MODEL>
7

>  <REMARK>
 VINA RESULT:      -8.7      2.597      6.447
  Name = 
  6 active torsions:
  status: ('A' for Active; 'I' for Inactive)
    1  A    between atoms: C_1  and  O_27
    2  A    between atoms: C_3  and  C_22
    3  A    between atoms: C_13  and  N_29
    4  A    between atoms: C_15  and  C_26
    5  A    between atoms: C_16  and  C_24
    6  A    between atoms: C_24  and  O_27
                            x       y       z     vdW  Elec       q    Type
                         _______ _______ _______ _____ _____    ______ ____

>  <TORSDO>
F 6

$$$$
=
 OpenBabel10272413143D

 32 37  0  0  1  0  0  0  0  0999 V2000
  186.2660  178.4790  140.2100 C   0  0  0  0  0  0  0  0  0  0  0  0
  185.6630  178.5780  142.6820 C   0  0  1  0  0  3  0  0  0  0  0  0
  185.8770  178.4120  138.8610 C   0  0  0  0  0  3  0  0  0  0  0  0
  185.2820  178.4400  141.2220 C   0  0  0  0  0  0  0  0  0  0  0  0
  184.4730  178.4210  143.6410 C   0  0  1  0  0  3  0  0  0  0  0  0
  188.6260  177.2870  146.3830 C   0  0  0  0  0  3  0  0  0  0  0  0
  186.7430  177.5820  143.1060 C   0  0  0  0  0  2  0  0  0  0  0  0
  186.5330  178.4200  146.8280 C   0  0  0  0  0  3  0  0  0  0  0  0
  186.1910  178.3350  145.4750 C   0  0  0  0  0  0  0  0  0  0  0  0
  183.9200  178.4140  140.8550 C   0  0  0  0  0  0  0  0  0  0  0  0
  184.9060  178.9680  145.0080 C   0  0  0  0  0  2  0  0  0  0  0  0
  182.8470  178.4120  141.9010 C   0  0  0  0  0  2  0  0  0  0  0  0
  183.5530  178.3380  139.5100 C   0  0  0  0  0  3  0  0  0  0  0  0
  187.0940  177.7420  144.5600 C   0  0  0  0  0  0  0  0  0  0  0  0
  183.2830  179.1080  143.1140 N   0  0  0  0  0  0  0  0  0  0  0  0
  184.5290  178.3340  138.5150 C   0  0  0  0  0  3  0  0  0  0  0  0
  187.7450  177.8950  147.2810 C   0  0  0  0  0  3  0  0  0  0  0  0
  188.2990  177.2080  145.0270 C   0  0  0  0  0  3  0  0  0  0  0  0
  182.1730  179.0500  144.0720 C   0  0  0  0  0  2  0  0  0  0  0  0
  180.9490  178.8260  143.4280 O   0  0  0  0  0  1  0  0  0  0  0  0
  187.6160  178.5930  140.5580 O   0  0  0  0  0  0  0  0  0  0  0  0
  188.6080  179.0930  139.6720 C   0  0  0  0  0  2  0  0  0  0  0  0
  190.9650  177.3150  141.4000 C   0  0  2  0  0  0  0  0  0  0  0  0
  192.2680  177.6630  140.6770 C   0  0  0  0  0  1  0  0  0  0  0  0
  189.1980  176.7620  139.2690 C   0  0  2  0  0  3  0  0  0  0  0  0
  189.7370  178.0890  139.5790 C   0  0  2  0  0  3  0  0  0  0  0  0
  190.5690  176.0590  141.0110 O   0  0  0  0  0  0  0  0  0  0  0  0
  189.6090  177.0830  140.7450 C   0  0  1  0  0  0  0  0  0  0  0  0
  190.6850  176.8730  137.4050 O   0  0  0  0  0  1  0  0  0  0  0  0
  190.2200  176.0220  138.4080 C   0  0  0  0  0  2  0  0  0  0  0  0
  190.9660  177.4170  142.9120 C   0  0  0  0  0  2  0  0  0  0  0  0
  191.6080  176.3090  143.4620 O   0  0  0  0  0  1  0  0  0  0  0  0
  1 21  1  0  0  0  0
  1  4  1  0  0  0  0
  2  7  1  1  0  0  0
  2  5  1  0  0  0  0
  3  1  2  0  0  0  0
  4  2  1  0  0  0  0
  5 11  1  1  0  0  0
  6 17  1  0  0  0  0
  7 14  1  0  0  0  0
  8 17  2  0  0  0  0
  9  8  1  0  0  0  0
 10  4  2  0  0  0  0
 10 12  1  0  0  0  0
 11  9  1  0  0  0  0
 12 15  1  0  0  0  0
 13 10  1  0  0  0  0
 14 18  1  0  0  0  0
 14  9  2  0  0  0  0
 15  5  1  0  0  0  0
 15 19  1  0  0  0  0
 16  3  1  0  0  0  0
 16 13  2  0  0  0  0
 18  6  2  0  0  0  0
 20 19  1  0  0  0  0
 22 21  1  0  0  0  0
 23 24  1  6  0  0  0
 23 31  1  0  0  0  0
 25 30  1  6  0  0  0
 25 26  1  0  0  0  0
 25 28  1  0  0  0  0
 26 22  1  1  0  0  0
 26 28  1  0  0  0  0
 27 23  1  0  0  0  0
 28 27  1  6  0  0  0
 28 23  1  0  0  0  0
 29 30  1  0  0  0  0
 31 32  1  0  0  0  0
M  END
>  <MODEL>
8

>  <REMARK>
 VINA RESULT:      -8.6      1.976      3.832
  Name = 
  6 active torsions:
  status: ('A' for Active; 'I' for Inactive)
    1  A    between atoms: C_1  and  O_27
    2  A    between atoms: C_3  and  C_22
    3  A    between atoms: C_13  and  N_29
    4  A    between atoms: C_15  and  C_26
    5  A    between atoms: C_16  and  C_24
    6  A    between atoms: C_24  and  O_27
                            x       y       z     vdW  Elec       q    Type
                         _______ _______ _______ _____ _____    ______ ____

>  <TORSDO>
F 6

$$$$
=
 OpenBabel10272413143D

 32 37  0  0  1  0  0  0  0  0999 V2000
  186.0420  178.5080  144.1100 C   0  0  0  0  0  0  0  0  0  0  0  0
  188.4530  177.9720  143.4920 C   0  0  1  0  0  3  0  0  0  0  0  0
  185.0170  178.5900  145.0680 C   0  0  0  0  0  3  0  0  0  0  0  0
  187.3090  178.0110  144.4840 C   0  0  0  0  0  0  0  0  0  0  0  0
  189.7250  177.3170  144.0520 C   0  0  1  0  0  3  0  0  0  0  0  0
  190.0540  176.8780  138.9770 C   0  0  0  0  0  3  0  0  0  0  0  0
  188.0850  177.2510  142.1950 C   0  0  0  0  0  2  0  0  0  0  0  0
  191.6290  177.2870  140.7700 C   0  0  0  0  0  3  0  0  0  0  0  0
  190.5770  177.3650  141.6870 C   0  0  0  0  0  0  0  0  0  0  0  0
  187.5450  177.6800  145.8350 C   0  0  0  0  0  0  0  0  0  0  0  0
  190.8870  177.6960  143.1230 C   0  0  0  0  0  2  0  0  0  0  0  0
  188.8890  177.1870  146.2780 C   0  0  0  0  0  2  0  0  0  0  0  0
  186.5120  177.7590  146.7720 C   0  0  0  0  0  3  0  0  0  0  0  0
  189.2430  177.2270  141.2350 C   0  0  0  0  0  0  0  0  0  0  0  0
  189.9590  177.7370  145.4430 N   0  0  0  0  0  0  0  0  0  0  0  0
  185.2500  178.2110  146.3890 C   0  0  0  0  0  3  0  0  0  0  0  0
  191.3690  177.0400  139.4200 C   0  0  0  0  0  3  0  0  0  0  0  0
  188.9940  176.9670  139.8840 C   0  0  0  0  0  3  0  0  0  0  0  0
  191.2270  177.1960  145.9490 C   0  0  0  0  0  2  0  0  0  0  0  0
  191.0510  176.5320  147.1700 O   0  0  0  0  0  1  0  0  0  0  0  0
  185.8200  178.9210  142.7920 O   0  0  0  0  0  0  0  0  0  0  0  0
  184.5250  179.1610  142.2600 C   0  0  0  0  0  2  0  0  0  0  0  0
  182.3450  178.0630  139.8640 C   0  0  2  0  0  0  0  0  0  0  0  0
  182.5970  176.5550  139.8220 C   0  0  0  0  0  1  0  0  0  0  0  0
  184.9570  179.1330  139.8610 C   0  0  2  0  0  3  0  0  0  0  0  0
  184.3680  178.3810  140.9720 C   0  0  2  0  0  3  0  0  0  0  0  0
  182.9580  178.6410  138.7780 O   0  0  0  0  0  0  0  0  0  0  0  0
  183.4030  179.1470  140.0390 C   0  0  1  0  0  0  0  0  0  0  0  0
  186.3970  178.7950  137.9880 O   0  0  0  0  0  1  0  0  0  0  0  0
  185.5340  178.1330  138.8620 C   0  0  0  0  0  2  0  0  0  0  0  0
  180.9030  178.5200  139.9510 C   0  0  0  0  0  2  0  0  0  0  0  0
  180.2810  177.9220  141.0460 O   0  0  0  0  0  1  0  0  0  0  0  0
  1  4  2  0  0  0  0
  1  3  1  0  0  0  0
  2  7  1  6  0  0  0
  2  5  1  0  0  0  0
  2  4  1  0  0  0  0
  3 16  2  0  0  0  0
  4 10  1  0  0  0  0
  5 11  1  6  0  0  0
  5 15  1  0  0  0  0
  6 17  2  0  0  0  0
  6 18  1  0  0  0  0
  8  9  2  0  0  0  0
  9 11  1  0  0  0  0
 10 12  1  0  0  0  0
 10 13  2  0  0  0  0
 14  9  1  0  0  0  0
 14  7  1  0  0  0  0
 15 19  1  0  0  0  0
 15 12  1  0  0  0  0
 16 13  1  0  0  0  0
 17  8  1  0  0  0  0
 18 14  2  0  0  0  0
 19 20  1  0  0  0  0
 21  1  1  0  0  0  0
 22 21  1  0  0  0  0
 23 24  1  1  0  0  0
 23 31  1  0  0  0  0
 23 28  1  0  0  0  0
 25 30  1  6  0  0  0
 25 28  1  0  0  0  0
 25 26  1  0  0  0  0
 26 22  1  1  0  0  0
 27 23  1  0  0  0  0
 28 27  1  6  0  0  0
 28 26  1  0  0  0  0
 29 30  1  0  0  0  0
 31 32  1  0  0  0  0
M  END
>  <MODEL>
9

>  <REMARK>
 VINA RESULT:      -8.6      2.481      5.475
  Name = 
  6 active torsions:
  status: ('A' for Active; 'I' for Inactive)
    1  A    between atoms: C_1  and  O_27
    2  A    between atoms: C_3  and  C_22
    3  A    between atoms: C_13  and  N_29
    4  A    between atoms: C_15  and  C_26
    5  A    between atoms: C_16  and  C_24
    6  A    between atoms: C_24  and  O_27
                            x       y       z     vdW  Elec       q    Type
                         _______ _______ _______ _____ _____    ______ ____

>  <TORSDO>
F 6

$$$$
