=
 OpenBabel10262423463D

 34 38  0  0  1  0  0  0  0  0999 V2000
  190.2300  176.2130  137.5250 C   0  0  0  0  0  0  0  0  0  0  0  0
  192.6070  176.5590  138.3410 C   0  0  0  0  0  0  0  0  0  0  0  0
  190.6470  177.2540  139.6900 C   0  0  0  0  0  0  0  0  0  0  0  0
  191.9390  178.2940  143.1990 C   0  0  0  0  0  1  0  0  0  0  0  0
  193.1160  176.1570  137.2610 O   0  0  0  0  0  0  0  0  0  0  0  0
  193.0350  177.3930  140.5440 C   0  0  0  0  0  3  0  0  0  0  0  0
  191.1380  176.6840  138.4980 C   0  0  0  0  0  0  0  0  0  0  0  0
  191.0340  177.6340  142.1590 C   0  0  1  0  0  0  0  0  0  0  0  0
  189.2600  177.3760  139.9120 C   0  0  0  0  0  0  0  0  0  0  0  0
  188.8530  176.3170  137.7640 C   0  0  0  0  0  3  0  0  0  0  0  0
  193.4680  176.8630  139.4420 N   0  0  0  0  0  0  0  0  0  0  0  0
  189.7160  178.4040  142.1870 C   0  0  0  0  0  2  0  0  0  0  0  0
  188.7720  177.9360  141.1620 N   0  0  0  0  0  0  0  0  0  0  0  0
  191.5950  177.8070  140.7270 C   0  0  2  0  0  3  0  0  0  0  0  0
  188.3770  176.8830  138.9440 C   0  0  0  0  0  3  0  0  0  0  0  0
  185.1810  179.0750  140.8030 C   0  0  0  0  0  0  0  0  0  0  0  0
  184.5520  178.6110  142.0810 C   0  0  0  0  0  2  0  0  0  0  0  0
  187.3740  178.1650  141.4270 C   0  0  0  0  0  0  0  0  0  0  0  0
  185.6040  178.5210  143.1820 C   0  0  0  0  0  2  0  0  0  0  0  0
  186.6030  178.8100  140.5370 C   0  0  0  0  0  3  0  0  0  0  0  0
  186.7790  177.6580  142.7200 C   0  0  0  0  0  2  0  0  0  0  0  0
  184.4820  179.6620  139.9370 O   0  0  0  0  0  0  0  0  0  0  0  0
  190.1890  175.9780  135.0560 C   0  0  0  0  0  1  0  0  0  0  0  0
  190.7000  175.6370  136.3370 O   0  0  0  0  0  0  0  0  0  0  0  0
  190.7390  176.2840  142.4880 O   0  0  0  0  0  0  0  0  0  0  0  0
  189.8960  176.2180  143.6100 C   0  0  0  0  0  2  0  0  0  0  0  0
  190.7150  176.4350  144.8660 C   0  0  0  0  0  2  0  0  0  0  0  0
  191.5950  176.9490  147.5710 O   0  0  0  0  0  1  0  0  0  0  0  0
  189.9470  177.3060  145.8470 C   0  0  2  0  0  3  0  0  0  0  0  0
  190.2290  176.8910  147.2970 C   0  0  2  0  0  3  0  0  0  0  0  0
  188.0530  178.0380  147.8620 C   0  0  0  0  0  3  0  0  0  0  0  0
  187.5940  177.7750  146.6300 C   0  0  0  0  0  3  0  0  0  0  0  0
  188.4540  177.1470  145.5640 C   0  0  0  0  0  2  0  0  0  0  0  0
  189.4940  177.8300  148.2510 C   0  0  0  0  0  2  0  0  0  0  0  0
  1 10  2  0  0  0  0
  1  7  1  0  0  0  0
  2  7  1  0  0  0  0
  2 11  1  0  0  0  0
  3  9  1  0  0  0  0
  3 14  1  0  0  0  0
  5  2  2  0  0  0  0
  7  3  2  0  0  0  0
  8 12  1  0  0  0  0
  8 25  1  0  0  0  0
  8  4  1  1  0  0  0
  9 13  1  0  0  0  0
 10 15  1  0  0  0  0
 11  6  2  0  0  0  0
 13 18  1  0  0  0  0
 13 12  1  0  0  0  0
 14  6  1  1  0  0  0
 14  8  1  0  0  0  0
 15  9  2  0  0  0  0
 16 17  1  0  0  0  0
 17 19  1  0  0  0  0
 18 21  1  0  0  0  0
 20 16  1  0  0  0  0
 20 18  2  0  0  0  0
 21 19  1  0  0  0  0
 22 16  2  0  0  0  0
 23 24  1  0  0  0  0
 24  1  1  0  0  0  0
 25 26  1  0  0  0  0
 26 27  1  0  0  0  0
 29 27  1  6  0  0  0
 29 30  1  0  0  0  0
 30 28  1  1  0  0  0
 30 34  1  0  0  0  0
 31 34  1  0  0  0  0
 32 31  2  0  0  0  0
 33 29  1  0  0  0  0
 33 32  1  0  0  0  0
M  END
>  <MODEL>
1

>  <REMARK>
 VINA RESULT:      -9.2      0.000      0.000
  Name = 
  6 active torsions:
  status: ('A' for Active; 'I' for Inactive)
    1  A    between atoms: C_1  and  O_19
    2  A    between atoms: C_3  and  C_13
    3  A    between atoms: C_3  and  C_17
    4  A    between atoms: C_12  and  N_28
    5  A    between atoms: C_17  and  O_29
    6  A    between atoms: C_18  and  O_29
                            x       y       z     vdW  Elec       q    Type
                         _______ _______ _______ _____ _____    ______ ____

>  <TORSDO>
F 6

$$$$
=
 OpenBabel10262423463D

 34 38  0  0  1  0  0  0  0  0999 V2000
  188.8240  173.7980  136.4600 C   0  0  0  0  0  0  0  0  0  0  0  0
  191.3410  173.8550  136.7690 C   0  0  0  0  0  0  0  0  0  0  0  0
  189.8620  175.5790  137.7630 C   0  0  0  0  0  0  0  0  0  0  0  0
  192.0210  177.7570  140.1420 C   0  0  0  0  0  1  0  0  0  0  0  0
  191.5340  172.8810  135.9940 O   0  0  0  0  0  0  0  0  0  0  0  0
  192.3610  175.4760  138.2070 C   0  0  0  0  0  3  0  0  0  0  0  0
  189.9840  174.4140  136.9770 C   0  0  0  0  0  0  0  0  0  0  0  0
  190.8160  176.9480  139.6610 C   0  0  1  0  0  0  0  0  0  0  0  0
  188.5970  176.1440  138.0220 C   0  0  0  0  0  0  0  0  0  0  0  0
  187.5680  174.3540  136.7420 C   0  0  0  0  0  3  0  0  0  0  0  0
  192.4530  174.4030  137.4840 N   0  0  0  0  0  0  0  0  0  0  0  0
  189.6920  177.9540  139.4220 C   0  0  0  0  0  2  0  0  0  0  0  0
  188.4880  177.3260  138.8610 N   0  0  0  0  0  0  0  0  0  0  0  0
  191.0880  176.2840  138.2910 C   0  0  2  0  0  3  0  0  0  0  0  0
  187.4570  175.5050  137.5170 C   0  0  0  0  0  3  0  0  0  0  0  0
  185.6170  179.0590  140.6150 C   0  0  0  0  0  0  0  0  0  0  0  0
  184.6620  179.3430  139.4950 C   0  0  0  0  0  2  0  0  0  0  0  0
  187.2390  178.0040  139.1040 C   0  0  0  0  0  0  0  0  0  0  0  0
  184.8520  178.3300  138.3710 C   0  0  0  0  0  2  0  0  0  0  0  0
  186.8980  178.3890  140.3440 C   0  0  0  0  0  3  0  0  0  0  0  0
  186.3190  178.2890  137.9400 C   0  0  0  0  0  2  0  0  0  0  0  0
  185.3380  179.4270  141.7840 O   0  0  0  0  0  0  0  0  0  0  0  0
  188.0140  171.5510  135.7910 C   0  0  0  0  0  1  0  0  0  0  0  0
  188.9260  172.6360  135.6830 O   0  0  0  0  0  0  0  0  0  0  0  0
  190.3590  176.0340  140.6480 O   0  0  0  0  0  0  0  0  0  0  0  0
  190.4840  176.5870  141.9340 C   0  0  0  0  0  2  0  0  0  0  0  0
  189.5100  175.9030  142.8710 C   0  0  0  0  0  2  0  0  0  0  0  0
  190.6580  176.9240  145.3200 O   0  0  0  0  0  1  0  0  0  0  0  0
  188.8230  176.9320  143.7550 C   0  0  2  0  0  3  0  0  0  0  0  0
  189.2720  176.7980  145.2150 C   0  0  2  0  0  3  0  0  0  0  0  0
  187.1330  178.0050  145.7980 C   0  0  0  0  0  3  0  0  0  0  0  0
  186.5530  177.5100  144.6940 C   0  0  0  0  0  3  0  0  0  0  0  0
  187.3150  176.7050  143.6730 C   0  0  0  0  0  2  0  0  0  0  0  0
  188.6130  177.8900  146.0550 C   0  0  0  0  0  2  0  0  0  0  0  0
  1 10  2  0  0  0  0
  1  7  1  0  0  0  0
  2  7  1  0  0  0  0
  2 11  1  0  0  0  0
  3  9  1  0  0  0  0
  3 14  1  0  0  0  0
  5  2  2  0  0  0  0
  7  3  2  0  0  0  0
  8  4  1  1  0  0  0
  8 25  1  0  0  0  0
  9 13  1  0  0  0  0
 10 15  1  0  0  0  0
 11  6  2  0  0  0  0
 12  8  1  0  0  0  0
 13 18  1  0  0  0  0
 13 12  1  0  0  0  0
 14  6  1  1  0  0  0
 14  8  1  0  0  0  0
 15  9  2  0  0  0  0
 16 22  2  0  0  0  0
 17 16  1  0  0  0  0
 18 20  2  0  0  0  0
 19 17  1  0  0  0  0
 20 16  1  0  0  0  0
 21 19  1  0  0  0  0
 21 18  1  0  0  0  0
 24 23  1  0  0  0  0
 24  1  1  0  0  0  0
 25 26  1  0  0  0  0
 26 27  1  0  0  0  0
 29 27  1  6  0  0  0
 29 30  1  0  0  0  0
 30 28  1  6  0  0  0
 30 34  1  0  0  0  0
 31 34  1  0  0  0  0
 32 31  2  0  0  0  0
 33 29  1  0  0  0  0
 33 32  1  0  0  0  0
M  END
>  <MODEL>
2

>  <REMARK>
 VINA RESULT:      -8.9      2.026      2.866
  Name = 
  6 active torsions:
  status: ('A' for Active; 'I' for Inactive)
    1  A    between atoms: C_1  and  O_19
    2  A    between atoms: C_3  and  C_13
    3  A    between atoms: C_3  and  C_17
    4  A    between atoms: C_12  and  N_28
    5  A    between atoms: C_17  and  O_29
    6  A    between atoms: C_18  and  O_29
                            x       y       z     vdW  Elec       q    Type
                         _______ _______ _______ _____ _____    ______ ____

>  <TORSDO>
F 6

$$$$
=
 OpenBabel10262423463D

 34 38  0  0  1  0  0  0  0  0999 V2000
  189.7700  176.2420  137.1600 C   0  0  0  0  0  0  0  0  0  0  0  0
  191.8870  176.5590  138.5230 C   0  0  0  0  0  0  0  0  0  0  0  0
  189.6890  177.3990  139.3060 C   0  0  0  0  0  0  0  0  0  0  0  0
  190.1250  178.6050  142.9700 C   0  0  0  0  0  1  0  0  0  0  0  0
  192.6270  176.0770  137.6250 O   0  0  0  0  0  0  0  0  0  0  0  0
  191.7970  177.5110  140.7190 C   0  0  0  0  0  3  0  0  0  0  0  0
  190.4320  176.7410  138.3030 C   0  0  0  0  0  0  0  0  0  0  0  0
  189.4740  177.9140  141.7710 C   0  0  1  0  0  0  0  0  0  0  0  0
  188.2980  177.5790  139.1710 C   0  0  0  0  0  0  0  0  0  0  0  0
  188.3830  176.4060  137.0450 C   0  0  0  0  0  3  0  0  0  0  0  0
  192.4630  176.9020  139.7860 N   0  0  0  0  0  0  0  0  0  0  0  0
  188.2270  178.7260  141.4320 C   0  0  0  0  0  2  0  0  0  0  0  0
  187.5440  178.2290  140.2300 N   0  0  0  0  0  0  0  0  0  0  0  0
  190.3770  177.9820  140.5170 C   0  0  2  0  0  3  0  0  0  0  0  0
  187.6580  177.0570  138.0390 C   0  0  0  0  0  3  0  0  0  0  0  0
  183.9150  178.8090  141.1330 C   0  0  0  0  0  0  0  0  0  0  0  0
  183.2770  179.0810  139.8040 C   0  0  0  0  0  2  0  0  0  0  0  0
  186.1350  178.5190  140.1270 C   0  0  0  0  0  0  0  0  0  0  0  0
  184.0700  178.4020  138.6920 C   0  0  0  0  0  2  0  0  0  0  0  0
  185.3590  178.5410  141.2220 C   0  0  0  0  0  3  0  0  0  0  0  0
  185.5420  178.8090  138.7690 C   0  0  0  0  0  2  0  0  0  0  0  0
  183.2190  178.8450  142.1810 O   0  0  0  0  0  0  0  0  0  0  0  0
  190.6220  176.0870  134.8360 C   0  0  0  0  0  1  0  0  0  0  0  0
  190.4910  175.5810  136.1580 O   0  0  0  0  0  0  0  0  0  0  0  0
  189.0450  176.5960  142.0850 O   0  0  0  0  0  0  0  0  0  0  0  0
  188.8280  176.4590  143.4660 C   0  0  0  0  0  2  0  0  0  0  0  0
  187.3580  176.6670  143.7660 C   0  0  0  0  0  2  0  0  0  0  0  0
  185.1240  178.1880  144.7910 O   0  0  0  0  0  1  0  0  0  0  0  0
  187.1640  176.9840  145.2400 C   0  0  2  0  0  3  0  0  0  0  0  0
  186.3610  178.2770  145.4300 C   0  0  2  0  0  3  0  0  0  0  0  0
  187.3890  178.3680  147.7330 C   0  0  0  0  0  3  0  0  0  0  0  0
  188.4630  177.7050  147.2800 C   0  0  0  0  0  3  0  0  0  0  0  0
  188.5410  177.1530  145.8800 C   0  0  0  0  0  2  0  0  0  0  0  0
  186.1300  178.5220  146.9200 C   0  0  0  0  0  2  0  0  0  0  0  0
  1  7  1  0  0  0  0
  2 11  1  0  0  0  0
  3 14  1  0  0  0  0
  5  2  2  0  0  0  0
  7  2  1  0  0  0  0
  7  3  2  0  0  0  0
  8 25  1  0  0  0  0
  8  4  1  1  0  0  0
  9  3  1  0  0  0  0
  9 13  1  0  0  0  0
 10  1  2  0  0  0  0
 10 15  1  0  0  0  0
 11  6  2  0  0  0  0
 12  8  1  0  0  0  0
 13 12  1  0  0  0  0
 14  6  1  1  0  0  0
 14  8  1  0  0  0  0
 15  9  2  0  0  0  0
 16 20  1  0  0  0  0
 16 22  2  0  0  0  0
 17 16  1  0  0  0  0
 18 13  1  0  0  0  0
 18 20  2  0  0  0  0
 19 21  1  0  0  0  0
 19 17  1  0  0  0  0
 21 18  1  0  0  0  0
 23 24  1  0  0  0  0
 24  1  1  0  0  0  0
 25 26  1  0  0  0  0
 26 27  1  0  0  0  0
 29 27  1  6  0  0  0
 29 30  1  0  0  0  0
 29 33  1  0  0  0  0
 30 28  1  6  0  0  0
 30 34  1  0  0  0  0
 32 31  2  0  0  0  0
 33 32  1  0  0  0  0
 34 31  1  0  0  0  0
M  END
>  <MODEL>
3

>  <REMARK>
 VINA RESULT:      -8.7      1.626      2.408
  Name = 
  6 active torsions:
  status: ('A' for Active; 'I' for Inactive)
    1  A    between atoms: C_1  and  O_19
    2  A    between atoms: C_3  and  C_13
    3  A    between atoms: C_3  and  C_17
    4  A    between atoms: C_12  and  N_28
    5  A    between atoms: C_17  and  O_29
    6  A    between atoms: C_18  and  O_29
                            x       y       z     vdW  Elec       q    Type
                         _______ _______ _______ _____ _____    ______ ____

>  <TORSDO>
F 6

$$$$
=
 OpenBabel10262423463D

 34 38  0  0  1  0  0  0  0  0999 V2000
  186.6750  177.6670  144.8360 C   0  0  0  0  0  0  0  0  0  0  0  0
  184.3430  178.5480  145.3080 C   0  0  0  0  0  0  0  0  0  0  0  0
  185.3040  178.5500  143.0220 C   0  0  0  0  0  0  0  0  0  0  0  0
  182.4730  179.5250  140.5530 C   0  0  0  0  0  1  0  0  0  0  0  0
  184.4630  178.4120  146.5540 O   0  0  0  0  0  0  0  0  0  0  0  0
  182.9080  179.2320  143.5170 C   0  0  0  0  0  3  0  0  0  0  0  0
  185.4730  178.2600  144.3920 C   0  0  0  0  0  0  0  0  0  0  0  0
  183.6790  178.7590  141.0980 C   0  0  1  0  0  0  0  0  0  0  0  0
  186.3300  178.2730  142.0960 C   0  0  0  0  0  0  0  0  0  0  0  0
  187.6810  177.3740  143.9040 C   0  0  0  0  0  3  0  0  0  0  0  0
  183.0810  178.9550  144.7720 N   0  0  0  0  0  0  0  0  0  0  0  0
  184.8650  179.1420  140.2150 C   0  0  0  0  0  2  0  0  0  0  0  0
  186.1260  178.5490  140.6830 N   0  0  0  0  0  0  0  0  0  0  0  0
  184.0480  179.2250  142.5270 C   0  0  2  0  0  3  0  0  0  0  0  0
  187.5070  177.6670  142.5540 C   0  0  0  0  0  3  0  0  0  0  0  0
  187.8770  177.8230  137.4080 C   0  0  0  0  0  0  0  0  0  0  0  0
  189.3260  177.9840  137.7580 C   0  0  0  0  0  2  0  0  0  0  0  0
  187.1550  178.3670  139.6900 C   0  0  0  0  0  0  0  0  0  0  0  0
  189.5420  177.7020  139.2420 C   0  0  0  0  0  2  0  0  0  0  0  0
  186.8390  178.0390  138.4280 C   0  0  0  0  0  3  0  0  0  0  0  0
  188.6000  178.5620  140.0850 C   0  0  0  0  0  2  0  0  0  0  0  0
  187.5460  177.5390  136.2280 O   0  0  0  0  0  0  0  0  0  0  0  0
  188.0570  177.6560  146.8950 C   0  0  0  0  0  1  0  0  0  0  0  0
  186.8570  177.3650  146.1920 O   0  0  0  0  0  0  0  0  0  0  0  0
  183.5120  177.3530  140.9900 O   0  0  0  0  0  0  0  0  0  0  0  0
  182.5940  177.0380  139.9740 C   0  0  0  0  0  2  0  0  0  0  0  0
  182.9770  175.7140  139.3450 C   0  0  0  0  0  2  0  0  0  0  0  0
  184.6300  173.9870  137.7190 O   0  0  0  0  0  1  0  0  0  0  0  0
  183.1340  175.8750  137.8420 C   0  0  2  0  0  3  0  0  0  0  0  0
  184.4840  175.3280  137.3620 C   0  0  2  0  0  3  0  0  0  0  0  0
  184.1670  176.8080  135.3420 C   0  0  0  0  0  3  0  0  0  0  0  0
  183.4340  177.6560  136.0790 C   0  0  0  0  0  3  0  0  0  0  0  0
  183.0510  177.3630  137.5060 C   0  0  0  0  0  2  0  0  0  0  0  0
  184.5740  175.4460  135.8420 C   0  0  0  0  0  2  0  0  0  0  0  0
  1 24  1  0  0  0  0
  2  5  2  0  0  0  0
  3  7  2  0  0  0  0
  6 11  2  0  0  0  0
  7  1  1  0  0  0  0
  7  2  1  0  0  0  0
  8  4  1  6  0  0  0
  8 14  1  0  0  0  0
  9 15  2  0  0  0  0
  9  3  1  0  0  0  0
 10  1  2  0  0  0  0
 11  2  1  0  0  0  0
 12 13  1  0  0  0  0
 12  8  1  0  0  0  0
 13  9  1  0  0  0  0
 14  3  1  0  0  0  0
 14  6  1  1  0  0  0
 15 10  1  0  0  0  0
 16 17  1  0  0  0  0
 16 20  1  0  0  0  0
 17 19  1  0  0  0  0
 18 21  1  0  0  0  0
 18 13  1  0  0  0  0
 19 21  1  0  0  0  0
 20 18  2  0  0  0  0
 22 16  2  0  0  0  0
 24 23  1  0  0  0  0
 25  8  1  0  0  0  0
 26 25  1  0  0  0  0
 27 26  1  0  0  0  0
 29 27  1  1  0  0  0
 30 28  1  6  0  0  0
 30 29  1  0  0  0  0
 31 34  1  0  0  0  0
 31 32  2  0  0  0  0
 32 33  1  0  0  0  0
 33 29  1  0  0  0  0
 34 30  1  0  0  0  0
M  END
>  <MODEL>
4

>  <REMARK>
 VINA RESULT:      -8.6      3.415      8.813
  Name = 
  6 active torsions:
  status: ('A' for Active; 'I' for Inactive)
    1  A    between atoms: C_1  and  O_19
    2  A    between atoms: C_3  and  C_13
    3  A    between atoms: C_3  and  C_17
    4  A    between atoms: C_12  and  N_28
    5  A    between atoms: C_17  and  O_29
    6  A    between atoms: C_18  and  O_29
                            x       y       z     vdW  Elec       q    Type
                         _______ _______ _______ _____ _____    ______ ____

>  <TORSDO>
F 6

$$$$
=
 OpenBabel10262423463D

 34 38  0  0  1  0  0  0  0  0999 V2000
  186.7780  177.5640  145.1260 C   0  0  0  0  0  0  0  0  0  0  0  0
  184.4680  178.5820  145.3910 C   0  0  0  0  0  0  0  0  0  0  0  0
  185.6040  178.4720  143.1900 C   0  0  0  0  0  0  0  0  0  0  0  0
  183.0340  179.5320  140.4810 C   0  0  0  0  0  1  0  0  0  0  0  0
  184.4820  178.4720  146.6460 O   0  0  0  0  0  0  0  0  0  0  0  0
  183.2180  179.2940  143.4760 C   0  0  0  0  0  3  0  0  0  0  0  0
  185.6490  178.2090  144.5740 C   0  0  0  0  0  0  0  0  0  0  0  0
  184.1500  178.7180  141.1380 C   0  0  1  0  0  0  0  0  0  0  0  0
  186.6830  178.1160  142.3540 C   0  0  0  0  0  0  0  0  0  0  0  0
  187.8350  177.1940  144.2840 C   0  0  0  0  0  3  0  0  0  0  0  0
  183.2760  179.0420  144.7480 N   0  0  0  0  0  0  0  0  0  0  0  0
  185.4200  179.0130  140.3440 C   0  0  0  0  0  2  0  0  0  0  0  0
  186.6050  178.3660  140.9240 N   0  0  0  0  0  0  0  0  0  0  0  0
  184.4300  179.2000  142.5810 C   0  0  2  0  0  3  0  0  0  0  0  0
  187.7840  177.4590  142.9180 C   0  0  0  0  0  3  0  0  0  0  0  0
  190.0720  177.6630  139.5780 C   0  0  0  0  0  0  0  0  0  0  0  0
  189.8530  177.6130  138.0960 C   0  0  0  0  0  2  0  0  0  0  0  0
  187.6980  178.1020  140.0210 C   0  0  0  0  0  0  0  0  0  0  0  0
  188.6430  178.4600  137.7140 C   0  0  0  0  0  2  0  0  0  0  0  0
  188.9410  177.9070  140.4870 C   0  0  0  0  0  3  0  0  0  0  0  0
  187.4240  178.0380  138.5360 C   0  0  0  0  0  2  0  0  0  0  0  0
  191.2210  177.4610  140.0480 O   0  0  0  0  0  0  0  0  0  0  0  0
  187.9370  177.6590  147.3160 C   0  0  0  0  0  1  0  0  0  0  0  0
  186.8350  177.2890  146.4980 O   0  0  0  0  0  0  0  0  0  0  0  0
  183.9130  177.3200  141.0480 O   0  0  0  0  0  0  0  0  0  0  0  0
  182.7150  177.0620  140.3600 C   0  0  0  0  0  2  0  0  0  0  0  0
  182.9820  176.0770  139.2400 C   0  0  0  0  0  2  0  0  0  0  0  0
  180.8100  176.7260  137.4460 O   0  0  0  0  0  1  0  0  0  0  0  0
  183.1720  176.8170  137.9260 C   0  0  2  0  0  3  0  0  0  0  0  0
  182.0730  176.4540  136.9190 C   0  0  2  0  0  3  0  0  0  0  0  0
  183.6830  177.2470  135.1440 C   0  0  0  0  0  3  0  0  0  0  0  0
  184.7160  176.9130  135.9320 C   0  0  0  0  0  3  0  0  0  0  0  0
  184.5300  176.4260  137.3460 C   0  0  0  0  0  2  0  0  0  0  0  0
  182.2600  177.2680  135.6410 C   0  0  0  0  0  2  0  0  0  0  0  0
  1 24  1  0  0  0  0
  2  5  2  0  0  0  0
  3  7  2  0  0  0  0
  6 11  2  0  0  0  0
  7  1  1  0  0  0  0
  7  2  1  0  0  0  0
  8  4  1  6  0  0  0
  8 14  1  0  0  0  0
  9 15  2  0  0  0  0
  9  3  1  0  0  0  0
 10  1  2  0  0  0  0
 11  2  1  0  0  0  0
 12 13  1  0  0  0  0
 12  8  1  0  0  0  0
 13  9  1  0  0  0  0
 14  3  1  0  0  0  0
 14  6  1  1  0  0  0
 15 10  1  0  0  0  0
 16 22  2  0  0  0  0
 16 20  1  0  0  0  0
 17 16  1  0  0  0  0
 18 20  2  0  0  0  0
 18 13  1  0  0  0  0
 19 17  1  0  0  0  0
 19 21  1  0  0  0  0
 21 18  1  0  0  0  0
 24 23  1  0  0  0  0
 25  8  1  0  0  0  0
 26 25  1  0  0  0  0
 27 26  1  0  0  0  0
 29 27  1  1  0  0  0
 30 28  1  1  0  0  0
 30 29  1  0  0  0  0
 31 34  1  0  0  0  0
 31 32  2  0  0  0  0
 32 33  1  0  0  0  0
 33 29  1  0  0  0  0
 34 30  1  0  0  0  0
M  END
>  <MODEL>
5

>  <REMARK>
 VINA RESULT:      -8.6      3.370      9.047
  Name = 
  6 active torsions:
  status: ('A' for Active; 'I' for Inactive)
    1  A    between atoms: C_1  and  O_19
    2  A    between atoms: C_3  and  C_13
    3  A    between atoms: C_3  and  C_17
    4  A    between atoms: C_12  and  N_28
    5  A    between atoms: C_17  and  O_29
    6  A    between atoms: C_18  and  O_29
                            x       y       z     vdW  Elec       q    Type
                         _______ _______ _______ _____ _____    ______ ____

>  <TORSDO>
F 6

$$$$
=
 OpenBabel10262423463D

 34 38  0  0  1  0  0  0  0  0999 V2000
  187.6130  173.0940  136.7270 C   0  0  0  0  0  0  0  0  0  0  0  0
  189.9350  174.1140  136.6510 C   0  0  0  0  0  0  0  0  0  0  0  0
  187.9020  175.5090  136.9090 C   0  0  0  0  0  0  0  0  0  0  0  0
  189.0490  179.1300  137.7070 C   0  0  0  0  0  1  0  0  0  0  0  0
  190.4920  173.0120  136.4000 O   0  0  0  0  0  0  0  0  0  0  0  0
  190.2550  176.4570  137.0280 C   0  0  0  0  0  3  0  0  0  0  0  0
  188.4600  174.2240  136.7460 C   0  0  0  0  0  0  0  0  0  0  0  0
  188.2250  177.8460  137.8140 C   0  0  1  0  0  0  0  0  0  0  0  0
  186.5080  175.6780  137.0340 C   0  0  0  0  0  0  0  0  0  0  0  0
  186.2300  173.2700  136.8750 C   0  0  0  0  0  3  0  0  0  0  0  0
  190.7500  175.2660  136.8820 N   0  0  0  0  0  0  0  0  0  0  0  0
  186.8350  178.1820  137.2800 C   0  0  0  0  0  2  0  0  0  0  0  0
  185.9540  177.0070  137.2340 N   0  0  0  0  0  0  0  0  0  0  0  0
  188.7780  176.7370  136.8870 C   0  0  2  0  0  3  0  0  0  0  0  0
  185.6880  174.5420  137.0330 C   0  0  0  0  0  3  0  0  0  0  0  0
  182.4900  177.7970  138.5370 C   0  0  0  0  0  0  0  0  0  0  0  0
  181.6440  177.7420  137.3000 C   0  0  0  0  0  2  0  0  0  0  0  0
  184.5370  177.2670  137.2900 C   0  0  0  0  0  0  0  0  0  0  0  0
  182.2800  176.8120  136.2710 C   0  0  0  0  0  2  0  0  0  0  0  0
  183.9390  177.5560  138.4560 C   0  0  0  0  0  3  0  0  0  0  0  0
  183.7300  177.2220  136.0130 C   0  0  0  0  0  2  0  0  0  0  0  0
  181.9640  178.0880  139.6420 O   0  0  0  0  0  0  0  0  0  0  0  0
  187.7130  170.9020  135.5710 C   0  0  0  0  0  1  0  0  0  0  0  0
  188.1510  171.8090  136.5730 O   0  0  0  0  0  0  0  0  0  0  0  0
  188.0670  177.4250  139.1620 O   0  0  0  0  0  0  0  0  0  0  0  0
  188.8230  178.2340  140.0280 C   0  0  0  0  0  2  0  0  0  0  0  0
  189.5000  177.3630  141.0650 C   0  0  0  0  0  2  0  0  0  0  0  0
  191.3850  178.3300  143.0310 O   0  0  0  0  0  1  0  0  0  0  0  0
  189.1010  177.8070  142.4630 C   0  0  2  0  0  3  0  0  0  0  0  0
  190.2570  177.6270  143.4550 C   0  0  2  0  0  3  0  0  0  0  0  0
  188.4840  177.6410  145.2520 C   0  0  0  0  0  3  0  0  0  0  0  0
  187.5950  177.1470  144.3780 C   0  0  0  0  0  3  0  0  0  0  0  0
  187.9160  176.9570  142.9180 C   0  0  0  0  0  2  0  0  0  0  0  0
  189.8390  178.1470  144.8290 C   0  0  0  0  0  2  0  0  0  0  0  0
  1  7  2  0  0  0  0
  1 10  1  0  0  0  0
  2  7  1  0  0  0  0
  2 11  1  0  0  0  0
  3  9  2  0  0  0  0
  5  2  2  0  0  0  0
  7  3  1  0  0  0  0
  8  4  1  6  0  0  0
  8 25  1  0  0  0  0
  9 13  1  0  0  0  0
 10 15  2  0  0  0  0
 11  6  2  0  0  0  0
 12  8  1  0  0  0  0
 13 12  1  0  0  0  0
 13 18  1  0  0  0  0
 14  3  1  0  0  0  0
 14  6  1  1  0  0  0
 14  8  1  0  0  0  0
 15  9  1  0  0  0  0
 16 22  2  0  0  0  0
 17 16  1  0  0  0  0
 18 20  2  0  0  0  0
 19 17  1  0  0  0  0
 20 16  1  0  0  0  0
 21 19  1  0  0  0  0
 21 18  1  0  0  0  0
 23 24  1  0  0  0  0
 24  1  1  0  0  0  0
 25 26  1  0  0  0  0
 26 27  1  0  0  0  0
 29 27  1  6  0  0  0
 29 33  1  0  0  0  0
 29 30  1  0  0  0  0
 30 28  1  6  0  0  0
 30 34  1  0  0  0  0
 32 31  2  0  0  0  0
 33 32  1  0  0  0  0
 34 31  1  0  0  0  0
M  END
>  <MODEL>
6

>  <REMARK>
 VINA RESULT:      -8.0      3.224      4.606
  Name = 
  6 active torsions:
  status: ('A' for Active; 'I' for Inactive)
    1  A    between atoms: C_1  and  O_19
    2  A    between atoms: C_3  and  C_13
    3  A    between atoms: C_3  and  C_17
    4  A    between atoms: C_12  and  N_28
    5  A    between atoms: C_17  and  O_29
    6  A    between atoms: C_18  and  O_29
                            x       y       z     vdW  Elec       q    Type
                         _______ _______ _______ _____ _____    ______ ____

>  <TORSDO>
F 6

$$$$
=
 OpenBabel10262423463D

 34 38  0  0  1  0  0  0  0  0999 V2000
  188.8570  177.6680  141.6560 C   0  0  0  0  0  0  0  0  0  0  0  0
  186.7240  178.6910  140.7390 C   0  0  0  0  0  0  0  0  0  0  0  0
  188.3830  177.5870  139.2650 C   0  0  0  0  0  0  0  0  0  0  0  0
  186.8060  177.2860  135.7310 C   0  0  0  0  0  1  0  0  0  0  0  0
  186.3840  179.1680  141.8550 O   0  0  0  0  0  0  0  0  0  0  0  0
  186.1440  178.4460  138.4290 C   0  0  0  0  0  3  0  0  0  0  0  0
  188.0170  177.9870  140.5670 C   0  0  0  0  0  0  0  0  0  0  0  0
  187.5810  176.8640  136.9800 C   0  0  1  0  0  0  0  0  0  0  0  0
  189.5870  176.8890  139.0380 C   0  0  0  0  0  0  0  0  0  0  0  0
  190.0400  176.9540  141.4240 C   0  0  0  0  0  3  0  0  0  0  0  0
  185.8230  178.8030  139.6340 N   0  0  0  0  0  0  0  0  0  0  0  0
  189.0470  176.7640  136.5620 C   0  0  0  0  0  2  0  0  0  0  0  0
  189.9320  176.4560  137.6940 N   0  0  0  0  0  0  0  0  0  0  0  0
  187.5270  177.9530  138.0770 C   0  0  2  0  0  3  0  0  0  0  0  0
  190.3950  176.5640  140.1350 C   0  0  0  0  0  3  0  0  0  0  0  0
  193.5610  175.8910  136.7800 C   0  0  0  0  0  0  0  0  0  0  0  0
  193.6570  174.3980  136.6920 C   0  0  0  0  0  2  0  0  0  0  0  0
  191.1800  175.8090  137.3730 C   0  0  0  0  0  0  0  0  0  0  0  0
  192.2970  173.8040  136.3370 C   0  0  0  0  0  2  0  0  0  0  0  0
  192.2850  176.5320  137.1350 C   0  0  0  0  0  3  0  0  0  0  0  0
  191.2330  174.3000  137.3170 C   0  0  0  0  0  2  0  0  0  0  0  0
  194.5830  176.5970  136.5860 O   0  0  0  0  0  0  0  0  0  0  0  0
  188.6580  177.1970  144.0830 C   0  0  0  0  0  1  0  0  0  0  0  0
  188.5050  178.0510  142.9570 O   0  0  0  0  0  0  0  0  0  0  0  0
  187.1880  175.5790  137.4430 O   0  0  0  0  0  0  0  0  0  0  0  0
  187.1760  174.6520  136.3870 C   0  0  0  0  0  2  0  0  0  0  0  0
  187.5830  173.2900  136.9120 C   0  0  0  0  0  2  0  0  0  0  0  0
  187.1050  171.4780  134.7110 O   0  0  0  0  0  1  0  0  0  0  0  0
  186.4030  172.3330  136.8540 C   0  0  2  0  0  3  0  0  0  0  0  0
  186.0190  172.0130  135.4040 C   0  0  2  0  0  3  0  0  0  0  0  0
  183.7610  171.3690  136.3310 C   0  0  0  0  0  3  0  0  0  0  0  0
  183.9290  172.2360  137.3410 C   0  0  0  0  0  3  0  0  0  0  0  0
  185.2150  172.9930  137.5510 C   0  0  0  0  0  2  0  0  0  0  0  0
  184.8770  170.9980  135.3890 C   0  0  0  0  0  2  0  0  0  0  0  0
  1 24  1  0  0  0  0
  2  5  2  0  0  0  0
  3  7  1  0  0  0  0
  6 11  2  0  0  0  0
  7  2  1  0  0  0  0
  7  1  2  0  0  0  0
  8  4  1  6  0  0  0
  8 25  1  0  0  0  0
  8 14  1  0  0  0  0
  9  3  2  0  0  0  0
  9 15  1  0  0  0  0
 10  1  1  0  0  0  0
 11  2  1  0  0  0  0
 12  8  1  0  0  0  0
 12 13  1  0  0  0  0
 13  9  1  0  0  0  0
 14  6  1  1  0  0  0
 14  3  1  0  0  0  0
 15 10  2  0  0  0  0
 16 20  1  0  0  0  0
 17 16  1  0  0  0  0
 18 13  1  0  0  0  0
 19 17  1  0  0  0  0
 19 21  1  0  0  0  0
 20 18  2  0  0  0  0
 21 18  1  0  0  0  0
 22 16  2  0  0  0  0
 24 23  1  0  0  0  0
 26 27  1  0  0  0  0
 26 25  1  0  0  0  0
 29 27  1  6  0  0  0
 29 33  1  0  0  0  0
 30 28  1  6  0  0  0
 30 29  1  0  0  0  0
 31 32  2  0  0  0  0
 32 33  1  0  0  0  0
 34 30  1  0  0  0  0
 34 31  1  0  0  0  0
M  END
>  <MODEL>
7

>  <REMARK>
 VINA RESULT:      -8.0      3.407      8.739
  Name = 
  6 active torsions:
  status: ('A' for Active; 'I' for Inactive)
    1  A    between atoms: C_1  and  O_19
    2  A    between atoms: C_3  and  C_13
    3  A    between atoms: C_3  and  C_17
    4  A    between atoms: C_12  and  N_28
    5  A    between atoms: C_17  and  O_29
    6  A    between atoms: C_18  and  O_29
                            x       y       z     vdW  Elec       q    Type
                         _______ _______ _______ _____ _____    ______ ____

>  <TORSDO>
F 6

$$$$
=
 OpenBabel10262423463D

 34 38  0  0  1  0  0  0  0  0999 V2000
  189.1170  177.6470  141.5630 C   0  0  0  0  0  0  0  0  0  0  0  0
  186.9320  178.5730  140.6640 C   0  0  0  0  0  0  0  0  0  0  0  0
  188.6050  177.4990  139.1830 C   0  0  0  0  0  0  0  0  0  0  0  0
  186.9780  177.0670  135.6850 C   0  0  0  0  0  1  0  0  0  0  0  0
  186.5950  179.0620  141.7750 O   0  0  0  0  0  0  0  0  0  0  0  0
  186.3220  178.2590  138.3700 C   0  0  0  0  0  3  0  0  0  0  0  0
  188.2470  177.9130  140.4830 C   0  0  0  0  0  0  0  0  0  0  0  0
  187.7900  176.7000  136.9280 C   0  0  1  0  0  0  0  0  0  0  0  0
  189.8290  176.8400  138.9480 C   0  0  0  0  0  0  0  0  0  0  0  0
  190.3210  176.9710  141.3240 C   0  0  0  0  0  3  0  0  0  0  0  0
  186.0090  178.6300  139.5730 N   0  0  0  0  0  0  0  0  0  0  0  0
  189.2500  176.6440  136.4860 C   0  0  0  0  0  2  0  0  0  0  0  0
  190.1660  176.3910  137.6070 N   0  0  0  0  0  0  0  0  0  0  0  0
  187.7160  177.8100  138.0030 C   0  0  2  0  0  3  0  0  0  0  0  0
  190.6670  176.5680  140.0370 C   0  0  0  0  0  3  0  0  0  0  0  0
  193.7720  175.9340  136.5540 C   0  0  0  0  0  0  0  0  0  0  0  0
  193.9460  174.4460  136.5880 C   0  0  0  0  0  2  0  0  0  0  0  0
  191.4310  175.7840  137.2770 C   0  0  0  0  0  0  0  0  0  0  0  0
  192.6050  173.7550  136.3580 C   0  0  0  0  0  2  0  0  0  0  0  0
  192.4820  176.5380  136.9200 C   0  0  0  0  0  3  0  0  0  0  0  0
  191.5640  174.2800  137.3470 C   0  0  0  0  0  2  0  0  0  0  0  0
  194.7440  176.6710  136.2470 O   0  0  0  0  0  0  0  0  0  0  0  0
  188.6550  177.1320  143.9440 C   0  0  0  0  0  1  0  0  0  0  0  0
  188.7740  178.0450  142.8620 O   0  0  0  0  0  0  0  0  0  0  0  0
  187.4520  175.4120  137.4240 O   0  0  0  0  0  0  0  0  0  0  0  0
  186.2410  174.9670  136.8660 C   0  0  0  0  0  2  0  0  0  0  0  0
  185.9640  173.5530  137.3350 C   0  0  0  0  0  2  0  0  0  0  0  0
  184.4080  171.3050  136.3950 O   0  0  0  0  0  1  0  0  0  0  0  0
  184.4820  173.3790  137.6240 C   0  0  2  0  0  3  0  0  0  0  0  0
  183.7950  172.5520  136.5300 C   0  0  2  0  0  3  0  0  0  0  0  0
  181.6470  173.6190  137.3170 C   0  0  0  0  0  3  0  0  0  0  0  0
  182.3320  174.6980  137.7220 C   0  0  0  0  0  3  0  0  0  0  0  0
  183.8370  174.7630  137.6810 C   0  0  0  0  0  2  0  0  0  0  0  0
  182.3260  172.3420  136.8920 C   0  0  0  0  0  2  0  0  0  0  0  0
  1 24  1  0  0  0  0
  2  5  2  0  0  0  0
  3  7  1  0  0  0  0
  6 11  2  0  0  0  0
  7  2  1  0  0  0  0
  7  1  2  0  0  0  0
  8  4  1  6  0  0  0
  8 25  1  0  0  0  0
  8 14  1  0  0  0  0
  9  3  2  0  0  0  0
  9 15  1  0  0  0  0
 10  1  1  0  0  0  0
 11  2  1  0  0  0  0
 12  8  1  0  0  0  0
 12 13  1  0  0  0  0
 13  9  1  0  0  0  0
 14  6  1  1  0  0  0
 14  3  1  0  0  0  0
 15 10  2  0  0  0  0
 16 17  1  0  0  0  0
 16 20  1  0  0  0  0
 18 21  1  0  0  0  0
 18 13  1  0  0  0  0
 19 17  1  0  0  0  0
 19 21  1  0  0  0  0
 20 18  2  0  0  0  0
 22 16  2  0  0  0  0
 24 23  1  0  0  0  0
 26 27  1  0  0  0  0
 26 25  1  0  0  0  0
 29 27  1  6  0  0  0
 29 33  1  0  0  0  0
 30 28  1  1  0  0  0
 30 34  1  0  0  0  0
 30 29  1  0  0  0  0
 31 32  2  0  0  0  0
 33 32  1  0  0  0  0
 34 31  1  0  0  0  0
M  END
>  <MODEL>
8

>  <REMARK>
 VINA RESULT:      -7.9      3.641      8.617
  Name = 
  6 active torsions:
  status: ('A' for Active; 'I' for Inactive)
    1  A    between atoms: C_1  and  O_19
    2  A    between atoms: C_3  and  C_13
    3  A    between atoms: C_3  and  C_17
    4  A    between atoms: C_12  and  N_28
    5  A    between atoms: C_17  and  O_29
    6  A    between atoms: C_18  and  O_29
                            x       y       z     vdW  Elec       q    Type
                         _______ _______ _______ _____ _____    ______ ____

>  <TORSDO>
F 6

$$$$
=
 OpenBabel10262423463D

 34 38  0  0  1  0  0  0  0  0999 V2000
  192.5420  173.6930  136.9030 C   0  0  0  0  0  0  0  0  0  0  0  0
  193.5610  175.7020  138.0700 C   0  0  0  0  0  0  0  0  0  0  0  0
  191.1360  175.5690  137.5740 C   0  0  0  0  0  0  0  0  0  0  0  0
  189.4000  178.5410  139.3690 C   0  0  0  0  0  1  0  0  0  0  0  0
  194.7390  175.2770  137.9360 O   0  0  0  0  0  0  0  0  0  0  0  0
  192.1730  177.4610  138.9150 C   0  0  0  0  0  3  0  0  0  0  0  0
  192.4100  174.9710  137.4880 C   0  0  0  0  0  0  0  0  0  0  0  0
  189.6150  177.1080  138.8800 C   0  0  1  0  0  0  0  0  0  0  0  0
  189.9960  174.9130  137.0650 C   0  0  0  0  0  0  0  0  0  0  0  0
  191.4000  173.0380  136.4200 C   0  0  0  0  0  3  0  0  0  0  0  0
  193.3360  176.8930  138.8290 N   0  0  0  0  0  0  0  0  0  0  0  0
  188.5430  176.8490  137.8240 C   0  0  0  0  0  2  0  0  0  0  0  0
  188.6870  175.5300  137.1920 N   0  0  0  0  0  0  0  0  0  0  0  0
  190.9720  176.9530  138.1530 C   0  0  2  0  0  3  0  0  0  0  0  0
  190.1460  173.6370  136.5070 C   0  0  0  0  0  3  0  0  0  0  0  0
  185.5220  173.4980  136.7710 C   0  0  0  0  0  0  0  0  0  0  0  0
  185.0990  173.8210  135.3700 C   0  0  0  0  0  2  0  0  0  0  0  0
  187.4900  174.9580  136.6270 C   0  0  0  0  0  0  0  0  0  0  0  0
  186.3120  174.2090  134.5310 C   0  0  0  0  0  2  0  0  0  0  0  0
  186.7310  174.1120  137.3410 C   0  0  0  0  0  3  0  0  0  0  0  0
  187.0910  175.3310  135.2180 C   0  0  0  0  0  2  0  0  0  0  0  0
  184.8210  172.7270  137.4750 O   0  0  0  0  0  0  0  0  0  0  0  0
  193.9790  171.7440  136.3660 C   0  0  0  0  0  1  0  0  0  0  0  0
  193.7990  173.0800  136.8160 O   0  0  0  0  0  0  0  0  0  0  0  0
  189.4210  176.1560  139.9170 O   0  0  0  0  0  0  0  0  0  0  0  0
  188.9530  176.7820  141.0850 C   0  0  0  0  0  2  0  0  0  0  0  0
  189.6790  176.2110  142.2850 C   0  0  0  0  0  2  0  0  0  0  0  0
  191.6290  176.7460  144.3520 O   0  0  0  0  0  1  0  0  0  0  0  0
  189.3850  177.0440  143.5220 C   0  0  2  0  0  3  0  0  0  0  0  0
  190.2820  176.6340  144.6960 C   0  0  2  0  0  3  0  0  0  0  0  0
  188.5300  177.6900  146.1750 C   0  0  0  0  0  3  0  0  0  0  0  0
  187.5900  177.4150  145.2580 C   0  0  0  0  0  3  0  0  0  0  0  0
  187.9230  176.8270  143.9110 C   0  0  0  0  0  2  0  0  0  0  0  0
  190.0020  177.5380  145.8950 C   0  0  0  0  0  2  0  0  0  0  0  0
  1  7  1  0  0  0  0
  2 11  1  0  0  0  0
  3 14  1  0  0  0  0
  5  2  2  0  0  0  0
  7  3  2  0  0  0  0
  7  2  1  0  0  0  0
  8  4  1  1  0  0  0
  8 25  1  0  0  0  0
  9 13  1  0  0  0  0
  9  3  1  0  0  0  0
 10 15  1  0  0  0  0
 10  1  2  0  0  0  0
 11  6  2  0  0  0  0
 12  8  1  0  0  0  0
 13 12  1  0  0  0  0
 14  8  1  0  0  0  0
 14  6  1  1  0  0  0
 15  9  2  0  0  0  0
 16 20  1  0  0  0  0
 16 22  2  0  0  0  0
 17 16  1  0  0  0  0
 18 13  1  0  0  0  0
 18 20  2  0  0  0  0
 19 21  1  0  0  0  0
 19 17  1  0  0  0  0
 21 18  1  0  0  0  0
 23 24  1  0  0  0  0
 24  1  1  0  0  0  0
 25 26  1  0  0  0  0
 26 27  1  0  0  0  0
 29 27  1  6  0  0  0
 29 33  1  0  0  0  0
 29 30  1  0  0  0  0
 30 28  1  6  0  0  0
 30 34  1  0  0  0  0
 32 31  2  0  0  0  0
 33 32  1  0  0  0  0
 34 31  1  0  0  0  0
M  END
>  <MODEL>
9

>  <REMARK>
 VINA RESULT:      -7.5      2.785      4.463
  Name = 
  6 active torsions:
  status: ('A' for Active; 'I' for Inactive)
    1  A    between atoms: C_1  and  O_19
    2  A    between atoms: C_3  and  C_13
    3  A    between atoms: C_3  and  C_17
    4  A    between atoms: C_12  and  N_28
    5  A    between atoms: C_17  and  O_29
    6  A    between atoms: C_18  and  O_29
                            x       y       z     vdW  Elec       q    Type
                         _______ _______ _______ _____ _____    ______ ____

>  <TORSDO>
F 6

$$$$
