=
 OpenBabel10262423523D

 34 38  0  0  1  0  0  0  0  0999 V2000
  188.9340  177.1010  146.3980 C   0  0  0  0  0  0  0  0  0  0  0  0
  190.9230  177.1140  144.9870 C   0  0  0  0  0  0  0  0  0  0  0  0
  188.6670  177.5670  144.0270 C   0  0  0  0  0  0  0  0  0  0  0  0
  188.3660  178.0280  141.7080 C   0  0  0  0  0  0  0  0  0  0  0  0
  191.1100  176.6570  147.3620 C   0  0  0  0  0  3  0  0  0  0  0  0
  191.7000  176.8130  146.1090 C   0  0  0  0  0  3  0  0  0  0  0  0
  189.5190  177.2620  145.1160 C   0  0  0  0  0  0  0  0  0  0  0  0
  189.7310  176.8000  147.5050 C   0  0  0  0  0  3  0  0  0  0  0  0
  187.2740  177.6980  144.2420 C   0  0  0  0  0  0  0  0  0  0  0  0
  187.5930  177.2360  146.5670 N   0  0  0  0  0  0  0  0  0  0  0  0
  191.5650  177.2560  143.7620 O   0  0  0  0  0  1  0  0  0  0  0  0
  186.9900  178.1650  141.8820 C   0  0  0  0  0  3  0  0  0  0  0  0
  186.4310  178.0010  143.1550 C   0  0  0  0  0  0  0  0  0  0  0  0
  189.1630  177.7400  142.7700 N   0  0  0  0  0  0  0  0  0  0  0  0
  186.7650  177.5260  145.5320 C   0  0  0  0  0  3  0  0  0  0  0  0
  182.6960  178.3100  142.2240 C   0  0  2  0  0  3  0  0  0  0  0  0
  182.3440  178.8290  143.4980 O   0  0  0  0  0  0  0  0  0  0  0  0
  184.9470  178.1440  143.3410 C   0  0  2  0  0  3  0  0  0  0  0  0
  183.1980  179.9050  143.8130 C   0  0  0  0  0  2  0  0  0  0  0  0
  184.2080  178.1220  142.0040 C   0  0  0  0  0  2  0  0  0  0  0  0
  184.5990  179.3940  144.1580 C   0  0  0  0  0  2  0  0  0  0  0  0
  182.0800  179.1290  141.1030 C   0  0  0  0  0  1  0  0  0  0  0  0
  188.9700  178.2310  140.3610 C   0  0  0  0  0  2  0  0  0  0  0  0
  191.2590  177.2860  140.1010 C   0  0  0  0  0  1  0  0  0  0  0  0
  189.7770  177.0060  139.9430 C   0  0  2  0  0  3  0  0  0  0  0  0
  188.3100  176.7730  138.1010 C   0  0  0  0  0  3  0  0  0  0  0  0
  189.5010  176.6790  138.5690 N   0  0  0  0  0  0  0  0  0  0  0  0
  187.2900  178.7080  136.2110 O   0  0  0  0  0  1  0  0  0  0  0  0
  188.0200  176.4390  136.6660 C   0  0  2  0  0  3  0  0  0  0  0  0
  186.9630  177.3610  136.0360 C   0  0  1  0  0  3  0  0  0  0  0  0
  185.2180  175.6780  136.3630 N   0  0  0  0  0  2  0  0  0  0  0  0
  186.1420  174.8160  137.0960 C   0  0  0  0  0  2  0  0  0  0  0  0
  187.5650  174.9820  136.5540 C   0  0  0  0  0  2  0  0  0  0  0  0
  185.5770  177.0730  136.6130 C   0  0  0  0  0  2  0  0  0  0  0  0
  1 10  1  0  0  0  0
  1  8  2  0  0  0  0
  2  7  2  0  0  0  0
  2  6  1  0  0  0  0
  3  9  1  0  0  0  0
  3  7  1  0  0  0  0
  4 12  2  0  0  0  0
  4 14  1  0  0  0  0
  5  8  1  0  0  0  0
  6  5  2  0  0  0  0
  7  1  1  0  0  0  0
  9 15  1  0  0  0  0
 11  2  1  0  0  0  0
 12 13  1  0  0  0  0
 13  9  2  0  0  0  0
 14  3  2  0  0  0  0
 15 10  2  0  0  0  0
 16 22  1  6  0  0  0
 16 17  1  0  0  0  0
 17 19  1  0  0  0  0
 18 13  1  6  0  0  0
 18 21  1  0  0  0  0
 19 21  1  0  0  0  0
 20 16  1  0  0  0  0
 20 18  1  0  0  0  0
 23  4  1  0  0  0  0
 25 24  1  6  0  0  0
 25 23  1  0  0  0  0
 26 27  2  0  0  0  0
 27 25  1  0  0  0  0
 29 26  1  1  0  0  0
 30 28  1  1  0  0  0
 30 34  1  0  0  0  0
 30 29  1  0  0  0  0
 31 34  1  0  0  0  0
 31 32  1  0  0  0  0
 33 29  1  0  0  0  0
 33 32  1  0  0  0  0
M  END
>  <MODEL>
1

>  <REMARK>
 VINA RESULT:      -9.6      0.000      0.000
  Name = 
  5 active torsions:
  status: ('A' for Active; 'I' for Inactive)
    1  A    between atoms: C_3  and  C_13
    2  A    between atoms: C_5  and  C_18
    3  A    between atoms: C_12  and  C_28
    4  A    between atoms: N_17  and  C_29
    5  A    between atoms: C_18  and  C_29
                            x       y       z     vdW  Elec       q    Type
                         _______ _______ _______ _____ _____    ______ ____

>  <TORSDO>
F 5

$$$$
=
 OpenBabel10262423523D

 34 38  0  0  1  0  0  0  0  0999 V2000
  191.0630  177.0180  145.0550 C   0  0  0  0  0  0  0  0  0  0  0  0
  189.0880  177.0420  146.4870 C   0  0  0  0  0  0  0  0  0  0  0  0
  188.8910  177.3840  144.0260 C   0  0  0  0  0  0  0  0  0  0  0  0
  186.7790  177.7450  142.9810 C   0  0  0  0  0  0  0  0  0  0  0  0
  191.2890  176.6830  147.4420 C   0  0  0  0  0  3  0  0  0  0  0  0
  189.9090  176.8100  147.5950 C   0  0  0  0  0  3  0  0  0  0  0  0
  189.6570  177.1510  145.1930 C   0  0  0  0  0  0  0  0  0  0  0  0
  191.8630  176.7870  146.1760 C   0  0  0  0  0  3  0  0  0  0  0  0
  189.5370  177.4800  142.7710 C   0  0  0  0  0  0  0  0  0  0  0  0
  191.6480  177.1140  143.8330 N   0  0  0  0  0  0  0  0  0  0  0  0
  187.7200  177.1630  146.6990 O   0  0  0  0  0  1  0  0  0  0  0  0
  187.3820  177.8440  141.7280 C   0  0  0  0  0  3  0  0  0  0  0  0
  188.7710  177.7120  141.6120 C   0  0  0  0  0  0  0  0  0  0  0  0
  187.5370  177.5170  144.0850 N   0  0  0  0  0  0  0  0  0  0  0  0
  190.9270  177.3390  142.7080 C   0  0  0  0  0  3  0  0  0  0  0  0
  189.1830  178.5890  137.8740 C   0  0  2  0  0  3  0  0  0  0  0  0
  190.2770  177.6990  137.7090 O   0  0  0  0  0  0  0  0  0  0  0  0
  189.4200  177.8240  140.2620 C   0  0  2  0  0  3  0  0  0  0  0  0
  189.9260  176.4320  138.2150 C   0  0  0  0  0  2  0  0  0  0  0  0
  188.5080  178.5250  139.2560 C   0  0  0  0  0  2  0  0  0  0  0  0
  189.8870  176.4580  139.7450 C   0  0  0  0  0  2  0  0  0  0  0  0
  188.1630  178.4250  136.7610 C   0  0  0  0  0  1  0  0  0  0  0  0
  185.2990  177.8560  143.1060 C   0  0  0  0  0  2  0  0  0  0  0  0
  183.8520  179.6520  144.0440 C   0  0  0  0  0  1  0  0  0  0  0  0
  184.8540  179.3070  142.9590 C   0  0  2  0  0  3  0  0  0  0  0  0
  183.4680  178.6170  141.1690 C   0  0  0  0  0  3  0  0  0  0  0  0
  184.2440  179.5090  141.6710 N   0  0  0  0  0  0  0  0  0  0  0  0
  181.1850  177.0910  140.2650 O   0  0  0  0  0  1  0  0  0  0  0  0
  182.8240  178.8270  139.8290 C   0  0  2  0  0  3  0  0  0  0  0  0
  182.0860  177.5790  139.3160 C   0  0  1  0  0  3  0  0  0  0  0  0
  183.9700  176.9890  137.8710 N   0  0  0  0  0  2  0  0  0  0  0  0
  184.7750  178.0760  138.4240 C   0  0  0  0  0  2  0  0  0  0  0  0
  183.8790  179.2570  138.8080 C   0  0  0  0  0  2  0  0  0  0  0  0
  183.0780  176.4870  138.9150 C   0  0  0  0  0  2  0  0  0  0  0  0
  1  7  1  0  0  0  0
  1  8  2  0  0  0  0
  2 11  1  0  0  0  0
  2  6  1  0  0  0  0
  3 14  1  0  0  0  0
  3  7  1  0  0  0  0
  4 23  1  0  0  0  0
  4 14  2  0  0  0  0
  5  6  2  0  0  0  0
  7  2  2  0  0  0  0
  8  5  1  0  0  0  0
  9  3  2  0  0  0  0
 10  1  1  0  0  0  0
 12  4  1  0  0  0  0
 13 12  2  0  0  0  0
 13  9  1  0  0  0  0
 15  9  1  0  0  0  0
 15 10  2  0  0  0  0
 16 22  1  6  0  0  0
 16 20  1  0  0  0  0
 17 16  1  0  0  0  0
 17 19  1  0  0  0  0
 18 13  1  1  0  0  0
 19 21  1  0  0  0  0
 20 18  1  0  0  0  0
 21 18  1  0  0  0  0
 25 23  1  0  0  0  0
 25 24  1  1  0  0  0
 26 27  2  0  0  0  0
 27 25  1  0  0  0  0
 29 26  1  1  0  0  0
 30 29  1  0  0  0  0
 30 28  1  1  0  0  0
 31 32  1  0  0  0  0
 31 34  1  0  0  0  0
 32 33  1  0  0  0  0
 33 29  1  0  0  0  0
 34 30  1  0  0  0  0
M  END
>  <MODEL>
2

>  <REMARK>
 VINA RESULT:      -9.3      2.149      5.303
  Name = 
  5 active torsions:
  status: ('A' for Active; 'I' for Inactive)
    1  A    between atoms: C_3  and  C_13
    2  A    between atoms: C_5  and  C_18
    3  A    between atoms: C_12  and  C_28
    4  A    between atoms: N_17  and  C_29
    5  A    between atoms: C_18  and  C_29
                            x       y       z     vdW  Elec       q    Type
                         _______ _______ _______ _____ _____    ______ ____

>  <TORSDO>
F 5

$$$$
=
 OpenBabel10262423523D

 34 38  0  0  1  0  0  0  0  0999 V2000
  186.8220  178.0290  138.4530 C   0  0  0  0  0  0  0  0  0  0  0  0
  186.7090  178.5590  140.8310 C   0  0  0  0  0  0  0  0  0  0  0  0
  188.8130  177.6960  139.8100 C   0  0  0  0  0  0  0  0  0  0  0  0
  190.7830  177.3570  141.1070 C   0  0  0  0  0  0  0  0  0  0  0  0
  184.7640  178.8650  139.4140 C   0  0  0  0  0  3  0  0  0  0  0  0
  185.3730  178.9380  140.6660 C   0  0  0  0  0  3  0  0  0  0  0  0
  187.4570  178.0960  139.7200 C   0  0  0  0  0  0  0  0  0  0  0  0
  185.4870  178.4110  138.3120 C   0  0  0  0  0  3  0  0  0  0  0  0
  189.4880  177.2440  138.6510 C   0  0  0  0  0  0  0  0  0  0  0  0
  187.5040  177.5920  137.3620 N   0  0  0  0  0  0  0  0  0  0  0  0
  187.2640  178.6500  142.1030 O   0  0  0  0  0  1  0  0  0  0  0  0
  191.4800  176.9080  139.9870 C   0  0  0  0  0  3  0  0  0  0  0  0
  190.8370  176.8480  138.7450 C   0  0  0  0  0  0  0  0  0  0  0  0
  189.4840  177.7390  140.9940 N   0  0  0  0  0  0  0  0  0  0  0  0
  188.8010  177.2040  137.4340 C   0  0  0  0  0  3  0  0  0  0  0  0
  192.1070  174.4050  136.0380 C   0  0  2  0  0  3  0  0  0  0  0  0
  193.1950  175.2450  135.6830 O   0  0  0  0  0  0  0  0  0  0  0  0
  191.5870  176.3590  137.5390 C   0  0  2  0  0  3  0  0  0  0  0  0
  193.9000  175.6100  136.8480 C   0  0  0  0  0  2  0  0  0  0  0  0
  191.2940  174.8870  137.2530 C   0  0  0  0  0  2  0  0  0  0  0  0
  193.0920  176.6210  137.6670 C   0  0  0  0  0  2  0  0  0  0  0  0
  192.5560  172.9650  136.2200 C   0  0  0  0  0  1  0  0  0  0  0  0
  191.4720  177.4520  142.4250 C   0  0  0  0  0  2  0  0  0  0  0  0
  191.5540  179.2490  144.1460 C   0  0  0  0  0  1  0  0  0  0  0  0
  190.6500  178.2840  143.4030 C   0  0  2  0  0  3  0  0  0  0  0  0
  189.0380  177.8670  145.0850 C   0  0  0  0  0  3  0  0  0  0  0  0
  189.9950  177.4230  144.3530 N   0  0  0  0  0  0  0  0  0  0  0  0
  186.1600  177.6830  145.2990 O   0  0  0  0  0  1  0  0  0  0  0  0
  188.3480  176.9700  146.0720 C   0  0  2  0  0  3  0  0  0  0  0  0
  186.9350  177.4560  146.4390 C   0  0  1  0  0  3  0  0  0  0  0  0
  187.7540  178.4480  148.5190 N   0  0  0  0  0  2  0  0  0  0  0  0
  189.1360  178.1390  148.1590 C   0  0  0  0  0  2  0  0  0  0  0  0
  189.1950  176.8460  147.3410 C   0  0  0  0  0  2  0  0  0  0  0  0
  187.0000  178.7190  147.2970 C   0  0  0  0  0  2  0  0  0  0  0  0
  1  7  1  0  0  0  0
  2 11  1  0  0  0  0
  3 14  1  0  0  0  0
  4 23  1  0  0  0  0
  5  6  2  0  0  0  0
  6  2  1  0  0  0  0
  7  3  1  0  0  0  0
  7  2  2  0  0  0  0
  8  1  2  0  0  0  0
  8  5  1  0  0  0  0
  9 13  1  0  0  0  0
  9  3  2  0  0  0  0
 10 15  2  0  0  0  0
 10  1  1  0  0  0  0
 12  4  1  0  0  0  0
 13 12  2  0  0  0  0
 14  4  2  0  0  0  0
 15  9  1  0  0  0  0
 16 22  1  1  0  0  0
 16 20  1  0  0  0  0
 17 16  1  0  0  0  0
 17 19  1  0  0  0  0
 18 21  1  0  0  0  0
 18 13  1  1  0  0  0
 19 21  1  0  0  0  0
 20 18  1  0  0  0  0
 23 25  1  0  0  0  0
 25 24  1  1  0  0  0
 25 27  1  0  0  0  0
 27 26  2  0  0  0  0
 29 26  1  6  0  0  0
 29 30  1  0  0  0  0
 29 33  1  0  0  0  0
 30 28  1  6  0  0  0
 30 34  1  0  0  0  0
 32 31  1  0  0  0  0
 33 32  1  0  0  0  0
 34 31  1  0  0  0  0
M  END
>  <MODEL>
3

>  <REMARK>
 VINA RESULT:      -9.2      2.788      8.855
  Name = 
  5 active torsions:
  status: ('A' for Active; 'I' for Inactive)
    1  A    between atoms: C_3  and  C_13
    2  A    between atoms: C_5  and  C_18
    3  A    between atoms: C_12  and  C_28
    4  A    between atoms: N_17  and  C_29
    5  A    between atoms: C_18  and  C_29
                            x       y       z     vdW  Elec       q    Type
                         _______ _______ _______ _____ _____    ______ ____

>  <TORSDO>
F 5

$$$$
=
 OpenBabel10262423523D

 34 38  0  0  1  0  0  0  0  0999 V2000
  184.3980  178.5760  144.3350 C   0  0  0  0  0  0  0  0  0  0  0  0
  184.2710  178.5880  141.8990 C   0  0  0  0  0  0  0  0  0  0  0  0
  186.4500  178.2650  143.0680 C   0  0  0  0  0  0  0  0  0  0  0  0
  188.4810  177.9560  141.8600 C   0  0  0  0  0  0  0  0  0  0  0  0
  182.2670  178.8930  143.2310 C   0  0  0  0  0  3  0  0  0  0  0  0
  182.8920  178.7950  141.9890 C   0  0  0  0  0  3  0  0  0  0  0  0
  185.0500  178.4750  143.0790 C   0  0  0  0  0  0  0  0  0  0  0  0
  183.0180  178.7840  144.3990 C   0  0  0  0  0  3  0  0  0  0  0  0
  187.1530  178.1640  144.2920 C   0  0  0  0  0  0  0  0  0  0  0  0
  185.1060  178.4720  145.4900 N   0  0  0  0  0  0  0  0  0  0  0  0
  184.8410  178.5020  140.6340 O   0  0  0  0  0  1  0  0  0  0  0  0
  189.2060  177.8500  143.0460 C   0  0  0  0  0  3  0  0  0  0  0  0
  188.5460  177.9540  144.2760 C   0  0  0  0  0  0  0  0  0  0  0  0
  187.1370  178.1540  141.8980 N   0  0  0  0  0  0  0  0  0  0  0  0
  186.4470  178.2720  145.4940 C   0  0  0  0  0  3  0  0  0  0  0  0
  191.3720  176.9130  146.6930 C   0  0  2  0  0  3  0  0  0  0  0  0
  190.5960  177.2040  147.8450 O   0  0  0  0  0  0  0  0  0  0  0  0
  189.3280  177.8450  145.5540 C   0  0  2  0  0  3  0  0  0  0  0  0
  189.3430  176.5690  147.7340 C   0  0  0  0  0  2  0  0  0  0  0  0
  190.6130  177.0400  145.3600 C   0  0  0  0  0  2  0  0  0  0  0  0
  188.4730  177.2780  146.6930 C   0  0  0  0  0  2  0  0  0  0  0  0
  192.0470  175.5570  146.8080 C   0  0  0  0  0  1  0  0  0  0  0  0
  189.1750  177.8170  140.5490 C   0  0  0  0  0  2  0  0  0  0  0  0
  191.6580  177.6630  140.6460 C   0  0  0  0  0  1  0  0  0  0  0  0
  190.3650  176.8710  140.6680 C   0  0  2  0  0  3  0  0  0  0  0  0
  189.7650  176.2200  138.4730 C   0  0  0  0  0  3  0  0  0  0  0  0
  190.3640  175.9370  139.5720 N   0  0  0  0  0  0  0  0  0  0  0  0
  191.8080  176.2120  136.4270 O   0  0  0  0  0  1  0  0  0  0  0  0
  189.7690  175.2510  137.3250 C   0  0  2  0  0  3  0  0  0  0  0  0
  190.5220  175.7820  136.0940 C   0  0  1  0  0  3  0  0  0  0  0  0
  188.4220  176.4300  135.0180 N   0  0  0  0  0  2  0  0  0  0  0  0
  187.6630  176.0750  136.2150 C   0  0  0  0  0  2  0  0  0  0  0  0
  188.3300  174.9010  136.9370 C   0  0  0  0  0  2  0  0  0  0  0  0
  189.7410  176.9130  135.4250 C   0  0  0  0  0  2  0  0  0  0  0  0
  1  8  1  0  0  0  0
  1 10  1  0  0  0  0
  2  6  2  0  0  0  0
  2  7  1  0  0  0  0
  3  7  1  0  0  0  0
  3  9  1  0  0  0  0
  4 14  1  0  0  0  0
  4 12  2  0  0  0  0
  5  8  2  0  0  0  0
  6  5  1  0  0  0  0
  7  1  2  0  0  0  0
  9 15  1  0  0  0  0
 10 15  2  0  0  0  0
 11  2  1  0  0  0  0
 12 13  1  0  0  0  0
 13  9  2  0  0  0  0
 14  3  2  0  0  0  0
 16 22  1  1  0  0  0
 16 17  1  0  0  0  0
 18 13  1  6  0  0  0
 18 21  1  0  0  0  0
 19 17  1  0  0  0  0
 20 18  1  0  0  0  0
 20 16  1  0  0  0  0
 21 19  1  0  0  0  0
 23 25  1  0  0  0  0
 23  4  1  0  0  0  0
 25 24  1  6  0  0  0
 26 27  2  0  0  0  0
 27 25  1  0  0  0  0
 29 26  1  1  0  0  0
 30 28  1  1  0  0  0
 30 29  1  0  0  0  0
 31 34  1  0  0  0  0
 31 32  1  0  0  0  0
 32 33  1  0  0  0  0
 33 29  1  0  0  0  0
 34 30  1  0  0  0  0
M  END
>  <MODEL>
4

>  <REMARK>
 VINA RESULT:      -9.1      1.887      5.544
  Name = 
  5 active torsions:
  status: ('A' for Active; 'I' for Inactive)
    1  A    between atoms: C_3  and  C_13
    2  A    between atoms: C_5  and  C_18
    3  A    between atoms: C_12  and  C_28
    4  A    between atoms: N_17  and  C_29
    5  A    between atoms: C_18  and  C_29
                            x       y       z     vdW  Elec       q    Type
                         _______ _______ _______ _____ _____    ______ ____

>  <TORSDO>
F 5

$$$$
=
 OpenBabel10262423523D

 34 38  0  0  1  0  0  0  0  0999 V2000
  186.7690  177.8800  145.4460 C   0  0  0  0  0  0  0  0  0  0  0  0
  189.1180  177.4390  144.9590 C   0  0  0  0  0  0  0  0  0  0  0  0
  187.5120  177.9930  143.1340 C   0  0  0  0  0  0  0  0  0  0  0  0
  188.2040  178.1150  140.8560 C   0  0  0  0  0  0  0  0  0  0  0  0
  188.3020  177.3430  147.2410 C   0  0  0  0  0  3  0  0  0  0  0  0
  189.3440  177.2300  146.3220 C   0  0  0  0  0  3  0  0  0  0  0  0
  187.8180  177.7680  144.4980 C   0  0  0  0  0  0  0  0  0  0  0  0
  187.0190  177.6660  146.8040 C   0  0  0  0  0  3  0  0  0  0  0  0
  186.1870  178.3180  142.7570 C   0  0  0  0  0  0  0  0  0  0  0  0
  185.5090  178.1950  145.0480 N   0  0  0  0  0  0  0  0  0  0  0  0
  190.1940  177.3100  144.0870 O   0  0  0  0  0  1  0  0  0  0  0  0
  186.9100  178.4370  140.4490 C   0  0  0  0  0  3  0  0  0  0  0  0
  185.8870  178.5420  141.3990 C   0  0  0  0  0  0  0  0  0  0  0  0
  188.4720  177.9070  142.1720 N   0  0  0  0  0  0  0  0  0  0  0  0
  185.2020  178.4120  143.7450 C   0  0  0  0  0  3  0  0  0  0  0  0
  182.1610  178.0390  140.5200 C   0  0  2  0  0  3  0  0  0  0  0  0
  182.0930  179.2520  139.7850 O   0  0  0  0  0  0  0  0  0  0  0  0
  184.4930  178.8840  140.9590 C   0  0  2  0  0  3  0  0  0  0  0  0
  183.1520  179.2920  138.8560 C   0  0  0  0  0  2  0  0  0  0  0  0
  183.5710  177.6670  141.0140 C   0  0  0  0  0  2  0  0  0  0  0  0
  184.4840  179.5370  139.5710 C   0  0  0  0  0  2  0  0  0  0  0  0
  181.5330  176.8890  139.7510 C   0  0  0  0  0  1  0  0  0  0  0  0
  189.3010  178.0320  139.8520 C   0  0  0  0  0  2  0  0  0  0  0  0
  191.5890  177.2910  140.4980 C   0  0  0  0  0  1  0  0  0  0  0  0
  190.1930  176.8260  140.1300 C   0  0  2  0  0  3  0  0  0  0  0  0
  189.5110  176.2100  137.9490 C   0  0  0  0  0  3  0  0  0  0  0  0
  190.2660  175.9870  138.9630 N   0  0  0  0  0  0  0  0  0  0  0  0
  189.6250  177.2780  135.2640 O   0  0  0  0  0  1  0  0  0  0  0  0
  189.5900  175.3420  136.7270 C   0  0  2  0  0  3  0  0  0  0  0  0
  189.0370  176.0280  135.4660 C   0  0  1  0  0  3  0  0  0  0  0  0
  186.9090  174.8390  135.6840 N   0  0  0  0  0  2  0  0  0  0  0  0
  187.3240  174.2660  136.9620 C   0  0  0  0  0  2  0  0  0  0  0  0
  188.8380  174.0320  136.9720 C   0  0  0  0  0  2  0  0  0  0  0  0
  187.5160  176.1620  135.5430 C   0  0  0  0  0  2  0  0  0  0  0  0
  1  8  2  0  0  0  0
  2  6  1  0  0  0  0
  3  7  1  0  0  0  0
  4 14  1  0  0  0  0
  6  5  2  0  0  0  0
  7  2  2  0  0  0  0
  7  1  1  0  0  0  0
  8  5  1  0  0  0  0
  9  3  1  0  0  0  0
  9 15  1  0  0  0  0
 10  1  1  0  0  0  0
 11  2  1  0  0  0  0
 12  4  2  0  0  0  0
 12 13  1  0  0  0  0
 13  9  2  0  0  0  0
 14  3  2  0  0  0  0
 15 10  2  0  0  0  0
 16 22  1  6  0  0  0
 16 20  1  0  0  0  0
 17 16  1  0  0  0  0
 18 20  1  0  0  0  0
 18 13  1  6  0  0  0
 19 21  1  0  0  0  0
 19 17  1  0  0  0  0
 21 18  1  0  0  0  0
 23 25  1  0  0  0  0
 23  4  1  0  0  0  0
 25 24  1  6  0  0  0
 26 27  2  0  0  0  0
 27 25  1  0  0  0  0
 29 33  1  0  0  0  0
 29 26  1  1  0  0  0
 30 28  1  1  0  0  0
 30 34  1  0  0  0  0
 30 29  1  0  0  0  0
 31 32  1  0  0  0  0
 32 33  1  0  0  0  0
 34 31  1  0  0  0  0
M  END
>  <MODEL>
5

>  <REMARK>
 VINA RESULT:      -9.0      1.613      2.303
  Name = 
  5 active torsions:
  status: ('A' for Active; 'I' for Inactive)
    1  A    between atoms: C_3  and  C_13
    2  A    between atoms: C_5  and  C_18
    3  A    between atoms: C_12  and  C_28
    4  A    between atoms: N_17  and  C_29
    5  A    between atoms: C_18  and  C_29
                            x       y       z     vdW  Elec       q    Type
                         _______ _______ _______ _____ _____    ______ ____

>  <TORSDO>
F 5

$$$$
=
 OpenBabel10262423523D

 34 38  0  0  1  0  0  0  0  0999 V2000
  184.4660  178.3740  143.1400 C   0  0  0  0  0  0  0  0  0  0  0  0
  184.7970  178.9000  140.7810 C   0  0  0  0  0  0  0  0  0  0  0  0
  186.6930  178.1190  142.1980 C   0  0  0  0  0  0  0  0  0  0  0  0
  188.8890  177.8550  141.3110 C   0  0  0  0  0  0  0  0  0  0  0  0
  182.6030  179.1310  141.7910 C   0  0  0  0  0  3  0  0  0  0  0  0
  183.4410  179.2270  140.6810 C   0  0  0  0  0  3  0  0  0  0  0  0
  185.3320  178.4670  142.0200 C   0  0  0  0  0  0  0  0  0  0  0  0
  183.1150  178.7070  143.0160 C   0  0  0  0  0  3  0  0  0  0  0  0
  187.1470  177.6950  143.4700 C   0  0  0  0  0  0  0  0  0  0  0  0
  184.9370  177.9610  144.3450 N   0  0  0  0  0  0  0  0  0  0  0  0
  185.5860  179.0180  139.6420 O   0  0  0  0  0  1  0  0  0  0  0  0
  189.3720  177.4330  142.5490 C   0  0  0  0  0  3  0  0  0  0  0  0
  188.5020  177.3490  143.6420 C   0  0  0  0  0  0  0  0  0  0  0  0
  187.5780  178.1800  141.1650 N   0  0  0  0  0  0  0  0  0  0  0  0
  186.2380  177.6260  144.5300 C   0  0  0  0  0  3  0  0  0  0  0  0
  188.9770  177.2340  147.4730 C   0  0  2  0  0  3  0  0  0  0  0  0
  190.1880  176.4990  147.3760 O   0  0  0  0  0  0  0  0  0  0  0  0
  189.0240  176.8990  144.9770 C   0  0  2  0  0  3  0  0  0  0  0  0
  191.0510  177.1430  146.4660 C   0  0  0  0  0  2  0  0  0  0  0  0
  188.3940  177.6900  146.1230 C   0  0  0  0  0  2  0  0  0  0  0  0
  190.5550  176.9500  145.0300 C   0  0  0  0  0  2  0  0  0  0  0  0
  189.1150  178.4050  148.4300 C   0  0  0  0  0  1  0  0  0  0  0  0
  189.8050  177.9180  140.1370 C   0  0  0  0  0  2  0  0  0  0  0  0
  192.2530  177.4660  140.1740 C   0  0  0  0  0  1  0  0  0  0  0  0
  190.8740  176.8350  140.2310 C   0  0  2  0  0  3  0  0  0  0  0  0
  189.9280  176.1530  138.1710 C   0  0  0  0  0  3  0  0  0  0  0  0
  190.7340  175.9070  139.1400 N   0  0  0  0  0  0  0  0  0  0  0  0
  191.7310  176.1140  135.9110 O   0  0  0  0  0  1  0  0  0  0  0  0
  189.7850  175.1900  137.0280 C   0  0  2  0  0  3  0  0  0  0  0  0
  190.4070  175.7120  135.7220 C   0  0  1  0  0  3  0  0  0  0  0  0
  188.2140  176.4070  134.8890 N   0  0  0  0  0  2  0  0  0  0  0  0
  187.5860  176.0610  136.1620 C   0  0  0  0  0  2  0  0  0  0  0  0
  188.3050  174.8710  136.8020 C   0  0  0  0  0  2  0  0  0  0  0  0
  189.5800  176.8610  135.1470 C   0  0  0  0  0  2  0  0  0  0  0  0
  1 10  1  0  0  0  0
  2  7  1  0  0  0  0
  3  9  1  0  0  0  0
  4 12  2  0  0  0  0
  5  8  2  0  0  0  0
  6  2  2  0  0  0  0
  6  5  1  0  0  0  0
  7  3  1  0  0  0  0
  7  1  2  0  0  0  0
  8  1  1  0  0  0  0
  9 13  2  0  0  0  0
  9 15  1  0  0  0  0
 10 15  2  0  0  0  0
 11  2  1  0  0  0  0
 12 13  1  0  0  0  0
 14  4  1  0  0  0  0
 14  3  2  0  0  0  0
 16 22  1  1  0  0  0
 17 16  1  0  0  0  0
 18 13  1  6  0  0  0
 18 21  1  0  0  0  0
 18 20  1  0  0  0  0
 19 17  1  0  0  0  0
 20 16  1  0  0  0  0
 21 19  1  0  0  0  0
 23 25  1  0  0  0  0
 23  4  1  0  0  0  0
 25 24  1  6  0  0  0
 26 27  2  0  0  0  0
 27 25  1  0  0  0  0
 29 26  1  1  0  0  0
 30 28  1  1  0  0  0
 30 29  1  0  0  0  0
 31 34  1  0  0  0  0
 31 32  1  0  0  0  0
 32 33  1  0  0  0  0
 33 29  1  0  0  0  0
 34 30  1  0  0  0  0
M  END
>  <MODEL>
6

>  <REMARK>
 VINA RESULT:      -9.0      1.964      5.457
  Name = 
  5 active torsions:
  status: ('A' for Active; 'I' for Inactive)
    1  A    between atoms: C_3  and  C_13
    2  A    between atoms: C_5  and  C_18
    3  A    between atoms: C_12  and  C_28
    4  A    between atoms: N_17  and  C_29
    5  A    between atoms: C_18  and  C_29
                            x       y       z     vdW  Elec       q    Type
                         _______ _______ _______ _____ _____    ______ ____

>  <TORSDO>
F 5

$$$$
=
 OpenBabel10262423523D

 34 38  0  0  1  0  0  0  0  0999 V2000
  186.8790  177.9030  145.4360 C   0  0  0  0  0  0  0  0  0  0  0  0
  189.2130  177.4350  144.9040 C   0  0  0  0  0  0  0  0  0  0  0  0
  187.5760  177.9890  143.1080 C   0  0  0  0  0  0  0  0  0  0  0  0
  188.2210  178.0830  140.8160 C   0  0  0  0  0  0  0  0  0  0  0  0
  188.4440  177.3680  147.2040 C   0  0  0  0  0  3  0  0  0  0  0  0
  189.4660  177.2360  146.2650 C   0  0  0  0  0  3  0  0  0  0  0  0
  187.9080  177.7720  144.4670 C   0  0  0  0  0  0  0  0  0  0  0  0
  187.1560  177.7000  146.7900 C   0  0  0  0  0  3  0  0  0  0  0  0
  186.2460  178.3230  142.7560 C   0  0  0  0  0  0  0  0  0  0  0  0
  185.6150  178.2270  145.0610 N   0  0  0  0  0  0  0  0  0  0  0  0
  190.2700  177.2870  144.0120 O   0  0  0  0  0  1  0  0  0  0  0  0
  186.9230  178.4140  140.4320 C   0  0  0  0  0  3  0  0  0  0  0  0
  185.9210  178.5370  141.4020 C   0  0  0  0  0  0  0  0  0  0  0  0
  188.5150  177.8840  142.1270 N   0  0  0  0  0  0  0  0  0  0  0  0
  185.2830  178.4350  143.7630 C   0  0  0  0  0  3  0  0  0  0  0  0
  182.1720  178.0630  140.6050 C   0  0  2  0  0  3  0  0  0  0  0  0
  182.1010  179.2700  139.8600 O   0  0  0  0  0  0  0  0  0  0  0  0
  184.5210  178.8890  140.9870 C   0  0  2  0  0  3  0  0  0  0  0  0
  183.1410  179.2910  138.9090 C   0  0  0  0  0  2  0  0  0  0  0  0
  183.5880  177.6820  141.0730 C   0  0  0  0  0  2  0  0  0  0  0  0
  184.4890  179.5290  139.5950 C   0  0  0  0  0  2  0  0  0  0  0  0
  181.5170  176.9130  139.8600 C   0  0  0  0  0  1  0  0  0  0  0  0
  189.2970  177.9790  139.7900 C   0  0  0  0  0  2  0  0  0  0  0  0
  191.6930  177.6630  140.3900 C   0  0  0  0  0  1  0  0  0  0  0  0
  190.3550  176.9690  140.2210 C   0  0  2  0  0  3  0  0  0  0  0  0
  191.5140  175.8800  138.4680 C   0  0  0  0  0  3  0  0  0  0  0  0
  190.4820  175.9340  139.2290 N   0  0  0  0  0  0  0  0  0  0  0  0
  194.0580  174.7060  137.7530 O   0  0  0  0  0  1  0  0  0  0  0  0
  191.6530  174.7970  137.4370 C   0  0  2  0  0  3  0  0  0  0  0  0
  193.0470  174.7600  136.7890 C   0  0  1  0  0  3  0  0  0  0  0  0
  192.2310  175.9720  134.8270 N   0  0  0  0  0  2  0  0  0  0  0  0
  190.9230  176.1630  135.4510 C   0  0  0  0  0  2  0  0  0  0  0  0
  190.5870  174.9730  136.3540 C   0  0  0  0  0  2  0  0  0  0  0  0
  193.2530  175.9660  135.8720 C   0  0  0  0  0  2  0  0  0  0  0  0
  1  8  2  0  0  0  0
  2  6  1  0  0  0  0
  3  7  1  0  0  0  0
  4 14  1  0  0  0  0
  6  5  2  0  0  0  0
  7  2  2  0  0  0  0
  7  1  1  0  0  0  0
  8  5  1  0  0  0  0
  9  3  1  0  0  0  0
  9 15  1  0  0  0  0
 10  1  1  0  0  0  0
 11  2  1  0  0  0  0
 12  4  2  0  0  0  0
 12 13  1  0  0  0  0
 13  9  2  0  0  0  0
 14  3  2  0  0  0  0
 15 10  2  0  0  0  0
 16 22  1  6  0  0  0
 16 20  1  0  0  0  0
 17 16  1  0  0  0  0
 18 20  1  0  0  0  0
 18 13  1  6  0  0  0
 19 21  1  0  0  0  0
 19 17  1  0  0  0  0
 21 18  1  0  0  0  0
 23 25  1  0  0  0  0
 23  4  1  0  0  0  0
 25 24  1  6  0  0  0
 26 27  2  0  0  0  0
 27 25  1  0  0  0  0
 29 26  1  1  0  0  0
 30 29  1  0  0  0  0
 30 28  1  1  0  0  0
 31 32  1  0  0  0  0
 31 34  1  0  0  0  0
 32 33  1  0  0  0  0
 33 29  1  0  0  0  0
 34 30  1  0  0  0  0
M  END
>  <MODEL>
7

>  <REMARK>
 VINA RESULT:      -8.9      2.508      3.539
  Name = 
  5 active torsions:
  status: ('A' for Active; 'I' for Inactive)
    1  A    between atoms: C_3  and  C_13
    2  A    between atoms: C_5  and  C_18
    3  A    between atoms: C_12  and  C_28
    4  A    between atoms: N_17  and  C_29
    5  A    between atoms: C_18  and  C_29
                            x       y       z     vdW  Elec       q    Type
                         _______ _______ _______ _____ _____    ______ ____

>  <TORSDO>
F 5

$$$$
=
 OpenBabel10262423523D

 34 38  0  0  1  0  0  0  0  0999 V2000
  191.2720  177.2260  140.4040 C   0  0  0  0  0  0  0  0  0  0  0  0
  189.1540  177.2290  139.1930 C   0  0  0  0  0  0  0  0  0  0  0  0
  189.2110  177.4320  141.6770 C   0  0  0  0  0  0  0  0  0  0  0  0
  187.2120  177.6370  142.9590 C   0  0  0  0  0  0  0  0  0  0  0  0
  191.2510  177.0260  137.9910 C   0  0  0  0  0  3  0  0  0  0  0  0
  189.8590  177.0940  137.9940 C   0  0  0  0  0  3  0  0  0  0  0  0
  189.8550  177.2960  140.4240 C   0  0  0  0  0  0  0  0  0  0  0  0
  191.9540  177.0910  139.1920 C   0  0  0  0  0  3  0  0  0  0  0  0
  189.9860  177.4920  142.8600 C   0  0  0  0  0  0  0  0  0  0  0  0
  191.9820  177.2890  141.5590 N   0  0  0  0  0  0  0  0  0  0  0  0
  187.7660  177.2880  139.1360 O   0  0  0  0  0  1  0  0  0  0  0  0
  187.9430  177.7000  144.1450 C   0  0  0  0  0  3  0  0  0  0  0  0
  189.3400  177.6280  144.1050 C   0  0  0  0  0  0  0  0  0  0  0  0
  187.8540  177.5100  141.7690 N   0  0  0  0  0  0  0  0  0  0  0  0
  191.3790  177.4170  142.7670 C   0  0  0  0  0  3  0  0  0  0  0  0
  191.8090  176.5540  146.8730 C   0  0  2  0  0  3  0  0  0  0  0  0
  191.2580  177.4570  147.8200 O   0  0  0  0  0  0  0  0  0  0  0  0
  190.1260  177.6910  145.3830 C   0  0  2  0  0  3  0  0  0  0  0  0
  189.8590  177.2880  147.8640 C   0  0  0  0  0  2  0  0  0  0  0  0
  191.0470  176.4810  145.5380 C   0  0  0  0  0  2  0  0  0  0  0  0
  189.2100  177.8620  146.6010 C   0  0  0  0  0  2  0  0  0  0  0  0
  191.9930  175.1690  147.4710 C   0  0  0  0  0  1  0  0  0  0  0  0
  185.7260  177.7430  142.9940 C   0  0  0  0  0  2  0  0  0  0  0  0
  184.3270  179.6710  143.7170 C   0  0  0  0  0  1  0  0  0  0  0  0
  185.2810  179.1610  142.6530 C   0  0  2  0  0  3  0  0  0  0  0  0
  183.4390  178.6820  141.2460 C   0  0  0  0  0  3  0  0  0  0  0  0
  184.6170  179.1770  141.3770 N   0  0  0  0  0  0  0  0  0  0  0  0
  180.7510  179.6890  140.8970 O   0  0  0  0  0  1  0  0  0  0  0  0
  182.7410  178.7040  139.9170 C   0  0  2  0  0  3  0  0  0  0  0  0
  181.2080  178.6820  140.0430 C   0  0  1  0  0  3  0  0  0  0  0  0
  181.1470  176.2790  139.5870 N   0  0  0  0  0  2  0  0  0  0  0  0
  182.6070  176.2090  139.5960 C   0  0  0  0  0  2  0  0  0  0  0  0
  183.2040  177.5170  139.0690 C   0  0  0  0  0  2  0  0  0  0  0  0
  180.7220  177.3160  140.5260 C   0  0  0  0  0  2  0  0  0  0  0  0
  1  7  2  0  0  0  0
  1 10  1  0  0  0  0
  2  7  1  0  0  0  0
  3 14  2  0  0  0  0
  3  9  1  0  0  0  0
  4 23  1  0  0  0  0
  4 12  2  0  0  0  0
  5  6  1  0  0  0  0
  5  8  2  0  0  0  0
  6  2  2  0  0  0  0
  7  3  1  0  0  0  0
  8  1  1  0  0  0  0
  9 13  2  0  0  0  0
 10 15  2  0  0  0  0
 11  2  1  0  0  0  0
 13 12  1  0  0  0  0
 14  4  1  0  0  0  0
 15  9  1  0  0  0  0
 16 22  1  1  0  0  0
 16 17  1  0  0  0  0
 17 19  1  0  0  0  0
 18 13  1  6  0  0  0
 18 20  1  0  0  0  0
 18 21  1  0  0  0  0
 20 16  1  0  0  0  0
 21 19  1  0  0  0  0
 25 23  1  0  0  0  0
 25 24  1  1  0  0  0
 26 27  2  0  0  0  0
 27 25  1  0  0  0  0
 29 30  1  0  0  0  0
 29 26  1  1  0  0  0
 30 34  1  0  0  0  0
 30 28  1  1  0  0  0
 31 32  1  0  0  0  0
 31 34  1  0  0  0  0
 33 32  1  0  0  0  0
 33 29  1  0  0  0  0
M  END
>  <MODEL>
8

>  <REMARK>
 VINA RESULT:      -8.8      2.353      6.644
  Name = 
  5 active torsions:
  status: ('A' for Active; 'I' for Inactive)
    1  A    between atoms: C_3  and  C_13
    2  A    between atoms: C_5  and  C_18
    3  A    between atoms: C_12  and  C_28
    4  A    between atoms: N_17  and  C_29
    5  A    between atoms: C_18  and  C_29
                            x       y       z     vdW  Elec       q    Type
                         _______ _______ _______ _____ _____    ______ ____

>  <TORSDO>
F 5

$$$$
=
 OpenBabel10262423523D

 34 38  0  0  1  0  0  0  0  0999 V2000
  184.2560  178.4430  142.9440 C   0  0  0  0  0  0  0  0  0  0  0  0
  184.5810  179.0140  140.5950 C   0  0  0  0  0  0  0  0  0  0  0  0
  186.4840  178.2180  141.9950 C   0  0  0  0  0  0  0  0  0  0  0  0
  188.6800  177.9840  141.1010 C   0  0  0  0  0  0  0  0  0  0  0  0
  182.3870  179.2130  141.6120 C   0  0  0  0  0  3  0  0  0  0  0  0
  183.2230  179.3350  140.5030 C   0  0  0  0  0  3  0  0  0  0  0  0
  185.1210  178.5610  141.8250 C   0  0  0  0  0  0  0  0  0  0  0  0
  182.9030  178.7690  142.8280 C   0  0  0  0  0  3  0  0  0  0  0  0
  186.9420  177.7740  143.2580 C   0  0  0  0  0  0  0  0  0  0  0  0
  184.7320  178.0110  144.1410 N   0  0  0  0  0  0  0  0  0  0  0  0
  185.3680  179.1570  139.4580 O   0  0  0  0  0  1  0  0  0  0  0  0
  189.1670  177.5420  142.3300 C   0  0  0  0  0  3  0  0  0  0  0  0
  188.2990  177.4330  143.4230 C   0  0  0  0  0  0  0  0  0  0  0  0
  187.3670  178.3030  140.9620 N   0  0  0  0  0  0  0  0  0  0  0  0
  186.0350  177.6800  144.3180 C   0  0  0  0  0  3  0  0  0  0  0  0
  188.7890  177.2570  147.2490 C   0  0  2  0  0  3  0  0  0  0  0  0
  189.9990  176.5230  147.1360 O   0  0  0  0  0  0  0  0  0  0  0  0
  188.8260  176.9610  144.7480 C   0  0  2  0  0  3  0  0  0  0  0  0
  190.8590  177.1800  146.2330 C   0  0  0  0  0  2  0  0  0  0  0  0
  188.2010  177.7350  145.9090 C   0  0  0  0  0  2  0  0  0  0  0  0
  190.3570  177.0100  144.7960 C   0  0  0  0  0  2  0  0  0  0  0  0
  188.9320  178.4140  148.2230 C   0  0  0  0  0  1  0  0  0  0  0  0
  189.5940  178.0740  139.9270 C   0  0  0  0  0  2  0  0  0  0  0  0
  191.7740  176.9150  139.6040 C   0  0  0  0  0  1  0  0  0  0  0  0
  190.2690  176.7310  139.6670 C   0  0  2  0  0  3  0  0  0  0  0  0
  188.6680  176.5190  137.9370 C   0  0  0  0  0  3  0  0  0  0  0  0
  189.8080  176.1790  138.4210 N   0  0  0  0  0  0  0  0  0  0  0  0
  189.3620  177.6600  135.3720 O   0  0  0  0  0  1  0  0  0  0  0  0
  188.1870  175.9510  136.6330 C   0  0  2  0  0  3  0  0  0  0  0  0
  188.1410  176.9940  135.5040 C   0  0  1  0  0  3  0  0  0  0  0  0
  185.7320  177.2950  135.8030 N   0  0  0  0  0  2  0  0  0  0  0  0
  185.7360  176.4210  136.9730 C   0  0  0  0  0  2  0  0  0  0  0  0
  186.8000  175.3310  136.8180 C   0  0  0  0  0  2  0  0  0  0  0  0
  187.0120  177.9980  135.7370 C   0  0  0  0  0  2  0  0  0  0  0  0
  1 10  1  0  0  0  0
  2  7  1  0  0  0  0
  3  9  1  0  0  0  0
  4 12  2  0  0  0  0
  5  8  2  0  0  0  0
  6  2  2  0  0  0  0
  6  5  1  0  0  0  0
  7  3  1  0  0  0  0
  7  1  2  0  0  0  0
  8  1  1  0  0  0  0
  9 13  2  0  0  0  0
  9 15  1  0  0  0  0
 10 15  2  0  0  0  0
 11  2  1  0  0  0  0
 12 13  1  0  0  0  0
 14  4  1  0  0  0  0
 14  3  2  0  0  0  0
 16 22  1  1  0  0  0
 17 16  1  0  0  0  0
 18 13  1  6  0  0  0
 18 21  1  0  0  0  0
 18 20  1  0  0  0  0
 19 17  1  0  0  0  0
 20 16  1  0  0  0  0
 21 19  1  0  0  0  0
 23  4  1  0  0  0  0
 25 24  1  6  0  0  0
 25 23  1  0  0  0  0
 26 27  2  0  0  0  0
 27 25  1  0  0  0  0
 29 33  1  0  0  0  0
 29 26  1  1  0  0  0
 30 28  1  1  0  0  0
 30 34  1  0  0  0  0
 30 29  1  0  0  0  0
 31 32  1  0  0  0  0
 33 32  1  0  0  0  0
 34 31  1  0  0  0  0
M  END
>  <MODEL>
9

>  <REMARK>
 VINA RESULT:      -8.7      1.659      5.294
  Name = 
  5 active torsions:
  status: ('A' for Active; 'I' for Inactive)
    1  A    between atoms: C_3  and  C_13
    2  A    between atoms: C_5  and  C_18
    3  A    between atoms: C_12  and  C_28
    4  A    between atoms: N_17  and  C_29
    5  A    between atoms: C_18  and  C_29
                            x       y       z     vdW  Elec       q    Type
                         _______ _______ _______ _____ _____    ______ ____

>  <TORSDO>
F 5

$$$$
