=
 OpenBabel10272414263D

 43 46  0  0  1  0  0  0  0  0999 V2000
  190.7220  177.1940  139.5190 C   0  0  0  0  0  0  0  0  0  0  0  0
  188.1100  177.4340  138.2670 C   0  0  0  0  0  0  0  0  0  0  0  0
  192.9450  176.3470  137.6000 C   0  0  0  0  0  0  0  0  0  0  0  0
  191.6580  176.3620  137.2960 C   0  0  0  0  0  3  0  0  0  0  0  0
  189.1460  176.4720  137.6720 C   0  0  0  0  0  2  0  0  0  0  0  0
  190.5350  176.9590  138.0830 C   0  0  0  0  0  0  0  0  0  0  0  0
  192.1280  177.1240  140.0800 C   0  0  0  0  0  3  0  0  0  0  0  0
  189.6140  177.7930  140.2270 C   0  0  1  0  0  3  0  0  0  0  0  0
  188.3520  177.9840  139.4580 C   0  0  0  0  0  3  0  0  0  0  0  0
  193.3030  176.9170  139.0520 C   0  0  0  0  0  3  0  0  0  0  0  0
  186.9180  177.7380  137.4770 C   0  0  2  0  0  3  0  0  0  0  0  0
  187.2910  178.6600  136.4670 O   0  0  0  0  0  1  0  0  0  0  0  0
  185.9400  178.3200  138.3510 N   0  0  0  0  0  2  0  0  0  0  0  0
  184.5370  178.3450  138.2400 C   0  0  0  0  0  0  0  0  0  0  0  0
  183.9500  177.5880  137.3680 O   0  0  0  0  0  0  0  0  0  0  0  0
  183.7360  179.2090  139.1000 C   0  0  2  0  0  3  0  0  0  0  0  0
  183.6020  178.6320  140.5470 C   0  0  1  0  0  3  0  0  0  0  0  0
  183.1590  177.2900  140.5380 O   0  0  0  0  0  1  0  0  0  0  0  0
  184.7680  178.8120  141.5080 C   0  0  0  0  0  2  0  0  0  0  0  0
  184.1920  178.8620  142.9070 C   0  0  0  0  0  2  0  0  0  0  0  0
  184.8040  178.6370  145.2350 O   0  0  0  0  0  0  0  0  0  0  0  0
  185.1780  178.5350  143.8740 C   0  0  1  0  0  3  0  0  0  0  0  0
  186.3640  178.0020  146.7660 C   0  0  0  0  0  2  0  0  0  0  0  0
  187.0660  177.0110  144.3590 C   0  0  0  0  0  2  0  0  0  0  0  0
  187.4170  177.6950  145.7240 C   0  0  0  0  0  2  0  0  0  0  0  0
  186.3090  177.9400  143.4800 C   0  0  0  0  0  2  0  0  0  0  0  0
  185.5800  179.1390  146.2600 C   0  0  0  0  0  2  0  0  0  0  0  0
  182.3050  180.7880  138.6330 C   0  0  0  0  0  1  0  0  0  0  0  0
  182.5270  179.4110  138.4600 O   0  0  0  0  0  0  0  0  0  0  0  0
  189.6920  178.1780  141.6090 N   0  0  0  0  0  2  0  0  0  0  0  0
  190.8860  175.6100  144.1910 C   0  0  0  0  0  2  0  0  0  0  0  0
  191.2980  176.6060  145.2480 C   0  0  0  0  0  0  0  0  0  0  0  0
  190.3890  178.5070  143.8290 C   0  0  0  0  0  2  0  0  0  0  0  0
  190.1970  176.2290  142.9460 C   0  0  0  0  0  2  0  0  0  0  0  0
  190.5890  177.6640  142.5990 C   0  0  1  0  0  3  0  0  0  0  0  0
  191.1340  177.9110  145.0730 C   0  0  0  0  0  3  0  0  0  0  0  0
  192.0550  176.1300  146.4200 C   0  0  0  0  0  2  0  0  0  0  0  0
  192.4620  174.8680  146.3140 F   0  0  0  0  0  0  0  0  0  0  0  0
  193.9240  175.9330  136.4430 C   0  0  1  0  0  3  0  0  0  0  0  0
  194.6750  174.4900  136.9210 C   0  0  0  0  0  2  0  0  0  0  0  0
  196.4240  174.2120  137.3930 S   0  0  0  0  0  1  0  0  0  0  0  0
  192.8550  175.0750  134.4580 O   0  0  0  0  0  1  0  0  0  0  0  0
  193.5360  176.1820  135.0570 N   0  0  0  0  0  2  0  0  0  0  0  0
  1  7  1  0  0  0  0
  1  8  1  0  0  0  0
  2  9  2  0  0  0  0
  3 10  1  0  0  0  0
  4  3  2  0  0  0  0
  4  6  1  0  0  0  0
  5  6  1  0  0  0  0
  5  2  1  0  0  0  0
  6  1  2  0  0  0  0
  8 30  1  1  0  0  0
  9  8  1  0  0  0  0
 10  7  2  0  0  0  0
 11 12  1  6  0  0  0
 11  2  1  0  0  0  0
 11 13  1  0  0  0  0
 14 13  1  0  0  0  0
 15 14  2  0  0  0  0
 16 14  1  6  0  0  0
 16 17  1  0  0  0  0
 17 18  1  6  0  0  0
 17 19  1  0  0  0  0
 19 20  1  0  0  0  0
 21 27  1  0  0  0  0
 22 20  1  6  0  0  0
 22 21  1  0  0  0  0
 24 25  1  0  0  0  0
 25 23  1  0  0  0  0
 26 22  1  0  0  0  0
 26 24  1  0  0  0  0
 27 23  1  0  0  0  0
 29 28  1  0  0  0  0
 29 16  1  0  0  0  0
 31 32  1  0  0  0  0
 32 37  1  0  0  0  0
 33 36  1  0  0  0  0
 34 31  1  0  0  0  0
 35 30  1  6  0  0  0
 35 34  1  0  0  0  0
 35 33  1  0  0  0  0
 36 32  2  0  0  0  0
 38 37  1  0  0  0  0
 39 40  1  6  0  0  0
 39  3  1  0  0  0  0
 40 41  1  0  0  0  0
 42 43  1  0  0  0  0
 43 39  1  0  0  0  0
M  END
>  <MODEL>
1

>  <REMARK>
 VINA RESULT:      -8.5      0.000      0.000
  Name = 
  14 active torsions:
  status: ('A' for Active; 'I' for Inactive)
    1  A    between atoms: N_1  and  C_34
    2  A    between atoms: N_1  and  C_35
    3  A    between atoms: C_2  and  N_6
    4  A    between atoms: C_2  and  C_13
    5  A    between atoms: C_3  and  C_4
    6  A    between atoms: C_3  and  C_12
    7  A    between atoms: C_3  and  O_42
    8  A    between atoms: C_4  and  C_22
    9  A    between atoms: C_5  and  C_16
   10  A    between atoms: C_5  and  C_18
   11  A    between atoms: C_5  and  N_23
   12  A    between atoms: C_14  and  C_41
   13  A    between atoms: C_19  and  C_25
   14  A    between atoms: C_22  and  C_41
                            x       y       z     vdW  Elec       q    Type
                         _______ _______ _______ _____ _____    ______ ____

>  <TORSDO>
F 14

$$$$
=
 OpenBabel10272414263D

 43 46  0  0  1  0  0  0  0  0999 V2000
  190.9090  176.9600  139.2410 C   0  0  0  0  0  0  0  0  0  0  0  0
  188.3460  176.9180  137.8720 C   0  0  0  0  0  0  0  0  0  0  0  0
  193.2790  176.2180  137.4600 C   0  0  0  0  0  0  0  0  0  0  0  0
  192.0120  176.1080  137.1030 C   0  0  0  0  0  3  0  0  0  0  0  0
  189.4840  176.0210  137.3680 C   0  0  0  0  0  2  0  0  0  0  0  0
  190.8070  176.6430  137.8120 C   0  0  0  0  0  0  0  0  0  0  0  0
  192.2900  177.0360  139.8620 C   0  0  0  0  0  3  0  0  0  0  0  0
  189.7240  177.4940  139.8720 C   0  0  1  0  0  3  0  0  0  0  0  0
  188.4870  177.5410  139.0420 C   0  0  0  0  0  3  0  0  0  0  0  0
  193.5230  176.8830  138.8950 C   0  0  0  0  0  3  0  0  0  0  0  0
  187.1700  177.0820  137.0190 C   0  0  2  0  0  3  0  0  0  0  0  0
  187.4430  178.1260  136.1000 O   0  0  0  0  0  1  0  0  0  0  0  0
  186.0570  177.4290  137.8560 N   0  0  0  0  0  2  0  0  0  0  0  0
  184.6890  177.5220  137.5380 C   0  0  0  0  0  0  0  0  0  0  0  0
  184.2590  177.0480  136.4130 O   0  0  0  0  0  0  0  0  0  0  0  0
  183.7490  178.1400  138.4670 C   0  0  2  0  0  3  0  0  0  0  0  0
  184.4450  179.1960  139.3860 C   0  0  1  0  0  3  0  0  0  0  0  0
  184.0880  180.5180  139.0330 O   0  0  0  0  0  1  0  0  0  0  0  0
  184.3760  179.0010  140.8930 C   0  0  0  0  0  2  0  0  0  0  0  0
  185.7560  178.5790  141.3540 C   0  0  0  0  0  2  0  0  0  0  0  0
  186.9920  177.9030  143.3190 O   0  0  0  0  0  0  0  0  0  0  0  0
  185.7830  178.3800  142.7590 C   0  0  1  0  0  3  0  0  0  0  0  0
  187.0490  177.6980  145.5840 C   0  0  0  0  0  2  0  0  0  0  0  0
  184.9760  179.2850  144.9160 C   0  0  0  0  0  2  0  0  0  0  0  0
  185.6120  178.1350  145.7680 C   0  0  0  0  0  2  0  0  0  0  0  0
  184.7810  178.8560  143.5060 C   0  0  0  0  0  2  0  0  0  0  0  0
  187.1120  176.9570  144.3160 C   0  0  0  0  0  2  0  0  0  0  0  0
  181.7660  177.3270  138.8750 C   0  0  0  0  0  1  0  0  0  0  0  0
  183.1270  177.1160  139.1580 O   0  0  0  0  0  0  0  0  0  0  0  0
  189.7070  177.9470  141.2350 N   0  0  0  0  0  2  0  0  0  0  0  0
  190.9600  175.6010  143.9940 C   0  0  0  0  0  2  0  0  0  0  0  0
  191.2480  176.6750  145.0160 C   0  0  0  0  0  0  0  0  0  0  0  0
  190.2720  178.4330  143.4640 C   0  0  0  0  0  2  0  0  0  0  0  0
  190.2880  176.1070  142.6900 C   0  0  0  0  0  2  0  0  0  0  0  0
  190.5910  177.5500  142.2880 C   0  0  1  0  0  3  0  0  0  0  0  0
  190.9980  177.9540  144.7680 C   0  0  0  0  0  3  0  0  0  0  0  0
  191.9810  176.3130  146.2430 C   0  0  0  0  0  2  0  0  0  0  0  0
  192.2280  175.0100  146.3500 F   0  0  0  0  0  0  0  0  0  0  0  0
  194.3420  175.8360  136.3660 C   0  0  1  0  0  3  0  0  0  0  0  0
  194.3480  174.1440  136.2500 C   0  0  0  0  0  2  0  0  0  0  0  0
  194.3890  173.1010  134.7450 S   0  0  0  0  0  1  0  0  0  0  0  0
  195.3550  177.8140  135.4280 O   0  0  0  0  0  1  0  0  0  0  0  0
  194.4980  176.6930  135.1940 N   0  0  0  0  0  2  0  0  0  0  0  0
  1  7  1  0  0  0  0
  1  8  1  0  0  0  0
  2  9  2  0  0  0  0
  3 10  1  0  0  0  0
  4  3  2  0  0  0  0
  4  6  1  0  0  0  0
  5  6  1  0  0  0  0
  5  2  1  0  0  0  0
  6  1  2  0  0  0  0
  8 30  1  1  0  0  0
  9  8  1  0  0  0  0
 10  7  2  0  0  0  0
 11 12  1  6  0  0  0
 11 13  1  0  0  0  0
 11  2  1  0  0  0  0
 14 13  1  0  0  0  0
 15 14  2  0  0  0  0
 16 14  1  6  0  0  0
 16 29  1  0  0  0  0
 16 17  1  0  0  0  0
 17 18  1  1  0  0  0
 17 19  1  0  0  0  0
 19 20  1  0  0  0  0
 21 27  1  0  0  0  0
 22 20  1  6  0  0  0
 22 21  1  0  0  0  0
 22 26  1  0  0  0  0
 23 25  1  0  0  0  0
 24 25  1  0  0  0  0
 26 24  1  0  0  0  0
 27 23  1  0  0  0  0
 28 29  1  0  0  0  0
 31 32  1  0  0  0  0
 32 37  1  0  0  0  0
 33 36  1  0  0  0  0
 34 31  1  0  0  0  0
 35 30  1  6  0  0  0
 35 34  1  0  0  0  0
 35 33  1  0  0  0  0
 36 32  2  0  0  0  0
 37 38  1  0  0  0  0
 39 40  1  6  0  0  0
 39  3  1  0  0  0  0
 41 40  1  0  0  0  0
 43 42  1  0  0  0  0
 43 39  1  0  0  0  0
M  END
>  <MODEL>
2

>  <REMARK>
 VINA RESULT:      -8.4      1.248      1.661
  Name = 
  14 active torsions:
  status: ('A' for Active; 'I' for Inactive)
    1  A    between atoms: N_1  and  C_34
    2  A    between atoms: N_1  and  C_35
    3  A    between atoms: C_2  and  N_6
    4  A    between atoms: C_2  and  C_13
    5  A    between atoms: C_3  and  C_4
    6  A    between atoms: C_3  and  C_12
    7  A    between atoms: C_3  and  O_42
    8  A    between atoms: C_4  and  C_22
    9  A    between atoms: C_5  and  C_16
   10  A    between atoms: C_5  and  C_18
   11  A    between atoms: C_5  and  N_23
   12  A    between atoms: C_14  and  C_41
   13  A    between atoms: C_19  and  C_25
   14  A    between atoms: C_22  and  C_41
                            x       y       z     vdW  Elec       q    Type
                         _______ _______ _______ _____ _____    ______ ____

>  <TORSDO>
F 14

$$$$
=
 OpenBabel10272414263D

 43 46  0  0  1  0  0  0  0  0999 V2000
  190.3340  177.3580  139.8010 C   0  0  0  0  0  0  0  0  0  0  0  0
  188.0200  177.4330  138.0440 C   0  0  0  0  0  0  0  0  0  0  0  0
  192.9150  176.4880  138.4160 C   0  0  0  0  0  0  0  0  0  0  0  0
  191.7160  176.4380  137.8630 C   0  0  0  0  0  3  0  0  0  0  0  0
  189.1770  176.4770  137.7260 C   0  0  0  0  0  2  0  0  0  0  0  0
  190.4430  177.0370  138.3730 C   0  0  0  0  0  0  0  0  0  0  0  0
  191.6010  177.3710  140.6320 C   0  0  0  0  0  3  0  0  0  0  0  0
  189.0920  177.9550  140.2370 C   0  0  1  0  0  3  0  0  0  0  0  0
  188.0060  178.0570  139.2220 C   0  0  0  0  0  3  0  0  0  0  0  0
  192.9620  177.1500  139.8720 C   0  0  0  0  0  3  0  0  0  0  0  0
  187.0020  177.6480  137.0160 C   0  0  2  0  0  3  0  0  0  0  0  0
  186.7670  179.0430  136.9250 O   0  0  0  0  0  1  0  0  0  0  0  0
  185.8080  176.9630  137.4210 N   0  0  0  0  0  2  0  0  0  0  0  0
  184.8690  176.2590  136.6440 C   0  0  0  0  0  0  0  0  0  0  0  0
  185.1480  175.9620  135.4150 O   0  0  0  0  0  0  0  0  0  0  0  0
  183.5870  175.8530  137.2110 C   0  0  2  0  0  3  0  0  0  0  0  0
  182.9140  177.0100  138.0200 C   0  0  1  0  0  3  0  0  0  0  0  0
  181.5950  177.2610  137.5780 O   0  0  0  0  0  1  0  0  0  0  0  0
  182.9780  176.9610  139.5390 C   0  0  0  0  0  2  0  0  0  0  0  0
  183.7070  178.2070  139.9970 C   0  0  0  0  0  2  0  0  0  0  0  0
  182.0400  178.3290  141.7430 O   0  0  0  0  0  0  0  0  0  0  0  0
  183.3840  178.5180  141.3430 C   0  0  1  0  0  3  0  0  0  0  0  0
  181.5680  178.7270  143.9340 C   0  0  0  0  0  2  0  0  0  0  0  0
  184.2350  178.4430  143.6660 C   0  0  0  0  0  2  0  0  0  0  0  0
  182.9790  179.1560  144.2710 C   0  0  0  0  0  2  0  0  0  0  0  0
  184.3710  178.7460  142.2170 C   0  0  0  0  0  2  0  0  0  0  0  0
  181.3040  179.1680  142.5570 C   0  0  0  0  0  2  0  0  0  0  0  0
  183.0440  173.7420  137.2800 C   0  0  0  0  0  1  0  0  0  0  0  0
  183.8140  174.7070  137.9500 O   0  0  0  0  0  0  0  0  0  0  0  0
  188.8830  178.4190  141.5810 N   0  0  0  0  0  2  0  0  0  0  0  0
  187.8500  177.1300  145.0380 C   0  0  0  0  0  2  0  0  0  0  0  0
  189.1890  177.3340  145.7060 C   0  0  0  0  0  0  0  0  0  0  0  0
  190.0870  178.4320  143.5990 C   0  0  0  0  0  2  0  0  0  0  0  0
  187.7620  177.6540  143.5810 C   0  0  0  0  0  2  0  0  0  0  0  0
  189.0690  177.6750  142.7890 C   0  0  1  0  0  3  0  0  0  0  0  0
  190.2150  177.8640  145.0540 C   0  0  0  0  0  3  0  0  0  0  0  0
  189.4060  176.7760  147.0530 C   0  0  0  0  0  2  0  0  0  0  0  0
  190.3970  177.3620  147.7190 F   0  0  0  0  0  0  0  0  0  0  0  0
  194.1160  176.0460  137.5030 C   0  0  1  0  0  3  0  0  0  0  0  0
  194.4990  174.4490  137.9250 C   0  0  0  0  0  2  0  0  0  0  0  0
  196.0780  173.7830  138.5710 S   0  0  0  0  0  1  0  0  0  0  0  0
  195.2340  177.4460  135.8880 O   0  0  0  0  0  1  0  0  0  0  0  0
  194.1720  176.5160  136.1210 N   0  0  0  0  0  2  0  0  0  0  0  0
  1  8  1  0  0  0  0
  1  7  1  0  0  0  0
  2  9  2  0  0  0  0
  3 10  1  0  0  0  0
  4  6  1  0  0  0  0
  4  3  2  0  0  0  0
  5  2  1  0  0  0  0
  5  6  1  0  0  0  0
  6  1  2  0  0  0  0
  8 30  1  1  0  0  0
  9  8  1  0  0  0  0
 10  7  2  0  0  0  0
 11 12  1  1  0  0  0
 11 13  1  0  0  0  0
 11  2  1  0  0  0  0
 14 13  1  0  0  0  0
 15 14  2  0  0  0  0
 16 14  1  1  0  0  0
 16 29  1  0  0  0  0
 16 17  1  0  0  0  0
 17 18  1  1  0  0  0
 17 19  1  0  0  0  0
 19 20  1  0  0  0  0
 21 27  1  0  0  0  0
 22 20  1  1  0  0  0
 22 21  1  0  0  0  0
 22 26  1  0  0  0  0
 23 25  1  0  0  0  0
 24 25  1  0  0  0  0
 26 24  1  0  0  0  0
 27 23  1  0  0  0  0
 28 29  1  0  0  0  0
 31 32  1  0  0  0  0
 32 37  1  0  0  0  0
 33 36  1  0  0  0  0
 34 31  1  0  0  0  0
 35 30  1  6  0  0  0
 35 34  1  0  0  0  0
 35 33  1  0  0  0  0
 36 32  2  0  0  0  0
 37 38  1  0  0  0  0
 39 40  1  6  0  0  0
 39  3  1  0  0  0  0
 40 41  1  0  0  0  0
 42 43  1  0  0  0  0
 43 39  1  0  0  0  0
M  END
>  <MODEL>
3

>  <REMARK>
 VINA RESULT:      -8.4      1.875      2.876
  Name = 
  14 active torsions:
  status: ('A' for Active; 'I' for Inactive)
    1  A    between atoms: N_1  and  C_34
    2  A    between atoms: N_1  and  C_35
    3  A    between atoms: C_2  and  N_6
    4  A    between atoms: C_2  and  C_13
    5  A    between atoms: C_3  and  C_4
    6  A    between atoms: C_3  and  C_12
    7  A    between atoms: C_3  and  O_42
    8  A    between atoms: C_4  and  C_22
    9  A    between atoms: C_5  and  C_16
   10  A    between atoms: C_5  and  C_18
   11  A    between atoms: C_5  and  N_23
   12  A    between atoms: C_14  and  C_41
   13  A    between atoms: C_19  and  C_25
   14  A    between atoms: C_22  and  C_41
                            x       y       z     vdW  Elec       q    Type
                         _______ _______ _______ _____ _____    ______ ____

>  <TORSDO>
F 14

$$$$
=
 OpenBabel10272414263D

 43 46  0  0  1  0  0  0  0  0999 V2000
  182.5800  177.0130  139.1810 C   0  0  0  0  0  0  0  0  0  0  0  0
  185.0710  178.0830  138.1340 C   0  0  0  0  0  0  0  0  0  0  0  0
  181.4830  174.6430  137.5930 C   0  0  0  0  0  0  0  0  0  0  0  0
  182.5060  175.3890  137.2130 C   0  0  0  0  0  3  0  0  0  0  0  0
  184.0980  177.3720  137.1840 C   0  0  0  0  0  2  0  0  0  0  0  0
  183.2420  176.4170  138.0140 C   0  0  0  0  0  0  0  0  0  0  0  0
  181.3250  176.3480  139.7110 C   0  0  0  0  0  3  0  0  0  0  0  0
  183.3420  177.9830  139.9320 C   0  0  1  0  0  3  0  0  0  0  0  0
  184.6650  178.3760  139.3700 C   0  0  0  0  0  3  0  0  0  0  0  0
  180.8890  174.9940  139.0370 C   0  0  0  0  0  3  0  0  0  0  0  0
  186.4200  178.3710  137.6480 C   0  0  2  0  0  3  0  0  0  0  0  0
  186.5510  177.7880  136.3630 O   0  0  0  0  0  1  0  0  0  0  0  0
  187.3580  177.7830  138.5630 N   0  0  0  0  0  2  0  0  0  0  0  0
  188.6510  178.2080  138.9200 C   0  0  0  0  0  0  0  0  0  0  0  0
  189.0520  179.3920  138.5820 O   0  0  0  0  0  0  0  0  0  0  0  0
  189.5420  177.3310  139.6720 C   0  0  2  0  0  3  0  0  0  0  0  0
  189.4960  177.6300  141.2070 C   0  0  1  0  0  3  0  0  0  0  0  0
  188.3120  178.3090  141.5750 O   0  0  0  0  0  1  0  0  0  0  0  0
  189.7920  176.4930  142.1730 C   0  0  0  0  0  2  0  0  0  0  0  0
  190.9700  176.9220  143.0230 C   0  0  0  0  0  2  0  0  0  0  0  0
  191.7290  176.8180  145.3160 O   0  0  0  0  0  0  0  0  0  0  0  0
  190.6480  176.8650  144.4030 C   0  0  1  0  0  3  0  0  0  0  0  0
  191.1910  176.8410  147.5270 C   0  0  0  0  0  2  0  0  0  0  0  0
  189.0540  177.6790  146.1130 C   0  0  0  0  0  2  0  0  0  0  0  0
  189.6990  176.8490  147.2740 C   0  0  0  0  0  2  0  0  0  0  0  0
  189.3870  177.0880  144.7900 C   0  0  0  0  0  2  0  0  0  0  0  0
  191.8020  176.0420  146.4550 C   0  0  0  0  0  2  0  0  0  0  0  0
  191.0620  176.1570  138.6400 C   0  0  0  0  0  1  0  0  0  0  0  0
  190.8000  177.4540  139.1130 O   0  0  0  0  0  0  0  0  0  0  0  0
  182.8650  178.5690  141.1540 N   0  0  0  0  0  2  0  0  0  0  0  0
  185.5990  178.0950  143.7980 C   0  0  0  0  0  2  0  0  0  0  0  0
  184.8010  178.6190  144.9680 C   0  0  0  0  0  0  0  0  0  0  0  0
  182.7490  178.8410  143.4860 C   0  0  0  0  0  2  0  0  0  0  0  0
  184.8080  177.9840  142.4680 C   0  0  0  0  0  2  0  0  0  0  0  0
  183.6490  178.9630  142.2850 C   0  0  1  0  0  3  0  0  0  0  0  0
  183.5410  179.0110  144.8280 C   0  0  0  0  0  3  0  0  0  0  0  0
  185.4890  178.8620  146.2490 C   0  0  0  0  0  2  0  0  0  0  0  0
  184.7900  178.4710  147.3110 F   0  0  0  0  0  0  0  0  0  0  0  0
  181.1220  173.4350  136.6540 C   0  0  1  0  0  3  0  0  0  0  0  0
  182.5840  172.8080  136.0670 C   0  0  0  0  0  2  0  0  0  0  0  0
  182.8920  171.8870  134.5130 S   0  0  0  0  0  1  0  0  0  0  0  0
  180.2840  171.6740  138.0740 O   0  0  0  0  0  1  0  0  0  0  0  0
  179.9940  172.5750  137.0010 N   0  0  0  0  0  2  0  0  0  0  0  0
  1  7  1  0  0  0  0
  1  8  1  0  0  0  0
  2  9  2  0  0  0  0
  3 10  1  0  0  0  0
  4  3  2  0  0  0  0
  4  6  1  0  0  0  0
  5  6  1  0  0  0  0
  5  2  1  0  0  0  0
  6  1  2  0  0  0  0
  8 30  1  6  0  0  0
  9  8  1  0  0  0  0
 10  7  2  0  0  0  0
 11 12  1  6  0  0  0
 11  2  1  0  0  0  0
 11 13  1  0  0  0  0
 13 14  1  0  0  0  0
 15 14  2  0  0  0  0
 16 14  1  6  0  0  0
 16 17  1  0  0  0  0
 17 18  1  1  0  0  0
 17 19  1  0  0  0  0
 19 20  1  0  0  0  0
 21 27  1  0  0  0  0
 22 20  1  6  0  0  0
 22 26  1  0  0  0  0
 22 21  1  0  0  0  0
 24 25  1  0  0  0  0
 25 23  1  0  0  0  0
 26 24  1  0  0  0  0
 27 23  1  0  0  0  0
 28 29  1  0  0  0  0
 29 16  1  0  0  0  0
 31 32  1  0  0  0  0
 32 37  1  0  0  0  0
 33 36  1  0  0  0  0
 34 31  1  0  0  0  0
 35 30  1  6  0  0  0
 35 34  1  0  0  0  0
 35 33  1  0  0  0  0
 36 32  2  0  0  0  0
 37 38  1  0  0  0  0
 39 40  1  1  0  0  0
 39 43  1  0  0  0  0
 39  3  1  0  0  0  0
 41 40  1  0  0  0  0
 43 42  1  0  0  0  0
M  END
>  <MODEL>
4

>  <REMARK>
 VINA RESULT:      -8.3      4.064      7.845
  Name = 
  14 active torsions:
  status: ('A' for Active; 'I' for Inactive)
    1  A    between atoms: N_1  and  C_34
    2  A    between atoms: N_1  and  C_35
    3  A    between atoms: C_2  and  N_6
    4  A    between atoms: C_2  and  C_13
    5  A    between atoms: C_3  and  C_4
    6  A    between atoms: C_3  and  C_12
    7  A    between atoms: C_3  and  O_42
    8  A    between atoms: C_4  and  C_22
    9  A    between atoms: C_5  and  C_16
   10  A    between atoms: C_5  and  C_18
   11  A    between atoms: C_5  and  N_23
   12  A    between atoms: C_14  and  C_41
   13  A    between atoms: C_19  and  C_25
   14  A    between atoms: C_22  and  C_41
                            x       y       z     vdW  Elec       q    Type
                         _______ _______ _______ _____ _____    ______ ____

>  <TORSDO>
F 14

$$$$
=
 OpenBabel10272414263D

 43 46  0  0  1  0  0  0  0  0999 V2000
  186.9000  178.0140  142.5100 C   0  0  0  0  0  0  0  0  0  0  0  0
  188.4880  178.1120  140.0770 C   0  0  0  0  0  0  0  0  0  0  0  0
  188.5340  177.4780  145.0370 C   0  0  0  0  0  0  0  0  0  0  0  0
  189.0120  177.4040  143.8060 C   0  0  0  0  0  3  0  0  0  0  0  0
  188.9820  177.2790  141.2670 C   0  0  0  0  0  2  0  0  0  0  0  0
  188.3590  177.8540  142.5380 C   0  0  0  0  0  0  0  0  0  0  0  0
  186.1550  178.0270  143.8300 C   0  0  0  0  0  3  0  0  0  0  0  0
  186.3230  178.4720  141.2670 C   0  0  1  0  0  3  0  0  0  0  0  0
  187.2490  178.6050  140.1070 C   0  0  0  0  0  3  0  0  0  0  0  0
  187.0200  177.9840  145.1440 C   0  0  0  0  0  3  0  0  0  0  0  0
  189.4190  178.3630  138.9780 C   0  0  2  0  0  3  0  0  0  0  0  0
  188.8180  179.3080  138.1090 O   0  0  0  0  0  1  0  0  0  0  0  0
  189.6430  177.1230  138.2920 N   0  0  0  0  0  2  0  0  0  0  0  0
  190.8380  176.4020  138.1060 C   0  0  0  0  0  0  0  0  0  0  0  0
  191.8920  176.7230  138.7880 O   0  0  0  0  0  0  0  0  0  0  0  0
  190.9010  175.2950  137.1590 C   0  0  2  0  0  3  0  0  0  0  0  0
  189.4950  174.9530  136.5660 C   0  0  1  0  0  3  0  0  0  0  0  0
  189.4820  175.0460  135.1560 O   0  0  0  0  0  1  0  0  0  0  0  0
  188.8040  173.6800  137.0320 C   0  0  0  0  0  2  0  0  0  0  0  0
  187.6160  173.4550  136.1200 C   0  0  0  0  0  2  0  0  0  0  0  0
  186.0780  175.3180  136.2100 O   0  0  0  0  0  0  0  0  0  0  0  0
  186.4390  174.0280  136.6680 C   0  0  1  0  0  3  0  0  0  0  0  0
  184.1290  176.1710  137.0180 C   0  0  0  0  0  2  0  0  0  0  0  0
  184.1510  173.5120  137.4570 C   0  0  0  0  0  2  0  0  0  0  0  0
  183.8520  174.9810  137.9100 C   0  0  0  0  0  2  0  0  0  0  0  0
  185.6150  173.2630  137.3930 C   0  0  0  0  0  2  0  0  0  0  0  0
  185.5880  176.3510  136.9840 C   0  0  0  0  0  2  0  0  0  0  0  0
  192.4920  173.8260  136.8940 C   0  0  0  0  0  1  0  0  0  0  0  0
  191.5090  174.2370  137.8100 O   0  0  0  0  0  0  0  0  0  0  0  0
  184.9260  178.7740  141.1250 N   0  0  0  0  0  2  0  0  0  0  0  0
  182.4000  179.2670  138.2850 C   0  0  0  0  0  2  0  0  0  0  0  0
  181.4710  178.1450  138.6830 C   0  0  0  0  0  0  0  0  0  0  0  0
  182.8510  177.7280  140.7750 C   0  0  0  0  0  2  0  0  0  0  0  0
  183.5670  179.5290  139.2740 C   0  0  0  0  0  2  0  0  0  0  0  0
  184.0470  178.3270  140.0870 C   0  0  1  0  0  3  0  0  0  0  0  0
  181.6940  177.4110  139.7650 C   0  0  0  0  0  3  0  0  0  0  0  0
  180.3950  177.7490  137.7570 C   0  0  0  0  0  2  0  0  0  0  0  0
  180.8350  177.1470  136.6550 F   0  0  0  0  0  0  0  0  0  0  0  0
  189.5650  177.2210  146.1950 C   0  0  1  0  0  3  0  0  0  0  0  0
  188.6660  176.8800  147.5920 C   0  0  0  0  0  2  0  0  0  0  0  0
  188.0180  178.0460  148.8480 S   0  0  0  0  0  1  0  0  0  0  0  0
  191.9130  177.4320  145.6830 O   0  0  0  0  0  1  0  0  0  0  0  0
  190.8190  176.5350  145.8950 N   0  0  0  0  0  2  0  0  0  0  0  0
  1  6  2  0  0  0  0
  1  7  1  0  0  0  0
  2  9  2  0  0  0  0
  2  5  1  0  0  0  0
  3 10  1  0  0  0  0
  3 39  1  0  0  0  0
  4  3  2  0  0  0  0
  5  6  1  0  0  0  0
  6  4  1  0  0  0  0
  7 10  2  0  0  0  0
  8 30  1  6  0  0  0
  8  1  1  0  0  0  0
  9  8  1  0  0  0  0
 11 12  1  6  0  0  0
 11  2  1  0  0  0  0
 13 11  1  0  0  0  0
 14 13  1  0  0  0  0
 14 15  2  0  0  0  0
 16 29  1  1  0  0  0
 16 14  1  0  0  0  0
 17 18  1  6  0  0  0
 17 19  1  0  0  0  0
 17 16  1  0  0  0  0
 20 19  1  0  0  0  0
 21 22  1  0  0  0  0
 21 27  1  0  0  0  0
 22 20  1  6  0  0  0
 22 26  1  0  0  0  0
 23 25  1  0  0  0  0
 24 25  1  0  0  0  0
 26 24  1  0  0  0  0
 27 23  1  0  0  0  0
 28 29  1  0  0  0  0
 31 32  1  0  0  0  0
 31 34  1  0  0  0  0
 32 36  2  0  0  0  0
 34 35  1  0  0  0  0
 35 33  1  0  0  0  0
 35 30  1  1  0  0  0
 36 33  1  0  0  0  0
 37 32  1  0  0  0  0
 38 37  1  0  0  0  0
 39 40  1  1  0  0  0
 40 41  1  0  0  0  0
 42 43  1  0  0  0  0
 43 39  1  0  0  0  0
M  END
>  <MODEL>
5

>  <REMARK>
 VINA RESULT:      -8.0      4.276      8.959
  Name = 
  14 active torsions:
  status: ('A' for Active; 'I' for Inactive)
    1  A    between atoms: N_1  and  C_34
    2  A    between atoms: N_1  and  C_35
    3  A    between atoms: C_2  and  N_6
    4  A    between atoms: C_2  and  C_13
    5  A    between atoms: C_3  and  C_4
    6  A    between atoms: C_3  and  C_12
    7  A    between atoms: C_3  and  O_42
    8  A    between atoms: C_4  and  C_22
    9  A    between atoms: C_5  and  C_16
   10  A    between atoms: C_5  and  C_18
   11  A    between atoms: C_5  and  N_23
   12  A    between atoms: C_14  and  C_41
   13  A    between atoms: C_19  and  C_25
   14  A    between atoms: C_22  and  C_41
                            x       y       z     vdW  Elec       q    Type
                         _______ _______ _______ _____ _____    ______ ____

>  <TORSDO>
F 14

$$$$
=
 OpenBabel10272414263D

 43 46  0  0  1  0  0  0  0  0999 V2000
  186.7420  178.0310  143.1990 C   0  0  0  0  0  0  0  0  0  0  0  0
  188.4060  177.8640  140.8220 C   0  0  0  0  0  0  0  0  0  0  0  0
  188.2360  177.4570  145.8020 C   0  0  0  0  0  0  0  0  0  0  0  0
  188.7420  177.2800  144.5940 C   0  0  0  0  0  3  0  0  0  0  0  0
  188.7790  177.0420  142.0620 C   0  0  0  0  0  2  0  0  0  0  0  0
  188.1760  177.7330  143.2850 C   0  0  0  0  0  0  0  0  0  0  0  0
  185.9610  178.1770  144.4890 C   0  0  0  0  0  3  0  0  0  0  0  0
  186.2510  178.4860  141.9180 C   0  0  1  0  0  3  0  0  0  0  0  0
  187.2210  178.4750  140.7870 C   0  0  0  0  0  3  0  0  0  0  0  0
  186.7760  178.1110  145.8340 C   0  0  0  0  0  3  0  0  0  0  0  0
  189.3910  177.9730  139.7460 C   0  0  2  0  0  3  0  0  0  0  0  0
  189.1090  179.1570  139.0190 O   0  0  0  0  0  1  0  0  0  0  0  0
  189.2570  176.8210  138.9000 N   0  0  0  0  0  2  0  0  0  0  0  0
  190.0820  176.3780  137.8500 C   0  0  0  0  0  0  0  0  0  0  0  0
  191.2530  176.9050  137.6880 O   0  0  0  0  0  0  0  0  0  0  0  0
  189.6340  175.3250  136.9450 C   0  0  2  0  0  3  0  0  0  0  0  0
  188.1420  175.5170  136.5170 C   0  0  1  0  0  3  0  0  0  0  0  0
  188.0190  175.7460  135.1280 O   0  0  0  0  0  1  0  0  0  0  0  0
  187.1160  174.4990  136.9920 C   0  0  0  0  0  2  0  0  0  0  0  0
  186.2430  174.1540  135.8040 C   0  0  0  0  0  2  0  0  0  0  0  0
  184.1880  173.8280  137.0340 O   0  0  0  0  0  0  0  0  0  0  0  0
  184.8970  174.5370  136.0350 C   0  0  1  0  0  3  0  0  0  0  0  0
  182.0670  174.5320  137.4660 C   0  0  0  0  0  2  0  0  0  0  0  0
  183.3640  176.4780  136.1250 C   0  0  0  0  0  2  0  0  0  0  0  0
  182.0920  175.6060  136.4010 C   0  0  0  0  0  2  0  0  0  0  0  0
  184.4350  175.6670  135.4880 C   0  0  0  0  0  2  0  0  0  0  0  0
  182.8740  173.4110  136.9620 C   0  0  0  0  0  2  0  0  0  0  0  0
  191.0390  173.6570  136.9050 C   0  0  0  0  0  1  0  0  0  0  0  0
  189.8890  174.1170  137.5690 O   0  0  0  0  0  0  0  0  0  0  0  0
  184.8950  178.9150  141.7130 N   0  0  0  0  0  2  0  0  0  0  0  0
  182.7450  179.2850  138.5630 C   0  0  0  0  0  2  0  0  0  0  0  0
  181.5310  178.5620  139.0960 C   0  0  0  0  0  0  0  0  0  0  0  0
  182.6380  178.3570  141.3740 C   0  0  0  0  0  2  0  0  0  0  0  0
  183.8860  179.4920  139.5950 C   0  0  0  0  0  2  0  0  0  0  0  0
  183.9850  178.4520  140.7100 C   0  0  1  0  0  3  0  0  0  0  0  0
  181.4940  178.0910  140.3350 C   0  0  0  0  0  3  0  0  0  0  0  0
  180.4380  178.2230  138.1670 C   0  0  0  0  0  2  0  0  0  0  0  0
  180.6500  178.6410  136.9210 F   0  0  0  0  0  0  0  0  0  0  0  0
  189.2000  177.1550  147.0060 C   0  0  1  0  0  3  0  0  0  0  0  0
  190.7090  176.7530  146.3460 C   0  0  0  0  0  2  0  0  0  0  0  0
  192.0160  175.6780  147.0480 S   0  0  0  0  0  1  0  0  0  0  0  0
  187.8960  177.6270  148.9800 O   0  0  0  0  0  1  0  0  0  0  0  0
  189.0750  177.9380  148.2330 N   0  0  0  0  0  2  0  0  0  0  0  0
  1  6  2  0  0  0  0
  1  7  1  0  0  0  0
  2  5  1  0  0  0  0
  3 10  1  0  0  0  0
  3 39  1  0  0  0  0
  4  3  2  0  0  0  0
  5  6  1  0  0  0  0
  6  4  1  0  0  0  0
  7 10  2  0  0  0  0
  8 30  1  6  0  0  0
  8  1  1  0  0  0  0
  9  2  2  0  0  0  0
  9  8  1  0  0  0  0
 11 12  1  6  0  0  0
 11  2  1  0  0  0  0
 13 11  1  0  0  0  0
 14 13  1  0  0  0  0
 15 14  2  0  0  0  0
 16 29  1  1  0  0  0
 16 14  1  0  0  0  0
 17 18  1  6  0  0  0
 17 16  1  0  0  0  0
 17 19  1  0  0  0  0
 20 19  1  0  0  0  0
 22 20  1  1  0  0  0
 22 21  1  0  0  0  0
 24 25  1  0  0  0  0
 25 23  1  0  0  0  0
 26 22  1  0  0  0  0
 26 24  1  0  0  0  0
 27 21  1  0  0  0  0
 27 23  1  0  0  0  0
 28 29  1  0  0  0  0
 31 32  1  0  0  0  0
 31 34  1  0  0  0  0
 32 36  2  0  0  0  0
 34 35  1  0  0  0  0
 35 33  1  0  0  0  0
 35 30  1  1  0  0  0
 36 33  1  0  0  0  0
 37 32  1  0  0  0  0
 38 37  1  0  0  0  0
 39 40  1  6  0  0  0
 39 43  1  0  0  0  0
 40 41  1  0  0  0  0
 43 42  1  0  0  0  0
M  END
>  <MODEL>
6

>  <REMARK>
 VINA RESULT:      -7.7      4.077      9.049
  Name = 
  14 active torsions:
  status: ('A' for Active; 'I' for Inactive)
    1  A    between atoms: N_1  and  C_34
    2  A    between atoms: N_1  and  C_35
    3  A    between atoms: C_2  and  N_6
    4  A    between atoms: C_2  and  C_13
    5  A    between atoms: C_3  and  C_4
    6  A    between atoms: C_3  and  C_12
    7  A    between atoms: C_3  and  O_42
    8  A    between atoms: C_4  and  C_22
    9  A    between atoms: C_5  and  C_16
   10  A    between atoms: C_5  and  C_18
   11  A    between atoms: C_5  and  N_23
   12  A    between atoms: C_14  and  C_41
   13  A    between atoms: C_19  and  C_25
   14  A    between atoms: C_22  and  C_41
                            x       y       z     vdW  Elec       q    Type
                         _______ _______ _______ _____ _____    ______ ____

>  <TORSDO>
F 14

$$$$
=
 OpenBabel10272414263D

 43 46  0  0  1  0  0  0  0  0999 V2000
  189.5730  176.9460  136.7090 C   0  0  0  0  0  0  0  0  0  0  0  0
  188.6720  177.6760  139.3730 C   0  0  0  0  0  0  0  0  0  0  0  0
  192.4790  176.0050  136.5970 C   0  0  0  0  0  0  0  0  0  0  0  0
  191.9050  176.5390  137.6610 C   0  0  0  0  0  3  0  0  0  0  0  0
  190.1610  177.7900  139.0240 C   0  0  0  0  0  2  0  0  0  0  0  0
  190.4530  176.8240  137.8770 C   0  0  0  0  0  0  0  0  0  0  0  0
  190.0940  176.4710  135.3660 C   0  0  0  0  0  3  0  0  0  0  0  0
  188.1760  177.1980  136.9740 C   0  0  1  0  0  3  0  0  0  0  0  0
  187.7970  177.4420  138.3940 C   0  0  0  0  0  3  0  0  0  0  0  0
  191.5040  175.7720  135.3490 C   0  0  0  0  0  3  0  0  0  0  0  0
  188.2840  177.7880  140.7790 C   0  0  2  0  0  3  0  0  0  0  0  0
  187.7800  179.0970  140.9860 O   0  0  0  0  0  1  0  0  0  0  0  0
  189.4520  177.5670  141.5830 N   0  0  0  0  0  2  0  0  0  0  0  0
  189.6410  176.6980  142.6730 C   0  0  0  0  0  0  0  0  0  0  0  0
  188.7570  175.7850  142.9250 O   0  0  0  0  0  0  0  0  0  0  0  0
  190.8250  176.8080  143.5180 C   0  0  2  0  0  3  0  0  0  0  0  0
  190.4530  176.9160  145.0330 C   0  0  1  0  0  3  0  0  0  0  0  0
  191.5990  176.8790  145.8590 O   0  0  0  0  0  1  0  0  0  0  0  0
  189.5060  178.0250  145.4680 C   0  0  0  0  0  2  0  0  0  0  0  0
  188.3960  177.3770  146.2700 C   0  0  0  0  0  2  0  0  0  0  0  0
  186.6670  177.5640  144.5910 O   0  0  0  0  0  0  0  0  0  0  0  0
  187.1290  177.8900  145.8880 C   0  0  1  0  0  3  0  0  0  0  0  0
  184.5850  178.3030  144.0410 C   0  0  0  0  0  2  0  0  0  0  0  0
  184.8580  178.4140  146.7210 C   0  0  0  0  0  2  0  0  0  0  0  0
  184.3730  179.0160  145.3590 C   0  0  0  0  0  2  0  0  0  0  0  0
  186.3410  178.4440  146.8170 C   0  0  0  0  0  2  0  0  0  0  0  0
  186.0150  178.4140  143.7200 C   0  0  0  0  0  2  0  0  0  0  0  0
  192.3550  177.2890  142.0400 C   0  0  0  0  0  1  0  0  0  0  0  0
  191.5650  177.8760  143.0430 O   0  0  0  0  0  0  0  0  0  0  0  0
  187.1820  177.2360  135.9370 N   0  0  0  0  0  2  0  0  0  0  0  0
  183.8050  175.5110  136.4890 C   0  0  0  0  0  2  0  0  0  0  0  0
  184.3160  174.0940  136.3880 C   0  0  0  0  0  0  0  0  0  0  0  0
  186.7010  174.9520  136.2130 C   0  0  0  0  0  2  0  0  0  0  0  0
  184.9050  176.6050  136.4420 C   0  0  0  0  0  2  0  0  0  0  0  0
  186.1760  176.2540  135.6700 C   0  0  1  0  0  3  0  0  0  0  0  0
  185.6040  173.8320  136.2070 C   0  0  0  0  0  3  0  0  0  0  0  0
  183.3430  172.9890  136.3160 C   0  0  0  0  0  2  0  0  0  0  0  0
  182.1850  173.2600  136.9140 F   0  0  0  0  0  0  0  0  0  0  0  0
  193.9680  175.5360  136.7760 C   0  0  1  0  0  3  0  0  0  0  0  0
  194.8590  176.2130  135.5020 C   0  0  0  0  0  2  0  0  0  0  0  0
  196.6340  175.9950  135.1030 S   0  0  0  0  0  1  0  0  0  0  0  0
  194.8610  174.0620  138.4640 O   0  0  0  0  0  1  0  0  0  0  0  0
  194.5180  175.4080  138.1230 N   0  0  0  0  0  2  0  0  0  0  0  0
  1  8  1  0  0  0  0
  1  6  1  0  0  0  0
  2 11  1  0  0  0  0
  3 39  1  0  0  0  0
  3  4  1  0  0  0  0
  4  6  2  0  0  0  0
  5  2  1  0  0  0  0
  6  5  1  0  0  0  0
  7  1  2  0  0  0  0
  8 30  1  6  0  0  0
  8  9  1  0  0  0  0
  9  2  2  0  0  0  0
 10  7  1  0  0  0  0
 10  3  2  0  0  0  0
 11 12  1  6  0  0  0
 11 13  1  0  0  0  0
 13 14  1  0  0  0  0
 14 15  2  0  0  0  0
 16 14  1  6  0  0  0
 16 17  1  0  0  0  0
 17 19  1  0  0  0  0
 17 18  1  1  0  0  0
 19 20  1  0  0  0  0
 21 22  1  0  0  0  0
 22 20  1  1  0  0  0
 22 26  1  0  0  0  0
 23 25  1  0  0  0  0
 24 26  1  0  0  0  0
 25 24  1  0  0  0  0
 27 23  1  0  0  0  0
 27 21  1  0  0  0  0
 28 29  1  0  0  0  0
 29 16  1  0  0  0  0
 32 31  1  0  0  0  0
 34 31  1  0  0  0  0
 35 30  1  1  0  0  0
 35 33  1  0  0  0  0
 35 34  1  0  0  0  0
 36 33  1  0  0  0  0
 36 32  2  0  0  0  0
 37 32  1  0  0  0  0
 37 38  1  0  0  0  0
 39 40  1  6  0  0  0
 39 43  1  0  0  0  0
 41 40  1  0  0  0  0
 43 42  1  0  0  0  0
M  END
>  <MODEL>
7

>  <REMARK>
 VINA RESULT:      -7.6      3.557      6.671
  Name = 
  14 active torsions:
  status: ('A' for Active; 'I' for Inactive)
    1  A    between atoms: N_1  and  C_34
    2  A    between atoms: N_1  and  C_35
    3  A    between atoms: C_2  and  N_6
    4  A    between atoms: C_2  and  C_13
    5  A    between atoms: C_3  and  C_4
    6  A    between atoms: C_3  and  C_12
    7  A    between atoms: C_3  and  O_42
    8  A    between atoms: C_4  and  C_22
    9  A    between atoms: C_5  and  C_16
   10  A    between atoms: C_5  and  C_18
   11  A    between atoms: C_5  and  N_23
   12  A    between atoms: C_14  and  C_41
   13  A    between atoms: C_19  and  C_25
   14  A    between atoms: C_22  and  C_41
                            x       y       z     vdW  Elec       q    Type
                         _______ _______ _______ _____ _____    ______ ____

>  <TORSDO>
F 14

$$$$
=
 OpenBabel10272414263D

 43 46  0  0  1  0  0  0  0  0999 V2000
  186.5680  176.5480  136.6420 C   0  0  0  0  0  0  0  0  0  0  0  0
  184.9370  178.3730  138.2090 C   0  0  0  0  0  0  0  0  0  0  0  0
  189.4130  176.2040  137.7030 C   0  0  0  0  0  0  0  0  0  0  0  0
  188.5510  177.1000  138.1510 C   0  0  0  0  0  3  0  0  0  0  0  0
  186.4610  178.5490  138.1940 C   0  0  0  0  0  2  0  0  0  0  0  0
  187.0880  177.1980  137.8510 C   0  0  0  0  0  0  0  0  0  0  0  0
  187.4560  175.5510  135.9240 C   0  0  0  0  0  3  0  0  0  0  0  0
  185.1460  176.6550  136.4100 C   0  0  1  0  0  3  0  0  0  0  0  0
  184.3780  177.5230  137.3470 C   0  0  0  0  0  3  0  0  0  0  0  0
  188.8340  175.1990  136.6010 C   0  0  0  0  0  3  0  0  0  0  0  0
  184.1680  179.1220  139.2030 C   0  0  2  0  0  3  0  0  0  0  0  0
  184.2130  180.4920  138.8430 O   0  0  0  0  0  1  0  0  0  0  0  0
  184.7810  178.9190  140.4850 N   0  0  0  0  0  2  0  0  0  0  0  0
  184.1980  178.5380  141.7080 C   0  0  0  0  0  0  0  0  0  0  0  0
  182.9840  178.0880  141.7270 O   0  0  0  0  0  0  0  0  0  0  0  0
  184.9510  178.6370  142.9540 C   0  0  2  0  0  3  0  0  0  0  0  0
  186.2670  177.7940  142.9100 C   0  0  1  0  0  3  0  0  0  0  0  0
  187.3540  178.5430  142.4030 O   0  0  0  0  0  1  0  0  0  0  0  0
  186.6750  177.0250  144.1580 C   0  0  0  0  0  2  0  0  0  0  0  0
  187.2520  178.0280  145.1350 C   0  0  0  0  0  2  0  0  0  0  0  0
  189.6250  177.6680  144.8470 O   0  0  0  0  0  0  0  0  0  0  0  0
  188.4810  177.5640  145.6720 C   0  0  1  0  0  3  0  0  0  0  0  0
  191.6030  177.0210  145.7690 C   0  0  0  0  0  2  0  0  0  0  0  0
  189.8170  177.4140  147.7500 C   0  0  0  0  0  2  0  0  0  0  0  0
  190.9770  176.6010  147.0810 C   0  0  0  0  0  2  0  0  0  0  0  0
  188.5560  177.2730  146.9760 C   0  0  0  0  0  2  0  0  0  0  0  0
  190.6240  176.7240  144.7130 C   0  0  0  0  0  2  0  0  0  0  0  0
  183.8520  179.5080  144.6260 C   0  0  0  0  0  1  0  0  0  0  0  0
  184.0900  178.2840  143.9780 O   0  0  0  0  0  0  0  0  0  0  0  0
  184.4820  175.9820  135.3280 N   0  0  0  0  0  2  0  0  0  0  0  0
  181.2570  173.9900  135.8870 C   0  0  0  0  0  2  0  0  0  0  0  0
  181.8770  172.8830  136.7070 C   0  0  0  0  0  0  0  0  0  0  0  0
  184.1080  174.0970  136.6810 C   0  0  0  0  0  2  0  0  0  0  0  0
  182.2220  175.1480  135.5200 C   0  0  0  0  0  2  0  0  0  0  0  0
  183.7020  174.7850  135.4060 C   0  0  1  0  0  3  0  0  0  0  0  0
  183.1660  172.8910  137.0210 C   0  0  0  0  0  3  0  0  0  0  0  0
  181.0710  171.6880  137.0170 C   0  0  0  0  0  2  0  0  0  0  0  0
  180.6730  171.6280  138.2850 F   0  0  0  0  0  0  0  0  0  0  0  0
  190.8050  176.1600  138.4320 C   0  0  1  0  0  3  0  0  0  0  0  0
  191.9970  176.1690  137.2270 C   0  0  0  0  0  2  0  0  0  0  0  0
  192.6780  174.7560  136.2790 S   0  0  0  0  0  1  0  0  0  0  0  0
  190.4390  176.1720  140.8170 O   0  0  0  0  0  1  0  0  0  0  0  0
  190.9730  176.8780  139.6930 N   0  0  0  0  0  2  0  0  0  0  0  0
  1  6  1  0  0  0  0
  2 11  1  0  0  0  0
  3  4  1  0  0  0  0
  3 39  1  0  0  0  0
  5  2  1  0  0  0  0
  6  4  2  0  0  0  0
  6  5  1  0  0  0  0
  7 10  1  0  0  0  0
  7  1  2  0  0  0  0
  8 30  1  6  0  0  0
  8  1  1  0  0  0  0
  8  9  1  0  0  0  0
  9  2  2  0  0  0  0
 10  3  2  0  0  0  0
 11 12  1  6  0  0  0
 11 13  1  0  0  0  0
 13 14  1  0  0  0  0
 14 15  2  0  0  0  0
 16 14  1  6  0  0  0
 16 29  1  0  0  0  0
 17 18  1  1  0  0  0
 17 16  1  0  0  0  0
 17 19  1  0  0  0  0
 19 20  1  0  0  0  0
 21 22  1  0  0  0  0
 22 20  1  1  0  0  0
 22 26  1  0  0  0  0
 23 25  1  0  0  0  0
 25 24  1  0  0  0  0
 26 24  1  0  0  0  0
 27 21  1  0  0  0  0
 27 23  1  0  0  0  0
 29 28  1  0  0  0  0
 31 32  1  0  0  0  0
 32 37  1  0  0  0  0
 32 36  2  0  0  0  0
 33 36  1  0  0  0  0
 34 31  1  0  0  0  0
 35 30  1  1  0  0  0
 35 34  1  0  0  0  0
 35 33  1  0  0  0  0
 37 38  1  0  0  0  0
 39 40  1  6  0  0  0
 39 43  1  0  0  0  0
 41 40  1  0  0  0  0
 43 42  1  0  0  0  0
M  END
>  <MODEL>
8

>  <REMARK>
 VINA RESULT:      -7.5      3.784      6.907
  Name = 
  14 active torsions:
  status: ('A' for Active; 'I' for Inactive)
    1  A    between atoms: N_1  and  C_34
    2  A    between atoms: N_1  and  C_35
    3  A    between atoms: C_2  and  N_6
    4  A    between atoms: C_2  and  C_13
    5  A    between atoms: C_3  and  C_4
    6  A    between atoms: C_3  and  C_12
    7  A    between atoms: C_3  and  O_42
    8  A    between atoms: C_4  and  C_22
    9  A    between atoms: C_5  and  C_16
   10  A    between atoms: C_5  and  C_18
   11  A    between atoms: C_5  and  N_23
   12  A    between atoms: C_14  and  C_41
   13  A    between atoms: C_19  and  C_25
   14  A    between atoms: C_22  and  C_41
                            x       y       z     vdW  Elec       q    Type
                         _______ _______ _______ _____ _____    ______ ____

>  <TORSDO>
F 14

$$$$
=
 OpenBabel10272414263D

 43 46  0  0  1  0  0  0  0  0999 V2000
  186.5870  178.0640  143.1870 C   0  0  0  0  0  0  0  0  0  0  0  0
  188.2180  177.8140  140.7950 C   0  0  0  0  0  0  0  0  0  0  0  0
  188.1030  177.5160  145.7840 C   0  0  0  0  0  0  0  0  0  0  0  0
  188.5900  177.3040  144.5740 C   0  0  0  0  0  3  0  0  0  0  0  0
  188.5910  177.0110  142.0480 C   0  0  0  0  0  2  0  0  0  0  0  0
  188.0170  177.7390  143.2630 C   0  0  0  0  0  0  0  0  0  0  0  0
  185.8250  178.2530  144.4840 C   0  0  0  0  0  3  0  0  0  0  0  0
  186.0900  178.5010  141.9030 C   0  0  1  0  0  3  0  0  0  0  0  0
  187.0450  178.4470  140.7610 C   0  0  0  0  0  3  0  0  0  0  0  0
  186.6560  178.1990  145.8200 C   0  0  0  0  0  3  0  0  0  0  0  0
  189.1920  177.8810  139.7050 C   0  0  2  0  0  3  0  0  0  0  0  0
  189.0910  179.1640  139.1130 O   0  0  0  0  0  1  0  0  0  0  0  0
  188.8640  176.8600  138.7510 N   0  0  0  0  0  2  0  0  0  0  0  0
  189.5290  176.4910  137.5670 C   0  0  0  0  0  0  0  0  0  0  0  0
  190.7200  176.9410  137.3340 O   0  0  0  0  0  0  0  0  0  0  0  0
  188.8920  175.6000  136.6020 C   0  0  2  0  0  3  0  0  0  0  0  0
  189.6180  174.2170  136.5170 C   0  0  1  0  0  3  0  0  0  0  0  0
  190.2900  173.9020  137.7190 O   0  0  0  0  0  1  0  0  0  0  0  0
  188.8320  173.0200  136.0040 C   0  0  0  0  0  2  0  0  0  0  0  0
  187.8690  172.6130  137.1000 C   0  0  0  0  0  2  0  0  0  0  0  0
  186.2490  172.5980  135.3070 O   0  0  0  0  0  0  0  0  0  0  0  0
  186.5240  172.7820  136.6830 C   0  0  1  0  0  3  0  0  0  0  0  0
  184.0680  172.7640  134.6780 C   0  0  0  0  0  2  0  0  0  0  0  0
  184.1690  172.4130  137.3480 C   0  0  0  0  0  2  0  0  0  0  0  0
  183.5800  173.1000  136.0700 C   0  0  0  0  0  2  0  0  0  0  0  0
  185.5590  172.8720  137.6050 C   0  0  0  0  0  2  0  0  0  0  0  0
  185.4010  173.3660  134.5340 C   0  0  0  0  0  2  0  0  0  0  0  0
  187.4520  176.3890  135.1660 C   0  0  0  0  0  1  0  0  0  0  0  0
  188.8330  176.2800  135.3990 O   0  0  0  0  0  0  0  0  0  0  0  0
  184.7400  178.9520  141.7060 N   0  0  0  0  0  2  0  0  0  0  0  0
  182.5160  179.0840  138.5880 C   0  0  0  0  0  2  0  0  0  0  0  0
  181.2870  178.4800  139.2260 C   0  0  0  0  0  0  0  0  0  0  0  0
  182.4510  178.4680  141.4840 C   0  0  0  0  0  2  0  0  0  0  0  0
  183.6940  179.3460  139.5630 C   0  0  0  0  0  2  0  0  0  0  0  0
  183.7810  178.4280  140.7820 C   0  0  1  0  0  3  0  0  0  0  0  0
  181.2660  178.1470  140.5100 C   0  0  0  0  0  3  0  0  0  0  0  0
  180.1530  178.0960  138.3660 C   0  0  0  0  0  2  0  0  0  0  0  0
  180.5070  177.3590  137.3160 F   0  0  0  0  0  0  0  0  0  0  0  0
  189.0750  177.2200  146.9830 C   0  0  1  0  0  3  0  0  0  0  0  0
  190.5720  176.7900  146.3140 C   0  0  0  0  0  2  0  0  0  0  0  0
  191.9910  175.9600  147.1230 S   0  0  0  0  0  1  0  0  0  0  0  0
  187.8590  177.6610  149.0190 O   0  0  0  0  0  1  0  0  0  0  0  0
  188.9730  178.0240  148.1990 N   0  0  0  0  0  2  0  0  0  0  0  0
  1  6  2  0  0  0  0
  1  7  1  0  0  0  0
  2  5  1  0  0  0  0
  3 10  1  0  0  0  0
  3 39  1  0  0  0  0
  4  3  2  0  0  0  0
  5  6  1  0  0  0  0
  6  4  1  0  0  0  0
  7 10  2  0  0  0  0
  8 30  1  6  0  0  0
  8  1  1  0  0  0  0
  9  2  2  0  0  0  0
  9  8  1  0  0  0  0
 11 12  1  6  0  0  0
 11  2  1  0  0  0  0
 13 11  1  0  0  0  0
 14 13  1  0  0  0  0
 15 14  2  0  0  0  0
 16 29  1  6  0  0  0
 16 14  1  0  0  0  0
 17 16  1  0  0  0  0
 17 18  1  1  0  0  0
 19 17  1  0  0  0  0
 19 20  1  0  0  0  0
 21 22  1  0  0  0  0
 22 20  1  1  0  0  0
 22 26  1  0  0  0  0
 23 25  1  0  0  0  0
 24 26  1  0  0  0  0
 25 24  1  0  0  0  0
 27 23  1  0  0  0  0
 27 21  1  0  0  0  0
 28 29  1  0  0  0  0
 31 32  1  0  0  0  0
 31 34  1  0  0  0  0
 32 36  2  0  0  0  0
 34 35  1  0  0  0  0
 35 33  1  0  0  0  0
 35 30  1  1  0  0  0
 36 33  1  0  0  0  0
 37 32  1  0  0  0  0
 38 37  1  0  0  0  0
 39 40  1  6  0  0  0
 39 43  1  0  0  0  0
 40 41  1  0  0  0  0
 43 42  1  0  0  0  0
M  END
>  <MODEL>
9

>  <REMARK>
 VINA RESULT:      -7.5      4.358      9.228
  Name = 
  14 active torsions:
  status: ('A' for Active; 'I' for Inactive)
    1  A    between atoms: N_1  and  C_34
    2  A    between atoms: N_1  and  C_35
    3  A    between atoms: C_2  and  N_6
    4  A    between atoms: C_2  and  C_13
    5  A    between atoms: C_3  and  C_4
    6  A    between atoms: C_3  and  C_12
    7  A    between atoms: C_3  and  O_42
    8  A    between atoms: C_4  and  C_22
    9  A    between atoms: C_5  and  C_16
   10  A    between atoms: C_5  and  C_18
   11  A    between atoms: C_5  and  N_23
   12  A    between atoms: C_14  and  C_41
   13  A    between atoms: C_19  and  C_25
   14  A    between atoms: C_22  and  C_41
                            x       y       z     vdW  Elec       q    Type
                         _______ _______ _______ _____ _____    ______ ____

>  <TORSDO>
F 14

$$$$
