=
 OpenBabel10272415283D

 34 39  0  0  1  0  0  0  0  0999 V2000
  187.3910  177.3460  135.8120 C   0  0  1  0  0  3  0  0  0  0  0  0
  183.5250  177.2980  135.5420 C   0  0  0  0  0  2  0  0  0  0  0  0
  185.3670  175.9070  134.3710 C   0  0  0  0  0  2  0  0  0  0  0  0
  188.2710  177.2510  138.1140 N   0  0  0  0  0  0  0  0  0  0  0  0
  188.3450  177.9690  136.8390 C   0  0  0  0  0  2  0  0  0  0  0  0
  187.7930  175.1070  137.0170 C   0  0  2  0  0  3  0  0  0  0  0  0
  186.5060  174.9350  137.6750 N   0  0  0  0  0  1  0  0  0  0  0  0
  188.7430  175.8760  137.9320 C   0  0  0  0  0  2  0  0  0  0  0  0
  186.6190  175.1760  134.7760 C   0  0  0  0  0  0  0  0  0  0  0  0
  187.6490  175.8310  135.6640 C   0  0  1  0  0  3  0  0  0  0  0  0
  186.8200  174.0520  134.3460 O   0  0  0  0  0  0  0  0  0  0  0  0
  182.9710  176.9750  136.9400 C   0  0  0  0  0  2  0  0  0  0  0  0
  184.0180  176.9330  138.0680 C   0  0  1  0  0  3  0  0  0  0  0  0
  184.7550  178.2730  138.2380 C   0  0  0  0  0  2  0  0  0  0  0  0
  184.9840  176.9670  135.3730 C   0  0  0  0  0  0  0  0  0  0  0  0
  185.5130  178.7650  136.9960 C   0  0  0  0  0  2  0  0  0  0  0  0
  185.9280  177.6580  136.0540 C   0  0  0  0  0  0  0  0  0  0  0  0
  183.3860  176.4840  139.3900 C   0  0  0  0  0  3  0  0  0  0  0  0
  182.9520  177.6800  140.2190 C   0  0  0  0  0  1  0  0  0  0  0  0
  182.1620  175.6180  139.1410 C   0  0  0  0  0  1  0  0  0  0  0  0
  189.0850  177.9350  139.1280 C   0  0  0  0  0  2  0  0  0  0  0  0
  188.6490  177.2360  142.7990 N   0  0  0  0  0  0  0  0  0  0  0  0
  187.2910  178.4720  140.7620 N   0  0  0  0  0  0  0  0  0  0  0  0
  185.6380  178.3460  144.5800 C   0  0  0  0  0  0  0  0  0  0  0  0
  186.8910  177.7640  144.3340 C   0  0  0  0  0  3  0  0  0  0  0  0
  187.4410  177.8040  143.0520 C   0  0  0  0  0  0  0  0  0  0  0  0
  185.5050  179.0360  142.2510 C   0  0  0  0  0  3  0  0  0  0  0  0
  186.7440  178.4410  142.0050 C   0  0  0  0  0  0  0  0  0  0  0  0
  184.9570  178.9930  143.5370 C   0  0  0  0  0  3  0  0  0  0  0  0
  188.5000  177.8980  140.5120 C   0  0  0  0  0  0  0  0  0  0  0  0
  189.1920  177.2690  141.5530 C   0  0  0  0  0  3  0  0  0  0  0  0
  185.0650  178.3450  145.9640 C   0  0  1  0  0  3  0  0  0  0  0  0
  186.1170  178.1480  146.9600 C   0  0  0  0  0  2  0  0  0  0  0  0
  185.5860  179.4960  146.7230 N   0  0  0  0  0  2  0  0  0  0  0  0
  1 17  1  0  0  0  0
  1  5  1  1  0  0  0
  2 12  1  0  0  0  0
  3  9  1  0  0  0  0
  3 15  1  0  0  0  0
  4 21  1  0  0  0  0
  5  4  1  0  0  0  0
  6  7  1  1  0  0  0
  6  8  1  0  0  0  0
  8  4  1  0  0  0  0
 10  9  1  1  0  0  0
 10  1  1  0  0  0  0
 10  6  1  0  0  0  0
 11  9  2  0  0  0  0
 12 13  1  0  0  0  0
 13 14  1  0  0  0  0
 13 18  1  1  0  0  0
 15  2  1  0  0  0  0
 15 17  2  0  0  0  0
 16 14  1  0  0  0  0
 17 16  1  0  0  0  0
 18 19  1  0  0  0  0
 20 18  1  0  0  0  0
 21 30  1  0  0  0  0
 22 26  1  0  0  0  0
 23 28  1  0  0  0  0
 25 24  1  0  0  0  0
 26 25  2  0  0  0  0
 27 29  1  0  0  0  0
 28 27  2  0  0  0  0
 28 26  1  0  0  0  0
 29 24  2  0  0  0  0
 30 23  2  0  0  0  0
 30 31  1  0  0  0  0
 31 22  2  0  0  0  0
 32 24  1  6  0  0  0
 32 34  1  0  0  0  0
 32 33  1  0  0  0  0
 34 33  1  0  0  0  0
M  END
>  <MODEL>
1

>  <REMARK>
 VINA RESULT:      -7.1      0.000      0.000
  Name = 
  4 active torsions:
  status: ('A' for Active; 'I' for Inactive)
    1  A    between atoms: C_3  and  C_25
    2  A    between atoms: C_7  and  C_11
    3  A    between atoms: N_8  and  C_18
    4  A    between atoms: C_18  and  C_30
                            x       y       z     vdW  Elec       q    Type
                         _______ _______ _______ _____ _____    ______ ____

>  <TORSDO>
F 4

$$$$
=
 OpenBabel10272415283D

 34 39  0  0  1  0  0  0  0  0999 V2000
  189.3670  178.1320  137.1370 C   0  0  1  0  0  3  0  0  0  0  0  0
  187.8510  175.7540  134.4770 C   0  0  0  0  0  2  0  0  0  0  0  0
  190.2950  176.2940  135.1350 C   0  0  0  0  0  2  0  0  0  0  0  0
  188.4260  177.8880  139.4030 N   0  0  0  0  0  0  0  0  0  0  0  0
  188.7560  178.8480  138.3470 C   0  0  0  0  0  2  0  0  0  0  0  0
  190.2950  176.4110  138.8110 C   0  0  2  0  0  3  0  0  0  0  0  0
  189.4410  175.2720  138.5090 N   0  0  0  0  0  1  0  0  0  0  0  0
  189.6540  177.2640  139.9020 C   0  0  0  0  0  2  0  0  0  0  0  0
  191.0870  176.4320  136.4070 C   0  0  0  0  0  0  0  0  0  0  0  0
  190.5730  177.2640  137.5580 C   0  0  1  0  0  3  0  0  0  0  0  0
  192.1800  175.8950  136.4920 O   0  0  0  0  0  0  0  0  0  0  0  0
  186.9730  174.7350  135.2210 C   0  0  0  0  0  2  0  0  0  0  0  0
  186.7810  175.0050  136.7240 C   0  0  1  0  0  3  0  0  0  0  0  0
  186.1180  176.3670  136.9980 C   0  0  0  0  0  2  0  0  0  0  0  0
  188.8180  176.4900  135.3660 C   0  0  0  0  0  0  0  0  0  0  0  0
  186.8810  177.5860  136.4580 C   0  0  0  0  0  2  0  0  0  0  0  0
  188.3670  177.3580  136.3020 C   0  0  0  0  0  0  0  0  0  0  0  0
  185.9970  173.8700  137.3920 C   0  0  0  0  0  3  0  0  0  0  0  0
  184.5210  174.2140  137.4920 C   0  0  0  0  0  1  0  0  0  0  0  0
  186.1250  172.5800  136.5990 C   0  0  0  0  0  1  0  0  0  0  0  0
  187.7200  178.5640  140.4990 C   0  0  0  0  0  2  0  0  0  0  0  0
  187.5050  177.2130  144.0040 N   0  0  0  0  0  0  0  0  0  0  0  0
  189.4200  178.0920  142.2480 N   0  0  0  0  0  0  0  0  0  0  0  0
  190.5230  176.8060  146.0510 C   0  0  0  0  0  0  0  0  0  0  0  0
  189.1750  176.7840  145.6620 C   0  0  0  0  0  3  0  0  0  0  0  0
  188.8070  177.2200  144.3880 C   0  0  0  0  0  0  0  0  0  0  0  0
  191.1360  177.6760  143.8640 C   0  0  0  0  0  3  0  0  0  0  0  0
  189.7920  177.6700  143.4850 C   0  0  0  0  0  0  0  0  0  0  0  0
  191.5000  177.2400  145.1420 C   0  0  0  0  0  3  0  0  0  0  0  0
  188.1130  178.0860  141.8690 C   0  0  0  0  0  0  0  0  0  0  0  0
  187.1370  177.6360  142.7650 C   0  0  0  0  0  3  0  0  0  0  0  0
  190.9270  176.2970  147.4000 C   0  0  1  0  0  3  0  0  0  0  0  0
  192.2640  175.7070  147.3530 C   0  0  0  0  0  2  0  0  0  0  0  0
  192.0870  177.0580  147.8970 N   0  0  0  0  0  2  0  0  0  0  0  0
  1 10  1  0  0  0  0
  1  5  1  1  0  0  0
  2 12  1  0  0  0  0
  2 15  1  0  0  0  0
  3 15  1  0  0  0  0
  3  9  1  0  0  0  0
  4  8  1  0  0  0  0
  4 21  1  0  0  0  0
  5  4  1  0  0  0  0
  6  7  1  6  0  0  0
  6  8  1  0  0  0  0
  9 11  2  0  0  0  0
 10  9  1  6  0  0  0
 10  6  1  0  0  0  0
 12 13  1  0  0  0  0
 13 14  1  0  0  0  0
 13 18  1  6  0  0  0
 15 17  2  0  0  0  0
 16 14  1  0  0  0  0
 17 16  1  0  0  0  0
 17  1  1  0  0  0  0
 18 19  1  0  0  0  0
 20 18  1  0  0  0  0
 21 30  1  0  0  0  0
 22 26  1  0  0  0  0
 23 28  1  0  0  0  0
 25 24  1  0  0  0  0
 26 25  2  0  0  0  0
 27 29  1  0  0  0  0
 28 27  2  0  0  0  0
 28 26  1  0  0  0  0
 29 24  2  0  0  0  0
 30 23  2  0  0  0  0
 30 31  1  0  0  0  0
 31 22  2  0  0  0  0
 32 24  1  6  0  0  0
 32 34  1  0  0  0  0
 33 32  1  0  0  0  0
 33 34  1  0  0  0  0
M  END
>  <MODEL>
2

>  <REMARK>
 VINA RESULT:      -6.9      2.864      4.179
  Name = 
  4 active torsions:
  status: ('A' for Active; 'I' for Inactive)
    1  A    between atoms: C_3  and  C_25
    2  A    between atoms: C_7  and  C_11
    3  A    between atoms: N_8  and  C_18
    4  A    between atoms: C_18  and  C_30
                            x       y       z     vdW  Elec       q    Type
                         _______ _______ _______ _____ _____    ______ ____

>  <TORSDO>
F 4

$$$$
=
 OpenBabel10272415283D

 34 39  0  0  1  0  0  0  0  0999 V2000
  184.9220  174.9950  134.7520 C   0  0  1  0  0  3  0  0  0  0  0  0
  181.2570  175.1580  136.0050 C   0  0  0  0  0  2  0  0  0  0  0  0
  182.6860  173.2200  135.0560 C   0  0  0  0  0  2  0  0  0  0  0  0
  186.5890  175.9550  136.2960 N   0  0  0  0  0  0  0  0  0  0  0  0
  186.1100  175.9530  134.9120 C   0  0  0  0  0  2  0  0  0  0  0  0
  185.9860  173.5990  136.6350 C   0  0  2  0  0  3  0  0  0  0  0  0
  185.0570  173.8800  137.7200 N   0  0  0  0  0  1  0  0  0  0  0  0
  187.1120  174.6290  136.6370 C   0  0  0  0  0  2  0  0  0  0  0  0
  184.0730  172.6720  135.2620 C   0  0  0  0  0  0  0  0  0  0  0  0
  185.2760  173.5840  135.2670 C   0  0  1  0  0  3  0  0  0  0  0  0
  184.2270  171.4670  135.3860 O   0  0  0  0  0  0  0  0  0  0  0  0
  181.2950  175.6050  137.4760 C   0  0  0  0  0  2  0  0  0  0  0  0
  182.6790  176.0250  138.0000 C   0  0  1  0  0  3  0  0  0  0  0  0
  183.2720  177.2090  137.2160 C   0  0  0  0  0  2  0  0  0  0  0  0
  182.5800  174.6620  135.4840 C   0  0  0  0  0  0  0  0  0  0  0  0
  183.4610  176.9670  135.7110 C   0  0  0  0  0  2  0  0  0  0  0  0
  183.6240  175.5110  135.3410 C   0  0  0  0  0  0  0  0  0  0  0  0
  182.6300  176.3320  139.5010 C   0  0  0  0  0  3  0  0  0  0  0  0
  183.3980  177.6020  139.8220 C   0  0  0  0  0  1  0  0  0  0  0  0
  181.1970  176.5200  139.9710 C   0  0  0  0  0  1  0  0  0  0  0  0
  187.6350  176.9710  136.4690 C   0  0  0  0  0  2  0  0  0  0  0  0
  187.2590  178.4160  139.9220 N   0  0  0  0  0  0  0  0  0  0  0  0
  189.0630  176.9160  138.5020 N   0  0  0  0  0  0  0  0  0  0  0  0
  189.8660  177.9290  142.4580 C   0  0  0  0  0  0  0  0  0  0  0  0
  188.6720  178.3470  141.8520 C   0  0  0  0  0  3  0  0  0  0  0  0
  188.4070  178.0090  140.5230 C   0  0  0  0  0  0  0  0  0  0  0  0
  190.5150  176.8050  140.4010 C   0  0  0  0  0  3  0  0  0  0  0  0
  189.3330  177.2370  139.7930 C   0  0  0  0  0  0  0  0  0  0  0  0
  190.7770  177.1470  141.7310 C   0  0  0  0  0  3  0  0  0  0  0  0
  187.9130  177.3290  137.9020 C   0  0  0  0  0  0  0  0  0  0  0  0
  186.9930  178.0930  138.6290 C   0  0  0  0  0  3  0  0  0  0  0  0
  190.1340  178.2500  143.8970 C   0  0  1  0  0  3  0  0  0  0  0  0
  191.5570  178.1150  144.2020 C   0  0  0  0  0  2  0  0  0  0  0  0
  190.9830  179.4500  143.9930 N   0  0  0  0  0  2  0  0  0  0  0  0
  1  5  1  1  0  0  0
  1 10  1  0  0  0  0
  1 17  1  0  0  0  0
  2 12  1  0  0  0  0
  3  9  1  0  0  0  0
  3 15  1  0  0  0  0
  4 21  1  0  0  0  0
  4  8  1  0  0  0  0
  5  4  1  0  0  0  0
  6  8  1  0  0  0  0
  6  7  1  1  0  0  0
  9 11  2  0  0  0  0
 10  9  1  1  0  0  0
 10  6  1  0  0  0  0
 12 13  1  0  0  0  0
 13 18  1  1  0  0  0
 14 13  1  0  0  0  0
 15  2  1  0  0  0  0
 16 14  1  0  0  0  0
 17 15  2  0  0  0  0
 17 16  1  0  0  0  0
 18 19  1  0  0  0  0
 18 20  1  0  0  0  0
 21 30  1  0  0  0  0
 22 26  1  0  0  0  0
 23 28  1  0  0  0  0
 25 24  1  0  0  0  0
 26 25  2  0  0  0  0
 27 29  1  0  0  0  0
 28 27  2  0  0  0  0
 28 26  1  0  0  0  0
 29 24  2  0  0  0  0
 30 23  2  0  0  0  0
 30 31  1  0  0  0  0
 31 22  2  0  0  0  0
 32 24  1  6  0  0  0
 32 34  1  0  0  0  0
 32 33  1  0  0  0  0
 34 33  1  0  0  0  0
M  END
>  <MODEL>
3

>  <REMARK>
 VINA RESULT:      -6.6      2.515      3.604
  Name = 
  4 active torsions:
  status: ('A' for Active; 'I' for Inactive)
    1  A    between atoms: C_3  and  C_25
    2  A    between atoms: C_7  and  C_11
    3  A    between atoms: N_8  and  C_18
    4  A    between atoms: C_18  and  C_30
                            x       y       z     vdW  Elec       q    Type
                         _______ _______ _______ _____ _____    ______ ____

>  <TORSDO>
F 4

$$$$
=
 OpenBabel10272415283D

 34 39  0  0  1  0  0  0  0  0999 V2000
  189.2460  177.9460  136.8600 C   0  0  1  0  0  3  0  0  0  0  0  0
  188.1290  175.2140  134.3460 C   0  0  0  0  0  2  0  0  0  0  0  0
  190.4660  176.0420  135.0900 C   0  0  0  0  0  2  0  0  0  0  0  0
  188.1840  177.8070  139.0820 N   0  0  0  0  0  0  0  0  0  0  0  0
  188.4940  178.7010  137.9630 C   0  0  0  0  0  2  0  0  0  0  0  0
  190.2160  176.4720  138.7350 C   0  0  2  0  0  3  0  0  0  0  0  0
  189.4900  175.2340  138.4890 N   0  0  0  0  0  1  0  0  0  0  0  0
  189.4290  177.3500  139.7050 C   0  0  0  0  0  2  0  0  0  0  0  0
  191.1580  176.3640  136.3880 C   0  0  0  0  0  0  0  0  0  0  0  0
  190.4950  177.2370  137.4260 C   0  0  1  0  0  3  0  0  0  0  0  0
  192.2870  175.9440  136.5830 O   0  0  0  0  0  0  0  0  0  0  0  0
  187.3010  174.1820  135.1290 C   0  0  0  0  0  2  0  0  0  0  0  0
  186.9870  174.5600  136.5880 C   0  0  1  0  0  3  0  0  0  0  0  0
  186.1870  175.8700  136.6980 C   0  0  0  0  0  2  0  0  0  0  0  0
  188.9650  176.1130  135.2190 C   0  0  0  0  0  0  0  0  0  0  0  0
  186.8690  177.1060  136.0930 C   0  0  0  0  0  2  0  0  0  0  0  0
  188.3770  177.0100  136.0440 C   0  0  0  0  0  0  0  0  0  0  0  0
  186.2680  173.4160  137.3110 C   0  0  0  0  0  3  0  0  0  0  0  0
  184.8160  173.7710  137.5810 C   0  0  0  0  0  1  0  0  0  0  0  0
  186.2930  172.1460  136.4780 C   0  0  0  0  0  1  0  0  0  0  0  0
  187.3500  178.5030  140.0700 C   0  0  0  0  0  2  0  0  0  0  0  0
  189.5000  178.1360  143.1350 N   0  0  0  0  0  0  0  0  0  0  0  0
  186.8460  178.0210  142.4550 N   0  0  0  0  0  0  0  0  0  0  0  0
  188.0070  177.3740  146.3990 C   0  0  0  0  0  0  0  0  0  0  0  0
  188.9690  177.6580  145.4190 C   0  0  0  0  0  3  0  0  0  0  0  0
  188.5780  177.8710  144.0950 C   0  0  0  0  0  0  0  0  0  0  0  0
  186.2520  177.5470  144.7240 C   0  0  0  0  0  3  0  0  0  0  0  0
  187.2130  177.8130  143.7460 C   0  0  0  0  0  0  0  0  0  0  0  0
  186.6490  177.3340  146.0480 C   0  0  0  0  0  3  0  0  0  0  0  0
  187.7740  178.2840  141.4950 C   0  0  0  0  0  0  0  0  0  0  0  0
  189.1280  178.3440  141.8440 C   0  0  0  0  0  3  0  0  0  0  0  0
  188.4180  177.1900  147.8280 C   0  0  1  0  0  3  0  0  0  0  0  0
  189.8710  177.2830  147.9650 C   0  0  0  0  0  2  0  0  0  0  0  0
  189.0320  178.4290  148.3360 N   0  0  0  0  0  2  0  0  0  0  0  0
  1 10  1  0  0  0  0
  1  5  1  1  0  0  0
  2 12  1  0  0  0  0
  2 15  1  0  0  0  0
  3 15  1  0  0  0  0
  3  9  1  0  0  0  0
  4  8  1  0  0  0  0
  4 21  1  0  0  0  0
  5  4  1  0  0  0  0
  6  7  1  6  0  0  0
  6  8  1  0  0  0  0
  9 11  2  0  0  0  0
 10  9  1  6  0  0  0
 10  6  1  0  0  0  0
 12 13  1  0  0  0  0
 13 14  1  0  0  0  0
 13 18  1  6  0  0  0
 15 17  2  0  0  0  0
 16 14  1  0  0  0  0
 17 16  1  0  0  0  0
 17  1  1  0  0  0  0
 18 19  1  0  0  0  0
 20 18  1  0  0  0  0
 21 30  1  0  0  0  0
 22 26  1  0  0  0  0
 23 28  1  0  0  0  0
 25 24  2  0  0  0  0
 26 25  1  0  0  0  0
 27 29  2  0  0  0  0
 28 26  2  0  0  0  0
 28 27  1  0  0  0  0
 29 24  1  0  0  0  0
 30 31  1  0  0  0  0
 30 23  2  0  0  0  0
 31 22  2  0  0  0  0
 32 24  1  6  0  0  0
 32 33  1  0  0  0  0
 32 34  1  0  0  0  0
 33 34  1  0  0  0  0
M  END
>  <MODEL>
4

>  <REMARK>
 VINA RESULT:      -6.5      2.457      3.576
  Name = 
  4 active torsions:
  status: ('A' for Active; 'I' for Inactive)
    1  A    between atoms: C_3  and  C_25
    2  A    between atoms: C_7  and  C_11
    3  A    between atoms: N_8  and  C_18
    4  A    between atoms: C_18  and  C_30
                            x       y       z     vdW  Elec       q    Type
                         _______ _______ _______ _____ _____    ______ ____

>  <TORSDO>
F 4

$$$$
=
 OpenBabel10272415283D

 34 39  0  0  1  0  0  0  0  0999 V2000
  188.1080  175.6510  137.3740 C   0  0  1  0  0  3  0  0  0  0  0  0
  189.2290  172.9780  134.8010 C   0  0  0  0  0  2  0  0  0  0  0  0
  187.2600  174.6570  134.8170 C   0  0  0  0  0  2  0  0  0  0  0  0
  189.8930  177.1750  138.1300 N   0  0  0  0  0  0  0  0  0  0  0  0
  188.8180  176.2860  138.5760 C   0  0  0  0  0  2  0  0  0  0  0  0
  188.6900  177.8000  136.0830 C   0  0  2  0  0  3  0  0  0  0  0  0
  189.7230  177.2930  135.1920 N   0  0  0  0  0  1  0  0  0  0  0  0
  189.3230  178.2970  137.3800 C   0  0  0  0  0  2  0  0  0  0  0  0
  187.0610  176.1170  135.1230 C   0  0  0  0  0  0  0  0  0  0  0  0
  187.6220  176.7310  136.3840 C   0  0  1  0  0  3  0  0  0  0  0  0
  186.4030  176.8040  134.3590 O   0  0  0  0  0  0  0  0  0  0  0  0
  190.6550  173.3400  134.3540 C   0  0  0  0  0  2  0  0  0  0  0  0
  191.3120  174.4980  135.1270 C   0  0  1  0  0  3  0  0  0  0  0  0
  191.4340  174.2070  136.6330 C   0  0  0  0  0  2  0  0  0  0  0  0
  188.4970  174.1050  135.4790 C   0  0  0  0  0  0  0  0  0  0  0  0
  190.1070  173.9340  137.3570 C   0  0  0  0  0  2  0  0  0  0  0  0
  188.9050  174.5600  136.6870 C   0  0  0  0  0  0  0  0  0  0  0  0
  192.6740  174.8600  134.5270 C   0  0  0  0  0  3  0  0  0  0  0  0
  193.4270  175.8240  135.4270 C   0  0  0  0  0  1  0  0  0  0  0  0
  193.5350  173.6200  134.3460 C   0  0  0  0  0  1  0  0  0  0  0  0
  190.6510  177.6730  139.2860 C   0  0  0  0  0  2  0  0  0  0  0  0
  189.8860  176.7240  142.8450 N   0  0  0  0  0  0  0  0  0  0  0  0
  188.6840  178.0390  140.7600 N   0  0  0  0  0  0  0  0  0  0  0  0
  186.6700  177.6090  144.3770 C   0  0  0  0  0  0  0  0  0  0  0  0
  187.9650  177.0900  144.2250 C   0  0  0  0  0  3  0  0  0  0  0  0
  188.6360  177.2310  143.0090 C   0  0  0  0  0  0  0  0  0  0  0  0
  186.7380  178.4420  142.0930 C   0  0  0  0  0  3  0  0  0  0  0  0
  188.0200  177.9080  141.9370 C   0  0  0  0  0  0  0  0  0  0  0  0
  186.0680  178.2970  143.3120 C   0  0  0  0  0  3  0  0  0  0  0  0
  189.9340  177.5260  140.5990 C   0  0  0  0  0  0  0  0  0  0  0  0
  190.5460  176.8570  141.6650 C   0  0  0  0  0  3  0  0  0  0  0  0
  185.9650  177.4990  145.6940 C   0  0  1  0  0  3  0  0  0  0  0  0
  186.7720  178.0800  146.7650 C   0  0  0  0  0  2  0  0  0  0  0  0
  185.6490  178.8430  146.2080 N   0  0  0  0  0  2  0  0  0  0  0  0
  1  5  1  1  0  0  0
  2 15  1  0  0  0  0
  3  9  1  0  0  0  0
  3 15  1  0  0  0  0
  4  5  1  0  0  0  0
  4 21  1  0  0  0  0
  6  7  1  6  0  0  0
  6 10  1  0  0  0  0
  6  8  1  0  0  0  0
  8  4  1  0  0  0  0
 10  9  1  6  0  0  0
 10  1  1  0  0  0  0
 11  9  2  0  0  0  0
 12  2  1  0  0  0  0
 12 13  1  0  0  0  0
 13 18  1  6  0  0  0
 13 14  1  0  0  0  0
 14 16  1  0  0  0  0
 15 17  2  0  0  0  0
 17 16  1  0  0  0  0
 17  1  1  0  0  0  0
 18 19  1  0  0  0  0
 20 18  1  0  0  0  0
 21 30  1  0  0  0  0
 22 26  1  0  0  0  0
 23 28  1  0  0  0  0
 25 24  1  0  0  0  0
 26 25  2  0  0  0  0
 27 29  1  0  0  0  0
 28 27  2  0  0  0  0
 28 26  1  0  0  0  0
 29 24  2  0  0  0  0
 30 23  2  0  0  0  0
 30 31  1  0  0  0  0
 31 22  2  0  0  0  0
 32 24  1  6  0  0  0
 32 34  1  0  0  0  0
 32 33  1  0  0  0  0
 34 33  1  0  0  0  0
M  END
>  <MODEL>
5

>  <REMARK>
 VINA RESULT:      -6.4      2.518      4.979
  Name = 
  4 active torsions:
  status: ('A' for Active; 'I' for Inactive)
    1  A    between atoms: C_3  and  C_25
    2  A    between atoms: C_7  and  C_11
    3  A    between atoms: N_8  and  C_18
    4  A    between atoms: C_18  and  C_30
                            x       y       z     vdW  Elec       q    Type
                         _______ _______ _______ _____ _____    ______ ____

>  <TORSDO>
F 4

$$$$
=
 OpenBabel10272415283D

 34 39  0  0  1  0  0  0  0  0999 V2000
  187.5980  176.9190  135.5130 C   0  0  1  0  0  3  0  0  0  0  0  0
  183.7290  177.1300  135.4310 C   0  0  0  0  0  2  0  0  0  0  0  0
  185.4040  175.4820  134.3460 C   0  0  0  0  0  2  0  0  0  0  0  0
  188.5940  177.0200  137.7670 N   0  0  0  0  0  0  0  0  0  0  0  0
  188.6480  177.5800  136.4150 C   0  0  0  0  0  2  0  0  0  0  0  0
  187.9100  174.8070  136.9530 C   0  0  2  0  0  3  0  0  0  0  0  0
  186.6510  174.8080  137.6840 N   0  0  0  0  0  1  0  0  0  0  0  0
  188.9590  175.6020  137.7260 C   0  0  0  0  0  2  0  0  0  0  0  0
  186.6220  174.7090  134.7760 C   0  0  0  0  0  0  0  0  0  0  0  0
  187.7420  175.3820  135.5320 C   0  0  1  0  0  3  0  0  0  0  0  0
  186.7210  173.5310  134.4710 O   0  0  0  0  0  0  0  0  0  0  0  0
  183.2320  177.0100  136.8810 C   0  0  0  0  0  2  0  0  0  0  0  0
  184.3330  177.0180  137.9560 C   0  0  1  0  0  3  0  0  0  0  0  0
  185.1690  178.3100  137.9340 C   0  0  0  0  0  2  0  0  0  0  0  0
  185.1500  176.6740  135.2330 C   0  0  0  0  0  0  0  0  0  0  0  0
  185.8900  178.5990  136.6090 C   0  0  0  0  0  2  0  0  0  0  0  0
  186.1750  177.3650  135.7850 C   0  0  0  0  0  0  0  0  0  0  0  0
  183.7450  176.7710  139.3490 C   0  0  0  0  0  3  0  0  0  0  0  0
  183.7220  178.0520  140.1650 C   0  0  0  0  0  1  0  0  0  0  0  0
  182.3200  176.2510  139.2530 C   0  0  0  0  0  1  0  0  0  0  0  0
  189.5080  177.7520  138.6550 C   0  0  0  0  0  2  0  0  0  0  0  0
  187.5280  178.2870  141.8090 N   0  0  0  0  0  0  0  0  0  0  0  0
  189.9150  177.1770  141.0380 N   0  0  0  0  0  0  0  0  0  0  0  0
  188.8190  177.1590  145.0540 C   0  0  0  0  0  0  0  0  0  0  0  0
  187.9670  177.7250  144.0930 C   0  0  0  0  0  3  0  0  0  0  0  0
  188.3390  177.7340  142.7470 C   0  0  0  0  0  0  0  0  0  0  0  0
  190.4060  176.5830  143.3030 C   0  0  0  0  0  3  0  0  0  0  0  0
  189.5650  177.1620  142.3510 C   0  0  0  0  0  0  0  0  0  0  0  0
  190.0300  176.5770  144.6510 C   0  0  0  0  0  3  0  0  0  0  0  0
  189.1000  177.7360  140.1020 C   0  0  0  0  0  0  0  0  0  0  0  0
  187.8820  178.3010  140.4970 C   0  0  0  0  0  3  0  0  0  0  0  0
  188.4030  177.1080  146.4920 C   0  0  1  0  0  3  0  0  0  0  0  0
  189.5520  176.8310  147.3540 C   0  0  0  0  0  2  0  0  0  0  0  0
  189.0450  178.2040  147.2390 N   0  0  0  0  0  2  0  0  0  0  0  0
  1 10  1  0  0  0  0
  1 17  1  0  0  0  0
  1  5  1  1  0  0  0
  2 12  1  0  0  0  0
  3  9  1  0  0  0  0
  3 15  1  0  0  0  0
  4 21  1  0  0  0  0
  5  4  1  0  0  0  0
  6  7  1  1  0  0  0
  6  8  1  0  0  0  0
  8  4  1  0  0  0  0
 10  9  1  1  0  0  0
 10  6  1  0  0  0  0
 11  9  2  0  0  0  0
 12 13  1  0  0  0  0
 13 18  1  1  0  0  0
 14 13  1  0  0  0  0
 15  2  1  0  0  0  0
 15 17  2  0  0  0  0
 16 14  1  0  0  0  0
 17 16  1  0  0  0  0
 18 19  1  0  0  0  0
 20 18  1  0  0  0  0
 21 30  1  0  0  0  0
 22 26  1  0  0  0  0
 23 28  1  0  0  0  0
 25 24  2  0  0  0  0
 26 25  1  0  0  0  0
 27 29  2  0  0  0  0
 28 26  2  0  0  0  0
 28 27  1  0  0  0  0
 29 24  1  0  0  0  0
 30 31  1  0  0  0  0
 30 23  2  0  0  0  0
 31 22  2  0  0  0  0
 32 24  1  6  0  0  0
 32 34  1  0  0  0  0
 32 33  1  0  0  0  0
 34 33  1  0  0  0  0
M  END
>  <MODEL>
6

>  <REMARK>
 VINA RESULT:      -6.3      1.486      2.099
  Name = 
  4 active torsions:
  status: ('A' for Active; 'I' for Inactive)
    1  A    between atoms: C_3  and  C_25
    2  A    between atoms: C_7  and  C_11
    3  A    between atoms: N_8  and  C_18
    4  A    between atoms: C_18  and  C_30
                            x       y       z     vdW  Elec       q    Type
                         _______ _______ _______ _____ _____    ______ ____

>  <TORSDO>
F 4

$$$$
=
 OpenBabel10272415283D

 34 39  0  0  1  0  0  0  0  0999 V2000
  189.0790  178.2240  137.0200 C   0  0  1  0  0  3  0  0  0  0  0  0
  186.9870  176.3290  134.3630 C   0  0  0  0  0  2  0  0  0  0  0  0
  189.5400  176.6010  134.6970 C   0  0  0  0  0  2  0  0  0  0  0  0
  188.4530  177.7560  139.3590 N   0  0  0  0  0  0  0  0  0  0  0  0
  188.7150  178.8190  138.3860 C   0  0  0  0  0  2  0  0  0  0  0  0
  190.0770  176.2380  138.3170 C   0  0  2  0  0  3  0  0  0  0  0  0
  189.0890  175.2120  138.0170 N   0  0  0  0  0  1  0  0  0  0  0  0
  189.6790  176.9860  139.5870 C   0  0  0  0  0  2  0  0  0  0  0  0
  190.5150  176.5140  135.8400 C   0  0  0  0  0  0  0  0  0  0  0  0
  190.2480  177.2240  137.1450 C   0  0  1  0  0  3  0  0  0  0  0  0
  191.5560  175.8940  135.6910 O   0  0  0  0  0  0  0  0  0  0  0  0
  186.1360  175.2870  135.1070 C   0  0  0  0  0  2  0  0  0  0  0  0
  186.1870  175.3720  136.6430 C   0  0  1  0  0  3  0  0  0  0  0  0
  185.6970  176.7310  137.1740 C   0  0  0  0  0  2  0  0  0  0  0  0
  188.1350  176.8710  135.1740 C   0  0  0  0  0  0  0  0  0  0  0  0
  186.4820  177.9520  136.6720 C   0  0  0  0  0  2  0  0  0  0  0  0
  187.9030  177.6390  136.2630 C   0  0  0  0  0  0  0  0  0  0  0  0
  185.4080  174.2200  137.2850 C   0  0  0  0  0  3  0  0  0  0  0  0
  184.1520  173.9040  136.4910 C   0  0  0  0  0  1  0  0  0  0  0  0
  186.2530  172.9580  137.3450 C   0  0  0  0  0  1  0  0  0  0  0  0
  187.9760  178.3320  140.6230 C   0  0  0  0  0  2  0  0  0  0  0  0
  191.0350  177.7430  142.7330 N   0  0  0  0  0  0  0  0  0  0  0  0
  188.3080  177.7750  143.0220 N   0  0  0  0  0  0  0  0  0  0  0  0
  190.7310  176.9130  146.2950 C   0  0  0  0  0  0  0  0  0  0  0  0
  191.3060  177.1950  145.0470 C   0  0  0  0  0  3  0  0  0  0  0  0
  190.4910  177.4790  143.9490 C   0  0  0  0  0  0  0  0  0  0  0  0
  188.5150  177.2340  145.3440 C   0  0  0  0  0  3  0  0  0  0  0  0
  189.0890  177.4970  144.0980 C   0  0  0  0  0  0  0  0  0  0  0  0
  189.3350  176.9480  146.4400 C   0  0  0  0  0  3  0  0  0  0  0  0
  188.8580  178.0350  141.8050 C   0  0  0  0  0  0  0  0  0  0  0  0
  190.2490  178.0210  141.6590 C   0  0  0  0  0  3  0  0  0  0  0  0
  191.6030  176.6520  147.4850 C   0  0  1  0  0  3  0  0  0  0  0  0
  191.5870  175.2330  147.8370 C   0  0  0  0  0  2  0  0  0  0  0  0
  192.7300  175.7850  147.1000 N   0  0  0  0  0  2  0  0  0  0  0  0
  1 10  1  0  0  0  0
  1  5  1  1  0  0  0
  2 12  1  0  0  0  0
  2 15  1  0  0  0  0
  3 15  1  0  0  0  0
  3  9  1  0  0  0  0
  4  8  1  0  0  0  0
  4 21  1  0  0  0  0
  5  4  1  0  0  0  0
  6  7  1  6  0  0  0
  6  8  1  0  0  0  0
 10  9  1  6  0  0  0
 10  6  1  0  0  0  0
 11  9  2  0  0  0  0
 12 13  1  0  0  0  0
 13 14  1  0  0  0  0
 13 18  1  1  0  0  0
 15 17  2  0  0  0  0
 16 14  1  0  0  0  0
 17 16  1  0  0  0  0
 17  1  1  0  0  0  0
 18 20  1  0  0  0  0
 19 18  1  0  0  0  0
 21 30  1  0  0  0  0
 22 26  1  0  0  0  0
 23 28  1  0  0  0  0
 24 29  1  0  0  0  0
 25 24  2  0  0  0  0
 26 28  2  0  0  0  0
 26 25  1  0  0  0  0
 27 29  2  0  0  0  0
 28 27  1  0  0  0  0
 30 23  2  0  0  0  0
 31 30  1  0  0  0  0
 31 22  2  0  0  0  0
 32 24  1  6  0  0  0
 32 33  1  0  0  0  0
 34 32  1  0  0  0  0
 34 33  1  0  0  0  0
M  END
>  <MODEL>
7

>  <REMARK>
 VINA RESULT:      -6.2      2.823      3.957
  Name = 
  4 active torsions:
  status: ('A' for Active; 'I' for Inactive)
    1  A    between atoms: C_3  and  C_25
    2  A    between atoms: C_7  and  C_11
    3  A    between atoms: N_8  and  C_18
    4  A    between atoms: C_18  and  C_30
                            x       y       z     vdW  Elec       q    Type
                         _______ _______ _______ _____ _____    ______ ____

>  <TORSDO>
F 4

$$$$
=
 OpenBabel10272415283D

 34 39  0  0  1  0  0  0  0  0999 V2000
  187.4730  174.8700  134.3460 C   0  0  1  0  0  3  0  0  0  0  0  0
  183.7160  175.7970  134.5830 C   0  0  0  0  0  2  0  0  0  0  0  0
  184.9350  173.5260  134.3470 C   0  0  0  0  0  2  0  0  0  0  0  0
  188.9000  175.8700  136.0910 N   0  0  0  0  0  0  0  0  0  0  0  0
  188.7510  175.6610  134.6490 C   0  0  0  0  0  2  0  0  0  0  0  0
  187.8090  173.7380  136.6330 C   0  0  2  0  0  3  0  0  0  0  0  0
  186.7290  174.3580  137.3880 N   0  0  0  0  0  1  0  0  0  0  0  0
  189.0770  174.5770  136.7590 C   0  0  0  0  0  2  0  0  0  0  0  0
  186.1130  172.8380  134.9830 C   0  0  0  0  0  0  0  0  0  0  0  0
  187.4330  173.5530  135.1500 C   0  0  1  0  0  3  0  0  0  0  0  0
  186.0090  171.6730  135.3310 O   0  0  0  0  0  0  0  0  0  0  0  0
  183.5050  176.5160  135.9260 C   0  0  0  0  0  2  0  0  0  0  0  0
  184.7910  176.8320  136.7120 C   0  0  1  0  0  3  0  0  0  0  0  0
  185.7530  177.7400  135.9270 C   0  0  0  0  0  2  0  0  0  0  0  0
  185.0060  175.0240  134.5020 C   0  0  0  0  0  0  0  0  0  0  0  0
  186.2270  177.1800  134.5780 C   0  0  0  0  0  2  0  0  0  0  0  0
  186.1950  175.6710  134.4960 C   0  0  0  0  0  0  0  0  0  0  0  0
  184.4640  177.4340  138.0830 C   0  0  0  0  0  3  0  0  0  0  0  0
  185.5350  178.4220  138.5120 C   0  0  0  0  0  1  0  0  0  0  0  0
  183.1350  178.1690  138.0520 C   0  0  0  0  0  1  0  0  0  0  0  0
  190.0510  176.7410  136.3610 C   0  0  0  0  0  2  0  0  0  0  0  0
  191.8940  176.9280  139.6360 N   0  0  0  0  0  0  0  0  0  0  0  0
  189.3470  177.2850  138.6810 N   0  0  0  0  0  0  0  0  0  0  0  0
  190.1330  177.7930  142.7370 C   0  0  0  0  0  0  0  0  0  0  0  0
  191.1690  177.4470  141.8560 C   0  0  0  0  0  3  0  0  0  0  0  0
  190.9020  177.2730  140.4970 C   0  0  0  0  0  0  0  0  0  0  0  0
  188.5640  177.8180  140.8780 C   0  0  0  0  0  3  0  0  0  0  0  0
  189.5930  177.4570  140.0060 C   0  0  0  0  0  0  0  0  0  0  0  0
  188.8360  177.9910  142.2400 C   0  0  0  0  0  3  0  0  0  0  0  0
  190.3440  176.9360  137.8230 C   0  0  0  0  0  0  0  0  0  0  0  0
  191.6430  176.7560  138.3110 C   0  0  0  0  0  3  0  0  0  0  0  0
  190.4240  178.0240  144.1880 C   0  0  1  0  0  3  0  0  0  0  0  0
  189.1860  178.0640  144.9650 C   0  0  0  0  0  2  0  0  0  0  0  0
  190.0110  176.8500  144.9760 N   0  0  0  0  0  2  0  0  0  0  0  0
  1 17  1  0  0  0  0
  1  5  1  1  0  0  0
  1 10  1  0  0  0  0
  2 12  1  0  0  0  0
  3 15  1  0  0  0  0
  3  9  1  0  0  0  0
  4 21  1  0  0  0  0
  4  8  1  0  0  0  0
  5  4  1  0  0  0  0
  6  8  1  0  0  0  0
  6  7  1  1  0  0  0
  9 11  2  0  0  0  0
 10  9  1  1  0  0  0
 10  6  1  0  0  0  0
 12 13  1  0  0  0  0
 13 18  1  1  0  0  0
 14 13  1  0  0  0  0
 15  2  1  0  0  0  0
 16 14  1  0  0  0  0
 17 15  2  0  0  0  0
 17 16  1  0  0  0  0
 18 19  1  0  0  0  0
 20 18  1  0  0  0  0
 21 30  1  0  0  0  0
 22 26  1  0  0  0  0
 23 28  1  0  0  0  0
 25 24  2  0  0  0  0
 26 25  1  0  0  0  0
 27 29  2  0  0  0  0
 28 26  2  0  0  0  0
 28 27  1  0  0  0  0
 29 24  1  0  0  0  0
 30 31  1  0  0  0  0
 30 23  2  0  0  0  0
 31 22  2  0  0  0  0
 32 24  1  6  0  0  0
 32 33  1  0  0  0  0
 32 34  1  0  0  0  0
 33 34  1  0  0  0  0
M  END
>  <MODEL>
8

>  <REMARK>
 VINA RESULT:      -6.0      2.340      3.281
  Name = 
  4 active torsions:
  status: ('A' for Active; 'I' for Inactive)
    1  A    between atoms: C_3  and  C_25
    2  A    between atoms: C_7  and  C_11
    3  A    between atoms: N_8  and  C_18
    4  A    between atoms: C_18  and  C_30
                            x       y       z     vdW  Elec       q    Type
                         _______ _______ _______ _____ _____    ______ ____

>  <TORSDO>
F 4

$$$$
=
 OpenBabel10272415283D

 34 39  0  0  1  0  0  0  0  0999 V2000
  187.2470  177.3130  135.3160 C   0  0  1  0  0  3  0  0  0  0  0  0
  186.3240  178.7690  138.7890 C   0  0  0  0  0  2  0  0  0  0  0  0
  185.0360  177.2380  137.1470 C   0  0  0  0  0  2  0  0  0  0  0  0
  189.4420  176.1950  135.2110 N   0  0  0  0  0  0  0  0  0  0  0  0
  188.5820  177.1920  134.5710 C   0  0  0  0  0  2  0  0  0  0  0  0
  187.5310  174.8280  135.9240 C   0  0  2  0  0  3  0  0  0  0  0  0
  187.8390  174.9440  137.3420 N   0  0  0  0  0  1  0  0  0  0  0  0
  188.8210  174.8720  135.1090 C   0  0  0  0  0  2  0  0  0  0  0  0
  185.3310  176.0120  136.3240 C   0  0  0  0  0  0  0  0  0  0  0  0
  186.5660  175.9350  135.4590 C   0  0  1  0  0  3  0  0  0  0  0  0
  184.5360  175.0860  136.3270 O   0  0  0  0  0  0  0  0  0  0  0  0
  187.3680  178.2550  139.7940 C   0  0  0  0  0  2  0  0  0  0  0  0
  188.5510  177.4860  139.1780 C   0  0  1  0  0  3  0  0  0  0  0  0
  189.3530  178.3400  138.1810 C   0  0  0  0  0  2  0  0  0  0  0  0
  186.2910  177.9980  137.4960 C   0  0  0  0  0  0  0  0  0  0  0  0
  188.5510  178.8790  136.9870 C   0  0  0  0  0  2  0  0  0  0  0  0
  187.3380  178.0470  136.6390 C   0  0  0  0  0  0  0  0  0  0  0  0
  189.4630  176.9140  140.2680 C   0  0  0  0  0  3  0  0  0  0  0  0
  190.9130  177.2890  140.0150 C   0  0  0  0  0  1  0  0  0  0  0  0
  189.0740  177.4450  141.6370 C   0  0  0  0  0  1  0  0  0  0  0  0
  190.7660  176.1830  134.5730 C   0  0  0  0  0  2  0  0  0  0  0  0
  192.6490  175.1400  137.6580 N   0  0  0  0  0  0  0  0  0  0  0  0
  193.1640  175.7210  135.0280 N   0  0  0  0  0  0  0  0  0  0  0  0
  196.2870  174.6630  137.5700 C   0  0  0  0  0  0  0  0  0  0  0  0
  194.9710  174.7160  138.0530 C   0  0  0  0  0  3  0  0  0  0  0  0
  193.9260  175.0750  137.2000 C   0  0  0  0  0  0  0  0  0  0  0  0
  195.4970  175.3040  135.3600 C   0  0  0  0  0  3  0  0  0  0  0  0
  194.1900  175.3730  135.8470 C   0  0  0  0  0  0  0  0  0  0  0  0
  196.5410  174.9450  136.2180 C   0  0  0  0  0  3  0  0  0  0  0  0
  191.8870  175.7880  135.4930 C   0  0  0  0  0  0  0  0  0  0  0  0
  191.6250  175.4890  136.8350 C   0  0  0  0  0  3  0  0  0  0  0  0
  197.4040  174.2350  138.4700 C   0  0  1  0  0  3  0  0  0  0  0  0
  198.6910  174.3320  137.7820 C   0  0  0  0  0  2  0  0  0  0  0  0
  198.2980  175.3750  138.7380 N   0  0  0  0  0  2  0  0  0  0  0  0
  1  5  1  1  0  0  0
  1 10  1  0  0  0  0
  1 17  1  0  0  0  0
  2 12  1  0  0  0  0
  3 15  1  0  0  0  0
  5  4  1  0  0  0  0
  6  7  1  1  0  0  0
  8  4  1  0  0  0  0
  8  6  1  0  0  0  0
  9 11  2  0  0  0  0
  9  3  1  0  0  0  0
 10  6  1  0  0  0  0
 10  9  1  1  0  0  0
 13 12  1  0  0  0  0
 13 18  1  1  0  0  0
 14 13  1  0  0  0  0
 15  2  1  0  0  0  0
 16 14  1  0  0  0  0
 17 16  1  0  0  0  0
 17 15  2  0  0  0  0
 18 20  1  0  0  0  0
 19 18  1  0  0  0  0
 21  4  1  0  0  0  0
 21 30  1  0  0  0  0
 23 30  2  0  0  0  0
 23 28  1  0  0  0  0
 24 25  1  0  0  0  0
 26 22  1  0  0  0  0
 26 25  2  0  0  0  0
 27 28  2  0  0  0  0
 27 29  1  0  0  0  0
 28 26  1  0  0  0  0
 29 24  2  0  0  0  0
 30 31  1  0  0  0  0
 31 22  2  0  0  0  0
 32 24  1  6  0  0  0
 32 34  1  0  0  0  0
 33 32  1  0  0  0  0
 33 34  1  0  0  0  0
M  END
>  <MODEL>
9

>  <REMARK>
 VINA RESULT:      -6.0      4.568      7.884
  Name = 
  4 active torsions:
  status: ('A' for Active; 'I' for Inactive)
    1  A    between atoms: C_3  and  C_25
    2  A    between atoms: C_7  and  C_11
    3  A    between atoms: N_8  and  C_18
    4  A    between atoms: C_18  and  C_30
                            x       y       z     vdW  Elec       q    Type
                         _______ _______ _______ _____ _____    ______ ____

>  <TORSDO>
F 4

$$$$
