=
 OpenBabel10272400393D

 25 28  0  0  1  0  0  0  0  0999 V2000
  187.4880  177.8910  145.8790 C   0  0  0  0  0  0  0  0  0  0  0  0
  188.8000  177.4560  145.6670 C   0  0  0  0  0  0  0  0  0  0  0  0
  187.8400  178.1450  148.2580 C   0  0  0  0  0  3  0  0  0  0  0  0
  186.4250  178.0860  145.0300 C   0  0  1  0  0  3  0  0  0  0  0  0
  183.9740  178.6640  143.8840 C   0  0  0  0  0  3  0  0  0  0  0  0
  189.1610  177.7030  148.0810 C   0  0  0  0  0  3  0  0  0  0  0  0
  185.3840  178.5290  145.8190 C   0  0  0  0  0  0  0  0  0  0  0  0
  184.1380  178.8290  145.2710 C   0  0  0  0  0  3  0  0  0  0  0  0
  191.0460  176.9020  146.6340 C   0  0  0  0  0  0  0  0  0  0  0  0
  191.8140  176.8270  147.6300 O   0  0  0  0  0  0  0  0  0  0  0  0
  189.2710  177.0440  144.3000 C   0  0  0  0  0  2  0  0  0  0  0  0
  185.0440  178.2110  143.0810 C   0  0  0  0  0  3  0  0  0  0  0  0
  187.0220  178.2290  147.1360 C   0  0  0  0  0  0  0  0  0  0  0  0
  185.7280  178.6250  147.1220 N   0  0  0  0  0  0  0  0  0  0  0  0
  191.5560  176.4840  145.2890 C   0  0  0  0  0  2  0  0  0  0  0  0
  186.2930  177.9140  143.6540 C   0  0  0  0  0  3  0  0  0  0  0  0
  190.7930  177.2000  144.1680 C   0  0  1  0  0  3  0  0  0  0  0  0
  189.6470  177.3520  146.8000 C   0  0  0  0  0  0  0  0  0  0  0  0
  191.2730  176.8790  142.8790 O   0  0  0  0  0  0  0  0  0  0  0  0
  190.2080  176.3950  142.0980 C   0  0  0  0  0  2  0  0  0  0  0  0
  190.0950  177.2010  140.8130 C   0  0  0  0  0  2  0  0  0  0  0  0
  188.7990  178.0000  140.7790 C   0  0  0  0  0  2  0  0  0  0  0  0
  188.2850  178.1510  139.3560 C   0  0  0  0  0  3  0  0  0  0  0  0
  189.0090  179.1490  138.7070 O   0  0  0  0  0  1  0  0  0  0  0  0
  186.9340  178.4960  139.3740 O   0  0  0  0  0  1  0  0  0  0  0  0
  1 13  1  0  0  0  0
  2  1  2  0  0  0  0
  2 18  1  0  0  0  0
  4 16  1  6  0  0  0
  4  7  1  0  0  0  0
  4  1  1  0  0  0  0
  5  8  2  0  0  0  0
  6  3  1  0  0  0  0
  7 14  2  0  0  0  0
  8  7  1  0  0  0  0
  9 18  1  0  0  0  0
  9 10  2  0  0  0  0
 11  2  1  0  0  0  0
 12 16  2  0  0  0  0
 12  5  1  0  0  0  0
 13  3  2  0  0  0  0
 14 13  1  0  0  0  0
 15  9  1  0  0  0  0
 17 19  1  6  0  0  0
 17 11  1  0  0  0  0
 17 15  1  0  0  0  0
 18  6  2  0  0  0  0
 20 19  1  0  0  0  0
 21 20  1  0  0  0  0
 22 21  1  0  0  0  0
 23 25  1  0  0  0  0
 23 22  1  0  0  0  0
 24 23  1  0  0  0  0
M  END
>  <MODEL>
1

>  <REMARK>
 VINA RESULT:     -10.7      0.000      0.000
  Name = 
  5 active torsions:
  status: ('A' for Active; 'I' for Inactive)
    1  A    between atoms: C_2  and  C_21
    2  A    between atoms: O_6  and  C_15
    3  A    between atoms: O_6  and  C_23
    4  A    between atoms: C_15  and  C_25
    5  A    between atoms: C_21  and  C_25
                            x       y       z     vdW  Elec       q    Type
                         _______ _______ _______ _____ _____    ______ ____

>  <TORSDO>
F 5

$$$$
=
 OpenBabel10272400393D

 25 28  0  0  1  0  0  0  0  0999 V2000
  187.3540  177.9530  145.9000 C   0  0  0  0  0  0  0  0  0  0  0  0
  188.6700  177.5260  145.6890 C   0  0  0  0  0  0  0  0  0  0  0  0
  187.7000  178.2020  148.2800 C   0  0  0  0  0  3  0  0  0  0  0  0
  186.2930  178.1450  145.0490 C   0  0  1  0  0  3  0  0  0  0  0  0
  183.8410  178.7130  143.8980 C   0  0  0  0  0  3  0  0  0  0  0  0
  189.0230  177.7680  148.1040 C   0  0  0  0  0  3  0  0  0  0  0  0
  185.2470  178.5790  145.8360 C   0  0  0  0  0  0  0  0  0  0  0  0
  184.0010  178.8740  145.2860 C   0  0  0  0  0  3  0  0  0  0  0  0
  190.9160  176.9820  146.6600 C   0  0  0  0  0  0  0  0  0  0  0  0
  191.6830  176.9080  147.6580 O   0  0  0  0  0  0  0  0  0  0  0  0
  189.1460  177.1210  144.3220 C   0  0  0  0  0  2  0  0  0  0  0  0
  184.9150  178.2680  143.0960 C   0  0  0  0  0  3  0  0  0  0  0  0
  186.8840  178.2840  147.1560 C   0  0  0  0  0  0  0  0  0  0  0  0
  185.5880  178.6730  147.1410 N   0  0  0  0  0  0  0  0  0  0  0  0
  191.4320  176.5700  145.3150 C   0  0  0  0  0  2  0  0  0  0  0  0
  186.1650  177.9770  143.6710 C   0  0  0  0  0  3  0  0  0  0  0  0
  190.6670  177.2860  144.1940 C   0  0  1  0  0  3  0  0  0  0  0  0
  189.5150  177.4230  146.8240 C   0  0  0  0  0  0  0  0  0  0  0  0
  191.1520  176.9710  142.9060 O   0  0  0  0  0  0  0  0  0  0  0  0
  190.0980  176.4600  142.1280 C   0  0  0  0  0  2  0  0  0  0  0  0
  189.9270  177.2920  140.8680 C   0  0  0  0  0  2  0  0  0  0  0  0
  191.0680  177.0480  139.8900 C   0  0  0  0  0  2  0  0  0  0  0  0
  190.5540  176.4800  138.5770 C   0  0  0  0  0  3  0  0  0  0  0  0
  189.1660  176.6050  138.5310 O   0  0  0  0  0  1  0  0  0  0  0  0
  190.9000  175.1330  138.4740 O   0  0  0  0  0  1  0  0  0  0  0  0
  1 13  1  0  0  0  0
  2  1  2  0  0  0  0
  2 18  1  0  0  0  0
  4 16  1  6  0  0  0
  4  7  1  0  0  0  0
  4  1  1  0  0  0  0
  5  8  2  0  0  0  0
  6  3  1  0  0  0  0
  7 14  2  0  0  0  0
  8  7  1  0  0  0  0
  9 18  1  0  0  0  0
  9 10  2  0  0  0  0
 11  2  1  0  0  0  0
 12 16  2  0  0  0  0
 12  5  1  0  0  0  0
 13  3  2  0  0  0  0
 14 13  1  0  0  0  0
 15  9  1  0  0  0  0
 17 19  1  6  0  0  0
 17 11  1  0  0  0  0
 17 15  1  0  0  0  0
 18  6  2  0  0  0  0
 20 19  1  0  0  0  0
 21 20  1  0  0  0  0
 22 21  1  0  0  0  0
 23 22  1  0  0  0  0
 24 23  1  0  0  0  0
 25 23  1  0  0  0  0
M  END
>  <MODEL>
2

>  <REMARK>
 VINA RESULT:     -10.2      1.172      1.418
  Name = 
  5 active torsions:
  status: ('A' for Active; 'I' for Inactive)
    1  A    between atoms: C_2  and  C_21
    2  A    between atoms: O_6  and  C_15
    3  A    between atoms: O_6  and  C_23
    4  A    between atoms: C_15  and  C_25
    5  A    between atoms: C_21  and  C_25
                            x       y       z     vdW  Elec       q    Type
                         _______ _______ _______ _____ _____    ______ ____

>  <TORSDO>
F 5

$$$$
=
 OpenBabel10272400393D

 25 28  0  0  1  0  0  0  0  0999 V2000
  187.1520  177.8420  144.9920 C   0  0  0  0  0  0  0  0  0  0  0  0
  188.3680  177.4240  144.4410 C   0  0  0  0  0  0  0  0  0  0  0  0
  188.0290  177.7890  147.2450 C   0  0  0  0  0  3  0  0  0  0  0  0
  185.9370  178.1550  144.4320 C   0  0  1  0  0  3  0  0  0  0  0  0
  183.3170  178.8990  143.9410 C   0  0  0  0  0  3  0  0  0  0  0  0
  189.2610  177.3590  146.7250 C   0  0  0  0  0  3  0  0  0  0  0  0
  185.1120  178.5050  145.4810 C   0  0  0  0  0  0  0  0  0  0  0  0
  183.7890  178.8840  145.2660 C   0  0  0  0  0  3  0  0  0  0  0  0
  190.7480  176.7280  144.8070 C   0  0  0  0  0  0  0  0  0  0  0  0
  191.7140  176.5200  145.5900 O   0  0  0  0  0  0  0  0  0  0  0  0
  188.5090  177.1850  142.9640 C   0  0  0  0  0  2  0  0  0  0  0  0
  184.1660  178.5410  142.8710 C   0  0  0  0  0  3  0  0  0  0  0  0
  186.9880  178.0220  146.3520 C   0  0  0  0  0  0  0  0  0  0  0  0
  185.7390  178.4310  146.6770 N   0  0  0  0  0  0  0  0  0  0  0  0
  190.9330  176.4790  143.3420 C   0  0  0  0  0  2  0  0  0  0  0  0
  185.4980  178.1610  143.1090 C   0  0  0  0  0  3  0  0  0  0  0  0
  189.9690  177.3400  142.5150 C   0  0  1  0  0  3  0  0  0  0  0  0
  189.4390  177.1680  145.3340 C   0  0  0  0  0  0  0  0  0  0  0  0
  190.1410  177.1800  141.1220 O   0  0  0  0  0  0  0  0  0  0  0  0
  188.9180  177.4300  140.4750 C   0  0  0  0  0  2  0  0  0  0  0  0
  189.1080  178.4710  139.3830 C   0  0  0  0  0  2  0  0  0  0  0  0
  189.4290  177.8120  138.0480 C   0  0  0  0  0  2  0  0  0  0  0  0
  188.3240  178.0620  137.0340 C   0  0  0  0  0  3  0  0  0  0  0  0
  187.8980  179.3860  137.1300 O   0  0  0  0  0  1  0  0  0  0  0  0
  187.2480  177.2110  137.2840 O   0  0  0  0  0  1  0  0  0  0  0  0
  1 13  1  0  0  0  0
  2  1  2  0  0  0  0
  2 18  1  0  0  0  0
  4 16  1  6  0  0  0
  4  1  1  0  0  0  0
  4  7  1  0  0  0  0
  5  8  2  0  0  0  0
  6  3  1  0  0  0  0
  7 14  2  0  0  0  0
  8  7  1  0  0  0  0
  9 18  1  0  0  0  0
  9 10  2  0  0  0  0
 11  2  1  0  0  0  0
 12 16  2  0  0  0  0
 12  5  1  0  0  0  0
 13 14  1  0  0  0  0
 13  3  2  0  0  0  0
 15  9  1  0  0  0  0
 17 19  1  6  0  0  0
 17 11  1  0  0  0  0
 17 15  1  0  0  0  0
 18  6  2  0  0  0  0
 20 19  1  0  0  0  0
 21 20  1  0  0  0  0
 22 21  1  0  0  0  0
 23 24  1  0  0  0  0
 23 25  1  0  0  0  0
 23 22  1  0  0  0  0
M  END
>  <MODEL>
3

>  <REMARK>
 VINA RESULT:      -9.5      1.273      1.644
  Name = 
  5 active torsions:
  status: ('A' for Active; 'I' for Inactive)
    1  A    between atoms: C_2  and  C_21
    2  A    between atoms: O_6  and  C_15
    3  A    between atoms: O_6  and  C_23
    4  A    between atoms: C_15  and  C_25
    5  A    between atoms: C_21  and  C_25
                            x       y       z     vdW  Elec       q    Type
                         _______ _______ _______ _____ _____    ______ ____

>  <TORSDO>
F 5

$$$$
=
 OpenBabel10272400393D

 25 28  0  0  1  0  0  0  0  0999 V2000
  187.1440  178.0290  142.6710 C   0  0  0  0  0  0  0  0  0  0  0  0
  186.5630  178.0110  143.9430 C   0  0  0  0  0  0  0  0  0  0  0  0
  185.3060  179.2860  141.7280 C   0  0  0  0  0  3  0  0  0  0  0  0
  188.3190  177.5140  142.1790 C   0  0  0  0  0  0  0  0  0  0  0  0
  190.4710  176.7480  140.6170 C   0  0  0  0  0  3  0  0  0  0  0  0
  184.6910  179.2780  142.9910 C   0  0  0  0  0  3  0  0  0  0  0  0
  188.3540  177.8520  140.8430 C   0  0  0  0  0  0  0  0  0  0  0  0
  189.4240  177.4820  140.0300 C   0  0  0  0  0  2  0  0  0  0  0  0
  184.6430  178.6580  145.4200 C   0  0  0  0  0  0  0  0  0  0  0  0
  183.5340  179.2370  145.5730 O   0  0  0  0  0  0  0  0  0  0  0  0
  187.2160  177.2850  145.0850 C   0  0  0  0  0  2  0  0  0  0  0  0
  190.4310  176.4050  141.9860 C   0  0  0  0  0  3  0  0  0  0  0  0
  186.5370  178.6500  141.5960 C   0  0  0  0  0  0  0  0  0  0  0  0
  187.2640  178.5540  140.4590 N   0  0  0  0  0  0  0  0  0  0  0  0
  185.2600  177.9490  146.5860 C   0  0  0  0  0  2  0  0  0  0  0  0
  189.3420  176.7890  142.7880 C   0  0  0  0  0  3  0  0  0  0  0  0
  186.7860  177.8760  146.4360 C   0  0  1  0  0  3  0  0  0  0  0  0
  185.3020  178.6420  144.0960 C   0  0  0  0  0  0  0  0  0  0  0  0
  187.4200  177.2610  147.5380 O   0  0  0  0  0  0  0  0  0  0  0  0
  188.2230  178.2100  148.1960 C   0  0  0  0  0  2  0  0  0  0  0  0
  189.6720  178.0610  147.7580 C   0  0  0  0  0  2  0  0  0  0  0  0
  189.9930  176.6140  147.4080 C   0  0  0  0  0  2  0  0  0  0  0  0
  191.4530  176.4560  147.0150 C   0  0  0  0  0  3  0  0  0  0  0  0
  192.2620  176.7760  148.1050 O   0  0  0  0  0  1  0  0  0  0  0  0
  191.7540  177.3060  145.9520 O   0  0  0  0  0  1  0  0  0  0  0  0
  1  2  2  0  0  0  0
  2 18  1  0  0  0  0
  2 11  1  0  0  0  0
  3  6  1  0  0  0  0
  4  1  1  0  0  0  0
  4 16  2  0  0  0  0
  5 12  2  0  0  0  0
  6 18  2  0  0  0  0
  7  4  1  0  0  0  0
  8  5  1  0  0  0  0
  8  7  1  0  0  0  0
  9 10  2  0  0  0  0
  9 15  1  0  0  0  0
 11 17  1  0  0  0  0
 12 16  1  0  0  0  0
 13  3  2  0  0  0  0
 13  1  1  0  0  0  0
 14  7  2  0  0  0  0
 14 13  1  0  0  0  0
 17 15  1  0  0  0  0
 17 19  1  1  0  0  0
 18  9  1  0  0  0  0
 19 20  1  0  0  0  0
 21 20  1  0  0  0  0
 22 21  1  0  0  0  0
 23 22  1  0  0  0  0
 23 24  1  0  0  0  0
 25 23  1  0  0  0  0
M  END
>  <MODEL>
4

>  <REMARK>
 VINA RESULT:      -9.4      2.795      6.461
  Name = 
  5 active torsions:
  status: ('A' for Active; 'I' for Inactive)
    1  A    between atoms: C_2  and  C_21
    2  A    between atoms: O_6  and  C_15
    3  A    between atoms: O_6  and  C_23
    4  A    between atoms: C_15  and  C_25
    5  A    between atoms: C_21  and  C_25
                            x       y       z     vdW  Elec       q    Type
                         _______ _______ _______ _____ _____    ______ ____

>  <TORSDO>
F 5

$$$$
=
 OpenBabel10272400393D

 25 28  0  0  1  0  0  0  0  0999 V2000
  189.5000  177.4390  144.3810 C   0  0  0  0  0  0  0  0  0  0  0  0
  188.4920  177.7270  145.3080 C   0  0  0  0  0  0  0  0  0  0  0  0
  191.0790  176.8500  146.1150 C   0  0  0  0  0  3  0  0  0  0  0  0
  189.5400  177.4870  143.0090 C   0  0  0  0  0  0  0  0  0  0  0  0
  190.2500  177.3710  140.3360 C   0  0  0  0  0  3  0  0  0  0  0  0
  190.0920  177.1390  147.0720 C   0  0  0  0  0  3  0  0  0  0  0  0
  190.8100  177.0860  142.6510 C   0  0  0  0  0  0  0  0  0  0  0  0
  191.1970  177.0170  141.3130 C   0  0  0  0  0  2  0  0  0  0  0  0
  187.7790  177.8680  147.7070 C   0  0  0  0  0  0  0  0  0  0  0  0
  188.0400  177.7200  148.9320 O   0  0  0  0  0  0  0  0  0  0  0  0
  187.1520  178.2420  144.8640 C   0  0  0  0  0  2  0  0  0  0  0  0
  188.9510  177.7810  140.7090 C   0  0  0  0  0  3  0  0  0  0  0  0
  190.7540  177.0110  144.7720 C   0  0  0  0  0  0  0  0  0  0  0  0
  191.5780  176.7860  143.7220 N   0  0  0  0  0  0  0  0  0  0  0  0
  186.4290  178.3810  147.3080 C   0  0  0  0  0  2  0  0  0  0  0  0
  188.5800  177.8430  142.0630 C   0  0  0  0  0  3  0  0  0  0  0  0
  186.0620  177.9110  145.8950 C   0  0  1  0  0  3  0  0  0  0  0  0
  188.8060  177.5820  146.6840 C   0  0  0  0  0  0  0  0  0  0  0  0
  184.7740  178.3260  145.4920 O   0  0  0  0  0  0  0  0  0  0  0  0
  184.8970  179.2730  144.4580 C   0  0  0  0  0  2  0  0  0  0  0  0
  184.2250  178.7570  143.1950 C   0  0  0  0  0  2  0  0  0  0  0  0
  185.0910  179.0160  141.9690 C   0  0  0  0  0  2  0  0  0  0  0  0
  184.3020  178.8050  140.6870 C   0  0  0  0  0  3  0  0  0  0  0  0
  184.6390  179.7980  139.7680 O   0  0  0  0  0  1  0  0  0  0  0  0
  182.9350  178.8670  140.9540 O   0  0  0  0  0  1  0  0  0  0  0  0
  1 13  1  0  0  0  0
  1  2  2  0  0  0  0
  2 18  1  0  0  0  0
  3  6  1  0  0  0  0
  4  1  1  0  0  0  0
  5 12  2  0  0  0  0
  5  8  1  0  0  0  0
  7  4  1  0  0  0  0
  7 14  2  0  0  0  0
  8  7  1  0  0  0  0
  9 10  2  0  0  0  0
 11  2  1  0  0  0  0
 11 17  1  0  0  0  0
 12 16  1  0  0  0  0
 13  3  2  0  0  0  0
 14 13  1  0  0  0  0
 15  9  1  0  0  0  0
 16  4  2  0  0  0  0
 17 19  1  6  0  0  0
 17 15  1  0  0  0  0
 18  6  2  0  0  0  0
 18  9  1  0  0  0  0
 20 19  1  0  0  0  0
 21 20  1  0  0  0  0
 22 21  1  0  0  0  0
 23 25  1  0  0  0  0
 23 22  1  0  0  0  0
 24 23  1  0  0  0  0
M  END
>  <MODEL>
5

>  <REMARK>
 VINA RESULT:      -9.0      2.520      4.934
  Name = 
  5 active torsions:
  status: ('A' for Active; 'I' for Inactive)
    1  A    between atoms: C_2  and  C_21
    2  A    between atoms: O_6  and  C_15
    3  A    between atoms: O_6  and  C_23
    4  A    between atoms: C_15  and  C_25
    5  A    between atoms: C_21  and  C_25
                            x       y       z     vdW  Elec       q    Type
                         _______ _______ _______ _____ _____    ______ ____

>  <TORSDO>
F 5

$$$$
=
 OpenBabel10272400393D

 25 28  0  0  1  0  0  0  0  0999 V2000
  187.8510  177.6650  144.9760 C   0  0  0  0  0  0  0  0  0  0  0  0
  186.6200  178.0700  144.4500 C   0  0  0  0  0  0  0  0  0  0  0  0
  187.0880  177.9330  147.2550 C   0  0  0  0  0  3  0  0  0  0  0  0
  189.0290  177.2720  144.3880 C   0  0  1  0  0  3  0  0  0  0  0  0
  191.6020  176.4150  143.8370 C   0  0  0  0  0  3  0  0  0  0  0  0
  185.8430  178.3520  146.7590 C   0  0  0  0  0  3  0  0  0  0  0  0
  189.8950  176.9880  145.4220 C   0  0  0  0  0  0  0  0  0  0  0  0
  191.1970  176.5540  145.1770 C   0  0  0  0  0  3  0  0  0  0  0  0
  184.2780  178.8610  144.8680 C   0  0  0  0  0  0  0  0  0  0  0  0
  183.3580  179.1620  145.6750 O   0  0  0  0  0  0  0  0  0  0  0  0
  186.4100  178.1880  142.9660 C   0  0  0  0  0  2  0  0  0  0  0  0
  190.7100  176.7060  142.7820 C   0  0  0  0  0  3  0  0  0  0  0  0
  188.0780  177.5950  146.3370 C   0  0  0  0  0  0  0  0  0  0  0  0
  189.3310  177.1800  146.6350 N   0  0  0  0  0  0  0  0  0  0  0  0
  184.0260  178.9920  143.3970 C   0  0  0  0  0  2  0  0  0  0  0  0
  189.4010  177.1420  143.0500 C   0  0  0  0  0  3  0  0  0  0  0  0
  184.9260  178.0370  142.6020 C   0  0  1  0  0  3  0  0  0  0  0  0
  185.6010  178.4300  145.3680 C   0  0  0  0  0  0  0  0  0  0  0  0
  184.6890  178.0840  141.2100 O   0  0  0  0  0  0  0  0  0  0  0  0
  185.8420  178.5650  140.5620 C   0  0  0  0  0  2  0  0  0  0  0  0
  185.6510  178.5190  139.0550 C   0  0  0  0  0  2  0  0  0  0  0  0
  186.9120  178.0270  138.3580 C   0  0  0  0  0  2  0  0  0  0  0  0
  188.1320  178.1890  139.2510 C   0  0  0  0  0  3  0  0  0  0  0  0
  188.9710  179.1650  138.7160 O   0  0  0  0  0  1  0  0  0  0  0  0
  188.8220  176.9810  139.3350 O   0  0  0  0  0  1  0  0  0  0  0  0
  1 13  1  0  0  0  0
  2  1  2  0  0  0  0
  2 18  1  0  0  0  0
  4 16  1  1  0  0  0
  4  1  1  0  0  0  0
  4  7  1  0  0  0  0
  5  8  2  0  0  0  0
  6  3  1  0  0  0  0
  7 14  2  0  0  0  0
  8  7  1  0  0  0  0
  9 18  1  0  0  0  0
  9 10  2  0  0  0  0
 11  2  1  0  0  0  0
 12 16  2  0  0  0  0
 12  5  1  0  0  0  0
 13 14  1  0  0  0  0
 13  3  2  0  0  0  0
 15  9  1  0  0  0  0
 17 19  1  6  0  0  0
 17 11  1  0  0  0  0
 17 15  1  0  0  0  0
 18  6  2  0  0  0  0
 20 19  1  0  0  0  0
 21 20  1  0  0  0  0
 22 21  1  0  0  0  0
 22 23  1  0  0  0  0
 23 25  1  0  0  0  0
 24 23  1  0  0  0  0
M  END
>  <MODEL>
6

>  <REMARK>
 VINA RESULT:      -9.0      2.370      4.964
  Name = 
  5 active torsions:
  status: ('A' for Active; 'I' for Inactive)
    1  A    between atoms: C_2  and  C_21
    2  A    between atoms: O_6  and  C_15
    3  A    between atoms: O_6  and  C_23
    4  A    between atoms: C_15  and  C_25
    5  A    between atoms: C_21  and  C_25
                            x       y       z     vdW  Elec       q    Type
                         _______ _______ _______ _____ _____    ______ ____

>  <TORSDO>
F 5

$$$$
=
 OpenBabel10272400393D

 25 28  0  0  1  0  0  0  0  0999 V2000
  189.3100  177.3850  144.5310 C   0  0  0  0  0  0  0  0  0  0  0  0
  189.1140  177.4570  143.1480 C   0  0  0  0  0  0  0  0  0  0  0  0
  191.6070  176.6720  144.2790 C   0  0  0  0  0  3  0  0  0  0  0  0
  188.4830  177.6320  145.6010 C   0  0  1  0  0  3  0  0  0  0  0  0
  187.3610  177.9610  148.1090 C   0  0  0  0  0  3  0  0  0  0  0  0
  191.4400  176.7250  142.8850 C   0  0  0  0  0  3  0  0  0  0  0  0
  189.2380  177.3910  146.7290 C   0  0  0  0  0  0  0  0  0  0  0  0
  188.7020  177.5480  148.0060 C   0  0  0  0  0  3  0  0  0  0  0  0
  190.0560  177.1700  140.8430 C   0  0  0  0  0  0  0  0  0  0  0  0
  191.0260  176.8840  140.0900 O   0  0  0  0  0  0  0  0  0  0  0  0
  187.7740  177.8200  142.5710 C   0  0  0  0  0  2  0  0  0  0  0  0
  186.5930  178.2070  146.9500 C   0  0  0  0  0  3  0  0  0  0  0  0
  190.5200  177.0070  145.0810 C   0  0  0  0  0  0  0  0  0  0  0  0
  190.4990  177.0040  146.4340 N   0  0  0  0  0  0  0  0  0  0  0  0
  188.7390  177.5290  140.2260 C   0  0  0  0  0  2  0  0  0  0  0  0
  187.1530  178.0430  145.6710 C   0  0  0  0  0  3  0  0  0  0  0  0
  187.9210  178.4230  141.1670 C   0  0  1  0  0  3  0  0  0  0  0  0
  190.2050  177.1070  142.3120 C   0  0  0  0  0  0  0  0  0  0  0  0
  186.6900  178.8330  140.6080 O   0  0  0  0  0  0  0  0  0  0  0  0
  185.7730  179.0820  141.6450 C   0  0  0  0  0  2  0  0  0  0  0  0
  184.3580  178.7850  141.1750 C   0  0  0  0  0  2  0  0  0  0  0  0
  184.3380  178.4200  139.6960 C   0  0  0  0  0  2  0  0  0  0  0  0
  183.4760  179.3900  138.9040 C   0  0  0  0  0  3  0  0  0  0  0  0
  184.1090  180.6310  138.8460 O   0  0  0  0  0  1  0  0  0  0  0  0
  182.2330  179.5330  139.5200 O   0  0  0  0  0  1  0  0  0  0  0  0
  1 13  2  0  0  0  0
  1  4  1  0  0  0  0
  2  1  1  0  0  0  0
  3 13  1  0  0  0  0
  4 16  1  1  0  0  0
  4  7  1  0  0  0  0
  6  3  2  0  0  0  0
  7  8  1  0  0  0  0
  8  5  2  0  0  0  0
  9 18  1  0  0  0  0
 10  9  2  0  0  0  0
 11  2  1  0  0  0  0
 12  5  1  0  0  0  0
 13 14  1  0  0  0  0
 14  7  2  0  0  0  0
 15  9  1  0  0  0  0
 15 17  1  0  0  0  0
 16 12  2  0  0  0  0
 17 19  1  6  0  0  0
 17 11  1  0  0  0  0
 18  6  1  0  0  0  0
 18  2  2  0  0  0  0
 19 20  1  0  0  0  0
 21 20  1  0  0  0  0
 22 21  1  0  0  0  0
 23 25  1  0  0  0  0
 23 22  1  0  0  0  0
 24 23  1  0  0  0  0
M  END
>  <MODEL>
7

>  <REMARK>
 VINA RESULT:      -8.9      2.347      4.836
  Name = 
  5 active torsions:
  status: ('A' for Active; 'I' for Inactive)
    1  A    between atoms: C_2  and  C_21
    2  A    between atoms: O_6  and  C_15
    3  A    between atoms: O_6  and  C_23
    4  A    between atoms: C_15  and  C_25
    5  A    between atoms: C_21  and  C_25
                            x       y       z     vdW  Elec       q    Type
                         _______ _______ _______ _____ _____    ______ ____

>  <TORSDO>
F 5

$$$$
=
 OpenBabel10272400393D

 25 28  0  0  1  0  0  0  0  0999 V2000
  187.2690  177.9610  145.3750 C   0  0  0  0  0  0  0  0  0  0  0  0
  186.4790  178.3350  144.2820 C   0  0  0  0  0  0  0  0  0  0  0  0
  185.4260  178.1840  146.9240 C   0  0  0  0  0  3  0  0  0  0  0  0
  188.5920  177.6080  145.4870 C   0  0  0  0  0  0  0  0  0  0  0  0
  191.1000  176.8300  146.3600 C   0  0  0  0  0  3  0  0  0  0  0  0
  184.6080  178.5720  145.8500 C   0  0  0  0  0  3  0  0  0  0  0  0
  188.8030  177.3390  146.8230 C   0  0  0  0  0  0  0  0  0  0  0  0
  190.0550  176.9450  147.2930 C   0  0  0  0  0  3  0  0  0  0  0  0
  184.2390  179.0540  143.4170 C   0  0  0  0  0  0  0  0  0  0  0  0
  183.0250  179.3210  143.6270 O   0  0  0  0  0  0  0  0  0  0  0  0
  187.0680  178.4620  142.9050 C   0  0  0  0  0  2  0  0  0  0  0  0
  190.8790  177.1060  144.9930 C   0  0  0  0  0  3  0  0  0  0  0  0
  186.7580  177.8840  146.6560 C   0  0  2  0  0  3  0  0  0  0  0  0
  187.6850  177.5020  147.5650 N   0  0  0  0  0  0  0  0  0  0  0  0
  184.7840  179.1920  142.0290 C   0  0  0  0  0  2  0  0  0  0  0  0
  189.6080  177.5020  144.5390 C   0  0  0  0  0  3  0  0  0  0  0  0
  185.9950  178.2710  141.8240 C   0  0  1  0  0  3  0  0  0  0  0  0
  185.1210  178.6570  144.5350 C   0  0  0  0  0  0  0  0  0  0  0  0
  186.5140  178.3250  140.5120 O   0  0  0  0  0  0  0  0  0  0  0  0
  187.9100  178.4830  140.5740 C   0  0  0  0  0  2  0  0  0  0  0  0
  188.5950  177.3890  139.7710 C   0  0  0  0  0  2  0  0  0  0  0  0
  190.0690  177.7080  139.5560 C   0  0  0  0  0  2  0  0  0  0  0  0
  190.8840  177.4020  140.8030 C   0  0  0  0  0  3  0  0  0  0  0  0
  192.2400  177.3960  140.4780 O   0  0  0  0  0  1  0  0  0  0  0  0
  190.5250  176.1540  141.3100 O   0  0  0  0  0  1  0  0  0  0  0  0
  1  4  2  0  0  0  0
  1 13  1  0  0  0  0
  2 18  2  0  0  0  0
  2  1  1  0  0  0  0
  4  7  1  0  0  0  0
  5  8  2  0  0  0  0
  6  3  2  0  0  0  0
  7  8  1  0  0  0  0
  7 14  2  0  0  0  0
  9 10  2  0  0  0  0
  9 18  1  0  0  0  0
 11  2  1  0  0  0  0
 12  5  1  0  0  0  0
 13  3  1  1  0  0  0
 13 14  1  0  0  0  0
 15  9  1  0  0  0  0
 16 12  2  0  0  0  0
 16  4  1  0  0  0  0
 17 19  1  6  0  0  0
 17 15  1  0  0  0  0
 17 11  1  0  0  0  0
 18  6  1  0  0  0  0
 19 20  1  0  0  0  0
 21 20  1  0  0  0  0
 22 21  1  0  0  0  0
 22 23  1  0  0  0  0
 23 25  1  0  0  0  0
 24 23  1  0  0  0  0
M  END
>  <MODEL>
8

>  <REMARK>
 VINA RESULT:      -8.7      1.807      4.934
  Name = 
  5 active torsions:
  status: ('A' for Active; 'I' for Inactive)
    1  A    between atoms: C_2  and  C_21
    2  A    between atoms: O_6  and  C_15
    3  A    between atoms: O_6  and  C_23
    4  A    between atoms: C_15  and  C_25
    5  A    between atoms: C_21  and  C_25
                            x       y       z     vdW  Elec       q    Type
                         _______ _______ _______ _____ _____    ______ ____

>  <TORSDO>
F 5

$$$$
=
 OpenBabel10272400393D

 25 28  0  0  1  0  0  0  0  0999 V2000
  189.3150  177.3890  144.5870 C   0  0  0  0  0  0  0  0  0  0  0  0
  189.0730  177.4540  143.2110 C   0  0  0  0  0  0  0  0  0  0  0  0
  191.6060  176.6890  144.2630 C   0  0  0  0  0  3  0  0  0  0  0  0
  188.5220  177.6370  145.6820 C   0  0  2  0  0  3  0  0  0  0  0  0
  187.4800  177.9710  148.2240 C   0  0  0  0  0  3  0  0  0  0  0  0
  191.3940  176.7350  142.8760 C   0  0  0  0  0  3  0  0  0  0  0  0
  189.3150  177.4050  146.7860 C   0  0  0  0  0  0  0  0  0  0  0  0
  188.8200  177.5660  148.0790 C   0  0  0  0  0  3  0  0  0  0  0  0
  189.9410  177.1620  140.8770 C   0  0  0  0  0  0  0  0  0  0  0  0
  190.8880  176.8780  140.0950 O   0  0  0  0  0  0  0  0  0  0  0  0
  187.7130  177.8060  142.6770 C   0  0  0  0  0  2  0  0  0  0  0  0
  186.6740  178.2070  147.0890 C   0  0  0  0  0  3  0  0  0  0  0  0
  190.5440  177.0210  145.0990 C   0  0  0  0  0  0  0  0  0  0  0  0
  190.5680  177.0240  146.4520 N   0  0  0  0  0  0  0  0  0  0  0  0
  188.6030  177.5100  140.3020 C   0  0  0  0  0  2  0  0  0  0  0  0
  187.1920  178.0400  145.7940 C   0  0  0  0  0  3  0  0  0  0  0  0
  187.8100  178.4040  141.2650 C   0  0  1  0  0  3  0  0  0  0  0  0
  190.1390  177.1070  142.3410 C   0  0  0  0  0  0  0  0  0  0  0  0
  186.5590  178.8030  140.7450 O   0  0  0  0  0  0  0  0  0  0  0  0
  185.7030  179.1380  141.8100 C   0  0  0  0  0  2  0  0  0  0  0  0
  184.3280  178.5290  141.5850 C   0  0  0  0  0  2  0  0  0  0  0  0
  183.4130  178.7890  142.7740 C   0  0  0  0  0  2  0  0  0  0  0  0
  184.2140  178.9880  144.0510 C   0  0  0  0  0  3  0  0  0  0  0  0
  183.3910  178.7640  145.1530 O   0  0  0  0  0  1  0  0  0  0  0  0
  184.7110  180.2900  144.1010 O   0  0  0  0  0  1  0  0  0  0  0  0
  1 13  2  0  0  0  0
  1  4  1  0  0  0  0
  2  1  1  0  0  0  0
  3 13  1  0  0  0  0
  4 16  1  1  0  0  0
  4  7  1  0  0  0  0
  6  3  2  0  0  0  0
  7  8  1  0  0  0  0
  8  5  2  0  0  0  0
  9 18  1  0  0  0  0
 10  9  2  0  0  0  0
 11  2  1  0  0  0  0
 12  5  1  0  0  0  0
 13 14  1  0  0  0  0
 14  7  2  0  0  0  0
 15  9  1  0  0  0  0
 15 17  1  0  0  0  0
 16 12  2  0  0  0  0
 17 19  1  6  0  0  0
 17 11  1  0  0  0  0
 18  6  1  0  0  0  0
 18  2  2  0  0  0  0
 19 20  1  0  0  0  0
 21 20  1  0  0  0  0
 21 22  1  0  0  0  0
 22 23  1  0  0  0  0
 23 25  1  0  0  0  0
 23 24  1  0  0  0  0
M  END
>  <MODEL>
9

>  <REMARK>
 VINA RESULT:      -8.7      2.301      5.188
  Name = 
  5 active torsions:
  status: ('A' for Active; 'I' for Inactive)
    1  A    between atoms: C_2  and  C_21
    2  A    between atoms: O_6  and  C_15
    3  A    between atoms: O_6  and  C_23
    4  A    between atoms: C_15  and  C_25
    5  A    between atoms: C_21  and  C_25
                            x       y       z     vdW  Elec       q    Type
                         _______ _______ _______ _____ _____    ______ ____

>  <TORSDO>
F 5

$$$$
