=
 OpenBabel10272400243D

 31 36  0  0  1  0  0  0  0  0999 V2000
  185.1120  178.2710  143.6840 C   0  0  0  0  0  0  0  0  0  0  0  0
  188.8940  177.6880  143.5140 C   0  0  0  0  0  0  0  0  0  0  0  0
  189.3300  177.4020  144.8390 C   0  0  0  0  0  0  0  0  0  0  0  0
  188.9150  177.1190  147.2270 C   0  0  0  0  0  0  0  0  0  0  0  0
  187.4800  178.0380  143.1510 C   0  0  0  0  0  0  0  0  0  0  0  0
  184.8750  178.8320  142.4280 C   0  0  0  0  0  3  0  0  0  0  0  0
  188.4540  177.3980  145.9380 C   0  0  0  0  0  3  0  0  0  0  0  0
  189.4980  177.9180  141.0460 C   0  0  1  0  0  3  0  0  0  0  0  0
  184.0920  178.1160  144.5600 F   0  0  0  0  0  0  0  0  0  0  0  0
  191.6000  177.1380  144.0220 C   0  0  0  0  0  3  0  0  0  0  0  0
  188.0280  177.1180  148.2950 O   0  0  0  0  0  1  0  0  0  0  0  0
  188.2770  178.7070  140.9280 N   0  0  0  0  0  2  0  0  0  0  0  0
  189.8720  177.6930  142.4850 C   0  0  0  0  0  0  0  0  0  0  0  0
  186.4050  177.8820  144.0420 C   0  0  0  0  0  3  0  0  0  0  0  0
  190.2640  176.8410  147.4420 C   0  0  0  0  0  3  0  0  0  0  0  0
  187.2180  178.5770  141.8750 C   0  0  0  0  0  0  0  0  0  0  0  0
  185.9280  178.9850  141.5250 C   0  0  0  0  0  3  0  0  0  0  0  0
  191.1730  177.4140  142.7660 N   0  0  0  0  0  0  0  0  0  0  0  0
  190.6980  177.1250  145.0780 C   0  0  0  0  0  0  0  0  0  0  0  0
  191.1560  176.8460  146.3690 C   0  0  0  0  0  3  0  0  0  0  0  0
  189.3180  176.5730  140.3530 C   0  0  0  0  0  2  0  0  0  0  0  0
  187.6190  177.2150  135.4250 C   0  0  2  0  0  3  0  0  0  0  0  0
  187.5600  177.4070  137.9160 C   0  0  0  0  0  3  0  0  0  0  0  0
  190.9930  176.5740  137.0990 C   0  0  0  0  0  3  0  0  0  0  0  0
  190.9670  176.3960  138.4830 C   0  0  0  0  0  3  0  0  0  0  0  0
  187.0480  177.9990  134.3470 N   0  0  0  0  0  1  0  0  0  0  0  0
  189.7310  176.6590  138.9590 N   0  0  0  0  0  0  0  0  0  0  0  0
  186.9410  177.5650  136.7390 C   0  0  0  0  0  3  0  0  0  0  0  0
  189.7000  176.9320  136.7630 C   0  0  0  0  0  0  0  0  0  0  0  0
  188.9660  176.9840  137.9090 C   0  0  0  0  0  0  0  0  0  0  0  0
  189.1540  177.3820  135.4440 C   0  0  0  0  0  2  0  0  0  0  0  0
  1 14  1  0  0  0  0
  1  9  1  0  0  0  0
  2  3  1  0  0  0  0
  3 19  2  0  0  0  0
  3  7  1  0  0  0  0
  4 15  1  0  0  0  0
  4 11  1  0  0  0  0
  5  2  1  0  0  0  0
  5 14  2  0  0  0  0
  6  1  2  0  0  0  0
  7  4  2  0  0  0  0
  8 21  1  1  0  0  0
  8 13  1  0  0  0  0
 10 19  1  0  0  0  0
 12  8  1  0  0  0  0
 12 16  1  0  0  0  0
 13 18  1  0  0  0  0
 13  2  2  0  0  0  0
 16  5  1  0  0  0  0
 17 16  2  0  0  0  0
 17  6  1  0  0  0  0
 18 10  2  0  0  0  0
 19 20  1  0  0  0  0
 20 15  2  0  0  0  0
 22 26  1  6  0  0  0
 22 31  1  0  0  0  0
 22 28  1  0  0  0  0
 24 25  2  0  0  0  0
 25 27  1  0  0  0  0
 27 21  1  0  0  0  0
 28 23  2  0  0  0  0
 29 24  1  0  0  0  0
 29 30  2  0  0  0  0
 30 23  1  0  0  0  0
 30 27  1  0  0  0  0
 31 29  1  0  0  0  0
M  END
>  <MODEL>
1

>  <REMARK>
 VINA RESULT:     -10.6      0.000      0.000
  Name = 
  2 active torsions:
  status: ('A' for Active; 'I' for Inactive)
    1  A    between atoms: N_9  and  C_23
    2  A    between atoms: C_15  and  C_23
                            x       y       z     vdW  Elec       q    Type
                         _______ _______ _______ _____ _____    ______ ____

>  <TORSDO>
F 2

$$$$
=
 OpenBabel10272400243D

 31 36  0  0  1  0  0  0  0  0999 V2000
  190.5600  177.2810  147.3050 C   0  0  0  0  0  0  0  0  0  0  0  0
  188.4120  177.4200  144.1360 C   0  0  0  0  0  0  0  0  0  0  0  0
  187.1440  177.9420  144.5170 C   0  0  0  0  0  0  0  0  0  0  0  0
  185.5760  178.7830  146.1880 C   0  0  0  0  0  0  0  0  0  0  0  0
  189.5320  177.1480  145.0980 C   0  0  0  0  0  0  0  0  0  0  0  0
  191.6210  176.4870  146.8710 C   0  0  0  0  0  3  0  0  0  0  0  0
  186.8320  178.2770  145.8460 C   0  0  0  0  0  3  0  0  0  0  0  0
  189.9310  176.5950  142.2610 C   0  0  1  0  0  3  0  0  0  0  0  0
  190.5270  177.7290  148.5830 F   0  0  0  0  0  0  0  0  0  0  0  0
  186.4010  177.7860  142.2120 C   0  0  0  0  0  3  0  0  0  0  0  0
  185.2960  179.1090  147.5080 O   0  0  0  0  0  1  0  0  0  0  0  0
  190.6930  175.9300  143.3120 N   0  0  0  0  0  2  0  0  0  0  0  0
  188.6050  177.0890  142.7690 C   0  0  0  0  0  0  0  0  0  0  0  0
  189.5230  177.6040  146.4260 C   0  0  0  0  0  3  0  0  0  0  0  0
  184.6020  178.9600  145.2050 C   0  0  0  0  0  3  0  0  0  0  0  0
  190.6270  176.3730  144.6660 C   0  0  0  0  0  0  0  0  0  0  0  0
  191.6540  176.0330  145.5510 C   0  0  0  0  0  3  0  0  0  0  0  0
  187.6120  177.2870  141.8630 N   0  0  0  0  0  0  0  0  0  0  0  0
  186.1400  178.1230  143.5340 C   0  0  0  0  0  0  0  0  0  0  0  0
  184.8840  178.6290  143.8790 C   0  0  0  0  0  3  0  0  0  0  0  0
  190.7280  177.7670  141.7010 C   0  0  0  0  0  2  0  0  0  0  0  0
  190.1820  175.6740  136.9150 C   0  0  2  0  0  3  0  0  0  0  0  0
  189.4770  176.8870  138.9840 C   0  0  0  0  0  3  0  0  0  0  0  0
  193.1020  176.8910  139.0570 C   0  0  0  0  0  3  0  0  0  0  0  0
  192.7800  177.3250  140.3440 C   0  0  0  0  0  3  0  0  0  0  0  0
  189.7320  175.7010  135.5360 N   0  0  0  0  0  1  0  0  0  0  0  0
  191.4380  177.3700  140.4940 N   0  0  0  0  0  0  0  0  0  0  0  0
  189.1440  176.3250  137.8140 C   0  0  0  0  0  3  0  0  0  0  0  0
  191.8840  176.6510  138.4480 C   0  0  0  0  0  0  0  0  0  0  0  0
  190.9000  176.9600  139.3380 C   0  0  0  0  0  0  0  0  0  0  0  0
  191.5900  176.2990  137.0240 C   0  0  0  0  0  2  0  0  0  0  0  0
  1  9  1  0  0  0  0
  2  3  1  0  0  0  0
  2  5  1  0  0  0  0
  3  7  1  0  0  0  0
  4 11  1  0  0  0  0
  5 14  1  0  0  0  0
  6  1  1  0  0  0  0
  7  4  2  0  0  0  0
  8 21  1  1  0  0  0
  8 13  1  0  0  0  0
  8 12  1  0  0  0  0
 10 19  1  0  0  0  0
 12 16  1  0  0  0  0
 13  2  2  0  0  0  0
 14  1  2  0  0  0  0
 15  4  1  0  0  0  0
 16  5  2  0  0  0  0
 16 17  1  0  0  0  0
 17  6  2  0  0  0  0
 18 10  2  0  0  0  0
 18 13  1  0  0  0  0
 19 20  1  0  0  0  0
 19  3  2  0  0  0  0
 20 15  2  0  0  0  0
 22 26  1  6  0  0  0
 22 31  1  0  0  0  0
 22 28  1  0  0  0  0
 23 30  1  0  0  0  0
 24 25  2  0  0  0  0
 25 27  1  0  0  0  0
 27 21  1  0  0  0  0
 28 23  2  0  0  0  0
 29 24  1  0  0  0  0
 29 30  2  0  0  0  0
 30 27  1  0  0  0  0
 31 29  1  0  0  0  0
M  END
>  <MODEL>
2

>  <REMARK>
 VINA RESULT:     -10.4      2.170      4.348
  Name = 
  2 active torsions:
  status: ('A' for Active; 'I' for Inactive)
    1  A    between atoms: N_9  and  C_23
    2  A    between atoms: C_15  and  C_23
                            x       y       z     vdW  Elec       q    Type
                         _______ _______ _______ _____ _____    ______ ____

>  <TORSDO>
F 2

$$$$
=
 OpenBabel10272400243D

 31 36  0  0  1  0  0  0  0  0999 V2000
  190.9670  176.9260  146.5900 C   0  0  0  0  0  0  0  0  0  0  0  0
  188.2840  177.3680  143.8920 C   0  0  0  0  0  0  0  0  0  0  0  0
  187.1370  177.9160  144.5340 C   0  0  0  0  0  0  0  0  0  0  0  0
  185.9500  178.7070  146.5140 C   0  0  0  0  0  0  0  0  0  0  0  0
  189.5450  176.9840  144.6100 C   0  0  0  0  0  0  0  0  0  0  0  0
  191.8860  176.1180  145.9190 C   0  0  0  0  0  3  0  0  0  0  0  0
  187.0940  178.1730  145.9140 C   0  0  0  0  0  3  0  0  0  0  0  0
  189.3840  176.6080  141.7210 C   0  0  1  0  0  3  0  0  0  0  0  0
  191.1940  177.2870  147.8750 F   0  0  0  0  0  0  0  0  0  0  0  0
  185.9760  177.9470  142.4020 C   0  0  0  0  0  3  0  0  0  0  0  0
  185.9360  178.9550  147.8800 O   0  0  0  0  0  1  0  0  0  0  0  0
  190.2900  175.8420  142.5700 N   0  0  0  0  0  2  0  0  0  0  0  0
  188.2040  177.1220  142.4960 C   0  0  0  0  0  0  0  0  0  0  0  0
  189.8050  177.3500  145.9410 C   0  0  0  0  0  3  0  0  0  0  0  0
  184.8240  178.9910  145.7430 C   0  0  0  0  0  3  0  0  0  0  0  0
  190.4980  176.1940  143.9360 C   0  0  0  0  0  0  0  0  0  0  0  0
  191.6510  175.7530  144.5930 C   0  0  0  0  0  3  0  0  0  0  0  0
  187.0720  177.4220  141.8050 N   0  0  0  0  0  0  0  0  0  0  0  0
  185.9810  178.2040  143.7670 C   0  0  0  0  0  0  0  0  0  0  0  0
  184.8390  178.7380  144.3700 C   0  0  0  0  0  3  0  0  0  0  0  0
  190.1270  177.7800  141.0920 C   0  0  0  0  0  2  0  0  0  0  0  0
  191.6500  176.0560  136.3700 C   0  0  2  0  0  3  0  0  0  0  0  0
  191.3770  176.0040  138.8540 C   0  0  0  0  0  3  0  0  0  0  0  0
  189.0050  178.4810  137.6800 C   0  0  0  0  0  3  0  0  0  0  0  0
  188.9990  178.6970  139.0590 C   0  0  0  0  0  3  0  0  0  0  0  0
  191.8080  175.0280  135.3580 N   0  0  0  0  0  1  0  0  0  0  0  0
  189.8570  177.8470  139.6620 N   0  0  0  0  0  0  0  0  0  0  0  0
  191.9180  175.4750  137.7480 C   0  0  0  0  0  3  0  0  0  0  0  0
  189.9310  177.4740  137.4820 C   0  0  0  0  0  0  0  0  0  0  0  0
  190.4210  177.1060  138.6990 C   0  0  0  0  0  0  0  0  0  0  0  0
  190.2680  176.7290  136.2280 C   0  0  0  0  0  2  0  0  0  0  0  0
  1  9  1  0  0  0  0
  2  3  1  0  0  0  0
  2  5  1  0  0  0  0
  3  7  1  0  0  0  0
  4 11  1  0  0  0  0
  5 14  2  0  0  0  0
  6  1  2  0  0  0  0
  7  4  2  0  0  0  0
  8 21  1  1  0  0  0
  8 13  1  0  0  0  0
  8 12  1  0  0  0  0
 10 19  1  0  0  0  0
 12 16  1  0  0  0  0
 13  2  2  0  0  0  0
 14  1  1  0  0  0  0
 15  4  1  0  0  0  0
 16 17  2  0  0  0  0
 16  5  1  0  0  0  0
 17  6  1  0  0  0  0
 18 10  2  0  0  0  0
 18 13  1  0  0  0  0
 19 20  1  0  0  0  0
 19  3  2  0  0  0  0
 20 15  2  0  0  0  0
 22 26  1  6  0  0  0
 22 28  1  0  0  0  0
 24 25  2  0  0  0  0
 25 27  1  0  0  0  0
 27 21  1  0  0  0  0
 28 23  2  0  0  0  0
 29 24  1  0  0  0  0
 29 30  2  0  0  0  0
 30 23  1  0  0  0  0
 30 27  1  0  0  0  0
 31 22  1  0  0  0  0
 31 29  1  0  0  0  0
M  END
>  <MODEL>
3

>  <REMARK>
 VINA RESULT:     -10.4      2.259      4.431
  Name = 
  2 active torsions:
  status: ('A' for Active; 'I' for Inactive)
    1  A    between atoms: N_9  and  C_23
    2  A    between atoms: C_15  and  C_23
                            x       y       z     vdW  Elec       q    Type
                         _______ _______ _______ _____ _____    ______ ____

>  <TORSDO>
F 2

$$$$
=
 OpenBabel10272400243D

 31 36  0  0  1  0  0  0  0  0999 V2000
  191.0570  176.9160  146.9330 C   0  0  0  0  0  0  0  0  0  0  0  0
  188.4110  177.2960  144.1900 C   0  0  0  0  0  0  0  0  0  0  0  0
  187.2520  177.8500  144.8050 C   0  0  0  0  0  0  0  0  0  0  0  0
  186.0340  178.6710  146.7530 C   0  0  0  0  0  0  0  0  0  0  0  0
  189.6640  176.9310  144.9320 C   0  0  0  0  0  0  0  0  0  0  0  0
  191.9890  176.1010  146.2900 C   0  0  0  0  0  3  0  0  0  0  0  0
  187.1880  178.1320  146.1800 C   0  0  0  0  0  3  0  0  0  0  0  0
  189.5460  176.5020  142.0480 C   0  0  1  0  0  3  0  0  0  0  0  0
  191.2640  177.3010  148.2150 F   0  0  0  0  0  0  0  0  0  0  0  0
  186.1220  177.8370  142.6570 C   0  0  0  0  0  3  0  0  0  0  0  0
  185.9990  178.9440  148.1140 O   0  0  0  0  0  1  0  0  0  0  0  0
  190.4430  175.7560  142.9240 N   0  0  0  0  0  2  0  0  0  0  0  0
  188.3520  177.0240  142.7980 C   0  0  0  0  0  0  0  0  0  0  0  0
  189.9020  177.3230  146.2600 C   0  0  0  0  0  3  0  0  0  0  0  0
  184.9180  178.9360  145.9610 C   0  0  0  0  0  3  0  0  0  0  0  0
  190.6300  176.1340  144.2870 C   0  0  0  0  0  0  0  0  0  0  0  0
  191.7750  175.7100  144.9680 C   0  0  0  0  0  3  0  0  0  0  0  0
  187.2300  177.3060  142.0850 N   0  0  0  0  0  0  0  0  0  0  0  0
  186.1070  178.1190  144.0170 C   0  0  0  0  0  0  0  0  0  0  0  0
  184.9530  178.6580  144.5940 C   0  0  0  0  0  3  0  0  0  0  0  0
  190.2930  177.6660  141.4090 C   0  0  0  0  0  2  0  0  0  0  0  0
  188.1120  177.3810  136.6400 C   0  0  2  0  0  3  0  0  0  0  0  0
  188.3500  178.1270  139.0130 C   0  0  0  0  0  3  0  0  0  0  0  0
  191.5840  176.7600  138.1070 C   0  0  0  0  0  3  0  0  0  0  0  0
  191.6990  176.8980  139.4910 C   0  0  0  0  0  3  0  0  0  0  0  0
  187.4930  177.9640  135.4640 N   0  0  0  0  0  1  0  0  0  0  0  0
  190.5520  177.3940  140.0020 N   0  0  0  0  0  0  0  0  0  0  0  0
  187.6190  178.0870  137.8920 C   0  0  0  0  0  3  0  0  0  0  0  0
  190.2980  177.1750  137.8140 C   0  0  0  0  0  0  0  0  0  0  0  0
  189.7040  177.5600  138.9780 C   0  0  0  0  0  0  0  0  0  0  0  0
  189.6470  177.3770  136.4820 C   0  0  0  0  0  2  0  0  0  0  0  0
  1  9  1  0  0  0  0
  2  3  1  0  0  0  0
  2  5  1  0  0  0  0
  3  7  1  0  0  0  0
  4 11  1  0  0  0  0
  5 14  1  0  0  0  0
  6  1  1  0  0  0  0
  7  4  2  0  0  0  0
  8 21  1  1  0  0  0
  8 13  1  0  0  0  0
  8 12  1  0  0  0  0
 10 19  1  0  0  0  0
 12 16  1  0  0  0  0
 13  2  2  0  0  0  0
 14  1  2  0  0  0  0
 15  4  1  0  0  0  0
 16  5  2  0  0  0  0
 16 17  1  0  0  0  0
 17  6  2  0  0  0  0
 18 10  2  0  0  0  0
 18 13  1  0  0  0  0
 19 20  1  0  0  0  0
 19  3  2  0  0  0  0
 20 15  2  0  0  0  0
 22 26  1  6  0  0  0
 22 28  1  0  0  0  0
 24 25  2  0  0  0  0
 25 27  1  0  0  0  0
 27 21  1  0  0  0  0
 28 23  2  0  0  0  0
 29 24  1  0  0  0  0
 29 30  2  0  0  0  0
 30 23  1  0  0  0  0
 30 27  1  0  0  0  0
 31 22  1  0  0  0  0
 31 29  1  0  0  0  0
M  END
>  <MODEL>
4

>  <REMARK>
 VINA RESULT:     -10.3      2.033      4.076
  Name = 
  2 active torsions:
  status: ('A' for Active; 'I' for Inactive)
    1  A    between atoms: N_9  and  C_23
    2  A    between atoms: C_15  and  C_23
                            x       y       z     vdW  Elec       q    Type
                         _______ _______ _______ _____ _____    ______ ____

>  <TORSDO>
F 2

$$$$
=
 OpenBabel10272400243D

 31 36  0  0  1  0  0  0  0  0999 V2000
  185.0930  178.2850  143.4560 C   0  0  0  0  0  0  0  0  0  0  0  0
  188.8470  177.7240  142.9380 C   0  0  0  0  0  0  0  0  0  0  0  0
  189.4060  177.4490  144.2190 C   0  0  0  0  0  0  0  0  0  0  0  0
  189.2160  177.1780  146.6370 C   0  0  0  0  0  0  0  0  0  0  0  0
  187.4030  178.0620  142.7060 C   0  0  0  0  0  0  0  0  0  0  0  0
  184.7360  178.8360  142.2250 C   0  0  0  0  0  3  0  0  0  0  0  0
  188.6360  177.4470  145.3940 C   0  0  0  0  0  3  0  0  0  0  0  0
  189.2170  177.9410  140.4240 C   0  0  1  0  0  3  0  0  0  0  0  0
  184.1600  178.1290  144.4240 F   0  0  0  0  0  0  0  0  0  0  0  0
  191.5920  177.1930  143.1950 C   0  0  0  0  0  3  0  0  0  0  0  0
  188.4320  177.1790  147.7820 O   0  0  0  0  0  1  0  0  0  0  0  0
  187.9850  178.7220  140.4150 N   0  0  0  0  0  2  0  0  0  0  0  0
  189.7250  177.7280  141.8230 C   0  0  0  0  0  0  0  0  0  0  0  0
  186.4170  177.9060  143.6940 C   0  0  0  0  0  3  0  0  0  0  0  0
  190.5820  176.9100  146.7270 C   0  0  0  0  0  3  0  0  0  0  0  0
  187.0200  178.5910  141.4580 C   0  0  0  0  0  0  0  0  0  0  0  0
  185.7000  178.9900  141.2260 C   0  0  0  0  0  3  0  0  0  0  0  0
  191.0480  177.4590  141.9840 N   0  0  0  0  0  0  0  0  0  0  0  0
  190.7920  177.1820  144.3310 C   0  0  0  0  0  0  0  0  0  0  0  0
  191.3700  176.9130  145.5750 C   0  0  0  0  0  3  0  0  0  0  0  0
  188.9830  176.5900  139.7580 C   0  0  0  0  0  2  0  0  0  0  0  0
  192.9410  176.1620  136.3330 C   0  0  2  0  0  3  0  0  0  0  0  0
  191.7050  175.7790  138.4710 C   0  0  0  0  0  3  0  0  0  0  0  0
  189.2170  176.9900  136.1290 C   0  0  0  0  0  3  0  0  0  0  0  0
  188.5370  177.0610  137.3450 C   0  0  0  0  0  3  0  0  0  0  0  0
  193.9510  175.4100  135.6120 N   0  0  0  0  0  1  0  0  0  0  0  0
  189.3410  176.6480  138.3480 N   0  0  0  0  0  0  0  0  0  0  0  0
  192.8330  175.6520  137.7610 C   0  0  0  0  0  3  0  0  0  0  0  0
  190.4830  176.5390  136.4550 C   0  0  0  0  0  0  0  0  0  0  0  0
  190.5220  176.3320  137.8010 C   0  0  0  0  0  0  0  0  0  0  0  0
  191.6090  176.1390  135.5540 C   0  0  0  0  0  2  0  0  0  0  0  0
  1 14  1  0  0  0  0
  1  9  1  0  0  0  0
  2  3  1  0  0  0  0
  3 19  2  0  0  0  0
  3  7  1  0  0  0  0
  4 15  1  0  0  0  0
  4 11  1  0  0  0  0
  5  2  1  0  0  0  0
  5 14  2  0  0  0  0
  6  1  2  0  0  0  0
  7  4  2  0  0  0  0
  8 21  1  1  0  0  0
  8 13  1  0  0  0  0
 10 19  1  0  0  0  0
 12  8  1  0  0  0  0
 12 16  1  0  0  0  0
 13 18  1  0  0  0  0
 13  2  2  0  0  0  0
 16  5  1  0  0  0  0
 17 16  2  0  0  0  0
 17  6  1  0  0  0  0
 18 10  2  0  0  0  0
 19 20  1  0  0  0  0
 20 15  2  0  0  0  0
 22 26  1  6  0  0  0
 22 28  1  0  0  0  0
 24 29  1  0  0  0  0
 24 25  2  0  0  0  0
 25 27  1  0  0  0  0
 27 21  1  0  0  0  0
 28 23  2  0  0  0  0
 29 30  2  0  0  0  0
 30 27  1  0  0  0  0
 30 23  1  0  0  0  0
 31 22  1  0  0  0  0
 31 29  1  0  0  0  0
M  END
>  <MODEL>
5

>  <REMARK>
 VINA RESULT:     -10.2      1.321      2.391
  Name = 
  2 active torsions:
  status: ('A' for Active; 'I' for Inactive)
    1  A    between atoms: N_9  and  C_23
    2  A    between atoms: C_15  and  C_23
                            x       y       z     vdW  Elec       q    Type
                         _______ _______ _______ _____ _____    ______ ____

>  <TORSDO>
F 2

$$$$
=
 OpenBabel10272400243D

 31 36  0  0  1  0  0  0  0  0999 V2000
  191.3420  176.2720  137.3810 C   0  0  0  0  0  0  0  0  0  0  0  0
  188.9210  177.6860  139.9910 C   0  0  0  0  0  0  0  0  0  0  0  0
  187.6830  177.9150  139.3270 C   0  0  0  0  0  0  0  0  0  0  0  0
  186.2760  177.9080  137.3330 C   0  0  0  0  0  0  0  0  0  0  0  0
  190.1620  177.1890  139.3080 C   0  0  0  0  0  0  0  0  0  0  0  0
  192.5570  176.3890  138.0570 C   0  0  0  0  0  3  0  0  0  0  0  0
  187.5030  177.6680  137.9560 C   0  0  0  0  0  3  0  0  0  0  0  0
  190.2390  177.7300  142.1740 C   0  0  1  0  0  3  0  0  0  0  0  0
  191.3140  175.7830  136.1190 F   0  0  0  0  0  0  0  0  0  0  0  0
  186.7250  178.7030  141.4140 C   0  0  0  0  0  3  0  0  0  0  0  0
  186.1250  177.6520  135.9770 O   0  0  0  0  0  1  0  0  0  0  0  0
  191.4310  177.7450  141.3330 N   0  0  0  0  0  2  0  0  0  0  0  0
  188.9960  178.0000  141.3740 C   0  0  0  0  0  0  0  0  0  0  0  0
  190.1560  176.6740  138.0010 C   0  0  0  0  0  3  0  0  0  0  0  0
  185.2030  178.4050  138.0710 C   0  0  0  0  0  3  0  0  0  0  0  0
  191.3930  177.2700  139.9890 C   0  0  0  0  0  0  0  0  0  0  0  0
  192.5820  176.8880  139.3600 C   0  0  0  0  0  3  0  0  0  0  0  0
  187.9100  178.4840  142.0320 N   0  0  0  0  0  0  0  0  0  0  0  0
  186.5840  178.4270  140.0590 C   0  0  0  0  0  0  0  0  0  0  0  0
  185.3570  178.6660  139.4340 C   0  0  0  0  0  3  0  0  0  0  0  0
  190.1110  176.3810  142.8710 C   0  0  0  0  0  2  0  0  0  0  0  0
  188.6790  178.0800  147.6300 C   0  0  2  0  0  3  0  0  0  0  0  0
  188.3520  177.2660  145.2900 C   0  0  0  0  0  3  0  0  0  0  0  0
  191.7790  176.4280  146.1280 C   0  0  0  0  0  3  0  0  0  0  0  0
  191.7490  176.2050  144.7510 C   0  0  0  0  0  3  0  0  0  0  0  0
  187.8660  178.0270  148.8310 N   0  0  0  0  0  1  0  0  0  0  0  0
  190.5210  176.4860  144.2640 N   0  0  0  0  0  0  0  0  0  0  0  0
  187.8250  177.7760  146.4100 C   0  0  0  0  0  3  0  0  0  0  0  0
  190.5120  176.8850  146.4420 C   0  0  0  0  0  0  0  0  0  0  0  0
  189.7740  176.8990  145.2970 C   0  0  0  0  0  0  0  0  0  0  0  0
  189.9090  177.1590  147.7830 C   0  0  0  0  0  2  0  0  0  0  0  0
  1 14  2  0  0  0  0
  1  6  1  0  0  0  0
  2 13  1  0  0  0  0
  3  2  2  0  0  0  0
  3 19  1  0  0  0  0
  4  7  2  0  0  0  0
  4 15  1  0  0  0  0
  5 16  2  0  0  0  0
  5  2  1  0  0  0  0
  6 17  2  0  0  0  0
  7  3  1  0  0  0  0
  8 21  1  6  0  0  0
  9  1  1  0  0  0  0
 10 18  1  0  0  0  0
 11  4  1  0  0  0  0
 12  8  1  0  0  0  0
 13 18  2  0  0  0  0
 13  8  1  0  0  0  0
 14  5  1  0  0  0  0
 15 20  2  0  0  0  0
 16 12  1  0  0  0  0
 17 16  1  0  0  0  0
 19 10  2  0  0  0  0
 20 19  1  0  0  0  0
 21 27  1  0  0  0  0
 22 31  1  0  0  0  0
 22 26  1  1  0  0  0
 23 30  1  0  0  0  0
 23 28  2  0  0  0  0
 24 29  1  0  0  0  0
 25 24  2  0  0  0  0
 27 25  1  0  0  0  0
 27 30  1  0  0  0  0
 28 22  1  0  0  0  0
 29 31  1  0  0  0  0
 30 29  2  0  0  0  0
M  END
>  <MODEL>
6

>  <REMARK>
 VINA RESULT:     -10.1      3.645      8.219
  Name = 
  2 active torsions:
  status: ('A' for Active; 'I' for Inactive)
    1  A    between atoms: N_9  and  C_23
    2  A    between atoms: C_15  and  C_23
                            x       y       z     vdW  Elec       q    Type
                         _______ _______ _______ _____ _____    ______ ____

>  <TORSDO>
F 2

$$$$
=
 OpenBabel10272400243D

 31 36  0  0  1  0  0  0  0  0999 V2000
  187.1110  177.5330  146.4830 C   0  0  0  0  0  0  0  0  0  0  0  0
  187.1280  178.1720  142.7060 C   0  0  0  0  0  0  0  0  0  0  0  0
  188.3830  177.7120  142.2130 C   0  0  0  0  0  0  0  0  0  0  0  0
  190.5960  176.7360  142.5380 C   0  0  0  0  0  0  0  0  0  0  0  0
  186.7390  178.1600  144.1550 C   0  0  0  0  0  0  0  0  0  0  0  0
  186.0050  178.2890  146.8730 C   0  0  0  0  0  3  0  0  0  0  0  0
  189.3730  177.1740  143.0520 C   0  0  0  0  0  3  0  0  0  0  0  0
  184.8420  179.1750  142.1850 C   0  0  1  0  0  3  0  0  0  0  0  0
  187.8380  176.8670  147.4110 F   0  0  0  0  0  0  0  0  0  0  0  0
  187.7200  178.3510  139.9670 C   0  0  0  0  0  3  0  0  0  0  0  0
  191.5550  176.2040  143.3890 O   0  0  0  0  0  1  0  0  0  0  0  0
  184.8090  179.5650  143.5900 N   0  0  0  0  0  2  0  0  0  0  0  0
  186.2150  178.7250  141.7700 C   0  0  0  0  0  0  0  0  0  0  0  0
  187.4760  177.4740  145.1350 C   0  0  0  0  0  3  0  0  0  0  0  0
  190.8530  176.8310  141.1710 C   0  0  0  0  0  3  0  0  0  0  0  0
  185.6070  178.8930  144.5630 C   0  0  0  0  0  0  0  0  0  0  0  0
  185.2540  178.9690  145.9140 C   0  0  0  0  0  3  0  0  0  0  0  0
  186.5320  178.7890  140.4500 N   0  0  0  0  0  0  0  0  0  0  0  0
  188.6650  177.8080  140.8290 C   0  0  0  0  0  0  0  0  0  0  0  0
  189.8890  177.3680  140.3170 C   0  0  0  0  0  3  0  0  0  0  0  0
  183.8420  178.0540  141.9310 C   0  0  0  0  0  2  0  0  0  0  0  0
  180.9430  180.4200  138.2460 C   0  0  2  0  0  3  0  0  0  0  0  0
  182.7900  179.0010  139.1520 C   0  0  0  0  0  3  0  0  0  0  0  0
  180.4170  179.3390  141.8720 C   0  0  0  0  0  3  0  0  0  0  0  0
  181.5250  178.7860  142.5150 C   0  0  0  0  0  3  0  0  0  0  0  0
  180.2300  180.4480  136.9820 N   0  0  0  0  0  1  0  0  0  0  0  0
  182.5280  178.6020  141.6290 N   0  0  0  0  0  0  0  0  0  0  0  0
  182.2210  179.6100  138.1040 C   0  0  0  0  0  3  0  0  0  0  0  0
  180.8130  179.5040  140.5580 C   0  0  0  0  0  0  0  0  0  0  0  0
  182.0890  179.0400  140.4410 C   0  0  0  0  0  0  0  0  0  0  0  0
  180.0070  179.9270  139.3700 C   0  0  0  0  0  2  0  0  0  0  0  0
  1  6  1  0  0  0  0
  1  9  1  0  0  0  0
  2  5  1  0  0  0  0
  3  2  1  0  0  0  0
  3  7  1  0  0  0  0
  4  7  2  0  0  0  0
  4 11  1  0  0  0  0
  5 16  2  0  0  0  0
  5 14  1  0  0  0  0
  8 21  1  1  0  0  0
  8 12  1  0  0  0  0
 10 18  2  0  0  0  0
 10 19  1  0  0  0  0
 12 16  1  0  0  0  0
 13  8  1  0  0  0  0
 13  2  2  0  0  0  0
 14  1  2  0  0  0  0
 15  4  1  0  0  0  0
 16 17  1  0  0  0  0
 17  6  2  0  0  0  0
 18 13  1  0  0  0  0
 19  3  2  0  0  0  0
 20 19  1  0  0  0  0
 20 15  2  0  0  0  0
 22 26  1  6  0  0  0
 22 31  1  0  0  0  0
 23 30  1  0  0  0  0
 24 25  2  0  0  0  0
 27 21  1  0  0  0  0
 27 25  1  0  0  0  0
 28 22  1  0  0  0  0
 28 23  2  0  0  0  0
 29 24  1  0  0  0  0
 30 29  2  0  0  0  0
 30 27  1  0  0  0  0
 31 29  1  0  0  0  0
M  END
>  <MODEL>
7

>  <REMARK>
 VINA RESULT:     -10.0      3.526      6.191
  Name = 
  2 active torsions:
  status: ('A' for Active; 'I' for Inactive)
    1  A    between atoms: N_9  and  C_23
    2  A    between atoms: C_15  and  C_23
                            x       y       z     vdW  Elec       q    Type
                         _______ _______ _______ _____ _____    ______ ____

>  <TORSDO>
F 2

$$$$
=
 OpenBabel10272400243D

 31 36  0  0  1  0  0  0  0  0999 V2000
  185.0740  178.2280  143.4640 C   0  0  0  0  0  0  0  0  0  0  0  0
  188.8450  177.7320  143.0110 C   0  0  0  0  0  0  0  0  0  0  0  0
  189.3810  177.4320  144.2960 C   0  0  0  0  0  0  0  0  0  0  0  0
  189.1460  177.0970  146.7020 C   0  0  0  0  0  0  0  0  0  0  0  0
  187.4020  178.0560  142.7580 C   0  0  0  0  0  0  0  0  0  0  0  0
  184.7350  178.8060  142.2400 C   0  0  0  0  0  3  0  0  0  0  0  0
  188.5880  177.3890  145.4550 C   0  0  0  0  0  3  0  0  0  0  0  0
  189.2640  178.0190  140.5120 C   0  0  1  0  0  3  0  0  0  0  0  0
  184.1230  178.0340  144.4090 F   0  0  0  0  0  0  0  0  0  0  0  0
  191.5920  177.2330  143.3120 C   0  0  0  0  0  3  0  0  0  0  0  0
  188.3390  177.0570  147.8300 O   0  0  0  0  0  1  0  0  0  0  0  0
  188.0210  178.7830  140.4970 N   0  0  0  0  0  2  0  0  0  0  0  0
  189.7460  177.7770  141.9150 C   0  0  0  0  0  0  0  0  0  0  0  0
  186.3980  177.8610  143.7210 C   0  0  0  0  0  3  0  0  0  0  0  0
  190.5130  176.8450  146.8140 C   0  0  0  0  0  3  0  0  0  0  0  0
  187.0370  178.6120  141.5150 C   0  0  0  0  0  0  0  0  0  0  0  0
  185.7160  178.9980  141.2670 C   0  0  0  0  0  3  0  0  0  0  0  0
  191.0690  177.5220  142.0970 N   0  0  0  0  0  0  0  0  0  0  0  0
  190.7690  177.1810  144.4300 C   0  0  0  0  0  0  0  0  0  0  0  0
  191.3250  176.8890  145.6790 C   0  0  0  0  0  3  0  0  0  0  0  0
  189.0630  176.6830  139.8070 C   0  0  0  0  0  2  0  0  0  0  0  0
  190.7850  173.4840  136.0150 C   0  0  2  0  0  3  0  0  0  0  0  0
  189.1000  174.6240  137.4650 C   0  0  0  0  0  3  0  0  0  0  0  0
  192.1500  176.5460  137.8470 C   0  0  0  0  0  3  0  0  0  0  0  0
  191.3500  177.0550  138.8710 C   0  0  0  0  0  3  0  0  0  0  0  0
  190.7390  172.9210  134.6780 N   0  0  0  0  0  1  0  0  0  0  0  0
  190.1550  176.4270  138.8790 N   0  0  0  0  0  0  0  0  0  0  0  0
  189.3750  173.6970  136.5390 C   0  0  0  0  0  3  0  0  0  0  0  0
  191.3840  175.5580  137.2560 C   0  0  0  0  0  0  0  0  0  0  0  0
  190.1810  175.5180  137.8950 C   0  0  0  0  0  0  0  0  0  0  0  0
  191.6590  174.7570  136.0220 C   0  0  0  0  0  2  0  0  0  0  0  0
  1 14  1  0  0  0  0
  1  9  1  0  0  0  0
  2  3  1  0  0  0  0
  3 19  2  0  0  0  0
  3  7  1  0  0  0  0
  4 15  1  0  0  0  0
  4 11  1  0  0  0  0
  5  2  1  0  0  0  0
  5 14  2  0  0  0  0
  6  1  2  0  0  0  0
  7  4  2  0  0  0  0
  8 21  1  1  0  0  0
  8 13  1  0  0  0  0
 10 19  1  0  0  0  0
 12  8  1  0  0  0  0
 12 16  1  0  0  0  0
 13 18  1  0  0  0  0
 13  2  2  0  0  0  0
 16  5  1  0  0  0  0
 17 16  2  0  0  0  0
 17  6  1  0  0  0  0
 18 10  2  0  0  0  0
 19 20  1  0  0  0  0
 20 15  2  0  0  0  0
 22 26  1  6  0  0  0
 22 31  1  0  0  0  0
 22 28  1  0  0  0  0
 23 30  1  0  0  0  0
 24 25  2  0  0  0  0
 25 27  1  0  0  0  0
 27 21  1  0  0  0  0
 28 23  2  0  0  0  0
 29 24  1  0  0  0  0
 29 30  2  0  0  0  0
 30 27  1  0  0  0  0
 31 29  1  0  0  0  0
M  END
>  <MODEL>
8

>  <REMARK>
 VINA RESULT:      -9.9      1.719      2.015
  Name = 
  2 active torsions:
  status: ('A' for Active; 'I' for Inactive)
    1  A    between atoms: N_9  and  C_23
    2  A    between atoms: C_15  and  C_23
                            x       y       z     vdW  Elec       q    Type
                         _______ _______ _______ _____ _____    ______ ____

>  <TORSDO>
F 2

$$$$
=
 OpenBabel10272400243D

 31 36  0  0  1  0  0  0  0  0999 V2000
  186.8020  177.5310  146.3100 C   0  0  0  0  0  0  0  0  0  0  0  0
  187.1740  178.1070  142.5420 C   0  0  0  0  0  0  0  0  0  0  0  0
  188.4610  177.6240  142.1730 C   0  0  0  0  0  0  0  0  0  0  0  0
  190.6220  176.6270  142.7140 C   0  0  0  0  0  0  0  0  0  0  0  0
  186.6530  178.1230  143.9500 C   0  0  0  0  0  0  0  0  0  0  0  0
  185.6760  178.3070  146.5870 C   0  0  0  0  0  3  0  0  0  0  0  0
  189.3630  177.0880  143.1080 C   0  0  0  0  0  3  0  0  0  0  0  0
  184.9580  179.1290  141.7980 C   0  0  1  0  0  3  0  0  0  0  0  0
  187.4330  176.8720  147.3110 F   0  0  0  0  0  0  0  0  0  0  0  0
  188.0160  178.2340  139.8660 C   0  0  0  0  0  3  0  0  0  0  0  0
  191.4920  176.0980  143.6570 O   0  0  0  0  0  1  0  0  0  0  0  0
  184.8020  179.5420  143.1880 N   0  0  0  0  0  2  0  0  0  0  0  0
  186.3570  178.6550  141.5180 C   0  0  0  0  0  0  0  0  0  0  0  0
  187.2880  177.4450  145.0030 C   0  0  0  0  0  3  0  0  0  0  0  0
  191.0050  176.6960  141.3750 C   0  0  0  0  0  3  0  0  0  0  0  0
  185.4980  178.8770  144.2400 C   0  0  0  0  0  0  0  0  0  0  0  0
  185.0250  178.9800  145.5510 C   0  0  0  0  0  3  0  0  0  0  0  0
  186.7950  178.6930  140.2310 N   0  0  0  0  0  0  0  0  0  0  0  0
  188.8700  177.6930  140.8190 C   0  0  0  0  0  0  0  0  0  0  0  0
  190.1300  177.2310  140.4280 C   0  0  0  0  0  3  0  0  0  0  0  0
  183.9710  178.0150  141.4710 C   0  0  0  0  0  2  0  0  0  0  0  0
  181.5970  175.8680  137.3070 C   0  0  2  0  0  3  0  0  0  0  0  0
  182.4490  175.9890  139.6540 C   0  0  0  0  0  3  0  0  0  0  0  0
  182.4240  179.4140  138.4640 C   0  0  0  0  0  3  0  0  0  0  0  0
  183.1540  179.5180  139.6490 C   0  0  0  0  0  3  0  0  0  0  0  0
  180.5210  175.1320  136.6690 N   0  0  0  0  0  1  0  0  0  0  0  0
  183.2710  178.3030  140.2280 N   0  0  0  0  0  0  0  0  0  0  0  0
  181.9050  175.2640  138.6670 C   0  0  0  0  0  3  0  0  0  0  0  0
  182.1300  178.0680  138.3450 C   0  0  0  0  0  0  0  0  0  0  0  0
  182.6470  177.4260  139.4300 C   0  0  0  0  0  0  0  0  0  0  0  0
  181.2560  177.3730  137.3490 C   0  0  0  0  0  2  0  0  0  0  0  0
  1  6  1  0  0  0  0
  1  9  1  0  0  0  0
  2  5  1  0  0  0  0
  3  2  1  0  0  0  0
  3  7  1  0  0  0  0
  4  7  2  0  0  0  0
  4 11  1  0  0  0  0
  5 16  2  0  0  0  0
  5 14  1  0  0  0  0
  8 21  1  1  0  0  0
  8 12  1  0  0  0  0
 10 18  2  0  0  0  0
 10 19  1  0  0  0  0
 12 16  1  0  0  0  0
 13  8  1  0  0  0  0
 13  2  2  0  0  0  0
 14  1  2  0  0  0  0
 15  4  1  0  0  0  0
 16 17  1  0  0  0  0
 17  6  2  0  0  0  0
 18 13  1  0  0  0  0
 19  3  2  0  0  0  0
 20 19  1  0  0  0  0
 20 15  2  0  0  0  0
 22 26  1  1  0  0  0
 22 31  1  0  0  0  0
 22 28  1  0  0  0  0
 24 25  2  0  0  0  0
 25 27  1  0  0  0  0
 27 21  1  0  0  0  0
 28 23  2  0  0  0  0
 29 24  1  0  0  0  0
 29 30  2  0  0  0  0
 30 23  1  0  0  0  0
 30 27  1  0  0  0  0
 31 29  1  0  0  0  0
M  END
>  <MODEL>
9

>  <REMARK>
 VINA RESULT:      -9.8      3.526      5.483
  Name = 
  2 active torsions:
  status: ('A' for Active; 'I' for Inactive)
    1  A    between atoms: N_9  and  C_23
    2  A    between atoms: C_15  and  C_23
                            x       y       z     vdW  Elec       q    Type
                         _______ _______ _______ _____ _____    ______ ____

>  <TORSDO>
F 2

$$$$
