=
 OpenBabel10272400473D

 25 27  0  0  1  0  0  0  0  0999 V2000
  188.9470  177.4900  145.1160 C   0  0  0  0  0  0  0  0  0  0  0  0
  187.5830  177.8430  145.0280 C   0  0  0  0  0  0  0  0  0  0  0  0
  188.7900  177.5410  147.5430 C   0  0  0  0  0  3  0  0  0  0  0  0
  187.4370  177.8690  147.4600 C   0  0  0  0  0  3  0  0  0  0  0  0
  185.4720  178.3730  146.1080 C   0  0  0  0  0  0  0  0  0  0  0  0
  184.6910  178.5480  147.2450 O   0  0  0  0  0  1  0  0  0  0  0  0
  186.9890  178.0400  143.8180 N   0  0  0  0  0  0  0  0  0  0  0  0
  189.5390  177.3580  146.3800 C   0  0  0  0  0  3  0  0  0  0  0  0
  184.8970  178.5510  144.8500 C   0  0  0  0  0  3  0  0  0  0  0  0
  185.6800  178.3870  143.7050 C   0  0  0  0  0  0  0  0  0  0  0  0
  186.8260  178.0250  146.2100 C   0  0  0  0  0  0  0  0  0  0  0  0
  189.7890  177.2760  143.9180 C   0  0  0  0  0  0  0  0  0  0  0  0
  191.2310  177.4910  142.1720 C   0  0  0  0  0  3  0  0  0  0  0  0
  189.6340  176.2360  142.9190 C   0  0  0  0  0  0  0  0  0  0  0  0
  190.5660  176.4220  141.8650 N   0  0  0  0  0  0  0  0  0  0  0  0
  191.2150  179.3520  144.0140 C   0  0  0  0  0  1  0  0  0  0  0  0
  188.8040  175.2900  142.9620 O   0  0  0  0  0  0  0  0  0  0  0  0
  190.7630  178.0490  143.4480 C   0  0  0  0  0  0  0  0  0  0  0  0
  185.0690  178.5560  142.3590 C   0  0  0  0  0  2  0  0  0  0  0  0
  183.6860  178.3070  142.4310 O   0  0  0  0  0  0  0  0  0  0  0  0
  183.0790  178.6860  141.2110 C   0  0  2  0  0  3  0  0  0  0  0  0
  181.5610  178.5390  141.2320 C   0  0  0  0  0  1  0  0  0  0  0  0
  183.6990  178.0190  139.9850 C   0  0  0  0  0  2  0  0  0  0  0  0
  183.7640  179.0000  138.8310 C   0  0  0  0  0  2  0  0  0  0  0  0
  184.4550  180.1420  139.2320 O   0  0  0  0  0  1  0  0  0  0  0  0
  1  8  1  0  0  0  0
  2  1  2  0  0  0  0
  2 11  1  0  0  0  0
  4  3  1  0  0  0  0
  5 11  1  0  0  0  0
  5  6  1  0  0  0  0
  7  2  1  0  0  0  0
  8  3  2  0  0  0  0
  9  5  2  0  0  0  0
 10  7  2  0  0  0  0
 10  9  1  0  0  0  0
 11  4  2  0  0  0  0
 12  1  1  0  0  0  0
 13 18  1  0  0  0  0
 14 17  2  0  0  0  0
 14 12  1  0  0  0  0
 15 13  2  0  0  0  0
 15 14  1  0  0  0  0
 18 12  2  0  0  0  0
 18 16  1  0  0  0  0
 19 20  1  0  0  0  0
 19 10  1  0  0  0  0
 21 22  1  1  0  0  0
 21 20  1  0  0  0  0
 23 21  1  0  0  0  0
 24 25  1  0  0  0  0
 24 23  1  0  0  0  0
M  END
>  <MODEL>
1

>  <REMARK>
 VINA RESULT:      -8.7      0.000      0.000
  Name = 
  6 active torsions:
  status: ('A' for Active; 'I' for Inactive)
    1  A    between atoms: C_1  and  C_5
    2  A    between atoms: C_2  and  C_12
    3  A    between atoms: C_6  and  O_15
    4  A    between atoms: C_6  and  C_23
    5  A    between atoms: C_12  and  C_21
    6  A    between atoms: O_15  and  C_21
                            x       y       z     vdW  Elec       q    Type
                         _______ _______ _______ _____ _____    ______ ____

>  <TORSDO>
F 6

$$$$
=
 OpenBabel10272400473D

 25 27  0  0  1  0  0  0  0  0999 V2000
  188.8990  177.5290  145.1360 C   0  0  0  0  0  0  0  0  0  0  0  0
  187.5280  177.8580  145.0630 C   0  0  0  0  0  0  0  0  0  0  0  0
  188.7810  177.6400  147.5640 C   0  0  0  0  0  3  0  0  0  0  0  0
  187.4210  177.9440  147.4950 C   0  0  0  0  0  3  0  0  0  0  0  0
  185.4270  178.3810  146.1640 C   0  0  0  0  0  0  0  0  0  0  0  0
  184.6620  178.5730  147.3100 O   0  0  0  0  0  1  0  0  0  0  0  0
  186.9110  178.0150  143.8580 N   0  0  0  0  0  0  0  0  0  0  0  0
  189.5140  177.4390  146.3920 C   0  0  0  0  0  3  0  0  0  0  0  0
  184.8280  178.5180  144.9110 C   0  0  0  0  0  3  0  0  0  0  0  0
  185.5940  178.3380  143.7580 C   0  0  0  0  0  0  0  0  0  0  0  0
  186.7880  178.0570  146.2520 C   0  0  0  0  0  0  0  0  0  0  0  0
  189.7240  177.2980  143.9300 C   0  0  0  0  0  0  0  0  0  0  0  0
  191.1470  177.4870  142.1650 C   0  0  0  0  0  3  0  0  0  0  0  0
  189.5480  176.2510  142.9420 C   0  0  0  0  0  0  0  0  0  0  0  0
  190.4690  176.4210  141.8750 N   0  0  0  0  0  0  0  0  0  0  0  0
  191.1690  179.3620  143.9910 C   0  0  0  0  0  1  0  0  0  0  0  0
  188.7110  175.3130  143.0020 O   0  0  0  0  0  0  0  0  0  0  0  0
  190.6990  178.0590  143.4410 C   0  0  0  0  0  0  0  0  0  0  0  0
  184.9580  178.4620  142.4190 C   0  0  0  0  0  2  0  0  0  0  0  0
  185.7740  179.2400  141.5770 O   0  0  0  0  0  0  0  0  0  0  0  0
  186.2780  178.4290  140.5340 C   0  0  2  0  0  3  0  0  0  0  0  0
  187.8000  178.4460  140.4510 C   0  0  0  0  0  1  0  0  0  0  0  0
  185.6310  178.7020  139.1780 C   0  0  0  0  0  2  0  0  0  0  0  0
  184.2350  179.2620  139.3670 C   0  0  0  0  0  2  0  0  0  0  0  0
  184.2110  180.5960  138.9640 O   0  0  0  0  0  1  0  0  0  0  0  0
  1  8  1  0  0  0  0
  2  1  2  0  0  0  0
  2 11  1  0  0  0  0
  4  3  1  0  0  0  0
  5 11  1  0  0  0  0
  5  6  1  0  0  0  0
  7  2  1  0  0  0  0
  8  3  2  0  0  0  0
  9  5  2  0  0  0  0
 10  7  2  0  0  0  0
 10  9  1  0  0  0  0
 11  4  2  0  0  0  0
 12  1  1  0  0  0  0
 13 18  1  0  0  0  0
 14 17  2  0  0  0  0
 14 12  1  0  0  0  0
 15 13  2  0  0  0  0
 15 14  1  0  0  0  0
 18 12  2  0  0  0  0
 18 16  1  0  0  0  0
 19 10  1  0  0  0  0
 20 19  1  0  0  0  0
 21 22  1  6  0  0  0
 21 20  1  0  0  0  0
 23 24  1  0  0  0  0
 23 21  1  0  0  0  0
 25 24  1  0  0  0  0
M  END
>  <MODEL>
2

>  <REMARK>
 VINA RESULT:      -8.6      1.032      1.577
  Name = 
  6 active torsions:
  status: ('A' for Active; 'I' for Inactive)
    1  A    between atoms: C_1  and  C_5
    2  A    between atoms: C_2  and  C_12
    3  A    between atoms: C_6  and  O_15
    4  A    between atoms: C_6  and  C_23
    5  A    between atoms: C_12  and  C_21
    6  A    between atoms: O_15  and  C_21
                            x       y       z     vdW  Elec       q    Type
                         _______ _______ _______ _____ _____    ______ ____

>  <TORSDO>
F 6

$$$$
=
 OpenBabel10272400473D

 25 27  0  0  1  0  0  0  0  0999 V2000
  188.8760  177.5400  145.1050 C   0  0  0  0  0  0  0  0  0  0  0  0
  187.5040  177.8670  145.0400 C   0  0  0  0  0  0  0  0  0  0  0  0
  188.7710  177.6440  147.5340 C   0  0  0  0  0  3  0  0  0  0  0  0
  187.4100  177.9460  147.4730 C   0  0  0  0  0  3  0  0  0  0  0  0
  185.4080  178.3850  146.1540 C   0  0  0  0  0  0  0  0  0  0  0  0
  184.6490  178.5720  147.3040 O   0  0  0  0  0  1  0  0  0  0  0  0
  186.8800  178.0270  143.8390 N   0  0  0  0  0  0  0  0  0  0  0  0
  189.4970  177.4470  146.3580 C   0  0  0  0  0  3  0  0  0  0  0  0
  184.8020  178.5240  144.9050 C   0  0  0  0  0  3  0  0  0  0  0  0
  185.5630  178.3480  143.7480 C   0  0  0  0  0  0  0  0  0  0  0  0
  186.7700  178.0620  146.2340 C   0  0  0  0  0  0  0  0  0  0  0  0
  189.6940  177.3130  143.8940 C   0  0  0  0  0  0  0  0  0  0  0  0
  191.1120  177.5070  142.1250 C   0  0  0  0  0  3  0  0  0  0  0  0
  189.5070  176.2760  142.8970 C   0  0  0  0  0  0  0  0  0  0  0  0
  190.4250  176.4480  141.8290 N   0  0  0  0  0  0  0  0  0  0  0  0
  191.1560  179.3650  143.9680 C   0  0  0  0  0  1  0  0  0  0  0  0
  188.6630  175.3440  142.9520 O   0  0  0  0  0  0  0  0  0  0  0  0
  190.6730  178.0710  143.4080 C   0  0  0  0  0  0  0  0  0  0  0  0
  184.9190  178.4760  142.4120 C   0  0  0  0  0  2  0  0  0  0  0  0
  185.6870  179.3250  141.5950 O   0  0  0  0  0  0  0  0  0  0  0  0
  185.4190  179.0360  140.2370 C   0  0  2  0  0  3  0  0  0  0  0  0
  184.0420  178.4170  140.0210 C   0  0  0  0  0  1  0  0  0  0  0  0
  186.5200  178.2270  139.5540 C   0  0  0  0  0  2  0  0  0  0  0  0
  187.8380  178.4240  140.2750 C   0  0  0  0  0  2  0  0  0  0  0  0
  188.8000  178.8710  139.3700 O   0  0  0  0  0  1  0  0  0  0  0  0
  1  8  1  0  0  0  0
  2  1  2  0  0  0  0
  2 11  1  0  0  0  0
  4  3  1  0  0  0  0
  5 11  1  0  0  0  0
  5  6  1  0  0  0  0
  7  2  1  0  0  0  0
  8  3  2  0  0  0  0
  9  5  2  0  0  0  0
 10  7  2  0  0  0  0
 10  9  1  0  0  0  0
 11  4  2  0  0  0  0
 12  1  1  0  0  0  0
 13 18  1  0  0  0  0
 14 17  2  0  0  0  0
 14 12  1  0  0  0  0
 15 13  2  0  0  0  0
 15 14  1  0  0  0  0
 18 12  2  0  0  0  0
 18 16  1  0  0  0  0
 19 10  1  0  0  0  0
 20 19  1  0  0  0  0
 21 22  1  1  0  0  0
 21 20  1  0  0  0  0
 23 21  1  0  0  0  0
 23 24  1  0  0  0  0
 25 24  1  0  0  0  0
M  END
>  <MODEL>
3

>  <REMARK>
 VINA RESULT:      -8.6      1.429      1.648
  Name = 
  6 active torsions:
  status: ('A' for Active; 'I' for Inactive)
    1  A    between atoms: C_1  and  C_5
    2  A    between atoms: C_2  and  C_12
    3  A    between atoms: C_6  and  O_15
    4  A    between atoms: C_6  and  C_23
    5  A    between atoms: C_12  and  C_21
    6  A    between atoms: O_15  and  C_21
                            x       y       z     vdW  Elec       q    Type
                         _______ _______ _______ _____ _____    ______ ____

>  <TORSDO>
F 6

$$$$
=
 OpenBabel10272400473D

 25 27  0  0  1  0  0  0  0  0999 V2000
  188.2740  177.6730  144.8610 C   0  0  0  0  0  0  0  0  0  0  0  0
  186.9830  178.0740  144.4550 C   0  0  0  0  0  0  0  0  0  0  0  0
  187.6000  177.9100  147.1870 C   0  0  0  0  0  3  0  0  0  0  0  0
  186.3160  178.2850  146.7880 C   0  0  0  0  0  3  0  0  0  0  0  0
  184.7210  178.7670  145.0100 C   0  0  0  0  0  0  0  0  0  0  0  0
  183.7240  179.0570  145.9350 O   0  0  0  0  0  1  0  0  0  0  0  0
  186.6750  178.2050  143.1330 N   0  0  0  0  0  0  0  0  0  0  0  0
  188.5710  177.6110  146.2290 C   0  0  0  0  0  3  0  0  0  0  0  0
  184.4420  178.8750  143.6470 C   0  0  0  0  0  3  0  0  0  0  0  0
  185.4420  178.5950  142.7150 C   0  0  0  0  0  0  0  0  0  0  0  0
  186.0000  178.3720  145.4280 C   0  0  0  0  0  0  0  0  0  0  0  0
  189.3410  177.3380  143.8920 C   0  0  0  0  0  0  0  0  0  0  0  0
  191.1190  177.3730  142.4740 C   0  0  0  0  0  3  0  0  0  0  0  0
  189.3720  176.2030  142.9890 C   0  0  0  0  0  0  0  0  0  0  0  0
  190.5070  176.2800  142.1410 N   0  0  0  0  0  0  0  0  0  0  0  0
  190.7650  179.4080  144.0820 C   0  0  0  0  0  1  0  0  0  0  0  0
  188.5290  175.2690  142.9490 O   0  0  0  0  0  0  0  0  0  0  0  0
  190.4090  178.0570  143.5630 C   0  0  0  0  0  0  0  0  0  0  0  0
  185.1470  178.6890  141.2590 C   0  0  0  0  0  2  0  0  0  0  0  0
  186.3480  178.8060  140.5380 O   0  0  0  0  0  0  0  0  0  0  0  0
  186.0770  178.6850  139.1550 C   0  0  2  0  0  3  0  0  0  0  0  0
  184.6840  178.1350  138.8680 C   0  0  0  0  0  1  0  0  0  0  0  0
  187.1570  177.9300  138.3830 C   0  0  0  0  0  2  0  0  0  0  0  0
  188.5130  178.1580  139.0210 C   0  0  0  0  0  2  0  0  0  0  0  0
  189.5100  178.0120  138.0580 O   0  0  0  0  0  1  0  0  0  0  0  0
  1  8  1  0  0  0  0
  2  1  2  0  0  0  0
  2 11  1  0  0  0  0
  4  3  1  0  0  0  0
  5 11  1  0  0  0  0
  5  6  1  0  0  0  0
  7  2  1  0  0  0  0
  8  3  2  0  0  0  0
  9  5  2  0  0  0  0
 10  7  2  0  0  0  0
 10  9  1  0  0  0  0
 11  4  2  0  0  0  0
 12  1  1  0  0  0  0
 13 18  1  0  0  0  0
 14 12  1  0  0  0  0
 15 13  2  0  0  0  0
 15 14  1  0  0  0  0
 17 14  2  0  0  0  0
 18 12  2  0  0  0  0
 18 16  1  0  0  0  0
 19 10  1  0  0  0  0
 20 19  1  0  0  0  0
 21 22  1  1  0  0  0
 21 20  1  0  0  0  0
 23 24  1  0  0  0  0
 23 21  1  0  0  0  0
 25 24  1  0  0  0  0
M  END
>  <MODEL>
4

>  <REMARK>
 VINA RESULT:      -8.1      1.875      2.251
  Name = 
  6 active torsions:
  status: ('A' for Active; 'I' for Inactive)
    1  A    between atoms: C_1  and  C_5
    2  A    between atoms: C_2  and  C_12
    3  A    between atoms: C_6  and  O_15
    4  A    between atoms: C_6  and  C_23
    5  A    between atoms: C_12  and  C_21
    6  A    between atoms: O_15  and  C_21
                            x       y       z     vdW  Elec       q    Type
                         _______ _______ _______ _____ _____    ______ ____

>  <TORSDO>
F 6

$$$$
=
 OpenBabel10272400473D

 25 27  0  0  1  0  0  0  0  0999 V2000
  188.9470  177.7270  145.1500 C   0  0  0  0  0  0  0  0  0  0  0  0
  187.5610  177.9950  145.1150 C   0  0  0  0  0  0  0  0  0  0  0  0
  188.8570  177.6550  147.5800 C   0  0  0  0  0  3  0  0  0  0  0  0
  187.4830  177.8980  147.5480 C   0  0  0  0  0  3  0  0  0  0  0  0
  185.4530  178.3370  146.2730 C   0  0  0  0  0  0  0  0  0  0  0  0
  184.6960  178.4090  147.4370 O   0  0  0  0  0  1  0  0  0  0  0  0
  186.9210  178.2100  143.9310 N   0  0  0  0  0  0  0  0  0  0  0  0
  189.5820  177.5740  146.3900 C   0  0  0  0  0  3  0  0  0  0  0  0
  184.8320  178.5360  145.0400 C   0  0  0  0  0  3  0  0  0  0  0  0
  185.5900  178.4760  143.8690 C   0  0  0  0  0  0  0  0  0  0  0  0
  186.8290  178.0720  146.3240 C   0  0  0  0  0  0  0  0  0  0  0  0
  189.7650  177.6230  143.9220 C   0  0  0  0  0  0  0  0  0  0  0  0
  190.8340  176.9250  142.0390 C   0  0  0  0  0  3  0  0  0  0  0  0
  190.8360  178.5120  143.5120 C   0  0  0  0  0  0  0  0  0  0  0  0
  191.4540  178.0260  142.3300 N   0  0  0  0  0  0  0  0  0  0  0  0
  188.9750  175.3900  143.0610 C   0  0  0  0  0  1  0  0  0  0  0  0
  191.1820  179.5710  144.0990 O   0  0  0  0  0  0  0  0  0  0  0  0
  189.7770  176.6460  143.0200 C   0  0  0  0  0  0  0  0  0  0  0  0
  184.9310  178.6680  142.5490 C   0  0  0  0  0  2  0  0  0  0  0  0
  183.5410  178.7940  142.7260 O   0  0  0  0  0  0  0  0  0  0  0  0
  182.9140  178.8790  141.4610 C   0  0  2  0  0  3  0  0  0  0  0  0
  181.4800  178.3610  141.4730 C   0  0  0  0  0  1  0  0  0  0  0  0
  183.7330  178.2610  140.3290 C   0  0  0  0  0  2  0  0  0  0  0  0
  183.6480  179.1290  139.0890 C   0  0  0  0  0  2  0  0  0  0  0  0
  184.7830  179.9340  139.0070 O   0  0  0  0  0  1  0  0  0  0  0  0
  1  8  1  0  0  0  0
  2  1  2  0  0  0  0
  2 11  1  0  0  0  0
  4  3  1  0  0  0  0
  5 11  1  0  0  0  0
  5  6  1  0  0  0  0
  7  2  1  0  0  0  0
  8  3  2  0  0  0  0
  9  5  2  0  0  0  0
 10  7  2  0  0  0  0
 10  9  1  0  0  0  0
 11  4  2  0  0  0  0
 12  1  1  0  0  0  0
 13 15  2  0  0  0  0
 13 18  1  0  0  0  0
 14 12  1  0  0  0  0
 14 17  2  0  0  0  0
 15 14  1  0  0  0  0
 18 16  1  0  0  0  0
 18 12  2  0  0  0  0
 19 20  1  0  0  0  0
 19 10  1  0  0  0  0
 21 22  1  1  0  0  0
 21 20  1  0  0  0  0
 23 21  1  0  0  0  0
 24 23  1  0  0  0  0
 25 24  1  0  0  0  0
M  END
>  <MODEL>
5

>  <REMARK>
 VINA RESULT:      -7.8      1.141      1.584
  Name = 
  6 active torsions:
  status: ('A' for Active; 'I' for Inactive)
    1  A    between atoms: C_1  and  C_5
    2  A    between atoms: C_2  and  C_12
    3  A    between atoms: C_6  and  O_15
    4  A    between atoms: C_6  and  C_23
    5  A    between atoms: C_12  and  C_21
    6  A    between atoms: O_15  and  C_21
                            x       y       z     vdW  Elec       q    Type
                         _______ _______ _______ _____ _____    ______ ____

>  <TORSDO>
F 6

$$$$
=
 OpenBabel10272400473D

 25 27  0  0  1  0  0  0  0  0999 V2000
  182.9260  178.4450  141.2150 C   0  0  0  0  0  0  0  0  0  0  0  0
  183.7910  178.4350  142.3300 C   0  0  0  0  0  0  0  0  0  0  0  0
  181.0970  179.1490  142.6570 C   0  0  0  0  0  3  0  0  0  0  0  0
  181.9550  179.1610  143.7580 C   0  0  0  0  0  3  0  0  0  0  0  0
  184.1710  178.7920  144.7040 C   0  0  0  0  0  0  0  0  0  0  0  0
  183.7290  179.1600  145.9700 O   0  0  0  0  0  1  0  0  0  0  0  0
  185.0910  178.0470  142.2030 N   0  0  0  0  0  0  0  0  0  0  0  0
  181.5790  178.7890  141.3980 C   0  0  0  0  0  3  0  0  0  0  0  0
  185.4990  178.4030  144.5280 C   0  0  0  0  0  3  0  0  0  0  0  0
  185.9430  178.0220  143.2610 C   0  0  0  0  0  0  0  0  0  0  0  0
  183.2990  178.8040  143.6050 C   0  0  0  0  0  0  0  0  0  0  0  0
  183.3810  178.0800  139.8550 C   0  0  0  0  0  0  0  0  0  0  0  0
  183.8830  177.0040  137.9150 C   0  0  0  0  0  3  0  0  0  0  0  0
  184.3320  178.8030  139.0320 C   0  0  0  0  0  0  0  0  0  0  0  0
  184.5940  178.0850  137.8370 N   0  0  0  0  0  0  0  0  0  0  0  0
  182.3150  175.8070  139.6370 C   0  0  0  0  0  1  0  0  0  0  0  0
  184.8580  179.9120  139.3130 O   0  0  0  0  0  0  0  0  0  0  0  0
  183.1190  176.9720  139.1690 C   0  0  0  0  0  0  0  0  0  0  0  0
  187.3640  177.6250  143.0620 C   0  0  0  0  0  2  0  0  0  0  0  0
  187.7240  176.6570  144.0160 O   0  0  0  0  0  0  0  0  0  0  0  0
  188.9990  176.9680  144.5420 C   0  0  2  0  0  3  0  0  0  0  0  0
  188.9660  177.2880  146.0320 C   0  0  0  0  0  1  0  0  0  0  0  0
  189.7440  178.0390  143.7460 C   0  0  0  0  0  2  0  0  0  0  0  0
  191.1580  178.1910  144.2710 C   0  0  0  0  0  2  0  0  0  0  0  0
  191.5820  179.5060  144.0890 O   0  0  0  0  0  1  0  0  0  0  0  0
  1  8  2  0  0  0  0
  1  2  1  0  0  0  0
  2 11  1  0  0  0  0
  3  4  2  0  0  0  0
  5  6  1  0  0  0  0
  7  2  2  0  0  0  0
  7 10  1  0  0  0  0
  8  3  1  0  0  0  0
  9  5  1  0  0  0  0
 10  9  2  0  0  0  0
 11  4  1  0  0  0  0
 11  5  2  0  0  0  0
 12  1  1  0  0  0  0
 13 18  1  0  0  0  0
 14 17  2  0  0  0  0
 14 12  1  0  0  0  0
 15 13  2  0  0  0  0
 15 14  1  0  0  0  0
 18 16  1  0  0  0  0
 18 12  2  0  0  0  0
 19 10  1  0  0  0  0
 19 20  1  0  0  0  0
 20 21  1  0  0  0  0
 21 22  1  1  0  0  0
 23 24  1  0  0  0  0
 23 21  1  0  0  0  0
 25 24  1  0  0  0  0
M  END
>  <MODEL>
6

>  <REMARK>
 VINA RESULT:      -7.7      2.187      6.843
  Name = 
  6 active torsions:
  status: ('A' for Active; 'I' for Inactive)
    1  A    between atoms: C_1  and  C_5
    2  A    between atoms: C_2  and  C_12
    3  A    between atoms: C_6  and  O_15
    4  A    between atoms: C_6  and  C_23
    5  A    between atoms: C_12  and  C_21
    6  A    between atoms: O_15  and  C_21
                            x       y       z     vdW  Elec       q    Type
                         _______ _______ _______ _____ _____    ______ ____

>  <TORSDO>
F 6

$$$$
=
 OpenBabel10272400473D

 25 27  0  0  1  0  0  0  0  0999 V2000
  190.0560  177.6550  141.8560 C   0  0  0  0  0  0  0  0  0  0  0  0
  188.6750  177.9350  141.7750 C   0  0  0  0  0  0  0  0  0  0  0  0
  190.2090  177.7760  139.4310 C   0  0  0  0  0  3  0  0  0  0  0  0
  188.8480  178.0750  139.3490 C   0  0  0  0  0  3  0  0  0  0  0  0
  186.7020  178.4330  140.4470 C   0  0  0  0  0  0  0  0  0  0  0  0
  186.0770  178.6670  139.2260 O   0  0  0  0  0  1  0  0  0  0  0  0
  187.9020  177.9710  142.8970 N   0  0  0  0  0  0  0  0  0  0  0  0
  190.8050  177.5630  140.6750 C   0  0  0  0  0  3  0  0  0  0  0  0
  185.9480  178.4760  141.6200 C   0  0  0  0  0  3  0  0  0  0  0  0
  186.5690  178.2320  142.8460 C   0  0  0  0  0  0  0  0  0  0  0  0
  188.0740  178.1540  140.5120 C   0  0  0  0  0  0  0  0  0  0  0  0
  190.7430  177.4270  143.1460 C   0  0  0  0  0  0  0  0  0  0  0  0
  191.5740  176.5550  145.0750 C   0  0  0  0  0  3  0  0  0  0  0  0
  191.2110  178.4390  144.0740 C   0  0  0  0  0  0  0  0  0  0  0  0
  191.7240  177.8310  145.2490 N   0  0  0  0  0  0  0  0  0  0  0  0
  190.5180  174.9230  143.3220 C   0  0  0  0  0  1  0  0  0  0  0  0
  191.1830  179.6840  143.8850 O   0  0  0  0  0  0  0  0  0  0  0  0
  190.9590  176.2740  143.7720 C   0  0  0  0  0  0  0  0  0  0  0  0
  185.7760  178.2950  144.1040 C   0  0  0  0  0  2  0  0  0  0  0  0
  186.1280  177.2220  144.9420 O   0  0  0  0  0  0  0  0  0  0  0  0
  186.4800  177.7200  146.2180 C   0  0  2  0  0  3  0  0  0  0  0  0
  185.7590  179.0160  146.5700 C   0  0  0  0  0  1  0  0  0  0  0  0
  187.9880  177.8300  146.4380 C   0  0  0  0  0  2  0  0  0  0  0  0
  188.3190  177.6230  147.9030 C   0  0  0  0  0  2  0  0  0  0  0  0
  189.6840  177.3760  148.0390 O   0  0  0  0  0  1  0  0  0  0  0  0
  1 12  1  0  0  0  0
  2  1  1  0  0  0  0
  2  7  1  0  0  0  0
  3  8  1  0  0  0  0
  4  3  2  0  0  0  0
  4 11  1  0  0  0  0
  5 11  1  0  0  0  0
  5  9  2  0  0  0  0
  6  5  1  0  0  0  0
  8  1  2  0  0  0  0
  9 10  1  0  0  0  0
 10  7  2  0  0  0  0
 10 19  1  0  0  0  0
 11  2  2  0  0  0  0
 12 18  2  0  0  0  0
 12 14  1  0  0  0  0
 13 15  2  0  0  0  0
 14 15  1  0  0  0  0
 16 18  1  0  0  0  0
 17 14  2  0  0  0  0
 18 13  1  0  0  0  0
 19 20  1  0  0  0  0
 20 21  1  0  0  0  0
 21 23  1  0  0  0  0
 21 22  1  6  0  0  0
 23 24  1  0  0  0  0
 24 25  1  0  0  0  0
M  END
>  <MODEL>
7

>  <REMARK>
 VINA RESULT:      -7.6      2.450      5.674
  Name = 
  6 active torsions:
  status: ('A' for Active; 'I' for Inactive)
    1  A    between atoms: C_1  and  C_5
    2  A    between atoms: C_2  and  C_12
    3  A    between atoms: C_6  and  O_15
    4  A    between atoms: C_6  and  C_23
    5  A    between atoms: C_12  and  C_21
    6  A    between atoms: O_15  and  C_21
                            x       y       z     vdW  Elec       q    Type
                         _______ _______ _______ _____ _____    ______ ____

>  <TORSDO>
F 6

$$$$
=
 OpenBabel10272400473D

 25 27  0  0  1  0  0  0  0  0999 V2000
  188.1940  177.5760  143.7630 C   0  0  0  0  0  0  0  0  0  0  0  0
  186.8320  177.9470  143.7770 C   0  0  0  0  0  0  0  0  0  0  0  0
  188.2280  177.6650  146.1950 C   0  0  0  0  0  3  0  0  0  0  0  0
  186.8760  178.0120  146.2120 C   0  0  0  0  0  3  0  0  0  0  0  0
  184.8190  178.5250  145.0090 C   0  0  0  0  0  0  0  0  0  0  0  0
  184.1320  178.7280  146.2010 O   0  0  0  0  0  1  0  0  0  0  0  0
  186.1480  178.1360  142.6130 N   0  0  0  0  0  0  0  0  0  0  0  0
  188.8810  177.4540  144.9790 C   0  0  0  0  0  3  0  0  0  0  0  0
  184.1500  178.6930  143.7960 C   0  0  0  0  0  3  0  0  0  0  0  0
  184.8390  178.5000  142.5970 C   0  0  0  0  0  0  0  0  0  0  0  0
  186.1720  178.1580  145.0110 C   0  0  0  0  0  0  0  0  0  0  0  0
  188.9360  177.3320  142.5070 C   0  0  0  0  0  0  0  0  0  0  0  0
  190.3840  176.6070  140.9090 C   0  0  0  0  0  3  0  0  0  0  0  0
  188.9470  178.1720  141.3250 C   0  0  0  0  0  0  0  0  0  0  0  0
  189.8610  177.6610  140.3660 N   0  0  0  0  0  0  0  0  0  0  0  0
  190.3180  175.3410  143.2000 C   0  0  0  0  0  1  0  0  0  0  0  0
  188.2510  179.2060  141.1480 O   0  0  0  0  0  0  0  0  0  0  0  0
  189.8280  176.3800  142.2500 C   0  0  0  0  0  0  0  0  0  0  0  0
  184.1270  178.6580  141.3000 C   0  0  0  0  0  2  0  0  0  0  0  0
  184.8500  179.5270  140.4640 O   0  0  0  0  0  0  0  0  0  0  0  0
  184.3950  179.3840  139.1330 C   0  0  2  0  0  3  0  0  0  0  0  0
  182.9260  179.7560  138.9640 C   0  0  0  0  0  1  0  0  0  0  0  0
  184.7110  178.0200  138.5210 C   0  0  0  0  0  2  0  0  0  0  0  0
  185.8720  178.1370  137.5530 C   0  0  0  0  0  2  0  0  0  0  0  0
  187.0410  178.4100  138.2610 O   0  0  0  0  0  1  0  0  0  0  0  0
  1  2  2  0  0  0  0
  1  8  1  0  0  0  0
  2 11  1  0  0  0  0
  3  4  1  0  0  0  0
  5 11  1  0  0  0  0
  5  6  1  0  0  0  0
  7  2  1  0  0  0  0
  8  3  2  0  0  0  0
  9  5  2  0  0  0  0
 10  7  2  0  0  0  0
 10  9  1  0  0  0  0
 11  4  2  0  0  0  0
 12  1  1  0  0  0  0
 13 18  1  0  0  0  0
 14 12  1  0  0  0  0
 15 13  2  0  0  0  0
 15 14  1  0  0  0  0
 17 14  2  0  0  0  0
 18 12  2  0  0  0  0
 18 16  1  0  0  0  0
 19 10  1  0  0  0  0
 20 19  1  0  0  0  0
 21 22  1  1  0  0  0
 21 20  1  0  0  0  0
 23 21  1  0  0  0  0
 24 25  1  0  0  0  0
 24 23  1  0  0  0  0
M  END
>  <MODEL>
8

>  <REMARK>
 VINA RESULT:      -7.5      1.762      2.232
  Name = 
  6 active torsions:
  status: ('A' for Active; 'I' for Inactive)
    1  A    between atoms: C_1  and  C_5
    2  A    between atoms: C_2  and  C_12
    3  A    between atoms: C_6  and  O_15
    4  A    between atoms: C_6  and  C_23
    5  A    between atoms: C_12  and  C_21
    6  A    between atoms: O_15  and  C_21
                            x       y       z     vdW  Elec       q    Type
                         _______ _______ _______ _____ _____    ______ ____

>  <TORSDO>
F 6

$$$$
=
 OpenBabel10272400473D

 25 27  0  0  1  0  0  0  0  0999 V2000
  188.5970  177.8290  144.6240 C   0  0  0  0  0  0  0  0  0  0  0  0
  187.3380  178.1020  144.0450 C   0  0  0  0  0  0  0  0  0  0  0  0
  187.5400  177.6690  146.8100 C   0  0  0  0  0  3  0  0  0  0  0  0
  186.2920  177.9170  146.2370 C   0  0  0  0  0  3  0  0  0  0  0  0
  184.9380  178.4070  144.2710 C   0  0  0  0  0  0  0  0  0  0  0  0
  183.7770  178.4370  145.0350 O   0  0  0  0  0  1  0  0  0  0  0  0
  187.2240  178.3610  142.7120 N   0  0  0  0  0  0  0  0  0  0  0  0
  188.6830  177.6300  146.0090 C   0  0  0  0  0  3  0  0  0  0  0  0
  184.8610  178.6520  142.9000 C   0  0  0  0  0  3  0  0  0  0  0  0
  186.0260  178.6330  142.1300 C   0  0  0  0  0  0  0  0  0  0  0  0
  186.1810  178.1360  144.8600 C   0  0  0  0  0  0  0  0  0  0  0  0
  189.8400  177.7690  143.8250 C   0  0  0  0  0  0  0  0  0  0  0  0
  191.6330  177.1180  142.5860 C   0  0  0  0  0  3  0  0  0  0  0  0
  190.8870  178.7720  143.7660 C   0  0  0  0  0  0  0  0  0  0  0  0
  191.9690  178.3080  142.9730 N   0  0  0  0  0  0  0  0  0  0  0  0
  189.6930  175.4030  142.9700 C   0  0  0  0  0  1  0  0  0  0  0  0
  190.8600  179.9000  144.3240 O   0  0  0  0  0  0  0  0  0  0  0  0
  190.3090  176.7530  143.1080 C   0  0  0  0  0  0  0  0  0  0  0  0
  185.9490  178.8740  140.6640 C   0  0  0  0  0  2  0  0  0  0  0  0
  187.0240  178.2330  140.0210 O   0  0  0  0  0  0  0  0  0  0  0  0
  186.8710  178.3550  138.6200 C   0  0  2  0  0  3  0  0  0  0  0  0
  185.4560  178.0390  138.1470 C   0  0  0  0  0  1  0  0  0  0  0  0
  187.9220  177.5880  137.8200 C   0  0  0  0  0  2  0  0  0  0  0  0
  188.7500  178.5480  136.9900 C   0  0  0  0  0  2  0  0  0  0  0  0
  188.9900  179.7090  137.7230 O   0  0  0  0  0  1  0  0  0  0  0  0
  1  8  1  0  0  0  0
  2  1  2  0  0  0  0
  2 11  1  0  0  0  0
  4  3  1  0  0  0  0
  5 11  1  0  0  0  0
  5  6  1  0  0  0  0
  7  2  1  0  0  0  0
  8  3  2  0  0  0  0
  9  5  2  0  0  0  0
 10  7  2  0  0  0  0
 10  9  1  0  0  0  0
 11  4  2  0  0  0  0
 12  1  1  0  0  0  0
 13 15  2  0  0  0  0
 13 18  1  0  0  0  0
 14 12  1  0  0  0  0
 14 17  2  0  0  0  0
 15 14  1  0  0  0  0
 16 18  1  0  0  0  0
 18 12  2  0  0  0  0
 19 10  1  0  0  0  0
 20 19  1  0  0  0  0
 21 22  1  6  0  0  0
 21 20  1  0  0  0  0
 23 21  1  0  0  0  0
 24 25  1  0  0  0  0
 24 23  1  0  0  0  0
M  END
>  <MODEL>
9

>  <REMARK>
 VINA RESULT:      -7.4      2.460      3.050
  Name = 
  6 active torsions:
  status: ('A' for Active; 'I' for Inactive)
    1  A    between atoms: C_1  and  C_5
    2  A    between atoms: C_2  and  C_12
    3  A    between atoms: C_6  and  O_15
    4  A    between atoms: C_6  and  C_23
    5  A    between atoms: C_12  and  C_21
    6  A    between atoms: O_15  and  C_21
                            x       y       z     vdW  Elec       q    Type
                         _______ _______ _______ _____ _____    ______ ____

>  <TORSDO>
F 6

$$$$
