=
 OpenBabel10272401103D

 27 31  0  0  0  0  0  0  0  0999 V2000
  187.4000  177.4940  143.3390 N   0  0  0  0  0  0  0  0  0  0  0  0
  187.8080  177.5100  142.0240 C   0  0  0  0  0  0  0  0  0  0  0  0
  185.8660  178.8560  141.4200 C   0  0  0  0  0  0  0  0  0  0  0  0
  188.8820  177.6800  138.0480 N   0  0  0  0  0  0  0  0  0  0  0  0
  187.6010  178.8730  136.2600 C   0  0  0  0  0  1  0  0  0  0  0  0
  188.9980  176.8400  141.6200 C   0  0  0  0  0  3  0  0  0  0  0  0
  187.0000  178.7390  138.6550 O   0  0  0  0  0  0  0  0  0  0  0  0
  183.8110  179.4030  144.4470 C   0  0  0  0  0  3  0  0  0  0  0  0
  185.1810  179.4820  140.5620 O   0  0  0  0  0  0  0  0  0  0  0  0
  184.5410  178.7040  145.4020 C   0  0  0  0  0  3  0  0  0  0  0  0
  187.5130  178.1860  139.7230 C   0  0  0  0  0  0  0  0  0  0  0  0
  187.8190  178.4330  137.6640 C   0  0  0  0  0  0  0  0  0  0  0  0
  188.6570  177.5400  139.3650 C   0  0  0  0  0  0  0  0  0  0  0  0
  186.2190  178.1040  143.7210 C   0  0  0  0  0  0  0  0  0  0  0  0
  187.0410  178.1990  141.0440 C   0  0  0  0  0  0  0  0  0  0  0  0
  184.2600  179.4510  143.1320 C   0  0  0  0  0  3  0  0  0  0  0  0
  189.4340  176.8500  140.2850 C   0  0  0  0  0  3  0  0  0  0  0  0
  186.3600  177.3700  146.0420 F   0  0  0  0  0  0  0  0  0  0  0  0
  185.7280  178.0540  145.0570 C   0  0  0  0  0  0  0  0  0  0  0  0
  185.4470  178.8080  142.7550 C   0  0  0  0  0  0  0  0  0  0  0  0
  188.2660  176.8420  144.3330 C   0  0  0  0  0  2  0  0  0  0  0  0
  192.1200  178.6740  144.4870 C   0  0  0  0  0  3  0  0  0  0  0  0
  189.6080  177.5010  144.3850 C   0  0  0  0  0  0  0  0  0  0  0  0
  190.7320  176.7690  144.7760 C   0  0  0  0  0  3  0  0  0  0  0  0
  191.9550  177.3640  144.8190 N   0  0  0  0  0  0  0  0  0  0  0  0
  191.0220  179.4400  144.0910 C   0  0  0  0  0  3  0  0  0  0  0  0
  189.7600  178.8470  144.0420 C   0  0  0  0  0  3  0  0  0  0  0  0
  1 14  1  0  0  0  0
  1 21  1  0  0  0  0
  2  1  1  0  0  0  0
  3 20  1  0  0  0  0
  4 13  1  0  0  0  0
  5 12  1  0  0  0  0
  6  2  1  0  0  0  0
  7 11  1  0  0  0  0
  8 10  1  0  0  0  0
  9  3  2  0  0  0  0
 11 15  1  0  0  0  0
 12  4  2  0  0  0  0
 12  7  1  0  0  0  0
 13 11  2  0  0  0  0
 13 17  1  0  0  0  0
 14 19  1  0  0  0  0
 15  3  1  0  0  0  0
 15  2  2  0  0  0  0
 16  8  2  0  0  0  0
 17  6  2  0  0  0  0
 19 10  2  0  0  0  0
 19 18  1  0  0  0  0
 20 16  1  0  0  0  0
 20 14  2  0  0  0  0
 21 23  1  0  0  0  0
 22 25  1  0  0  0  0
 23 24  1  0  0  0  0
 24 25  2  0  0  0  0
 26 22  2  0  0  0  0
 27 26  1  0  0  0  0
 27 23  2  0  0  0  0
M  END
>  <MODEL>
1

>  <REMARK>
 VINA RESULT:      -8.9      0.000      0.000
  Name = 
  2 active torsions:
  status: ('A' for Active; 'I' for Inactive)
    1  A    between atoms: N_1  and  C_15
    2  A    between atoms: C_9  and  C_15
                            x       y       z     vdW  Elec       q    Type
                         _______ _______ _______ _____ _____    ______ ____

>  <TORSDO>
F 2

$$$$
=
 OpenBabel10272401103D

 27 31  0  0  0  0  0  0  0  0999 V2000
  184.8940  178.8000  140.7160 N   0  0  0  0  0  0  0  0  0  0  0  0
  184.8360  178.7810  142.0910 C   0  0  0  0  0  0  0  0  0  0  0  0
  187.2090  178.2290  142.2010 C   0  0  0  0  0  0  0  0  0  0  0  0
  184.8550  178.6950  146.2130 N   0  0  0  0  0  0  0  0  0  0  0  0
  186.8570  178.2130  147.6330 C   0  0  0  0  0  1  0  0  0  0  0  0
  183.6140  179.0410  142.7750 C   0  0  0  0  0  3  0  0  0  0  0  0
  186.7910  178.2740  145.1630 O   0  0  0  0  0  0  0  0  0  0  0  0
  188.5150  177.9090  138.7550 C   0  0  0  0  0  3  0  0  0  0  0  0
  188.2560  177.9860  142.8660 O   0  0  0  0  0  0  0  0  0  0  0  0
  187.3710  178.1560  138.0060 C   0  0  0  0  0  3  0  0  0  0  0  0
  185.8810  178.4990  144.2510 C   0  0  0  0  0  0  0  0  0  0  0  0
  186.1740  178.3920  146.3240 C   0  0  0  0  0  0  0  0  0  0  0  0
  184.7000  178.7560  144.8790 C   0  0  0  0  0  0  0  0  0  0  0  0
  186.0700  178.4990  140.0530 C   0  0  0  0  0  0  0  0  0  0  0  0
  186.0020  178.4960  142.8540 C   0  0  0  0  0  0  0  0  0  0  0  0
  188.4540  177.9390  140.1440 C   0  0  0  0  0  3  0  0  0  0  0  0
  183.5350  179.0320  144.1760 C   0  0  0  0  0  3  0  0  0  0  0  0
  185.0840  178.6390  137.8280 F   0  0  0  0  0  0  0  0  0  0  0  0
  186.1570  178.4430  138.6320 C   0  0  0  0  0  0  0  0  0  0  0  0
  187.2490  178.2230  140.8020 C   0  0  0  0  0  0  0  0  0  0  0  0
  183.6870  179.1810  139.9690 C   0  0  0  0  0  2  0  0  0  0  0  0
  180.8410  175.9980  139.8690 C   0  0  0  0  0  3  0  0  0  0  0  0
  182.7030  178.0540  139.9320 C   0  0  0  0  0  0  0  0  0  0  0  0
  181.3760  178.2710  140.3090 C   0  0  0  0  0  3  0  0  0  0  0  0
  180.4790  177.2480  140.2700 N   0  0  0  0  0  0  0  0  0  0  0  0
  182.1590  175.7410  139.4840 C   0  0  0  0  0  3  0  0  0  0  0  0
  183.0930  176.7770  139.5180 C   0  0  0  0  0  3  0  0  0  0  0  0
  1  2  1  0  0  0  0
  2  6  2  0  0  0  0
  2 15  1  0  0  0  0
  3 15  1  0  0  0  0
  3  9  2  0  0  0  0
  4 12  2  0  0  0  0
  6 17  1  0  0  0  0
  7 12  1  0  0  0  0
  8 16  1  0  0  0  0
 10 19  1  0  0  0  0
 10  8  2  0  0  0  0
 11 13  1  0  0  0  0
 11  7  1  0  0  0  0
 12  5  1  0  0  0  0
 13  4  1  0  0  0  0
 14  1  1  0  0  0  0
 14 20  1  0  0  0  0
 15 11  2  0  0  0  0
 16 20  2  0  0  0  0
 17 13  2  0  0  0  0
 18 19  1  0  0  0  0
 19 14  2  0  0  0  0
 20  3  1  0  0  0  0
 21  1  1  0  0  0  0
 22 25  1  0  0  0  0
 23 21  1  0  0  0  0
 23 24  1  0  0  0  0
 25 24  2  0  0  0  0
 26 27  1  0  0  0  0
 26 22  2  0  0  0  0
 27 23  2  0  0  0  0
M  END
>  <MODEL>
2

>  <REMARK>
 VINA RESULT:      -8.6      3.531      7.554
  Name = 
  2 active torsions:
  status: ('A' for Active; 'I' for Inactive)
    1  A    between atoms: N_1  and  C_15
    2  A    between atoms: C_9  and  C_15
                            x       y       z     vdW  Elec       q    Type
                         _______ _______ _______ _____ _____    ______ ____

>  <TORSDO>
F 2

$$$$
=
 OpenBabel10272401103D

 27 31  0  0  0  0  0  0  0  0999 V2000
  188.2120  178.3020  141.0340 N   0  0  0  0  0  0  0  0  0  0  0  0
  189.1280  177.9940  142.0140 C   0  0  0  0  0  0  0  0  0  0  0  0
  187.3210  177.6190  143.6090 C   0  0  0  0  0  0  0  0  0  0  0  0
  191.7220  177.0250  145.0680 N   0  0  0  0  0  0  0  0  0  0  0  0
  191.0400  176.3890  147.3890 C   0  0  0  0  0  1  0  0  0  0  0  0
  190.5260  178.0210  141.7430 C   0  0  0  0  0  3  0  0  0  0  0  0
  189.5270  176.9800  145.5260 O   0  0  0  0  0  0  0  0  0  0  0  0
  184.0960  178.3120  141.9340 C   0  0  0  0  0  3  0  0  0  0  0  0
  186.9160  177.2980  144.7620 O   0  0  0  0  0  0  0  0  0  0  0  0
  184.5230  178.6850  140.6650 C   0  0  0  0  0  3  0  0  0  0  0  0
  189.6690  177.3320  144.2740 C   0  0  0  0  0  0  0  0  0  0  0  0
  190.7510  176.8010  145.9900 C   0  0  0  0  0  0  0  0  0  0  0  0
  191.0000  177.3620  143.9850 C   0  0  0  0  0  0  0  0  0  0  0  0
  186.8580  178.3230  141.3130 C   0  0  0  0  0  0  0  0  0  0  0  0
  188.6890  177.6430  143.3210 C   0  0  0  0  0  0  0  0  0  0  0  0
  185.0300  177.9560  142.9020 C   0  0  0  0  0  3  0  0  0  0  0  0
  191.4760  177.7030  142.7270 C   0  0  0  0  0  3  0  0  0  0  0  0
  186.2120  179.1080  139.0960 F   0  0  0  0  0  0  0  0  0  0  0  0
  185.8820  178.7000  140.3460 C   0  0  0  0  0  0  0  0  0  0  0  0
  186.4010  177.9630  142.6120 C   0  0  0  0  0  0  0  0  0  0  0  0
  188.7050  178.5760  139.6760 C   0  0  0  0  0  2  0  0  0  0  0  0
  189.3750  174.9340  137.5490 C   0  0  0  0  0  3  0  0  0  0  0  0
  188.9250  177.3040  138.9210 C   0  0  0  0  0  0  0  0  0  0  0  0
  190.1400  176.6250  139.0320 C   0  0  0  0  0  3  0  0  0  0  0  0
  190.3400  175.4640  138.3490 N   0  0  0  0  0  0  0  0  0  0  0  0
  188.1450  175.5820  137.4120 C   0  0  0  0  0  3  0  0  0  0  0  0
  187.9220  176.7740  138.1020 C   0  0  0  0  0  3  0  0  0  0  0  0
  1 14  1  0  0  0  0
  1  2  1  0  0  0  0
  2 15  1  0  0  0  0
  3  9  2  0  0  0  0
  4 12  2  0  0  0  0
  6  2  2  0  0  0  0
  6 17  1  0  0  0  0
  7 12  1  0  0  0  0
  8 16  1  0  0  0  0
 10  8  2  0  0  0  0
 11  7  1  0  0  0  0
 12  5  1  0  0  0  0
 13 11  1  0  0  0  0
 13  4  1  0  0  0  0
 14 20  1  0  0  0  0
 15  3  1  0  0  0  0
 15 11  2  0  0  0  0
 17 13  2  0  0  0  0
 18 19  1  0  0  0  0
 19 10  1  0  0  0  0
 19 14  2  0  0  0  0
 20 16  2  0  0  0  0
 20  3  1  0  0  0  0
 21  1  1  0  0  0  0
 22 25  1  0  0  0  0
 23 24  1  0  0  0  0
 23 21  1  0  0  0  0
 25 24  2  0  0  0  0
 26 22  2  0  0  0  0
 26 27  1  0  0  0  0
 27 23  2  0  0  0  0
M  END
>  <MODEL>
3

>  <REMARK>
 VINA RESULT:      -8.5      2.698      5.731
  Name = 
  2 active torsions:
  status: ('A' for Active; 'I' for Inactive)
    1  A    between atoms: N_1  and  C_15
    2  A    between atoms: C_9  and  C_15
                            x       y       z     vdW  Elec       q    Type
                         _______ _______ _______ _____ _____    ______ ____

>  <TORSDO>
F 2

$$$$
=
 OpenBabel10272401103D

 27 31  0  0  0  0  0  0  0  0999 V2000
  184.9990  178.7450  141.1360 N   0  0  0  0  0  0  0  0  0  0  0  0
  186.3400  178.4410  141.0800 C   0  0  0  0  0  0  0  0  0  0  0  0
  186.3740  178.0700  143.4900 C   0  0  0  0  0  0  0  0  0  0  0  0
  190.3500  177.4870  141.1010 N   0  0  0  0  0  0  0  0  0  0  0  0
  191.6700  176.8590  143.1320 C   0  0  0  0  0  1  0  0  0  0  0  0
  187.0440  178.4700  139.8420 C   0  0  0  0  0  3  0  0  0  0  0  0
  189.2680  177.4410  143.0650 O   0  0  0  0  0  0  0  0  0  0  0  0
  183.0010  178.7520  144.8460 C   0  0  0  0  0  3  0  0  0  0  0  0
  186.9870  177.7520  144.5490 O   0  0  0  0  0  0  0  0  0  0  0  0
  182.3150  179.1220  143.6950 C   0  0  0  0  0  3  0  0  0  0  0  0
  188.4100  177.7880  142.1420 C   0  0  0  0  0  0  0  0  0  0  0  0
  190.4180  177.2650  142.4400 C   0  0  0  0  0  0  0  0  0  0  0  0
  189.0570  177.8190  140.9440 C   0  0  0  0  0  0  0  0  0  0  0  0
  184.3270  178.7650  142.3450 C   0  0  0  0  0  0  0  0  0  0  0  0
  187.0470  178.0950  142.2650 C   0  0  0  0  0  0  0  0  0  0  0  0
  184.3440  178.4010  144.7680 C   0  0  0  0  0  3  0  0  0  0  0  0
  188.4110  178.1570  139.7630 C   0  0  0  0  0  3  0  0  0  0  0  0
  182.2230  179.5410  141.3910 F   0  0  0  0  0  0  0  0  0  0  0  0
  182.9570  179.1380  142.4560 C   0  0  0  0  0  0  0  0  0  0  0  0
  185.0170  178.4090  143.5380 C   0  0  0  0  0  0  0  0  0  0  0  0
  184.2880  179.0150  139.8770 C   0  0  0  0  0  2  0  0  0  0  0  0
  183.1820  175.3810  137.9270 C   0  0  0  0  0  3  0  0  0  0  0  0
  183.8870  177.7400  139.2060 C   0  0  0  0  0  0  0  0  0  0  0  0
  184.4000  177.4200  137.9460 C   0  0  0  0  0  3  0  0  0  0  0  0
  184.0400  176.2580  137.3370 N   0  0  0  0  0  0  0  0  0  0  0  0
  182.6490  175.6630  139.1860 C   0  0  0  0  0  3  0  0  0  0  0  0
  183.0040  176.8510  139.8270 C   0  0  0  0  0  3  0  0  0  0  0  0
  1 14  1  0  0  0  0
  2  1  1  0  0  0  0
  2 15  1  0  0  0  0
  3 20  1  0  0  0  0
  3  9  2  0  0  0  0
  4 12  2  0  0  0  0
  6  2  2  0  0  0  0
 10  8  2  0  0  0  0
 11 15  2  0  0  0  0
 11  7  1  0  0  0  0
 12  7  1  0  0  0  0
 12  5  1  0  0  0  0
 13  4  1  0  0  0  0
 13 11  1  0  0  0  0
 14 19  2  0  0  0  0
 14 20  1  0  0  0  0
 15  3  1  0  0  0  0
 16  8  1  0  0  0  0
 17  6  1  0  0  0  0
 17 13  2  0  0  0  0
 18 19  1  0  0  0  0
 19 10  1  0  0  0  0
 20 16  2  0  0  0  0
 21  1  1  0  0  0  0
 22 26  1  0  0  0  0
 23 27  1  0  0  0  0
 23 21  1  0  0  0  0
 24 23  2  0  0  0  0
 25 22  2  0  0  0  0
 25 24  1  0  0  0  0
 26 27  2  0  0  0  0
M  END
>  <MODEL>
4

>  <REMARK>
 VINA RESULT:      -8.4      3.099      5.771
  Name = 
  2 active torsions:
  status: ('A' for Active; 'I' for Inactive)
    1  A    between atoms: N_1  and  C_15
    2  A    between atoms: C_9  and  C_15
                            x       y       z     vdW  Elec       q    Type
                         _______ _______ _______ _____ _____    ______ ____

>  <TORSDO>
F 2

$$$$
=
 OpenBabel10272401103D

 27 31  0  0  0  0  0  0  0  0999 V2000
  189.5040  178.0070  144.0360 N   0  0  0  0  0  0  0  0  0  0  0  0
  189.4730  177.9530  142.6610 C   0  0  0  0  0  0  0  0  0  0  0  0
  187.0340  177.9480  142.6980 C   0  0  0  0  0  0  0  0  0  0  0  0
  189.1880  177.8080  138.5510 N   0  0  0  0  0  0  0  0  0  0  0  0
  187.0470  177.7660  137.2570 C   0  0  0  0  0  1  0  0  0  0  0  0
  190.6790  177.9210  141.9040 C   0  0  0  0  0  3  0  0  0  0  0  0
  187.2730  177.8500  139.7180 O   0  0  0  0  0  0  0  0  0  0  0  0
  185.8990  177.9860  146.2190 C   0  0  0  0  0  3  0  0  0  0  0  0
  185.9220  177.9370  142.0990 O   0  0  0  0  0  0  0  0  0  0  0  0
  187.1130  177.9800  146.8960 C   0  0  0  0  0  3  0  0  0  0  0  0
  188.2630  177.8790  140.5710 C   0  0  0  0  0  0  0  0  0  0  0  0
  187.8300  177.8080  138.5210 C   0  0  0  0  0  0  0  0  0  0  0  0
  189.4320  177.8530  139.8720 C   0  0  0  0  0  0  0  0  0  0  0  0
  188.3320  177.9890  144.7710 C   0  0  0  0  0  0  0  0  0  0  0  0
  188.2290  177.9260  141.9720 C   0  0  0  0  0  0  0  0  0  0  0  0
  185.8830  177.9790  144.8280 C   0  0  0  0  0  3  0  0  0  0  0  0
  190.6690  177.8720  140.5010 C   0  0  0  0  0  3  0  0  0  0  0  0
  189.4570  177.9390  146.9340 F   0  0  0  0  0  0  0  0  0  0  0  0
  188.3210  177.9770  146.1960 C   0  0  0  0  0  0  0  0  0  0  0  0
  187.0790  177.9740  144.0970 C   0  0  0  0  0  0  0  0  0  0  0  0
  190.8090  178.1190  144.7040 C   0  0  0  0  0  2  0  0  0  0  0  0
  192.4780  174.2510  145.4060 C   0  0  0  0  0  3  0  0  0  0  0  0
  191.3910  176.7660  144.9680 C   0  0  0  0  0  0  0  0  0  0  0  0
  191.5840  175.8690  143.9140 C   0  0  0  0  0  3  0  0  0  0  0  0
  192.1180  174.6410  144.1520 N   0  0  0  0  0  0  0  0  0  0  0  0
  192.3020  175.1190  146.4860 C   0  0  0  0  0  3  0  0  0  0  0  0
  191.7540  176.3820  146.2630 C   0  0  0  0  0  3  0  0  0  0  0  0
  1 21  1  0  0  0  0
  1 14  1  0  0  0  0
  2  1  1  0  0  0  0
  3 20  1  0  0  0  0
  4 13  1  0  0  0  0
  5 12  1  0  0  0  0
  6  2  2  0  0  0  0
  7 11  1  0  0  0  0
  8 10  1  0  0  0  0
  9  3  2  0  0  0  0
 11 15  2  0  0  0  0
 12  4  2  0  0  0  0
 12  7  1  0  0  0  0
 13 17  2  0  0  0  0
 13 11  1  0  0  0  0
 14 19  1  0  0  0  0
 15  2  1  0  0  0  0
 15  3  1  0  0  0  0
 16  8  2  0  0  0  0
 17  6  1  0  0  0  0
 19 10  2  0  0  0  0
 19 18  1  0  0  0  0
 20 14  2  0  0  0  0
 20 16  1  0  0  0  0
 21 23  1  0  0  0  0
 22 26  1  0  0  0  0
 23 27  1  0  0  0  0
 24 25  1  0  0  0  0
 24 23  2  0  0  0  0
 25 22  2  0  0  0  0
 27 26  2  0  0  0  0
M  END
>  <MODEL>
5

>  <REMARK>
 VINA RESULT:      -8.4      1.792      2.547
  Name = 
  2 active torsions:
  status: ('A' for Active; 'I' for Inactive)
    1  A    between atoms: N_1  and  C_15
    2  A    between atoms: C_9  and  C_15
                            x       y       z     vdW  Elec       q    Type
                         _______ _______ _______ _____ _____    ______ ____

>  <TORSDO>
F 2

$$$$
=
 OpenBabel10272401103D

 27 31  0  0  0  0  0  0  0  0999 V2000
  184.1870  178.8320  140.9480 N   0  0  0  0  0  0  0  0  0  0  0  0
  185.4950  178.5960  141.3050 C   0  0  0  0  0  0  0  0  0  0  0  0
  184.8300  178.3500  143.6390 C   0  0  0  0  0  0  0  0  0  0  0  0
  189.3510  177.8530  142.5580 N   0  0  0  0  0  0  0  0  0  0  0  0
  190.0350  177.3980  144.9210 C   0  0  0  0  0  1  0  0  0  0  0  0
  186.5310  178.5970  140.3280 C   0  0  0  0  0  3  0  0  0  0  0  0
  187.7410  177.8510  144.1190 O   0  0  0  0  0  0  0  0  0  0  0  0
  181.1860  178.9240  143.9040 C   0  0  0  0  0  3  0  0  0  0  0  0
  185.1150  178.1190  144.8480 O   0  0  0  0  0  0  0  0  0  0  0  0
  180.8570  179.1990  142.5820 C   0  0  0  0  0  3  0  0  0  0  0  0
  187.1810  178.1050  142.9650 C   0  0  0  0  0  0  0  0  0  0  0  0
  189.0290  177.7030  143.8690 C   0  0  0  0  0  0  0  0  0  0  0  0
  188.1520  178.1090  142.0080 C   0  0  0  0  0  0  0  0  0  0  0  0
  183.1890  178.8780  141.9050 C   0  0  0  0  0  0  0  0  0  0  0  0
  185.8330  178.3470  142.6640 C   0  0  0  0  0  0  0  0  0  0  0  0
  182.5040  178.6400  144.2450 C   0  0  0  0  0  3  0  0  0  0  0  0
  187.8700  178.3520  140.6720 C   0  0  0  0  0  3  0  0  0  0  0  0
  181.4330  179.4950  140.3290 F   0  0  0  0  0  0  0  0  0  0  0  0
  181.8350  179.1850  141.5860 C   0  0  0  0  0  0  0  0  0  0  0  0
  183.5090  178.6200  143.2670 C   0  0  0  0  0  0  0  0  0  0  0  0
  183.8700  179.0000  139.5220 C   0  0  0  0  0  2  0  0  0  0  0  0
  183.6020  175.2260  137.5420 C   0  0  0  0  0  3  0  0  0  0  0  0
  183.7610  177.6740  138.8390 C   0  0  0  0  0  0  0  0  0  0  0  0
  184.4720  177.4330  137.6600 C   0  0  0  0  0  3  0  0  0  0  0  0
  184.3790  176.2250  137.0410 N   0  0  0  0  0  0  0  0  0  0  0  0
  182.8760  175.4270  138.7180 C   0  0  0  0  0  3  0  0  0  0  0  0
  182.9570  176.6590  139.3670 C   0  0  0  0  0  3  0  0  0  0  0  0
  1  2  1  0  0  0  0
  1 14  1  0  0  0  0
  2 15  1  0  0  0  0
  3  9  2  0  0  0  0
  4 12  2  0  0  0  0
  6 17  1  0  0  0  0
  6  2  2  0  0  0  0
  8 16  1  0  0  0  0
 10  8  2  0  0  0  0
 11  7  1  0  0  0  0
 12  7  1  0  0  0  0
 12  5  1  0  0  0  0
 13  4  1  0  0  0  0
 13 11  1  0  0  0  0
 14 20  1  0  0  0  0
 15 11  2  0  0  0  0
 15  3  1  0  0  0  0
 17 13  2  0  0  0  0
 18 19  1  0  0  0  0
 19 14  2  0  0  0  0
 19 10  1  0  0  0  0
 20  3  1  0  0  0  0
 20 16  2  0  0  0  0
 21  1  1  0  0  0  0
 22 26  1  0  0  0  0
 23 27  1  0  0  0  0
 23 21  1  0  0  0  0
 24 23  2  0  0  0  0
 25 22  2  0  0  0  0
 25 24  1  0  0  0  0
 26 27  2  0  0  0  0
M  END
>  <MODEL>
6

>  <REMARK>
 VINA RESULT:      -8.3      3.313      6.220
  Name = 
  2 active torsions:
  status: ('A' for Active; 'I' for Inactive)
    1  A    between atoms: N_1  and  C_15
    2  A    between atoms: C_9  and  C_15
                            x       y       z     vdW  Elec       q    Type
                         _______ _______ _______ _____ _____    ______ ____

>  <TORSDO>
F 2

$$$$
=
 OpenBabel10272401103D

 27 31  0  0  0  0  0  0  0  0999 V2000
  184.3190  178.8260  141.2760 N   0  0  0  0  0  0  0  0  0  0  0  0
  185.4740  178.5910  140.5650 C   0  0  0  0  0  0  0  0  0  0  0  0
  186.6810  178.1500  142.6380 C   0  0  0  0  0  0  0  0  0  0  0  0
  189.0190  177.8360  138.6010 N   0  0  0  0  0  0  0  0  0  0  0  0
  191.1740  177.2130  139.7100 C   0  0  0  0  0  1  0  0  0  0  0  0
  185.4900  178.6910  139.1440 C   0  0  0  0  0  3  0  0  0  0  0  0
  189.0250  177.6780  140.8380 O   0  0  0  0  0  0  0  0  0  0  0  0
  184.3680  178.6230  145.4850 C   0  0  0  0  0  3  0  0  0  0  0  0
  187.7390  177.8310  143.2520 O   0  0  0  0  0  0  0  0  0  0  0  0
  183.2000  178.9930  144.8280 C   0  0  0  0  0  3  0  0  0  0  0  0
  187.8170  178.0090  140.4630 C   0  0  0  0  0  0  0  0  0  0  0  0
  189.7320  177.5770  139.7280 C   0  0  0  0  0  0  0  0  0  0  0  0
  187.8030  178.1080  139.1040 C   0  0  0  0  0  0  0  0  0  0  0  0
  184.3170  178.7760  142.6590 C   0  0  0  0  0  0  0  0  0  0  0  0
  186.6760  178.2450  141.2430 C   0  0  0  0  0  0  0  0  0  0  0  0
  185.5150  178.3420  144.7510 C   0  0  0  0  0  3  0  0  0  0  0  0
  186.6560  178.4490  138.4000 C   0  0  0  0  0  3  0  0  0  0  0  0
  181.9920  179.4760  142.8780 F   0  0  0  0  0  0  0  0  0  0  0  0
  183.1610  179.0780  143.4350 C   0  0  0  0  0  0  0  0  0  0  0  0
  185.5080  178.4190  143.3510 C   0  0  0  0  0  0  0  0  0  0  0  0
  183.0810  179.0980  140.5320 C   0  0  0  0  0  2  0  0  0  0  0  0
  180.8800  175.5140  139.7950 C   0  0  0  0  0  3  0  0  0  0  0  0
  182.3260  177.8340  140.2710 C   0  0  0  0  0  0  0  0  0  0  0  0
  180.9750  177.7410  140.6140 C   0  0  0  0  0  3  0  0  0  0  0  0
  180.2850  176.5940  140.3730 N   0  0  0  0  0  0  0  0  0  0  0  0
  182.2290  175.5660  139.4360 C   0  0  0  0  0  3  0  0  0  0  0  0
  182.9530  176.7340  139.6780 C   0  0  0  0  0  3  0  0  0  0  0  0
  1 14  1  0  0  0  0
  2 15  1  0  0  0  0
  2  1  1  0  0  0  0
  3  9  2  0  0  0  0
  3 20  1  0  0  0  0
  4 13  1  0  0  0  0
  4 12  2  0  0  0  0
  5 12  1  0  0  0  0
  6  2  2  0  0  0  0
 10  8  1  0  0  0  0
 11  7  1  0  0  0  0
 11 15  2  0  0  0  0
 12  7  1  0  0  0  0
 13 11  1  0  0  0  0
 14 20  2  0  0  0  0
 14 19  1  0  0  0  0
 15  3  1  0  0  0  0
 16  8  2  0  0  0  0
 17 13  2  0  0  0  0
 17  6  1  0  0  0  0
 18 19  1  0  0  0  0
 19 10  2  0  0  0  0
 20 16  1  0  0  0  0
 21  1  1  0  0  0  0
 22 25  1  0  0  0  0
 23 21  1  0  0  0  0
 23 24  1  0  0  0  0
 25 24  2  0  0  0  0
 26 27  1  0  0  0  0
 26 22  2  0  0  0  0
 27 23  2  0  0  0  0
M  END
>  <MODEL>
7

>  <REMARK>
 VINA RESULT:      -8.3      3.216      5.822
  Name = 
  2 active torsions:
  status: ('A' for Active; 'I' for Inactive)
    1  A    between atoms: N_1  and  C_15
    2  A    between atoms: C_9  and  C_15
                            x       y       z     vdW  Elec       q    Type
                         _______ _______ _______ _____ _____    ______ ____

>  <TORSDO>
F 2

$$$$
=
 OpenBabel10272401103D

 27 31  0  0  0  0  0  0  0  0999 V2000
  188.7540  178.1130  141.2390 N   0  0  0  0  0  0  0  0  0  0  0  0
  187.3990  178.3170  141.3680 C   0  0  0  0  0  0  0  0  0  0  0  0
  187.5150  177.7020  143.7260 C   0  0  0  0  0  0  0  0  0  0  0  0
  183.3580  178.8940  141.9490 N   0  0  0  0  0  0  0  0  0  0  0  0
  182.1550  178.5720  144.1190 C   0  0  0  0  0  1  0  0  0  0  0  0
  186.6120  178.7300  140.2550 C   0  0  0  0  0  3  0  0  0  0  0  0
  184.5720  178.2380  143.7170 O   0  0  0  0  0  0  0  0  0  0  0  0
  191.0040  176.7840  144.5440 C   0  0  0  0  0  3  0  0  0  0  0  0
  186.9630  177.5310  144.8500 O   0  0  0  0  0  0  0  0  0  0  0  0
  191.6250  176.9500  143.3120 C   0  0  0  0  0  3  0  0  0  0  0  0
  185.3790  178.3470  142.6950 C   0  0  0  0  0  0  0  0  0  0  0  0
  183.3740  178.5640  143.2660 C   0  0  0  0  0  0  0  0  0  0  0  0
  184.6520  178.7460  141.6140 C   0  0  0  0  0  0  0  0  0  0  0  0
  189.5080  177.6660  142.3080 C   0  0  0  0  0  0  0  0  0  0  0  0
  186.7610  178.1150  142.6240 C   0  0  0  0  0  0  0  0  0  0  0  0
  189.6430  177.0400  144.6730 C   0  0  0  0  0  3  0  0  0  0  0  0
  185.2300  178.9490  140.3690 C   0  0  0  0  0  3  0  0  0  0  0  0
  191.5760  177.4830  141.0300 F   0  0  0  0  0  0  0  0  0  0  0  0
  190.8990  177.3790  142.1990 C   0  0  0  0  0  0  0  0  0  0  0  0
  188.8870  177.4710  143.5740 C   0  0  0  0  0  0  0  0  0  0  0  0
  189.3870  178.4150  139.9460 C   0  0  0  0  0  2  0  0  0  0  0  0
  189.0900  175.0770  137.2990 C   0  0  0  0  0  3  0  0  0  0  0  0
  189.2690  177.2530  139.0100 C   0  0  0  0  0  0  0  0  0  0  0  0
  190.2950  176.3090  138.9330 C   0  0  0  0  0  3  0  0  0  0  0  0
  190.1870  175.2500  138.0870 N   0  0  0  0  0  0  0  0  0  0  0  0
  188.0420  175.9980  137.3470 C   0  0  0  0  0  3  0  0  0  0  0  0
  188.1350  177.0920  138.2080 C   0  0  0  0  0  3  0  0  0  0  0  0
  1  2  1  0  0  0  0
  1 14  1  0  0  0  0
  2 15  1  0  0  0  0
  3  9  2  0  0  0  0
  4 12  2  0  0  0  0
  6 17  1  0  0  0  0
  6  2  2  0  0  0  0
  8 16  1  0  0  0  0
 10  8  2  0  0  0  0
 11  7  1  0  0  0  0
 12  7  1  0  0  0  0
 12  5  1  0  0  0  0
 13  4  1  0  0  0  0
 13 11  1  0  0  0  0
 14 20  1  0  0  0  0
 15 11  2  0  0  0  0
 15  3  1  0  0  0  0
 17 13  2  0  0  0  0
 18 19  1  0  0  0  0
 19 14  2  0  0  0  0
 19 10  1  0  0  0  0
 20  3  1  0  0  0  0
 20 16  2  0  0  0  0
 21  1  1  0  0  0  0
 22 26  2  0  0  0  0
 22 25  1  0  0  0  0
 23 21  1  0  0  0  0
 24 23  1  0  0  0  0
 25 24  2  0  0  0  0
 26 27  1  0  0  0  0
 27 23  2  0  0  0  0
M  END
>  <MODEL>
8

>  <REMARK>
 VINA RESULT:      -8.3      2.615      5.849
  Name = 
  2 active torsions:
  status: ('A' for Active; 'I' for Inactive)
    1  A    between atoms: N_1  and  C_15
    2  A    between atoms: C_9  and  C_15
                            x       y       z     vdW  Elec       q    Type
                         _______ _______ _______ _____ _____    ______ ____

>  <TORSDO>
F 2

$$$$
=
 OpenBabel10272401103D

 27 31  0  0  0  0  0  0  0  0999 V2000
  188.0510  178.2260  139.6980 N   0  0  0  0  0  0  0  0  0  0  0  0
  186.8910  178.4130  140.4140 C   0  0  0  0  0  0  0  0  0  0  0  0
  188.0900  177.9930  142.4970 C   0  0  0  0  0  0  0  0  0  0  0  0
  183.5220  178.9580  142.7260 N   0  0  0  0  0  0  0  0  0  0  0  0
  183.4450  178.7880  145.2210 C   0  0  0  0  0  1  0  0  0  0  0  0
  185.6660  178.7200  139.7560 C   0  0  0  0  0  3  0  0  0  0  0  0
  185.4350  178.4690  143.7890 O   0  0  0  0  0  0  0  0  0  0  0  0
  191.6170  177.2110  141.7000 C   0  0  0  0  0  3  0  0  0  0  0  0
  188.1140  177.9020  143.7570 O   0  0  0  0  0  0  0  0  0  0  0  0
  191.6060  177.2890  140.3120 C   0  0  0  0  0  3  0  0  0  0  0  0
  185.6880  178.5110  142.5070 C   0  0  0  0  0  0  0  0  0  0  0  0
  184.1470  178.7350  143.9110 C   0  0  0  0  0  0  0  0  0  0  0  0
  184.5310  178.8070  141.8510 C   0  0  0  0  0  0  0  0  0  0  0  0
  189.2290  177.8800  140.3350 C   0  0  0  0  0  0  0  0  0  0  0  0
  186.8990  178.3010  141.8320 C   0  0  0  0  0  0  0  0  0  0  0  0
  190.4490  177.4500  142.4160 C   0  0  0  0  0  3  0  0  0  0  0  0
  184.4740  178.9210  140.4690 C   0  0  0  0  0  3  0  0  0  0  0  0
  190.5060  177.6350  138.2720 F   0  0  0  0  0  0  0  0  0  0  0  0
  190.4350  177.6130  139.6250 C   0  0  0  0  0  0  0  0  0  0  0  0
  189.2560  177.7760  141.7540 C   0  0  0  0  0  0  0  0  0  0  0  0
  188.0170  178.4340  138.2420 C   0  0  0  0  0  2  0  0  0  0  0  0
  186.0750  175.1550  136.3150 C   0  0  0  0  0  3  0  0  0  0  0  0
  187.3270  177.2970  137.5570 C   0  0  0  0  0  0  0  0  0  0  0  0
  187.8080  175.9940  137.7050 C   0  0  0  0  0  3  0  0  0  0  0  0
  187.1790  174.9580  137.0870 N   0  0  0  0  0  0  0  0  0  0  0  0
  185.5630  176.4420  136.1410 C   0  0  0  0  0  3  0  0  0  0  0  0
  186.1950  177.5180  136.7660 C   0  0  0  0  0  3  0  0  0  0  0  0
  1 14  1  0  0  0  0
  1  2  1  0  0  0  0
  2 15  1  0  0  0  0
  3  9  2  0  0  0  0
  4 12  2  0  0  0  0
  6  2  2  0  0  0  0
  6 17  1  0  0  0  0
  7 12  1  0  0  0  0
  8 16  1  0  0  0  0
 10  8  2  0  0  0  0
 11  7  1  0  0  0  0
 12  5  1  0  0  0  0
 13 11  1  0  0  0  0
 13  4  1  0  0  0  0
 14 20  1  0  0  0  0
 15  3  1  0  0  0  0
 15 11  2  0  0  0  0
 17 13  2  0  0  0  0
 18 19  1  0  0  0  0
 19 10  1  0  0  0  0
 19 14  2  0  0  0  0
 20 16  2  0  0  0  0
 20  3  1  0  0  0  0
 21  1  1  0  0  0  0
 22 25  1  0  0  0  0
 23 24  1  0  0  0  0
 23 21  1  0  0  0  0
 25 24  2  0  0  0  0
 26 22  2  0  0  0  0
 26 27  1  0  0  0  0
 27 23  2  0  0  0  0
M  END
>  <MODEL>
9

>  <REMARK>
 VINA RESULT:      -8.1      2.945      6.794
  Name = 
  2 active torsions:
  status: ('A' for Active; 'I' for Inactive)
    1  A    between atoms: N_1  and  C_15
    2  A    between atoms: C_9  and  C_15
                            x       y       z     vdW  Elec       q    Type
                         _______ _______ _______ _____ _____    ______ ____

>  <TORSDO>
F 2

$$$$
