=
 OpenBabel10272413083D

 32 37  0  0  0  0  0  0  0  0999 V2000
  186.8550  178.0150  144.5490 C   0  0  0  0  0  0  0  0  0  0  0  0
  189.1030  177.4080  143.6130 C   0  0  0  0  0  0  0  0  0  0  0  0
  185.9800  178.2260  145.6280 C   0  0  0  0  0  3  0  0  0  0  0  0
  188.2190  177.6300  144.7990 C   0  0  0  0  0  0  0  0  0  0  0  0
  190.4180  177.0500  143.6240 C   0  0  0  0  0  0  0  0  0  0  0  0
  189.4890  177.3130  138.6970 C   0  0  0  0  0  3  0  0  0  0  0  0
  188.4720  177.5970  142.2730 C   0  0  0  0  0  0  0  0  0  0  0  0
  191.3650  176.8150  140.1400 C   0  0  0  0  0  3  0  0  0  0  0  0
  190.5620  177.0270  141.2660 C   0  0  0  0  0  0  0  0  0  0  0  0
  190.9560  176.8750  145.9880 C   0  0  0  0  0  0  0  0  0  0  0  0
  188.6260  177.4800  146.1530 C   0  0  0  0  0  0  0  0  0  0  0  0
  191.0770  176.8780  142.4740 O   0  0  0  0  0  0  0  0  0  0  0  0
  189.8210  177.1520  146.5920 O   0  0  0  0  0  0  0  0  0  0  0  0
  187.7070  177.6960  147.1820 C   0  0  0  0  0  3  0  0  0  0  0  0
  187.1430  177.9760  142.1820 C   0  0  0  0  0  3  0  0  0  0  0  0
  191.9670  176.6090  146.7450 N   0  0  0  0  0  2  0  0  0  0  0  0
  186.3740  178.1800  143.2750 N   0  0  0  0  0  0  0  0  0  0  0  0
  189.2220  177.3900  141.1130 C   0  0  0  0  0  0  0  0  0  0  0  0
  191.1680  176.8350  144.6880 O   0  0  0  0  0  0  0  0  0  0  0  0
  186.3970  178.0690  146.9340 C   0  0  0  0  0  3  0  0  0  0  0  0
  190.8300  176.9590  138.8570 C   0  0  0  0  0  3  0  0  0  0  0  0
  188.6850  177.5310  139.8210 C   0  0  0  0  0  3  0  0  0  0  0  0
  183.4470  178.9360  141.1190 C   0  0  0  0  0  0  0  0  0  0  0  0
  180.5140  179.3150  143.1880 C   0  0  0  0  0  1  0  0  0  0  0  0
  183.2230  179.4310  139.8710 F   0  0  0  0  0  0  0  0  0  0  0  0
  182.7480  178.9770  144.0880 C   0  0  0  0  0  3  0  0  0  0  0  0
  185.0120  178.5700  143.0320 C   0  0  0  0  0  0  0  0  0  0  0  0
  182.3420  178.1820  141.7860 C   0  0  0  0  0  2  0  0  0  0  0  0
  184.1720  178.5900  144.0850 C   0  0  0  0  0  3  0  0  0  0  0  0
  184.6610  179.0650  141.6710 C   0  0  0  0  0  0  0  0  0  0  0  0
  185.6650  179.6690  140.9200 O   0  0  0  0  0  1  0  0  0  0  0  0
  181.9220  178.8570  143.0500 C   0  0  0  0  0  0  0  0  0  0  0  0
  1  4  2  0  0  0  0
  1  3  1  0  0  0  0
  2  5  2  0  0  0  0
  2  4  1  0  0  0  0
  3 20  2  0  0  0  0
  4 11  1  0  0  0  0
  5 19  1  0  0  0  0
  6 21  2  0  0  0  0
  6 22  1  0  0  0  0
  7  2  1  0  0  0  0
  8  9  2  0  0  0  0
  9 12  1  0  0  0  0
 10 13  1  0  0  0  0
 10 16  2  0  0  0  0
 11 13  1  0  0  0  0
 11 14  2  0  0  0  0
 12  5  1  0  0  0  0
 15  7  2  0  0  0  0
 15 17  1  0  0  0  0
 17  1  1  0  0  0  0
 18  9  1  0  0  0  0
 18  7  1  0  0  0  0
 19 10  1  0  0  0  0
 20 14  1  0  0  0  0
 21  8  1  0  0  0  0
 22 18  2  0  0  0  0
 23 30  2  0  0  0  0
 23 28  1  0  0  0  0
 25 23  1  0  0  0  0
 27 17  1  0  0  0  0
 27 29  2  0  0  0  0
 28 32  1  0  0  0  0
 29 26  1  0  0  0  0
 30 27  1  0  0  0  0
 31 30  1  0  0  0  0
 32 24  1  0  0  0  0
 32 26  2  0  0  0  0
M  END
>  <MODEL>
1

>  <REMARK>
 VINA RESULT:     -12.6      0.000      0.000
  Name = 
  1 active torsions:
  status: ('A' for Active; 'I' for Inactive)
    1  A    between atoms: C_16  and  N_27
                            x       y       z     vdW  Elec       q    Type
                         _______ _______ _______ _____ _____    ______ ____

>  <TORSDO>
F 1

$$$$
=
 OpenBabel10272413083D

 32 37  0  0  0  0  0  0  0  0999 V2000
  189.2720  177.5210  143.1290 C   0  0  0  0  0  0  0  0  0  0  0  0
  187.3650  178.0010  144.6880 C   0  0  0  0  0  0  0  0  0  0  0  0
  190.6290  177.2540  142.8790 C   0  0  0  0  0  3  0  0  0  0  0  0
  188.8170  177.7080  144.4810 C   0  0  0  0  0  0  0  0  0  0  0  0
  186.7280  178.2010  145.8770 C   0  0  0  0  0  0  0  0  0  0  0  0
  182.9610  178.7760  142.6070 C   0  0  0  0  0  3  0  0  0  0  0  0
  186.5250  178.0840  143.4560 C   0  0  0  0  0  0  0  0  0  0  0  0
  183.2750  178.8380  145.0050 C   0  0  0  0  0  3  0  0  0  0  0  0
  184.6350  178.5560  144.8390 C   0  0  0  0  0  0  0  0  0  0  0  0
  188.4920  177.9640  147.5310 C   0  0  0  0  0  0  0  0  0  0  0  0
  189.7800  177.6080  145.5230 C   0  0  0  0  0  0  0  0  0  0  0  0
  185.4180  178.4650  145.9010 O   0  0  0  0  0  0  0  0  0  0  0  0
  189.5700  177.7300  146.8150 O   0  0  0  0  0  0  0  0  0  0  0  0
  191.1170  177.3490  145.2100 C   0  0  0  0  0  3  0  0  0  0  0  0
  187.0990  177.8760  142.2130 C   0  0  0  0  0  3  0  0  0  0  0  0
  188.6440  177.9980  148.8130 N   0  0  0  0  0  2  0  0  0  0  0  0
  188.4140  177.6020  142.0620 N   0  0  0  0  0  0  0  0  0  0  0  0
  185.1630  178.3740  143.5590 C   0  0  0  0  0  0  0  0  0  0  0  0
  187.2720  178.1700  147.0780 O   0  0  0  0  0  0  0  0  0  0  0  0
  191.5460  177.1680  143.9070 C   0  0  0  0  0  3  0  0  0  0  0  0
  182.4390  178.9480  143.8910 C   0  0  0  0  0  3  0  0  0  0  0  0
  184.3190  178.4870  142.4390 C   0  0  0  0  0  3  0  0  0  0  0  0
  188.7200  178.5020  138.4730 C   0  0  0  0  0  0  0  0  0  0  0  0
  191.1820  176.3700  136.9180 C   0  0  0  0  0  1  0  0  0  0  0  0
  187.9670  179.1350  137.5310 F   0  0  0  0  0  0  0  0  0  0  0  0
  190.4560  176.1090  139.2250 C   0  0  0  0  0  3  0  0  0  0  0  0
  188.8730  177.4080  140.7140 C   0  0  0  0  0  0  0  0  0  0  0  0
  190.1840  178.3470  138.2170 C   0  0  0  0  0  2  0  0  0  0  0  0
  189.8450  176.4980  140.5110 C   0  0  0  0  0  3  0  0  0  0  0  0
  188.1480  178.1160  139.6210 C   0  0  0  0  0  0  0  0  0  0  0  0
  186.8050  178.4200  139.8230 O   0  0  0  0  0  1  0  0  0  0  0  0
  190.5660  176.9040  138.1610 C   0  0  0  0  0  0  0  0  0  0  0  0
  1  4  1  0  0  0  0
  2  5  2  0  0  0  0
  3  1  2  0  0  0  0
  3 20  1  0  0  0  0
  4  2  1  0  0  0  0
  4 11  2  0  0  0  0
  5 12  1  0  0  0  0
  5 19  1  0  0  0  0
  6 21  1  0  0  0  0
  7 18  1  0  0  0  0
  7  2  1  0  0  0  0
  9  8  1  0  0  0  0
  9 12  1  0  0  0  0
 10 16  2  0  0  0  0
 11 13  1  0  0  0  0
 13 10  1  0  0  0  0
 14 11  1  0  0  0  0
 15  7  2  0  0  0  0
 17 15  1  0  0  0  0
 17  1  1  0  0  0  0
 18  9  2  0  0  0  0
 19 10  1  0  0  0  0
 20 14  2  0  0  0  0
 21  8  2  0  0  0  0
 22  6  2  0  0  0  0
 22 18  1  0  0  0  0
 23 30  2  0  0  0  0
 24 32  1  0  0  0  0
 25 23  1  0  0  0  0
 26 29  1  0  0  0  0
 27 17  1  0  0  0  0
 28 23  1  0  0  0  0
 29 27  2  0  0  0  0
 30 31  1  0  0  0  0
 30 27  1  0  0  0  0
 32 28  1  0  0  0  0
 32 26  2  0  0  0  0
M  END
>  <MODEL>
2

>  <REMARK>
 VINA RESULT:     -12.1      1.871      6.029
  Name = 
  1 active torsions:
  status: ('A' for Active; 'I' for Inactive)
    1  A    between atoms: C_16  and  N_27
                            x       y       z     vdW  Elec       q    Type
                         _______ _______ _______ _____ _____    ______ ____

>  <TORSDO>
F 1

$$$$
=
 OpenBabel10272413083D

 32 37  0  0  0  0  0  0  0  0999 V2000
  187.3150  178.0450  141.5450 C   0  0  0  0  0  0  0  0  0  0  0  0
  187.4890  177.8580  144.0410 C   0  0  0  0  0  0  0  0  0  0  0  0
  186.5920  178.3280  140.3720 C   0  0  0  0  0  3  0  0  0  0  0  0
  186.6770  178.1820  142.8280 C   0  0  0  0  0  0  0  0  0  0  0  0
  187.0870  177.9280  145.3420 C   0  0  0  0  0  0  0  0  0  0  0  0
  191.8060  176.2860  145.8350 C   0  0  0  0  0  3  0  0  0  0  0  0
  188.8910  177.4050  143.7980 C   0  0  0  0  0  0  0  0  0  0  0  0
  189.9520  176.8620  147.2770 C   0  0  0  0  0  3  0  0  0  0  0  0
  189.1740  177.1810  146.1590 C   0  0  0  0  0  0  0  0  0  0  0  0
  184.7860  178.6980  145.2010 C   0  0  0  0  0  0  0  0  0  0  0  0
  185.3210  178.6090  142.8500 C   0  0  0  0  0  0  0  0  0  0  0  0
  187.9290  177.5930  146.3240 O   0  0  0  0  0  0  0  0  0  0  0  0
  184.5680  178.8100  143.9090 O   0  0  0  0  0  0  0  0  0  0  0  0
  184.6540  178.8670  141.6500 C   0  0  0  0  0  3  0  0  0  0  0  0
  189.3760  177.3250  142.5020 C   0  0  0  0  0  3  0  0  0  0  0  0
  183.8060  179.0040  145.9840 N   0  0  0  0  0  2  0  0  0  0  0  0
  188.6190  177.6360  141.4280 N   0  0  0  0  0  0  0  0  0  0  0  0
  189.7110  177.0630  144.8750 C   0  0  0  0  0  0  0  0  0  0  0  0
  185.9010  178.3020  145.7810 O   0  0  0  0  0  0  0  0  0  0  0  0
  185.2750  178.7350  140.4200 C   0  0  0  0  0  3  0  0  0  0  0  0
  191.2660  176.4160  147.1160 C   0  0  0  0  0  3  0  0  0  0  0  0
  191.0330  176.6110  144.7150 C   0  0  0  0  0  3  0  0  0  0  0  0
  191.3970  176.7010  139.1490 C   0  0  0  0  0  0  0  0  0  0  0  0
  190.2610  176.9350  135.7310 C   0  0  0  0  0  1  0  0  0  0  0  0
  192.7550  176.6320  139.2010 F   0  0  0  0  0  0  0  0  0  0  0  0
  188.9030  177.5960  137.6380 C   0  0  0  0  0  3  0  0  0  0  0  0
  189.2510  177.5070  140.1440 C   0  0  0  0  0  0  0  0  0  0  0  0
  190.6950  175.9520  138.0620 C   0  0  0  0  0  2  0  0  0  0  0  0
  188.4790  177.6590  139.0500 C   0  0  0  0  0  3  0  0  0  0  0  0
  190.7330  177.3610  140.1080 C   0  0  0  0  0  0  0  0  0  0  0  0
  191.4670  177.9180  141.1510 O   0  0  0  0  0  1  0  0  0  0  0  0
  189.9310  176.8830  137.1800 C   0  0  0  0  0  0  0  0  0  0  0  0
  1  4  1  0  0  0  0
  2  5  2  0  0  0  0
  3 20  1  0  0  0  0
  3  1  2  0  0  0  0
  4 11  2  0  0  0  0
  4  2  1  0  0  0  0
  5 19  1  0  0  0  0
  5 12  1  0  0  0  0
  6 21  1  0  0  0  0
  7  2  1  0  0  0  0
  7 18  1  0  0  0  0
  9 12  1  0  0  0  0
  9  8  1  0  0  0  0
 10 19  1  0  0  0  0
 10 16  2  0  0  0  0
 11 13  1  0  0  0  0
 13 10  1  0  0  0  0
 14 11  1  0  0  0  0
 15  7  2  0  0  0  0
 17  1  1  0  0  0  0
 17 15  1  0  0  0  0
 18  9  2  0  0  0  0
 20 14  2  0  0  0  0
 21  8  2  0  0  0  0
 22 18  1  0  0  0  0
 22  6  2  0  0  0  0
 23 25  1  0  0  0  0
 23 30  2  0  0  0  0
 24 32  1  0  0  0  0
 26 29  1  0  0  0  0
 27 17  1  0  0  0  0
 28 23  1  0  0  0  0
 29 27  2  0  0  0  0
 30 27  1  0  0  0  0
 30 31  1  0  0  0  0
 32 26  2  0  0  0  0
 32 28  1  0  0  0  0
M  END
>  <MODEL>
3

>  <REMARK>
 VINA RESULT:     -12.0      2.759      6.607
  Name = 
  1 active torsions:
  status: ('A' for Active; 'I' for Inactive)
    1  A    between atoms: C_16  and  N_27
                            x       y       z     vdW  Elec       q    Type
                         _______ _______ _______ _____ _____    ______ ____

>  <TORSDO>
F 1

$$$$
=
 OpenBabel10272413083D

 32 37  0  0  0  0  0  0  0  0999 V2000
  186.3850  177.9460  144.6490 C   0  0  0  0  0  0  0  0  0  0  0  0
  185.3080  178.4640  142.4420 C   0  0  0  0  0  0  0  0  0  0  0  0
  186.3510  177.8580  146.0520 C   0  0  0  0  0  3  0  0  0  0  0  0
  185.2140  178.3780  143.9320 C   0  0  0  0  0  0  0  0  0  0  0  0
  184.3240  178.8380  141.5760 C   0  0  0  0  0  0  0  0  0  0  0  0
  188.1430  177.9570  138.4390 C   0  0  0  0  0  3  0  0  0  0  0  0
  186.6270  178.1020  141.8410 C   0  0  0  0  0  0  0  0  0  0  0  0
  185.8320  178.6540  138.2930 C   0  0  0  0  0  3  0  0  0  0  0  0
  185.7140  178.5720  139.6840 C   0  0  0  0  0  0  0  0  0  0  0  0
  182.4260  179.3100  143.0180 C   0  0  0  0  0  0  0  0  0  0  0  0
  184.0540  178.6980  144.6910 C   0  0  0  0  0  0  0  0  0  0  0  0
  184.5640  178.8760  140.2620 O   0  0  0  0  0  0  0  0  0  0  0  0
  182.8880  179.0940  144.2310 O   0  0  0  0  0  0  0  0  0  0  0  0
  184.0860  178.5980  146.0840 C   0  0  0  0  0  3  0  0  0  0  0  0
  187.6700  177.6970  142.6570 C   0  0  0  0  0  3  0  0  0  0  0  0
  181.1930  179.6810  142.9250 N   0  0  0  0  0  2  0  0  0  0  0  0
  187.5470  177.6190  144.0000 N   0  0  0  0  0  0  0  0  0  0  0  0
  186.8060  178.1750  140.4580 C   0  0  0  0  0  0  0  0  0  0  0  0
  183.0930  179.1920  141.8880 O   0  0  0  0  0  0  0  0  0  0  0  0
  185.2150  178.1810  146.7660 C   0  0  0  0  0  3  0  0  0  0  0  0
  187.0440  178.3460  137.6700 C   0  0  0  0  0  3  0  0  0  0  0  0
  188.0260  177.8680  139.8290 C   0  0  0  0  0  3  0  0  0  0  0  0
  191.0680  176.4730  144.2880 C   0  0  0  0  0  0  0  0  0  0  0  0
  192.0300  176.4520  147.7670 C   0  0  0  0  0  1  0  0  0  0  0  0
  191.9530  175.7610  143.5390 F   0  0  0  0  0  0  0  0  0  0  0  0
  189.7750  176.9590  147.0090 C   0  0  0  0  0  3  0  0  0  0  0  0
  188.7120  177.1830  144.7220 C   0  0  0  0  0  0  0  0  0  0  0  0
  191.6040  177.3270  145.3910 C   0  0  0  0  0  2  0  0  0  0  0  0
  188.7140  177.3480  146.0590 C   0  0  0  0  0  3  0  0  0  0  0  0
  189.7670  176.4510  143.9670 C   0  0  0  0  0  0  0  0  0  0  0  0
  189.3780  175.7280  142.8430 O   0  0  0  0  0  1  0  0  0  0  0  0
  191.0730  176.8860  146.7150 C   0  0  0  0  0  0  0  0  0  0  0  0
  1  3  1  0  0  0  0
  2  4  1  0  0  0  0
  3 20  2  0  0  0  0
  4  1  2  0  0  0  0
  4 11  1  0  0  0  0
  5 19  1  0  0  0  0
  5  2  2  0  0  0  0
  6 22  1  0  0  0  0
  7  2  1  0  0  0  0
  7 15  2  0  0  0  0
  8  9  2  0  0  0  0
  9 12  1  0  0  0  0
  9 18  1  0  0  0  0
 10 13  1  0  0  0  0
 11 14  2  0  0  0  0
 12  5  1  0  0  0  0
 13 11  1  0  0  0  0
 14 20  1  0  0  0  0
 15 17  1  0  0  0  0
 16 10  2  0  0  0  0
 17  1  1  0  0  0  0
 17 27  1  0  0  0  0
 18  7  1  0  0  0  0
 19 10  1  0  0  0  0
 21  8  1  0  0  0  0
 21  6  2  0  0  0  0
 22 18  2  0  0  0  0
 23 28  1  0  0  0  0
 25 23  1  0  0  0  0
 27 29  2  0  0  0  0
 28 32  1  0  0  0  0
 29 26  1  0  0  0  0
 30 23  2  0  0  0  0
 30 27  1  0  0  0  0
 31 30  1  0  0  0  0
 32 26  2  0  0  0  0
 32 24  1  0  0  0  0
M  END
>  <MODEL>
4

>  <REMARK>
 VINA RESULT:     -11.8      2.618      6.485
  Name = 
  1 active torsions:
  status: ('A' for Active; 'I' for Inactive)
    1  A    between atoms: C_16  and  N_27
                            x       y       z     vdW  Elec       q    Type
                         _______ _______ _______ _____ _____    ______ ____

>  <TORSDO>
F 1

$$$$
=
 OpenBabel10272413083D

 32 37  0  0  0  0  0  0  0  0999 V2000
  189.2590  177.5880  142.5840 C   0  0  0  0  0  0  0  0  0  0  0  0
  187.0310  178.1980  141.6030 C   0  0  0  0  0  0  0  0  0  0  0  0
  190.6220  177.2690  142.4550 C   0  0  0  0  0  3  0  0  0  0  0  0
  188.4780  177.8750  141.4100 C   0  0  0  0  0  0  0  0  0  0  0  0
  186.1200  178.5060  140.6360 C   0  0  0  0  0  0  0  0  0  0  0  0
  183.2940  178.7120  144.7810 C   0  0  0  0  0  3  0  0  0  0  0  0
  186.5310  178.1790  143.0110 C   0  0  0  0  0  0  0  0  0  0  0  0
  183.0090  179.0420  142.4020 C   0  0  0  0  0  3  0  0  0  0  0  0
  184.3610  178.7520  142.1940 C   0  0  0  0  0  0  0  0  0  0  0  0
  187.4030  178.4070  138.5750 C   0  0  0  0  0  0  0  0  0  0  0  0
  189.1350  177.8230  140.1490 C   0  0  0  0  0  0  0  0  0  0  0  0
  184.8510  178.7640  140.9660 O   0  0  0  0  0  0  0  0  0  0  0  0
  188.6100  178.0630  138.9680 O   0  0  0  0  0  0  0  0  0  0  0  0
  190.4910  177.4900  140.0860 C   0  0  0  0  0  3  0  0  0  0  0  0
  187.4020  177.8900  144.0490 C   0  0  0  0  0  3  0  0  0  0  0  0
  187.2360  178.5890  137.3070 N   0  0  0  0  0  2  0  0  0  0  0  0
  188.7080  177.6130  143.8390 N   0  0  0  0  0  0  0  0  0  0  0  0
  185.1880  178.4500  143.2780 C   0  0  0  0  0  0  0  0  0  0  0  0
  186.3440  178.5830  139.3390 O   0  0  0  0  0  0  0  0  0  0  0  0
  191.2360  177.2190  141.2200 C   0  0  0  0  0  3  0  0  0  0  0  0
  182.4750  179.0220  143.6930 C   0  0  0  0  0  3  0  0  0  0  0  0
  184.6490  178.4280  144.5770 C   0  0  0  0  0  3  0  0  0  0  0  0
  189.2030  177.0020  147.4690 C   0  0  0  0  0  0  0  0  0  0  0  0
  192.5860  175.8820  148.0350 C   0  0  0  0  0  1  0  0  0  0  0  0
  188.6210  177.3860  148.6370 F   0  0  0  0  0  0  0  0  0  0  0  0
  191.7610  176.5900  145.8590 C   0  0  0  0  0  3  0  0  0  0  0  0
  189.4950  177.3320  145.0090 C   0  0  0  0  0  0  0  0  0  0  0  0
  190.0810  175.7930  147.4830 C   0  0  0  0  0  2  0  0  0  0  0  0
  190.7620  176.9130  144.8220 C   0  0  0  0  0  3  0  0  0  0  0  0
  188.9100  177.6610  146.3390 C   0  0  0  0  0  0  0  0  0  0  0  0
  187.9800  178.6940  146.4020 O   0  0  0  0  0  1  0  0  0  0  0  0
  191.4760  176.1410  147.0810 C   0  0  0  0  0  0  0  0  0  0  0  0
  1 17  1  0  0  0  0
  2  7  1  0  0  0  0
  3  1  1  0  0  0  0
  4  2  1  0  0  0  0
  4  1  2  0  0  0  0
  5 12  1  0  0  0  0
  5  2  2  0  0  0  0
  7 18  1  0  0  0  0
  7 15  2  0  0  0  0
  8 21  1  0  0  0  0
  9  8  2  0  0  0  0
  9 18  1  0  0  0  0
 10 13  1  0  0  0  0
 10 19  1  0  0  0  0
 11  4  1  0  0  0  0
 12  9  1  0  0  0  0
 13 11  1  0  0  0  0
 14 11  2  0  0  0  0
 14 20  1  0  0  0  0
 16 10  2  0  0  0  0
 17 15  1  0  0  0  0
 17 27  1  0  0  0  0
 18 22  2  0  0  0  0
 19  5  1  0  0  0  0
 20  3  2  0  0  0  0
 21  6  2  0  0  0  0
 22  6  1  0  0  0  0
 23 28  1  0  0  0  0
 23 25  1  0  0  0  0
 26 32  2  0  0  0  0
 27 30  1  0  0  0  0
 29 27  2  0  0  0  0
 29 26  1  0  0  0  0
 30 31  1  0  0  0  0
 30 23  2  0  0  0  0
 32 28  1  0  0  0  0
 32 24  1  0  0  0  0
M  END
>  <MODEL>
5

>  <REMARK>
 VINA RESULT:     -11.8      2.610      7.467
  Name = 
  1 active torsions:
  status: ('A' for Active; 'I' for Inactive)
    1  A    between atoms: C_16  and  N_27
                            x       y       z     vdW  Elec       q    Type
                         _______ _______ _______ _____ _____    ______ ____

>  <TORSDO>
F 1

$$$$
=
 OpenBabel10272413083D

 32 37  0  0  0  0  0  0  0  0999 V2000
  186.6790  177.9950  143.2490 C   0  0  0  0  0  0  0  0  0  0  0  0
  186.2290  178.3920  140.8120 C   0  0  0  0  0  0  0  0  0  0  0  0
  186.2710  177.9670  144.5940 C   0  0  0  0  0  3  0  0  0  0  0  0
  185.7390  178.3690  142.2250 C   0  0  0  0  0  0  0  0  0  0  0  0
  185.5100  178.7070  139.6980 C   0  0  0  0  0  0  0  0  0  0  0  0
  190.0390  177.7750  137.7420 C   0  0  0  0  0  3  0  0  0  0  0  0
  187.6640  178.0340  140.6040 C   0  0  0  0  0  0  0  0  0  0  0  0
  187.8440  178.4130  136.9500 C   0  0  0  0  0  3  0  0  0  0  0  0
  187.3590  178.3900  138.2620 C   0  0  0  0  0  0  0  0  0  0  0  0
  183.2900  179.1990  140.5560 C   0  0  0  0  0  0  0  0  0  0  0  0
  184.4150  178.6960  142.6300 C   0  0  0  0  0  0  0  0  0  0  0  0
  186.0930  178.6930  138.4960 O   0  0  0  0  0  0  0  0  0  0  0  0
  183.4110  179.0460  141.8570 O   0  0  0  0  0  0  0  0  0  0  0  0
  184.0740  178.6570  143.9840 C   0  0  0  0  0  3  0  0  0  0  0  0
  188.4540  177.6870  141.6880 C   0  0  0  0  0  3  0  0  0  0  0  0
  182.1240  179.5390  140.1180 N   0  0  0  0  0  2  0  0  0  0  0  0
  187.9760  177.6650  142.9510 N   0  0  0  0  0  0  0  0  0  0  0  0
  188.2070  178.0500  139.3180 C   0  0  0  0  0  0  0  0  0  0  0  0
  184.2360  179.0460  139.6520 O   0  0  0  0  0  0  0  0  0  0  0  0
  184.9820  178.2950  144.9620 C   0  0  0  0  0  3  0  0  0  0  0  0
  189.1820  178.1060  136.6900 C   0  0  0  0  0  3  0  0  0  0  0  0
  189.5540  177.7440  139.0540 C   0  0  0  0  0  3  0  0  0  0  0  0
  191.1870  176.2880  144.2090 C   0  0  0  0  0  0  0  0  0  0  0  0
  191.4400  176.9130  147.7550 C   0  0  0  0  0  1  0  0  0  0  0  0
  192.0980  175.3560  143.8180 F   0  0  0  0  0  0  0  0  0  0  0  0
  189.4650  177.4530  146.4420 C   0  0  0  0  0  3  0  0  0  0  0  0
  188.9080  177.2870  143.9780 C   0  0  0  0  0  0  0  0  0  0  0  0
  191.6070  177.3030  145.2230 C   0  0  0  0  0  2  0  0  0  0  0  0
  188.6710  177.7280  145.2290 C   0  0  0  0  0  3  0  0  0  0  0  0
  189.9830  176.3180  143.6220 C   0  0  0  0  0  0  0  0  0  0  0  0
  189.7280  175.4130  142.5960 O   0  0  0  0  0  1  0  0  0  0  0  0
  190.7730  177.2010  146.4580 C   0  0  0  0  0  0  0  0  0  0  0  0
  1  3  1  0  0  0  0
  2  4  1  0  0  0  0
  3 20  2  0  0  0  0
  4 11  1  0  0  0  0
  4  1  2  0  0  0  0
  5  2  2  0  0  0  0
  6 22  1  0  0  0  0
  7  2  1  0  0  0  0
  7 15  2  0  0  0  0
  8  9  2  0  0  0  0
  9 12  1  0  0  0  0
  9 18  1  0  0  0  0
 10 13  1  0  0  0  0
 11 14  2  0  0  0  0
 12  5  1  0  0  0  0
 13 11  1  0  0  0  0
 14 20  1  0  0  0  0
 15 17  1  0  0  0  0
 16 10  2  0  0  0  0
 17  1  1  0  0  0  0
 17 27  1  0  0  0  0
 18  7  1  0  0  0  0
 19  5  1  0  0  0  0
 19 10  1  0  0  0  0
 21  8  1  0  0  0  0
 21  6  2  0  0  0  0
 22 18  2  0  0  0  0
 23 28  1  0  0  0  0
 25 23  1  0  0  0  0
 26 32  2  0  0  0  0
 27 29  2  0  0  0  0
 28 32  1  0  0  0  0
 29 26  1  0  0  0  0
 30 27  1  0  0  0  0
 30 23  2  0  0  0  0
 31 30  1  0  0  0  0
 32 24  1  0  0  0  0
M  END
>  <MODEL>
6

>  <REMARK>
 VINA RESULT:     -11.8      2.722      6.461
  Name = 
  1 active torsions:
  status: ('A' for Active; 'I' for Inactive)
    1  A    between atoms: C_16  and  N_27
                            x       y       z     vdW  Elec       q    Type
                         _______ _______ _______ _____ _____    ______ ____

>  <TORSDO>
F 1

$$$$
=
 OpenBabel10272413083D

 32 37  0  0  0  0  0  0  0  0999 V2000
  187.6380  178.0080  141.6950 C   0  0  0  0  0  0  0  0  0  0  0  0
  189.8630  177.4500  142.7130 C   0  0  0  0  0  0  0  0  0  0  0  0
  186.8280  178.3310  140.5920 C   0  0  0  0  0  3  0  0  0  0  0  0
  189.0470  177.7800  141.5040 C   0  0  0  0  0  0  0  0  0  0  0  0
  191.2010  177.1910  142.7560 C   0  0  0  0  0  0  0  0  0  0  0  0
  189.9440  176.7890  147.5990 C   0  0  0  0  0  3  0  0  0  0  0  0
  189.1310  177.4020  144.0140 C   0  0  0  0  0  0  0  0  0  0  0  0
  191.9360  176.5760  146.2440 C   0  0  0  0  0  3  0  0  0  0  0  0
  191.1930  176.8730  145.0960 C   0  0  0  0  0  0  0  0  0  0  0  0
  191.9080  177.3880  140.4390 C   0  0  0  0  0  0  0  0  0  0  0  0
  189.5620  177.8920  140.1830 C   0  0  0  0  0  0  0  0  0  0  0  0
  191.7960  176.9200  143.9210 O   0  0  0  0  0  0  0  0  0  0  0  0
  190.8050  177.7100  139.7970 O   0  0  0  0  0  0  0  0  0  0  0  0
  188.7060  178.2250  139.1300 C   0  0  0  0  0  3  0  0  0  0  0  0
  187.7660  177.6380  144.0470 C   0  0  0  0  0  3  0  0  0  0  0  0
  192.9790  177.2690  139.7280 N   0  0  0  0  0  2  0  0  0  0  0  0
  187.0560  177.9230  142.9330 N   0  0  0  0  0  0  0  0  0  0  0  0
  189.8220  177.1210  145.1940 C   0  0  0  0  0  0  0  0  0  0  0  0
  192.0340  177.1770  141.7330 O   0  0  0  0  0  0  0  0  0  0  0  0
  187.3530  178.4400  139.3210 C   0  0  0  0  0  3  0  0  0  0  0  0
  191.3130  176.5340  147.4940 C   0  0  0  0  0  3  0  0  0  0  0  0
  189.1980  177.0800  146.4530 C   0  0  0  0  0  3  0  0  0  0  0  0
  184.0540  178.9310  144.8730 C   0  0  0  0  0  0  0  0  0  0  0  0
  181.2090  179.0980  142.6590 C   0  0  0  0  0  1  0  0  0  0  0  0
  183.6530  178.9210  146.1740 F   0  0  0  0  0  0  0  0  0  0  0  0
  183.4050  178.3240  141.9550 C   0  0  0  0  0  3  0  0  0  0  0  0
  185.6470  178.1450  143.1160 C   0  0  0  0  0  0  0  0  0  0  0  0
  183.3270  179.8200  143.9180 C   0  0  0  0  0  2  0  0  0  0  0  0
  184.8680  178.1450  142.0170 C   0  0  0  0  0  3  0  0  0  0  0  0
  185.1270  178.2150  144.5100 C   0  0  0  0  0  0  0  0  0  0  0  0
  185.8190  177.5180  145.4970 O   0  0  0  0  0  1  0  0  0  0  0  0
  182.6840  179.0240  142.8300 C   0  0  0  0  0  0  0  0  0  0  0  0
  1 17  1  0  0  0  0
  2  5  2  0  0  0  0
  2  7  1  0  0  0  0
  3  1  2  0  0  0  0
  4  1  1  0  0  0  0
  4  2  1  0  0  0  0
  5 12  1  0  0  0  0
  7 15  2  0  0  0  0
  7 18  1  0  0  0  0
  8 21  2  0  0  0  0
  9 18  2  0  0  0  0
  9  8  1  0  0  0  0
 10 19  1  0  0  0  0
 11  4  2  0  0  0  0
 12  9  1  0  0  0  0
 13 11  1  0  0  0  0
 13 10  1  0  0  0  0
 14 20  2  0  0  0  0
 14 11  1  0  0  0  0
 16 10  2  0  0  0  0
 17 27  1  0  0  0  0
 17 15  1  0  0  0  0
 18 22  1  0  0  0  0
 19  5  1  0  0  0  0
 20  3  1  0  0  0  0
 21  6  1  0  0  0  0
 22  6  2  0  0  0  0
 23 25  1  0  0  0  0
 24 32  1  0  0  0  0
 26 29  1  0  0  0  0
 26 32  2  0  0  0  0
 27 30  1  0  0  0  0
 28 23  1  0  0  0  0
 29 27  2  0  0  0  0
 30 23  2  0  0  0  0
 30 31  1  0  0  0  0
 32 28  1  0  0  0  0
M  END
>  <MODEL>
7

>  <REMARK>
 VINA RESULT:     -11.7      2.212      4.810
  Name = 
  1 active torsions:
  status: ('A' for Active; 'I' for Inactive)
    1  A    between atoms: C_16  and  N_27
                            x       y       z     vdW  Elec       q    Type
                         _______ _______ _______ _____ _____    ______ ____

>  <TORSDO>
F 1

$$$$
=
 OpenBabel10272413083D

 32 37  0  0  0  0  0  0  0  0999 V2000
  184.9500  178.4580  143.2210 C   0  0  0  0  0  0  0  0  0  0  0  0
  185.1880  178.6140  140.7270 C   0  0  0  0  0  0  0  0  0  0  0  0
  184.1810  178.5180  144.3970 C   0  0  0  0  0  3  0  0  0  0  0  0
  184.3220  178.6790  141.9450 C   0  0  0  0  0  0  0  0  0  0  0  0
  184.7990  178.7830  139.4320 C   0  0  0  0  0  0  0  0  0  0  0  0
  189.7290  177.9950  138.9070 C   0  0  0  0  0  3  0  0  0  0  0  0
  186.6370  178.3370  140.9610 C   0  0  0  0  0  0  0  0  0  0  0  0
  187.8220  178.4140  137.4800 C   0  0  0  0  0  3  0  0  0  0  0  0
  186.9880  178.4700  138.6020 C   0  0  0  0  0  0  0  0  0  0  0  0
  182.4090  179.1960  139.5890 C   0  0  0  0  0  0  0  0  0  0  0  0
  182.9250  178.9500  141.9330 C   0  0  0  0  0  0  0  0  0  0  0  0
  185.6970  178.7050  138.4450 O   0  0  0  0  0  0  0  0  0  0  0  0
  182.1660  179.1630  140.8810 O   0  0  0  0  0  0  0  0  0  0  0  0
  182.2180  179.0040  143.1370 C   0  0  0  0  0  3  0  0  0  0  0  0
  187.1030  178.1390  142.2500 C   0  0  0  0  0  3  0  0  0  0  0  0
  181.4000  179.4170  138.8140 N   0  0  0  0  0  2  0  0  0  0  0  0
  186.2910  178.1930  143.3280 N   0  0  0  0  0  0  0  0  0  0  0  0
  187.5190  178.2800  139.8790 C   0  0  0  0  0  0  0  0  0  0  0  0
  183.5770  179.0310  139.0020 O   0  0  0  0  0  0  0  0  0  0  0  0
  182.8290  178.7880  144.3590 C   0  0  0  0  0  3  0  0  0  0  0  0
  189.1910  178.1760  137.6320 C   0  0  0  0  0  3  0  0  0  0  0  0
  188.8970  178.0440  140.0300 C   0  0  0  0  0  3  0  0  0  0  0  0
  189.1120  177.2660  145.5570 C   0  0  0  0  0  0  0  0  0  0  0  0
  188.2320  178.0380  148.9710 C   0  0  0  0  0  1  0  0  0  0  0  0
  190.1930  176.4400  145.5130 F   0  0  0  0  0  0  0  0  0  0  0  0
  186.6900  178.2850  147.1070 C   0  0  0  0  0  3  0  0  0  0  0  0
  186.9110  177.9670  144.6050 C   0  0  0  0  0  0  0  0  0  0  0  0
  189.1000  178.3590  146.5770 C   0  0  0  0  0  2  0  0  0  0  0  0
  186.2670  178.4190  145.6990 C   0  0  0  0  0  3  0  0  0  0  0  0
  188.1410  177.1270  144.6440 C   0  0  0  0  0  0  0  0  0  0  0  0
  188.3010  176.1630  143.6530 O   0  0  0  0  0  1  0  0  0  0  0  0
  187.9530  178.1970  147.5200 C   0  0  0  0  0  0  0  0  0  0  0  0
  1 17  1  0  0  0  0
  1  3  1  0  0  0  0
  2  7  1  0  0  0  0
  2  4  1  0  0  0  0
  4  1  2  0  0  0  0
  5  2  2  0  0  0  0
  6 22  1  0  0  0  0
  7 15  2  0  0  0  0
  8 21  1  0  0  0  0
  8  9  2  0  0  0  0
  9 18  1  0  0  0  0
 10 13  1  0  0  0  0
 11  4  1  0  0  0  0
 11 14  2  0  0  0  0
 12  9  1  0  0  0  0
 12  5  1  0  0  0  0
 13 11  1  0  0  0  0
 14 20  1  0  0  0  0
 15 17  1  0  0  0  0
 16 10  2  0  0  0  0
 17 27  1  0  0  0  0
 18 22  2  0  0  0  0
 18  7  1  0  0  0  0
 19  5  1  0  0  0  0
 19 10  1  0  0  0  0
 20  3  2  0  0  0  0
 21  6  2  0  0  0  0
 23 28  1  0  0  0  0
 25 23  1  0  0  0  0
 26 32  2  0  0  0  0
 27 30  1  0  0  0  0
 27 29  2  0  0  0  0
 28 32  1  0  0  0  0
 29 26  1  0  0  0  0
 30 23  2  0  0  0  0
 31 30  1  0  0  0  0
 32 24  1  0  0  0  0
M  END
>  <MODEL>
8

>  <REMARK>
 VINA RESULT:     -11.7      2.566      6.346
  Name = 
  1 active torsions:
  status: ('A' for Active; 'I' for Inactive)
    1  A    between atoms: C_16  and  N_27
                            x       y       z     vdW  Elec       q    Type
                         _______ _______ _______ _____ _____    ______ ____

>  <TORSDO>
F 1

$$$$
=
 OpenBabel10272413083D

 32 37  0  0  0  0  0  0  0  0999 V2000
  184.5400  178.6490  142.5000 C   0  0  0  0  0  0  0  0  0  0  0  0
  186.9670  178.1090  142.8450 C   0  0  0  0  0  0  0  0  0  0  0  0
  183.2490  178.9100  142.9900 C   0  0  0  0  0  3  0  0  0  0  0  0
  185.6160  178.3900  143.4210 C   0  0  0  0  0  0  0  0  0  0  0  0
  188.1150  177.8490  143.5310 C   0  0  0  0  0  0  0  0  0  0  0  0
  189.6920  177.5280  138.7760 C   0  0  0  0  0  3  0  0  0  0  0  0
  187.0640  178.1110  141.3540 C   0  0  0  0  0  0  0  0  0  0  0  0
  190.6370  177.3190  140.9920 C   0  0  0  0  0  3  0  0  0  0  0  0
  189.3860  177.5890  141.5570 C   0  0  0  0  0  0  0  0  0  0  0  0
  187.4400  177.9610  145.8630 C   0  0  0  0  0  0  0  0  0  0  0  0
  185.3160  178.4130  144.8110 C   0  0  0  0  0  0  0  0  0  0  0  0
  189.2520  177.6050  142.8720 O   0  0  0  0  0  0  0  0  0  0  0  0
  186.1510  178.2190  145.8080 O   0  0  0  0  0  0  0  0  0  0  0  0
  184.0100  178.6700  145.2360 C   0  0  0  0  0  3  0  0  0  0  0  0
  185.9420  178.3840  140.5890 C   0  0  0  0  0  3  0  0  0  0  0  0
  187.9590  177.8480  147.0400 N   0  0  0  0  0  2  0  0  0  0  0  0
  184.7370  178.6460  141.1430 N   0  0  0  0  0  0  0  0  0  0  0  0
  188.2850  177.8380  140.7340 C   0  0  0  0  0  0  0  0  0  0  0  0
  188.2570  177.8010  144.8420 O   0  0  0  0  0  0  0  0  0  0  0  0
  182.9820  178.9210  144.3440 C   0  0  0  0  0  3  0  0  0  0  0  0
  190.7910  177.2880  139.6040 C   0  0  0  0  0  3  0  0  0  0  0  0
  188.4410  177.8050  139.3370 C   0  0  0  0  0  3  0  0  0  0  0  0
  181.3410  178.1220  139.7350 C   0  0  0  0  0  0  0  0  0  0  0  0
  180.6170  180.7500  137.3700 C   0  0  0  0  0  1  0  0  0  0  0  0
  180.4640  177.0910  139.5930 F   0  0  0  0  0  0  0  0  0  0  0  0
  182.7720  180.5020  138.4710 C   0  0  0  0  0  3  0  0  0  0  0  0
  183.6600  178.9110  140.2290 C   0  0  0  0  0  0  0  0  0  0  0  0
  180.8160  179.5160  139.6120 C   0  0  0  0  0  2  0  0  0  0  0  0
  183.7340  180.0330  139.4860 C   0  0  0  0  0  3  0  0  0  0  0  0
  182.6150  177.8630  140.0580 C   0  0  0  0  0  0  0  0  0  0  0  0
  182.9820  176.5380  140.2800 O   0  0  0  0  0  1  0  0  0  0  0  0
  181.4670  180.2330  138.4750 C   0  0  0  0  0  0  0  0  0  0  0  0
  1  3  2  0  0  0  0
  1  4  1  0  0  0  0
  2  4  1  0  0  0  0
  2  5  2  0  0  0  0
  3 20  1  0  0  0  0
  4 11  2  0  0  0  0
  5 19  1  0  0  0  0
  6 22  2  0  0  0  0
  6 21  1  0  0  0  0
  7  2  1  0  0  0  0
  8  9  1  0  0  0  0
  9 12  1  0  0  0  0
 10 16  2  0  0  0  0
 11 14  1  0  0  0  0
 11 13  1  0  0  0  0
 12  5  1  0  0  0  0
 13 10  1  0  0  0  0
 15 17  1  0  0  0  0
 15  7  2  0  0  0  0
 17  1  1  0  0  0  0
 18  7  1  0  0  0  0
 18  9  2  0  0  0  0
 19 10  1  0  0  0  0
 20 14  2  0  0  0  0
 21  8  2  0  0  0  0
 22 18  1  0  0  0  0
 23 30  2  0  0  0  0
 24 32  1  0  0  0  0
 25 23  1  0  0  0  0
 26 32  2  0  0  0  0
 26 29  1  0  0  0  0
 27 17  1  0  0  0  0
 28 23  1  0  0  0  0
 29 27  2  0  0  0  0
 30 27  1  0  0  0  0
 30 31  1  0  0  0  0
 32 28  1  0  0  0  0
M  END
>  <MODEL>
9

>  <REMARK>
 VINA RESULT:     -11.6      2.270      3.344
  Name = 
  1 active torsions:
  status: ('A' for Active; 'I' for Inactive)
    1  A    between atoms: C_16  and  N_27
                            x       y       z     vdW  Elec       q    Type
                         _______ _______ _______ _____ _____    ______ ____

>  <TORSDO>
F 1

$$$$
