=
 OpenBabel10272400073D

 34 39  0  0  1  0  0  0  0  0999 V2000
  190.9790  176.8720  145.3060 C   0  0  0  0  0  0  0  0  0  0  0  0
  189.3310  177.2720  146.9200 C   0  0  2  0  0  3  0  0  0  0  0  0
  188.8080  177.4320  144.3320 C   0  0  0  0  0  0  0  0  0  0  0  0
  186.6980  177.9850  143.2340 C   0  0  1  0  0  3  0  0  0  0  0  0
  191.6850  176.6090  146.5820 C   0  0  1  0  0  3  0  0  0  0  0  0
  190.6230  176.8620  147.6510 C   0  0  2  0  0  3  0  0  0  0  0  0
  186.7040  177.4520  145.7390 C   0  0  0  0  0  3  0  0  0  0  0  0
  189.6510  177.2030  145.4600 C   0  0  0  0  0  0  0  0  0  0  0  0
  185.3230  178.0480  145.7260 C   0  0  0  0  0  3  0  0  0  0  0  0
  185.4110  178.3240  143.3020 C   0  0  0  0  0  3  0  0  0  0  0  0
  191.0420  175.4420  147.3150 C   0  0  0  0  0  2  0  0  0  0  0  0
  189.4240  177.3970  143.0310 C   0  0  0  0  0  0  0  0  0  0  0  0
  191.5770  176.8330  144.0570 C   0  0  0  0  0  3  0  0  0  0  0  0
  189.0180  178.7060  147.3160 C   0  0  0  0  0  1  0  0  0  0  0  0
  187.3410  177.9590  142.0050 O   0  0  0  0  0  0  0  0  0  0  0  0
  188.6990  177.6370  141.9000 C   0  0  0  0  0  0  0  0  0  0  0  0
  184.7090  178.4010  144.5930 C   0  0  0  0  0  0  0  0  0  0  0  0
  187.4710  177.6630  144.4510 C   0  0  0  0  0  0  0  0  0  0  0  0
  190.8020  177.1070  142.9340 C   0  0  0  0  0  3  0  0  0  0  0  0
  189.2690  178.4900  138.2610 C   0  0  0  0  0  0  0  0  0  0  0  0
  190.1810  177.5080  137.8680 C   0  0  0  0  0  3  0  0  0  0  0  0
  189.2560  177.5930  140.5220 C   0  0  0  0  0  0  0  0  0  0  0  0
  190.6240  176.5590  138.7930 C   0  0  0  0  0  3  0  0  0  0  0  0
  188.8050  178.5280  139.5790 C   0  0  0  0  0  3  0  0  0  0  0  0
  190.1590  176.5980  140.1100 C   0  0  0  0  0  3  0  0  0  0  0  0
  188.8320  179.4060  137.3640 F   0  0  0  0  0  0  0  0  0  0  0  0
  183.3310  178.9590  144.6480 C   0  0  0  0  0  2  0  0  0  0  0  0
  182.6500  178.8020  143.2980 C   0  0  0  0  0  2  0  0  0  0  0  0
  180.3530  178.2710  144.1080 C   0  0  0  0  0  1  0  0  0  0  0  0
  181.2090  179.2840  143.3680 C   0  0  2  0  0  3  0  0  0  0  0  0
  180.6270  179.6010  141.9860 C   0  0  0  0  0  2  0  0  0  0  0  0
  180.7500  177.4470  140.7240 O   0  0  0  0  0  1  0  0  0  0  0  0
  181.1980  178.7500  140.8970 C   0  0  0  0  0  0  0  0  0  0  0  0
  182.0700  179.2210  140.1210 O   0  0  0  0  0  0  0  0  0  0  0  0
  1  8  2  0  0  0  0
  1  5  1  0  0  0  0
  2 14  1  1  0  0  0
  2  6  1  0  0  0  0
  3 18  2  0  0  0  0
  3  8  1  0  0  0  0
  4 10  1  1  0  0  0
  4 18  1  0  0  0  0
  5 11  1  6  0  0  0
  5  6  1  0  0  0  0
  6 11  1  6  0  0  0
  8  2  1  0  0  0  0
  9  7  2  0  0  0  0
 10 17  2  0  0  0  0
 12  3  1  0  0  0  0
 13  1  1  0  0  0  0
 15  4  1  0  0  0  0
 16 15  1  0  0  0  0
 16 12  2  0  0  0  0
 17 27  1  0  0  0  0
 17  9  1  0  0  0  0
 18  7  1  0  0  0  0
 19 12  1  0  0  0  0
 19 13  2  0  0  0  0
 20 24  1  0  0  0  0
 21 20  2  0  0  0  0
 21 23  1  0  0  0  0
 22 16  1  0  0  0  0
 23 25  2  0  0  0  0
 24 22  2  0  0  0  0
 25 22  1  0  0  0  0
 26 20  1  0  0  0  0
 28 30  1  0  0  0  0
 28 27  1  0  0  0  0
 30 29  1  6  0  0  0
 31 30  1  0  0  0  0
 32 33  1  0  0  0  0
 33 31  1  0  0  0  0
 34 33  2  0  0  0  0
M  END
>  <MODEL>
1

>  <REMARK>
 VINA RESULT:     -10.7      0.000      0.000
  Name = 
  6 active torsions:
  status: ('A' for Active; 'I' for Inactive)
    1  A    between atoms: C_3  and  C_13
    2  A    between atoms: C_3  and  C_29
    3  A    between atoms: C_12  and  C_28
    4  A    between atoms: C_13  and  C_33
    5  A    between atoms: C_20  and  C_22
    6  A    between atoms: C_22  and  C_33
                            x       y       z     vdW  Elec       q    Type
                         _______ _______ _______ _____ _____    ______ ____

>  <TORSDO>
F 6

$$$$
=
 OpenBabel10272400073D

 34 39  0  0  1  0  0  0  0  0999 V2000
  189.3910  176.9350  146.0200 C   0  0  0  0  0  0  0  0  0  0  0  0
  191.2300  176.5430  144.6250 C   0  0  2  0  0  3  0  0  0  0  0  0
  188.9140  177.3870  143.6660 C   0  0  0  0  0  0  0  0  0  0  0  0
  188.3070  177.8670  141.3490 C   0  0  1  0  0  3  0  0  0  0  0  0
  190.4610  176.5510  146.9710 C   0  0  1  0  0  3  0  0  0  0  0  0
  191.6740  176.2940  146.0780 C   0  0  2  0  0  3  0  0  0  0  0  0
  190.7730  177.5380  141.9550 C   0  0  0  0  0  3  0  0  0  0  0  0
  189.8010  176.9800  144.7070 C   0  0  0  0  0  0  0  0  0  0  0  0
  190.9750  177.4140  140.4700 C   0  0  0  0  0  3  0  0  0  0  0  0
  188.6230  177.9220  140.0570 C   0  0  0  0  0  3  0  0  0  0  0  0
  191.6030  177.5550  146.9200 C   0  0  0  0  0  2  0  0  0  0  0  0
  187.5470  177.6560  144.0330 C   0  0  0  0  0  0  0  0  0  0  0  0
  188.0790  177.1950  146.3800 C   0  0  0  0  0  3  0  0  0  0  0  0
  191.3260  175.2180  143.8850 C   0  0  0  0  0  1  0  0  0  0  0  0
  186.9980  178.0970  141.7500 O   0  0  0  0  0  0  0  0  0  0  0  0
  186.6240  178.0190  143.0960 C   0  0  0  0  0  0  0  0  0  0  0  0
  189.9930  177.6440  139.5940 C   0  0  0  0  0  0  0  0  0  0  0  0
  189.3180  177.5370  142.3740 C   0  0  0  0  0  0  0  0  0  0  0  0
  187.1680  177.5410  145.3870 C   0  0  0  0  0  3  0  0  0  0  0  0
  182.9350  178.6800  142.5880 C   0  0  0  0  0  0  0  0  0  0  0  0
  182.5210  179.0350  143.8740 C   0  0  0  0  0  3  0  0  0  0  0  0
  185.2030  178.3380  143.4000 C   0  0  0  0  0  0  0  0  0  0  0  0
  183.4440  179.0550  144.9220 C   0  0  0  0  0  3  0  0  0  0  0  0
  184.2710  178.3400  142.3520 C   0  0  0  0  0  3  0  0  0  0  0  0
  184.7780  178.7140  144.6850 C   0  0  0  0  0  3  0  0  0  0  0  0
  182.0440  178.6690  141.5680 F   0  0  0  0  0  0  0  0  0  0  0  0
  190.2670  177.5320  138.1360 C   0  0  0  0  0  2  0  0  0  0  0  0
  189.3270  178.4380  137.3570 C   0  0  0  0  0  2  0  0  0  0  0  0
  189.2530  177.5060  135.0460 C   0  0  0  0  0  1  0  0  0  0  0  0
  188.5080  177.6280  136.3630 C   0  0  2  0  0  3  0  0  0  0  0  0
  187.1010  178.1990  136.1570 C   0  0  0  0  0  2  0  0  0  0  0  0
  185.8330  178.8490  138.2110 O   0  0  0  0  0  1  0  0  0  0  0  0
  186.1640  177.8750  137.2770 C   0  0  0  0  0  0  0  0  0  0  0  0
  185.6560  176.7270  137.3620 O   0  0  0  0  0  0  0  0  0  0  0  0
  1 13  1  0  0  0  0
  1  5  1  0  0  0  0
  2 14  1  6  0  0  0
  2  8  1  0  0  0  0
  2  6  1  0  0  0  0
  3 12  1  0  0  0  0
  3  8  1  0  0  0  0
  4 10  1  6  0  0  0
  4 15  1  0  0  0  0
  4 18  1  0  0  0  0
  5 11  1  1  0  0  0
  6 11  1  1  0  0  0
  6  5  1  0  0  0  0
  7 18  1  0  0  0  0
  8  1  2  0  0  0  0
  9  7  2  0  0  0  0
 12 19  1  0  0  0  0
 15 16  1  0  0  0  0
 16 22  1  0  0  0  0
 16 12  2  0  0  0  0
 17 10  2  0  0  0  0
 17  9  1  0  0  0  0
 18  3  2  0  0  0  0
 19 13  2  0  0  0  0
 20 21  1  0  0  0  0
 21 23  2  0  0  0  0
 22 25  2  0  0  0  0
 24 20  2  0  0  0  0
 24 22  1  0  0  0  0
 25 23  1  0  0  0  0
 26 20  1  0  0  0  0
 27 17  1  0  0  0  0
 28 27  1  0  0  0  0
 30 29  1  6  0  0  0
 30 28  1  0  0  0  0
 31 30  1  0  0  0  0
 31 33  1  0  0  0  0
 33 34  2  0  0  0  0
 33 32  1  0  0  0  0
M  END
>  <MODEL>
2

>  <REMARK>
 VINA RESULT:     -10.4      2.176      6.232
  Name = 
  6 active torsions:
  status: ('A' for Active; 'I' for Inactive)
    1  A    between atoms: C_3  and  C_13
    2  A    between atoms: C_3  and  C_29
    3  A    between atoms: C_12  and  C_28
    4  A    between atoms: C_13  and  C_33
    5  A    between atoms: C_20  and  C_22
    6  A    between atoms: C_22  and  C_33
                            x       y       z     vdW  Elec       q    Type
                         _______ _______ _______ _____ _____    ______ ____

>  <TORSDO>
F 6

$$$$
=
 OpenBabel10272400073D

 34 39  0  0  1  0  0  0  0  0999 V2000
  189.4210  176.9340  146.1030 C   0  0  0  0  0  0  0  0  0  0  0  0
  191.2740  176.5200  144.7350 C   0  0  2  0  0  3  0  0  0  0  0  0
  188.9730  177.3600  143.7380 C   0  0  0  0  0  0  0  0  0  0  0  0
  188.3950  177.8140  141.4090 C   0  0  1  0  0  3  0  0  0  0  0  0
  190.4780  176.5590  147.0720 C   0  0  1  0  0  3  0  0  0  0  0  0
  191.7000  176.2870  146.1960 C   0  0  2  0  0  3  0  0  0  0  0  0
  190.8530  177.4850  142.0480 C   0  0  0  0  0  3  0  0  0  0  0  0
  189.8460  176.9630  144.7940 C   0  0  0  0  0  0  0  0  0  0  0  0
  191.0720  177.3430  140.5670 C   0  0  0  0  0  3  0  0  0  0  0  0
  188.7280  177.8530  140.1200 C   0  0  0  0  0  3  0  0  0  0  0  0
  191.6230  177.5580  147.0230 C   0  0  0  0  0  2  0  0  0  0  0  0
  187.6030  177.6370  144.0860 C   0  0  0  0  0  0  0  0  0  0  0  0
  188.1050  177.2030  146.4450 C   0  0  0  0  0  3  0  0  0  0  0  0
  191.3750  175.1870  144.0120 C   0  0  0  0  0  1  0  0  0  0  0  0
  187.0830  178.0530  141.7910 O   0  0  0  0  0  0  0  0  0  0  0  0
  186.6920  177.9920  143.1340 C   0  0  0  0  0  0  0  0  0  0  0  0
  190.1010  177.5650  139.6770 C   0  0  0  0  0  0  0  0  0  0  0  0
  189.3930  177.4930  142.4500 C   0  0  0  0  0  0  0  0  0  0  0  0
  187.2070  177.5390  145.4360 C   0  0  0  0  0  3  0  0  0  0  0  0
  183.0120  178.6560  142.5730 C   0  0  0  0  0  0  0  0  0  0  0  0
  182.5830  179.0290  143.8490 C   0  0  0  0  0  3  0  0  0  0  0  0
  185.2690  178.3180  143.4160 C   0  0  0  0  0  0  0  0  0  0  0  0
  183.4940  179.0600  144.9080 C   0  0  0  0  0  3  0  0  0  0  0  0
  184.3490  178.3100  142.3580 C   0  0  0  0  0  3  0  0  0  0  0  0
  184.8300  178.7130  144.6910 C   0  0  0  0  0  3  0  0  0  0  0  0
  182.1320  178.6340  141.5430 F   0  0  0  0  0  0  0  0  0  0  0  0
  190.3930  177.4350  138.2240 C   0  0  0  0  0  2  0  0  0  0  0  0
  190.1720  176.0000  137.7740 C   0  0  0  0  0  2  0  0  0  0  0  0
  190.8390  174.6030  135.8190 C   0  0  0  0  0  1  0  0  0  0  0  0
  191.3370  175.5250  136.9190 C   0  0  2  0  0  3  0  0  0  0  0  0
  192.4420  174.8580  137.7470 C   0  0  0  0  0  2  0  0  0  0  0  0
  194.7930  175.1960  138.5260 O   0  0  0  0  0  1  0  0  0  0  0  0
  193.6900  175.6780  137.8330 C   0  0  0  0  0  0  0  0  0  0  0  0
  193.7500  176.7960  137.2580 O   0  0  0  0  0  0  0  0  0  0  0  0
  1 13  1  0  0  0  0
  1  5  1  0  0  0  0
  2 14  1  6  0  0  0
  2  8  1  0  0  0  0
  2  6  1  0  0  0  0
  3 12  1  0  0  0  0
  3  8  1  0  0  0  0
  4 10  1  6  0  0  0
  4 15  1  0  0  0  0
  4 18  1  0  0  0  0
  5 11  1  1  0  0  0
  6 11  1  1  0  0  0
  6  5  1  0  0  0  0
  7 18  1  0  0  0  0
  8  1  2  0  0  0  0
  9  7  2  0  0  0  0
 12 19  1  0  0  0  0
 15 16  1  0  0  0  0
 16 22  1  0  0  0  0
 16 12  2  0  0  0  0
 17 10  2  0  0  0  0
 17  9  1  0  0  0  0
 18  3  2  0  0  0  0
 19 13  2  0  0  0  0
 20 21  1  0  0  0  0
 21 23  2  0  0  0  0
 22 25  2  0  0  0  0
 24 20  2  0  0  0  0
 24 22  1  0  0  0  0
 25 23  1  0  0  0  0
 26 20  1  0  0  0  0
 27 17  1  0  0  0  0
 28 27  1  0  0  0  0
 30 29  1  6  0  0  0
 30 31  1  0  0  0  0
 30 28  1  0  0  0  0
 31 33  1  0  0  0  0
 33 32  1  0  0  0  0
 34 33  2  0  0  0  0
M  END
>  <MODEL>
3

>  <REMARK>
 VINA RESULT:     -10.3      2.756      7.571
  Name = 
  6 active torsions:
  status: ('A' for Active; 'I' for Inactive)
    1  A    between atoms: C_3  and  C_13
    2  A    between atoms: C_3  and  C_29
    3  A    between atoms: C_12  and  C_28
    4  A    between atoms: C_13  and  C_33
    5  A    between atoms: C_20  and  C_22
    6  A    between atoms: C_22  and  C_33
                            x       y       z     vdW  Elec       q    Type
                         _______ _______ _______ _____ _____    ______ ____

>  <TORSDO>
F 6

$$$$
=
 OpenBabel10272400073D

 34 39  0  0  1  0  0  0  0  0999 V2000
  188.7710  177.7240  146.2560 C   0  0  0  0  0  0  0  0  0  0  0  0
  186.7070  178.2530  147.2270 C   0  0  2  0  0  3  0  0  0  0  0  0
  187.0040  178.0770  144.6040 C   0  0  0  0  0  0  0  0  0  0  0  0
  185.3330  178.4100  142.8550 C   0  0  1  0  0  3  0  0  0  0  0  0
  189.0510  177.6450  147.7100 C   0  0  1  0  0  3  0  0  0  0  0  0
  187.7120  177.9850  148.3620 C   0  0  2  0  0  3  0  0  0  0  0  0
  184.5700  178.1860  145.2890 C   0  0  0  0  0  3  0  0  0  0  0  0
  187.4610  178.0190  145.9550 C   0  0  0  0  0  0  0  0  0  0  0  0
  183.2600  178.7220  144.7790 C   0  0  0  0  0  3  0  0  0  0  0  0
  184.0880  178.7040  142.4830 C   0  0  0  0  0  3  0  0  0  0  0  0
  188.2130  176.5520  148.3540 C   0  0  0  0  0  2  0  0  0  0  0  0
  187.9910  177.9080  143.5680 C   0  0  0  0  0  0  0  0  0  0  0  0
  189.7240  177.5560  145.2650 C   0  0  0  0  0  3  0  0  0  0  0  0
  186.2880  179.7110  147.3220 C   0  0  0  0  0  1  0  0  0  0  0  0
  186.3230  178.2590  141.8940 O   0  0  0  0  0  0  0  0  0  0  0  0
  187.6480  177.9800  142.2500 C   0  0  0  0  0  0  0  0  0  0  0  0
  183.0240  178.9110  143.4780 C   0  0  0  0  0  0  0  0  0  0  0  0
  185.6960  178.2680  144.2790 C   0  0  0  0  0  0  0  0  0  0  0  0
  189.3310  177.6610  143.9340 C   0  0  0  0  0  3  0  0  0  0  0  0
  189.2510  178.3320  138.8430 C   0  0  0  0  0  0  0  0  0  0  0  0
  190.2970  177.4090  138.9140 C   0  0  0  0  0  3  0  0  0  0  0  0
  188.6010  177.7910  141.1240 C   0  0  0  0  0  0  0  0  0  0  0  0
  190.4910  176.6650  140.0810 C   0  0  0  0  0  3  0  0  0  0  0  0
  188.4050  178.5160  139.9400 C   0  0  0  0  0  3  0  0  0  0  0  0
  189.6440  176.8510  141.1760 C   0  0  0  0  0  3  0  0  0  0  0  0
  189.0550  179.0480  137.7100 F   0  0  0  0  0  0  0  0  0  0  0  0
  181.6960  179.4170  143.0390 C   0  0  0  0  0  2  0  0  0  0  0  0
  180.8400  178.2680  142.5320 C   0  0  0  0  0  2  0  0  0  0  0  0
  181.3720  177.4750  140.2290 C   0  0  0  0  0  1  0  0  0  0  0  0
  180.5380  178.4410  141.0510 C   0  0  2  0  0  3  0  0  0  0  0  0
  180.7290  179.8860  140.5760 C   0  0  0  0  0  2  0  0  0  0  0  0
  182.1750  180.3540  138.5910 O   0  0  0  0  0  1  0  0  0  0  0  0
  180.9320  179.9980  139.0980 C   0  0  0  0  0  0  0  0  0  0  0  0
  179.9830  179.7470  138.3110 O   0  0  0  0  0  0  0  0  0  0  0  0
  1  5  1  0  0  0  0
  2 14  1  6  0  0  0
  2  6  1  0  0  0  0
  3  8  1  0  0  0  0
  4 10  1  1  0  0  0
  4 18  1  0  0  0  0
  5 11  1  6  0  0  0
  5  6  1  0  0  0  0
  6 11  1  6  0  0  0
  8  1  2  0  0  0  0
  8  2  1  0  0  0  0
  9  7  2  0  0  0  0
 10 17  2  0  0  0  0
 12 19  1  0  0  0  0
 12  3  1  0  0  0  0
 13  1  1  0  0  0  0
 15 16  1  0  0  0  0
 15  4  1  0  0  0  0
 16 12  2  0  0  0  0
 17  9  1  0  0  0  0
 18  3  2  0  0  0  0
 18  7  1  0  0  0  0
 19 13  2  0  0  0  0
 20 21  2  0  0  0  0
 20 24  1  0  0  0  0
 21 23  1  0  0  0  0
 22 25  1  0  0  0  0
 22 16  1  0  0  0  0
 23 25  2  0  0  0  0
 24 22  2  0  0  0  0
 26 20  1  0  0  0  0
 27 17  1  0  0  0  0
 28 27  1  0  0  0  0
 30 29  1  6  0  0  0
 30 28  1  0  0  0  0
 31 30  1  0  0  0  0
 32 33  1  0  0  0  0
 33 31  1  0  0  0  0
 34 33  2  0  0  0  0
M  END
>  <MODEL>
4

>  <REMARK>
 VINA RESULT:     -10.2      1.380      2.226
  Name = 
  6 active torsions:
  status: ('A' for Active; 'I' for Inactive)
    1  A    between atoms: C_3  and  C_13
    2  A    between atoms: C_3  and  C_29
    3  A    between atoms: C_12  and  C_28
    4  A    between atoms: C_13  and  C_33
    5  A    between atoms: C_20  and  C_22
    6  A    between atoms: C_22  and  C_33
                            x       y       z     vdW  Elec       q    Type
                         _______ _______ _______ _____ _____    ______ ____

>  <TORSDO>
F 6

$$$$
=
 OpenBabel10272400073D

 34 39  0  0  1  0  0  0  0  0999 V2000
  187.6130  177.7920  146.9710 C   0  0  0  0  0  0  0  0  0  0  0  0
  189.8240  177.3870  146.3150 C   0  0  2  0  0  3  0  0  0  0  0  0
  187.9160  177.8640  144.5470 C   0  0  0  0  0  0  0  0  0  0  0  0
  188.0820  177.9570  142.1120 C   0  0  1  0  0  3  0  0  0  0  0  0
  188.3270  177.6490  148.2620 C   0  0  1  0  0  3  0  0  0  0  0  0
  189.7760  177.3860  147.8540 C   0  0  2  0  0  3  0  0  0  0  0  0
  190.2250  177.9530  143.5140 C   0  0  0  0  0  3  0  0  0  0  0  0
  188.4290  177.6930  145.8670 C   0  0  0  0  0  0  0  0  0  0  0  0
  190.9090  177.6430  142.2110 C   0  0  0  0  0  3  0  0  0  0  0  0
  188.8030  177.8610  140.9960 C   0  0  0  0  0  3  0  0  0  0  0  0
  189.3760  178.7400  148.4130 C   0  0  0  0  0  2  0  0  0  0  0  0
  186.4930  178.0500  144.4120 C   0  0  0  0  0  0  0  0  0  0  0  0
  186.2450  177.9740  146.8490 C   0  0  0  0  0  3  0  0  0  0  0  0
  190.2170  175.9880  145.8700 C   0  0  0  0  0  1  0  0  0  0  0  0
  186.7050  178.1140  142.0330 O   0  0  0  0  0  0  0  0  0  0  0  0
  185.9140  178.1890  143.1850 C   0  0  0  0  0  0  0  0  0  0  0  0
  190.2590  177.6530  141.0430 C   0  0  0  0  0  0  0  0  0  0  0  0
  188.7140  177.8710  143.4440 C   0  0  0  0  0  0  0  0  0  0  0  0
  185.6960  178.0890  145.5750 C   0  0  0  0  0  3  0  0  0  0  0  0
  182.5720  178.4230  141.4300 C   0  0  0  0  0  0  0  0  0  0  0  0
  181.7420  178.9070  142.4440 C   0  0  0  0  0  3  0  0  0  0  0  0
  184.4600  178.4100  142.9660 C   0  0  0  0  0  0  0  0  0  0  0  0
  182.2660  179.1550  143.7140 C   0  0  0  0  0  3  0  0  0  0  0  0
  183.9250  178.1830  141.6890 C   0  0  0  0  0  3  0  0  0  0  0  0
  183.6180  178.9140  143.9710 C   0  0  0  0  0  3  0  0  0  0  0  0
  182.0680  178.1900  140.1950 F   0  0  0  0  0  0  0  0  0  0  0  0
  191.0020  177.3660  139.7870 C   0  0  0  0  0  2  0  0  0  0  0  0
  190.3920  176.1650  139.0830 C   0  0  0  0  0  2  0  0  0  0  0  0
  191.8510  176.2620  137.0630 C   0  0  0  0  0  1  0  0  0  0  0  0
  190.4240  176.3580  137.5740 C   0  0  2  0  0  3  0  0  0  0  0  0
  189.7620  177.6690  137.1350 C   0  0  0  0  0  2  0  0  0  0  0  0
  187.6560  178.7890  137.8830 O   0  0  0  0  0  1  0  0  0  0  0  0
  188.2790  177.6760  137.3340 C   0  0  0  0  0  0  0  0  0  0  0  0
  187.5920  176.6810  136.9830 O   0  0  0  0  0  0  0  0  0  0  0  0
  1  5  1  0  0  0  0
  2 14  1  6  0  0  0
  2  6  1  0  0  0  0
  3  8  1  0  0  0  0
  4 10  1  6  0  0  0
  4 18  1  0  0  0  0
  5 11  1  1  0  0  0
  6  5  1  0  0  0  0
  6 11  1  1  0  0  0
  8  2  1  0  0  0  0
  8  1  2  0  0  0  0
  9  7  2  0  0  0  0
 10 17  2  0  0  0  0
 12  3  1  0  0  0  0
 12 19  1  0  0  0  0
 13  1  1  0  0  0  0
 15  4  1  0  0  0  0
 15 16  1  0  0  0  0
 16 12  2  0  0  0  0
 17  9  1  0  0  0  0
 18  7  1  0  0  0  0
 18  3  2  0  0  0  0
 19 13  2  0  0  0  0
 20 24  2  0  0  0  0
 20 21  1  0  0  0  0
 21 23  2  0  0  0  0
 22 16  1  0  0  0  0
 22 25  2  0  0  0  0
 23 25  1  0  0  0  0
 24 22  1  0  0  0  0
 26 20  1  0  0  0  0
 27 17  1  0  0  0  0
 28 27  1  0  0  0  0
 30 29  1  1  0  0  0
 30 28  1  0  0  0  0
 31 33  1  0  0  0  0
 31 30  1  0  0  0  0
 33 32  1  0  0  0  0
 34 33  2  0  0  0  0
M  END
>  <MODEL>
5

>  <REMARK>
 VINA RESULT:     -10.1      2.176      6.573
  Name = 
  6 active torsions:
  status: ('A' for Active; 'I' for Inactive)
    1  A    between atoms: C_3  and  C_13
    2  A    between atoms: C_3  and  C_29
    3  A    between atoms: C_12  and  C_28
    4  A    between atoms: C_13  and  C_33
    5  A    between atoms: C_20  and  C_22
    6  A    between atoms: C_22  and  C_33
                            x       y       z     vdW  Elec       q    Type
                         _______ _______ _______ _____ _____    ______ ____

>  <TORSDO>
F 6

$$$$
=
 OpenBabel10272400073D

 34 39  0  0  1  0  0  0  0  0999 V2000
  187.5890  177.8120  147.1090 C   0  0  0  0  0  0  0  0  0  0  0  0
  189.8230  177.4080  146.5380 C   0  0  2  0  0  3  0  0  0  0  0  0
  187.9760  177.8470  144.6960 C   0  0  0  0  0  0  0  0  0  0  0  0
  188.2260  177.9010  142.2680 C   0  0  1  0  0  3  0  0  0  0  0  0
  188.2580  177.6940  148.4270 C   0  0  1  0  0  3  0  0  0  0  0  0
  189.7220  177.4320  148.0740 C   0  0  2  0  0  3  0  0  0  0  0  0
  190.3190  177.9310  143.7430 C   0  0  0  0  0  3  0  0  0  0  0  0
  188.4430  177.7000  146.0360 C   0  0  0  0  0  0  0  0  0  0  0  0
  191.0490  177.6030  142.4700 C   0  0  0  0  0  3  0  0  0  0  0  0
  188.9860  177.7910  141.1790 C   0  0  0  0  0  3  0  0  0  0  0  0
  189.2960  178.7920  148.5960 C   0  0  0  0  0  2  0  0  0  0  0  0
  186.5580  178.0230  144.5090 C   0  0  0  0  0  0  0  0  0  0  0  0
  186.2260  177.9850  146.9370 C   0  0  0  0  0  3  0  0  0  0  0  0
  190.2380  176.0040  146.1300 C   0  0  0  0  0  1  0  0  0  0  0  0
  186.8530  178.0500  142.1390 O   0  0  0  0  0  0  0  0  0  0  0  0
  186.0210  178.1400  143.2610 C   0  0  0  0  0  0  0  0  0  0  0  0
  190.4410  177.5910  141.2810 C   0  0  0  0  0  0  0  0  0  0  0  0
  188.8120  177.8390  143.6220 C   0  0  0  0  0  0  0  0  0  0  0  0
  185.7210  178.0770  145.6430 C   0  0  0  0  0  3  0  0  0  0  0  0
  182.7560  178.4090  141.3720 C   0  0  0  0  0  0  0  0  0  0  0  0
  181.8740  178.8310  142.3690 C   0  0  0  0  0  3  0  0  0  0  0  0
  184.5740  178.3490  142.9870 C   0  0  0  0  0  0  0  0  0  0  0  0
  182.3380  179.0260  143.6720 C   0  0  0  0  0  3  0  0  0  0  0  0
  184.1000  178.1760  141.6790 C   0  0  0  0  0  3  0  0  0  0  0  0
  183.6810  178.7930  143.9770 C   0  0  0  0  0  3  0  0  0  0  0  0
  182.3100  178.2280  140.1050 F   0  0  0  0  0  0  0  0  0  0  0  0
  191.2280  177.2880  140.0550 C   0  0  0  0  0  2  0  0  0  0  0  0
  190.3920  177.5630  138.8160 C   0  0  0  0  0  2  0  0  0  0  0  0
  189.5300  175.8880  137.1820 C   0  0  0  0  0  1  0  0  0  0  0  0
  190.7670  176.6030  137.6960 C   0  0  2  0  0  3  0  0  0  0  0  0
  191.8530  175.6060  138.1150 C   0  0  0  0  0  2  0  0  0  0  0  0
  193.8410  176.9130  137.3460 O   0  0  0  0  0  1  0  0  0  0  0  0
  193.1090  175.7330  137.3110 C   0  0  0  0  0  0  0  0  0  0  0  0
  193.5160  174.7630  136.6210 O   0  0  0  0  0  0  0  0  0  0  0  0
  1  5  1  0  0  0  0
  2 14  1  1  0  0  0
  2  6  1  0  0  0  0
  3  8  1  0  0  0  0
  4 10  1  1  0  0  0
  4 18  1  0  0  0  0
  5 11  1  6  0  0  0
  6  5  1  0  0  0  0
  6 11  1  6  0  0  0
  8  2  1  0  0  0  0
  8  1  2  0  0  0  0
  9  7  2  0  0  0  0
 10 17  2  0  0  0  0
 12  3  1  0  0  0  0
 12 19  1  0  0  0  0
 13  1  1  0  0  0  0
 15  4  1  0  0  0  0
 15 16  1  0  0  0  0
 16 12  2  0  0  0  0
 17  9  1  0  0  0  0
 18  7  1  0  0  0  0
 18  3  2  0  0  0  0
 19 13  2  0  0  0  0
 20 24  2  0  0  0  0
 20 21  1  0  0  0  0
 21 23  2  0  0  0  0
 22 16  1  0  0  0  0
 22 25  2  0  0  0  0
 23 25  1  0  0  0  0
 24 22  1  0  0  0  0
 26 20  1  0  0  0  0
 27 17  1  0  0  0  0
 28 27  1  0  0  0  0
 30 29  1  1  0  0  0
 30 31  1  0  0  0  0
 30 28  1  0  0  0  0
 33 32  1  0  0  0  0
 33 31  1  0  0  0  0
 34 33  2  0  0  0  0
M  END
>  <MODEL>
6

>  <REMARK>
 VINA RESULT:     -10.0      2.690      7.271
  Name = 
  6 active torsions:
  status: ('A' for Active; 'I' for Inactive)
    1  A    between atoms: C_3  and  C_13
    2  A    between atoms: C_3  and  C_29
    3  A    between atoms: C_12  and  C_28
    4  A    between atoms: C_13  and  C_33
    5  A    between atoms: C_20  and  C_22
    6  A    between atoms: C_22  and  C_33
                            x       y       z     vdW  Elec       q    Type
                         _______ _______ _______ _____ _____    ______ ____

>  <TORSDO>
F 6

$$$$
=
 OpenBabel10272400073D

 34 39  0  0  1  0  0  0  0  0999 V2000
  184.7420  178.5040  144.6380 C   0  0  0  0  0  0  0  0  0  0  0  0
  187.0130  177.9770  144.8450 C   0  0  2  0  0  3  0  0  0  0  0  0
  185.9060  178.4460  142.4900 C   0  0  0  0  0  0  0  0  0  0  0  0
  186.9480  178.4140  140.2810 C   0  0  1  0  0  3  0  0  0  0  0  0
  184.9310  178.3940  146.1040 C   0  0  1  0  0  3  0  0  0  0  0  0
  186.4120  178.0530  146.2600 C   0  0  2  0  0  3  0  0  0  0  0  0
  188.4330  178.3900  142.3670 C   0  0  0  0  0  3  0  0  0  0  0  0
  185.8960  178.3180  143.9110 C   0  0  0  0  0  0  0  0  0  0  0  0
  189.5240  177.9890  141.4120 C   0  0  0  0  0  3  0  0  0  0  0  0
  188.0170  178.2340  139.5080 C   0  0  0  0  0  3  0  0  0  0  0  0
  185.9130  179.4480  146.5940 C   0  0  0  0  0  2  0  0  0  0  0  0
  184.6420  178.6830  141.8410 C   0  0  0  0  0  0  0  0  0  0  0  0
  183.5240  178.7360  144.0210 C   0  0  0  0  0  3  0  0  0  0  0  0
  187.4620  176.5430  144.6170 C   0  0  0  0  0  1  0  0  0  0  0  0
  185.7040  178.6240  139.7020 O   0  0  0  0  0  0  0  0  0  0  0  0
  184.5550  178.7870  140.4830 C   0  0  0  0  0  0  0  0  0  0  0  0
  189.3430  177.9690  140.0890 C   0  0  0  0  0  0  0  0  0  0  0  0
  187.0490  178.3660  141.7540 C   0  0  0  0  0  0  0  0  0  0  0  0
  183.4810  178.8110  142.6320 C   0  0  0  0  0  3  0  0  0  0  0  0
  181.8910  180.6410  138.5420 C   0  0  0  0  0  0  0  0  0  0  0  0
  180.8890  179.6750  138.4230 C   0  0  0  0  0  3  0  0  0  0  0  0
  183.2930  179.0560  139.7430 C   0  0  0  0  0  0  0  0  0  0  0  0
  181.0780  178.4040  138.9710 C   0  0  0  0  0  3  0  0  0  0  0  0
  183.0830  180.3340  139.2050 C   0  0  0  0  0  3  0  0  0  0  0  0
  182.2700  178.0990  139.6330 C   0  0  0  0  0  3  0  0  0  0  0  0
  181.7070  181.8770  138.0190 F   0  0  0  0  0  0  0  0  0  0  0  0
  190.4740  177.5910  139.1980 C   0  0  0  0  0  2  0  0  0  0  0  0
  189.9850  176.6600  138.1010 C   0  0  0  0  0  2  0  0  0  0  0  0
  190.4360  176.0390  135.7290 C   0  0  0  0  0  1  0  0  0  0  0  0
  191.0620  176.4700  137.0440 C   0  0  2  0  0  3  0  0  0  0  0  0
  192.1560  175.4930  137.4870 C   0  0  0  0  0  2  0  0  0  0  0  0
  194.3340  176.3630  136.6200 O   0  0  0  0  0  0  0  0  0  0  0  0
  193.4830  176.1510  137.6980 C   0  0  0  0  0  0  0  0  0  0  0  0
  193.8200  176.5340  138.8480 O   0  0  0  0  0  1  0  0  0  0  0  0
  1  5  1  0  0  0  0
  2 14  1  6  0  0  0
  2  6  1  0  0  0  0
  3  8  1  0  0  0  0
  4 10  1  6  0  0  0
  4 18  1  0  0  0  0
  5  6  1  0  0  0  0
  5 11  1  1  0  0  0
  6 11  1  1  0  0  0
  8  1  2  0  0  0  0
  8  2  1  0  0  0  0
  9  7  2  0  0  0  0
 10 17  2  0  0  0  0
 12  3  1  0  0  0  0
 12 19  1  0  0  0  0
 13  1  1  0  0  0  0
 15  4  1  0  0  0  0
 15 16  1  0  0  0  0
 16 12  2  0  0  0  0
 17  9  1  0  0  0  0
 18  7  1  0  0  0  0
 18  3  2  0  0  0  0
 19 13  2  0  0  0  0
 20 24  1  0  0  0  0
 21 20  2  0  0  0  0
 21 23  1  0  0  0  0
 22 16  1  0  0  0  0
 23 25  2  0  0  0  0
 24 22  2  0  0  0  0
 25 22  1  0  0  0  0
 26 20  1  0  0  0  0
 27 17  1  0  0  0  0
 28 27  1  0  0  0  0
 30 29  1  6  0  0  0
 30 31  1  0  0  0  0
 30 28  1  0  0  0  0
 31 33  1  0  0  0  0
 32 33  2  0  0  0  0
 33 34  1  0  0  0  0
M  END
>  <MODEL>
7

>  <REMARK>
 VINA RESULT:      -9.4      2.945      7.934
  Name = 
  6 active torsions:
  status: ('A' for Active; 'I' for Inactive)
    1  A    between atoms: C_3  and  C_13
    2  A    between atoms: C_3  and  C_29
    3  A    between atoms: C_12  and  C_28
    4  A    between atoms: C_13  and  C_33
    5  A    between atoms: C_20  and  C_22
    6  A    between atoms: C_22  and  C_33
                            x       y       z     vdW  Elec       q    Type
                         _______ _______ _______ _____ _____    ______ ____

>  <TORSDO>
F 6

$$$$
=
 OpenBabel10272400073D

 34 39  0  0  1  0  0  0  0  0999 V2000
  182.0050  178.8170  141.7930 C   0  0  0  0  0  0  0  0  0  0  0  0
  182.4690  178.9400  139.5020 C   0  0  2  0  0  3  0  0  0  0  0  0
  184.3890  178.6130  141.2910 C   0  0  0  0  0  0  0  0  0  0  0  0
  186.7940  178.4040  140.9260 C   0  0  0  0  0  0  0  0  0  0  0  0
  180.6590  178.9300  141.1820 C   0  0  1  0  0  3  0  0  0  0  0  0
  180.9410  179.0090  139.6820 C   0  0  2  0  0  3  0  0  0  0  0  0
  185.2030  178.2200  138.9280 C   0  0  0  0  0  2  0  0  0  0  0  0
  183.0330  178.7780  140.8780 C   0  0  0  0  0  0  0  0  0  0  0  0
  186.4480  178.3960  138.1010 C   0  0  0  0  0  3  0  0  0  0  0  0
  187.8420  178.3720  140.1040 C   0  0  0  0  0  3  0  0  0  0  0  0
  180.3810  177.7330  140.2860 C   0  0  0  0  0  2  0  0  0  0  0  0
  184.6470  178.5860  142.7080 C   0  0  0  0  0  0  0  0  0  0  0  0
  182.2460  178.7880  143.1570 C   0  0  0  0  0  3  0  0  0  0  0  0
  182.9180  180.2660  138.9090 C   0  0  0  0  0  1  0  0  0  0  0  0
  186.9930  178.4020  142.2990 O   0  0  0  0  0  0  0  0  0  0  0  0
  185.9170  178.4650  143.1910 C   0  0  0  0  0  0  0  0  0  0  0  0
  187.6680  178.4140  138.6430 C   0  0  0  0  0  0  0  0  0  0  0  0
  185.4140  178.4710  140.4060 C   0  0  0  0  0  0  0  0  0  0  0  0
  183.5610  178.6860  143.6030 C   0  0  0  0  0  3  0  0  0  0  0  0
  187.7210  177.5510  146.3870 C   0  0  0  0  0  0  0  0  0  0  0  0
  186.9170  178.1500  147.3590 C   0  0  0  0  0  3  0  0  0  0  0  0
  186.2610  178.4030  144.6370 C   0  0  0  0  0  0  0  0  0  0  0  0
  185.7790  178.8650  146.9780 C   0  0  0  0  0  3  0  0  0  0  0  0
  187.3900  177.6720  145.0340 C   0  0  0  0  0  3  0  0  0  0  0  0
  185.4500  178.9850  145.6250 C   0  0  0  0  0  3  0  0  0  0  0  0
  188.8210  176.8500  146.7540 F   0  0  0  0  0  0  0  0  0  0  0  0
  188.8600  178.5630  137.7650 C   0  0  0  0  0  2  0  0  0  0  0  0
  189.4590  177.1990  137.4610 C   0  0  0  0  0  2  0  0  0  0  0  0
  191.7490  176.2390  137.2370 C   0  0  0  0  0  1  0  0  0  0  0  0
  190.8230  177.0570  138.1200 C   0  0  2  0  0  3  0  0  0  0  0  0
  190.7360  176.4690  139.5330 C   0  0  0  0  0  2  0  0  0  0  0  0
  190.8290  177.6150  141.7520 O   0  0  0  0  0  1  0  0  0  0  0  0
  191.4560  177.2880  140.5570 C   0  0  0  0  0  0  0  0  0  0  0  0
  192.6380  177.6640  140.3460 O   0  0  0  0  0  0  0  0  0  0  0  0
  1 13  1  0  0  0  0
  2 14  1  1  0  0  0
  2  6  1  0  0  0  0
  2  8  1  0  0  0  0
  3 12  1  0  0  0  0
  4 15  1  0  0  0  0
  5 11  1  6  0  0  0
  5  1  1  0  0  0  0
  6 11  1  6  0  0  0
  6  5  1  0  0  0  0
  7 18  1  0  0  0  0
  8  3  1  0  0  0  0
  8  1  2  0  0  0  0
  9 17  2  0  0  0  0
  9  7  1  0  0  0  0
 10  4  2  0  0  0  0
 12 16  2  0  0  0  0
 12 19  1  0  0  0  0
 13 19  2  0  0  0  0
 15 16  1  0  0  0  0
 16 22  1  0  0  0  0
 17 10  1  0  0  0  0
 18  4  1  0  0  0  0
 18  3  2  0  0  0  0
 20 26  1  0  0  0  0
 20 21  1  0  0  0  0
 22 24  1  0  0  0  0
 22 25  2  0  0  0  0
 23 21  2  0  0  0  0
 24 20  2  0  0  0  0
 25 23  1  0  0  0  0
 27 17  1  0  0  0  0
 28 27  1  0  0  0  0
 28 30  1  0  0  0  0
 30 29  1  6  0  0  0
 30 31  1  0  0  0  0
 31 33  1  0  0  0  0
 33 32  1  0  0  0  0
 34 33  2  0  0  0  0
M  END
>  <MODEL>
8

>  <REMARK>
 VINA RESULT:      -9.4      2.915      8.847
  Name = 
  6 active torsions:
  status: ('A' for Active; 'I' for Inactive)
    1  A    between atoms: C_3  and  C_13
    2  A    between atoms: C_3  and  C_29
    3  A    between atoms: C_12  and  C_28
    4  A    between atoms: C_13  and  C_33
    5  A    between atoms: C_20  and  C_22
    6  A    between atoms: C_22  and  C_33
                            x       y       z     vdW  Elec       q    Type
                         _______ _______ _______ _____ _____    ______ ____

>  <TORSDO>
F 6

$$$$
=
 OpenBabel10272400073D

 34 39  0  0  1  0  0  0  0  0999 V2000
  182.1150  178.7910  141.8590 C   0  0  0  0  0  0  0  0  0  0  0  0
  182.5660  178.9220  139.5650 C   0  0  2  0  0  3  0  0  0  0  0  0
  184.4930  178.5690  141.3420 C   0  0  0  0  0  0  0  0  0  0  0  0
  186.8950  178.3400  140.9620 C   0  0  0  0  0  0  0  0  0  0  0  0
  180.7660  178.9190  141.2560 C   0  0  1  0  0  3  0  0  0  0  0  0
  181.0400  179.0030  139.7550 C   0  0  2  0  0  3  0  0  0  0  0  0
  185.2910  178.1800  138.9720 C   0  0  0  0  0  2  0  0  0  0  0  0
  183.1370  178.7470  140.9380 C   0  0  0  0  0  0  0  0  0  0  0  0
  186.5320  178.3500  138.1390 C   0  0  0  0  0  3  0  0  0  0  0  0
  187.9380  178.3030  140.1340 C   0  0  0  0  0  3  0  0  0  0  0  0
  180.4720  177.7290  140.3560 C   0  0  0  0  0  2  0  0  0  0  0  0
  184.7590  178.5330  142.7570 C   0  0  0  0  0  0  0  0  0  0  0  0
  182.3630  178.7540  143.2210 C   0  0  0  0  0  3  0  0  0  0  0  0
  183.0230  180.2470  138.9770 C   0  0  0  0  0  1  0  0  0  0  0  0
  187.1020  178.3300  142.3340 O   0  0  0  0  0  0  0  0  0  0  0  0
  186.0310  178.3980  143.2330 C   0  0  0  0  0  0  0  0  0  0  0  0
  187.7560  178.3530  138.6740 C   0  0  0  0  0  0  0  0  0  0  0  0
  185.5120  178.4220  140.4500 C   0  0  0  0  0  0  0  0  0  0  0  0
  183.6790  178.6370  143.6590 C   0  0  0  0  0  3  0  0  0  0  0  0
  187.8180  177.4180  146.4180 C   0  0  0  0  0  0  0  0  0  0  0  0
  187.0470  178.0530  147.3940 C   0  0  0  0  0  3  0  0  0  0  0  0
  186.3830  178.3260  144.6760 C   0  0  0  0  0  0  0  0  0  0  0  0
  185.9370  178.8140  147.0190 C   0  0  0  0  0  3  0  0  0  0  0  0
  187.4830  177.5490  145.0670 C   0  0  0  0  0  3  0  0  0  0  0  0
  185.6040  178.9440  145.6680 C   0  0  0  0  0  3  0  0  0  0  0  0
  188.8890  176.6720  146.7800 F   0  0  0  0  0  0  0  0  0  0  0  0
  188.9440  178.4970  137.7910 C   0  0  0  0  0  2  0  0  0  0  0  0
  188.6810  177.8290  136.4500 C   0  0  0  0  0  2  0  0  0  0  0  0
  188.6990  175.3560  136.7650 C   0  0  0  0  0  1  0  0  0  0  0  0
  189.5080  176.5600  136.3160 C   0  0  2  0  0  3  0  0  0  0  0  0
  190.8430  176.6450  137.0650 C   0  0  0  0  0  2  0  0  0  0  0  0
  191.4590  174.3700  137.9000 O   0  0  0  0  0  0  0  0  0  0  0  0
  190.9640  175.6400  138.1670 C   0  0  0  0  0  0  0  0  0  0  0  0
  190.6390  175.9510  139.3420 O   0  0  0  0  0  1  0  0  0  0  0  0
  1 13  1  0  0  0  0
  2 14  1  1  0  0  0
  2  6  1  0  0  0  0
  2  8  1  0  0  0  0
  3 12  1  0  0  0  0
  4 15  1  0  0  0  0
  5 11  1  6  0  0  0
  5  1  1  0  0  0  0
  6 11  1  6  0  0  0
  6  5  1  0  0  0  0
  7 18  1  0  0  0  0
  8  3  1  0  0  0  0
  8  1  2  0  0  0  0
  9 17  2  0  0  0  0
  9  7  1  0  0  0  0
 10  4  2  0  0  0  0
 12 16  2  0  0  0  0
 12 19  1  0  0  0  0
 13 19  2  0  0  0  0
 15 16  1  0  0  0  0
 16 22  1  0  0  0  0
 17 10  1  0  0  0  0
 18  4  1  0  0  0  0
 18  3  2  0  0  0  0
 20 26  1  0  0  0  0
 20 21  1  0  0  0  0
 22 24  1  0  0  0  0
 22 25  2  0  0  0  0
 23 21  2  0  0  0  0
 24 20  2  0  0  0  0
 25 23  1  0  0  0  0
 27 17  1  0  0  0  0
 28 27  1  0  0  0  0
 30 28  1  0  0  0  0
 30 29  1  1  0  0  0
 30 31  1  0  0  0  0
 31 33  1  0  0  0  0
 32 33  2  0  0  0  0
 33 34  1  0  0  0  0
M  END
>  <MODEL>
9

>  <REMARK>
 VINA RESULT:      -9.3      3.017      8.763
  Name = 
  6 active torsions:
  status: ('A' for Active; 'I' for Inactive)
    1  A    between atoms: C_3  and  C_13
    2  A    between atoms: C_3  and  C_29
    3  A    between atoms: C_12  and  C_28
    4  A    between atoms: C_13  and  C_33
    5  A    between atoms: C_20  and  C_22
    6  A    between atoms: C_22  and  C_33
                            x       y       z     vdW  Elec       q    Type
                         _______ _______ _______ _____ _____    ______ ____

>  <TORSDO>
F 6

$$$$
