=
 OpenBabel10272400523D

 25 28  0  0  1  0  0  0  0  0999 V2000
  187.2650  177.8390  145.7730 C   0  0  0  0  0  0  0  0  0  0  0  0
  188.5510  177.3350  145.5540 C   0  0  0  0  0  0  0  0  0  0  0  0
  187.6320  178.0620  148.0990 N   0  0  0  0  0  0  0  0  0  0  0  0
  186.1990  178.0970  144.9390 C   0  0  0  0  0  0  0  0  0  0  0  0
  190.0450  176.4690  143.6610 C   0  0  0  0  0  0  0  0  0  0  0  0
  183.7630  178.8150  143.8350 C   0  0  0  0  0  3  0  0  0  0  0  0
  188.8720  177.5900  147.9380 N   0  0  0  0  0  0  0  0  0  0  0  0
  185.1920  178.5890  145.7470 C   0  0  0  0  0  0  0  0  0  0  0  0
  183.9570  178.9590  145.2210 C   0  0  0  0  0  3  0  0  0  0  0  0
  190.7830  176.6520  146.6860 C   0  0  2  0  0  3  0  0  0  0  0  0
  191.6090  177.0660  147.8950 C   0  0  0  0  0  1  0  0  0  0  0  0
  188.9210  176.9990  144.1530 C   0  0  0  0  0  3  0  0  0  0  0  0
  184.7930  178.3120  143.0130 C   0  0  0  0  0  3  0  0  0  0  0  0
  186.8300  178.1910  147.0240 C   0  0  0  0  0  0  0  0  0  0  0  0
  185.5600  178.6560  147.0470 N   0  0  0  0  0  2  0  0  0  0  0  0
  191.5000  177.0270  145.4840 N   0  0  0  0  0  2  0  0  0  0  0  0
  186.0330  177.9450  143.5630 C   0  0  0  0  0  3  0  0  0  0  0  0
  191.1700  176.0040  144.5150 C   0  0  0  0  0  2  0  0  0  0  0  0
  189.3870  177.2360  146.7130 C   0  0  0  0  0  0  0  0  0  0  0  0
  190.1670  176.2500  142.1760 C   0  0  0  0  0  2  0  0  0  0  0  0
  191.6520  177.5350  140.8450 C   0  0  0  0  0  1  0  0  0  0  0  0
  190.2930  177.4890  141.3830 N   0  0  0  0  0  0  0  0  0  0  0  0
  189.3560  177.4960  140.3180 N   0  0  0  0  0  0  0  0  0  0  0  0
  189.9660  178.0210  139.2250 O   0  0  0  0  0  1  0  0  0  0  0  0
  188.2990  178.4410  140.6540 C   0  0  0  0  0  1  0  0  0  0  0  0
  1 14  1  0  0  0  0
  2  1  2  0  0  0  0
  2 19  1  0  0  0  0
  4  8  1  0  0  0  0
  4  1  1  0  0  0  0
  5 12  2  0  0  0  0
  5 18  1  0  0  0  0
  6  9  1  0  0  0  0
  7  3  1  0  0  0  0
  8 15  1  0  0  0  0
  9  8  2  0  0  0  0
 10 19  1  0  0  0  0
 10 11  1  1  0  0  0
 12  2  1  0  0  0  0
 13 17  1  0  0  0  0
 13  6  2  0  0  0  0
 14 15  1  0  0  0  0
 14  3  2  0  0  0  0
 16 10  1  0  0  0  0
 17  4  2  0  0  0  0
 18 16  1  0  0  0  0
 19  7  2  0  0  0  0
 20  5  1  0  0  0  0
 21 22  1  0  0  0  0
 22 20  1  0  0  0  0
 23 25  1  0  0  0  0
 23 22  1  0  0  0  0
 24 23  1  0  0  0  0
M  END
>  <MODEL>
1

>  <REMARK>
 VINA RESULT:     -10.3      0.000      0.000
  Name = 
  3 active torsions:
  status: ('A' for Active; 'I' for Inactive)
    1  A    between atoms: N_2  and  N_25
    2  A    between atoms: C_6  and  C_15
    3  A    between atoms: C_15  and  N_25
                            x       y       z     vdW  Elec       q    Type
                         _______ _______ _______ _____ _____    ______ ____

>  <TORSDO>
F 3

$$$$
=
 OpenBabel10272400523D

 25 28  0  0  1  0  0  0  0  0999 V2000
  185.6490  178.2530  144.9230 C   0  0  0  0  0  0  0  0  0  0  0  0
  186.9590  177.8240  145.1560 C   0  0  0  0  0  0  0  0  0  0  0  0
  185.3180  178.8260  147.1940 N   0  0  0  0  0  0  0  0  0  0  0  0
  184.8620  178.3100  143.7940 C   0  0  0  0  0  0  0  0  0  0  0  0
  188.9650  176.8190  143.9190 C   0  0  0  0  0  0  0  0  0  0  0  0
  182.8280  178.6780  141.9510 C   0  0  0  0  0  3  0  0  0  0  0  0
  186.5670  178.4320  147.4640 N   0  0  0  0  0  0  0  0  0  0  0  0
  183.6490  178.8320  144.1990 C   0  0  0  0  0  0  0  0  0  0  0  0
  182.6070  179.0280  143.2950 C   0  0  0  0  0  3  0  0  0  0  0  0
  188.7890  177.4790  146.9620 C   0  0  2  0  0  3  0  0  0  0  0  0
  189.2150  178.1190  148.2750 C   0  0  0  0  0  1  0  0  0  0  0  0
  187.7300  177.3250  143.9860 C   0  0  0  0  0  3  0  0  0  0  0  0
  184.0690  178.1460  141.5410 C   0  0  0  0  0  3  0  0  0  0  0  0
  184.8580  178.7430  145.9300 C   0  0  0  0  0  0  0  0  0  0  0  0
  183.6220  179.1070  145.5220 N   0  0  0  0  0  2  0  0  0  0  0  0
  189.8110  177.7360  145.9680 N   0  0  0  0  0  2  0  0  0  0  0  0
  185.1080  177.9550  142.4680 C   0  0  0  0  0  3  0  0  0  0  0  0
  189.8090  176.5660  145.1160 C   0  0  0  0  0  2  0  0  0  0  0  0
  187.4270  177.9520  146.5040 C   0  0  0  0  0  0  0  0  0  0  0  0
  189.5200  176.4050  142.5810 C   0  0  0  0  0  2  0  0  0  0  0  0
  191.3890  177.4560  141.5660 C   0  0  0  0  0  1  0  0  0  0  0  0
  189.9360  177.5280  141.7170 N   0  0  0  0  0  0  0  0  0  0  0  0
  189.3180  177.4330  140.4450 N   0  0  0  0  0  0  0  0  0  0  0  0
  190.2160  177.8330  139.5090 O   0  0  0  0  0  1  0  0  0  0  0  0
  188.2460  178.4190  140.3890 C   0  0  0  0  0  1  0  0  0  0  0  0
  1  2  2  0  0  0  0
  1 14  1  0  0  0  0
  2 19  1  0  0  0  0
  3  7  1  0  0  0  0
  4  8  1  0  0  0  0
  4  1  1  0  0  0  0
  5 12  2  0  0  0  0
  5 18  1  0  0  0  0
  6  9  1  0  0  0  0
  8 15  1  0  0  0  0
  9  8  2  0  0  0  0
 10 11  1  1  0  0  0
 12  2  1  0  0  0  0
 13  6  2  0  0  0  0
 13 17  1  0  0  0  0
 14  3  2  0  0  0  0
 15 14  1  0  0  0  0
 16 10  1  0  0  0  0
 17  4  2  0  0  0  0
 18 16  1  0  0  0  0
 19 10  1  0  0  0  0
 19  7  2  0  0  0  0
 20  5  1  0  0  0  0
 21 22  1  0  0  0  0
 22 20  1  0  0  0  0
 23 22  1  0  0  0  0
 24 23  1  0  0  0  0
 25 23  1  0  0  0  0
M  END
>  <MODEL>
2

>  <REMARK>
 VINA RESULT:     -10.3      1.163      1.797
  Name = 
  3 active torsions:
  status: ('A' for Active; 'I' for Inactive)
    1  A    between atoms: N_2  and  N_25
    2  A    between atoms: C_6  and  C_15
    3  A    between atoms: C_15  and  N_25
                            x       y       z     vdW  Elec       q    Type
                         _______ _______ _______ _____ _____    ______ ____

>  <TORSDO>
F 3

$$$$
=
 OpenBabel10272400523D

 25 28  0  0  1  0  0  0  0  0999 V2000
  186.9210  177.8560  144.8010 C   0  0  0  0  0  0  0  0  0  0  0  0
  188.1190  177.4460  144.2070 C   0  0  0  0  0  0  0  0  0  0  0  0
  187.8220  177.6900  146.9820 N   0  0  0  0  0  0  0  0  0  0  0  0
  185.6910  178.2130  144.2940 C   0  0  0  0  0  0  0  0  0  0  0  0
  189.1270  176.9730  141.8990 C   0  0  0  0  0  0  0  0  0  0  0  0
  183.0680  179.0180  143.9240 C   0  0  0  0  0  3  0  0  0  0  0  0
  188.9880  177.3000  146.4590 N   0  0  0  0  0  0  0  0  0  0  0  0
  184.9030  178.5220  145.3850 C   0  0  0  0  0  0  0  0  0  0  0  0
  183.5800  178.9290  145.2310 C   0  0  0  0  0  3  0  0  0  0  0  0
  190.5510  176.6630  144.6560 C   0  0  2  0  0  3  0  0  0  0  0  0
  191.6380  176.8940  145.6960 C   0  0  0  0  0  1  0  0  0  0  0  0
  188.1510  177.3690  142.7220 C   0  0  0  0  0  3  0  0  0  0  0  0
  183.8760  178.7020  142.8120 C   0  0  0  0  0  3  0  0  0  0  0  0
  186.7910  177.9720  146.1600 C   0  0  0  0  0  0  0  0  0  0  0  0
  185.5640  178.3790  146.5560 N   0  0  0  0  0  2  0  0  0  0  0  0
  190.9690  177.2640  143.4070 N   0  0  0  0  0  2  0  0  0  0  0  0
  185.2090  178.2930  142.9880 C   0  0  0  0  0  3  0  0  0  0  0  0
  190.4180  176.4110  142.3760 C   0  0  0  0  0  2  0  0  0  0  0  0
  189.2020  177.1810  145.1070 C   0  0  0  0  0  0  0  0  0  0  0  0
  188.8980  177.0170  140.4110 C   0  0  0  0  0  2  0  0  0  0  0  0
  190.6160  177.2210  138.7880 C   0  0  0  0  0  1  0  0  0  0  0  0
  189.7520  177.9820  139.6890 N   0  0  0  0  0  0  0  0  0  0  0  0
  188.9560  178.8850  138.9390 N   0  0  0  0  0  0  0  0  0  0  0  0
  187.6520  178.6150  139.2010 O   0  0  0  0  0  1  0  0  0  0  0  0
  189.1320  178.5750  137.5260 C   0  0  0  0  0  1  0  0  0  0  0  0
  1 14  1  0  0  0  0
  2  1  2  0  0  0  0
  2 19  1  0  0  0  0
  4  1  1  0  0  0  0
  4  8  1  0  0  0  0
  5 18  1  0  0  0  0
  5 12  2  0  0  0  0
  6  9  1  0  0  0  0
  7  3  1  0  0  0  0
  8 15  1  0  0  0  0
  9  8  2  0  0  0  0
 10 19  1  0  0  0  0
 10 11  1  1  0  0  0
 12  2  1  0  0  0  0
 13 17  1  0  0  0  0
 13  6  2  0  0  0  0
 14 15  1  0  0  0  0
 14  3  2  0  0  0  0
 16 10  1  0  0  0  0
 17  4  2  0  0  0  0
 18 16  1  0  0  0  0
 19  7  2  0  0  0  0
 20  5  1  0  0  0  0
 21 22  1  0  0  0  0
 22 20  1  0  0  0  0
 23 24  1  0  0  0  0
 23 22  1  0  0  0  0
 25 23  1  0  0  0  0
M  END
>  <MODEL>
3

>  <REMARK>
 VINA RESULT:     -10.0      1.413      1.727
  Name = 
  3 active torsions:
  status: ('A' for Active; 'I' for Inactive)
    1  A    between atoms: N_2  and  N_25
    2  A    between atoms: C_6  and  C_15
    3  A    between atoms: C_15  and  N_25
                            x       y       z     vdW  Elec       q    Type
                         _______ _______ _______ _____ _____    ______ ____

>  <TORSDO>
F 3

$$$$
=
 OpenBabel10272400523D

 25 28  0  0  1  0  0  0  0  0999 V2000
  186.7760  178.1120  145.5010 C   0  0  0  0  0  0  0  0  0  0  0  0
  186.0380  178.3220  144.3320 C   0  0  0  0  0  0  0  0  0  0  0  0
  184.9580  178.7260  146.8860 N   0  0  0  0  0  0  0  0  0  0  0  0
  188.0700  177.7050  145.7400 C   0  0  0  0  0  0  0  0  0  0  0  0
  186.2890  178.2120  141.7840 C   0  0  0  0  0  0  0  0  0  0  0  0
  190.4890  176.9580  146.8620 C   0  0  0  0  0  3  0  0  0  0  0  0
  184.2130  178.9340  145.7960 N   0  0  0  0  0  0  0  0  0  0  0  0
  188.2190  177.6880  147.1130 C   0  0  0  0  0  0  0  0  0  0  0  0
  189.4230  177.3170  147.7060 C   0  0  0  0  0  3  0  0  0  0  0  0
  183.7470  179.0740  143.3740 C   0  0  2  0  0  3  0  0  0  0  0  0
  182.2830  179.0360  143.7870 C   0  0  0  0  0  1  0  0  0  0  0  0
  186.7240  178.0580  143.0380 C   0  0  0  0  0  3  0  0  0  0  0  0
  190.3330  176.9760  145.4600 C   0  0  0  0  0  3  0  0  0  0  0  0
  186.2330  178.3120  146.7440 C   0  0  0  0  0  0  0  0  0  0  0  0
  187.0920  178.0630  147.7590 N   0  0  0  0  0  2  0  0  0  0  0  0
  183.9350  178.1870  142.2450 N   0  0  0  0  0  2  0  0  0  0  0  0
  189.1100  177.3540  144.8800 C   0  0  0  0  0  3  0  0  0  0  0  0
  184.9690  178.8080  141.4460 C   0  0  0  0  0  2  0  0  0  0  0  0
  184.6780  178.7330  144.5180 C   0  0  0  0  0  0  0  0  0  0  0  0
  187.1960  177.8430  140.6400 C   0  0  0  0  0  2  0  0  0  0  0  0
  189.4980  177.7400  141.2010 C   0  0  0  0  0  1  0  0  0  0  0  0
  188.4690  178.5900  140.6040 N   0  0  0  0  0  0  0  0  0  0  0  0
  188.8250  178.9030  139.2670 N   0  0  0  0  0  0  0  0  0  0  0  0
  187.7040  178.8280  138.5050 O   0  0  0  0  0  1  0  0  0  0  0  0
  189.6920  177.8410  138.7710 C   0  0  0  0  0  1  0  0  0  0  0  0
  1  4  1  0  0  0  0
  1 14  1  0  0  0  0
  2 19  1  0  0  0  0
  2  1  2  0  0  0  0
  4  8  1  0  0  0  0
  5 12  2  0  0  0  0
  6  9  1  0  0  0  0
  7  3  1  0  0  0  0
  8  9  2  0  0  0  0
  8 15  1  0  0  0  0
 10 11  1  1  0  0  0
 10 19  1  0  0  0  0
 12  2  1  0  0  0  0
 13  6  2  0  0  0  0
 14  3  2  0  0  0  0
 14 15  1  0  0  0  0
 16 10  1  0  0  0  0
 17 13  1  0  0  0  0
 17  4  2  0  0  0  0
 18  5  1  0  0  0  0
 18 16  1  0  0  0  0
 19  7  2  0  0  0  0
 20  5  1  0  0  0  0
 22 20  1  0  0  0  0
 22 21  1  0  0  0  0
 23 22  1  0  0  0  0
 24 23  1  0  0  0  0
 25 23  1  0  0  0  0
M  END
>  <MODEL>
4

>  <REMARK>
 VINA RESULT:      -9.8      1.681      4.931
  Name = 
  3 active torsions:
  status: ('A' for Active; 'I' for Inactive)
    1  A    between atoms: N_2  and  N_25
    2  A    between atoms: C_6  and  C_15
    3  A    between atoms: C_15  and  N_25
                            x       y       z     vdW  Elec       q    Type
                         _______ _______ _______ _____ _____    ______ ____

>  <TORSDO>
F 3

$$$$
=
 OpenBabel10272400523D

 25 28  0  0  1  0  0  0  0  0999 V2000
  186.5940  178.3550  142.1700 C   0  0  0  0  0  0  0  0  0  0  0  0
  187.8910  177.8870  141.9340 C   0  0  0  0  0  0  0  0  0  0  0  0
  186.2690  178.9190  139.8950 N   0  0  0  0  0  0  0  0  0  0  0  0
  185.8170  178.4480  143.3030 C   0  0  0  0  0  0  0  0  0  0  0  0
  189.8940  176.8870  143.1790 C   0  0  0  0  0  0  0  0  0  0  0  0
  183.8050  178.8920  145.1530 C   0  0  0  0  0  3  0  0  0  0  0  0
  187.5000  178.4790  139.6210 N   0  0  0  0  0  0  0  0  0  0  0  0
  184.6170  179.0000  142.9000 C   0  0  0  0  0  0  0  0  0  0  0  0
  183.5860  179.2350  143.8070 C   0  0  0  0  0  3  0  0  0  0  0  0
  189.7290  177.5460  140.1350 C   0  0  2  0  0  3  0  0  0  0  0  0
  189.8100  177.2630  138.6420 C   0  0  0  0  0  1  0  0  0  0  0  0
  188.6440  177.3520  143.0990 C   0  0  0  0  0  3  0  0  0  0  0  0
  185.0330  178.3290  145.5620 C   0  0  0  0  0  3  0  0  0  0  0  0
  185.8120  178.8560  141.1620 C   0  0  0  0  0  0  0  0  0  0  0  0
  184.5900  179.2630  141.5740 N   0  0  0  0  0  2  0  0  0  0  0  0
  190.2100  176.3850  140.8550 N   0  0  0  0  0  2  0  0  0  0  0  0
  186.0600  178.0990  144.6310 C   0  0  0  0  0  3  0  0  0  0  0  0
  190.8490  176.9150  142.0390 C   0  0  0  0  0  2  0  0  0  0  0  0
  188.3360  177.9430  140.5720 C   0  0  0  0  0  0  0  0  0  0  0  0
  190.4080  176.3760  144.5000 C   0  0  0  0  0  2  0  0  0  0  0  0
  189.4550  177.5750  146.3120 C   0  0  0  0  0  1  0  0  0  0  0  0
  190.6650  177.4280  145.5030 N   0  0  0  0  0  0  0  0  0  0  0  0
  191.7540  177.0660  146.3360 N   0  0  0  0  0  0  0  0  0  0  0  0
  192.1530  175.8170  145.9870 O   0  0  0  0  0  1  0  0  0  0  0  0
  191.2570  176.9390  147.7000 C   0  0  0  0  0  1  0  0  0  0  0  0
  1  4  1  0  0  0  0
  2  1  2  0  0  0  0
  2 12  1  0  0  0  0
  3 14  2  0  0  0  0
  4 17  1  0  0  0  0
  5 20  1  0  0  0  0
  6 13  1  0  0  0  0
  7  3  1  0  0  0  0
  7 19  2  0  0  0  0
  8  4  2  0  0  0  0
  8  9  1  0  0  0  0
  9  6  2  0  0  0  0
 10 11  1  6  0  0  0
 10 19  1  0  0  0  0
 10 16  1  0  0  0  0
 12  5  2  0  0  0  0
 14 15  1  0  0  0  0
 14  1  1  0  0  0  0
 15  8  1  0  0  0  0
 16 18  1  0  0  0  0
 17 13  2  0  0  0  0
 18  5  1  0  0  0  0
 19  2  1  0  0  0  0
 20 22  1  0  0  0  0
 22 21  1  0  0  0  0
 22 23  1  0  0  0  0
 23 25  1  0  0  0  0
 24 23  1  0  0  0  0
M  END
>  <MODEL>
5

>  <REMARK>
 VINA RESULT:      -9.3      2.318      5.217
  Name = 
  3 active torsions:
  status: ('A' for Active; 'I' for Inactive)
    1  A    between atoms: N_2  and  N_25
    2  A    between atoms: C_6  and  C_15
    3  A    between atoms: C_15  and  N_25
                            x       y       z     vdW  Elec       q    Type
                         _______ _______ _______ _____ _____    ______ ____

>  <TORSDO>
F 3

$$$$
=
 OpenBabel10272400523D

 25 28  0  0  1  0  0  0  0  0999 V2000
  187.9900  177.6350  145.2280 C   0  0  0  0  0  0  0  0  0  0  0  0
  187.2790  178.0310  144.0900 C   0  0  0  0  0  0  0  0  0  0  0  0
  186.0910  177.8600  146.6230 N   0  0  0  0  0  0  0  0  0  0  0  0
  189.2990  177.2630  145.4410 C   0  0  0  0  0  0  0  0  0  0  0  0
  187.6210  178.4430  141.5850 C   0  0  0  0  0  0  0  0  0  0  0  0
  191.7210  176.4440  146.5030 C   0  0  0  0  0  3  0  0  0  0  0  0
  185.3710  178.2380  145.5620 N   0  0  0  0  0  0  0  0  0  0  0  0
  189.4020  176.9820  146.7900 C   0  0  0  0  0  0  0  0  0  0  0  0
  190.6070  176.5690  147.3530 C   0  0  0  0  0  3  0  0  0  0  0  0
  184.9780  178.8290  143.1960 C   0  0  2  0  0  3  0  0  0  0  0  0
  183.5070  178.6280  143.5270 C   0  0  0  0  0  1  0  0  0  0  0  0
  188.0230  178.0680  142.8030 C   0  0  0  0  0  3  0  0  0  0  0  0
  191.6110  176.7320  145.1260 C   0  0  0  0  0  3  0  0  0  0  0  0
  187.3940  177.5550  146.4610 C   0  0  0  0  0  0  0  0  0  0  0  0
  188.2320  177.1580  147.4440 N   0  0  0  0  0  2  0  0  0  0  0  0
  185.2600  178.1950  141.9250 N   0  0  0  0  0  2  0  0  0  0  0  0
  190.3860  177.1470  144.5770 C   0  0  0  0  0  3  0  0  0  0  0  0
  186.2780  179.0190  141.3110 C   0  0  0  0  0  2  0  0  0  0  0  0
  185.8910  178.3210  144.2920 C   0  0  0  0  0  0  0  0  0  0  0  0
  188.5870  178.3600  140.4320 C   0  0  0  0  0  2  0  0  0  0  0  0
  188.3250  177.0100  138.4990 C   0  0  0  0  0  1  0  0  0  0  0  0
  188.7760  176.9990  139.8900 N   0  0  0  0  0  0  0  0  0  0  0  0
  190.1430  176.6270  139.9460 N   0  0  0  0  0  0  0  0  0  0  0  0
  190.7930  177.5260  140.7280 O   0  0  0  0  0  1  0  0  0  0  0  0
  190.7120  176.7990  138.6150 C   0  0  0  0  0  1  0  0  0  0  0  0
  1  4  1  0  0  0  0
  1 14  1  0  0  0  0
  2 19  1  0  0  0  0
  2  1  2  0  0  0  0
  4  8  1  0  0  0  0
  5 12  2  0  0  0  0
  6  9  1  0  0  0  0
  7  3  1  0  0  0  0
  8  9  2  0  0  0  0
  8 15  1  0  0  0  0
 10 11  1  1  0  0  0
 10 19  1  0  0  0  0
 12  2  1  0  0  0  0
 13  6  2  0  0  0  0
 14  3  2  0  0  0  0
 14 15  1  0  0  0  0
 16 10  1  0  0  0  0
 17 13  1  0  0  0  0
 17  4  2  0  0  0  0
 18  5  1  0  0  0  0
 18 16  1  0  0  0  0
 19  7  2  0  0  0  0
 20  5  1  0  0  0  0
 21 22  1  0  0  0  0
 22 23  1  0  0  0  0
 22 20  1  0  0  0  0
 23 24  1  0  0  0  0
 25 23  1  0  0  0  0
M  END
>  <MODEL>
6

>  <REMARK>
 VINA RESULT:      -9.2      1.568      4.880
  Name = 
  3 active torsions:
  status: ('A' for Active; 'I' for Inactive)
    1  A    between atoms: N_2  and  N_25
    2  A    between atoms: C_6  and  C_15
    3  A    between atoms: C_15  and  N_25
                            x       y       z     vdW  Elec       q    Type
                         _______ _______ _______ _____ _____    ______ ____

>  <TORSDO>
F 3

$$$$
=
 OpenBabel10272400523D

 25 28  0  0  1  0  0  0  0  0999 V2000
  189.3540  177.3860  144.4760 C   0  0  0  0  0  0  0  0  0  0  0  0
  189.0900  177.5750  143.1150 C   0  0  0  0  0  0  0  0  0  0  0  0
  191.5060  176.5030  144.0440 N   0  0  0  0  0  0  0  0  0  0  0  0
  188.6250  177.6240  145.6200 C   0  0  0  0  0  0  0  0  0  0  0  0
  187.2400  178.4150  141.5540 C   0  0  0  0  0  0  0  0  0  0  0  0
  187.7080  177.8580  148.2220 C   0  0  0  0  0  3  0  0  0  0  0  0
  191.3000  176.6710  142.7340 N   0  0  0  0  0  0  0  0  0  0  0  0
  189.4260  177.2260  146.6730 C   0  0  0  0  0  0  0  0  0  0  0  0
  188.9920  177.3320  147.9930 C   0  0  0  0  0  3  0  0  0  0  0  0
  190.0200  177.2800  140.7120 C   0  0  2  0  0  3  0  0  0  0  0  0
  191.3740  177.2850  140.0160 C   0  0  0  0  0  1  0  0  0  0  0  0
  187.7730  178.1660  142.7540 C   0  0  0  0  0  3  0  0  0  0  0  0
  186.8930  178.2630  147.1440 C   0  0  0  0  0  3  0  0  0  0  0  0
  190.5420  176.8610  144.9150 C   0  0  0  0  0  0  0  0  0  0  0  0
  190.6210  176.7480  146.2600 N   0  0  0  0  0  2  0  0  0  0  0  0
  189.2760  178.4480  140.2870 N   0  0  0  0  0  2  0  0  0  0  0  0
  187.3490  178.1490  145.8200 C   0  0  0  0  0  3  0  0  0  0  0  0
  187.8910  178.0270  140.2750 C   0  0  0  0  0  2  0  0  0  0  0  0
  190.1460  177.2110  142.2180 C   0  0  0  0  0  0  0  0  0  0  0  0
  185.8760  179.0490  141.4720 C   0  0  0  0  0  2  0  0  0  0  0  0
  183.6120  178.6230  140.9040 C   0  0  0  0  0  1  0  0  0  0  0  0
  184.9910  178.4640  140.4440 N   0  0  0  0  0  0  0  0  0  0  0  0
  185.1610  179.1300  139.2040 N   0  0  0  0  0  0  0  0  0  0  0  0
  184.2940  180.1740  139.1650 O   0  0  0  0  0  1  0  0  0  0  0  0
  184.7210  178.2300  138.1450 C   0  0  0  0  0  1  0  0  0  0  0  0
  1 14  1  0  0  0  0
  1  4  1  0  0  0  0
  2  1  2  0  0  0  0
  3 14  2  0  0  0  0
  4 17  2  0  0  0  0
  4  8  1  0  0  0  0
  5 12  2  0  0  0  0
  7  3  1  0  0  0  0
  8  9  2  0  0  0  0
  9  6  1  0  0  0  0
 10 11  1  6  0  0  0
 10 19  1  0  0  0  0
 12  2  1  0  0  0  0
 13  6  2  0  0  0  0
 14 15  1  0  0  0  0
 15  8  1  0  0  0  0
 16 10  1  0  0  0  0
 17 13  1  0  0  0  0
 18 16  1  0  0  0  0
 18  5  1  0  0  0  0
 19  7  2  0  0  0  0
 19  2  1  0  0  0  0
 20  5  1  0  0  0  0
 22 21  1  0  0  0  0
 22 20  1  0  0  0  0
 23 22  1  0  0  0  0
 24 23  1  0  0  0  0
 25 23  1  0  0  0  0
M  END
>  <MODEL>
7

>  <REMARK>
 VINA RESULT:      -9.1      2.395      5.154
  Name = 
  3 active torsions:
  status: ('A' for Active; 'I' for Inactive)
    1  A    between atoms: N_2  and  N_25
    2  A    between atoms: C_6  and  C_15
    3  A    between atoms: C_15  and  N_25
                            x       y       z     vdW  Elec       q    Type
                         _______ _______ _______ _____ _____    ______ ____

>  <TORSDO>
F 3

$$$$
=
 OpenBabel10272400523D

 25 28  0  0  1  0  0  0  0  0999 V2000
  186.4700  178.3870  142.6150 C   0  0  0  0  0  0  0  0  0  0  0  0
  187.6780  178.0360  142.0040 C   0  0  0  0  0  0  0  0  0  0  0  0
  185.5320  179.1350  140.5750 N   0  0  0  0  0  0  0  0  0  0  0  0
  186.0150  178.3200  143.9140 C   0  0  0  0  0  0  0  0  0  0  0  0
  189.9800  177.0680  142.5760 C   0  0  0  0  0  0  0  0  0  0  0  0
  184.5440  178.4480  146.2560 C   0  0  0  0  0  3  0  0  0  0  0  0
  186.6660  178.8090  139.9480 N   0  0  0  0  0  0  0  0  0  0  0  0
  184.7280  178.8210  143.8940 C   0  0  0  0  0  0  0  0  0  0  0  0
  183.9630  178.8980  145.0570 C   0  0  0  0  0  3  0  0  0  0  0  0
  188.9900  177.9930  139.7670 C   0  0  2  0  0  3  0  0  0  0  0  0
  188.6870  177.8550  138.2820 C   0  0  0  0  0  1  0  0  0  0  0  0
  188.7330  177.4490  142.8720 C   0  0  0  0  0  3  0  0  0  0  0  0
  185.8590  177.9380  146.2720 C   0  0  0  0  0  3  0  0  0  0  0  0
  185.4280  178.9220  141.9020 C   0  0  0  0  0  0  0  0  0  0  0  0
  184.3410  179.2030  142.6560 N   0  0  0  0  0  2  0  0  0  0  0  0
  189.6940  176.8070  140.2090 N   0  0  0  0  0  2  0  0  0  0  0  0
  186.6140  177.8680  145.0880 C   0  0  0  0  0  3  0  0  0  0  0  0
  190.5990  177.2690  141.2390 C   0  0  0  0  0  2  0  0  0  0  0  0
  187.7450  178.2480  140.5880 C   0  0  0  0  0  0  0  0  0  0  0  0
  190.8450  176.4750  143.6580 C   0  0  0  0  0  2  0  0  0  0  0  0
  191.1070  178.7820  144.1440 C   0  0  0  0  0  1  0  0  0  0  0  0
  191.6770  177.4570  144.3820 N   0  0  0  0  0  0  0  0  0  0  0  0
  191.6760  177.1790  145.7730 N   0  0  0  0  0  0  0  0  0  0  0  0
  192.0690  175.8920  145.9460 O   0  0  0  0  0  1  0  0  0  0  0  0
  190.2960  177.2220  146.2400 C   0  0  0  0  0  1  0  0  0  0  0  0
  1  4  1  0  0  0  0
  2  1  2  0  0  0  0
  2 12  1  0  0  0  0
  3 14  2  0  0  0  0
  4 17  1  0  0  0  0
  5 12  2  0  0  0  0
  5 20  1  0  0  0  0
  6 13  1  0  0  0  0
  7  3  1  0  0  0  0
  7 19  2  0  0  0  0
  8  4  2  0  0  0  0
  8  9  1  0  0  0  0
  9  6  2  0  0  0  0
 10 11  1  6  0  0  0
 10 16  1  0  0  0  0
 10 19  1  0  0  0  0
 14  1  1  0  0  0  0
 14 15  1  0  0  0  0
 15  8  1  0  0  0  0
 16 18  1  0  0  0  0
 17 13  2  0  0  0  0
 18  5  1  0  0  0  0
 19  2  1  0  0  0  0
 20 22  1  0  0  0  0
 21 22  1  0  0  0  0
 22 23  1  0  0  0  0
 23 24  1  0  0  0  0
 23 25  1  0  0  0  0
M  END
>  <MODEL>
8

>  <REMARK>
 VINA RESULT:      -9.1      2.324      5.013
  Name = 
  3 active torsions:
  status: ('A' for Active; 'I' for Inactive)
    1  A    between atoms: N_2  and  N_25
    2  A    between atoms: C_6  and  C_15
    3  A    between atoms: C_15  and  N_25
                            x       y       z     vdW  Elec       q    Type
                         _______ _______ _______ _____ _____    ______ ____

>  <TORSDO>
F 3

$$$$
=
 OpenBabel10272400523D

 25 28  0  0  1  0  0  0  0  0999 V2000
  189.1870  177.3920  143.9920 C   0  0  0  0  0  0  0  0  0  0  0  0
  188.7100  177.6720  142.7080 C   0  0  0  0  0  0  0  0  0  0  0  0
  191.2490  176.5770  143.1660 N   0  0  0  0  0  0  0  0  0  0  0  0
  188.6470  177.5370  145.2510 C   0  0  0  0  0  0  0  0  0  0  0  0
  186.6320  178.5880  141.5210 C   0  0  0  0  0  0  0  0  0  0  0  0
  188.1520  177.5730  147.9750 C   0  0  0  0  0  3  0  0  0  0  0  0
  190.8380  176.8330  141.9200 N   0  0  0  0  0  0  0  0  0  0  0  0
  189.6060  177.0800  146.1340 C   0  0  0  0  0  0  0  0  0  0  0  0
  189.3860  177.0860  147.5090 C   0  0  0  0  0  3  0  0  0  0  0  0
  189.2510  177.5610  140.1730 C   0  0  2  0  0  3  0  0  0  0  0  0
  190.4770  177.6360  139.2750 C   0  0  0  0  0  1  0  0  0  0  0  0
  187.3500  178.2640  142.6010 C   0  0  0  0  0  3  0  0  0  0  0  0
  187.1750  178.0390  147.0710 C   0  0  0  0  0  3  0  0  0  0  0  0
  190.4330  176.8580  144.2010 C   0  0  0  0  0  0  0  0  0  0  0  0
  190.7240  176.6510  145.5050 N   0  0  0  0  0  2  0  0  0  0  0  0
  188.4420  178.7430  139.9550 N   0  0  0  0  0  2  0  0  0  0  0  0
  187.4160  178.0250  145.6860 C   0  0  0  0  0  3  0  0  0  0  0  0
  187.0760  178.3010  140.1310 C   0  0  0  0  0  2  0  0  0  0  0  0
  189.6140  177.3880  141.6320 C   0  0  0  0  0  0  0  0  0  0  0  0
  185.2690  179.2030  141.7000 C   0  0  0  0  0  2  0  0  0  0  0  0
  183.8170  178.7440  143.5190 C   0  0  0  0  0  1  0  0  0  0  0  0
  184.2390  178.2710  142.2010 N   0  0  0  0  0  0  0  0  0  0  0  0
  183.1250  178.2430  141.3240 N   0  0  0  0  0  0  0  0  0  0  0  0
  183.3610  179.1200  140.3150 O   0  0  0  0  0  1  0  0  0  0  0  0
  181.9750  178.7850  142.0380 C   0  0  0  0  0  1  0  0  0  0  0  0
  1 14  1  0  0  0  0
  1  4  1  0  0  0  0
  2  1  2  0  0  0  0
  3 14  2  0  0  0  0
  4 17  2  0  0  0  0
  4  8  1  0  0  0  0
  5 20  1  0  0  0  0
  5 12  2  0  0  0  0
  7  3  1  0  0  0  0
  8  9  2  0  0  0  0
  9  6  1  0  0  0  0
 10 11  1  6  0  0  0
 10 19  1  0  0  0  0
 12  2  1  0  0  0  0
 13  6  2  0  0  0  0
 14 15  1  0  0  0  0
 15  8  1  0  0  0  0
 16 18  1  0  0  0  0
 16 10  1  0  0  0  0
 17 13  1  0  0  0  0
 18  5  1  0  0  0  0
 19  7  2  0  0  0  0
 19  2  1  0  0  0  0
 20 22  1  0  0  0  0
 22 21  1  0  0  0  0
 23 25  1  0  0  0  0
 23 22  1  0  0  0  0
 24 23  1  0  0  0  0
M  END
>  <MODEL>
9

>  <REMARK>
 VINA RESULT:      -8.9      2.469      5.701
  Name = 
  3 active torsions:
  status: ('A' for Active; 'I' for Inactive)
    1  A    between atoms: N_2  and  N_25
    2  A    between atoms: C_6  and  C_15
    3  A    between atoms: C_15  and  N_25
                            x       y       z     vdW  Elec       q    Type
                         _______ _______ _______ _____ _____    ______ ____

>  <TORSDO>
F 3

$$$$
