=
 OpenBabel10272415143D

 34 38  0  0  1  0  0  0  0  0999 V2000
  186.8630  177.6550  142.6200 C   0  0  2  0  0  3  0  0  0  0  0  0
  189.3130  177.2350  145.6210 C   0  0  0  0  0  2  0  0  0  0  0  0
  186.7260  177.9590  145.8420 S   0  0  0  0  0  0  0  0  0  0  0  0
  184.4810  178.0950  142.5720 C   0  0  0  0  0  3  0  0  0  0  0  0
  183.1550  179.1610  144.3150 C   0  0  0  0  0  3  0  0  0  0  0  0
  183.2440  178.7220  143.0620 C   0  0  0  0  0  3  0  0  0  0  0  0
  185.6500  178.8110  144.6390 C   0  0  1  0  0  3  0  0  0  0  0  0
  185.5970  178.0770  143.3080 C   0  0  0  0  0  0  0  0  0  0  0  0
  184.2650  178.9270  145.2970 C   0  0  0  0  0  2  0  0  0  0  0  0
  190.5380  176.9180  144.7770 C   0  0  2  0  0  3  0  0  0  0  0  0
  190.1610  175.9240  143.6880 C   0  0  0  0  0  2  0  0  0  0  0  0
  188.1940  177.8430  144.7760 C   0  0  2  0  0  3  0  0  0  0  0  0
  189.1140  176.5440  142.7760 C   0  0  0  0  0  2  0  0  0  0  0  0
  187.8620  176.9620  143.5590 C   0  0  2  0  0  3  0  0  0  0  0  0
  192.2340  175.1560  145.3050 O   0  0  0  0  0  0  0  0  0  0  0  0
  191.9780  176.9790  146.6700 O   0  0  0  0  0  1  0  0  0  0  0  0
  191.6220  176.3600  145.6340 C   0  0  0  0  0  0  0  0  0  0  0  0
  187.4650  178.8120  141.8090 C   0  0  0  0  0  2  0  0  0  0  0  0
  187.2260  178.6470  140.4420 O   0  0  0  0  0  0  0  0  0  0  0  0
  188.4900  178.6730  139.8510 C   0  0  0  0  0  2  0  0  0  0  0  0
  190.7330  175.8070  138.6350 C   0  0  0  0  0  2  0  0  0  0  0  0
  188.1240  177.0130  138.0290 C   0  0  0  0  0  2  0  0  0  0  0  0
  189.3650  173.4240  135.9250 C   0  0  2  0  0  0  0  0  0  0  0  0
  188.5250  172.5940  136.6730 O   0  0  0  0  0  1  0  0  0  0  0  0
  190.3870  174.0780  136.8710 C   0  0  0  0  0  2  0  0  0  0  0  0
  190.0100  175.4920  137.3290 C   0  0  1  0  0  3  0  0  0  0  0  0
  187.7560  175.3920  136.1720 C   0  0  0  0  0  2  0  0  0  0  0  0
  188.4890  175.6310  137.4960 C   0  0  2  0  0  3  0  0  0  0  0  0
  188.5150  174.4760  135.2020 C   0  0  0  0  0  2  0  0  0  0  0  0
  188.8510  177.2880  139.3440 C   0  0  1  0  0  3  0  0  0  0  0  0
  190.3570  177.2010  139.1290 C   0  0  0  0  0  2  0  0  0  0  0  0
  190.1080  172.6120  134.9050 C   0  0  0  0  0  0  0  0  0  0  0  0
  191.3660  173.0200  134.4750 O   0  0  0  0  0  1  0  0  0  0  0  0
  189.6140  171.5460  134.4470 O   0  0  0  0  0  0  0  0  0  0  0  0
  1 18  1  1  0  0  0
  1  8  1  0  0  0  0
  1 14  1  0  0  0  0
  4  6  1  0  0  0  0
  4  8  2  0  0  0  0
  5  9  1  0  0  0  0
  6  5  2  0  0  0  0
  7  9  1  1  0  0  0
  7  3  1  0  0  0  0
  8  7  1  0  0  0  0
 10  2  1  0  0  0  0
 10 17  1  1  0  0  0
 11 10  1  0  0  0  0
 12  2  1  1  0  0  0
 12  3  1  0  0  0  0
 13 11  1  0  0  0  0
 14 13  1  6  0  0  0
 14 12  1  0  0  0  0
 15 17  2  0  0  0  0
 17 16  1  0  0  0  0
 19 18  1  0  0  0  0
 20 19  1  0  0  0  0
 21 31  1  0  0  0  0
 22 30  1  0  0  0  0
 23 24  1  1  0  0  0
 23 25  1  0  0  0  0
 26 25  1  1  0  0  0
 26 28  1  0  0  0  0
 26 21  1  0  0  0  0
 28 27  1  6  0  0  0
 28 22  1  0  0  0  0
 29 23  1  0  0  0  0
 29 27  1  0  0  0  0
 30 20  1  6  0  0  0
 31 30  1  0  0  0  0
 32 23  1  0  0  0  0
 33 32  1  0  0  0  0
 34 32  2  0  0  0  0
M  END
>  <MODEL>
1

>  <REMARK>
 VINA RESULT:      -8.9      0.000      0.000
  Name = 
  6 active torsions:
  status: ('A' for Active; 'I' for Inactive)
    1  A    between atoms: C_1  and  C_9
    2  A    between atoms: C_7  and  C_11
    3  A    between atoms: O_8  and  C_9
    4  A    between atoms: O_8  and  C_18
    5  A    between atoms: C_18  and  C_30
    6  A    between atoms: C_23  and  C_25
                            x       y       z     vdW  Elec       q    Type
                         _______ _______ _______ _____ _____    ______ ____

>  <TORSDO>
F 6

$$$$
=
 OpenBabel10272415143D

 34 38  0  0  1  0  0  0  0  0999 V2000
  186.7660  177.6890  142.3850 C   0  0  2  0  0  3  0  0  0  0  0  0
  189.2470  177.2060  145.3520 C   0  0  0  0  0  2  0  0  0  0  0  0
  186.6630  177.9280  145.6140 S   0  0  0  0  0  0  0  0  0  0  0  0
  184.3840  178.1310  142.3710 C   0  0  0  0  0  3  0  0  0  0  0  0
  183.0780  179.1620  144.1490 C   0  0  0  0  0  3  0  0  0  0  0  0
  183.1530  178.7480  142.8870 C   0  0  0  0  0  3  0  0  0  0  0  0
  185.5750  178.8040  144.4390 C   0  0  1  0  0  3  0  0  0  0  0  0
  185.5080  178.0980  143.0950 C   0  0  0  0  0  0  0  0  0  0  0  0
  184.1970  178.9070  145.1140 C   0  0  0  0  0  2  0  0  0  0  0  0
  190.4630  176.9060  144.4880 C   0  0  2  0  0  3  0  0  0  0  0  0
  190.0740  175.9350  143.3830 C   0  0  0  0  0  2  0  0  0  0  0  0
  188.1200  177.8320  144.5310 C   0  0  2  0  0  3  0  0  0  0  0  0
  189.0180  176.5730  142.4950 C   0  0  0  0  0  2  0  0  0  0  0  0
  187.7750  176.9770  143.3000 C   0  0  2  0  0  3  0  0  0  0  0  0
  191.9230  176.9350  146.5200 O   0  0  0  0  0  1  0  0  0  0  0  0
  192.1560  175.2950  144.9360 O   0  0  0  0  0  0  0  0  0  0  0  0
  191.5550  176.3300  145.3230 C   0  0  0  0  0  0  0  0  0  0  0  0
  187.3610  178.8620  141.5910 C   0  0  0  0  0  2  0  0  0  0  0  0
  187.4060  178.5740  140.2250 O   0  0  0  0  0  0  0  0  0  0  0  0
  188.7320  178.7990  139.8540 C   0  0  0  0  0  2  0  0  0  0  0  0
  188.3210  176.0460  137.2130 C   0  0  0  0  0  2  0  0  0  0  0  0
  190.4080  177.2070  138.9230 C   0  0  0  0  0  2  0  0  0  0  0  0
  191.4670  174.1480  136.0310 C   0  0  2  0  0  0  0  0  0  0  0  0
  192.0370  175.0660  135.1430 O   0  0  0  0  0  1  0  0  0  0  0  0
  189.9730  174.4790  136.1960 C   0  0  0  0  0  2  0  0  0  0  0  0
  189.6450  175.3200  137.4350 C   0  0  1  0  0  3  0  0  0  0  0  0
  192.0920  175.5960  138.0400 C   0  0  0  0  0  2  0  0  0  0  0  0
  190.7740  176.3170  137.7400 C   0  0  2  0  0  3  0  0  0  0  0  0
  192.2100  174.2200  137.3710 C   0  0  0  0  0  2  0  0  0  0  0  0
  189.0890  177.9310  138.6610 C   0  0  1  0  0  3  0  0  0  0  0  0
  187.9810  176.9120  138.4210 C   0  0  0  0  0  2  0  0  0  0  0  0
  191.5910  172.7590  135.4780 C   0  0  0  0  0  0  0  0  0  0  0  0
  190.5920  172.2460  134.6580 O   0  0  0  0  0  0  0  0  0  0  0  0
  192.6050  172.0530  135.7290 O   0  0  0  0  0  1  0  0  0  0  0  0
  1 18  1  1  0  0  0
  1  8  1  0  0  0  0
  1 14  1  0  0  0  0
  4  6  1  0  0  0  0
  4  8  2  0  0  0  0
  5  9  1  0  0  0  0
  6  5  2  0  0  0  0
  7  9  1  1  0  0  0
  7  3  1  0  0  0  0
  8  7  1  0  0  0  0
 10 17  1  1  0  0  0
 10  2  1  0  0  0  0
 11 10  1  0  0  0  0
 12  2  1  1  0  0  0
 12  3  1  0  0  0  0
 13 11  1  0  0  0  0
 14 13  1  6  0  0  0
 14 12  1  0  0  0  0
 16 17  2  0  0  0  0
 17 15  1  0  0  0  0
 19 18  1  0  0  0  0
 20 19  1  0  0  0  0
 21 26  1  0  0  0  0
 21 31  1  0  0  0  0
 23 24  1  6  0  0  0
 23 25  1  0  0  0  0
 23 29  1  0  0  0  0
 26 25  1  6  0  0  0
 26 28  1  0  0  0  0
 28 27  1  1  0  0  0
 28 22  1  0  0  0  0
 29 27  1  0  0  0  0
 30 22  1  0  0  0  0
 30 20  1  1  0  0  0
 31 30  1  0  0  0  0
 32 34  1  0  0  0  0
 32 23  1  0  0  0  0
 33 32  2  0  0  0  0
M  END
>  <MODEL>
2

>  <REMARK>
 VINA RESULT:      -8.9      0.866      1.885
  Name = 
  6 active torsions:
  status: ('A' for Active; 'I' for Inactive)
    1  A    between atoms: C_1  and  C_9
    2  A    between atoms: C_7  and  C_11
    3  A    between atoms: O_8  and  C_9
    4  A    between atoms: O_8  and  C_18
    5  A    between atoms: C_18  and  C_30
    6  A    between atoms: C_23  and  C_25
                            x       y       z     vdW  Elec       q    Type
                         _______ _______ _______ _____ _____    ______ ____

>  <TORSDO>
F 6

$$$$
=
 OpenBabel10272415143D

 34 38  0  0  1  0  0  0  0  0999 V2000
  187.7070  177.6190  142.7730 C   0  0  2  0  0  3  0  0  0  0  0  0
  189.4900  177.1860  146.2110 C   0  0  0  0  0  2  0  0  0  0  0  0
  186.8890  177.8240  145.9010 S   0  0  0  0  0  0  0  0  0  0  0  0
  185.3730  177.9870  142.2370 C   0  0  0  0  0  3  0  0  0  0  0  0
  183.6750  178.9600  143.6870 C   0  0  0  0  0  3  0  0  0  0  0  0
  184.0390  178.5610  142.4710 C   0  0  0  0  0  3  0  0  0  0  0  0
  186.0580  178.6780  144.5180 C   0  0  1  0  0  3  0  0  0  0  0  0
  186.3110  177.9820  143.1900 C   0  0  0  0  0  0  0  0  0  0  0  0
  184.5630  178.7310  144.8740 C   0  0  0  0  0  2  0  0  0  0  0  0
  190.8750  176.9320  145.6350 C   0  0  2  0  0  3  0  0  0  0  0  0
  190.7700  175.9590  144.4690 C   0  0  0  0  0  2  0  0  0  0  0  0
  188.5510  177.7840  145.1650 C   0  0  2  0  0  3  0  0  0  0  0  0
  189.9140  176.5730  143.3720 C   0  0  0  0  0  2  0  0  0  0  0  0
  188.5130  176.9300  143.8850 C   0  0  2  0  0  3  0  0  0  0  0  0
  191.9490  177.0570  147.8920 O   0  0  0  0  0  1  0  0  0  0  0  0
  192.3920  175.3060  146.4820 O   0  0  0  0  0  0  0  0  0  0  0  0
  191.7760  176.3830  146.6880 C   0  0  0  0  0  0  0  0  0  0  0  0
  188.4230  178.8180  142.1320 C   0  0  0  0  0  2  0  0  0  0  0  0
  188.3170  178.7820  140.7400 O   0  0  0  0  0  0  0  0  0  0  0  0
  188.6010  177.4610  140.3920 C   0  0  0  0  0  2  0  0  0  0  0  0
  189.9430  176.6260  136.8960 C   0  0  0  0  0  2  0  0  0  0  0  0
  190.8870  176.7760  139.6730 C   0  0  0  0  0  2  0  0  0  0  0  0
  193.7180  175.9250  136.4950 C   0  0  2  0  0  0  0  0  0  0  0  0
  194.2510  177.2180  136.5090 O   0  0  0  0  0  1  0  0  0  0  0  0
  192.2290  176.0070  136.1130 C   0  0  0  0  0  2  0  0  0  0  0  0
  191.2690  175.9910  137.3080 C   0  0  1  0  0  3  0  0  0  0  0  0
  193.1690  176.0480  138.9860 C   0  0  0  0  0  2  0  0  0  0  0  0
  191.8770  176.7220  138.5140 C   0  0  2  0  0  3  0  0  0  0  0  0
  193.9100  175.2890  137.8770 C   0  0  0  0  0  2  0  0  0  0  0  0
  189.5800  177.4320  139.2320 C   0  0  1  0  0  3  0  0  0  0  0  0
  188.9750  176.6480  138.0740 C   0  0  0  0  0  2  0  0  0  0  0  0
  194.4300  175.0920  135.4700 C   0  0  0  0  0  0  0  0  0  0  0  0
  195.7210  175.4270  135.0780 O   0  0  0  0  0  1  0  0  0  0  0  0
  193.8780  174.0740  134.9720 O   0  0  0  0  0  0  0  0  0  0  0  0
  1 18  1  1  0  0  0
  1  8  1  0  0  0  0
  1 14  1  0  0  0  0
  4  6  1  0  0  0  0
  4  8  2  0  0  0  0
  5  9  1  0  0  0  0
  6  5  2  0  0  0  0
  7  9  1  1  0  0  0
  7  3  1  0  0  0  0
  8  7  1  0  0  0  0
 10  2  1  0  0  0  0
 10 17  1  1  0  0  0
 11 10  1  0  0  0  0
 12  3  1  0  0  0  0
 12  2  1  1  0  0  0
 13 11  1  0  0  0  0
 14 13  1  6  0  0  0
 14 12  1  0  0  0  0
 16 17  2  0  0  0  0
 17 15  1  0  0  0  0
 19 18  1  0  0  0  0
 20 19  1  0  0  0  0
 21 26  1  0  0  0  0
 21 31  1  0  0  0  0
 23 24  1  1  0  0  0
 23 29  1  0  0  0  0
 25 23  1  0  0  0  0
 26 25  1  6  0  0  0
 26 28  1  0  0  0  0
 28 27  1  1  0  0  0
 28 22  1  0  0  0  0
 29 27  1  0  0  0  0
 30 22  1  0  0  0  0
 30 20  1  1  0  0  0
 31 30  1  0  0  0  0
 32 23  1  0  0  0  0
 33 32  1  0  0  0  0
 34 32  2  0  0  0  0
M  END
>  <MODEL>
3

>  <REMARK>
 VINA RESULT:      -8.7      2.044      2.962
  Name = 
  6 active torsions:
  status: ('A' for Active; 'I' for Inactive)
    1  A    between atoms: C_1  and  C_9
    2  A    between atoms: C_7  and  C_11
    3  A    between atoms: O_8  and  C_9
    4  A    between atoms: O_8  and  C_18
    5  A    between atoms: C_18  and  C_30
    6  A    between atoms: C_23  and  C_25
                            x       y       z     vdW  Elec       q    Type
                         _______ _______ _______ _____ _____    ______ ____

>  <TORSDO>
F 6

$$$$
=
 OpenBabel10272415143D

 34 38  0  0  1  0  0  0  0  0999 V2000
  185.6670  178.0160  142.5160 C   0  0  2  0  0  3  0  0  0  0  0  0
  186.6740  178.2740  146.2720 C   0  0  0  0  0  2  0  0  0  0  0  0
  184.1750  178.6270  145.3260 S   0  0  0  0  0  0  0  0  0  0  0  0
  183.4910  178.0910  141.4540 C   0  0  0  0  0  3  0  0  0  0  0  0
  181.4690  179.1240  142.3340 C   0  0  0  0  0  3  0  0  0  0  0  0
  182.1100  178.5750  141.3050 C   0  0  0  0  0  3  0  0  0  0  0  0
  183.6230  179.1820  143.6770 C   0  0  1  0  0  3  0  0  0  0  0  0
  184.1970  178.3150  142.5670 C   0  0  0  0  0  0  0  0  0  0  0  0
  182.0860  179.1590  143.7000 C   0  0  0  0  0  2  0  0  0  0  0  0
  188.1630  178.0570  146.0470 C   0  0  2  0  0  3  0  0  0  0  0  0
  188.3670  176.9110  145.0670 C   0  0  0  0  0  2  0  0  0  0  0  0
  185.9580  178.6200  144.9680 C   0  0  2  0  0  3  0  0  0  0  0  0
  187.7410  177.2720  143.7280 C   0  0  0  0  0  2  0  0  0  0  0  0
  186.2450  177.5790  143.8720 C   0  0  2  0  0  3  0  0  0  0  0  0
  190.0340  177.0480  147.3670 O   0  0  0  0  0  0  0  0  0  0  0  0
  188.3170  178.1390  148.4210 O   0  0  0  0  0  1  0  0  0  0  0  0
  188.8390  177.7570  147.3420 C   0  0  0  0  0  0  0  0  0  0  0  0
  186.4420  179.1590  141.8450 C   0  0  0  0  0  2  0  0  0  0  0  0
  186.8350  178.8090  140.5510 O   0  0  0  0  0  0  0  0  0  0  0  0
  188.2300  178.7850  140.5930 C   0  0  0  0  0  2  0  0  0  0  0  0
  188.2000  177.1340  137.1300 C   0  0  0  0  0  2  0  0  0  0  0  0
  189.9100  177.2950  139.5120 C   0  0  0  0  0  2  0  0  0  0  0  0
  191.3270  175.1720  136.0010 C   0  0  2  0  0  0  0  0  0  0  0  0
  192.1900  176.2050  135.6210 O   0  0  0  0  0  1  0  0  0  0  0  0
  189.8810  175.6980  135.9740 C   0  0  0  0  0  2  0  0  0  0  0  0
  189.3470  176.1480  137.3390 C   0  0  1  0  0  3  0  0  0  0  0  0
  191.5840  175.7700  138.4710 C   0  0  0  0  0  2  0  0  0  0  0  0
  190.4620  176.7750  138.1890 C   0  0  2  0  0  3  0  0  0  0  0  0
  191.7200  174.6800  137.3990 C   0  0  0  0  0  2  0  0  0  0  0  0
  188.7780  178.2900  139.2670 C   0  0  1  0  0  3  0  0  0  0  0  0
  187.6640  177.6190  138.4730 C   0  0  0  0  0  2  0  0  0  0  0  0
  191.4400  174.0320  135.0320 C   0  0  0  0  0  0  0  0  0  0  0  0
  192.6920  173.5470  134.6730 O   0  0  0  0  0  1  0  0  0  0  0  0
  190.4070  173.4890  134.5530 O   0  0  0  0  0  0  0  0  0  0  0  0
  1 18  1  1  0  0  0
  1  8  1  0  0  0  0
  1 14  1  0  0  0  0
  4  8  2  0  0  0  0
  5  9  1  0  0  0  0
  6  4  1  0  0  0  0
  6  5  2  0  0  0  0
  7  9  1  1  0  0  0
  7  3  1  0  0  0  0
  8  7  1  0  0  0  0
 10  2  1  0  0  0  0
 10 17  1  1  0  0  0
 11 10  1  0  0  0  0
 12  3  1  0  0  0  0
 12  2  1  1  0  0  0
 13 11  1  0  0  0  0
 14 13  1  6  0  0  0
 14 12  1  0  0  0  0
 17 15  2  0  0  0  0
 17 16  1  0  0  0  0
 19 20  1  0  0  0  0
 19 18  1  0  0  0  0
 21 26  1  0  0  0  0
 21 31  1  0  0  0  0
 23 24  1  6  0  0  0
 23 29  1  0  0  0  0
 25 23  1  0  0  0  0
 26 25  1  6  0  0  0
 26 28  1  0  0  0  0
 28 27  1  1  0  0  0
 28 22  1  0  0  0  0
 29 27  1  0  0  0  0
 30 22  1  0  0  0  0
 30 20  1  1  0  0  0
 31 30  1  0  0  0  0
 32 23  1  0  0  0  0
 33 32  1  0  0  0  0
 34 32  2  0  0  0  0
M  END
>  <MODEL>
4

>  <REMARK>
 VINA RESULT:      -8.5      1.714      2.615
  Name = 
  6 active torsions:
  status: ('A' for Active; 'I' for Inactive)
    1  A    between atoms: C_1  and  C_9
    2  A    between atoms: C_7  and  C_11
    3  A    between atoms: O_8  and  C_9
    4  A    between atoms: O_8  and  C_18
    5  A    between atoms: C_18  and  C_30
    6  A    between atoms: C_23  and  C_25
                            x       y       z     vdW  Elec       q    Type
                         _______ _______ _______ _____ _____    ______ ____

>  <TORSDO>
F 6

$$$$
=
 OpenBabel10272415143D

 34 38  0  0  1  0  0  0  0  0999 V2000
  190.5910  177.0210  138.5630 C   0  0  2  0  0  3  0  0  0  0  0  0
  192.1490  174.1280  136.4670 C   0  0  0  0  0  2  0  0  0  0  0  0
  189.6240  175.0330  136.1950 S   0  0  0  0  0  0  0  0  0  0  0  0
  188.4470  178.1340  138.3740 C   0  0  0  0  0  3  0  0  0  0  0  0
  186.4170  177.2370  137.3700 C   0  0  0  0  0  3  0  0  0  0  0  0
  187.0010  178.1770  138.1080 C   0  0  0  0  0  3  0  0  0  0  0  0
  188.5420  175.8470  137.4190 C   0  0  1  0  0  3  0  0  0  0  0  0
  189.1950  177.0840  138.0160 C   0  0  0  0  0  0  0  0  0  0  0  0
  187.2280  176.1740  136.6900 C   0  0  0  0  0  2  0  0  0  0  0  0
  193.4870  174.1180  137.1910 C   0  0  2  0  0  3  0  0  0  0  0  0
  193.9740  175.5480  137.3800 C   0  0  0  0  0  2  0  0  0  0  0  0
  191.0930  174.8980  137.2590 C   0  0  2  0  0  3  0  0  0  0  0  0
  192.9820  176.3100  138.2450 C   0  0  0  0  0  2  0  0  0  0  0  0
  191.5790  176.3120  137.6240 C   0  0  2  0  0  3  0  0  0  0  0  0
  195.4950  173.9720  135.7050 O   0  0  0  0  0  0  0  0  0  0  0  0
  194.4060  172.0750  136.3860 O   0  0  0  0  0  1  0  0  0  0  0  0
  194.4850  173.3300  136.4120 C   0  0  0  0  0  0  0  0  0  0  0  0
  190.5990  176.4830  140.0020 C   0  0  0  0  0  2  0  0  0  0  0  0
  190.9100  177.4920  140.9150 O   0  0  0  0  0  0  0  0  0  0  0  0
  190.7110  176.9150  142.1700 C   0  0  0  0  0  2  0  0  0  0  0  0
  188.1860  177.6480  144.9640 C   0  0  0  0  0  2  0  0  0  0  0  0
  188.3220  177.6090  142.0310 C   0  0  0  0  0  2  0  0  0  0  0  0
  184.6980  178.9820  143.9870 C   0  0  2  0  0  0  0  0  0  0  0  0
  184.9710  180.3300  143.7310 O   0  0  0  0  0  1  0  0  0  0  0  0
  185.8130  178.4130  144.8820 C   0  0  0  0  0  2  0  0  0  0  0  0
  186.9140  177.6640  144.1220 C   0  0  1  0  0  3  0  0  0  0  0  0
  185.9220  178.2590  141.8650 C   0  0  0  0  0  2  0  0  0  0  0  0
  187.1720  178.3060  142.7500 C   0  0  2  0  0  3  0  0  0  0  0  0
  184.6060  178.2280  142.6560 C   0  0  0  0  0  2  0  0  0  0  0  0
  189.5820  177.6270  142.8930 C   0  0  1  0  0  3  0  0  0  0  0  0
  189.3080  176.9300  144.2210 C   0  0  0  0  0  2  0  0  0  0  0  0
  183.3910  178.8560  144.7130 C   0  0  0  0  0  0  0  0  0  0  0  0
  182.2020  178.7870  143.9940 O   0  0  0  0  0  0  0  0  0  0  0  0
  183.3570  178.7880  145.9710 O   0  0  0  0  0  1  0  0  0  0  0  0
  1 18  1  1  0  0  0
  2 10  1  0  0  0  0
  3 12  1  0  0  0  0
  3  7  1  0  0  0  0
  5  6  2  0  0  0  0
  6  4  1  0  0  0  0
  7  9  1  6  0  0  0
  7  8  1  0  0  0  0
  8  4  2  0  0  0  0
  8  1  1  0  0  0  0
  9  5  1  0  0  0  0
 10 17  1  6  0  0  0
 10 11  1  0  0  0  0
 11 13  1  0  0  0  0
 12  2  1  6  0  0  0
 12 14  1  0  0  0  0
 14 13  1  1  0  0  0
 14  1  1  0  0  0  0
 15 17  2  0  0  0  0
 16 17  1  0  0  0  0
 18 19  1  0  0  0  0
 19 20  1  0  0  0  0
 22 28  1  0  0  0  0
 22 30  1  0  0  0  0
 23 24  1  6  0  0  0
 23 32  1  0  0  0  0
 23 25  1  0  0  0  0
 26 25  1  1  0  0  0
 26 21  1  0  0  0  0
 27 29  1  0  0  0  0
 28 27  1  6  0  0  0
 28 26  1  0  0  0  0
 29 23  1  0  0  0  0
 30 20  1  6  0  0  0
 30 31  1  0  0  0  0
 31 21  1  0  0  0  0
 32 34  1  0  0  0  0
 33 32  2  0  0  0  0
M  END
>  <MODEL>
5

>  <REMARK>
 VINA RESULT:      -8.3      3.154      8.651
  Name = 
  6 active torsions:
  status: ('A' for Active; 'I' for Inactive)
    1  A    between atoms: C_1  and  C_9
    2  A    between atoms: C_7  and  C_11
    3  A    between atoms: O_8  and  C_9
    4  A    between atoms: O_8  and  C_18
    5  A    between atoms: C_18  and  C_30
    6  A    between atoms: C_23  and  C_25
                            x       y       z     vdW  Elec       q    Type
                         _______ _______ _______ _____ _____    ______ ____

>  <TORSDO>
F 6

$$$$
=
 OpenBabel10272415143D

 34 38  0  0  1  0  0  0  0  0999 V2000
  188.7860  177.7730  143.2730 C   0  0  2  0  0  3  0  0  0  0  0  0
  185.0720  178.1650  144.3860 C   0  0  0  0  0  2  0  0  0  0  0  0
  187.1390  177.7380  146.0620 S   0  0  0  0  0  0  0  0  0  0  0  0
  190.8170  177.5860  144.5790 C   0  0  0  0  0  3  0  0  0  0  0  0
  191.0110  176.8060  146.8780 C   0  0  0  0  0  3  0  0  0  0  0  0
  191.6070  177.1340  145.7350 C   0  0  0  0  0  3  0  0  0  0  0  0
  188.7380  176.9130  145.7510 C   0  0  1  0  0  3  0  0  0  0  0  0
  189.4810  177.5430  144.5830 C   0  0  0  0  0  0  0  0  0  0  0  0
  189.5340  176.9970  147.0630 C   0  0  0  0  0  2  0  0  0  0  0  0
  184.5020  178.2820  142.9800 C   0  0  2  0  0  3  0  0  0  0  0  0
  185.3700  179.2230  142.1570 C   0  0  0  0  0  2  0  0  0  0  0  0
  186.4970  177.6140  144.3650 C   0  0  2  0  0  3  0  0  0  0  0  0
  186.7740  178.6480  142.0440 C   0  0  0  0  0  2  0  0  0  0  0  0
  187.4040  178.4270  143.4250 C   0  0  2  0  0  3  0  0  0  0  0  0
  182.3040  178.7880  141.8970 O   0  0  0  0  0  0  0  0  0  0  0  0
  182.6380  179.2270  144.1210 O   0  0  0  0  0  1  0  0  0  0  0  0
  183.1000  178.7880  143.0360 C   0  0  0  0  0  0  0  0  0  0  0  0
  188.7840  176.4990  142.4140 C   0  0  0  0  0  2  0  0  0  0  0  0
  189.8010  176.5340  141.4590 O   0  0  0  0  0  0  0  0  0  0  0  0
  189.3840  177.4820  140.5240 C   0  0  0  0  0  2  0  0  0  0  0  0
  190.3360  176.5310  136.9300 C   0  0  0  0  0  2  0  0  0  0  0  0
  191.5540  176.6780  139.5990 C   0  0  0  0  0  2  0  0  0  0  0  0
  194.0170  175.6470  136.1760 C   0  0  2  0  0  0  0  0  0  0  0  0
  194.6070  176.9130  136.1130 O   0  0  0  0  0  1  0  0  0  0  0  0
  192.5030  175.7920  135.9400 C   0  0  0  0  0  2  0  0  0  0  0  0
  191.6650  175.8400  137.2230 C   0  0  1  0  0  3  0  0  0  0  0  0
  193.7220  175.8330  138.7070 C   0  0  0  0  0  2  0  0  0  0  0  0
  192.4210  176.5610  138.3500 C   0  0  2  0  0  3  0  0  0  0  0  0
  194.3150  175.0230  137.5450 C   0  0  0  0  0  2  0  0  0  0  0  0
  190.2410  177.3880  139.2750 C   0  0  1  0  0  3  0  0  0  0  0  0
  189.4900  176.6160  138.1970 C   0  0  0  0  0  2  0  0  0  0  0  0
  194.5860  174.7650  135.1040 C   0  0  0  0  0  0  0  0  0  0  0  0
  195.8630  175.0080  134.6110 O   0  0  0  0  0  0  0  0  0  0  0  0
  193.9260  173.7890  134.6550 O   0  0  0  0  0  1  0  0  0  0  0  0
  1 18  1  1  0  0  0
  1 14  1  0  0  0  0
  1  8  1  0  0  0  0
  4  8  2  0  0  0  0
  4  6  1  0  0  0  0
  5  9  1  0  0  0  0
  6  5  2  0  0  0  0
  7  3  1  0  0  0  0
  7  9  1  1  0  0  0
  8  7  1  0  0  0  0
 10 17  1  1  0  0  0
 10  2  1  0  0  0  0
 11 10  1  0  0  0  0
 12  2  1  1  0  0  0
 12  3  1  0  0  0  0
 13 11  1  0  0  0  0
 14 13  1  6  0  0  0
 14 12  1  0  0  0  0
 15 17  2  0  0  0  0
 17 16  1  0  0  0  0
 19 18  1  0  0  0  0
 20 19  1  0  0  0  0
 21 26  1  0  0  0  0
 21 31  1  0  0  0  0
 23 24  1  6  0  0  0
 23 29  1  0  0  0  0
 25 23  1  0  0  0  0
 26 25  1  6  0  0  0
 26 28  1  0  0  0  0
 28 27  1  1  0  0  0
 28 22  1  0  0  0  0
 29 27  1  0  0  0  0
 30 22  1  0  0  0  0
 30 20  1  1  0  0  0
 31 30  1  0  0  0  0
 32 23  1  0  0  0  0
 33 32  2  0  0  0  0
 34 32  1  0  0  0  0
M  END
>  <MODEL>
6

>  <REMARK>
 VINA RESULT:      -8.2      2.614      5.420
  Name = 
  6 active torsions:
  status: ('A' for Active; 'I' for Inactive)
    1  A    between atoms: C_1  and  C_9
    2  A    between atoms: C_7  and  C_11
    3  A    between atoms: O_8  and  C_9
    4  A    between atoms: O_8  and  C_18
    5  A    between atoms: C_18  and  C_30
    6  A    between atoms: C_23  and  C_25
                            x       y       z     vdW  Elec       q    Type
                         _______ _______ _______ _____ _____    ______ ____

>  <TORSDO>
F 6

$$$$
=
 OpenBabel10272415143D

 34 38  0  0  1  0  0  0  0  0999 V2000
  188.1830  177.4940  142.2960 C   0  0  2  0  0  3  0  0  0  0  0  0
  192.0310  177.2880  141.7180 C   0  0  0  0  0  2  0  0  0  0  0  0
  190.8390  177.2460  144.1350 S   0  0  0  0  0  0  0  0  0  0  0  0
  186.8750  177.2780  144.3240 C   0  0  0  0  0  3  0  0  0  0  0  0
  187.6380  177.6630  146.6050 C   0  0  0  0  0  3  0  0  0  0  0  0
  186.6280  177.4640  145.7620 C   0  0  0  0  0  3  0  0  0  0  0  0
  189.2380  177.9530  144.6540 C   0  0  1  0  0  3  0  0  0  0  0  0
  188.0910  177.4470  143.7940 C   0  0  0  0  0  0  0  0  0  0  0  0
  189.0610  177.5870  146.1370 C   0  0  0  0  0  2  0  0  0  0  0  0
  191.9680  177.4490  140.2060 C   0  0  2  0  0  3  0  0  0  0  0  0
  190.8570  176.5710  139.6480 C   0  0  0  0  0  2  0  0  0  0  0  0
  190.7150  177.6960  142.3770 C   0  0  2  0  0  3  0  0  0  0  0  0
  189.5210  177.0200  140.2200 C   0  0  0  0  0  2  0  0  0  0  0  0
  189.5170  176.9590  141.7540 C   0  0  2  0  0  3  0  0  0  0  0  0
  193.3900  176.8980  138.2220 O   0  0  0  0  0  0  0  0  0  0  0  0
  194.2840  176.9130  140.3310 O   0  0  0  0  0  1  0  0  0  0  0  0
  193.2770  177.0770  139.5960 C   0  0  0  0  0  0  0  0  0  0  0  0
  187.8010  178.8820  141.7600 C   0  0  0  0  0  2  0  0  0  0  0  0
  186.8090  178.7880  140.7820 O   0  0  0  0  0  0  0  0  0  0  0  0
  185.6310  179.1630  141.4280 C   0  0  0  0  0  2  0  0  0  0  0  0
  182.2430  177.7230  140.3460 C   0  0  0  0  0  2  0  0  0  0  0  0
  184.9080  178.2440  139.2270 C   0  0  0  0  0  2  0  0  0  0  0  0
  181.7560  176.7520  136.6420 C   0  0  2  0  0  0  0  0  0  0  0  0
  181.5390  177.9990  136.0470 O   0  0  0  0  0  1  0  0  0  0  0  0
  181.4460  176.8600  138.1450 C   0  0  0  0  0  2  0  0  0  0  0  0
  182.6780  177.0840  139.0300 C   0  0  1  0  0  3  0  0  0  0  0  0
  184.2230  177.2890  137.0290 C   0  0  0  0  0  2  0  0  0  0  0  0
  183.7210  177.9560  138.3140 C   0  0  2  0  0  3  0  0  0  0  0  0
  183.2090  176.3270  136.3960 C   0  0  0  0  0  2  0  0  0  0  0  0
  184.4390  178.8990  140.5250 C   0  0  1  0  0  3  0  0  0  0  0  0
  183.4530  177.9820  141.2370 C   0  0  0  0  0  2  0  0  0  0  0  0
  180.8380  175.7310  136.0360 C   0  0  0  0  0  0  0  0  0  0  0  0
  180.2780  175.9580  134.7840 O   0  0  0  0  0  0  0  0  0  0  0  0
  180.5840  174.6550  136.6410 O   0  0  0  0  0  1  0  0  0  0  0  0
  1 18  1  1  0  0  0
  1  8  1  0  0  0  0
  3  7  1  0  0  0  0
  4  6  1  0  0  0  0
  6  5  2  0  0  0  0
  7  9  1  1  0  0  0
  8  4  2  0  0  0  0
  8  7  1  0  0  0  0
  9  5  1  0  0  0  0
 10 17  1  6  0  0  0
 10  2  1  0  0  0  0
 11 10  1  0  0  0  0
 11 13  1  0  0  0  0
 12  2  1  6  0  0  0
 12  3  1  0  0  0  0
 14 13  1  6  0  0  0
 14  1  1  0  0  0  0
 14 12  1  0  0  0  0
 15 17  2  0  0  0  0
 17 16  1  0  0  0  0
 19 20  1  0  0  0  0
 19 18  1  0  0  0  0
 21 31  1  0  0  0  0
 22 30  1  0  0  0  0
 23 24  1  6  0  0  0
 23 25  1  0  0  0  0
 26 25  1  6  0  0  0
 26 21  1  0  0  0  0
 28 27  1  6  0  0  0
 28 26  1  0  0  0  0
 28 22  1  0  0  0  0
 29 23  1  0  0  0  0
 29 27  1  0  0  0  0
 30 31  1  0  0  0  0
 30 20  1  1  0  0  0
 32 34  1  0  0  0  0
 32 23  1  0  0  0  0
 33 32  2  0  0  0  0
M  END
>  <MODEL>
7

>  <REMARK>
 VINA RESULT:      -8.1      4.031      6.021
  Name = 
  6 active torsions:
  status: ('A' for Active; 'I' for Inactive)
    1  A    between atoms: C_1  and  C_9
    2  A    between atoms: C_7  and  C_11
    3  A    between atoms: O_8  and  C_9
    4  A    between atoms: O_8  and  C_18
    5  A    between atoms: C_18  and  C_30
    6  A    between atoms: C_23  and  C_25
                            x       y       z     vdW  Elec       q    Type
                         _______ _______ _______ _____ _____    ______ ____

>  <TORSDO>
F 6

$$$$
=
 OpenBabel10272415143D

 34 38  0  0  1  0  0  0  0  0999 V2000
  188.1060  177.3190  144.0870 C   0  0  2  0  0  3  0  0  0  0  0  0
  190.0990  177.2680  147.4360 C   0  0  0  0  0  2  0  0  0  0  0  0
  187.4910  177.9090  147.2130 S   0  0  0  0  0  0  0  0  0  0  0  0
  185.7470  177.6600  143.6560 C   0  0  0  0  0  3  0  0  0  0  0  0
  184.1540  178.8280  145.0810 C   0  0  0  0  0  3  0  0  0  0  0  0
  184.4360  178.2810  143.9020 C   0  0  0  0  0  3  0  0  0  0  0  0
  186.5820  178.6060  145.7910 C   0  0  1  0  0  3  0  0  0  0  0  0
  186.7430  177.7530  144.5430 C   0  0  0  0  0  0  0  0  0  0  0  0
  185.1130  178.7270  146.2300 C   0  0  0  0  0  2  0  0  0  0  0  0
  191.4430  176.9240  146.8090 C   0  0  2  0  0  3  0  0  0  0  0  0
  191.2550  175.8210  145.7780 C   0  0  0  0  0  2  0  0  0  0  0  0
  189.1020  177.7530  146.3850 C   0  0  2  0  0  3  0  0  0  0  0  0
  190.3370  176.3150  144.6700 C   0  0  0  0  0  2  0  0  0  0  0  0
  188.9740  176.7540  145.2220 C   0  0  2  0  0  3  0  0  0  0  0  0
  192.6370  177.2850  148.9780 O   0  0  0  0  0  1  0  0  0  0  0  0
  193.0140  175.3960  147.7370 O   0  0  0  0  0  0  0  0  0  0  0  0
  192.4030  176.4880  147.8630 C   0  0  0  0  0  0  0  0  0  0  0  0
  188.7920  178.4200  143.2640 C   0  0  0  0  0  2  0  0  0  0  0  0
  189.1730  177.9460  142.0070 O   0  0  0  0  0  0  0  0  0  0  0  0
  188.6450  178.8660  141.1010 C   0  0  0  0  0  2  0  0  0  0  0  0
  186.5490  177.7140  138.1000 C   0  0  0  0  0  2  0  0  0  0  0  0
  186.1830  178.9740  140.7280 C   0  0  0  0  0  2  0  0  0  0  0  0
  182.7040  177.9280  138.3520 C   0  0  2  0  0  0  0  0  0  0  0  0
  182.4060  176.8050  139.1300 O   0  0  0  0  0  1  0  0  0  0  0  0
  184.0860  177.7320  137.7060 C   0  0  0  0  0  2  0  0  0  0  0  0
  185.2380  178.4070  138.4600 C   0  0  1  0  0  3  0  0  0  0  0  0
  183.7230  179.1350  140.3590 C   0  0  0  0  0  2  0  0  0  0  0  0
  184.9980  178.3750  139.9770 C   0  0  2  0  0  3  0  0  0  0  0  0
  182.6710  179.1760  139.2430 C   0  0  0  0  0  2  0  0  0  0  0  0
  187.4740  178.2470  140.3580 C   0  0  1  0  0  3  0  0  0  0  0  0
  187.7110  178.3490  138.8570 C   0  0  0  0  0  2  0  0  0  0  0  0
  181.6830  178.0790  137.2630 C   0  0  0  0  0  0  0  0  0  0  0  0
  180.8630  177.0070  136.9260 O   0  0  0  0  0  1  0  0  0  0  0  0
  181.5430  179.1760  136.6590 O   0  0  0  0  0  0  0  0  0  0  0  0
  1 18  1  1  0  0  0
  1  8  1  0  0  0  0
  1 14  1  0  0  0  0
  4  6  1  0  0  0  0
  4  8  2  0  0  0  0
  5  9  1  0  0  0  0
  6  5  2  0  0  0  0
  7  9  1  1  0  0  0
  7  3  1  0  0  0  0
  8  7  1  0  0  0  0
 10  2  1  0  0  0  0
 10 17  1  1  0  0  0
 11 10  1  0  0  0  0
 12  3  1  0  0  0  0
 12  2  1  1  0  0  0
 13 11  1  0  0  0  0
 14 13  1  6  0  0  0
 14 12  1  0  0  0  0
 16 17  2  0  0  0  0
 17 15  1  0  0  0  0
 19 18  1  0  0  0  0
 20 19  1  0  0  0  0
 21 26  1  0  0  0  0
 21 31  1  0  0  0  0
 23 24  1  1  0  0  0
 23 29  1  0  0  0  0
 25 23  1  0  0  0  0
 26 25  1  6  0  0  0
 26 28  1  0  0  0  0
 28 27  1  6  0  0  0
 28 22  1  0  0  0  0
 29 27  1  0  0  0  0
 30 22  1  0  0  0  0
 30 20  1  1  0  0  0
 31 30  1  0  0  0  0
 32 23  1  0  0  0  0
 33 32  1  0  0  0  0
 34 32  2  0  0  0  0
M  END
>  <MODEL>
8

>  <REMARK>
 VINA RESULT:      -7.9      3.756      5.052
  Name = 
  6 active torsions:
  status: ('A' for Active; 'I' for Inactive)
    1  A    between atoms: C_1  and  C_9
    2  A    between atoms: C_7  and  C_11
    3  A    between atoms: O_8  and  C_9
    4  A    between atoms: O_8  and  C_18
    5  A    between atoms: C_18  and  C_30
    6  A    between atoms: C_23  and  C_25
                            x       y       z     vdW  Elec       q    Type
                         _______ _______ _______ _____ _____    ______ ____

>  <TORSDO>
F 6

$$$$
=
 OpenBabel10272415143D

 34 38  0  0  1  0  0  0  0  0999 V2000
  185.0780  178.0580  137.8120 C   0  0  2  0  0  3  0  0  0  0  0  0
  187.9840  175.5760  137.0490 C   0  0  0  0  0  2  0  0  0  0  0  0
  185.4150  175.2020  136.3210 S   0  0  0  0  0  0  0  0  0  0  0  0
  182.7620  178.0470  137.1030 C   0  0  0  0  0  3  0  0  0  0  0  0
  181.4550  176.1140  136.4030 C   0  0  0  0  0  3  0  0  0  0  0  0
  181.4880  177.3950  136.7630 C   0  0  0  0  0  3  0  0  0  0  0  0
  183.8850  175.8370  137.0870 C   0  0  1  0  0  3  0  0  0  0  0  0
  183.8990  177.3530  137.2080 C   0  0  0  0  0  0  0  0  0  0  0  0
  182.7210  175.3310  136.2200 C   0  0  0  0  0  2  0  0  0  0  0  0
  189.0540  176.3590  137.7940 C   0  0  2  0  0  3  0  0  0  0  0  0
  188.9300  177.8380  137.4550 C   0  0  0  0  0  2  0  0  0  0  0  0
  186.5810  176.0440  137.4340 C   0  0  2  0  0  3  0  0  0  0  0  0
  187.5740  178.3500  137.9140 C   0  0  0  0  0  2  0  0  0  0  0  0
  186.4260  177.5660  137.2640 C   0  0  2  0  0  3  0  0  0  0  0  0
  191.1130  175.0260  138.2890 O   0  0  0  0  0  1  0  0  0  0  0  0
  190.9210  176.1930  136.3270 O   0  0  0  0  0  0  0  0  0  0  0  0
  190.4080  175.8550  137.4250 C   0  0  0  0  0  0  0  0  0  0  0  0
  184.9920  178.0680  139.3460 C   0  0  0  0  0  2  0  0  0  0  0  0
  185.1930  179.3540  139.8530 O   0  0  0  0  0  0  0  0  0  0  0  0
  184.9180  179.2490  141.2170 C   0  0  0  0  0  2  0  0  0  0  0  0
  186.7240  177.3870  144.0440 C   0  0  0  0  0  2  0  0  0  0  0  0
  187.3120  178.5920  141.4310 C   0  0  0  0  0  2  0  0  0  0  0  0
  190.4340  176.4410  143.5460 C   0  0  2  0  0  0  0  0  0  0  0  0
  190.3320  175.3150  142.7230 O   0  0  0  0  0  1  0  0  0  0  0  0
  189.0940  176.6430  144.2770 C   0  0  0  0  0  2  0  0  0  0  0  0
  188.1630  177.6670  143.6170 C   0  0  1  0  0  3  0  0  0  0  0  0
  189.7210  177.9860  141.6410 C   0  0  0  0  0  2  0  0  0  0  0  0
  188.2980  177.6310  142.0870 C   0  0  2  0  0  3  0  0  0  0  0  0
  190.7950  177.6590  142.6880 C   0  0  0  0  0  2  0  0  0  0  0  0
  185.8830  178.2730  141.8650 C   0  0  1  0  0  3  0  0  0  0  0  0
  185.7710  178.3760  143.3810 C   0  0  0  0  0  2  0  0  0  0  0  0
  191.5090  176.2290  144.5700 C   0  0  0  0  0  0  0  0  0  0  0  0
  192.2630  175.0600  144.5540 O   0  0  0  0  0  0  0  0  0  0  0  0
  191.7560  177.1090  145.4380 O   0  0  0  0  0  1  0  0  0  0  0  0
  1 18  1  1  0  0  0
  2 10  1  0  0  0  0
  3  7  1  0  0  0  0
  3 12  1  0  0  0  0
  4  8  2  0  0  0  0
  5  6  2  0  0  0  0
  6  4  1  0  0  0  0
  7  9  1  6  0  0  0
  7  8  1  0  0  0  0
  8  1  1  0  0  0  0
  9  5  1  0  0  0  0
 10 17  1  6  0  0  0
 11 10  1  0  0  0  0
 11 13  1  0  0  0  0
 12  2  1  6  0  0  0
 14 12  1  0  0  0  0
 14  1  1  0  0  0  0
 14 13  1  1  0  0  0
 16 17  2  0  0  0  0
 17 15  1  0  0  0  0
 18 19  1  0  0  0  0
 19 20  1  0  0  0  0
 22 30  1  0  0  0  0
 23 24  1  6  0  0  0
 23 25  1  0  0  0  0
 23 32  1  0  0  0  0
 26 21  1  6  0  0  0
 26 25  1  0  0  0  0
 27 28  1  0  0  0  0
 27 29  1  0  0  0  0
 28 22  1  6  0  0  0
 28 26  1  0  0  0  0
 29 23  1  0  0  0  0
 30 20  1  6  0  0  0
 30 31  1  0  0  0  0
 31 21  1  0  0  0  0
 32 34  1  0  0  0  0
 33 32  2  0  0  0  0
M  END
>  <MODEL>
9

>  <REMARK>
 VINA RESULT:      -7.8      3.324      7.486
  Name = 
  6 active torsions:
  status: ('A' for Active; 'I' for Inactive)
    1  A    between atoms: C_1  and  C_9
    2  A    between atoms: C_7  and  C_11
    3  A    between atoms: O_8  and  C_9
    4  A    between atoms: O_8  and  C_18
    5  A    between atoms: C_18  and  C_30
    6  A    between atoms: C_23  and  C_25
                            x       y       z     vdW  Elec       q    Type
                         _______ _______ _______ _____ _____    ______ ____

>  <TORSDO>
F 6

$$$$
