=
 OpenBabel10272414223D

 43 48  0  0  1  0  0  0  0  0999 V2000
  191.6170  176.4400  147.4000 C   0  0  0  0  0  0  0  0  0  0  0  0
  187.5000  177.8380  144.7480 C   0  0  0  0  0  0  0  0  0  0  0  0
  188.1600  177.4580  142.0300 C   0  0  0  0  0  0  0  0  0  0  0  0
  189.3850  177.2050  146.7430 C   0  0  0  0  0  0  0  0  0  0  0  0
  192.0080  176.2720  146.1360 C   0  0  0  0  0  3  0  0  0  0  0  0
  192.4770  176.1650  148.4100 F   0  0  0  0  0  0  0  0  0  0  0  0
  189.7300  177.0550  145.3800 C   0  0  0  0  0  0  0  0  0  0  0  0
  190.2610  176.9200  147.7090 C   0  0  0  0  0  3  0  0  0  0  0  0
  191.0980  176.5580  144.9710 C   0  0  0  0  0  2  0  0  0  0  0  0
  189.1020  177.1940  143.0340 O   0  0  0  0  0  0  0  0  0  0  0  0
  188.7820  177.3650  144.3890 C   0  0  0  0  0  0  0  0  0  0  0  0
  187.1760  177.9660  146.1070 C   0  0  0  0  0  3  0  0  0  0  0  0
  186.6030  178.1320  143.7770 C   0  0  0  0  0  0  0  0  0  0  0  0
  186.9480  177.9060  142.3590 C   0  0  0  0  0  3  0  0  0  0  0  0
  188.1120  177.6550  147.0940 C   0  0  0  0  0  3  0  0  0  0  0  0
  188.5110  177.2450  140.5970 C   0  0  1  0  0  3  0  0  0  0  0  0
  187.8560  178.3010  139.7340 C   0  0  0  0  0  2  0  0  0  0  0  0
  189.9010  177.3200  140.4230 O   0  0  0  0  0  0  0  0  0  0  0  0
  188.9240  178.6830  138.7550 C   0  0  1  0  0  3  0  0  0  0  0  0
  190.0830  177.7770  139.1100 C   0  0  0  0  0  2  0  0  0  0  0  0
  188.4500  178.4020  137.3400 C   0  0  0  0  0  2  0  0  0  0  0  0
  189.1900  177.2740  136.7710 N   0  0  0  0  0  0  0  0  0  0  0  0
  188.3490  175.9910  134.9720 N   0  0  0  0  0  0  0  0  0  0  0  0
  189.6690  177.6980  135.5220 N   0  0  0  0  0  2  0  0  0  0  0  0
  188.3360  176.0990  136.4290 C   0  0  1  0  0  0  0  0  0  0  0  0
  188.9830  174.8580  137.0210 C   0  0  0  0  0  1  0  0  0  0  0  0
  189.1190  176.9010  134.4990 C   0  0  0  0  0  3  0  0  0  0  0  0
  186.8820  176.1950  136.9370 C   0  0  0  0  0  2  0  0  0  0  0  0
  184.9630  176.8320  135.6750 C   0  0  0  0  0  2  0  0  0  0  0  0
  185.3080  174.4970  136.3900 C   0  0  0  0  0  2  0  0  0  0  0  0
  184.0500  176.0360  137.7710 O   0  0  0  0  0  0  0  0  0  0  0  0
  184.0830  174.7200  137.2910 C   0  0  0  0  0  2  0  0  0  0  0  0
  183.7730  176.8290  136.6490 C   0  0  0  0  0  2  0  0  0  0  0  0
  185.9290  175.7490  135.9240 N   0  0  0  0  0  0  0  0  0  0  0  0
  185.2820  178.6090  144.0740 N   0  0  0  0  0  2  0  0  0  0  0  0
  184.2220  178.7660  143.1220 C   0  0  0  0  0  0  0  0  0  0  0  0
  182.6620  178.9300  143.6040 S   0  0  0  0  0  0  0  0  0  0  0  0
  184.5660  179.0350  141.6960 C   0  0  0  0  0  2  0  0  0  0  0  0
  183.3950  178.7040  140.7830 C   0  0  2  0  0  3  0  0  0  0  0  0
  183.3400  177.3280  140.5500 O   0  0  0  0  0  1  0  0  0  0  0  0
  182.4820  179.4910  138.5920 O   0  0  0  0  0  0  0  0  0  0  0  0
  184.6420  179.9650  139.1950 O   0  0  0  0  0  1  0  0  0  0  0  0
  183.5430  179.4270  139.4880 C   0  0  0  0  0  0  0  0  0  0  0  0
  1  8  1  0  0  0  0
  1  6  1  0  0  0  0
  2 12  1  0  0  0  0
  3 14  2  0  0  0  0
  3 10  1  0  0  0  0
  4 15  1  0  0  0  0
  4  8  2  0  0  0  0
  5  1  2  0  0  0  0
  7  4  1  0  0  0  0
  9  7  1  0  0  0  0
  9  5  1  0  0  0  0
 10 11  1  0  0  0  0
 11  2  1  0  0  0  0
 11  7  2  0  0  0  0
 12 15  2  0  0  0  0
 13 35  1  0  0  0  0
 13  2  2  0  0  0  0
 14 13  1  0  0  0  0
 16  3  1  1  0  0  0
 17 16  1  0  0  0  0
 18 16  1  0  0  0  0
 19 21  1  6  0  0  0
 19 20  1  0  0  0  0
 19 17  1  0  0  0  0
 20 18  1  0  0  0  0
 22 21  1  0  0  0  0
 23 25  1  0  0  0  0
 24 22  1  0  0  0  0
 25 22  1  0  0  0  0
 25 28  1  0  0  0  0
 25 26  1  1  0  0  0
 27 23  2  0  0  0  0
 27 24  1  0  0  0  0
 29 34  1  0  0  0  0
 29 33  1  0  0  0  0
 30 32  1  0  0  0  0
 32 31  1  0  0  0  0
 33 31  1  0  0  0  0
 34 30  1  0  0  0  0
 34 28  1  0  0  0  0
 36 37  2  0  0  0  0
 36 35  1  0  0  0  0
 38 36  1  0  0  0  0
 39 40  1  6  0  0  0
 39 38  1  0  0  0  0
 41 43  2  0  0  0  0
 42 43  1  0  0  0  0
 43 39  1  0  0  0  0
M  END
>  <MODEL>
1

>  <REMARK>
 VINA RESULT:      -9.3      0.000      0.000
  Name = 
  10 active torsions:
  status: ('A' for Active; 'I' for Inactive)
    1  A    between atoms: C_1  and  C_9
    2  A    between atoms: C_1  and  N_35
    3  A    between atoms: C_2  and  C_13
    4  A    between atoms: C_3  and  N_4
    5  A    between atoms: C_3  and  C_12
    6  A    between atoms: C_9  and  C_32
    7  A    between atoms: C_14  and  C_22
    8  A    between atoms: C_14  and  N_40
    9  A    between atoms: C_32  and  C_37
   10  A    between atoms: C_34  and  N_35
                            x       y       z     vdW  Elec       q    Type
                         _______ _______ _______ _____ _____    ______ ____

>  <TORSDO>
F 10

$$$$
=
 OpenBabel10272414223D

 43 48  0  0  1  0  0  0  0  0999 V2000
  181.8640  179.0440  142.0190 C   0  0  0  0  0  0  0  0  0  0  0  0
  185.9970  178.0870  144.8370 C   0  0  0  0  0  0  0  0  0  0  0  0
  187.9980  177.2610  143.0260 C   0  0  0  0  0  0  0  0  0  0  0  0
  183.4480  178.7960  143.8700 C   0  0  0  0  0  0  0  0  0  0  0  0
  182.7500  178.6260  141.1130 C   0  0  0  0  0  3  0  0  0  0  0  0
  180.6150  179.3900  141.6250 F   0  0  0  0  0  0  0  0  0  0  0  0
  184.4380  178.3420  142.9690 C   0  0  0  0  0  0  0  0  0  0  0  0
  182.2290  179.1310  143.4410 C   0  0  0  0  0  3  0  0  0  0  0  0
  184.1530  178.2300  141.4880 C   0  0  0  0  0  2  0  0  0  0  0  0
  186.7100  177.5720  142.5690 O   0  0  0  0  0  0  0  0  0  0  0  0
  185.7110  177.9980  143.4560 C   0  0  0  0  0  0  0  0  0  0  0  0
  185.0030  178.5530  145.7100 C   0  0  0  0  0  3  0  0  0  0  0  0
  187.2300  177.7490  145.2840 C   0  0  0  0  0  0  0  0  0  0  0  0
  188.2780  177.3420  144.3270 C   0  0  0  0  0  3  0  0  0  0  0  0
  183.7400  178.9010  145.2310 C   0  0  0  0  0  3  0  0  0  0  0  0
  189.0540  176.8360  142.0640 C   0  0  1  0  0  3  0  0  0  0  0  0
  188.6000  177.0850  140.6420 C   0  0  0  0  0  2  0  0  0  0  0  0
  190.2350  177.5580  142.2920 O   0  0  0  0  0  0  0  0  0  0  0  0
  189.8150  177.6440  139.9660 C   0  0  1  0  0  3  0  0  0  0  0  0
  190.8740  177.6210  141.0460 C   0  0  0  0  0  2  0  0  0  0  0  0
  190.2200  176.7470  138.8100 C   0  0  0  0  0  2  0  0  0  0  0  0
  190.0340  177.4440  137.5360 N   0  0  0  0  0  0  0  0  0  0  0  0
  187.9030  177.7370  136.5560 N   0  0  0  0  0  0  0  0  0  0  0  0
  189.4560  178.6860  137.8390 N   0  0  0  0  0  2  0  0  0  0  0  0
  189.0270  176.8080  136.6380 C   0  0  1  0  0  0  0  0  0  0  0  0
  189.6490  176.6640  135.2580 C   0  0  0  0  0  1  0  0  0  0  0  0
  188.1870  178.7870  137.2360 C   0  0  0  0  0  3  0  0  0  0  0  0
  188.5320  175.4230  137.1080 C   0  0  0  0  0  2  0  0  0  0  0  0
  186.6670  174.5980  135.8740 C   0  0  0  0  0  2  0  0  0  0  0  0
  188.7010  173.2380  136.1830 C   0  0  0  0  0  2  0  0  0  0  0  0
  186.8580  173.0710  137.7440 O   0  0  0  0  0  0  0  0  0  0  0  0
  187.8130  172.3230  137.0410 C   0  0  0  0  0  2  0  0  0  0  0  0
  185.9770  173.5520  136.7660 C   0  0  0  0  0  2  0  0  0  0  0  0
  188.1360  174.5830  135.9810 N   0  0  0  0  0  0  0  0  0  0  0  0
  187.5880  177.8250  146.6720 N   0  0  0  0  0  2  0  0  0  0  0  0
  188.9100  177.6600  147.2000 C   0  0  0  0  0  0  0  0  0  0  0  0
  189.3680  178.3930  148.5950 S   0  0  0  0  0  0  0  0  0  0  0  0
  189.7980  176.6160  146.6110 C   0  0  0  0  0  2  0  0  0  0  0  0
  191.2470  177.0800  146.5970 C   0  0  2  0  0  3  0  0  0  0  0  0
  191.6060  177.4950  145.3140 O   0  0  0  0  0  1  0  0  0  0  0  0
  192.3690  174.8810  146.1970 O   0  0  0  0  0  0  0  0  0  0  0  0
  192.6670  176.0030  148.1740 O   0  0  0  0  0  1  0  0  0  0  0  0
  192.1380  175.9670  147.0340 C   0  0  0  0  0  0  0  0  0  0  0  0
  1  8  1  0  0  0  0
  2 13  2  0  0  0  0
  2 12  1  0  0  0  0
  3 14  2  0  0  0  0
  4 15  1  0  0  0  0
  5  9  1  0  0  0  0
  5  1  2  0  0  0  0
  6  1  1  0  0  0  0
  7 11  2  0  0  0  0
  7  4  1  0  0  0  0
  8  4  2  0  0  0  0
  9  7  1  0  0  0  0
 10  3  1  0  0  0  0
 10 11  1  0  0  0  0
 11  2  1  0  0  0  0
 13 35  1  0  0  0  0
 14 13  1  0  0  0  0
 15 12  2  0  0  0  0
 16 18  1  0  0  0  0
 16  3  1  1  0  0  0
 17 16  1  0  0  0  0
 19 21  1  6  0  0  0
 19 17  1  0  0  0  0
 19 20  1  0  0  0  0
 20 18  1  0  0  0  0
 22 24  1  0  0  0  0
 22 21  1  0  0  0  0
 23 25  1  0  0  0  0
 23 27  2  0  0  0  0
 25 26  1  6  0  0  0
 25 28  1  0  0  0  0
 25 22  1  0  0  0  0
 27 24  1  0  0  0  0
 29 34  1  0  0  0  0
 29 33  1  0  0  0  0
 30 32  1  0  0  0  0
 32 31  1  0  0  0  0
 33 31  1  0  0  0  0
 34 30  1  0  0  0  0
 34 28  1  0  0  0  0
 35 36  1  0  0  0  0
 36 37  2  0  0  0  0
 38 36  1  0  0  0  0
 39 40  1  6  0  0  0
 39 38  1  0  0  0  0
 39 43  1  0  0  0  0
 41 43  2  0  0  0  0
 43 42  1  0  0  0  0
M  END
>  <MODEL>
2

>  <REMARK>
 VINA RESULT:      -9.3      3.243      6.334
  Name = 
  10 active torsions:
  status: ('A' for Active; 'I' for Inactive)
    1  A    between atoms: C_1  and  C_9
    2  A    between atoms: C_1  and  N_35
    3  A    between atoms: C_2  and  C_13
    4  A    between atoms: C_3  and  N_4
    5  A    between atoms: C_3  and  C_12
    6  A    between atoms: C_9  and  C_32
    7  A    between atoms: C_14  and  C_22
    8  A    between atoms: C_14  and  N_40
    9  A    between atoms: C_32  and  C_37
   10  A    between atoms: C_34  and  N_35
                            x       y       z     vdW  Elec       q    Type
                         _______ _______ _______ _____ _____    ______ ____

>  <TORSDO>
F 10

$$$$
=
 OpenBabel10272414223D

 43 48  0  0  1  0  0  0  0  0999 V2000
  191.3150  176.4980  147.1930 C   0  0  0  0  0  0  0  0  0  0  0  0
  187.1580  177.8780  144.5940 C   0  0  0  0  0  0  0  0  0  0  0  0
  187.9840  178.1830  141.9120 C   0  0  0  0  0  0  0  0  0  0  0  0
  189.0260  177.0860  146.5460 C   0  0  0  0  0  0  0  0  0  0  0  0
  191.7810  176.6600  145.9540 C   0  0  0  0  0  3  0  0  0  0  0  0
  192.1610  176.1290  148.1840 F   0  0  0  0  0  0  0  0  0  0  0  0
  189.4480  177.2790  145.2110 C   0  0  0  0  0  0  0  0  0  0  0  0
  189.8920  176.7170  147.4940 C   0  0  0  0  0  3  0  0  0  0  0  0
  190.8900  177.0670  144.8090 C   0  0  0  0  0  2  0  0  0  0  0  0
  188.9090  177.8360  142.9060 O   0  0  0  0  0  0  0  0  0  0  0  0
  188.5100  177.6670  144.2390 C   0  0  0  0  0  0  0  0  0  0  0  0
  186.7610  177.6670  145.9220 C   0  0  0  0  0  3  0  0  0  0  0  0
  186.2710  178.2530  143.6410 C   0  0  0  0  0  0  0  0  0  0  0  0
  186.7070  178.3860  142.2360 C   0  0  0  0  0  3  0  0  0  0  0  0
  187.6870  177.2770  146.8890 C   0  0  0  0  0  3  0  0  0  0  0  0
  188.4240  178.3320  140.4960 C   0  0  1  0  0  3  0  0  0  0  0  0
  189.1560  177.0890  140.0400 C   0  0  0  0  0  2  0  0  0  0  0  0
  187.3120  178.5300  139.6630 O   0  0  0  0  0  0  0  0  0  0  0  0
  188.6350  176.8470  138.6560 C   0  0  1  0  0  3  0  0  0  0  0  0
  187.6860  178.0020  138.4190 C   0  0  0  0  0  2  0  0  0  0  0  0
  189.7800  176.8930  137.6590 C   0  0  0  0  0  2  0  0  0  0  0  0
  189.4070  176.2000  136.4250 N   0  0  0  0  0  0  0  0  0  0  0  0
  190.1200  173.9970  135.9490 N   0  0  0  0  0  0  0  0  0  0  0  0
  188.4610  175.2260  136.7810 N   0  0  0  0  0  2  0  0  0  0  0  0
  190.5120  175.3990  135.8220 C   0  0  1  0  0  0  0  0  0  0  0  0
  190.6010  175.7540  134.3460 C   0  0  0  0  0  1  0  0  0  0  0  0
  188.9560  173.9410  136.4830 C   0  0  0  0  0  3  0  0  0  0  0  0
  191.8940  175.6210  136.4730 C   0  0  0  0  0  2  0  0  0  0  0  0
  193.3470  174.2090  137.7280 C   0  0  0  0  0  2  0  0  0  0  0  0
  193.6790  174.5620  135.3100 C   0  0  0  0  0  2  0  0  0  0  0  0
  194.7930  175.9770  136.9270 O   0  0  0  0  0  0  0  0  0  0  0  0
  194.9690  175.2920  135.7170 C   0  0  0  0  0  2  0  0  0  0  0  0
  194.6670  174.9770  137.9000 C   0  0  0  0  0  2  0  0  0  0  0  0
  192.7150  174.4140  136.4140 N   0  0  0  0  0  0  0  0  0  0  0  0
  184.8840  178.4760  143.9330 N   0  0  0  0  0  2  0  0  0  0  0  0
  183.8230  178.4870  142.9680 C   0  0  0  0  0  0  0  0  0  0  0  0
  182.3220  179.0220  143.3610 S   0  0  0  0  0  0  0  0  0  0  0  0
  184.1490  178.2480  141.5330 C   0  0  0  0  0  2  0  0  0  0  0  0
  182.9390  178.5110  140.6500 C   0  0  2  0  0  3  0  0  0  0  0  0
  182.4660  177.3120  140.1130 O   0  0  0  0  0  1  0  0  0  0  0  0
  182.3660  179.8280  138.6030 O   0  0  0  0  0  0  0  0  0  0  0  0
  184.4910  179.8700  139.4620 O   0  0  0  0  0  1  0  0  0  0  0  0
  183.3100  179.4440  139.5480 C   0  0  0  0  0  0  0  0  0  0  0  0
  1  8  1  0  0  0  0
  1  6  1  0  0  0  0
  2 12  1  0  0  0  0
  3 14  2  0  0  0  0
  3 10  1  0  0  0  0
  4 15  1  0  0  0  0
  4  8  2  0  0  0  0
  5  1  2  0  0  0  0
  7  4  1  0  0  0  0
  9  7  1  0  0  0  0
  9  5  1  0  0  0  0
 10 11  1  0  0  0  0
 11  2  1  0  0  0  0
 11  7  2  0  0  0  0
 12 15  2  0  0  0  0
 13 35  1  0  0  0  0
 13  2  2  0  0  0  0
 14 13  1  0  0  0  0
 16  3  1  1  0  0  0
 17 16  1  0  0  0  0
 18 16  1  0  0  0  0
 19 21  1  6  0  0  0
 19 17  1  0  0  0  0
 20 19  1  0  0  0  0
 20 18  1  0  0  0  0
 22 24  1  0  0  0  0
 22 21  1  0  0  0  0
 23 27  2  0  0  0  0
 25 26  1  6  0  0  0
 25 23  1  0  0  0  0
 25 22  1  0  0  0  0
 25 28  1  0  0  0  0
 27 24  1  0  0  0  0
 29 33  1  0  0  0  0
 30 32  1  0  0  0  0
 30 34  1  0  0  0  0
 31 33  1  0  0  0  0
 32 31  1  0  0  0  0
 34 28  1  0  0  0  0
 34 29  1  0  0  0  0
 36 37  2  0  0  0  0
 36 35  1  0  0  0  0
 38 36  1  0  0  0  0
 39 40  1  6  0  0  0
 39 38  1  0  0  0  0
 41 43  2  0  0  0  0
 42 43  1  0  0  0  0
 43 39  1  0  0  0  0
M  END
>  <MODEL>
3

>  <REMARK>
 VINA RESULT:      -9.1      2.304      3.944
  Name = 
  10 active torsions:
  status: ('A' for Active; 'I' for Inactive)
    1  A    between atoms: C_1  and  C_9
    2  A    between atoms: C_1  and  N_35
    3  A    between atoms: C_2  and  C_13
    4  A    between atoms: C_3  and  N_4
    5  A    between atoms: C_3  and  C_12
    6  A    between atoms: C_9  and  C_32
    7  A    between atoms: C_14  and  C_22
    8  A    between atoms: C_14  and  N_40
    9  A    between atoms: C_32  and  C_37
   10  A    between atoms: C_34  and  N_35
                            x       y       z     vdW  Elec       q    Type
                         _______ _______ _______ _____ _____    ______ ____

>  <TORSDO>
F 10

$$$$
=
 OpenBabel10272414223D

 43 48  0  0  1  0  0  0  0  0999 V2000
  188.1420  177.2700  147.1380 C   0  0  0  0  0  0  0  0  0  0  0  0
  186.1820  178.5100  142.6040 C   0  0  0  0  0  0  0  0  0  0  0  0
  188.2580  178.1300  140.7290 C   0  0  0  0  0  0  0  0  0  0  0  0
  186.6430  177.9560  145.3260 C   0  0  0  0  0  0  0  0  0  0  0  0
  189.1770  177.1050  146.3130 C   0  0  0  0  0  3  0  0  0  0  0  0
  188.2970  177.0320  148.4620 F   0  0  0  0  0  0  0  0  0  0  0  0
  187.6940  177.8060  144.3930 C   0  0  0  0  0  0  0  0  0  0  0  0
  186.8350  177.7080  146.6240 C   0  0  0  0  0  3  0  0  0  0  0  0
  189.0680  177.3510  144.8310 C   0  0  0  0  0  2  0  0  0  0  0  0
  188.4830  177.9050  142.0940 O   0  0  0  0  0  0  0  0  0  0  0  0
  187.4560  178.0760  143.0350 C   0  0  0  0  0  0  0  0  0  0  0  0
  185.1510  178.6380  143.5460 C   0  0  0  0  0  3  0  0  0  0  0  0
  185.9760  178.7660  141.2900 C   0  0  0  0  0  0  0  0  0  0  0  0
  187.0600  178.5400  140.3130 C   0  0  0  0  0  3  0  0  0  0  0  0
  185.3810  178.3670  144.8950 C   0  0  0  0  0  3  0  0  0  0  0  0
  189.3550  177.9160  139.7430 C   0  0  1  0  0  3  0  0  0  0  0  0
  189.5390  176.4390  139.4740 C   0  0  0  0  0  2  0  0  0  0  0  0
  189.0490  178.5590  138.5340 O   0  0  0  0  0  0  0  0  0  0  0  0
  189.7360  176.3620  137.9900 C   0  0  1  0  0  3  0  0  0  0  0  0
  189.6970  177.8070  137.5440 C   0  0  0  0  0  2  0  0  0  0  0  0
  191.0910  175.7510  137.6820 C   0  0  0  0  0  2  0  0  0  0  0  0
  191.1250  175.2610  136.3020 N   0  0  0  0  0  0  0  0  0  0  0  0
  191.5280  172.9920  135.7760 N   0  0  0  0  0  0  0  0  0  0  0  0
  189.9470  174.5240  136.1080 N   0  0  0  0  0  2  0  0  0  0  0  0
  192.2010  174.2620  136.0390 C   0  0  1  0  0  0  0  0  0  0  0  0
  192.9490  174.6920  134.7870 C   0  0  0  0  0  1  0  0  0  0  0  0
  190.2610  173.1830  135.8130 C   0  0  0  0  0  3  0  0  0  0  0  0
  193.2140  174.0920  137.1920 C   0  0  0  0  0  2  0  0  0  0  0  0
  194.8590  172.4380  136.7030 C   0  0  0  0  0  2  0  0  0  0  0  0
  195.4970  174.6800  137.5090 C   0  0  0  0  0  2  0  0  0  0  0  0
  195.1390  172.8650  139.0700 O   0  0  0  0  0  0  0  0  0  0  0  0
  195.9690  173.9560  138.7800 C   0  0  0  0  0  2  0  0  0  0  0  0
  195.3900  171.9320  138.0550 C   0  0  0  0  0  2  0  0  0  0  0  0
  194.5690  173.8820  136.6900 N   0  0  0  0  0  0  0  0  0  0  0  0
  184.7040  179.2010  140.7860 N   0  0  0  0  0  2  0  0  0  0  0  0
  183.5670  178.3590  140.5600 C   0  0  0  0  0  0  0  0  0  0  0  0
  182.1260  178.6610  141.2870 S   0  0  0  0  0  0  0  0  0  0  0  0
  183.6220  177.3480  139.4660 C   0  0  0  0  0  2  0  0  0  0  0  0
  183.9410  178.0070  138.1320 C   0  0  2  0  0  3  0  0  0  0  0  0
  182.7610  178.2960  137.4440 O   0  0  0  0  0  1  0  0  0  0  0  0
  184.2160  176.0930  136.5470 O   0  0  0  0  0  0  0  0  0  0  0  0
  186.0430  177.2370  137.3260 O   0  0  0  0  0  1  0  0  0  0  0  0
  184.7930  177.1010  137.3110 C   0  0  0  0  0  0  0  0  0  0  0  0
  1  6  1  0  0  0  0
  2 11  1  0  0  0  0
  2 12  1  0  0  0  0
  3 10  1  0  0  0  0
  4  8  2  0  0  0  0
  5  1  2  0  0  0  0
  7  9  1  0  0  0  0
  7  4  1  0  0  0  0
  8  1  1  0  0  0  0
  9  5  1  0  0  0  0
 10 11  1  0  0  0  0
 11  7  2  0  0  0  0
 12 15  2  0  0  0  0
 13  2  2  0  0  0  0
 14  3  2  0  0  0  0
 14 13  1  0  0  0  0
 15  4  1  0  0  0  0
 16  3  1  1  0  0  0
 17 16  1  0  0  0  0
 18 16  1  0  0  0  0
 19 21  1  1  0  0  0
 19 17  1  0  0  0  0
 20 19  1  0  0  0  0
 20 18  1  0  0  0  0
 22 21  1  0  0  0  0
 23 27  2  0  0  0  0
 23 25  1  0  0  0  0
 24 22  1  0  0  0  0
 25 26  1  6  0  0  0
 25 22  1  0  0  0  0
 25 28  1  0  0  0  0
 27 24  1  0  0  0  0
 29 33  1  0  0  0  0
 30 32  1  0  0  0  0
 32 31  1  0  0  0  0
 33 31  1  0  0  0  0
 34 29  1  0  0  0  0
 34 28  1  0  0  0  0
 34 30  1  0  0  0  0
 35 13  1  0  0  0  0
 36 35  1  0  0  0  0
 36 37  2  0  0  0  0
 38 36  1  0  0  0  0
 39 40  1  6  0  0  0
 39 38  1  0  0  0  0
 41 43  2  0  0  0  0
 43 42  1  0  0  0  0
 43 39  1  0  0  0  0
M  END
>  <MODEL>
4

>  <REMARK>
 VINA RESULT:      -8.8      3.230      5.143
  Name = 
  10 active torsions:
  status: ('A' for Active; 'I' for Inactive)
    1  A    between atoms: C_1  and  C_9
    2  A    between atoms: C_1  and  N_35
    3  A    between atoms: C_2  and  C_13
    4  A    between atoms: C_3  and  N_4
    5  A    between atoms: C_3  and  C_12
    6  A    between atoms: C_9  and  C_32
    7  A    between atoms: C_14  and  C_22
    8  A    between atoms: C_14  and  N_40
    9  A    between atoms: C_32  and  C_37
   10  A    between atoms: C_34  and  N_35
                            x       y       z     vdW  Elec       q    Type
                         _______ _______ _______ _____ _____    ______ ____

>  <TORSDO>
F 10

$$$$
=
 OpenBabel10272414223D

 43 48  0  0  1  0  0  0  0  0999 V2000
  181.5700  178.9710  143.1020 C   0  0  0  0  0  0  0  0  0  0  0  0
  186.6210  178.3430  142.9090 C   0  0  0  0  0  0  0  0  0  0  0  0
  187.3050  178.3830  140.1700 C   0  0  0  0  0  0  0  0  0  0  0  0
  183.9330  178.6760  143.6800 C   0  0  0  0  0  0  0  0  0  0  0  0
  181.8180  178.9620  141.7920 C   0  0  0  0  0  3  0  0  0  0  0  0
  180.2980  179.1160  143.5430 F   0  0  0  0  0  0  0  0  0  0  0  0
  184.2710  178.6540  142.3070 C   0  0  0  0  0  0  0  0  0  0  0  0
  182.6660  178.8250  144.0740 C   0  0  0  0  0  3  0  0  0  0  0  0
  183.2110  178.8070  141.2400 C   0  0  0  0  0  2  0  0  0  0  0  0
  185.9670  178.5000  140.5710 O   0  0  0  0  0  0  0  0  0  0  0  0
  185.6150  178.4960  141.9290 C   0  0  0  0  0  0  0  0  0  0  0  0
  186.2640  178.3820  144.2640 C   0  0  0  0  0  3  0  0  0  0  0  0
  187.9100  178.1910  142.5210 C   0  0  0  0  0  0  0  0  0  0  0  0
  188.2620  178.2380  141.0880 C   0  0  0  0  0  3  0  0  0  0  0  0
  184.9310  178.5440  144.6450 C   0  0  0  0  0  3  0  0  0  0  0  0
  187.6610  178.4170  138.7240 C   0  0  1  0  0  3  0  0  0  0  0  0
  188.2420  177.0870  138.2960 C   0  0  0  0  0  2  0  0  0  0  0  0
  186.5210  178.6800  137.9510 O   0  0  0  0  0  0  0  0  0  0  0  0
  187.6100  176.8280  136.9620 C   0  0  1  0  0  3  0  0  0  0  0  0
  186.7600  178.0560  136.7180 C   0  0  0  0  0  2  0  0  0  0  0  0
  188.6850  176.7110  135.8960 C   0  0  0  0  0  2  0  0  0  0  0  0
  188.7000  175.3590  135.3350 N   0  0  0  0  0  0  0  0  0  0  0  0
  189.5350  173.5020  136.5350 N   0  0  0  0  0  0  0  0  0  0  0  0
  187.6960  174.6370  135.9990 N   0  0  0  0  0  2  0  0  0  0  0  0
  189.9380  174.5870  135.6440 C   0  0  1  0  0  0  0  0  0  0  0  0
  190.4600  173.9910  134.3460 C   0  0  0  0  0  1  0  0  0  0  0  0
  188.2650  173.5570  136.7030 C   0  0  0  0  0  3  0  0  0  0  0  0
  191.0630  175.4160  136.3000 C   0  0  0  0  0  2  0  0  0  0  0  0
  191.6560  175.8710  138.5630 C   0  0  0  0  0  2  0  0  0  0  0  0
  192.7680  174.0800  137.2830 C   0  0  0  0  0  2  0  0  0  0  0  0
  193.6860  176.3190  137.3220 O   0  0  0  0  0  0  0  0  0  0  0  0
  194.0240  174.9610  137.3750 C   0  0  0  0  0  2  0  0  0  0  0  0
  193.0200  176.5790  138.5280 C   0  0  0  0  0  2  0  0  0  0  0  0
  191.5180  174.8110  137.5490 N   0  0  0  0  0  0  0  0  0  0  0  0
  188.9800  178.0390  143.4660 N   0  0  0  0  0  2  0  0  0  0  0  0
  189.5210  176.7900  143.9150 C   0  0  0  0  0  0  0  0  0  0  0  0
  190.4170  175.8430  142.9180 S   0  0  0  0  0  0  0  0  0  0  0  0
  189.4810  176.4670  145.3700 C   0  0  0  0  0  2  0  0  0  0  0  0
  189.8110  177.6920  146.2090 C   0  0  2  0  0  3  0  0  0  0  0  0
  191.1350  177.6340  146.6460 O   0  0  0  0  0  1  0  0  0  0  0  0
  189.3400  178.2880  148.5910 O   0  0  0  0  0  1  0  0  0  0  0  0
  187.7210  177.3240  147.2860 O   0  0  0  0  0  0  0  0  0  0  0  0
  188.8960  177.7620  147.3830 C   0  0  0  0  0  0  0  0  0  0  0  0
  1  6  1  0  0  0  0
  1  8  1  0  0  0  0
  2 12  1  0  0  0  0
  3 10  1  0  0  0  0
  3 14  2  0  0  0  0
  4  8  2  0  0  0  0
  4 15  1  0  0  0  0
  5  1  2  0  0  0  0
  7  4  1  0  0  0  0
  9  5  1  0  0  0  0
  9  7  1  0  0  0  0
 10 11  1  0  0  0  0
 11  7  2  0  0  0  0
 11  2  1  0  0  0  0
 12 15  2  0  0  0  0
 13  2  2  0  0  0  0
 13 35  1  0  0  0  0
 14 13  1  0  0  0  0
 16  3  1  1  0  0  0
 17 16  1  0  0  0  0
 18 16  1  0  0  0  0
 19 21  1  6  0  0  0
 19 17  1  0  0  0  0
 20 19  1  0  0  0  0
 20 18  1  0  0  0  0
 22 25  1  0  0  0  0
 22 21  1  0  0  0  0
 22 24  1  0  0  0  0
 23 27  2  0  0  0  0
 24 27  1  0  0  0  0
 25 26  1  6  0  0  0
 25 28  1  0  0  0  0
 25 23  1  0  0  0  0
 28 34  1  0  0  0  0
 30 32  1  0  0  0  0
 30 34  1  0  0  0  0
 31 32  1  0  0  0  0
 31 33  1  0  0  0  0
 33 29  1  0  0  0  0
 34 29  1  0  0  0  0
 35 36  1  0  0  0  0
 36 38  1  0  0  0  0
 37 36  2  0  0  0  0
 38 39  1  0  0  0  0
 39 40  1  1  0  0  0
 39 43  1  0  0  0  0
 42 43  2  0  0  0  0
 43 41  1  0  0  0  0
M  END
>  <MODEL>
5

>  <REMARK>
 VINA RESULT:      -8.4      3.448      6.766
  Name = 
  10 active torsions:
  status: ('A' for Active; 'I' for Inactive)
    1  A    between atoms: C_1  and  C_9
    2  A    between atoms: C_1  and  N_35
    3  A    between atoms: C_2  and  C_13
    4  A    between atoms: C_3  and  N_4
    5  A    between atoms: C_3  and  C_12
    6  A    between atoms: C_9  and  C_32
    7  A    between atoms: C_14  and  C_22
    8  A    between atoms: C_14  and  N_40
    9  A    between atoms: C_32  and  C_37
   10  A    between atoms: C_34  and  N_35
                            x       y       z     vdW  Elec       q    Type
                         _______ _______ _______ _____ _____    ______ ____

>  <TORSDO>
F 10

$$$$
=
 OpenBabel10272414223D

 43 48  0  0  1  0  0  0  0  0999 V2000
  190.4740  176.9130  146.6770 C   0  0  0  0  0  0  0  0  0  0  0  0
  189.7430  177.6170  141.6860 C   0  0  0  0  0  0  0  0  0  0  0  0
  187.0970  178.5630  141.4140 C   0  0  0  0  0  0  0  0  0  0  0  0
  190.7670  177.0600  144.2500 C   0  0  0  0  0  0  0  0  0  0  0  0
  189.2050  177.3200  146.6180 C   0  0  0  0  0  3  0  0  0  0  0  0
  191.0270  176.6170  147.8770 F   0  0  0  0  0  0  0  0  0  0  0  0
  189.4290  177.4930  144.1090 C   0  0  0  0  0  0  0  0  0  0  0  0
  191.2770  176.7810  145.4520 C   0  0  0  0  0  3  0  0  0  0  0  0
  188.5340  177.6660  145.3150 C   0  0  0  0  0  3  0  0  0  0  0  0
  187.6090  178.2350  142.6770 O   0  0  0  0  0  0  0  0  0  0  0  0
  188.9260  177.7780  142.8280 C   0  0  0  0  0  0  0  0  0  0  0  0
  191.0710  177.1980  141.8520 C   0  0  0  0  0  2  0  0  0  0  0  0
  189.2360  177.8950  140.4610 C   0  0  0  0  0  0  0  0  0  0  0  0
  187.8600  178.4130  140.3300 C   0  0  0  0  0  3  0  0  0  0  0  0
  191.5770  176.9200  143.1220 C   0  0  0  0  0  3  0  0  0  0  0  0
  185.7030  179.0730  141.2780 C   0  0  1  0  0  3  0  0  0  0  0  0
  185.0860  178.5750  139.9890 C   0  0  0  0  0  2  0  0  0  0  0  0
  184.9190  178.6300  142.3530 O   0  0  0  0  0  0  0  0  0  0  0  0
  183.6910  178.1920  140.3790 C   0  0  1  0  0  3  0  0  0  0  0  0
  183.6140  178.5500  141.8480 C   0  0  0  0  0  2  0  0  0  0  0  0
  182.6900  179.0110  139.5840 C   0  0  0  0  0  2  0  0  0  0  0  0
  181.5090  178.2050  139.2700 N   0  0  0  0  0  0  0  0  0  0  0  0
  181.6670  175.9550  138.5610 N   0  0  0  0  0  0  0  0  0  0  0  0
  181.3600  177.2860  140.3200 N   0  0  0  0  0  2  0  0  0  0  0  0
  181.6710  177.3320  138.0710 C   0  0  1  0  0  0  0  0  0  0  0  0
  180.4640  177.5380  137.1700 C   0  0  0  0  0  1  0  0  0  0  0  0
  181.4790  175.9700  139.8290 C   0  0  0  0  0  3  0  0  0  0  0  0
  182.9540  177.5960  137.2540 C   0  0  0  0  0  2  0  0  0  0  0  0
  184.5920  175.8660  137.3370 C   0  0  0  0  0  2  0  0  0  0  0  0
  183.7210  176.7040  135.1870 C   0  0  0  0  0  2  0  0  0  0  0  0
  185.7050  177.6760  136.1760 O   0  0  0  0  0  0  0  0  0  0  0  0
  185.1390  177.2540  134.9660 C   0  0  0  0  0  2  0  0  0  0  0  0
  185.9250  176.5010  136.9080 C   0  0  0  0  0  2  0  0  0  0  0  0
  183.4300  176.3830  136.5940 N   0  0  0  0  0  0  0  0  0  0  0  0
  190.0140  177.7600  139.2630 N   0  0  0  0  0  2  0  0  0  0  0  0
  189.4840  177.5930  137.9420 C   0  0  0  0  0  0  0  0  0  0  0  0
  188.9810  178.8810  137.0570 S   0  0  0  0  0  0  0  0  0  0  0  0
  189.6210  176.2690  137.2700 C   0  0  0  0  0  2  0  0  0  0  0  0
  191.0780  175.9670  136.9550 C   0  0  2  0  0  3  0  0  0  0  0  0
  191.3270  176.1630  135.5950 O   0  0  0  0  0  1  0  0  0  0  0  0
  192.7090  174.1750  137.5710 O   0  0  0  0  0  1  0  0  0  0  0  0
  190.4710  173.7100  137.4000 O   0  0  0  0  0  0  0  0  0  0  0  0
  191.3950  174.5590  137.3260 C   0  0  0  0  0  0  0  0  0  0  0  0
  1  6  1  0  0  0  0
  2 12  1  0  0  0  0
  2 11  1  0  0  0  0
  3 10  1  0  0  0  0
  4  8  1  0  0  0  0
  5  1  1  0  0  0  0
  7  4  1  0  0  0  0
  7  9  1  0  0  0  0
  8  1  2  0  0  0  0
  9  5  2  0  0  0  0
 10 11  1  0  0  0  0
 11  7  2  0  0  0  0
 12 15  1  0  0  0  0
 13  2  2  0  0  0  0
 14 13  1  0  0  0  0
 14  3  2  0  0  0  0
 15  4  2  0  0  0  0
 16  3  1  1  0  0  0
 16 18  1  0  0  0  0
 17 19  1  0  0  0  0
 17 16  1  0  0  0  0
 19 21  1  6  0  0  0
 19 20  1  0  0  0  0
 20 18  1  0  0  0  0
 22 21  1  0  0  0  0
 22 24  1  0  0  0  0
 23 27  2  0  0  0  0
 25 26  1  6  0  0  0
 25 23  1  0  0  0  0
 25 22  1  0  0  0  0
 27 24  1  0  0  0  0
 28 25  1  0  0  0  0
 30 34  1  0  0  0  0
 31 33  1  0  0  0  0
 32 30  1  0  0  0  0
 32 31  1  0  0  0  0
 33 29  1  0  0  0  0
 34 28  1  0  0  0  0
 34 29  1  0  0  0  0
 35 13  1  0  0  0  0
 36 35  1  0  0  0  0
 37 36  2  0  0  0  0
 38 36  1  0  0  0  0
 39 40  1  6  0  0  0
 39 38  1  0  0  0  0
 39 43  1  0  0  0  0
 43 42  2  0  0  0  0
 43 41  1  0  0  0  0
M  END
>  <MODEL>
6

>  <REMARK>
 VINA RESULT:      -8.1      2.932      5.943
  Name = 
  10 active torsions:
  status: ('A' for Active; 'I' for Inactive)
    1  A    between atoms: C_1  and  C_9
    2  A    between atoms: C_1  and  N_35
    3  A    between atoms: C_2  and  C_13
    4  A    between atoms: C_3  and  N_4
    5  A    between atoms: C_3  and  C_12
    6  A    between atoms: C_9  and  C_32
    7  A    between atoms: C_14  and  C_22
    8  A    between atoms: C_14  and  N_40
    9  A    between atoms: C_32  and  C_37
   10  A    between atoms: C_34  and  N_35
                            x       y       z     vdW  Elec       q    Type
                         _______ _______ _______ _____ _____    ______ ____

>  <TORSDO>
F 10

$$$$
=
 OpenBabel10272414223D

 43 48  0  0  1  0  0  0  0  0999 V2000
  188.0550  177.2830  146.8560 C   0  0  0  0  0  0  0  0  0  0  0  0
  188.2680  178.1540  141.8420 C   0  0  0  0  0  0  0  0  0  0  0  0
  185.6050  178.5920  141.0150 C   0  0  0  0  0  0  0  0  0  0  0  0
  188.8190  177.6400  144.5560 C   0  0  0  0  0  0  0  0  0  0  0  0
  186.7710  177.4430  146.5280 C   0  0  0  0  0  3  0  0  0  0  0  0
  188.3900  177.0230  148.1420 F   0  0  0  0  0  0  0  0  0  0  0  0
  187.4810  177.8180  144.1340 C   0  0  0  0  0  0  0  0  0  0  0  0
  189.1090  177.3880  145.8350 C   0  0  0  0  0  3  0  0  0  0  0  0
  186.3350  177.7370  145.1170 C   0  0  0  0  0  3  0  0  0  0  0  0
  185.8930  178.2880  142.3530 O   0  0  0  0  0  0  0  0  0  0  0  0
  187.2130  178.0820  142.7800 C   0  0  0  0  0  0  0  0  0  0  0  0
  189.5880  177.9880  142.2870 C   0  0  0  0  0  2  0  0  0  0  0  0
  187.9860  178.4090  140.5420 C   0  0  0  0  0  0  0  0  0  0  0  0
  186.5930  178.6610  140.1230 C   0  0  0  0  0  3  0  0  0  0  0  0
  189.8600  177.7300  143.6310 C   0  0  0  0  0  3  0  0  0  0  0  0
  184.1980  178.8330  140.5870 C   0  0  1  0  0  3  0  0  0  0  0  0
  183.7630  177.7760  139.5960 C   0  0  0  0  0  2  0  0  0  0  0  0
  183.3410  178.7900  141.6960 O   0  0  0  0  0  0  0  0  0  0  0  0
  182.3680  177.4310  140.0220 C   0  0  1  0  0  3  0  0  0  0  0  0
  182.1070  178.3570  141.1910 C   0  0  0  0  0  2  0  0  0  0  0  0
  181.3970  177.7220  138.8920 C   0  0  0  0  0  2  0  0  0  0  0  0
  182.1080  178.2910  137.7450 N   0  0  0  0  0  0  0  0  0  0  0  0
  181.1410  178.4060  135.5910 N   0  0  0  0  0  0  0  0  0  0  0  0
  181.5090  179.5310  137.4770 N   0  0  0  0  0  2  0  0  0  0  0  0
  181.9120  177.5340  136.4740 C   0  0  1  0  0  0  0  0  0  0  0  0
  183.2790  177.2900  135.8550 C   0  0  0  0  0  1  0  0  0  0  0  0
  180.9430  179.5240  136.1870 C   0  0  0  0  0  3  0  0  0  0  0  0
  181.1890  176.1800  136.6390 C   0  0  0  0  0  2  0  0  0  0  0  0
  181.1270  174.5140  134.9350 C   0  0  0  0  0  2  0  0  0  0  0  0
  182.3040  174.1230  137.0670 C   0  0  0  0  0  2  0  0  0  0  0  0
  179.9840  173.4860  136.8050 O   0  0  0  0  0  0  0  0  0  0  0  0
  181.2130  173.0750  137.3370 C   0  0  0  0  0  2  0  0  0  0  0  0
  180.1480  173.4300  135.4140 C   0  0  0  0  0  2  0  0  0  0  0  0
  181.9410  175.0920  136.0190 N   0  0  0  0  0  0  0  0  0  0  0  0
  189.0110  178.5020  139.5420 N   0  0  0  0  0  2  0  0  0  0  0  0
  188.9890  177.8500  138.2650 C   0  0  0  0  0  0  0  0  0  0  0  0
  188.6610  178.6840  136.8900 S   0  0  0  0  0  0  0  0  0  0  0  0
  189.5110  176.4580  138.1560 C   0  0  0  0  0  2  0  0  0  0  0  0
  188.8710  175.7280  136.9850 C   0  0  2  0  0  3  0  0  0  0  0  0
  187.6430  175.1870  137.3690 O   0  0  0  0  0  1  0  0  0  0  0  0
  190.0990  173.5810  137.3530 O   0  0  0  0  0  1  0  0  0  0  0  0
  190.2610  174.6910  135.3540 O   0  0  0  0  0  0  0  0  0  0  0  0
  189.7740  174.6400  136.5130 C   0  0  0  0  0  0  0  0  0  0  0  0
  1  6  1  0  0  0  0
  2 12  1  0  0  0  0
  2 11  1  0  0  0  0
  3 10  1  0  0  0  0
  4  8  1  0  0  0  0
  5  1  1  0  0  0  0
  7  4  1  0  0  0  0
  7  9  1  0  0  0  0
  8  1  2  0  0  0  0
  9  5  2  0  0  0  0
 10 11  1  0  0  0  0
 11  7  2  0  0  0  0
 12 15  1  0  0  0  0
 13  2  2  0  0  0  0
 14 13  1  0  0  0  0
 14  3  2  0  0  0  0
 15  4  2  0  0  0  0
 16  3  1  1  0  0  0
 16 18  1  0  0  0  0
 17 19  1  0  0  0  0
 17 16  1  0  0  0  0
 19 21  1  6  0  0  0
 19 20  1  0  0  0  0
 20 18  1  0  0  0  0
 22 21  1  0  0  0  0
 23 27  2  0  0  0  0
 23 25  1  0  0  0  0
 24 22  1  0  0  0  0
 25 26  1  6  0  0  0
 25 28  1  0  0  0  0
 25 22  1  0  0  0  0
 27 24  1  0  0  0  0
 29 33  1  0  0  0  0
 29 34  1  0  0  0  0
 30 32  1  0  0  0  0
 31 32  1  0  0  0  0
 33 31  1  0  0  0  0
 34 28  1  0  0  0  0
 34 30  1  0  0  0  0
 35 13  1  0  0  0  0
 36 35  1  0  0  0  0
 37 36  2  0  0  0  0
 38 36  1  0  0  0  0
 39 40  1  1  0  0  0
 39 38  1  0  0  0  0
 42 43  2  0  0  0  0
 43 39  1  0  0  0  0
 43 41  1  0  0  0  0
M  END
>  <MODEL>
7

>  <REMARK>
 VINA RESULT:      -7.9      3.180      5.825
  Name = 
  10 active torsions:
  status: ('A' for Active; 'I' for Inactive)
    1  A    between atoms: C_1  and  C_9
    2  A    between atoms: C_1  and  N_35
    3  A    between atoms: C_2  and  C_13
    4  A    between atoms: C_3  and  N_4
    5  A    between atoms: C_3  and  C_12
    6  A    between atoms: C_9  and  C_32
    7  A    between atoms: C_14  and  C_22
    8  A    between atoms: C_14  and  N_40
    9  A    between atoms: C_32  and  C_37
   10  A    between atoms: C_34  and  N_35
                            x       y       z     vdW  Elec       q    Type
                         _______ _______ _______ _____ _____    ______ ____

>  <TORSDO>
F 10

$$$$
=
 OpenBabel10272414223D

 43 48  0  0  1  0  0  0  0  0999 V2000
  181.8480  179.1240  140.8320 C   0  0  0  0  0  0  0  0  0  0  0  0
  186.4230  178.2510  142.8920 C   0  0  0  0  0  0  0  0  0  0  0  0
  188.2500  178.2130  140.7400 C   0  0  0  0  0  0  0  0  0  0  0  0
  183.6920  178.7250  142.3940 C   0  0  0  0  0  0  0  0  0  0  0  0
  182.6490  179.0820  139.7660 C   0  0  0  0  0  3  0  0  0  0  0  0
  180.5210  179.3380  140.6640 F   0  0  0  0  0  0  0  0  0  0  0  0
  184.6010  178.6640  141.3130 C   0  0  0  0  0  0  0  0  0  0  0  0
  182.3910  178.9420  142.1870 C   0  0  0  0  0  3  0  0  0  0  0  0
  184.1330  178.8510  139.8870 C   0  0  0  0  0  2  0  0  0  0  0  0
  186.8810  178.4000  140.5070 O   0  0  0  0  0  0  0  0  0  0  0  0
  185.9640  178.4360  141.5680 C   0  0  0  0  0  0  0  0  0  0  0  0
  185.5050  178.3290  143.9490 C   0  0  0  0  0  3  0  0  0  0  0  0
  187.7410  178.0300  143.1140 C   0  0  0  0  0  0  0  0  0  0  0  0
  188.6930  178.0360  141.9860 C   0  0  0  0  0  3  0  0  0  0  0  0
  184.1510  178.5610  143.7010 C   0  0  0  0  0  3  0  0  0  0  0  0
  189.2110  178.2050  139.6020 C   0  0  1  0  0  3  0  0  0  0  0  0
  189.2490  176.8370  138.9560 C   0  0  0  0  0  2  0  0  0  0  0  0
  188.8260  179.1470  138.6370 O   0  0  0  0  0  0  0  0  0  0  0  0
  189.2750  177.1300  137.4870 C   0  0  1  0  0  3  0  0  0  0  0  0
  189.3000  178.6410  137.4190 C   0  0  0  0  0  2  0  0  0  0  0  0
  190.5360  176.5530  136.8690 C   0  0  0  0  0  2  0  0  0  0  0  0
  190.2020  175.4460  135.9700 N   0  0  0  0  0  0  0  0  0  0  0  0
  190.7860  173.2070  136.4530 N   0  0  0  0  0  0  0  0  0  0  0  0
  189.1660  174.7280  136.5860 N   0  0  0  0  0  2  0  0  0  0  0  0
  191.2860  174.4310  135.8300 C   0  0  1  0  0  0  0  0  0  0  0  0
  191.5040  174.1750  134.3470 C   0  0  0  0  0  1  0  0  0  0  0  0
  189.5870  173.4110  136.8570 C   0  0  0  0  0  3  0  0  0  0  0  0
  192.6310  174.8360  136.4690 C   0  0  0  0  0  2  0  0  0  0  0  0
  194.1910  173.2790  137.3780 C   0  0  0  0  0  2  0  0  0  0  0  0
  194.7270  174.6040  135.3680 C   0  0  0  0  0  2  0  0  0  0  0  0
  195.3120  175.4160  137.5720 O   0  0  0  0  0  0  0  0  0  0  0  0
  195.7730  175.3000  136.2540 C   0  0  0  0  0  2  0  0  0  0  0  0
  195.2870  174.1060  138.0690 C   0  0  0  0  0  2  0  0  0  0  0  0
  193.6920  173.8890  136.1330 N   0  0  0  0  0  0  0  0  0  0  0  0
  188.2730  177.8420  144.4340 N   0  0  0  0  0  2  0  0  0  0  0  0
  189.6450  178.0170  144.8100 C   0  0  0  0  0  0  0  0  0  0  0  0
  190.6240  179.0540  143.9980 S   0  0  0  0  0  0  0  0  0  0  0  0
  190.1200  177.4400  146.1000 C   0  0  0  0  0  2  0  0  0  0  0  0
  191.5410  176.9120  145.9700 C   0  0  2  0  0  3  0  0  0  0  0  0
  191.6290  176.0290  144.8920 O   0  0  0  0  0  1  0  0  0  0  0  0
  191.8530  174.8310  147.3190 O   0  0  0  0  0  0  0  0  0  0  0  0
  192.3360  176.8860  148.2130 O   0  0  0  0  0  1  0  0  0  0  0  0
  191.9390  176.2150  147.2250 C   0  0  0  0  0  0  0  0  0  0  0  0
  1  8  1  0  0  0  0
  2 13  2  0  0  0  0
  2 12  1  0  0  0  0
  3 14  2  0  0  0  0
  4 15  1  0  0  0  0
  5  9  1  0  0  0  0
  5  1  2  0  0  0  0
  6  1  1  0  0  0  0
  7 11  2  0  0  0  0
  7  4  1  0  0  0  0
  8  4  2  0  0  0  0
  9  7  1  0  0  0  0
 10  3  1  0  0  0  0
 10 11  1  0  0  0  0
 11  2  1  0  0  0  0
 13 35  1  0  0  0  0
 14 13  1  0  0  0  0
 15 12  2  0  0  0  0
 16  3  1  1  0  0  0
 17 16  1  0  0  0  0
 18 16  1  0  0  0  0
 19 21  1  1  0  0  0
 19 17  1  0  0  0  0
 20 19  1  0  0  0  0
 20 18  1  0  0  0  0
 22 24  1  0  0  0  0
 22 21  1  0  0  0  0
 23 27  2  0  0  0  0
 24 27  1  0  0  0  0
 25 26  1  6  0  0  0
 25 22  1  0  0  0  0
 25 23  1  0  0  0  0
 25 28  1  0  0  0  0
 29 33  1  0  0  0  0
 30 34  1  0  0  0  0
 30 32  1  0  0  0  0
 31 33  1  0  0  0  0
 32 31  1  0  0  0  0
 34 28  1  0  0  0  0
 34 29  1  0  0  0  0
 35 36  1  0  0  0  0
 36 38  1  0  0  0  0
 37 36  2  0  0  0  0
 39 40  1  6  0  0  0
 39 38  1  0  0  0  0
 39 43  1  0  0  0  0
 43 41  2  0  0  0  0
 43 42  1  0  0  0  0
M  END
>  <MODEL>
8

>  <REMARK>
 VINA RESULT:      -7.8      4.035      7.581
  Name = 
  10 active torsions:
  status: ('A' for Active; 'I' for Inactive)
    1  A    between atoms: C_1  and  C_9
    2  A    between atoms: C_1  and  N_35
    3  A    between atoms: C_2  and  C_13
    4  A    between atoms: C_3  and  N_4
    5  A    between atoms: C_3  and  C_12
    6  A    between atoms: C_9  and  C_32
    7  A    between atoms: C_14  and  C_22
    8  A    between atoms: C_14  and  N_40
    9  A    between atoms: C_32  and  C_37
   10  A    between atoms: C_34  and  N_35
                            x       y       z     vdW  Elec       q    Type
                         _______ _______ _______ _____ _____    ______ ____

>  <TORSDO>
F 10

$$$$
=
 OpenBabel10272414223D

 43 48  0  0  1  0  0  0  0  0999 V2000
  187.8760  177.8330  148.1920 C   0  0  0  0  0  0  0  0  0  0  0  0
  189.1800  177.1190  143.3210 C   0  0  0  0  0  0  0  0  0  0  0  0
  187.1340  178.3130  141.7860 C   0  0  0  0  0  0  0  0  0  0  0  0
  189.0450  177.2080  146.1330 C   0  0  0  0  0  0  0  0  0  0  0  0
  186.8570  178.3820  147.5300 C   0  0  0  0  0  3  0  0  0  0  0  0
  187.8710  177.8300  149.5470 F   0  0  0  0  0  0  0  0  0  0  0  0
  188.0000  177.7680  145.3630 C   0  0  0  0  0  0  0  0  0  0  0  0
  189.0050  177.2290  147.4670 C   0  0  0  0  0  3  0  0  0  0  0  0
  186.8060  178.4180  146.0250 C   0  0  0  0  0  2  0  0  0  0  0  0
  187.0600  178.3050  143.1850 O   0  0  0  0  0  0  0  0  0  0  0  0
  188.0770  177.7290  143.9610 C   0  0  0  0  0  0  0  0  0  0  0  0
  190.2110  176.5820  144.1050 C   0  0  0  0  0  3  0  0  0  0  0  0
  189.2320  177.0910  141.9680 C   0  0  0  0  0  0  0  0  0  0  0  0
  188.1700  177.7400  141.1730 C   0  0  0  0  0  3  0  0  0  0  0  0
  190.1420  176.6230  145.4980 C   0  0  0  0  0  3  0  0  0  0  0  0
  186.0560  178.9540  140.9810 C   0  0  1  0  0  3  0  0  0  0  0  0
  185.6560  178.0580  139.8300 C   0  0  0  0  0  2  0  0  0  0  0  0
  184.9280  179.1890  141.7820 O   0  0  0  0  0  0  0  0  0  0  0  0
  184.1610  178.1510  139.7990 C   0  0  1  0  0  3  0  0  0  0  0  0
  183.8370  179.1330  140.9040 C   0  0  0  0  0  2  0  0  0  0  0  0
  183.7060  178.6980  138.4580 C   0  0  0  0  0  2  0  0  0  0  0  0
  182.7790  177.7650  137.8160 N   0  0  0  0  0  0  0  0  0  0  0  0
  183.3500  175.5110  137.3880 N   0  0  0  0  0  0  0  0  0  0  0  0
  182.3370  176.8860  138.8170 N   0  0  0  0  0  2  0  0  0  0  0  0
  183.4230  176.8560  136.8230 C   0  0  1  0  0  0  0  0  0  0  0  0
  182.6030  176.8980  135.5440 C   0  0  0  0  0  1  0  0  0  0  0  0
  182.7230  175.5670  138.5060 C   0  0  0  0  0  3  0  0  0  0  0  0
  184.8880  177.2080  136.4880 C   0  0  0  0  0  2  0  0  0  0  0  0
  186.1300  175.4010  135.5530 C   0  0  0  0  0  2  0  0  0  0  0  0
  186.0300  177.5990  134.4390 C   0  0  0  0  0  2  0  0  0  0  0  0
  187.8030  177.0920  136.0070 O   0  0  0  0  0  0  0  0  0  0  0  0
  187.5260  177.7030  134.7770 C   0  0  0  0  0  2  0  0  0  0  0  0
  187.6160  175.7210  135.7860 C   0  0  0  0  0  2  0  0  0  0  0  0
  185.3170  176.5880  135.2370 N   0  0  0  0  0  0  0  0  0  0  0  0
  190.3270  176.4950  141.2570 N   0  0  0  0  0  2  0  0  0  0  0  0
  190.9420  177.0300  140.0780 C   0  0  0  0  0  0  0  0  0  0  0  0
  192.4560  177.6620  140.1190 S   0  0  0  0  0  0  0  0  0  0  0  0
  190.3010  176.7850  138.7540 C   0  0  0  0  0  2  0  0  0  0  0  0
  191.3400  176.4060  137.7090 C   0  0  2  0  0  3  0  0  0  0  0  0
  190.9260  176.8290  136.4440 O   0  0  0  0  0  1  0  0  0  0  0  0
  190.4440  174.0720  137.7150 O   0  0  0  0  0  1  0  0  0  0  0  0
  192.7030  174.4560  137.7130 O   0  0  0  0  0  0  0  0  0  0  0  0
  191.5380  174.9290  137.7050 C   0  0  0  0  0  0  0  0  0  0  0  0
  1  6  1  0  0  0  0
  2 11  1  0  0  0  0
  2 12  1  0  0  0  0
  3 10  1  0  0  0  0
  4  8  2  0  0  0  0
  5  1  2  0  0  0  0
  7  9  1  0  0  0  0
  7  4  1  0  0  0  0
  8  1  1  0  0  0  0
  9  5  1  0  0  0  0
 10 11  1  0  0  0  0
 11  7  2  0  0  0  0
 12 15  2  0  0  0  0
 13  2  2  0  0  0  0
 14  3  2  0  0  0  0
 14 13  1  0  0  0  0
 15  4  1  0  0  0  0
 16 18  1  0  0  0  0
 16  3  1  1  0  0  0
 17 16  1  0  0  0  0
 19 21  1  6  0  0  0
 19 17  1  0  0  0  0
 19 20  1  0  0  0  0
 20 18  1  0  0  0  0
 22 21  1  0  0  0  0
 22 24  1  0  0  0  0
 23 27  2  0  0  0  0
 25 26  1  6  0  0  0
 25 23  1  0  0  0  0
 25 22  1  0  0  0  0
 27 24  1  0  0  0  0
 28 25  1  0  0  0  0
 29 33  1  0  0  0  0
 30 32  1  0  0  0  0
 30 34  1  0  0  0  0
 32 31  1  0  0  0  0
 33 31  1  0  0  0  0
 34 29  1  0  0  0  0
 34 28  1  0  0  0  0
 35 13  1  0  0  0  0
 36 37  2  0  0  0  0
 36 35  1  0  0  0  0
 38 36  1  0  0  0  0
 39 40  1  6  0  0  0
 39 38  1  0  0  0  0
 43 39  1  0  0  0  0
 43 42  2  0  0  0  0
 43 41  1  0  0  0  0
M  END
>  <MODEL>
9

>  <REMARK>
 VINA RESULT:      -7.8      2.884      5.558
  Name = 
  10 active torsions:
  status: ('A' for Active; 'I' for Inactive)
    1  A    between atoms: C_1  and  C_9
    2  A    between atoms: C_1  and  N_35
    3  A    between atoms: C_2  and  C_13
    4  A    between atoms: C_3  and  N_4
    5  A    between atoms: C_3  and  C_12
    6  A    between atoms: C_9  and  C_32
    7  A    between atoms: C_14  and  C_22
    8  A    between atoms: C_14  and  N_40
    9  A    between atoms: C_32  and  C_37
   10  A    between atoms: C_34  and  N_35
                            x       y       z     vdW  Elec       q    Type
                         _______ _______ _______ _____ _____    ______ ____

>  <TORSDO>
F 10

$$$$
