=
 OpenBabel10272413523D

 30 33  0  0  0  0  0  0  0  0999 V2000
  186.7620  178.4470  139.2470 N   0  0  0  0  0  0  0  0  0  0  0  0
  188.3120  178.1720  137.4210 C   0  0  0  0  0  0  0  0  0  0  0  0
  189.3670  177.0370  142.0390 N   0  0  0  0  0  0  0  0  0  0  0  0
  186.4340  178.3520  140.5700 C   0  0  0  0  0  0  0  0  0  0  0  0
  183.1020  179.5930  140.2090 O   0  0  0  0  0  0  0  0  0  0  0  0
  183.9770  178.6860  140.1850 C   0  0  0  0  0  0  0  0  0  0  0  0
  188.5470  177.1440  143.1100 C   0  0  0  0  0  0  0  0  0  0  0  0
  185.1420  178.7970  141.0260 N   0  0  0  0  0  0  0  0  0  0  0  0
  189.5790  177.7860  136.9730 C   0  0  0  0  0  3  0  0  0  0  0  0
  187.3200  178.6840  136.4310 C   0  0  0  0  0  1  0  0  0  0  0  0
  188.5970  177.4920  141.0320 C   0  0  0  0  0  0  0  0  0  0  0  0
  190.5330  177.2990  137.8730 C   0  0  0  0  0  3  0  0  0  0  0  0
  187.9930  178.0720  138.7860 C   0  0  0  0  0  0  0  0  0  0  0  0
  187.3720  177.8690  141.4320 N   0  0  0  0  0  0  0  0  0  0  0  0
  188.9440  176.7580  144.4890 C   0  0  0  0  0  1  0  0  0  0  0  0
  187.3080  177.6510  142.7570 C   0  0  0  0  0  3  0  0  0  0  0  0
  190.2280  177.1940  139.2330 C   0  0  0  0  0  3  0  0  0  0  0  0
  188.9640  177.5770  139.6910 C   0  0  0  0  0  0  0  0  0  0  0  0
  182.9890  176.4080  139.6190 C   0  0  0  0  0  3  0  0  0  0  0  0
  184.2550  177.4070  138.1110 O   0  0  0  0  0  0  0  0  0  0  0  0
  183.7540  177.5160  139.3160 C   0  0  0  0  0  0  0  0  0  0  0  0
  183.0690  175.6000  138.4990 C   0  0  0  0  0  3  0  0  0  0  0  0
  183.8700  176.2680  137.5890 C   0  0  0  0  0  3  0  0  0  0  0  0
  185.0480  179.5800  142.2580 C   0  0  0  0  0  2  0  0  0  0  0  0
  184.1290  178.9070  143.2740 C   0  0  0  0  0  2  0  0  0  0  0  0
  183.9990  179.7300  144.5460 C   0  0  0  0  0  2  0  0  0  0  0  0
  184.0600  178.8630  145.7130 N   0  0  0  0  0  2  0  0  0  0  0  0
  185.7190  179.6000  147.3020 O   0  0  0  0  0  0  0  0  0  0  0  0
  185.2610  178.6610  146.4060 N   0  0  0  0  0  0  0  0  0  0  0  0
  185.9440  177.6440  146.1750 O   0  0  0  0  0  0  0  0  0  0  0  0
  1  4  2  0  0  0  0
  2 13  1  0  0  0  0
  3  7  1  0  0  0  0
  4  8  1  0  0  0  0
  4 14  1  0  0  0  0
  6  5  2  0  0  0  0
  6  8  1  0  0  0  0
  7 15  1  0  0  0  0
  8 24  1  0  0  0  0
  9  2  2  0  0  0  0
  9 12  1  0  0  0  0
 10  2  1  0  0  0  0
 11 14  1  0  0  0  0
 11  3  2  0  0  0  0
 12 17  2  0  0  0  0
 13  1  1  0  0  0  0
 13 18  2  0  0  0  0
 14 16  1  0  0  0  0
 16  7  2  0  0  0  0
 17 18  1  0  0  0  0
 18 11  1  0  0  0  0
 20 21  1  0  0  0  0
 21 19  2  0  0  0  0
 21  6  1  0  0  0  0
 22 19  1  0  0  0  0
 23 20  1  0  0  0  0
 23 22  2  0  0  0  0
 24 25  1  0  0  0  0
 25 26  1  0  0  0  0
 26 27  1  0  0  0  0
 27 29  1  0  0  0  0
 29 28  2  0  0  0  0
 30 29  2  0  0  0  0
M  END
>  <MODEL>
1

>  <REMARK>
 VINA RESULT:      -7.3      0.000      0.000
  Name = 
  6 active torsions:
  status: ('A' for Active; 'I' for Inactive)
    1  A    between atoms: N_7  and  N_15
    2  A    between atoms: N_7  and  C_16
    3  A    between atoms: C_8  and  C_12
    4  A    between atoms: N_13  and  C_27
    5  A    between atoms: C_16  and  C_30
    6  A    between atoms: C_27  and  C_30
                            x       y       z     vdW  Elec       q    Type
                         _______ _______ _______ _____ _____    ______ ____

>  <TORSDO>
F 6

$$$$
=
 OpenBabel10272413523D

 30 33  0  0  0  0  0  0  0  0999 V2000
  182.8510  178.3490  141.2000 N   0  0  0  0  0  0  0  0  0  0  0  0
  182.4210  178.8160  143.5260 C   0  0  0  0  0  0  0  0  0  0  0  0
  186.8880  178.7070  141.5850 N   0  0  0  0  0  0  0  0  0  0  0  0
  183.7030  178.1840  140.1450 C   0  0  0  0  0  0  0  0  0  0  0  0
  181.1590  177.5330  137.7210 O   0  0  0  0  0  0  0  0  0  0  0  0
  181.8910  178.2920  138.4130 C   0  0  0  0  0  0  0  0  0  0  0  0
  187.2070  178.4730  140.2920 C   0  0  0  0  0  0  0  0  0  0  0  0
  183.1850  177.8300  138.8490 N   0  0  0  0  0  0  0  0  0  0  0  0
  182.9160  179.1150  144.8000 C   0  0  0  0  0  3  0  0  0  0  0  0
  180.9480  178.6870  143.3350 C   0  0  0  0  0  1  0  0  0  0  0  0
  185.5440  178.6070  141.5810 C   0  0  0  0  0  0  0  0  0  0  0  0
  184.2920  179.2460  145.0140 C   0  0  0  0  0  3  0  0  0  0  0  0
  183.3130  178.6450  142.4530 C   0  0  0  0  0  0  0  0  0  0  0  0
  185.0400  178.3220  140.3690 N   0  0  0  0  0  0  0  0  0  0  0  0
  188.6010  178.4740  139.7760 C   0  0  0  0  0  1  0  0  0  0  0  0
  186.0800  178.2380  139.5220 C   0  0  0  0  0  3  0  0  0  0  0  0
  185.1880  179.0790  143.9550 C   0  0  0  0  0  3  0  0  0  0  0  0
  184.7040  178.7800  142.6780 C   0  0  0  0  0  0  0  0  0  0  0  0
  181.8580  180.8260  138.1630 C   0  0  0  0  0  3  0  0  0  0  0  0
  180.4400  179.8920  139.5740 O   0  0  0  0  0  0  0  0  0  0  0  0
  181.4040  179.6480  138.7230 C   0  0  0  0  0  0  0  0  0  0  0  0
  181.0950  181.8190  138.7510 C   0  0  0  0  0  3  0  0  0  0  0  0
  180.2270  181.1840  139.6220 C   0  0  0  0  0  3  0  0  0  0  0  0
  183.8690  176.8070  138.0580 C   0  0  0  0  0  2  0  0  0  0  0  0
  184.2690  177.3420  136.6850 C   0  0  0  0  0  2  0  0  0  0  0  0
  185.5720  176.7250  136.1990 C   0  0  0  0  0  2  0  0  0  0  0  0
  186.3910  177.7340  135.5460 N   0  0  0  0  0  2  0  0  0  0  0  0
  187.4820  179.5700  136.6690 O   0  0  0  0  0  0  0  0  0  0  0  0
  187.5130  178.2830  136.1820 N   0  0  0  0  0  0  0  0  0  0  0  0
  188.5620  177.6160  136.2650 O   0  0  0  0  0  0  0  0  0  0  0  0
  1 13  1  0  0  0  0
  2  9  1  0  0  0  0
  4 14  1  0  0  0  0
  4  1  2  0  0  0  0
  5  6  2  0  0  0  0
  6 21  1  0  0  0  0
  6  8  1  0  0  0  0
  7  3  1  0  0  0  0
  8  4  1  0  0  0  0
  9 12  2  0  0  0  0
 10  2  1  0  0  0  0
 11  3  2  0  0  0  0
 11 18  1  0  0  0  0
 13 18  1  0  0  0  0
 13  2  2  0  0  0  0
 14 11  1  0  0  0  0
 15  7  1  0  0  0  0
 16  7  2  0  0  0  0
 16 14  1  0  0  0  0
 17 12  1  0  0  0  0
 18 17  2  0  0  0  0
 19 21  2  0  0  0  0
 19 22  1  0  0  0  0
 20 23  1  0  0  0  0
 21 20  1  0  0  0  0
 22 23  2  0  0  0  0
 24  8  1  0  0  0  0
 25 24  1  0  0  0  0
 26 25  1  0  0  0  0
 27 29  1  0  0  0  0
 27 26  1  0  0  0  0
 29 30  2  0  0  0  0
 29 28  2  0  0  0  0
M  END
>  <MODEL>
2

>  <REMARK>
 VINA RESULT:      -6.5      3.339      6.700
  Name = 
  6 active torsions:
  status: ('A' for Active; 'I' for Inactive)
    1  A    between atoms: N_7  and  N_15
    2  A    between atoms: N_7  and  C_16
    3  A    between atoms: C_8  and  C_12
    4  A    between atoms: N_13  and  C_27
    5  A    between atoms: C_16  and  C_30
    6  A    between atoms: C_27  and  C_30
                            x       y       z     vdW  Elec       q    Type
                         _______ _______ _______ _____ _____    ______ ____

>  <TORSDO>
F 6

$$$$
=
 OpenBabel10272413523D

 30 33  0  0  0  0  0  0  0  0999 V2000
  186.7750  178.4270  139.1490 N   0  0  0  0  0  0  0  0  0  0  0  0
  188.2500  178.1720  137.2600 C   0  0  0  0  0  0  0  0  0  0  0  0
  189.4910  176.9940  141.8210 N   0  0  0  0  0  0  0  0  0  0  0  0
  186.5010  178.3190  140.4830 C   0  0  0  0  0  0  0  0  0  0  0  0
  183.1560  179.5590  140.2690 O   0  0  0  0  0  0  0  0  0  0  0  0
  184.0300  178.6530  140.2010 C   0  0  0  0  0  0  0  0  0  0  0  0
  188.7160  177.0890  142.9250 C   0  0  0  0  0  0  0  0  0  0  0  0
  185.2280  178.7580  140.9950 N   0  0  0  0  0  0  0  0  0  0  0  0
  189.4990  177.7910  136.7570 C   0  0  0  0  0  3  0  0  0  0  0  0
  187.2190  178.6920  136.3160 C   0  0  0  0  0  1  0  0  0  0  0  0
  188.6810  177.4570  140.8500 C   0  0  0  0  0  0  0  0  0  0  0  0
  190.4890  177.2970  137.6130 C   0  0  0  0  0  3  0  0  0  0  0  0
  187.9870  178.0570  138.6360 C   0  0  0  0  0  0  0  0  0  0  0  0
  187.4730  177.8290  141.3030 N   0  0  0  0  0  0  0  0  0  0  0  0
  189.1680  176.6910  144.2830 C   0  0  0  0  0  1  0  0  0  0  0  0
  187.4630  177.5980  142.6270 C   0  0  0  0  0  3  0  0  0  0  0  0
  190.2380  177.1780  138.9830 C   0  0  0  0  0  3  0  0  0  0  0  0
  188.9940  177.5550  139.4960 C   0  0  0  0  0  0  0  0  0  0  0  0
  182.9970  176.3930  139.6420 C   0  0  0  0  0  3  0  0  0  0  0  0
  184.2500  177.3810  138.1160 O   0  0  0  0  0  0  0  0  0  0  0  0
  183.7730  177.4910  139.3300 C   0  0  0  0  0  0  0  0  0  0  0  0
  183.0440  175.5900  138.5170 C   0  0  0  0  0  3  0  0  0  0  0  0
  183.8380  176.2510  137.5950 C   0  0  0  0  0  3  0  0  0  0  0  0
  185.1830  179.5290  142.2380 C   0  0  0  0  0  2  0  0  0  0  0  0
  184.5190  178.7350  143.3600 C   0  0  0  0  0  2  0  0  0  0  0  0
  183.5180  179.5810  144.1320 C   0  0  0  0  0  2  0  0  0  0  0  0
  182.3360  178.7950  144.4500 N   0  0  0  0  0  2  0  0  0  0  0  0
  180.1070  178.0600  143.8920 O   0  0  0  0  0  0  0  0  0  0  0  0
  181.1460  178.9460  143.7250 N   0  0  0  0  0  0  0  0  0  0  0  0
  181.0450  179.8640  142.8890 O   0  0  0  0  0  0  0  0  0  0  0  0
  1  4  2  0  0  0  0
  2 13  1  0  0  0  0
  3  7  1  0  0  0  0
  4  8  1  0  0  0  0
  4 14  1  0  0  0  0
  6  5  2  0  0  0  0
  6  8  1  0  0  0  0
  7 15  1  0  0  0  0
  8 24  1  0  0  0  0
  9  2  2  0  0  0  0
  9 12  1  0  0  0  0
 10  2  1  0  0  0  0
 11 14  1  0  0  0  0
 11  3  2  0  0  0  0
 12 17  2  0  0  0  0
 13  1  1  0  0  0  0
 13 18  2  0  0  0  0
 14 16  1  0  0  0  0
 16  7  2  0  0  0  0
 17 18  1  0  0  0  0
 18 11  1  0  0  0  0
 20 21  1  0  0  0  0
 21 19  2  0  0  0  0
 21  6  1  0  0  0  0
 22 19  1  0  0  0  0
 23 20  1  0  0  0  0
 23 22  2  0  0  0  0
 24 25  1  0  0  0  0
 25 26  1  0  0  0  0
 26 27  1  0  0  0  0
 29 28  2  0  0  0  0
 29 27  1  0  0  0  0
 30 29  2  0  0  0  0
M  END
>  <MODEL>
3

>  <REMARK>
 VINA RESULT:      -6.5      1.818      1.961
  Name = 
  6 active torsions:
  status: ('A' for Active; 'I' for Inactive)
    1  A    between atoms: N_7  and  N_15
    2  A    between atoms: N_7  and  C_16
    3  A    between atoms: C_8  and  C_12
    4  A    between atoms: N_13  and  C_27
    5  A    between atoms: C_16  and  C_30
    6  A    between atoms: C_27  and  C_30
                            x       y       z     vdW  Elec       q    Type
                         _______ _______ _______ _____ _____    ______ ____

>  <TORSDO>
F 6

$$$$
=
 OpenBabel10272413523D

 30 33  0  0  0  0  0  0  0  0999 V2000
  182.7550  178.4160  141.0770 N   0  0  0  0  0  0  0  0  0  0  0  0
  182.4260  178.8800  143.4200 C   0  0  0  0  0  0  0  0  0  0  0  0
  186.8110  178.6710  141.3070 N   0  0  0  0  0  0  0  0  0  0  0  0
  183.5610  178.2350  139.9890 C   0  0  0  0  0  0  0  0  0  0  0  0
  180.9100  177.6620  137.6620 O   0  0  0  0  0  0  0  0  0  0  0  0
  181.6860  178.3980  138.3290 C   0  0  0  0  0  0  0  0  0  0  0  0
  187.0730  178.4360  140.0020 C   0  0  0  0  0  0  0  0  0  0  0  0
  182.9840  177.9020  138.7120 N   0  0  0  0  0  0  0  0  0  0  0  0
  182.9770  179.1600  144.6750 C   0  0  0  0  0  3  0  0  0  0  0  0
  180.9430  178.7890  143.2850 C   0  0  0  0  0  1  0  0  0  0  0  0
  185.4660  178.6040  141.3550 C   0  0  0  0  0  0  0  0  0  0  0  0
  184.3630  179.2550  144.8370 C   0  0  0  0  0  3  0  0  0  0  0  0
  183.2710  178.6930  142.3120 C   0  0  0  0  0  0  0  0  0  0  0  0
  184.9080  178.3380  140.1620 N   0  0  0  0  0  0  0  0  0  0  0  0
  188.4460  178.4060  139.4330 C   0  0  0  0  0  1  0  0  0  0  0  0
  185.9120  178.2340  139.2750 C   0  0  0  0  0  3  0  0  0  0  0  0
  185.2130  179.0710  143.7430 C   0  0  0  0  0  3  0  0  0  0  0  0
  184.6730  178.7920  142.4840 C   0  0  0  0  0  0  0  0  0  0  0  0
  181.7270  180.9350  138.1120 C   0  0  0  0  0  3  0  0  0  0  0  0
  180.3020  180.0260  139.5330 O   0  0  0  0  0  0  0  0  0  0  0  0
  181.2460  179.7640  138.6640 C   0  0  0  0  0  0  0  0  0  0  0  0
  181.0040  181.9430  138.7240 C   0  0  0  0  0  3  0  0  0  0  0  0
  180.1290  181.3230  139.6000 C   0  0  0  0  0  3  0  0  0  0  0  0
  183.6110  176.8670  137.8910 C   0  0  0  0  0  2  0  0  0  0  0  0
  183.3560  175.4740  138.4610 C   0  0  0  0  0  2  0  0  0  0  0  0
  183.1260  174.4490  137.3610 C   0  0  0  0  0  2  0  0  0  0  0  0
  184.3730  174.1730  136.6650 N   0  0  0  0  0  2  0  0  0  0  0  0
  186.6910  174.5430  137.2210 O   0  0  0  0  0  0  0  0  0  0  0  0
  185.5320  173.8140  137.3650 N   0  0  0  0  0  0  0  0  0  0  0  0
  185.5280  172.7990  138.0880 O   0  0  0  0  0  0  0  0  0  0  0  0
  1 13  1  0  0  0  0
  2  9  1  0  0  0  0
  3 11  2  0  0  0  0
  4 14  1  0  0  0  0
  4  1  2  0  0  0  0
  5  6  2  0  0  0  0
  6 21  1  0  0  0  0
  6  8  1  0  0  0  0
  7  3  1  0  0  0  0
  8  4  1  0  0  0  0
  9 12  2  0  0  0  0
 10  2  1  0  0  0  0
 11 18  1  0  0  0  0
 13 18  1  0  0  0  0
 13  2  2  0  0  0  0
 14 11  1  0  0  0  0
 15  7  1  0  0  0  0
 16  7  2  0  0  0  0
 16 14  1  0  0  0  0
 17 12  1  0  0  0  0
 18 17  2  0  0  0  0
 19 21  2  0  0  0  0
 19 22  1  0  0  0  0
 20 23  1  0  0  0  0
 21 20  1  0  0  0  0
 22 23  2  0  0  0  0
 24 25  1  0  0  0  0
 24  8  1  0  0  0  0
 26 25  1  0  0  0  0
 27 26  1  0  0  0  0
 27 29  1  0  0  0  0
 28 29  2  0  0  0  0
 29 30  2  0  0  0  0
M  END
>  <MODEL>
4

>  <REMARK>
 VINA RESULT:      -6.4      3.397      6.666
  Name = 
  6 active torsions:
  status: ('A' for Active; 'I' for Inactive)
    1  A    between atoms: N_7  and  N_15
    2  A    between atoms: N_7  and  C_16
    3  A    between atoms: C_8  and  C_12
    4  A    between atoms: N_13  and  C_27
    5  A    between atoms: C_16  and  C_30
    6  A    between atoms: C_27  and  C_30
                            x       y       z     vdW  Elec       q    Type
                         _______ _______ _______ _____ _____    ______ ____

>  <TORSDO>
F 6

$$$$
=
 OpenBabel10272413523D

 30 33  0  0  0  0  0  0  0  0999 V2000
  185.2300  178.5010  138.7440 N   0  0  0  0  0  0  0  0  0  0  0  0
  187.6320  178.3150  138.6620 C   0  0  0  0  0  0  0  0  0  0  0  0
  185.1050  178.7450  142.8050 N   0  0  0  0  0  0  0  0  0  0  0  0
  184.0570  178.6280  139.4320 C   0  0  0  0  0  0  0  0  0  0  0  0
  181.9390  178.5810  136.5550 O   0  0  0  0  0  0  0  0  0  0  0  0
  182.6140  178.0340  137.4680 C   0  0  0  0  0  0  0  0  0  0  0  0
  183.7620  178.8340  142.9320 C   0  0  0  0  0  0  0  0  0  0  0  0
  182.8090  178.7210  138.7190 N   0  0  0  0  0  0  0  0  0  0  0  0
  188.8540  178.2690  139.3420 C   0  0  0  0  0  3  0  0  0  0  0  0
  187.6280  178.2170  137.1740 C   0  0  0  0  0  1  0  0  0  0  0  0
  185.2710  178.6630  141.4710 C   0  0  0  0  0  0  0  0  0  0  0  0
  188.8950  178.3550  140.7370 C   0  0  0  0  0  3  0  0  0  0  0  0
  186.4350  178.4500  139.3870 C   0  0  0  0  0  0  0  0  0  0  0  0
  184.1130  178.7040  140.7920 N   0  0  0  0  0  0  0  0  0  0  0  0
  183.0670  178.9460  144.2410 C   0  0  0  0  0  1  0  0  0  0  0  0
  183.1290  178.8050  141.7010 C   0  0  0  0  0  3  0  0  0  0  0  0
  187.7110  178.4890  141.4690 C   0  0  0  0  0  3  0  0  0  0  0  0
  186.4850  178.5360  140.8000 C   0  0  0  0  0  0  0  0  0  0  0  0
  183.9490  176.2940  136.1730 C   0  0  0  0  0  3  0  0  0  0  0  0
  182.9440  175.6710  138.0370 O   0  0  0  0  0  0  0  0  0  0  0  0
  183.1510  176.6820  137.2310 C   0  0  0  0  0  0  0  0  0  0  0  0
  184.2080  174.9530  136.3930 C   0  0  0  0  0  3  0  0  0  0  0  0
  183.5590  174.6140  137.5670 C   0  0  0  0  0  3  0  0  0  0  0  0
  181.8120  179.7040  139.1450 C   0  0  0  0  0  2  0  0  0  0  0  0
  182.1770  181.1070  138.6680 C   0  0  0  0  0  2  0  0  0  0  0  0
  180.9400  181.9430  138.3810 C   0  0  0  0  0  2  0  0  0  0  0  0
  181.0410  182.5540  137.0640 N   0  0  0  0  0  2  0  0  0  0  0  0
  182.3390  184.5140  137.6070 O   0  0  0  0  0  0  0  0  0  0  0  0
  181.3070  183.9210  136.9160 N   0  0  0  0  0  0  0  0  0  0  0  0
  180.5740  184.6170  136.1870 O   0  0  0  0  0  0  0  0  0  0  0  0
  1 13  1  0  0  0  0
  1  4  2  0  0  0  0
  2  9  2  0  0  0  0
  2 13  1  0  0  0  0
  3  7  1  0  0  0  0
  4 14  1  0  0  0  0
  5  6  2  0  0  0  0
  6  8  1  0  0  0  0
  7 15  1  0  0  0  0
  8 24  1  0  0  0  0
  8  4  1  0  0  0  0
  9 12  1  0  0  0  0
 10  2  1  0  0  0  0
 11  3  2  0  0  0  0
 12 17  2  0  0  0  0
 13 18  2  0  0  0  0
 14 11  1  0  0  0  0
 14 16  1  0  0  0  0
 16  7  2  0  0  0  0
 18 17  1  0  0  0  0
 18 11  1  0  0  0  0
 19 22  1  0  0  0  0
 19 21  2  0  0  0  0
 21  6  1  0  0  0  0
 21 20  1  0  0  0  0
 22 23  2  0  0  0  0
 23 20  1  0  0  0  0
 25 24  1  0  0  0  0
 26 25  1  0  0  0  0
 27 26  1  0  0  0  0
 29 27  1  0  0  0  0
 29 28  2  0  0  0  0
 30 29  2  0  0  0  0
M  END
>  <MODEL>
5

>  <REMARK>
 VINA RESULT:      -6.4      3.245      5.460
  Name = 
  6 active torsions:
  status: ('A' for Active; 'I' for Inactive)
    1  A    between atoms: N_7  and  N_15
    2  A    between atoms: N_7  and  C_16
    3  A    between atoms: C_8  and  C_12
    4  A    between atoms: N_13  and  C_27
    5  A    between atoms: C_16  and  C_30
    6  A    between atoms: C_27  and  C_30
                            x       y       z     vdW  Elec       q    Type
                         _______ _______ _______ _____ _____    ______ ____

>  <TORSDO>
F 6

$$$$
=
 OpenBabel10272413523D

 30 33  0  0  0  0  0  0  0  0999 V2000
  189.2660  176.5590  136.6290 N   0  0  0  0  0  0  0  0  0  0  0  0
  191.5060  176.0060  135.9310 C   0  0  0  0  0  0  0  0  0  0  0  0
  190.3560  177.3510  140.4700 N   0  0  0  0  0  0  0  0  0  0  0  0
  188.3650  176.9500  137.5780 C   0  0  0  0  0  0  0  0  0  0  0  0
  185.5080  176.8440  135.4340 O   0  0  0  0  0  0  0  0  0  0  0  0
  186.3570  176.3260  136.2080 C   0  0  0  0  0  0  0  0  0  0  0  0
  189.1250  177.6560  140.9400 C   0  0  0  0  0  0  0  0  0  0  0  0
  186.9810  177.1350  137.2250 N   0  0  0  0  0  0  0  0  0  0  0  0
  192.8610  175.8670  136.2510 C   0  0  0  0  0  3  0  0  0  0  0  0
  191.0590  175.7160  134.5380 C   0  0  0  0  0  1  0  0  0  0  0  0
  190.1160  177.0710  139.1740 C   0  0  0  0  0  0  0  0  0  0  0  0
  193.3150  176.1290  137.5470 C   0  0  0  0  0  3  0  0  0  0  0  0
  190.5940  176.4130  136.9200 C   0  0  0  0  0  0  0  0  0  0  0  0
  188.8220  177.1940  138.8380 N   0  0  0  0  0  0  0  0  0  0  0  0
  188.8580  178.0430  142.3500 C   0  0  0  0  0  1  0  0  0  0  0  0
  188.1620  177.5610  139.9500 C   0  0  0  0  0  3  0  0  0  0  0  0
  192.4170  176.5340  138.5390 C   0  0  0  0  0  3  0  0  0  0  0  0
  191.0610  176.6760  138.2310 C   0  0  0  0  0  0  0  0  0  0  0  0
  186.4280  173.9100  137.0120 C   0  0  0  0  0  3  0  0  0  0  0  0
  187.1650  174.3630  134.9810 O   0  0  0  0  0  0  0  0  0  0  0  0
  186.6550  174.8890  136.0660 C   0  0  0  0  0  0  0  0  0  0  0  0
  186.8500  172.7340  136.4200 C   0  0  0  0  0  3  0  0  0  0  0  0
  187.3000  173.0710  135.1550 C   0  0  0  0  0  3  0  0  0  0  0  0
  186.2610  178.3030  137.7330 C   0  0  0  0  0  2  0  0  0  0  0  0
  184.8460  177.9370  138.1720 C   0  0  0  0  0  2  0  0  0  0  0  0
  184.1950  179.0590  138.9650 C   0  0  0  0  0  2  0  0  0  0  0  0
  185.1050  179.5390  139.9940 N   0  0  0  0  0  2  0  0  0  0  0  0
  184.1560  178.0680  141.6540 O   0  0  0  0  0  0  0  0  0  0  0  0
  184.9890  179.1130  141.3240 N   0  0  0  0  0  0  0  0  0  0  0  0
  185.6090  179.7150  142.2210 O   0  0  0  0  0  0  0  0  0  0  0  0
  1 13  1  0  0  0  0
  1  4  2  0  0  0  0
  2  9  2  0  0  0  0
  2 13  1  0  0  0  0
  3  7  1  0  0  0  0
  4 14  1  0  0  0  0
  5  6  2  0  0  0  0
  6  8  1  0  0  0  0
  7 15  1  0  0  0  0
  8  4  1  0  0  0  0
  8 24  1  0  0  0  0
  9 12  1  0  0  0  0
 10  2  1  0  0  0  0
 11  3  2  0  0  0  0
 12 17  2  0  0  0  0
 13 18  2  0  0  0  0
 14 11  1  0  0  0  0
 14 16  1  0  0  0  0
 16  7  2  0  0  0  0
 18 17  1  0  0  0  0
 18 11  1  0  0  0  0
 20 23  1  0  0  0  0
 20 21  1  0  0  0  0
 21  6  1  0  0  0  0
 21 19  2  0  0  0  0
 22 19  1  0  0  0  0
 23 22  2  0  0  0  0
 24 25  1  0  0  0  0
 25 26  1  0  0  0  0
 26 27  1  0  0  0  0
 27 29  1  0  0  0  0
 29 28  2  0  0  0  0
 29 30  2  0  0  0  0
M  END
>  <MODEL>
6

>  <REMARK>
 VINA RESULT:      -6.3      2.793      4.399
  Name = 
  6 active torsions:
  status: ('A' for Active; 'I' for Inactive)
    1  A    between atoms: N_7  and  N_15
    2  A    between atoms: N_7  and  C_16
    3  A    between atoms: C_8  and  C_12
    4  A    between atoms: N_13  and  C_27
    5  A    between atoms: C_16  and  C_30
    6  A    between atoms: C_27  and  C_30
                            x       y       z     vdW  Elec       q    Type
                         _______ _______ _______ _____ _____    ______ ____

>  <TORSDO>
F 6

$$$$
=
 OpenBabel10272413523D

 30 33  0  0  0  0  0  0  0  0999 V2000
  184.2290  178.6500  140.1160 N   0  0  0  0  0  0  0  0  0  0  0  0
  186.4480  178.4000  141.0250 C   0  0  0  0  0  0  0  0  0  0  0  0
  182.4330  178.6900  143.7680 N   0  0  0  0  0  0  0  0  0  0  0  0
  182.8770  178.7750  140.2630 C   0  0  0  0  0  0  0  0  0  0  0  0
  182.1430  178.9360  136.7700 O   0  0  0  0  0  0  0  0  0  0  0  0
  182.3760  178.3230  137.8460 C   0  0  0  0  0  0  0  0  0  0  0  0
  181.1580  178.8110  143.3330 C   0  0  0  0  0  0  0  0  0  0  0  0
  182.0380  178.9410  139.1040 N   0  0  0  0  0  0  0  0  0  0  0  0
  187.2780  178.2840  142.1450 C   0  0  0  0  0  3  0  0  0  0  0  0
  187.0610  178.3780  139.6660 C   0  0  0  0  0  1  0  0  0  0  0  0
  183.1370  178.6720  142.6190 C   0  0  0  0  0  0  0  0  0  0  0  0
  186.7370  178.2980  143.4350 C   0  0  0  0  0  3  0  0  0  0  0  0
  185.0590  178.5320  141.1960 C   0  0  0  0  0  0  0  0  0  0  0  0
  182.3650  178.7800  141.5260 N   0  0  0  0  0  0  0  0  0  0  0  0
  179.9830  178.8760  144.2410 C   0  0  0  0  0  1  0  0  0  0  0  0
  181.0930  178.8630  141.9500 C   0  0  0  0  0  3  0  0  0  0  0  0
  185.3570  178.4280  143.6170 C   0  0  0  0  0  3  0  0  0  0  0  0
  184.5180  178.5440  142.5050 C   0  0  0  0  0  0  0  0  0  0  0  0
  182.3580  175.8010  138.2000 C   0  0  0  0  0  3  0  0  0  0  0  0
  184.1350  176.7170  137.2630 O   0  0  0  0  0  0  0  0  0  0  0  0
  182.9560  176.9700  137.7750 C   0  0  0  0  0  0  0  0  0  0  0  0
  183.2730  174.8050  137.9130 C   0  0  0  0  0  3  0  0  0  0  0  0
  184.3630  175.4290  137.3300 C   0  0  0  0  0  3  0  0  0  0  0  0
  180.9590  179.9280  139.1360 C   0  0  0  0  0  2  0  0  0  0  0  0
  181.4450  181.2960  138.6620 C   0  0  0  0  0  2  0  0  0  0  0  0
  180.3760  182.0260  137.8630 C   0  0  0  0  0  2  0  0  0  0  0  0
  180.7750  183.4070  137.6380 N   0  0  0  0  0  2  0  0  0  0  0  0
  180.9000  183.0640  135.2530 O   0  0  0  0  0  0  0  0  0  0  0  0
  181.0380  183.8870  136.3480 N   0  0  0  0  0  0  0  0  0  0  0  0
  181.4460  185.0540  136.1950 O   0  0  0  0  0  0  0  0  0  0  0  0
  1  4  2  0  0  0  0
  1 13  1  0  0  0  0
  2 13  2  0  0  0  0
  2  9  1  0  0  0  0
  4 14  1  0  0  0  0
  5  6  2  0  0  0  0
  6  8  1  0  0  0  0
  7  3  1  0  0  0  0
  7 15  1  0  0  0  0
  8 24  1  0  0  0  0
  8  4  1  0  0  0  0
  9 12  2  0  0  0  0
 10  2  1  0  0  0  0
 11  3  2  0  0  0  0
 12 17  1  0  0  0  0
 13 18  1  0  0  0  0
 14 16  1  0  0  0  0
 14 11  1  0  0  0  0
 16  7  2  0  0  0  0
 18 11  1  0  0  0  0
 18 17  2  0  0  0  0
 20 23  1  0  0  0  0
 20 21  1  0  0  0  0
 21  6  1  0  0  0  0
 21 19  2  0  0  0  0
 22 19  1  0  0  0  0
 23 22  2  0  0  0  0
 25 24  1  0  0  0  0
 26 25  1  0  0  0  0
 27 26  1  0  0  0  0
 28 29  2  0  0  0  0
 29 27  1  0  0  0  0
 30 29  2  0  0  0  0
M  END
>  <MODEL>
7

>  <REMARK>
 VINA RESULT:      -5.9      3.570      6.522
  Name = 
  6 active torsions:
  status: ('A' for Active; 'I' for Inactive)
    1  A    between atoms: N_7  and  N_15
    2  A    between atoms: N_7  and  C_16
    3  A    between atoms: C_8  and  C_12
    4  A    between atoms: N_13  and  C_27
    5  A    between atoms: C_16  and  C_30
    6  A    between atoms: C_27  and  C_30
                            x       y       z     vdW  Elec       q    Type
                         _______ _______ _______ _____ _____    ______ ____

>  <TORSDO>
F 6

$$$$
=
 OpenBabel10272413523D

 30 33  0  0  0  0  0  0  0  0999 V2000
  185.8660  178.2220  138.7030 N   0  0  0  0  0  0  0  0  0  0  0  0
  188.2670  178.0090  138.7200 C   0  0  0  0  0  0  0  0  0  0  0  0
  185.6070  178.8040  142.7230 N   0  0  0  0  0  0  0  0  0  0  0  0
  184.6720  178.4160  139.3370 C   0  0  0  0  0  0  0  0  0  0  0  0
  182.6510  178.1480  136.4020 O   0  0  0  0  0  0  0  0  0  0  0  0
  183.2890  177.6730  137.3800 C   0  0  0  0  0  0  0  0  0  0  0  0
  184.2620  178.9150  142.7960 C   0  0  0  0  0  0  0  0  0  0  0  0
  183.4500  178.4610  138.5760 N   0  0  0  0  0  0  0  0  0  0  0  0
  189.4650  178.0090  139.4430 C   0  0  0  0  0  3  0  0  0  0  0  0
  188.3130  177.7880  137.2460 C   0  0  0  0  0  1  0  0  0  0  0  0
  185.8170  178.6100  141.4060 C   0  0  0  0  0  0  0  0  0  0  0  0
  189.4600  178.2110  140.8270 C   0  0  0  0  0  3  0  0  0  0  0  0
  187.0490  178.2150  139.3890 C   0  0  0  0  0  0  0  0  0  0  0  0
  184.6830  178.6040  140.6870 N   0  0  0  0  0  0  0  0  0  0  0  0
  183.5240  179.1420  144.0660 C   0  0  0  0  0  1  0  0  0  0  0  0
  183.6700  178.7890  141.5500 C   0  0  0  0  0  3  0  0  0  0  0  0
  188.2540  178.4160  141.5030 C   0  0  0  0  0  3  0  0  0  0  0  0
  187.0510  178.4170  140.7910 C   0  0  0  0  0  0  0  0  0  0  0  0
  183.3620  175.1940  137.9610 C   0  0  0  0  0  3  0  0  0  0  0  0
  184.8000  175.9660  136.4750 O   0  0  0  0  0  0  0  0  0  0  0  0
  183.8190  176.3010  137.2750 C   0  0  0  0  0  0  0  0  0  0  0  0
  184.1520  174.1480  137.5210 C   0  0  0  0  0  3  0  0  0  0  0  0
  185.0320  174.6820  136.5950 C   0  0  0  0  0  3  0  0  0  0  0  0
  182.4510  179.4840  138.8840 C   0  0  0  0  0  2  0  0  0  0  0  0
  181.0330  178.9350  138.7450 C   0  0  0  0  0  2  0  0  0  0  0  0
  180.4510  178.5350  140.0920 C   0  0  0  0  0  2  0  0  0  0  0  0
  180.2140  179.7170  140.9070 N   0  0  0  0  0  2  0  0  0  0  0  0
  180.2410  178.4190  142.9400 O   0  0  0  0  0  0  0  0  0  0  0  0
  180.1570  179.6370  142.3040 N   0  0  0  0  0  0  0  0  0  0  0  0
  179.9840  180.6720  142.9750 O   0  0  0  0  0  0  0  0  0  0  0  0
  1  4  2  0  0  0  0
  1 13  1  0  0  0  0
  2 13  2  0  0  0  0
  2  9  1  0  0  0  0
  3  7  1  0  0  0  0
  4 14  1  0  0  0  0
  5  6  2  0  0  0  0
  6  8  1  0  0  0  0
  7 15  1  0  0  0  0
  8 24  1  0  0  0  0
  8  4  1  0  0  0  0
  9 12  2  0  0  0  0
 10  2  1  0  0  0  0
 11  3  2  0  0  0  0
 12 17  1  0  0  0  0
 13 18  1  0  0  0  0
 14 11  1  0  0  0  0
 14 16  1  0  0  0  0
 16  7  2  0  0  0  0
 18 11  1  0  0  0  0
 18 17  2  0  0  0  0
 20 23  1  0  0  0  0
 20 21  1  0  0  0  0
 21  6  1  0  0  0  0
 21 19  2  0  0  0  0
 22 19  1  0  0  0  0
 23 22  2  0  0  0  0
 25 24  1  0  0  0  0
 25 26  1  0  0  0  0
 26 27  1  0  0  0  0
 27 29  1  0  0  0  0
 29 28  2  0  0  0  0
 29 30  2  0  0  0  0
M  END
>  <MODEL>
8

>  <REMARK>
 VINA RESULT:      -5.9      2.630      4.006
  Name = 
  6 active torsions:
  status: ('A' for Active; 'I' for Inactive)
    1  A    between atoms: N_7  and  N_15
    2  A    between atoms: N_7  and  C_16
    3  A    between atoms: C_8  and  C_12
    4  A    between atoms: N_13  and  C_27
    5  A    between atoms: C_16  and  C_30
    6  A    between atoms: C_27  and  C_30
                            x       y       z     vdW  Elec       q    Type
                         _______ _______ _______ _____ _____    ______ ____

>  <TORSDO>
F 6

$$$$
=
 OpenBabel10272413523D

 30 33  0  0  0  0  0  0  0  0999 V2000
  185.4440  177.7640  138.0280 N   0  0  0  0  0  0  0  0  0  0  0  0
  183.2470  178.0210  138.9860 C   0  0  0  0  0  0  0  0  0  0  0  0
  184.6450  174.0860  136.4770 N   0  0  0  0  0  0  0  0  0  0  0  0
  186.3710  177.0520  137.3210 C   0  0  0  0  0  0  0  0  0  0  0  0
  188.9830  179.4750  137.6030 O   0  0  0  0  0  0  0  0  0  0  0  0
  188.2990  178.5000  138.0170 C   0  0  0  0  0  0  0  0  0  0  0  0
  185.8600  173.8610  135.9290 C   0  0  0  0  0  0  0  0  0  0  0  0
  187.6720  177.6160  137.0670 N   0  0  0  0  0  0  0  0  0  0  0  0
  181.9650  177.5030  139.2000 C   0  0  0  0  0  3  0  0  0  0  0  0
  183.5880  179.3610  139.5450 C   0  0  0  0  0  1  0  0  0  0  0  0
  184.7900  175.3070  137.0280 C   0  0  0  0  0  0  0  0  0  0  0  0
  181.6110  176.2490  138.6920 C   0  0  0  0  0  3  0  0  0  0  0  0
  184.1860  177.2760  138.2530 C   0  0  0  0  0  0  0  0  0  0  0  0
  186.0130  175.8290  136.8390 N   0  0  0  0  0  0  0  0  0  0  0  0
  186.2110  172.6200  135.1900 C   0  0  0  0  0  1  0  0  0  0  0  0
  186.7230  174.9230  136.1450 C   0  0  0  0  0  3  0  0  0  0  0  0
  182.5370  175.4990  137.9620 C   0  0  0  0  0  3  0  0  0  0  0  0
  183.8210  176.0070  137.7420 C   0  0  0  0  0  0  0  0  0  0  0  0
  189.0690  177.5470  140.2490 C   0  0  0  0  0  3  0  0  0  0  0  0
  187.2440  178.7890  140.2120 O   0  0  0  0  0  0  0  0  0  0  0  0
  188.1950  178.2790  139.4700 C   0  0  0  0  0  0  0  0  0  0  0  0
  188.5690  177.6420  141.5350 C   0  0  0  0  0  3  0  0  0  0  0  0
  187.4310  178.4280  141.4570 C   0  0  0  0  0  3  0  0  0  0  0  0
  188.2640  177.4790  135.7360 C   0  0  0  0  0  2  0  0  0  0  0  0
  189.7490  177.1340  135.8220 C   0  0  0  0  0  2  0  0  0  0  0  0
  190.0500  175.7840  135.1910 C   0  0  0  0  0  2  0  0  0  0  0  0
  190.9190  175.0060  136.0610 N   0  0  0  0  0  2  0  0  0  0  0  0
  190.8810  175.1280  138.4700 O   0  0  0  0  0  0  0  0  0  0  0  0
  190.4700  174.5310  137.3000 N   0  0  0  0  0  0  0  0  0  0  0  0
  189.7290  173.5310  137.3460 O   0  0  0  0  0  0  0  0  0  0  0  0
  1 13  1  0  0  0  0
  2  9  1  0  0  0  0
  2 10  1  0  0  0  0
  3 11  2  0  0  0  0
  4  1  2  0  0  0  0
  5  6  2  0  0  0  0
  6 21  1  0  0  0  0
  7 16  2  0  0  0  0
  7  3  1  0  0  0  0
  8  4  1  0  0  0  0
  8  6  1  0  0  0  0
 11 18  1  0  0  0  0
 12  9  2  0  0  0  0
 13  2  2  0  0  0  0
 14 11  1  0  0  0  0
 14  4  1  0  0  0  0
 15  7  1  0  0  0  0
 16 14  1  0  0  0  0
 17 12  1  0  0  0  0
 18 17  2  0  0  0  0
 18 13  1  0  0  0  0
 19 22  1  0  0  0  0
 20 23  1  0  0  0  0
 21 20  1  0  0  0  0
 21 19  2  0  0  0  0
 23 22  2  0  0  0  0
 24 25  1  0  0  0  0
 24  8  1  0  0  0  0
 26 25  1  0  0  0  0
 26 27  1  0  0  0  0
 27 29  1  0  0  0  0
 29 30  2  0  0  0  0
 29 28  2  0  0  0  0
M  END
>  <MODEL>
9

>  <REMARK>
 VINA RESULT:      -5.9      3.629      7.577
  Name = 
  6 active torsions:
  status: ('A' for Active; 'I' for Inactive)
    1  A    between atoms: N_7  and  N_15
    2  A    between atoms: N_7  and  C_16
    3  A    between atoms: C_8  and  C_12
    4  A    between atoms: N_13  and  C_27
    5  A    between atoms: C_16  and  C_30
    6  A    between atoms: C_27  and  C_30
                            x       y       z     vdW  Elec       q    Type
                         _______ _______ _______ _____ _____    ______ ____

>  <TORSDO>
F 6

$$$$
