=
 OpenBabel10272400403D

 25 29  0  0  1  0  0  0  0  0999 V2000
  186.9480  178.0010  145.7220 C   0  0  0  0  0  0  0  0  0  0  0  0
  188.2020  177.4160  145.5460 C   0  0  0  0  0  0  0  0  0  0  0  0
  187.4490  178.5710  148.0030 C   0  0  0  0  0  3  0  0  0  0  0  0
  185.8670  178.1600  144.8890 C   0  0  1  0  0  3  0  0  0  0  0  0
  183.4250  178.7840  143.7490 C   0  0  0  0  0  3  0  0  0  0  0  0
  188.6770  177.9940  147.8440 N   0  0  0  0  0  0  0  0  0  0  0  0
  184.9100  178.8180  145.6330 C   0  0  0  0  0  0  0  0  0  0  0  0
  183.6690  179.1460  145.0880 C   0  0  0  0  0  3  0  0  0  0  0  0
  190.4020  176.8230  146.5210 C   0  0  0  0  0  0  0  0  0  0  0  0
  191.1490  176.6690  147.5240 O   0  0  0  0  0  0  0  0  0  0  0  0
  188.5880  176.7160  144.2680 C   0  0  0  0  0  2  0  0  0  0  0  0
  184.4090  178.1110  142.9940 C   0  0  0  0  0  3  0  0  0  0  0  0
  186.5770  178.5710  146.9200 C   0  0  0  0  0  0  0  0  0  0  0  0
  185.3250  179.0830  146.8920 N   0  0  0  0  0  0  0  0  0  0  0  0
  190.8420  176.3950  145.2290 N   0  0  0  0  0  2  0  0  0  0  0  0
  185.6540  177.7900  143.5620 C   0  0  0  0  0  3  0  0  0  0  0  0
  190.1020  176.7620  144.0200 C   0  0  2  0  0  3  0  0  0  0  0  0
  189.0700  177.4240  146.6600 C   0  0  0  0  0  0  0  0  0  0  0  0
  190.5130  178.1510  143.5460 C   0  0  0  0  0  2  0  0  0  0  0  0
  189.8270  177.8680  139.8010 N   0  0  0  0  0  0  0  0  0  0  0  0
  189.6730  177.6040  138.3410 C   0  0  0  0  0  2  0  0  0  0  0  0
  189.0530  178.7230  138.8560 C   0  0  0  0  0  2  0  0  0  0  0  0
  190.0140  178.4000  142.2010 N   0  0  0  0  0  2  0  0  0  0  0  0
  190.3260  177.5500  141.0940 C   0  0  0  0  0  0  0  0  0  0  0  0
  191.0370  176.5220  141.2550 O   0  0  0  0  0  0  0  0  0  0  0  0
  1 13  1  0  0  0  0
  2  1  2  0  0  0  0
  2 18  1  0  0  0  0
  4 16  1  6  0  0  0
  4  7  1  0  0  0  0
  4  1  1  0  0  0  0
  5  8  2  0  0  0  0
  6  3  1  0  0  0  0
  7 14  2  0  0  0  0
  8  7  1  0  0  0  0
  9 18  1  0  0  0  0
  9 10  2  0  0  0  0
 11  2  1  0  0  0  0
 12 16  2  0  0  0  0
 12  5  1  0  0  0  0
 13  3  2  0  0  0  0
 14 13  1  0  0  0  0
 15  9  1  0  0  0  0
 17 19  1  1  0  0  0
 17 11  1  0  0  0  0
 17 15  1  0  0  0  0
 18  6  2  0  0  0  0
 20 24  1  0  0  0  0
 21 22  1  0  0  0  0
 21 20  1  0  0  0  0
 22 20  1  0  0  0  0
 23 19  1  0  0  0  0
 24 25  2  0  0  0  0
 24 23  1  0  0  0  0
M  END
>  <MODEL>
1

>  <REMARK>
 VINA RESULT:     -10.0      0.000      0.000
  Name = 
  2 active torsions:
  status: ('A' for Active; 'I' for Inactive)
    1  A    between atoms: C_6  and  N_15
    2  A    between atoms: C_6  and  C_23
                            x       y       z     vdW  Elec       q    Type
                         _______ _______ _______ _____ _____    ______ ____

>  <TORSDO>
F 2

$$$$
=
 OpenBabel10272400403D

 25 29  0  0  1  0  0  0  0  0999 V2000
  187.3600  177.9650  145.9470 C   0  0  0  0  0  0  0  0  0  0  0  0
  188.6110  177.3630  145.8070 C   0  0  0  0  0  0  0  0  0  0  0  0
  187.8350  178.6000  148.2160 C   0  0  0  0  0  3  0  0  0  0  0  0
  186.2940  178.1070  145.0940 C   0  0  1  0  0  3  0  0  0  0  0  0
  183.8730  178.7180  143.9010 C   0  0  0  0  0  3  0  0  0  0  0  0
  189.0600  178.0080  148.0930 N   0  0  0  0  0  0  0  0  0  0  0  0
  185.3320  178.7970  145.8030 C   0  0  0  0  0  0  0  0  0  0  0  0
  184.1030  179.1190  145.2300 C   0  0  0  0  0  3  0  0  0  0  0  0
  190.7920  176.7810  146.8320 C   0  0  0  0  0  0  0  0  0  0  0  0
  191.5240  176.6520  147.8500 O   0  0  0  0  0  0  0  0  0  0  0  0
  189.0100  176.6200  144.5570 C   0  0  0  0  0  2  0  0  0  0  0  0
  184.8620  178.0130  143.1810 C   0  0  0  0  0  3  0  0  0  0  0  0
  186.9790  178.5750  147.1210 C   0  0  0  0  0  0  0  0  0  0  0  0
  185.7320  179.0970  147.0600 N   0  0  0  0  0  0  0  0  0  0  0  0
  191.2460  176.3100  145.5600 N   0  0  0  0  0  2  0  0  0  0  0  0
  186.0960  177.6980  143.7770 C   0  0  0  0  0  3  0  0  0  0  0  0
  190.5270  176.6450  144.3300 C   0  0  2  0  0  3  0  0  0  0  0  0
  189.4640  177.3980  146.9330 C   0  0  0  0  0  0  0  0  0  0  0  0
  190.9570  178.0150  143.8190 C   0  0  0  0  0  2  0  0  0  0  0  0
  192.1150  177.2850  140.2540 N   0  0  0  0  0  0  0  0  0  0  0  0
  192.3870  176.9420  138.8290 C   0  0  0  0  0  2  0  0  0  0  0  0
  193.4480  177.3780  139.5940 C   0  0  0  0  0  2  0  0  0  0  0  0
  191.7770  177.8800  142.6230 N   0  0  0  0  0  2  0  0  0  0  0  0
  191.2500  177.4190  141.3770 C   0  0  0  0  0  0  0  0  0  0  0  0
  190.0290  177.1330  141.2620 O   0  0  0  0  0  0  0  0  0  0  0  0
  1 13  1  0  0  0  0
  2  1  2  0  0  0  0
  2 18  1  0  0  0  0
  4 16  1  6  0  0  0
  4  7  1  0  0  0  0
  4  1  1  0  0  0  0
  5  8  2  0  0  0  0
  6  3  1  0  0  0  0
  7 14  2  0  0  0  0
  8  7  1  0  0  0  0
  9 18  1  0  0  0  0
  9 10  2  0  0  0  0
 11  2  1  0  0  0  0
 12 16  2  0  0  0  0
 12  5  1  0  0  0  0
 13  3  2  0  0  0  0
 14 13  1  0  0  0  0
 15  9  1  0  0  0  0
 17 19  1  1  0  0  0
 17 11  1  0  0  0  0
 17 15  1  0  0  0  0
 18  6  2  0  0  0  0
 20 24  1  0  0  0  0
 21 22  1  0  0  0  0
 21 20  1  0  0  0  0
 22 20  1  0  0  0  0
 23 19  1  0  0  0  0
 24 23  1  0  0  0  0
 25 24  2  0  0  0  0
M  END
>  <MODEL>
2

>  <REMARK>
 VINA RESULT:     -10.0      1.218      1.355
  Name = 
  2 active torsions:
  status: ('A' for Active; 'I' for Inactive)
    1  A    between atoms: C_6  and  N_15
    2  A    between atoms: C_6  and  C_23
                            x       y       z     vdW  Elec       q    Type
                         _______ _______ _______ _____ _____    ______ ____

>  <TORSDO>
F 2

$$$$
=
 OpenBabel10272400403D

 25 29  0  0  1  0  0  0  0  0999 V2000
  187.4330  177.6410  144.9010 C   0  0  0  0  0  0  0  0  0  0  0  0
  188.4970  177.0070  144.2590 C   0  0  0  0  0  0  0  0  0  0  0  0
  188.7060  177.8990  146.9230 C   0  0  0  0  0  3  0  0  0  0  0  0
  186.1600  177.9630  144.4990 C   0  0  1  0  0  3  0  0  0  0  0  0
  183.5510  178.8650  144.3110 C   0  0  0  0  0  3  0  0  0  0  0  0
  189.7530  177.2730  146.3070 N   0  0  0  0  0  0  0  0  0  0  0  0
  185.5670  178.5820  145.5800 C   0  0  0  0  0  0  0  0  0  0  0  0
  184.2550  179.0470  145.5170 C   0  0  0  0  0  3  0  0  0  0  0  0
  190.8280  176.1710  144.3770 C   0  0  0  0  0  0  0  0  0  0  0  0
  191.8440  175.8520  145.0510 O   0  0  0  0  0  0  0  0  0  0  0  0
  188.3750  176.4450  142.8660 C   0  0  0  0  0  2  0  0  0  0  0  0
  184.1640  178.2310  143.2090 C   0  0  0  0  0  3  0  0  0  0  0  0
  187.5320  178.0820  146.2010 C   0  0  0  0  0  0  0  0  0  0  0  0
  186.3960  178.6670  146.6450 N   0  0  0  0  0  0  0  0  0  0  0  0
  190.7770  175.8770  142.9790 N   0  0  0  0  0  2  0  0  0  0  0  0
  185.4890  177.7690  143.2930 C   0  0  0  0  0  3  0  0  0  0  0  0
  189.7200  176.4310  142.1290 C   0  0  2  0  0  3  0  0  0  0  0  0
  189.6790  176.8280  145.0120 C   0  0  0  0  0  0  0  0  0  0  0  0
  190.0860  177.8400  141.6780 C   0  0  0  0  0  2  0  0  0  0  0  0
  188.6760  178.4500  138.1820 N   0  0  0  0  0  0  0  0  0  0  0  0
  187.9600  178.7290  136.9040 C   0  0  0  0  0  2  0  0  0  0  0  0
  189.2700  178.3070  136.8220 C   0  0  0  0  0  2  0  0  0  0  0  0
  189.9550  177.9630  140.2320 N   0  0  0  0  0  2  0  0  0  0  0  0
  188.7410  178.3780  139.6020 C   0  0  0  0  0  0  0  0  0  0  0  0
  187.7310  178.6810  140.2900 O   0  0  0  0  0  0  0  0  0  0  0  0
  1 13  1  0  0  0  0
  2  1  2  0  0  0  0
  2 18  1  0  0  0  0
  4 16  1  6  0  0  0
  4  1  1  0  0  0  0
  4  7  1  0  0  0  0
  5  8  2  0  0  0  0
  6  3  1  0  0  0  0
  7 14  2  0  0  0  0
  8  7  1  0  0  0  0
  9 18  1  0  0  0  0
  9 10  2  0  0  0  0
 11  2  1  0  0  0  0
 12 16  2  0  0  0  0
 12  5  1  0  0  0  0
 13 14  1  0  0  0  0
 13  3  2  0  0  0  0
 15  9  1  0  0  0  0
 17 19  1  1  0  0  0
 17 11  1  0  0  0  0
 17 15  1  0  0  0  0
 18  6  2  0  0  0  0
 20 24  1  0  0  0  0
 21 20  1  0  0  0  0
 22 21  1  0  0  0  0
 22 20  1  0  0  0  0
 23 19  1  0  0  0  0
 24 23  1  0  0  0  0
 24 25  2  0  0  0  0
M  END
>  <MODEL>
3

>  <REMARK>
 VINA RESULT:     -10.0      1.526      1.865
  Name = 
  2 active torsions:
  status: ('A' for Active; 'I' for Inactive)
    1  A    between atoms: C_6  and  N_15
    2  A    between atoms: C_6  and  C_23
                            x       y       z     vdW  Elec       q    Type
                         _______ _______ _______ _____ _____    ______ ____

>  <TORSDO>
F 2

$$$$
=
 OpenBabel10272400403D

 25 29  0  0  1  0  0  0  0  0999 V2000
  188.3770  177.6730  144.2350 C   0  0  0  0  0  0  0  0  0  0  0  0
  188.3490  178.0520  142.8930 C   0  0  0  0  0  0  0  0  0  0  0  0
  185.9770  177.7110  144.3730 C   0  0  0  0  0  3  0  0  0  0  0  0
  189.4020  177.4040  145.1080 C   0  0  1  0  0  3  0  0  0  0  0  0
  190.9640  176.7470  147.2950 C   0  0  0  0  0  3  0  0  0  0  0  0
  185.9380  178.0880  143.0610 N   0  0  0  0  0  0  0  0  0  0  0  0
  188.8030  177.0820  146.3080 C   0  0  0  0  0  0  0  0  0  0  0  0
  189.5620  176.7480  147.4290 C   0  0  0  0  0  3  0  0  0  0  0  0
  186.9980  178.6580  140.9050 C   0  0  0  0  0  0  0  0  0  0  0  0
  185.9010  179.0050  140.3920 O   0  0  0  0  0  0  0  0  0  0  0  0
  189.6080  178.3250  142.1100 C   0  0  0  0  0  2  0  0  0  0  0  0
  191.5700  177.0770  146.0640 C   0  0  0  0  0  3  0  0  0  0  0  0
  187.2190  177.5010  144.9620 C   0  0  0  0  0  0  0  0  0  0  0  0
  187.4530  177.1360  146.2430 N   0  0  0  0  0  0  0  0  0  0  0  0
  188.1900  178.6620  140.1160 N   0  0  0  0  0  2  0  0  0  0  0  0
  190.7860  177.4110  144.9460 C   0  0  0  0  0  3  0  0  0  0  0  0
  189.4260  178.0530  140.6110 C   0  0  2  0  0  3  0  0  0  0  0  0
  187.0770  178.2630  142.3170 C   0  0  0  0  0  0  0  0  0  0  0  0
  189.4230  176.5520  140.3480 C   0  0  0  0  0  2  0  0  0  0  0  0
  192.0760  175.9440  137.6700 N   0  0  0  0  0  0  0  0  0  0  0  0
  192.9890  175.7860  136.5020 C   0  0  0  0  0  2  0  0  0  0  0  0
  193.4090  175.2770  137.7120 C   0  0  0  0  0  2  0  0  0  0  0  0
  190.6460  176.1500  139.6680 N   0  0  0  0  0  2  0  0  0  0  0  0
  190.8680  176.3880  138.2760 C   0  0  0  0  0  0  0  0  0  0  0  0
  190.0040  176.9870  137.5820 O   0  0  0  0  0  0  0  0  0  0  0  0
  1 13  2  0  0  0  0
  1  4  1  0  0  0  0
  2  1  1  0  0  0  0
  3 13  1  0  0  0  0
  4 16  1  6  0  0  0
  4  7  1  0  0  0  0
  5  8  2  0  0  0  0
  6  3  2  0  0  0  0
  7  8  1  0  0  0  0
  9 18  1  0  0  0  0
 10  9  2  0  0  0  0
 11  2  1  0  0  0  0
 12  5  1  0  0  0  0
 13 14  1  0  0  0  0
 14  7  2  0  0  0  0
 15 17  1  0  0  0  0
 15  9  1  0  0  0  0
 16 12  2  0  0  0  0
 17 19  1  1  0  0  0
 17 11  1  0  0  0  0
 18  2  2  0  0  0  0
 18  6  1  0  0  0  0
 20 22  1  0  0  0  0
 20 24  1  0  0  0  0
 21 20  1  0  0  0  0
 21 22  1  0  0  0  0
 23 19  1  0  0  0  0
 24 23  1  0  0  0  0
 25 24  2  0  0  0  0
M  END
>  <MODEL>
4

>  <REMARK>
 VINA RESULT:      -8.6      2.762      5.065
  Name = 
  2 active torsions:
  status: ('A' for Active; 'I' for Inactive)
    1  A    between atoms: C_6  and  N_15
    2  A    between atoms: C_6  and  C_23
                            x       y       z     vdW  Elec       q    Type
                         _______ _______ _______ _____ _____    ______ ____

>  <TORSDO>
F 2

$$$$
=
 OpenBabel10272400403D

 25 29  0  0  1  0  0  0  0  0999 V2000
  190.1400  177.0700  143.5740 C   0  0  0  0  0  0  0  0  0  0  0  0
  190.1180  177.3470  144.9410 C   0  0  0  0  0  0  0  0  0  0  0  0
  191.8030  175.3590  143.8710 C   0  0  0  0  0  3  0  0  0  0  0  0
  189.4640  177.6010  142.5040 C   0  0  0  0  0  0  0  0  0  0  0  0
  188.4570  178.2170  140.0010 C   0  0  0  0  0  3  0  0  0  0  0  0
  191.7950  175.6270  145.2100 N   0  0  0  0  0  0  0  0  0  0  0  0
  189.9120  176.9150  141.3940 C   0  0  0  0  0  0  0  0  0  0  0  0
  189.4260  177.2020  140.1200 C   0  0  0  0  0  2  0  0  0  0  0  0
  190.9940  176.8420  147.2050 C   0  0  0  0  0  0  0  0  0  0  0  0
  191.8550  176.3030  147.9500 O   0  0  0  0  0  0  0  0  0  0  0  0
  189.2890  178.4650  145.5200 C   0  0  0  0  0  2  0  0  0  0  0  0
  188.0030  178.9150  141.1400 C   0  0  0  0  0  3  0  0  0  0  0  0
  190.9590  176.0960  143.0470 C   0  0  0  0  0  0  0  0  0  0  0  0
  190.8380  175.9790  141.7040 N   0  0  0  0  0  0  0  0  0  0  0  0
  190.0180  177.7260  147.7620 N   0  0  0  0  0  2  0  0  0  0  0  0
  188.5060  178.6100  142.4170 C   0  0  0  0  0  3  0  0  0  0  0  0
  188.8740  178.1850  146.9700 C   0  0  2  0  0  3  0  0  0  0  0  0
  190.9850  176.5890  145.7580 C   0  0  0  0  0  0  0  0  0  0  0  0
  187.7550  177.1510  147.0050 C   0  0  0  0  0  2  0  0  0  0  0  0
  184.7490  178.6020  145.1500 N   0  0  0  0  0  0  0  0  0  0  0  0
  183.5400  179.2680  144.5850 C   0  0  0  0  0  2  0  0  0  0  0  0
  184.1840  178.3380  143.7960 C   0  0  0  0  0  2  0  0  0  0  0  0
  186.7590  177.4430  145.9830 N   0  0  0  0  0  2  0  0  0  0  0  0
  185.7040  178.3860  146.1820 C   0  0  0  0  0  0  0  0  0  0  0  0
  185.6140  179.0290  147.2620 O   0  0  0  0  0  0  0  0  0  0  0  0
  1  2  2  0  0  0  0
  2 11  1  0  0  0  0
  2 18  1  0  0  0  0
  3  6  1  0  0  0  0
  4  1  1  0  0  0  0
  5  8  1  0  0  0  0
  5 12  2  0  0  0  0
  6 18  2  0  0  0  0
  7 14  2  0  0  0  0
  7  4  1  0  0  0  0
  8  7  1  0  0  0  0
  9 15  1  0  0  0  0
  9 10  2  0  0  0  0
 11 17  1  0  0  0  0
 12 16  1  0  0  0  0
 13  1  1  0  0  0  0
 13  3  2  0  0  0  0
 14 13  1  0  0  0  0
 16  4  2  0  0  0  0
 17 19  1  6  0  0  0
 17 15  1  0  0  0  0
 18  9  1  0  0  0  0
 20 24  1  0  0  0  0
 21 20  1  0  0  0  0
 22 21  1  0  0  0  0
 22 20  1  0  0  0  0
 23 24  1  0  0  0  0
 23 19  1  0  0  0  0
 24 25  2  0  0  0  0
M  END
>  <MODEL>
5

>  <REMARK>
 VINA RESULT:      -8.6      1.962      5.554
  Name = 
  2 active torsions:
  status: ('A' for Active; 'I' for Inactive)
    1  A    between atoms: C_6  and  N_15
    2  A    between atoms: C_6  and  C_23
                            x       y       z     vdW  Elec       q    Type
                         _______ _______ _______ _____ _____    ______ ____

>  <TORSDO>
F 2

$$$$
=
 OpenBabel10272400403D

 25 29  0  0  1  0  0  0  0  0999 V2000
  187.0600  177.9200  142.9370 C   0  0  0  0  0  0  0  0  0  0  0  0
  186.2450  177.9150  144.0690 C   0  0  0  0  0  0  0  0  0  0  0  0
  185.6590  179.5390  141.8430 C   0  0  0  0  0  3  0  0  0  0  0  0
  188.2060  177.2390  142.6090 C   0  0  0  0  0  0  0  0  0  0  0  0
  190.4660  176.2200  141.3800 C   0  0  0  0  0  3  0  0  0  0  0  0
  184.8500  179.5360  142.9430 N   0  0  0  0  0  0  0  0  0  0  0  0
  188.5520  177.6650  141.3440 C   0  0  0  0  0  0  0  0  0  0  0  0
  189.6830  177.1700  140.6970 C   0  0  0  0  0  2  0  0  0  0  0  0
  184.2260  178.7880  145.2120 C   0  0  0  0  0  0  0  0  0  0  0  0
  183.1250  179.4010  145.1730 O   0  0  0  0  0  0  0  0  0  0  0  0
  186.4930  176.9890  145.2320 C   0  0  0  0  0  2  0  0  0  0  0  0
  190.1070  175.7880  142.6750 C   0  0  0  0  0  3  0  0  0  0  0  0
  186.7800  178.7150  141.8480 C   0  0  0  0  0  0  0  0  0  0  0  0
  187.6850  178.5780  140.8510 N   0  0  0  0  0  0  0  0  0  0  0  0
  184.6190  178.0970  146.4000 N   0  0  0  0  0  2  0  0  0  0  0  0
  188.9620  176.3000  143.3100 C   0  0  0  0  0  3  0  0  0  0  0  0
  185.9780  177.5720  146.5540 C   0  0  2  0  0  3  0  0  0  0  0  0
  185.1110  178.7560  144.0400 C   0  0  0  0  0  0  0  0  0  0  0  0
  186.9170  178.6660  147.0460 C   0  0  0  0  0  2  0  0  0  0  0  0
  190.3340  176.9650  147.1480 N   0  0  0  0  0  0  0  0  0  0  0  0
  191.5960  176.1900  147.3260 C   0  0  0  0  0  2  0  0  0  0  0  0
  191.6070  177.2270  146.4180 C   0  0  0  0  0  2  0  0  0  0  0  0
  188.3030  178.3110  146.7730 N   0  0  0  0  0  2  0  0  0  0  0  0
  188.9700  177.2400  147.4450 C   0  0  0  0  0  0  0  0  0  0  0  0
  188.3620  176.5380  148.2960 O   0  0  0  0  0  0  0  0  0  0  0  0
  1  2  2  0  0  0  0
  2 11  1  0  0  0  0
  3 13  2  0  0  0  0
  3  6  1  0  0  0  0
  4  1  1  0  0  0  0
  4 16  2  0  0  0  0
  5 12  2  0  0  0  0
  6 18  2  0  0  0  0
  7  4  1  0  0  0  0
  8  7  1  0  0  0  0
  8  5  1  0  0  0  0
  9 15  1  0  0  0  0
 10  9  2  0  0  0  0
 11 17  1  0  0  0  0
 12 16  1  0  0  0  0
 13  1  1  0  0  0  0
 14  7  2  0  0  0  0
 14 13  1  0  0  0  0
 15 17  1  0  0  0  0
 17 19  1  6  0  0  0
 18  2  1  0  0  0  0
 18  9  1  0  0  0  0
 20 21  1  0  0  0  0
 20 24  1  0  0  0  0
 22 20  1  0  0  0  0
 22 21  1  0  0  0  0
 23 19  1  0  0  0  0
 23 24  1  0  0  0  0
 24 25  2  0  0  0  0
M  END
>  <MODEL>
6

>  <REMARK>
 VINA RESULT:      -8.5      2.458      6.183
  Name = 
  2 active torsions:
  status: ('A' for Active; 'I' for Inactive)
    1  A    between atoms: C_6  and  N_15
    2  A    between atoms: C_6  and  C_23
                            x       y       z     vdW  Elec       q    Type
                         _______ _______ _______ _____ _____    ______ ____

>  <TORSDO>
F 2

$$$$
=
 OpenBabel10272400403D

 25 29  0  0  1  0  0  0  0  0999 V2000
  188.3150  177.6980  144.0560 C   0  0  0  0  0  0  0  0  0  0  0  0
  188.2480  178.0800  142.7160 C   0  0  0  0  0  0  0  0  0  0  0  0
  185.9220  177.7650  144.2750 C   0  0  0  0  0  3  0  0  0  0  0  0
  189.3660  177.4130  144.8930 C   0  0  1  0  0  3  0  0  0  0  0  0
  190.9920  176.7290  147.0250 C   0  0  0  0  0  3  0  0  0  0  0  0
  185.8440  178.1470  142.9660 N   0  0  0  0  0  0  0  0  0  0  0  0
  188.8040  177.0950  146.1120 C   0  0  0  0  0  0  0  0  0  0  0  0
  189.5960  176.7480  147.2050 C   0  0  0  0  0  3  0  0  0  0  0  0
  186.8380  178.7090  140.7770 C   0  0  0  0  0  0  0  0  0  0  0  0
  185.7290  179.0720  140.3020 O   0  0  0  0  0  0  0  0  0  0  0  0
  189.4830  178.3390  141.8920 C   0  0  0  0  0  2  0  0  0  0  0  0
  191.5600  177.0550  145.7750 C   0  0  0  0  0  3  0  0  0  0  0  0
  187.1810  177.5380  144.8210 C   0  0  0  0  0  0  0  0  0  0  0  0
  187.4530  177.1660  146.0930 N   0  0  0  0  0  0  0  0  0  0  0  0
  188.0030  178.7000  139.9470 N   0  0  0  0  0  2  0  0  0  0  0  0
  190.7440  177.4020  144.6840 C   0  0  0  0  0  3  0  0  0  0  0  0
  189.2470  178.0740  140.4000 C   0  0  2  0  0  3  0  0  0  0  0  0
  186.9600  178.3090  142.1840 C   0  0  0  0  0  0  0  0  0  0  0  0
  189.2150  176.5740  140.1320 C   0  0  0  0  0  2  0  0  0  0  0  0
  189.7360  175.4370  136.5250 N   0  0  0  0  0  0  0  0  0  0  0  0
  190.1110  174.9300  135.1730 C   0  0  0  0  0  2  0  0  0  0  0  0
  188.8990  175.5750  135.2990 C   0  0  0  0  0  2  0  0  0  0  0  0
  189.0160  176.3120  138.7140 N   0  0  0  0  0  2  0  0  0  0  0  0
  189.9850  175.6350  137.9120 C   0  0  0  0  0  0  0  0  0  0  0  0
  191.0560  175.2100  138.4210 O   0  0  0  0  0  0  0  0  0  0  0  0
  1 13  2  0  0  0  0
  1  4  1  0  0  0  0
  2  1  1  0  0  0  0
  3 13  1  0  0  0  0
  4 16  1  6  0  0  0
  4  7  1  0  0  0  0
  5  8  2  0  0  0  0
  6  3  2  0  0  0  0
  7  8  1  0  0  0  0
  9 18  1  0  0  0  0
 10  9  2  0  0  0  0
 11  2  1  0  0  0  0
 12  5  1  0  0  0  0
 13 14  1  0  0  0  0
 14  7  2  0  0  0  0
 15 17  1  0  0  0  0
 15  9  1  0  0  0  0
 16 12  2  0  0  0  0
 17 19  1  1  0  0  0
 17 11  1  0  0  0  0
 18  2  2  0  0  0  0
 18  6  1  0  0  0  0
 20 24  1  0  0  0  0
 21 22  1  0  0  0  0
 21 20  1  0  0  0  0
 22 20  1  0  0  0  0
 23 19  1  0  0  0  0
 24 25  2  0  0  0  0
 24 23  1  0  0  0  0
M  END
>  <MODEL>
7

>  <REMARK>
 VINA RESULT:      -8.3      2.748      5.115
  Name = 
  2 active torsions:
  status: ('A' for Active; 'I' for Inactive)
    1  A    between atoms: C_6  and  N_15
    2  A    between atoms: C_6  and  C_23
                            x       y       z     vdW  Elec       q    Type
                         _______ _______ _______ _____ _____    ______ ____

>  <TORSDO>
F 2

$$$$
=
 OpenBabel10272400403D

 25 29  0  0  1  0  0  0  0  0999 V2000
  189.4740  177.6790  144.1030 C   0  0  0  0  0  0  0  0  0  0  0  0
  189.6620  177.3980  142.7490 C   0  0  0  0  0  0  0  0  0  0  0  0
  191.7840  178.2860  144.3750 C   0  0  0  0  0  3  0  0  0  0  0  0
  188.3770  177.6110  144.9260 C   0  0  1  0  0  3  0  0  0  0  0  0
  186.6030  177.6970  147.0470 C   0  0  0  0  0  3  0  0  0  0  0  0
  191.9810  178.0070  143.0520 N   0  0  0  0  0  0  0  0  0  0  0  0
  188.8130  178.0160  146.1710 C   0  0  0  0  0  0  0  0  0  0  0  0
  187.9440  178.0680  147.2590 C   0  0  0  0  0  3  0  0  0  0  0  0
  191.2120  177.2940  140.8170 C   0  0  0  0  0  0  0  0  0  0  0  0
  192.3830  177.2860  140.3530 O   0  0  0  0  0  0  0  0  0  0  0  0
  188.5600  176.8390  141.8850 C   0  0  0  0  0  2  0  0  0  0  0  0
  186.1640  177.2850  145.7700 C   0  0  0  0  0  3  0  0  0  0  0  0
  190.5080  178.1180  144.9000 C   0  0  0  0  0  0  0  0  0  0  0  0
  190.1270  178.3340  146.1810 N   0  0  0  0  0  0  0  0  0  0  0  0
  190.1020  177.0110  139.9620 N   0  0  0  0  0  2  0  0  0  0  0  0
  187.0560  177.2390  144.6850 C   0  0  0  0  0  3  0  0  0  0  0  0
  188.7260  177.2330  140.4120 C   0  0  2  0  0  3  0  0  0  0  0  0
  190.9670  177.5730  142.2380 C   0  0  0  0  0  0  0  0  0  0  0  0
  188.3300  178.6920  140.2120 C   0  0  0  0  0  2  0  0  0  0  0  0
  184.5320  179.0240  140.0000 N   0  0  0  0  0  0  0  0  0  0  0  0
  183.0510  179.1630  140.1070 C   0  0  0  0  0  2  0  0  0  0  0  0
  183.5860  178.9920  138.8480 C   0  0  0  0  0  2  0  0  0  0  0  0
  186.9680  178.7860  139.7050 N   0  0  0  0  0  2  0  0  0  0  0  0
  185.8380  178.9670  140.5610 C   0  0  0  0  0  0  0  0  0  0  0  0
  185.9880  179.0790  141.8070 O   0  0  0  0  0  0  0  0  0  0  0  0
  1 13  2  0  0  0  0
  1  4  1  0  0  0  0
  2  1  1  0  0  0  0
  3 13  1  0  0  0  0
  4 16  1  6  0  0  0
  4  7  1  0  0  0  0
  5  8  2  0  0  0  0
  6  3  2  0  0  0  0
  7 14  2  0  0  0  0
  7  8  1  0  0  0  0
  9 18  1  0  0  0  0
 10  9  2  0  0  0  0
 11  2  1  0  0  0  0
 12  5  1  0  0  0  0
 13 14  1  0  0  0  0
 15 17  1  0  0  0  0
 15  9  1  0  0  0  0
 16 12  2  0  0  0  0
 17 19  1  1  0  0  0
 17 11  1  0  0  0  0
 18  2  2  0  0  0  0
 18  6  1  0  0  0  0
 20 21  1  0  0  0  0
 20 24  1  0  0  0  0
 22 20  1  0  0  0  0
 22 21  1  0  0  0  0
 23 19  1  0  0  0  0
 23 24  1  0  0  0  0
 24 25  2  0  0  0  0
M  END
>  <MODEL>
8

>  <REMARK>
 VINA RESULT:      -8.2      2.520      4.765
  Name = 
  2 active torsions:
  status: ('A' for Active; 'I' for Inactive)
    1  A    between atoms: C_6  and  N_15
    2  A    between atoms: C_6  and  C_23
                            x       y       z     vdW  Elec       q    Type
                         _______ _______ _______ _____ _____    ______ ____

>  <TORSDO>
F 2

$$$$
=
 OpenBabel10272400403D

 25 29  0  0  1  0  0  0  0  0999 V2000
  189.5770  177.5950  144.2280 C   0  0  0  0  0  0  0  0  0  0  0  0
  189.6560  177.3500  142.8570 C   0  0  0  0  0  0  0  0  0  0  0  0
  191.8940  178.2260  144.3260 C   0  0  0  0  0  3  0  0  0  0  0  0
  188.5530  177.4910  145.1370 C   0  0  1  0  0  3  0  0  0  0  0  0
  186.9580  177.4980  147.3980 C   0  0  0  0  0  3  0  0  0  0  0  0
  191.9850  177.9830  142.9850 N   0  0  0  0  0  0  0  0  0  0  0  0
  189.0840  177.8700  146.3520 C   0  0  0  0  0  0  0  0  0  0  0  0
  188.3080  177.8830  147.5090 C   0  0  0  0  0  3  0  0  0  0  0  0
  191.0430  177.3160  140.8030 C   0  0  0  0  0  0  0  0  0  0  0  0
  192.1720  177.3360  140.2440 O   0  0  0  0  0  0  0  0  0  0  0  0
  188.4940  176.7980  142.0720 C   0  0  0  0  0  2  0  0  0  0  0  0
  186.4200  177.1130  146.1510 C   0  0  0  0  0  3  0  0  0  0  0  0
  190.6670  178.0270  144.9500 C   0  0  0  0  0  0  0  0  0  0  0  0
  190.3920  178.2050  146.2620 N   0  0  0  0  0  0  0  0  0  0  0  0
  189.8690  177.0400  140.0340 N   0  0  0  0  0  2  0  0  0  0  0  0
  187.2200  177.1060  144.9950 C   0  0  0  0  0  3  0  0  0  0  0  0
  188.5330  177.2310  140.6010 C   0  0  2  0  0  3  0  0  0  0  0  0
  190.9120  177.5550  142.2450 C   0  0  0  0  0  0  0  0  0  0  0  0
  188.1050  178.6890  140.4730 C   0  0  0  0  0  2  0  0  0  0  0  0
  184.9440  179.2720  142.5340 N   0  0  0  0  0  0  0  0  0  0  0  0
  183.6140  179.4340  143.1880 C   0  0  0  0  0  2  0  0  0  0  0  0
  184.7240  179.8540  143.8890 C   0  0  0  0  0  2  0  0  0  0  0  0
  187.1930  179.0500  141.5500 N   0  0  0  0  0  2  0  0  0  0  0  0
  185.7790  178.8720  141.4540 C   0  0  0  0  0  0  0  0  0  0  0  0
  185.2640  178.3630  140.4220 O   0  0  0  0  0  0  0  0  0  0  0  0
  1 13  2  0  0  0  0
  1  4  1  0  0  0  0
  2  1  1  0  0  0  0
  3 13  1  0  0  0  0
  4 16  1  6  0  0  0
  4  7  1  0  0  0  0
  5  8  2  0  0  0  0
  6  3  2  0  0  0  0
  7  8  1  0  0  0  0
  9 18  1  0  0  0  0
 10  9  2  0  0  0  0
 11  2  1  0  0  0  0
 12  5  1  0  0  0  0
 13 14  1  0  0  0  0
 14  7  2  0  0  0  0
 15 17  1  0  0  0  0
 15  9  1  0  0  0  0
 16 12  2  0  0  0  0
 17 19  1  1  0  0  0
 17 11  1  0  0  0  0
 18  2  2  0  0  0  0
 18  6  1  0  0  0  0
 19 23  1  0  0  0  0
 20 21  1  0  0  0  0
 20 22  1  0  0  0  0
 21 22  1  0  0  0  0
 24 23  1  0  0  0  0
 24 20  1  0  0  0  0
 25 24  2  0  0  0  0
M  END
>  <MODEL>
9

>  <REMARK>
 VINA RESULT:      -8.0      2.305      4.988
  Name = 
  2 active torsions:
  status: ('A' for Active; 'I' for Inactive)
    1  A    between atoms: C_6  and  N_15
    2  A    between atoms: C_6  and  C_23
                            x       y       z     vdW  Elec       q    Type
                         _______ _______ _______ _____ _____    ______ ____

>  <TORSDO>
F 2

$$$$
