=
 OpenBabel10272400403D

 25 29  0  0  1  0  0  0  0  0999 V2000
  189.0380  177.1080  143.8070 C   0  0  0  0  0  0  0  0  0  0  0  0
  188.1780  177.4640  144.8510 C   0  0  0  0  0  0  0  0  0  0  0  0
  190.9120  176.8590  145.3110 C   0  0  0  0  0  3  0  0  0  0  0  0
  188.7590  176.8670  142.3670 C   0  0  2  0  0  3  0  0  0  0  0  0
  189.7700  177.4980  139.7440 C   0  0  0  0  0  3  0  0  0  0  0  0
  190.0770  177.2330  146.3760 C   0  0  0  0  0  3  0  0  0  0  0  0
  190.1480  176.5170  141.9000 C   0  0  0  0  0  0  0  0  0  0  0  0
  190.4940  176.6460  140.4820 C   0  0  0  0  0  3  0  0  0  0  0  0
  187.8190  177.9350  147.2550 C   0  0  0  0  0  0  0  0  0  0  0  0
  188.3420  178.0140  148.8060 S   0  0  0  0  0  0  0  0  0  0  0  0
  186.7160  177.7070  144.5860 C   0  0  0  0  0  2  0  0  0  0  0  0
  188.6910  178.3150  140.3610 C   0  0  0  0  0  3  0  0  0  0  0  0
  190.3560  176.7920  144.0380 C   0  0  0  0  0  0  0  0  0  0  0  0
  191.0410  176.4670  142.8390 N   0  0  0  0  0  0  0  0  0  0  0  0
  186.4730  178.3200  146.9600 N   0  0  0  0  0  0  0  0  0  0  0  0
  188.2560  178.0690  141.6090 C   0  0  0  0  0  3  0  0  0  0  0  0
  185.9600  178.2630  145.7650 C   0  0  0  0  0  0  0  0  0  0  0  0
  188.7130  177.5330  146.1550 C   0  0  0  0  0  0  0  0  0  0  0  0
  184.5450  178.6770  145.5580 C   0  0  0  0  0  2  0  0  0  0  0  0
  184.0960  178.3390  144.1500 C   0  0  2  0  0  3  0  0  0  0  0  0
  184.4950  179.4690  143.2190 C   0  0  2  0  0  3  0  0  0  0  0  0
  183.0590  179.3430  143.6960 C   0  0  0  0  0  2  0  0  0  0  0  0
  184.6170  178.9520  141.8230 C   0  0  0  0  0  0  0  0  0  0  0  0
  184.1020  177.7050  141.4920 O   0  0  0  0  0  1  0  0  0  0  0  0
  185.2270  179.6270  140.9530 O   0  0  0  0  0  0  0  0  0  0  0  0
  1 13  2  0  0  0  0
  1  2  1  0  0  0  0
  2 18  2  0  0  0  0
  3  6  2  0  0  0  0
  4 16  1  6  0  0  0
  4  1  1  0  0  0  0
  5 12  1  0  0  0  0
  5  8  2  0  0  0  0
  7  4  1  0  0  0  0
  7 14  2  0  0  0  0
  8  7  1  0  0  0  0
  9 10  2  0  0  0  0
 11  2  1  0  0  0  0
 11 17  1  0  0  0  0
 12 16  2  0  0  0  0
 13  3  1  0  0  0  0
 14 13  1  0  0  0  0
 15  9  1  0  0  0  0
 17 15  2  0  0  0  0
 18  6  1  0  0  0  0
 18  9  1  0  0  0  0
 19 17  1  0  0  0  0
 20 19  1  1  0  0  0
 21 23  1  6  0  0  0
 21 22  1  0  0  0  0
 21 20  1  0  0  0  0
 22 20  1  0  0  0  0
 24 23  1  0  0  0  0
 25 23  2  0  0  0  0
M  END
>  <MODEL>
1

>  <REMARK>
 VINA RESULT:     -10.4      0.000      0.000
  Name = 
  3 active torsions:
  status: ('A' for Active; 'I' for Inactive)
    1  A    between atoms: C_2  and  C_21
    2  A    between atoms: C_6  and  C_15
    3  A    between atoms: C_6  and  C_23
                            x       y       z     vdW  Elec       q    Type
                         _______ _______ _______ _____ _____    ______ ____

>  <TORSDO>
F 3

$$$$
=
 OpenBabel10272400403D

 25 29  0  0  1  0  0  0  0  0999 V2000
  187.7240  177.9960  145.6550 C   0  0  0  0  0  0  0  0  0  0  0  0
  189.0320  177.5410  145.4590 C   0  0  0  0  0  0  0  0  0  0  0  0
  187.8050  177.4980  148.0170 C   0  0  0  0  0  3  0  0  0  0  0  0
  186.7800  178.6530  144.7120 C   0  0  2  0  0  3  0  0  0  0  0  0
  184.0330  178.5590  143.8510 C   0  0  0  0  0  3  0  0  0  0  0  0
  189.1120  177.0150  147.8480 C   0  0  0  0  0  3  0  0  0  0  0  0
  185.6070  178.8550  145.6360 C   0  0  0  0  0  0  0  0  0  0  0  0
  184.2650  179.0410  145.0790 C   0  0  0  0  0  3  0  0  0  0  0  0
  191.1000  176.5290  146.3720 C   0  0  0  0  0  0  0  0  0  0  0  0
  192.0000  175.9530  147.6140 S   0  0  0  0  0  0  0  0  0  0  0  0
  189.6820  177.6450  144.1060 C   0  0  0  0  0  2  0  0  0  0  0  0
  185.0890  177.8180  143.1100 C   0  0  0  0  0  3  0  0  0  0  0  0
  187.1420  177.9960  146.9000 C   0  0  0  0  0  0  0  0  0  0  0  0
  185.8140  178.4940  146.8640 N   0  0  0  0  0  0  0  0  0  0  0  0
  191.6410  176.4860  145.0480 N   0  0  0  0  0  0  0  0  0  0  0  0
  186.3620  177.8030  143.5390 C   0  0  0  0  0  3  0  0  0  0  0  0
  191.0140  176.9460  144.0060 C   0  0  0  0  0  0  0  0  0  0  0  0
  189.7310  177.0370  146.5770 C   0  0  0  0  0  0  0  0  0  0  0  0
  191.6640  176.8640  142.6680 C   0  0  0  0  0  2  0  0  0  0  0  0
  190.8990  177.6970  141.6570 C   0  0  2  0  0  3  0  0  0  0  0  0
  190.1640  176.7700  140.7090 C   0  0  2  0  0  3  0  0  0  0  0  0
  191.4520  177.4420  140.2720 C   0  0  0  0  0  2  0  0  0  0  0  0
  188.9900  177.4800  140.1180 C   0  0  0  0  0  0  0  0  0  0  0  0
  188.3910  178.5300  140.8030 O   0  0  0  0  0  1  0  0  0  0  0  0
  188.5130  177.1010  139.0160 O   0  0  0  0  0  0  0  0  0  0  0  0
  1 13  1  0  0  0  0
  2  1  2  0  0  0  0
  2 18  1  0  0  0  0
  4 16  1  6  0  0  0
  4  7  1  0  0  0  0
  4  1  1  0  0  0  0
  5  8  2  0  0  0  0
  6  3  1  0  0  0  0
  7 14  2  0  0  0  0
  8  7  1  0  0  0  0
  9 18  1  0  0  0  0
  9 10  2  0  0  0  0
 11  2  1  0  0  0  0
 12 16  2  0  0  0  0
 12  5  1  0  0  0  0
 13  3  2  0  0  0  0
 14 13  1  0  0  0  0
 15  9  1  0  0  0  0
 17 11  1  0  0  0  0
 17 15  2  0  0  0  0
 18  6  2  0  0  0  0
 19 17  1  0  0  0  0
 20 19  1  1  0  0  0
 21 23  1  6  0  0  0
 21 20  1  0  0  0  0
 22 21  1  0  0  0  0
 22 20  1  0  0  0  0
 23 24  1  0  0  0  0
 25 23  2  0  0  0  0
M  END
>  <MODEL>
2

>  <REMARK>
 VINA RESULT:     -10.3      1.784      5.333
  Name = 
  3 active torsions:
  status: ('A' for Active; 'I' for Inactive)
    1  A    between atoms: C_2  and  C_21
    2  A    between atoms: C_6  and  C_15
    3  A    between atoms: C_6  and  C_23
                            x       y       z     vdW  Elec       q    Type
                         _______ _______ _______ _____ _____    ______ ____

>  <TORSDO>
F 3

$$$$
=
 OpenBabel10272400403D

 25 29  0  0  1  0  0  0  0  0999 V2000
  186.9930  178.3830  142.0270 C   0  0  0  0  0  0  0  0  0  0  0  0
  186.2020  178.4460  143.1790 C   0  0  0  0  0  0  0  0  0  0  0  0
  185.0880  178.7450  140.5870 C   0  0  0  0  0  3  0  0  0  0  0  0
  188.4680  178.2710  141.8750 C   0  0  2  0  0  3  0  0  0  0  0  0
  190.4720  176.8260  140.3950 C   0  0  0  0  0  3  0  0  0  0  0  0
  184.2660  178.7930  141.7240 C   0  0  0  0  0  3  0  0  0  0  0  0
  188.5630  178.2780  140.3710 C   0  0  0  0  0  0  0  0  0  0  0  0
  189.7520  177.7270  139.7140 C   0  0  0  0  0  3  0  0  0  0  0  0
  183.9710  178.6880  144.2270 C   0  0  0  0  0  0  0  0  0  0  0  0
  182.3560  178.9480  144.1430 S   0  0  0  0  0  0  0  0  0  0  0  0
  186.8320  178.3580  144.5430 C   0  0  0  0  0  2  0  0  0  0  0  0
  190.0450  176.3690  141.7440 C   0  0  0  0  0  3  0  0  0  0  0  0
  186.4540  178.5520  140.7750 C   0  0  0  0  0  0  0  0  0  0  0  0
  187.4340  178.4430  139.7560 N   0  0  0  0  0  0  0  0  0  0  0  0
  184.5650  178.4390  145.5050 N   0  0  0  0  0  0  0  0  0  0  0  0
  189.0670  176.9980  142.4160 C   0  0  0  0  0  3  0  0  0  0  0  0
  185.8420  178.2530  145.6740 C   0  0  0  0  0  0  0  0  0  0  0  0
  184.8140  178.6480  143.0190 C   0  0  0  0  0  0  0  0  0  0  0  0
  186.3680  178.0100  147.0470 C   0  0  0  0  0  2  0  0  0  0  0  0
  187.8660  178.2430  147.0870 C   0  0  2  0  0  3  0  0  0  0  0  0
  188.5590  176.9390  147.4360 C   0  0  2  0  0  3  0  0  0  0  0  0
  188.3740  178.0120  148.4930 C   0  0  0  0  0  2  0  0  0  0  0  0
  189.9620  176.9620  146.9240 C   0  0  0  0  0  0  0  0  0  0  0  0
  190.2730  177.6700  145.7700 O   0  0  0  0  0  0  0  0  0  0  0  0
  190.8590  176.3040  147.5120 O   0  0  0  0  0  1  0  0  0  0  0  0
  1  2  1  0  0  0  0
  2 11  1  0  0  0  0
  3 13  1  0  0  0  0
  3  6  2  0  0  0  0
  4  1  1  0  0  0  0
  4 16  1  6  0  0  0
  5 12  1  0  0  0  0
  6 18  1  0  0  0  0
  7  4  1  0  0  0  0
  8  7  1  0  0  0  0
  8  5  2  0  0  0  0
  9 15  1  0  0  0  0
 10  9  2  0  0  0  0
 11 17  1  0  0  0  0
 12 16  2  0  0  0  0
 13  1  2  0  0  0  0
 14  7  2  0  0  0  0
 14 13  1  0  0  0  0
 15 17  2  0  0  0  0
 17 19  1  0  0  0  0
 18  2  2  0  0  0  0
 18  9  1  0  0  0  0
 20 19  1  1  0  0  0
 20 21  1  0  0  0  0
 20 22  1  0  0  0  0
 21 23  1  6  0  0  0
 21 22  1  0  0  0  0
 23 25  1  0  0  0  0
 24 23  2  0  0  0  0
M  END
>  <MODEL>
3

>  <REMARK>
 VINA RESULT:      -9.5      3.134      5.108
  Name = 
  3 active torsions:
  status: ('A' for Active; 'I' for Inactive)
    1  A    between atoms: C_2  and  C_21
    2  A    between atoms: C_6  and  C_15
    3  A    between atoms: C_6  and  C_23
                            x       y       z     vdW  Elec       q    Type
                         _______ _______ _______ _____ _____    ______ ____

>  <TORSDO>
F 3

$$$$
=
 OpenBabel10272400403D

 25 29  0  0  1  0  0  0  0  0999 V2000
  187.2740  177.7690  143.1080 C   0  0  0  0  0  0  0  0  0  0  0  0
  188.6310  177.4300  143.0510 C   0  0  0  0  0  0  0  0  0  0  0  0
  187.2410  178.4140  140.7810 C   0  0  0  0  0  3  0  0  0  0  0  0
  186.2880  177.6130  144.2100 C   0  0  2  0  0  3  0  0  0  0  0  0
  184.2120  179.0580  145.5890 C   0  0  0  0  0  3  0  0  0  0  0  0
  188.6070  178.1020  140.6980 C   0  0  0  0  0  3  0  0  0  0  0  0
  185.0660  178.1750  143.5290 C   0  0  0  0  0  0  0  0  0  0  0  0
  183.9470  178.6710  144.3340 C   0  0  0  0  0  3  0  0  0  0  0  0
  190.7410  177.2800  141.7640 C   0  0  0  0  0  0  0  0  0  0  0  0
  191.6020  177.4250  140.3770 S   0  0  0  0  0  0  0  0  0  0  0  0
  189.3220  176.8410  144.2510 C   0  0  0  0  0  2  0  0  0  0  0  0
  185.6020  179.0310  146.1180 C   0  0  0  0  0  3  0  0  0  0  0  0
  186.5990  178.2210  142.0000 C   0  0  0  0  0  0  0  0  0  0  0  0
  185.2400  178.5080  142.2880 N   0  0  0  0  0  0  0  0  0  0  0  0
  191.4180  176.8770  142.9580 N   0  0  0  0  0  0  0  0  0  0  0  0
  186.5910  178.4140  145.4500 C   0  0  0  0  0  3  0  0  0  0  0  0
  190.8150  176.7050  144.0980 C   0  0  0  0  0  0  0  0  0  0  0  0
  189.3050  177.6080  141.8240 C   0  0  0  0  0  0  0  0  0  0  0  0
  191.6050  176.2740  145.2850 C   0  0  0  0  0  2  0  0  0  0  0  0
  190.7090  176.1630  146.5040 C   0  0  2  0  0  3  0  0  0  0  0  0
  190.5380  177.5400  147.1170 C   0  0  2  0  0  3  0  0  0  0  0  0
  191.4940  176.5400  147.7410 C   0  0  0  0  0  2  0  0  0  0  0  0
  189.2660  177.5880  147.8990 C   0  0  0  0  0  0  0  0  0  0  0  0
  188.3590  176.5390  147.8230 O   0  0  0  0  0  0  0  0  0  0  0  0
  188.9920  178.6010  148.5950 O   0  0  0  0  0  1  0  0  0  0  0  0
  1  4  1  0  0  0  0
  2  1  1  0  0  0  0
  2 11  1  0  0  0  0
  3 13  1  0  0  0  0
  4 16  1  1  0  0  0
  5 12  1  0  0  0  0
  6  3  2  0  0  0  0
  6 18  1  0  0  0  0
  7  4  1  0  0  0  0
  7  8  1  0  0  0  0
  8  5  2  0  0  0  0
  9 18  1  0  0  0  0
  9 15  1  0  0  0  0
 10  9  2  0  0  0  0
 13 14  1  0  0  0  0
 13  1  2  0  0  0  0
 14  7  2  0  0  0  0
 15 17  2  0  0  0  0
 16 12  2  0  0  0  0
 17 11  1  0  0  0  0
 17 19  1  0  0  0  0
 18  2  2  0  0  0  0
 20 19  1  6  0  0  0
 20 21  1  0  0  0  0
 20 22  1  0  0  0  0
 21 22  1  0  0  0  0
 21 23  1  1  0  0  0
 23 25  1  0  0  0  0
 24 23  2  0  0  0  0
M  END
>  <MODEL>
4

>  <REMARK>
 VINA RESULT:      -9.5      3.247      6.457
  Name = 
  3 active torsions:
  status: ('A' for Active; 'I' for Inactive)
    1  A    between atoms: C_2  and  C_21
    2  A    between atoms: C_6  and  C_15
    3  A    between atoms: C_6  and  C_23
                            x       y       z     vdW  Elec       q    Type
                         _______ _______ _______ _____ _____    ______ ____

>  <TORSDO>
F 3

$$$$
=
 OpenBabel10272400403D

 25 29  0  0  1  0  0  0  0  0999 V2000
  185.3460  178.5670  144.1790 C   0  0  0  0  0  0  0  0  0  0  0  0
  186.6720  178.1320  144.0860 C   0  0  0  0  0  0  0  0  0  0  0  0
  185.3500  178.3670  146.5860 C   0  0  0  0  0  3  0  0  0  0  0  0
  184.4220  179.0730  143.1300 C   0  0  2  0  0  3  0  0  0  0  0  0
  181.7130  178.7890  142.1930 C   0  0  0  0  0  3  0  0  0  0  0  0
  186.6750  177.9080  146.5230 C   0  0  0  0  0  3  0  0  0  0  0  0
  183.2090  179.3520  143.9810 C   0  0  0  0  0  0  0  0  0  0  0  0
  181.8850  179.4260  143.3590 C   0  0  0  0  0  3  0  0  0  0  0  0
  188.7300  177.3050  145.1890 C   0  0  0  0  0  0  0  0  0  0  0  0
  189.5970  176.9140  146.5230 S   0  0  0  0  0  0  0  0  0  0  0  0
  187.3700  178.0890  142.7540 C   0  0  0  0  0  2  0  0  0  0  0  0
  182.8160  177.9960  141.5870 C   0  0  0  0  0  3  0  0  0  0  0  0
  184.7170  178.7030  145.3930 C   0  0  0  0  0  0  0  0  0  0  0  0
  183.3790  179.1510  145.2510 N   0  0  0  0  0  0  0  0  0  0  0  0
  189.3220  177.1160  143.9010 N   0  0  0  0  0  0  0  0  0  0  0  0
  184.0720  178.0730  142.0580 C   0  0  0  0  0  3  0  0  0  0  0  0
  188.7230  177.4250  142.7880 C   0  0  0  0  0  0  0  0  0  0  0  0
  187.3420  177.7910  145.2820 C   0  0  0  0  0  0  0  0  0  0  0  0
  189.4260  177.1990  141.4940 C   0  0  0  0  0  2  0  0  0  0  0  0
  188.8680  178.1160  140.4220 C   0  0  2  0  0  3  0  0  0  0  0  0
  188.4310  177.2800  139.2340 C   0  0  2  0  0  3  0  0  0  0  0  0
  189.7430  178.0420  139.1900 C   0  0  0  0  0  2  0  0  0  0  0  0
  187.3870  178.0130  138.4590 C   0  0  0  0  0  0  0  0  0  0  0  0
  186.3970  178.7280  139.1220 O   0  0  0  0  0  1  0  0  0  0  0  0
  187.3740  177.9500  137.2020 O   0  0  0  0  0  0  0  0  0  0  0  0
  1 13  1  0  0  0  0
  2  1  2  0  0  0  0
  2 18  1  0  0  0  0
  4 16  1  6  0  0  0
  4  7  1  0  0  0  0
  4  1  1  0  0  0  0
  5  8  2  0  0  0  0
  6  3  1  0  0  0  0
  7 14  2  0  0  0  0
  8  7  1  0  0  0  0
  9 18  1  0  0  0  0
  9 10  2  0  0  0  0
 11 17  1  0  0  0  0
 11  2  1  0  0  0  0
 12 16  2  0  0  0  0
 12  5  1  0  0  0  0
 13  3  2  0  0  0  0
 14 13  1  0  0  0  0
 15  9  1  0  0  0  0
 17 15  2  0  0  0  0
 18  6  2  0  0  0  0
 19 17  1  0  0  0  0
 20 19  1  1  0  0  0
 21 23  1  6  0  0  0
 21 20  1  0  0  0  0
 22 21  1  0  0  0  0
 22 20  1  0  0  0  0
 23 24  1  0  0  0  0
 25 23  2  0  0  0  0
M  END
>  <MODEL>
5

>  <REMARK>
 VINA RESULT:      -9.5      1.809      5.543
  Name = 
  3 active torsions:
  status: ('A' for Active; 'I' for Inactive)
    1  A    between atoms: C_2  and  C_21
    2  A    between atoms: C_6  and  C_15
    3  A    between atoms: C_6  and  C_23
                            x       y       z     vdW  Elec       q    Type
                         _______ _______ _______ _____ _____    ______ ____

>  <TORSDO>
F 3

$$$$
=
 OpenBabel10272400403D

 25 29  0  0  1  0  0  0  0  0999 V2000
  186.9380  178.1700  144.0610 C   0  0  0  0  0  0  0  0  0  0  0  0
  188.1070  177.7680  143.4060 C   0  0  0  0  0  0  0  0  0  0  0  0
  187.7720  177.4290  146.2030 C   0  0  0  0  0  3  0  0  0  0  0  0
  185.7480  178.9000  143.5490 C   0  0  2  0  0  3  0  0  0  0  0  0
  182.8690  178.8340  143.6160 C   0  0  0  0  0  3  0  0  0  0  0  0
  188.9490  176.9970  145.5700 C   0  0  0  0  0  3  0  0  0  0  0  0
  184.9390  178.9770  144.8190 C   0  0  0  0  0  0  0  0  0  0  0  0
  183.4910  179.1890  144.7480 C   0  0  0  0  0  3  0  0  0  0  0  0
  190.3460  176.7150  143.4890 C   0  0  0  0  0  0  0  0  0  0  0  0
  191.5930  176.0320  144.3040 S   0  0  0  0  0  0  0  0  0  0  0  0
  188.2850  178.0290  141.9340 C   0  0  0  0  0  2  0  0  0  0  0  0
  183.6200  178.1990  142.5000 C   0  0  0  0  0  3  0  0  0  0  0  0
  186.7900  178.0260  145.4190 C   0  0  0  0  0  0  0  0  0  0  0  0
  185.5280  178.4940  145.8680 N   0  0  0  0  0  0  0  0  0  0  0  0
  190.4290  176.8230  142.0650 N   0  0  0  0  0  0  0  0  0  0  0  0
  184.9630  178.1690  142.4900 C   0  0  0  0  0  3  0  0  0  0  0  0
  189.5050  177.3760  141.3360 C   0  0  0  0  0  0  0  0  0  0  0  0
  189.1240  177.1660  144.1770 C   0  0  0  0  0  0  0  0  0  0  0  0
  189.6860  177.4500  139.8590 C   0  0  0  0  0  2  0  0  0  0  0  0
  188.5990  178.3050  139.2360 C   0  0  2  0  0  3  0  0  0  0  0  0
  187.9930  177.5550  138.0640 C   0  0  2  0  0  3  0  0  0  0  0  0
  188.9940  178.6690  137.8210 C   0  0  0  0  0  2  0  0  0  0  0  0
  186.6060  178.0490  137.8130 C   0  0  0  0  0  0  0  0  0  0  0  0
  185.9290  178.7620  138.7960 O   0  0  0  0  0  1  0  0  0  0  0  0
  186.0290  177.7840  136.7260 O   0  0  0  0  0  0  0  0  0  0  0  0
  1 13  1  0  0  0  0
  2  1  2  0  0  0  0
  2 18  1  0  0  0  0
  4 16  1  6  0  0  0
  4  1  1  0  0  0  0
  4  7  1  0  0  0  0
  5  8  2  0  0  0  0
  6  3  1  0  0  0  0
  7 14  2  0  0  0  0
  8  7  1  0  0  0  0
  9 18  1  0  0  0  0
  9 10  2  0  0  0  0
 11  2  1  0  0  0  0
 12  5  1  0  0  0  0
 13 14  1  0  0  0  0
 13  3  2  0  0  0  0
 15  9  1  0  0  0  0
 16 12  2  0  0  0  0
 17 11  1  0  0  0  0
 17 15  2  0  0  0  0
 18  6  2  0  0  0  0
 19 17  1  0  0  0  0
 20 19  1  1  0  0  0
 21 23  1  6  0  0  0
 21 20  1  0  0  0  0
 22 21  1  0  0  0  0
 22 20  1  0  0  0  0
 23 24  1  0  0  0  0
 25 23  2  0  0  0  0
M  END
>  <MODEL>
6

>  <REMARK>
 VINA RESULT:      -9.5      2.036      5.420
  Name = 
  3 active torsions:
  status: ('A' for Active; 'I' for Inactive)
    1  A    between atoms: C_2  and  C_21
    2  A    between atoms: C_6  and  C_15
    3  A    between atoms: C_6  and  C_23
                            x       y       z     vdW  Elec       q    Type
                         _______ _______ _______ _____ _____    ______ ____

>  <TORSDO>
F 3

$$$$
=
 OpenBabel10272400403D

 25 29  0  0  1  0  0  0  0  0999 V2000
  189.6660  177.9030  142.8320 C   0  0  0  0  0  0  0  0  0  0  0  0
  188.6000  178.1560  141.9620 C   0  0  0  0  0  0  0  0  0  0  0  0
  191.1160  177.2490  141.0140 C   0  0  0  0  0  3  0  0  0  0  0  0
  189.7880  178.1250  144.2970 C   0  0  2  0  0  3  0  0  0  0  0  0
  190.6890  176.8190  146.7010 C   0  0  0  0  0  3  0  0  0  0  0  0
  190.0580  177.4750  140.1190 C   0  0  0  0  0  3  0  0  0  0  0  0
  191.1990  177.6360  144.5040 C   0  0  0  0  0  0  0  0  0  0  0  0
  191.6350  177.2150  145.8380 C   0  0  0  0  0  3  0  0  0  0  0  0
  187.6750  178.1690  139.6640 C   0  0  0  0  0  0  0  0  0  0  0  0
  187.8240  177.9630  138.0460 S   0  0  0  0  0  0  0  0  0  0  0  0
  187.3010  178.7080  142.4860 C   0  0  0  0  0  2  0  0  0  0  0  0
  189.2600  176.7630  146.2930 C   0  0  0  0  0  3  0  0  0  0  0  0
  190.8900  177.4870  142.3660 C   0  0  0  0  0  0  0  0  0  0  0  0
  191.8180  177.2860  143.4200 N   0  0  0  0  0  0  0  0  0  0  0  0
  186.4000  178.5360  140.2000 N   0  0  0  0  0  0  0  0  0  0  0  0
  188.8400  177.3140  145.1430 C   0  0  0  0  0  3  0  0  0  0  0  0
  186.1930  178.7510  141.4660 C   0  0  0  0  0  0  0  0  0  0  0  0
  188.8030  177.9310  140.5830 C   0  0  0  0  0  0  0  0  0  0  0  0
  184.8300  179.1390  141.9270 C   0  0  0  0  0  2  0  0  0  0  0  0
  184.8750  179.6130  143.3670 C   0  0  2  0  0  3  0  0  0  0  0  0
  184.4470  178.4760  144.2750 C   0  0  2  0  0  3  0  0  0  0  0  0
  183.4780  179.5970  143.9460 C   0  0  0  0  0  2  0  0  0  0  0  0
  185.0190  178.6780  145.6400 C   0  0  0  0  0  0  0  0  0  0  0  0
  184.2810  178.3320  146.7650 O   0  0  0  0  0  1  0  0  0  0  0  0
  186.1550  179.2030  145.7760 O   0  0  0  0  0  0  0  0  0  0  0  0
  1  4  1  0  0  0  0
  2 11  1  0  0  0  0
  2  1  2  0  0  0  0
  3 13  2  0  0  0  0
  4  7  1  0  0  0  0
  4 16  1  1  0  0  0
  6 18  2  0  0  0  0
  6  3  1  0  0  0  0
  7  8  1  0  0  0  0
  8  5  2  0  0  0  0
  9 15  1  0  0  0  0
  9 18  1  0  0  0  0
 10  9  2  0  0  0  0
 12  5  1  0  0  0  0
 13  1  1  0  0  0  0
 13 14  1  0  0  0  0
 14  7  2  0  0  0  0
 15 17  2  0  0  0  0
 16 12  2  0  0  0  0
 17 19  1  0  0  0  0
 17 11  1  0  0  0  0
 18  2  1  0  0  0  0
 20 19  1  6  0  0  0
 20 22  1  0  0  0  0
 20 21  1  0  0  0  0
 21 23  1  1  0  0  0
 22 21  1  0  0  0  0
 23 25  2  0  0  0  0
 23 24  1  0  0  0  0
M  END
>  <MODEL>
7

>  <REMARK>
 VINA RESULT:      -9.3      3.047      4.826
  Name = 
  3 active torsions:
  status: ('A' for Active; 'I' for Inactive)
    1  A    between atoms: C_2  and  C_21
    2  A    between atoms: C_6  and  C_15
    3  A    between atoms: C_6  and  C_23
                            x       y       z     vdW  Elec       q    Type
                         _______ _______ _______ _____ _____    ______ ____

>  <TORSDO>
F 3

$$$$
=
 OpenBabel10272400403D

 25 29  0  0  1  0  0  0  0  0999 V2000
  186.7670  177.8510  144.1430 C   0  0  0  0  0  0  0  0  0  0  0  0
  186.6770  178.0610  142.7620 C   0  0  0  0  0  0  0  0  0  0  0  0
  184.4900  178.5770  144.4960 C   0  0  0  0  0  3  0  0  0  0  0  0
  187.8620  177.2620  144.9590 C   0  0  2  0  0  3  0  0  0  0  0  0
  189.3530  177.7160  147.3810 C   0  0  0  0  0  3  0  0  0  0  0  0
  184.3770  178.8170  143.1180 C   0  0  0  0  0  3  0  0  0  0  0  0
  187.2300  177.3560  146.3240 C   0  0  0  0  0  0  0  0  0  0  0  0
  188.0760  177.3360  147.5210 C   0  0  0  0  0  3  0  0  0  0  0  0
  185.3680  178.8090  140.7980 C   0  0  0  0  0  0  0  0  0  0  0  0
  183.9880  179.3570  140.1040 S   0  0  0  0  0  0  0  0  0  0  0  0
  187.8280  177.7070  141.8600 C   0  0  0  0  0  2  0  0  0  0  0  0
  189.8690  178.1900  146.0690 C   0  0  0  0  0  3  0  0  0  0  0  0
  185.6980  178.0790  144.9760 C   0  0  0  0  0  0  0  0  0  0  0  0
  186.0140  177.8070  146.3310 N   0  0  0  0  0  0  0  0  0  0  0  0
  186.5260  178.6210  139.9790 N   0  0  0  0  0  0  0  0  0  0  0  0
  189.1530  178.0400  144.9420 C   0  0  0  0  0  3  0  0  0  0  0  0
  187.6550  178.1620  140.4330 C   0  0  0  0  0  0  0  0  0  0  0  0
  185.4600  178.5590  142.2470 C   0  0  0  0  0  0  0  0  0  0  0  0
  188.8030  177.9930  139.4990 C   0  0  0  0  0  2  0  0  0  0  0  0
  189.9250  177.2280  140.1750 C   0  0  2  0  0  3  0  0  0  0  0  0
  191.2320  177.5460  139.4730 C   0  0  2  0  0  3  0  0  0  0  0  0
  190.5170  176.2350  139.1980 C   0  0  0  0  0  2  0  0  0  0  0  0
  192.3740  177.3200  140.4080 C   0  0  0  0  0  0  0  0  0  0  0  0
  192.1440  177.1790  141.7710 O   0  0  0  0  0  1  0  0  0  0  0  0
  193.5540  177.2990  139.9700 O   0  0  0  0  0  0  0  0  0  0  0  0
  1  4  1  0  0  0  0
  1 13  1  0  0  0  0
  2  1  2  0  0  0  0
  3 13  2  0  0  0  0
  4 16  1  1  0  0  0
  4  7  1  0  0  0  0
  5  8  2  0  0  0  0
  6  3  1  0  0  0  0
  7 14  2  0  0  0  0
  7  8  1  0  0  0  0
  9 18  1  0  0  0  0
 10  9  2  0  0  0  0
 11  2  1  0  0  0  0
 12  5  1  0  0  0  0
 13 14  1  0  0  0  0
 15 17  2  0  0  0  0
 15  9  1  0  0  0  0
 16 12  2  0  0  0  0
 17 11  1  0  0  0  0
 18  2  1  0  0  0  0
 18  6  2  0  0  0  0
 19 17  1  0  0  0  0
 20 19  1  6  0  0  0
 21 20  1  0  0  0  0
 21 23  1  1  0  0  0
 22 21  1  0  0  0  0
 22 20  1  0  0  0  0
 23 24  1  0  0  0  0
 25 23  2  0  0  0  0
M  END
>  <MODEL>
8

>  <REMARK>
 VINA RESULT:      -9.3      3.380      6.587
  Name = 
  3 active torsions:
  status: ('A' for Active; 'I' for Inactive)
    1  A    between atoms: C_2  and  C_21
    2  A    between atoms: C_6  and  C_15
    3  A    between atoms: C_6  and  C_23
                            x       y       z     vdW  Elec       q    Type
                         _______ _______ _______ _____ _____    ______ ____

>  <TORSDO>
F 3

$$$$
=
 OpenBabel10272400403D

 25 29  0  0  1  0  0  0  0  0999 V2000
  186.6040  177.9970  144.5150 C   0  0  0  0  0  0  0  0  0  0  0  0
  186.7050  178.0920  143.1230 C   0  0  0  0  0  0  0  0  0  0  0  0
  184.3860  178.9550  144.5130 C   0  0  0  0  0  3  0  0  0  0  0  0
  187.5250  177.3860  145.5090 C   0  0  2  0  0  3  0  0  0  0  0  0
  188.7470  177.9130  148.0640 C   0  0  0  0  0  3  0  0  0  0  0  0
  184.4670  179.0820  143.1170 C   0  0  0  0  0  3  0  0  0  0  0  0
  186.7440  177.6550  146.7700 C   0  0  0  0  0  0  0  0  0  0  0  0
  187.4310  177.6640  148.0640 C   0  0  0  0  0  3  0  0  0  0  0  0
  185.7290  178.7810  140.9540 C   0  0  0  0  0  0  0  0  0  0  0  0
  184.5070  179.3890  140.0470 S   0  0  0  0  0  0  0  0  0  0  0  0
  187.9160  177.5580  142.4080 C   0  0  0  0  0  2  0  0  0  0  0  0
  189.4650  178.2210  146.7980 C   0  0  0  0  0  3  0  0  0  0  0  0
  185.4700  178.3940  145.1820 C   0  0  0  0  0  0  0  0  0  0  0  0
  185.5880  178.2140  146.5840 N   0  0  0  0  0  0  0  0  0  0  0  0
  186.9530  178.4180  140.3090 N   0  0  0  0  0  0  0  0  0  0  0  0
  188.8810  178.0380  145.6030 C   0  0  0  0  0  3  0  0  0  0  0  0
  187.9660  177.9000  140.9410 C   0  0  0  0  0  0  0  0  0  0  0  0
  185.6180  178.6510  142.4180 C   0  0  0  0  0  0  0  0  0  0  0  0
  189.1970  177.5460  140.1800 C   0  0  0  0  0  2  0  0  0  0  0  0
  190.2250  176.9160  141.1010 C   0  0  2  0  0  3  0  0  0  0  0  0
  190.9900  178.0160  141.8120 C   0  0  2  0  0  3  0  0  0  0  0  0
  191.6150  177.2890  140.6350 C   0  0  0  0  0  2  0  0  0  0  0  0
  191.5510  177.4930  143.0930 C   0  0  0  0  0  0  0  0  0  0  0  0
  191.5570  176.1270  143.3470 O   0  0  0  0  0  0  0  0  0  0  0  0
  191.9820  178.2910  143.9660 O   0  0  0  0  0  1  0  0  0  0  0  0
  1 13  1  0  0  0  0
  1  4  1  0  0  0  0
  2  1  2  0  0  0  0
  3 13  2  0  0  0  0
  4 16  1  1  0  0  0
  4  7  1  0  0  0  0
  6  3  1  0  0  0  0
  7  8  1  0  0  0  0
  8  5  2  0  0  0  0
  9 18  1  0  0  0  0
 10  9  2  0  0  0  0
 11  2  1  0  0  0  0
 12  5  1  0  0  0  0
 13 14  1  0  0  0  0
 14  7  2  0  0  0  0
 15 17  2  0  0  0  0
 15  9  1  0  0  0  0
 16 12  2  0  0  0  0
 17 11  1  0  0  0  0
 18  6  2  0  0  0  0
 18  2  1  0  0  0  0
 19 17  1  0  0  0  0
 20 19  1  6  0  0  0
 20 21  1  0  0  0  0
 21 23  1  1  0  0  0
 22 20  1  0  0  0  0
 22 21  1  0  0  0  0
 23 24  2  0  0  0  0
 23 25  1  0  0  0  0
M  END
>  <MODEL>
9

>  <REMARK>
 VINA RESULT:      -9.1      3.260      6.543
  Name = 
  3 active torsions:
  status: ('A' for Active; 'I' for Inactive)
    1  A    between atoms: C_2  and  C_21
    2  A    between atoms: C_6  and  C_15
    3  A    between atoms: C_6  and  C_23
                            x       y       z     vdW  Elec       q    Type
                         _______ _______ _______ _____ _____    ______ ____

>  <TORSDO>
F 3

$$$$
