=
 OpenBabel10262423463D

 34 39  0  0  1  0  0  0  0  0999 V2000
  188.6710  177.1780  137.4290 C   0  0  0  0  0  0  0  0  0  0  0  0
  190.9520  176.7630  138.3350 N   0  0  0  0  0  0  0  0  0  0  0  0
  189.2230  177.8850  139.7470 C   0  0  0  0  0  0  0  0  0  0  0  0
  188.1020  178.4220  142.4350 N   0  0  2  0  0  0  0  0  0  0  0  0
  186.1720  177.0420  136.8380 C   0  0  0  0  0  1  0  0  0  0  0  0
  191.6630  176.5300  137.0880 C   0  0  0  0  0  1  0  0  0  0  0  0
  191.2170  176.8730  140.7150 C   0  0  0  0  0  3  0  0  0  0  0  0
  189.7710  177.6440  138.3510 C   0  0  2  0  0  3  0  0  0  0  0  0
  189.5370  178.1750  142.1940 C   0  0  2  0  0  3  0  0  0  0  0  0
  188.9470  176.6050  136.3390 O   0  0  0  0  0  0  0  0  0  0  0  0
  187.9020  178.6010  139.8480 C   0  0  2  0  0  3  0  0  0  0  0  0
  187.2630  177.4820  137.7530 C   0  0  0  0  0  0  0  0  0  0  0  0
  191.6730  176.4740  139.5350 C   0  0  0  0  0  3  0  0  0  0  0  0
  187.2840  177.2820  141.9560 C   0  0  0  0  0  2  0  0  0  0  0  0
  187.2380  178.5620  141.2390 C   0  0  1  0  0  0  0  0  0  0  0  0
  189.9430  177.6080  140.8420 C   0  0  0  0  0  0  0  0  0  0  0  0
  186.9470  178.0920  138.8560 N   0  0  0  0  0  0  0  0  0  0  0  0
  184.4980  178.3100  143.2080 C   0  0  1  0  0  3  0  0  0  0  0  0
  184.0290  177.6200  142.0600 O   0  0  0  0  0  0  0  0  0  0  0  0
  185.9930  179.4430  141.4690 C   0  0  2  0  0  3  0  0  0  0  0  0
  183.6470  178.5580  141.0850 C   0  0  0  0  0  2  0  0  0  0  0  0
  185.4580  179.4800  142.9100 C   0  0  0  0  0  2  0  0  0  0  0  0
  184.8870  179.1740  140.4370 C   0  0  0  0  0  2  0  0  0  0  0  0
  183.3460  178.7680  144.0860 C   0  0  0  0  0  1  0  0  0  0  0  0
  190.1360  177.4360  143.3890 C   0  0  0  0  0  2  0  0  0  0  0  0
  189.8020  178.1670  144.6750 C   0  0  0  0  0  2  0  0  0  0  0  0
  189.8390  177.1970  145.8470 C   0  0  0  0  0  2  0  0  0  0  0  0
  187.0510  176.6120  144.7740 F   0  0  0  0  0  0  0  0  0  0  0  0
  188.5080  177.1580  146.5930 C   0  0  2  0  0  3  0  0  0  0  0  0
  187.3320  177.5980  145.7040 C   0  0  2  0  0  3  0  0  0  0  0  0
  186.3930  179.0100  147.5170 C   0  0  0  0  0  2  0  0  0  0  0  0
  187.6210  178.7220  148.3380 C   0  0  0  0  0  3  0  0  0  0  0  0
  188.5990  177.9150  147.9000 C   0  0  0  0  0  3  0  0  0  0  0  0
  186.0930  177.8700  146.5490 C   0  0  0  0  0  2  0  0  0  0  0  0
  1 12  1  0  0  0  0
  2  8  1  0  0  0  0
  2 13  1  0  0  0  0
  3 11  1  0  0  0  0
  3 16  2  0  0  0  0
  4 14  1  1  0  0  0
  5 12  1  0  0  0  0
  6  2  1  0  0  0  0
  7 16  1  0  0  0  0
  8  1  1  6  0  0  0
  8  3  1  0  0  0  0
  9  4  1  0  0  0  0
  9 25  1  1  0  0  0
 10  1  2  0  0  0  0
 11 17  1  6  0  0  0
 11 15  1  0  0  0  0
 12 17  2  0  0  0  0
 13  7  2  0  0  0  0
 15 20  1  0  0  0  0
 15 14  1  6  0  0  0
 15  4  1  0  0  0  0
 16  9  1  0  0  0  0
 18 24  1  6  0  0  0
 19 18  1  0  0  0  0
 20 23  1  6  0  0  0
 20 22  1  0  0  0  0
 21 19  1  0  0  0  0
 22 18  1  0  0  0  0
 23 21  1  0  0  0  0
 25 26  1  0  0  0  0
 26 27  1  0  0  0  0
 29 27  1  6  0  0  0
 29 33  1  0  0  0  0
 30 28  1  6  0  0  0
 30 34  1  0  0  0  0
 30 29  1  0  0  0  0
 31 32  1  0  0  0  0
 33 32  2  0  0  0  0
 34 31  1  0  0  0  0
M  END
>  <MODEL>
1

>  <REMARK>
 VINA RESULT:      -8.7      0.000      0.000
  Name = 
  5 active torsions:
  status: ('A' for Active; 'I' for Inactive)
    1  A    between atoms: C_3  and  C_13
    2  A    between atoms: C_3  and  C_17
    3  A    between atoms: C_12  and  C_28
    4  A    between atoms: C_17  and  C_29
    5  A    between atoms: C_18  and  C_29
                            x       y       z     vdW  Elec       q    Type
                         _______ _______ _______ _____ _____    ______ ____

>  <TORSDO>
F 5

$$$$
=
 OpenBabel10262423463D

 34 39  0  0  1  0  0  0  0  0999 V2000
  190.6170  176.4930  137.1250 C   0  0  0  0  0  0  0  0  0  0  0  0
  188.2740  177.0370  136.4860 N   0  0  0  0  0  0  0  0  0  0  0  0
  188.9220  176.9070  138.8950 C   0  0  0  0  0  0  0  0  0  0  0  0
  188.5210  177.8240  141.6830 N   0  0  2  0  0  0  0  0  0  0  0  0
  193.0810  176.6030  137.8520 C   0  0  0  0  0  1  0  0  0  0  0  0
  188.2920  176.5770  135.1070 C   0  0  0  0  0  1  0  0  0  0  0  0
  186.8870  178.0340  138.1690 C   0  0  0  0  0  3  0  0  0  0  0  0
  189.1530  176.4010  137.4820 C   0  0  2  0  0  3  0  0  0  0  0  0
  187.4340  177.7720  140.6860 C   0  0  2  0  0  3  0  0  0  0  0  0
  190.9880  176.4510  135.9190 O   0  0  0  0  0  0  0  0  0  0  0  0
  189.9070  176.4700  139.9470 C   0  0  2  0  0  3  0  0  0  0  0  0
  191.6330  176.5310  138.1960 C   0  0  0  0  0  0  0  0  0  0  0  0
  187.1190  177.7780  136.8880 C   0  0  0  0  0  3  0  0  0  0  0  0
  189.6310  178.6840  141.2060 C   0  0  0  0  0  2  0  0  0  0  0  0
  189.8210  177.2310  141.2850 C   0  0  1  0  0  0  0  0  0  0  0  0
  187.8170  177.5870  139.2260 C   0  0  0  0  0  0  0  0  0  0  0  0
  191.2850  176.5510  139.4480 N   0  0  0  0  0  0  0  0  0  0  0  0
  189.6160  177.5610  144.6460 C   0  0  1  0  0  3  0  0  0  0  0  0
  190.4180  178.6930  144.3450 O   0  0  0  0  0  0  0  0  0  0  0  0
  190.6530  176.7010  142.4710 C   0  0  2  0  0  3  0  0  0  0  0  0
  191.7440  178.2740  144.1360 C   0  0  0  0  0  2  0  0  0  0  0  0
  189.8570  176.3400  143.7360 C   0  0  0  0  0  2  0  0  0  0  0  0
  191.8690  177.5900  142.7750 C   0  0  0  0  0  2  0  0  0  0  0  0
  189.7350  177.1750  146.1100 C   0  0  0  0  0  1  0  0  0  0  0  0
  186.4550  178.9170  140.9390 C   0  0  0  0  0  2  0  0  0  0  0  0
  185.1290  178.3720  141.4290 C   0  0  0  0  0  2  0  0  0  0  0  0
  184.6360  179.1930  142.6120 C   0  0  0  0  0  2  0  0  0  0  0  0
  182.4690  178.9600  144.7380 F   0  0  0  0  0  0  0  0  0  0  0  0
  184.6370  178.3810  143.9040 C   0  0  2  0  0  3  0  0  0  0  0  0
  183.8210  179.0600  145.0170 C   0  0  2  0  0  3  0  0  0  0  0  0
  185.5890  178.5980  146.6980 C   0  0  0  0  0  2  0  0  0  0  0  0
  186.4670  178.0810  145.5890 C   0  0  0  0  0  3  0  0  0  0  0  0
  186.0480  178.0230  144.3160 C   0  0  0  0  0  3  0  0  0  0  0  0
  184.1120  178.4130  146.3670 C   0  0  0  0  0  2  0  0  0  0  0  0
  1 12  1  0  0  0  0
  2 13  1  0  0  0  0
  2  8  1  0  0  0  0
  3 16  2  0  0  0  0
  4 14  1  6  0  0  0
  5 12  1  0  0  0  0
  6  2  1  0  0  0  0
  7 16  1  0  0  0  0
  8  1  1  6  0  0  0
  8  3  1  0  0  0  0
  9 25  1  6  0  0  0
  9  4  1  0  0  0  0
 10  1  2  0  0  0  0
 11  3  1  6  0  0  0
 11 15  1  0  0  0  0
 12 17  2  0  0  0  0
 13  7  2  0  0  0  0
 15 14  1  6  0  0  0
 15  4  1  0  0  0  0
 15 20  1  0  0  0  0
 16  9  1  0  0  0  0
 17 11  1  0  0  0  0
 18 24  1  1  0  0  0
 19 18  1  0  0  0  0
 20 23  1  1  0  0  0
 20 22  1  0  0  0  0
 21 19  1  0  0  0  0
 22 18  1  0  0  0  0
 23 21  1  0  0  0  0
 25 26  1  0  0  0  0
 26 27  1  0  0  0  0
 29 27  1  6  0  0  0
 29 33  1  0  0  0  0
 29 30  1  0  0  0  0
 30 28  1  6  0  0  0
 30 34  1  0  0  0  0
 32 31  1  0  0  0  0
 33 32  2  0  0  0  0
 34 31  1  0  0  0  0
M  END
>  <MODEL>
2

>  <REMARK>
 VINA RESULT:      -8.6      1.995      4.654
  Name = 
  5 active torsions:
  status: ('A' for Active; 'I' for Inactive)
    1  A    between atoms: C_3  and  C_13
    2  A    between atoms: C_3  and  C_17
    3  A    between atoms: C_12  and  C_28
    4  A    between atoms: C_17  and  C_29
    5  A    between atoms: C_18  and  C_29
                            x       y       z     vdW  Elec       q    Type
                         _______ _______ _______ _____ _____    ______ ____

>  <TORSDO>
F 5

$$$$
=
 OpenBabel10262423463D

 34 39  0  0  1  0  0  0  0  0999 V2000
  186.8990  176.8410  137.4090 C   0  0  0  0  0  0  0  0  0  0  0  0
  188.3280  177.9350  139.1290 N   0  0  0  0  0  0  0  0  0  0  0  0
  185.8550  178.2910  139.1380 C   0  0  0  0  0  0  0  0  0  0  0  0
  183.3740  178.8140  140.6680 N   0  0  2  0  0  0  0  0  0  0  0  0
  185.3190  175.2660  136.1310 C   0  0  0  0  0  1  0  0  0  0  0  0
  189.6220  177.8060  138.4780 C   0  0  0  0  0  1  0  0  0  0  0  0
  187.2320  178.7640  141.0930 C   0  0  0  0  0  3  0  0  0  0  0  0
  187.1050  178.0320  138.3140 C   0  0  2  0  0  3  0  0  0  0  0  0
  184.7000  179.3090  141.0870 C   0  0  2  0  0  3  0  0  0  0  0  0
  187.8870  176.2470  136.8960 O   0  0  0  0  0  0  0  0  0  0  0  0
  184.5340  178.2020  138.4220 C   0  0  2  0  0  3  0  0  0  0  0  0
  185.5310  176.4290  137.0390 C   0  0  0  0  0  0  0  0  0  0  0  0
  188.3480  178.3820  140.4860 C   0  0  0  0  0  3  0  0  0  0  0  0
  183.3800  177.3370  140.5390 C   0  0  0  0  0  2  0  0  0  0  0  0
  183.2920  178.1710  139.3340 C   0  0  1  0  0  0  0  0  0  0  0  0
  185.9260  178.7220  140.4040 C   0  0  0  0  0  0  0  0  0  0  0  0
  184.4920  177.0360  137.5310 N   0  0  0  0  0  0  0  0  0  0  0  0
  181.4510  180.7540  138.1570 C   0  0  1  0  0  3  0  0  0  0  0  0
  181.0120  180.7460  139.5070 O   0  0  0  0  0  0  0  0  0  0  0  0
  181.9050  178.2890  138.6700 C   0  0  2  0  0  3  0  0  0  0  0  0
  180.0660  179.7180  139.6760 C   0  0  0  0  0  2  0  0  0  0  0  0
  181.7780  179.3640  137.5770 C   0  0  0  0  0  2  0  0  0  0  0  0
  180.7670  178.3600  139.7000 C   0  0  0  0  0  2  0  0  0  0  0  0
  180.4710  181.4950  137.2630 C   0  0  0  0  0  1  0  0  0  0  0  0
  184.7790  179.3260  142.6120 C   0  0  0  0  0  2  0  0  0  0  0  0
  185.3140  178.0020  143.1230 C   0  0  0  0  0  2  0  0  0  0  0  0
  185.4320  178.0410  144.6390 C   0  0  0  0  0  2  0  0  0  0  0  0
  186.6820  177.9770  147.4150 F   0  0  0  0  0  0  0  0  0  0  0  0
  186.6440  177.2550  145.1330 C   0  0  2  0  0  3  0  0  0  0  0  0
  187.4090  178.0030  146.2380 C   0  0  2  0  0  3  0  0  0  0  0  0
  189.5950  177.4680  145.1870 C   0  0  0  0  0  2  0  0  0  0  0  0
  188.8540  176.8790  144.0160 C   0  0  0  0  0  3  0  0  0  0  0  0
  187.5150  176.8220  143.9740 C   0  0  0  0  0  3  0  0  0  0  0  0
  188.7750  177.3650  146.4700 C   0  0  0  0  0  2  0  0  0  0  0  0
  2 13  1  0  0  0  0
  3 16  2  0  0  0  0
  4 14  1  1  0  0  0
  4  9  1  0  0  0  0
  5 12  1  0  0  0  0
  6  2  1  0  0  0  0
  8  1  1  1  0  0  0
  8  2  1  0  0  0  0
  8  3  1  0  0  0  0
  9 25  1  1  0  0  0
 10  1  2  0  0  0  0
 11 17  1  1  0  0  0
 11  3  1  0  0  0  0
 11 15  1  0  0  0  0
 12  1  1  0  0  0  0
 12 17  2  0  0  0  0
 13  7  2  0  0  0  0
 15 14  1  1  0  0  0
 15  4  1  0  0  0  0
 16  9  1  0  0  0  0
 16  7  1  0  0  0  0
 18 24  1  6  0  0  0
 18 19  1  0  0  0  0
 19 21  1  0  0  0  0
 20 22  1  1  0  0  0
 20 15  1  0  0  0  0
 20 23  1  0  0  0  0
 21 23  1  0  0  0  0
 22 18  1  0  0  0  0
 25 26  1  0  0  0  0
 26 27  1  0  0  0  0
 29 27  1  6  0  0  0
 29 30  1  0  0  0  0
 30 34  1  0  0  0  0
 30 28  1  1  0  0  0
 31 34  1  0  0  0  0
 32 31  1  0  0  0  0
 33 32  2  0  0  0  0
 33 29  1  0  0  0  0
M  END
>  <MODEL>
3

>  <REMARK>
 VINA RESULT:      -8.4      2.437      4.210
  Name = 
  5 active torsions:
  status: ('A' for Active; 'I' for Inactive)
    1  A    between atoms: C_3  and  C_13
    2  A    between atoms: C_3  and  C_17
    3  A    between atoms: C_12  and  C_28
    4  A    between atoms: C_17  and  C_29
    5  A    between atoms: C_18  and  C_29
                            x       y       z     vdW  Elec       q    Type
                         _______ _______ _______ _____ _____    ______ ____

>  <TORSDO>
F 5

$$$$
=
 OpenBabel10262423463D

 34 39  0  0  1  0  0  0  0  0999 V2000
  189.8990  177.2530  146.6900 C   0  0  0  0  0  0  0  0  0  0  0  0
  187.5980  177.8000  147.4670 N   0  0  0  0  0  0  0  0  0  0  0  0
  188.1980  178.0310  145.0530 C   0  0  0  0  0  0  0  0  0  0  0  0
  187.3640  177.9350  142.2130 N   0  0  2  0  0  0  0  0  0  0  0  0
  191.9820  176.1030  145.7160 C   0  0  0  0  0  1  0  0  0  0  0  0
  187.8570  177.9400  148.8910 C   0  0  0  0  0  1  0  0  0  0  0  0
  185.8810  177.9130  145.7990 C   0  0  0  0  0  3  0  0  0  0  0  0
  188.6650  178.1010  146.4970 C   0  0  2  0  0  3  0  0  0  0  0  0
  186.4550  178.3250  143.3080 C   0  0  2  0  0  3  0  0  0  0  0  0
  190.2570  176.8950  147.8460 O   0  0  0  0  0  0  0  0  0  0  0  0
  189.2570  178.1200  143.9870 C   0  0  2  0  0  3  0  0  0  0  0  0
  190.7520  176.9230  145.5310 C   0  0  0  0  0  0  0  0  0  0  0  0
  186.2240  177.7920  147.0750 C   0  0  0  0  0  3  0  0  0  0  0  0
  187.9140  176.5780  142.4440 C   0  0  0  0  0  2  0  0  0  0  0  0
  188.7920  177.7480  142.5650 C   0  0  1  0  0  0  0  0  0  0  0  0
  186.8970  178.0380  144.7350 C   0  0  0  0  0  0  0  0  0  0  0  0
  190.4230  177.2980  144.3310 N   0  0  0  0  0  0  0  0  0  0  0  0
  188.4430  177.9410  139.2050 C   0  0  1  0  0  3  0  0  0  0  0  0
  188.6870  176.5500  139.3380 O   0  0  0  0  0  0  0  0  0  0  0  0
  189.7630  178.0140  141.3960 C   0  0  2  0  0  3  0  0  0  0  0  0
  190.0670  176.3400  139.5140 C   0  0  0  0  0  2  0  0  0  0  0  0
  189.1880  178.8270  140.2240 C   0  0  0  0  0  2  0  0  0  0  0  0
  190.4800  176.7380  140.9300 C   0  0  0  0  0  2  0  0  0  0  0  0
  188.7050  178.4130  137.7860 C   0  0  0  0  0  1  0  0  0  0  0  0
  185.0370  177.8580  142.9840 C   0  0  0  0  0  2  0  0  0  0  0  0
  184.1180  179.0530  142.8190 C   0  0  0  0  0  2  0  0  0  0  0  0
  183.1160  178.7880  141.7050 C   0  0  0  0  0  2  0  0  0  0  0  0
  185.6080  179.3470  140.0490 F   0  0  0  0  0  0  0  0  0  0  0  0
  183.7290  177.9620  140.5770 C   0  0  2  0  0  3  0  0  0  0  0  0
  184.4290  178.8430  139.5280 C   0  0  2  0  0  3  0  0  0  0  0  0
  183.4170  177.5540  137.6630 C   0  0  0  0  0  2  0  0  0  0  0  0
  182.5980  176.7940  138.6720 C   0  0  0  0  0  3  0  0  0  0  0  0
  182.7100  177.0100  139.9900 C   0  0  0  0  0  3  0  0  0  0  0  0
  184.7310  178.0390  138.2680 C   0  0  0  0  0  2  0  0  0  0  0  0
  1 10  2  0  0  0  0
  2  6  1  0  0  0  0
  4 14  1  1  0  0  0
  4 15  1  0  0  0  0
  4  9  1  0  0  0  0
  7 13  2  0  0  0  0
  8  3  1  6  0  0  0
  8  1  1  0  0  0  0
  8  2  1  0  0  0  0
  9 25  1  6  0  0  0
  9 16  1  0  0  0  0
 11 17  1  1  0  0  0
 11  3  1  0  0  0  0
 12  5  1  0  0  0  0
 12  1  1  0  0  0  0
 13  2  1  0  0  0  0
 15 14  1  1  0  0  0
 15 11  1  0  0  0  0
 16  3  2  0  0  0  0
 16  7  1  0  0  0  0
 17 12  2  0  0  0  0
 18 24  1  6  0  0  0
 18 19  1  0  0  0  0
 18 22  1  0  0  0  0
 19 21  1  0  0  0  0
 20 22  1  6  0  0  0
 20 15  1  0  0  0  0
 21 23  1  0  0  0  0
 23 20  1  0  0  0  0
 26 25  1  0  0  0  0
 27 26  1  0  0  0  0
 29 27  1  1  0  0  0
 30 28  1  1  0  0  0
 30 29  1  0  0  0  0
 31 34  1  0  0  0  0
 31 32  1  0  0  0  0
 32 33  2  0  0  0  0
 33 29  1  0  0  0  0
 34 30  1  0  0  0  0
M  END
>  <MODEL>
4

>  <REMARK>
 VINA RESULT:      -8.2      2.476      7.525
  Name = 
  5 active torsions:
  status: ('A' for Active; 'I' for Inactive)
    1  A    between atoms: C_3  and  C_13
    2  A    between atoms: C_3  and  C_17
    3  A    between atoms: C_12  and  C_28
    4  A    between atoms: C_17  and  C_29
    5  A    between atoms: C_18  and  C_29
                            x       y       z     vdW  Elec       q    Type
                         _______ _______ _______ _____ _____    ______ ____

>  <TORSDO>
F 5

$$$$
=
 OpenBabel10262423463D

 34 39  0  0  1  0  0  0  0  0999 V2000
  185.8840  178.3200  142.3410 C   0  0  0  0  0  0  0  0  0  0  0  0
  185.4720  178.4770  139.8910 N   0  0  0  0  0  0  0  0  0  0  0  0
  187.8090  178.3810  140.7690 C   0  0  0  0  0  0  0  0  0  0  0  0
  190.6320  177.5740  140.3810 N   0  0  2  0  0  0  0  0  0  0  0  0
  186.3810  177.5010  144.7270 C   0  0  0  0  0  1  0  0  0  0  0  0
  184.0910  178.9340  139.9130 C   0  0  0  0  0  1  0  0  0  0  0  0
  187.2870  177.8920  138.4390 C   0  0  0  0  0  3  0  0  0  0  0  0
  186.3740  178.8200  141.0030 C   0  0  2  0  0  3  0  0  0  0  0  0
  189.7400  177.9490  139.2670 C   0  0  2  0  0  3  0  0  0  0  0  0
  184.6490  178.2730  142.5950 O   0  0  0  0  0  0  0  0  0  0  0  0
  188.7590  178.5020  141.9290 C   0  0  2  0  0  3  0  0  0  0  0  0
  186.8570  177.9770  143.3970 C   0  0  0  0  0  0  0  0  0  0  0  0
  185.9870  178.0900  138.6150 C   0  0  0  0  0  3  0  0  0  0  0  0
  190.0650  176.4400  141.1500 C   0  0  0  0  0  2  0  0  0  0  0  0
  190.1090  177.7770  141.7530 C   0  0  1  0  0  0  0  0  0  0  0  0
  188.2480  178.0390  139.5500 C   0  0  0  0  0  0  0  0  0  0  0  0
  188.1360  178.0390  143.1750 N   0  0  0  0  0  0  0  0  0  0  0  0
  190.7750  176.5060  144.8170 C   0  0  1  0  0  3  0  0  0  0  0  0
  189.9140  177.5730  145.1850 O   0  0  0  0  0  0  0  0  0  0  0  0
  191.2070  178.0290  142.8080 C   0  0  2  0  0  3  0  0  0  0  0  0
  190.6400  178.7780  145.1640 C   0  0  0  0  0  2  0  0  0  0  0  0
  191.6710  176.7930  143.5960 C   0  0  0  0  0  2  0  0  0  0  0  0
  190.8780  179.2200  143.7210 C   0  0  0  0  0  2  0  0  0  0  0  0
  191.6060  176.0370  145.9990 C   0  0  0  0  0  1  0  0  0  0  0  0
  190.0950  177.1270  138.0300 C   0  0  0  0  0  2  0  0  0  0  0  0
  191.5540  176.7170  138.0760 C   0  0  0  0  0  2  0  0  0  0  0  0
  191.6780  175.2140  137.8730 C   0  0  0  0  0  2  0  0  0  0  0  0
  194.4260  174.0270  138.4250 F   0  0  0  0  0  0  0  0  0  0  0  0
  192.7920  174.8650  136.8900 C   0  0  2  0  0  3  0  0  0  0  0  0
  194.1880  175.0380  137.5110 C   0  0  2  0  0  3  0  0  0  0  0  0
  195.0340  176.1770  135.4730 C   0  0  0  0  0  2  0  0  0  0  0  0
  193.6340  176.1630  134.9200 C   0  0  0  0  0  3  0  0  0  0  0  0
  192.6100  175.6060  135.5830 C   0  0  0  0  0  3  0  0  0  0  0  0
  195.2630  175.0110  136.4300 C   0  0  0  0  0  2  0  0  0  0  0  0
  1 10  2  0  0  0  0
  1 12  1  0  0  0  0
  2  6  1  0  0  0  0
  2  8  1  0  0  0  0
  4 14  1  6  0  0  0
  4 15  1  0  0  0  0
  7 13  2  0  0  0  0
  7 16  1  0  0  0  0
  8  3  1  6  0  0  0
  8  1  1  0  0  0  0
  9 25  1  6  0  0  0
  9 16  1  0  0  0  0
  9  4  1  0  0  0  0
 11  3  1  6  0  0  0
 11 17  1  0  0  0  0
 12  5  1  0  0  0  0
 13  2  1  0  0  0  0
 15 14  1  1  0  0  0
 15 11  1  0  0  0  0
 15 20  1  0  0  0  0
 16  3  2  0  0  0  0
 17 12  2  0  0  0  0
 18 19  1  0  0  0  0
 18 24  1  1  0  0  0
 20 22  1  1  0  0  0
 20 23  1  0  0  0  0
 21 19  1  0  0  0  0
 22 18  1  0  0  0  0
 23 21  1  0  0  0  0
 25 26  1  0  0  0  0
 27 26  1  0  0  0  0
 29 30  1  0  0  0  0
 29 27  1  1  0  0  0
 30 28  1  1  0  0  0
 31 34  1  0  0  0  0
 32 31  1  0  0  0  0
 32 33  2  0  0  0  0
 33 29  1  0  0  0  0
 34 30  1  0  0  0  0
M  END
>  <MODEL>
5

>  <REMARK>
 VINA RESULT:      -8.1      2.796      7.875
  Name = 
  5 active torsions:
  status: ('A' for Active; 'I' for Inactive)
    1  A    between atoms: C_3  and  C_13
    2  A    between atoms: C_3  and  C_17
    3  A    between atoms: C_12  and  C_28
    4  A    between atoms: C_17  and  C_29
    5  A    between atoms: C_18  and  C_29
                            x       y       z     vdW  Elec       q    Type
                         _______ _______ _______ _____ _____    ______ ____

>  <TORSDO>
F 5

$$$$
=
 OpenBabel10262423463D

 34 39  0  0  1  0  0  0  0  0999 V2000
  187.4130  177.7060  137.0980 C   0  0  0  0  0  0  0  0  0  0  0  0
  186.5020  178.3770  139.3150 N   0  0  0  0  0  0  0  0  0  0  0  0
  188.6490  177.1070  139.1700 C   0  0  0  0  0  0  0  0  0  0  0  0
  191.3220  176.5090  140.2950 N   0  0  2  0  0  0  0  0  0  0  0  0
  188.7340  177.5650  134.8970 C   0  0  0  0  0  1  0  0  0  0  0  0
  185.1280  178.6590  138.9310 C   0  0  0  0  0  1  0  0  0  0  0  0
  188.0170  178.3440  141.1730 C   0  0  0  0  0  3  0  0  0  0  0  0
  187.2820  177.3770  138.5660 C   0  0  2  0  0  3  0  0  0  0  0  0
  190.1670  176.9020  141.1250 C   0  0  2  0  0  3  0  0  0  0  0  0
  186.4740  178.2830  136.4830 O   0  0  0  0  0  0  0  0  0  0  0  0
  189.5960  176.2580  138.3660 C   0  0  2  0  0  3  0  0  0  0  0  0
  188.6050  177.2610  136.3500 C   0  0  0  0  0  0  0  0  0  0  0  0
  186.8780  178.7650  140.6390 C   0  0  0  0  0  3  0  0  0  0  0  0
  191.6150  177.5460  139.2770 C   0  0  0  0  0  2  0  0  0  0  0  0
  191.0570  176.2550  138.8590 C   0  0  1  0  0  0  0  0  0  0  0  0
  188.9500  177.4810  140.4210 C   0  0  0  0  0  0  0  0  0  0  0  0
  189.5790  176.6430  136.9490 N   0  0  0  0  0  0  0  0  0  0  0  0
  193.1520  176.3750  136.2050 C   0  0  1  0  0  3  0  0  0  0  0  0
  191.9720  175.9310  135.5550 O   0  0  0  0  0  0  0  0  0  0  0  0
  192.0340  175.2510  138.2130 C   0  0  2  0  0  3  0  0  0  0  0  0
  191.8110  174.5530  135.7840 C   0  0  0  0  0  2  0  0  0  0  0  0
  193.3310  175.8530  137.6450 C   0  0  0  0  0  2  0  0  0  0  0  0
  191.3360  174.3130  137.2170 C   0  0  0  0  0  2  0  0  0  0  0  0
  194.3860  176.0820  135.3680 C   0  0  0  0  0  1  0  0  0  0  0  0
  190.6520  177.7230  142.3180 C   0  0  0  0  0  2  0  0  0  0  0  0
  191.4840  176.8580  143.2450 C   0  0  0  0  0  2  0  0  0  0  0  0
  190.5890  176.2090  144.2910 C   0  0  0  0  0  2  0  0  0  0  0  0
  191.6780  177.0660  147.0010 F   0  0  0  0  0  0  0  0  0  0  0  0
  190.0310  177.2340  145.2730 C   0  0  2  0  0  3  0  0  0  0  0  0
  190.3360  176.8630  146.7350 C   0  0  2  0  0  3  0  0  0  0  0  0
  188.0180  177.4130  147.4360 C   0  0  0  0  0  2  0  0  0  0  0  0
  187.6600  177.6180  145.9880 C   0  0  0  0  0  3  0  0  0  0  0  0
  188.5640  177.4950  145.0050 C   0  0  0  0  0  3  0  0  0  0  0  0
  189.4940  177.7040  147.6880 C   0  0  0  0  0  2  0  0  0  0  0  0
  2 13  1  0  0  0  0
  3 16  2  0  0  0  0
  4 14  1  6  0  0  0
  4  9  1  0  0  0  0
  5 12  1  0  0  0  0
  6  2  1  0  0  0  0
  8  1  1  6  0  0  0
  8  3  1  0  0  0  0
  8  2  1  0  0  0  0
  9 25  1  1  0  0  0
 10  1  2  0  0  0  0
 11 17  1  6  0  0  0
 11 15  1  0  0  0  0
 11  3  1  0  0  0  0
 12 17  2  0  0  0  0
 12  1  1  0  0  0  0
 13  7  2  0  0  0  0
 15 14  1  6  0  0  0
 15  4  1  0  0  0  0
 16  9  1  0  0  0  0
 16  7  1  0  0  0  0
 18 24  1  6  0  0  0
 18 22  1  0  0  0  0
 19 21  1  0  0  0  0
 19 18  1  0  0  0  0
 20 23  1  6  0  0  0
 20 15  1  0  0  0  0
 21 23  1  0  0  0  0
 22 20  1  0  0  0  0
 25 26  1  0  0  0  0
 26 27  1  0  0  0  0
 29 27  1  6  0  0  0
 29 30  1  0  0  0  0
 30 28  1  1  0  0  0
 30 34  1  0  0  0  0
 31 34  1  0  0  0  0
 32 31  1  0  0  0  0
 33 29  1  0  0  0  0
 33 32  2  0  0  0  0
M  END
>  <MODEL>
6

>  <REMARK>
 VINA RESULT:      -8.1      2.293      5.761
  Name = 
  5 active torsions:
  status: ('A' for Active; 'I' for Inactive)
    1  A    between atoms: C_3  and  C_13
    2  A    between atoms: C_3  and  C_17
    3  A    between atoms: C_12  and  C_28
    4  A    between atoms: C_17  and  C_29
    5  A    between atoms: C_18  and  C_29
                            x       y       z     vdW  Elec       q    Type
                         _______ _______ _______ _____ _____    ______ ____

>  <TORSDO>
F 5

$$$$
=
 OpenBabel10262423463D

 34 39  0  0  1  0  0  0  0  0999 V2000
  185.8860  178.2800  142.8510 C   0  0  0  0  0  0  0  0  0  0  0  0
  185.2670  178.5790  140.4590 N   0  0  0  0  0  0  0  0  0  0  0  0
  187.6690  178.4070  141.1240 C   0  0  0  0  0  0  0  0  0  0  0  0
  190.4350  177.5920  140.4490 N   0  0  2  0  0  0  0  0  0  0  0  0
  186.5730  177.3220  145.1360 C   0  0  0  0  0  1  0  0  0  0  0  0
  183.9010  179.0490  140.6250 C   0  0  0  0  0  1  0  0  0  0  0  0
  186.9410  178.0570  138.8250 C   0  0  0  0  0  3  0  0  0  0  0  0
  186.2670  178.8490  141.5060 C   0  0  2  0  0  3  0  0  0  0  0  0
  189.4570  178.0390  139.4390 C   0  0  2  0  0  3  0  0  0  0  0  0
  184.6770  178.2320  143.2090 O   0  0  0  0  0  0  0  0  0  0  0  0
  188.7180  178.4530  142.2030 C   0  0  2  0  0  3  0  0  0  0  0  0
  186.9400  177.8680  143.7990 C   0  0  0  0  0  0  0  0  0  0  0  0
  185.6650  178.2590  139.1240 C   0  0  0  0  0  3  0  0  0  0  0  0
  189.9180  176.4230  141.2010 C   0  0  0  0  0  2  0  0  0  0  0  0
  190.0350  177.7240  141.8710 C   0  0  1  0  0  0  0  0  0  0  0  0
  187.9960  178.1300  139.8550 C   0  0  0  0  0  0  0  0  0  0  0  0
  188.1960  177.9270  143.4700 N   0  0  0  0  0  0  0  0  0  0  0  0
  190.7710  176.5350  144.9520 C   0  0  1  0  0  3  0  0  0  0  0  0
  190.0560  177.7060  145.3150 O   0  0  0  0  0  0  0  0  0  0  0  0
  191.2230  177.9040  142.8390 C   0  0  2  0  0  3  0  0  0  0  0  0
  190.9030  178.8210  145.1820 C   0  0  0  0  0  2  0  0  0  0  0  0
  191.6070  176.6630  143.6620 C   0  0  0  0  0  2  0  0  0  0  0  0
  191.0860  179.1660  143.7040 C   0  0  0  0  0  2  0  0  0  0  0  0
  191.6280  176.0330  146.1020 C   0  0  0  0  0  1  0  0  0  0  0  0
  189.6920  177.2840  138.1320 C   0  0  0  0  0  2  0  0  0  0  0  0
  189.3550  178.1700  136.9490 C   0  0  0  0  0  2  0  0  0  0  0  0
  189.5430  177.3970  135.6520 C   0  0  0  0  0  2  0  0  0  0  0  0
  187.0460  178.7700  134.5820 F   0  0  0  0  0  0  0  0  0  0  0  0
  188.2360  176.7780  135.1670 C   0  0  2  0  0  3  0  0  0  0  0  0
  187.0260  177.6870  135.4420 C   0  0  2  0  0  3  0  0  0  0  0  0
  185.6800  175.7700  136.2670 C   0  0  0  0  0  2  0  0  0  0  0  0
  186.9050  174.9020  136.1600 C   0  0  0  0  0  3  0  0  0  0  0  0
  188.0750  175.3710  135.7010 C   0  0  0  0  0  3  0  0  0  0  0  0
  185.7230  176.9150  135.2600 C   0  0  0  0  0  2  0  0  0  0  0  0
  1 10  2  0  0  0  0
  1 12  1  0  0  0  0
  2  6  1  0  0  0  0
  2  8  1  0  0  0  0
  4 14  1  6  0  0  0
  4 15  1  0  0  0  0
  7 13  2  0  0  0  0
  7 16  1  0  0  0  0
  8  3  1  6  0  0  0
  8  1  1  0  0  0  0
  9 25  1  6  0  0  0
  9 16  1  0  0  0  0
  9  4  1  0  0  0  0
 11  3  1  6  0  0  0
 11 17  1  0  0  0  0
 12  5  1  0  0  0  0
 13  2  1  0  0  0  0
 15 14  1  1  0  0  0
 15 11  1  0  0  0  0
 15 20  1  0  0  0  0
 16  3  2  0  0  0  0
 17 12  2  0  0  0  0
 18 19  1  0  0  0  0
 18 24  1  1  0  0  0
 20 22  1  1  0  0  0
 20 23  1  0  0  0  0
 21 19  1  0  0  0  0
 22 18  1  0  0  0  0
 23 21  1  0  0  0  0
 26 25  1  0  0  0  0
 27 26  1  0  0  0  0
 29 30  1  0  0  0  0
 29 27  1  1  0  0  0
 29 33  1  0  0  0  0
 30 28  1  6  0  0  0
 32 31  1  0  0  0  0
 33 32  2  0  0  0  0
 34 30  1  0  0  0  0
 34 31  1  0  0  0  0
M  END
>  <MODEL>
7

>  <REMARK>
 VINA RESULT:      -7.8      2.856      7.636
  Name = 
  5 active torsions:
  status: ('A' for Active; 'I' for Inactive)
    1  A    between atoms: C_3  and  C_13
    2  A    between atoms: C_3  and  C_17
    3  A    between atoms: C_12  and  C_28
    4  A    between atoms: C_17  and  C_29
    5  A    between atoms: C_18  and  C_29
                            x       y       z     vdW  Elec       q    Type
                         _______ _______ _______ _____ _____    ______ ____

>  <TORSDO>
F 5

$$$$
=
 OpenBabel10262423463D

 34 39  0  0  1  0  0  0  0  0999 V2000
  181.0730  178.9250  140.5750 C   0  0  0  0  0  0  0  0  0  0  0  0
  182.1580  178.8640  142.8150 N   0  0  0  0  0  0  0  0  0  0  0  0
  183.4680  178.2880  140.7660 C   0  0  0  0  0  0  0  0  0  0  0  0
  186.0690  178.2350  139.3510 N   0  0  2  0  0  0  0  0  0  0  0  0
  180.2500  179.5950  138.2330 C   0  0  0  0  0  1  0  0  0  0  0  0
  180.9710  178.8280  143.6520 C   0  0  0  0  0  1  0  0  0  0  0  0
  184.5550  178.8770  142.8670 C   0  0  0  0  0  3  0  0  0  0  0  0
  182.1170  178.2870  141.4600 C   0  0  2  0  0  3  0  0  0  0  0  0
  185.9460  178.1210  140.8170 C   0  0  2  0  0  3  0  0  0  0  0  0
  179.9820  179.3330  141.0620 O   0  0  0  0  0  0  0  0  0  0  0  0
  183.4880  177.9100  139.3090 C   0  0  2  0  0  3  0  0  0  0  0  0
  181.2840  178.9840  139.1160 C   0  0  0  0  0  0  0  0  0  0  0  0
  183.4010  179.0670  143.4920 C   0  0  0  0  0  3  0  0  0  0  0  0
  185.4530  179.4940  138.8680 C   0  0  0  0  0  2  0  0  0  0  0  0
  184.8080  178.2100  138.5710 C   0  0  1  0  0  0  0  0  0  0  0  0
  184.6070  178.4720  141.4470 C   0  0  0  0  0  0  0  0  0  0  0  0
  182.3870  178.5510  138.5810 N   0  0  0  0  0  0  0  0  0  0  0  0
  185.7970  175.2450  137.2740 C   0  0  1  0  0  3  0  0  0  0  0  0
  187.0560  175.8920  137.3740 O   0  0  0  0  0  0  0  0  0  0  0  0
  184.9730  177.6630  137.1370 C   0  0  2  0  0  3  0  0  0  0  0  0
  187.2000  176.7860  136.2970 C   0  0  0  0  0  2  0  0  0  0  0  0
  184.6160  176.1800  136.9430 C   0  0  0  0  0  2  0  0  0  0  0  0
  186.3360  178.0250  136.5270 C   0  0  0  0  0  2  0  0  0  0  0  0
  185.8510  174.0800  136.3000 C   0  0  0  0  0  1  0  0  0  0  0  0
  187.1470  178.7880  141.4840 C   0  0  0  0  0  2  0  0  0  0  0  0
  188.2200  177.7580  141.7780 C   0  0  0  0  0  2  0  0  0  0  0  0
  187.8470  176.9610  143.0190 C   0  0  0  0  0  2  0  0  0  0  0  0
  190.6220  177.2840  144.2290 F   0  0  0  0  0  0  0  0  0  0  0  0
  188.2620  177.6790  144.3000 C   0  0  2  0  0  3  0  0  0  0  0  0
  189.4810  177.0180  144.9660 C   0  0  2  0  0  3  0  0  0  0  0  0
  188.4290  177.1720  147.2110 C   0  0  0  0  0  2  0  0  0  0  0  0
  187.1670  177.6640  146.5530 C   0  0  0  0  0  3  0  0  0  0  0  0
  187.0800  177.8520  145.2280 C   0  0  0  0  0  3  0  0  0  0  0  0
  189.6610  177.5380  146.3890 C   0  0  0  0  0  2  0  0  0  0  0  0
  1 10  2  0  0  0  0
  2 13  1  0  0  0  0
  2  6  1  0  0  0  0
  3 16  2  0  0  0  0
  3  8  1  0  0  0  0
  4 14  1  1  0  0  0
  4  9  1  0  0  0  0
  5 12  1  0  0  0  0
  7 13  2  0  0  0  0
  8  1  1  6  0  0  0
  8  2  1  0  0  0  0
  9 16  1  0  0  0  0
  9 25  1  1  0  0  0
 11 17  1  6  0  0  0
 11  3  1  0  0  0  0
 12  1  1  0  0  0  0
 15 14  1  6  0  0  0
 15 11  1  0  0  0  0
 15  4  1  0  0  0  0
 16  7  1  0  0  0  0
 17 12  2  0  0  0  0
 18 24  1  6  0  0  0
 18 19  1  0  0  0  0
 20 23  1  1  0  0  0
 20 15  1  0  0  0  0
 21 23  1  0  0  0  0
 21 19  1  0  0  0  0
 22 20  1  0  0  0  0
 22 18  1  0  0  0  0
 25 26  1  0  0  0  0
 26 27  1  0  0  0  0
 29 27  1  6  0  0  0
 29 30  1  0  0  0  0
 29 33  1  0  0  0  0
 30 28  1  6  0  0  0
 30 34  1  0  0  0  0
 32 31  1  0  0  0  0
 33 32  2  0  0  0  0
 34 31  1  0  0  0  0
M  END
>  <MODEL>
8

>  <REMARK>
 VINA RESULT:      -7.8      2.343      6.182
  Name = 
  5 active torsions:
  status: ('A' for Active; 'I' for Inactive)
    1  A    between atoms: C_3  and  C_13
    2  A    between atoms: C_3  and  C_17
    3  A    between atoms: C_12  and  C_28
    4  A    between atoms: C_17  and  C_29
    5  A    between atoms: C_18  and  C_29
                            x       y       z     vdW  Elec       q    Type
                         _______ _______ _______ _____ _____    ______ ____

>  <TORSDO>
F 5

$$$$
=
 OpenBabel10262423463D

 34 39  0  0  1  0  0  0  0  0999 V2000
  187.1140  177.8490  145.9870 C   0  0  0  0  0  0  0  0  0  0  0  0
  189.4390  177.6580  145.1180 N   0  0  0  0  0  0  0  0  0  0  0  0
  187.5050  177.6800  143.5380 C   0  0  0  0  0  0  0  0  0  0  0  0
  186.4180  178.3680  140.8700 N   0  0  2  0  0  0  0  0  0  0  0  0
  184.8000  178.6960  146.7210 C   0  0  0  0  0  1  0  0  0  0  0  0
  190.1160  177.2560  146.3410 C   0  0  0  0  0  1  0  0  0  0  0  0
  189.7800  178.1410  142.7950 C   0  0  0  0  0  3  0  0  0  0  0  0
  188.0240  177.3020  144.9140 C   0  0  2  0  0  3  0  0  0  0  0  0
  187.8300  178.0050  141.0960 C   0  0  2  0  0  3  0  0  0  0  0  0
  187.5160  177.9490  147.1790 O   0  0  0  0  0  0  0  0  0  0  0  0
  186.0230  177.5450  143.3060 C   0  0  2  0  0  3  0  0  0  0  0  0
  185.7110  178.1740  145.6630 C   0  0  0  0  0  0  0  0  0  0  0  0
  190.2820  177.9980  144.0150 C   0  0  0  0  0  3  0  0  0  0  0  0
  186.0360  179.5380  141.6960 C   0  0  0  0  0  2  0  0  0  0  0  0
  185.4950  178.2130  142.0210 C   0  0  1  0  0  0  0  0  0  0  0  0
  188.3360  177.9800  142.5310 C   0  0  0  0  0  0  0  0  0  0  0  0
  185.2600  178.0580  144.4500 N   0  0  0  0  0  0  0  0  0  0  0  0
  183.7990  178.3180  139.0950 C   0  0  1  0  0  3  0  0  0  0  0  0
  183.6290  179.6620  139.5160 O   0  0  0  0  0  0  0  0  0  0  0  0
  184.0320  177.9400  141.6140 C   0  0  2  0  0  3  0  0  0  0  0  0
  182.6120  179.7140  140.4870 C   0  0  0  0  0  2  0  0  0  0  0  0
  183.8330  177.2830  140.2370 C   0  0  0  0  0  2  0  0  0  0  0  0
  183.1310  179.1670  141.8160 C   0  0  0  0  0  2  0  0  0  0  0  0
  182.7670  177.9330  138.0490 C   0  0  0  0  0  1  0  0  0  0  0  0
  188.7190  178.7870  140.1310 C   0  0  0  0  0  2  0  0  0  0  0  0
  189.4280  177.8360  139.1880 C   0  0  0  0  0  2  0  0  0  0  0  0
  189.4620  178.4260  137.7850 C   0  0  0  0  0  2  0  0  0  0  0  0
  187.1060  179.5530  136.2210 F   0  0  0  0  0  0  0  0  0  0  0  0
  188.4970  177.7080  136.8460 C   0  0  2  0  0  3  0  0  0  0  0  0
  187.0910  178.3320  136.8720 C   0  0  2  0  0  3  0  0  0  0  0  0
  186.0190  176.0940  136.9700 C   0  0  0  0  0  2  0  0  0  0  0  0
  187.3860  175.4790  137.1140 C   0  0  0  0  0  3  0  0  0  0  0  0
  188.5060  176.2160  137.1000 C   0  0  0  0  0  3  0  0  0  0  0  0
  186.0820  177.4080  136.1980 C   0  0  0  0  0  2  0  0  0  0  0  0
  1 10  2  0  0  0  0
  2  6  1  0  0  0  0
  4  9  1  0  0  0  0
  4 14  1  1  0  0  0
  4 15  1  0  0  0  0
  7 13  2  0  0  0  0
  8  3  1  6  0  0  0
  8  2  1  0  0  0  0
  8  1  1  0  0  0  0
  9 25  1  6  0  0  0
  9 16  1  0  0  0  0
 11  3  1  1  0  0  0
 11 17  1  0  0  0  0
 12  1  1  0  0  0  0
 12  5  1  0  0  0  0
 13  2  1  0  0  0  0
 15 14  1  1  0  0  0
 15 11  1  0  0  0  0
 16  7  1  0  0  0  0
 16  3  2  0  0  0  0
 17 12  2  0  0  0  0
 18 24  1  6  0  0  0
 18 19  1  0  0  0  0
 18 22  1  0  0  0  0
 19 21  1  0  0  0  0
 20 22  1  6  0  0  0
 20 23  1  0  0  0  0
 20 15  1  0  0  0  0
 21 23  1  0  0  0  0
 26 25  1  0  0  0  0
 27 26  1  0  0  0  0
 29 30  1  0  0  0  0
 29 33  1  0  0  0  0
 29 27  1  1  0  0  0
 30 28  1  6  0  0  0
 31 32  1  0  0  0  0
 33 32  2  0  0  0  0
 34 30  1  0  0  0  0
 34 31  1  0  0  0  0
M  END
>  <MODEL>
9

>  <REMARK>
 VINA RESULT:      -7.8      2.693      6.902
  Name = 
  5 active torsions:
  status: ('A' for Active; 'I' for Inactive)
    1  A    between atoms: C_3  and  C_13
    2  A    between atoms: C_3  and  C_17
    3  A    between atoms: C_12  and  C_28
    4  A    between atoms: C_17  and  C_29
    5  A    between atoms: C_18  and  C_29
                            x       y       z     vdW  Elec       q    Type
                         _______ _______ _______ _____ _____    ______ ____

>  <TORSDO>
F 5

$$$$
