=
 OpenBabel10272401463D

 28 31  0  0  1  0  0  0  0  0999 V2000
  183.8210  179.1460  139.9320 C   0  0  2  0  0  3  0  0  0  0  0  0
  187.0930  177.2710  137.8460 C   0  0  0  0  0  1  0  0  0  0  0  0
  186.3260  178.2740  142.6950 C   0  0  0  0  0  0  0  0  0  0  0  0
  186.2860  178.4020  139.8750 N   0  0  0  0  0  0  0  0  0  0  0  0
  185.1180  178.7080  141.9590 C   0  0  0  0  0  3  0  0  0  0  0  0
  184.9100  178.4220  137.7950 C   0  0  0  0  0  2  0  0  0  0  0  0
  187.5860  178.4160  140.5560 C   0  0  0  0  0  2  0  0  0  0  0  0
  186.3070  178.4440  138.4050 C   0  0  2  0  0  3  0  0  0  0  0  0
  187.4660  178.0930  142.0190 C   0  0  0  0  0  3  0  0  0  0  0  0
  184.0370  179.4750  138.4540 C   0  0  0  0  0  2  0  0  0  0  0  0
  185.1030  178.7660  140.6250 C   0  0  0  0  0  0  0  0  0  0  0  0
  185.2680  178.5940  144.8560 C   0  0  0  0  0  3  0  0  0  0  0  0
  187.8010  177.3460  146.0260 C   0  0  0  0  0  3  0  0  0  0  0  0
  186.2060  178.9280  147.0980 C   0  0  0  0  0  0  0  0  0  0  0  0
  186.2630  178.0240  144.1610 C   0  0  0  0  0  0  0  0  0  0  0  0
  187.7730  176.0960  144.0980 F   0  0  0  0  0  0  0  0  0  0  0  0
  187.4240  178.3990  146.9890 C   0  0  0  0  0  3  0  0  0  0  0  0
  187.2710  177.1340  144.8130 C   0  0  0  0  0  0  0  0  0  0  0  0
  185.9900  179.9030  148.0120 F   0  0  0  0  0  0  0  0  0  0  0  0
  185.0490  178.3990  146.3190 C   0  0  0  0  0  2  0  0  0  0  0  0
  182.6910  178.1270  140.1770 C   0  0  2  0  0  3  0  0  0  0  0  0
  183.0210  176.7500  139.6760 C   0  0  0  0  0  3  0  0  0  0  0  0
  180.3030  177.5830  139.4550 N   0  0  0  0  0  0  0  0  0  0  0  0
  182.0460  175.8490  139.5920 C   0  0  0  0  0  3  0  0  0  0  0  0
  180.7910  179.7350  140.5080 C   0  0  0  0  0  1  0  0  0  0  0  0
  181.3370  178.6260  139.6260 C   0  0  1  0  0  3  0  0  0  0  0  0
  179.9820  177.4220  137.7220 S   0  0  0  0  0  1  0  0  0  0  0  0
  180.6580  176.2590  139.9930 C   0  0  0  0  0  2  0  0  0  0  0  0
  1 10  1  6  0  0  0
  1 21  1  0  0  0  0
  1 11  1  0  0  0  0
  3 15  1  0  0  0  0
  4  7  1  0  0  0  0
  4 11  1  0  0  0  0
  5  3  1  0  0  0  0
  6  8  1  0  0  0  0
  6 10  1  0  0  0  0
  7  9  1  0  0  0  0
  8  2  1  6  0  0  0
  8  4  1  0  0  0  0
  9  3  2  0  0  0  0
 11  5  2  0  0  0  0
 12 20  1  0  0  0  0
 13 17  1  0  0  0  0
 14 19  1  0  0  0  0
 15 18  1  0  0  0  0
 15 12  2  0  0  0  0
 16 18  1  0  0  0  0
 17 14  2  0  0  0  0
 18 13  2  0  0  0  0
 20 14  1  0  0  0  0
 21 22  1  6  0  0  0
 23 26  1  0  0  0  0
 23 28  1  0  0  0  0
 24 22  2  0  0  0  0
 24 28  1  0  0  0  0
 26 21  1  0  0  0  0
 26 25  1  1  0  0  0
 27 23  1  0  0  0  0
M  END
>  <MODEL>
1

>  <REMARK>
 VINA RESULT:      -8.4      0.000      0.000
  Name = 
  2 active torsions:
  status: ('A' for Active; 'I' for Inactive)
    1  A    between atoms: C_1  and  C_2
    2  A    between atoms: C_10  and  C_13
                            x       y       z     vdW  Elec       q    Type
                         _______ _______ _______ _____ _____    ______ ____

>  <TORSDO>
F 2

$$$$
=
 OpenBabel10272401463D

 28 31  0  0  1  0  0  0  0  0999 V2000
  188.1840  177.9640  138.1750 C   0  0  2  0  0  3  0  0  0  0  0  0
  191.9420  175.9280  137.6250 C   0  0  0  0  0  1  0  0  0  0  0  0
  189.3950  177.2380  141.7360 C   0  0  0  0  0  0  0  0  0  0  0  0
  190.4530  177.1910  139.1190 N   0  0  0  0  0  0  0  0  0  0  0  0
  188.5810  177.6390  140.5680 C   0  0  0  0  0  3  0  0  0  0  0  0
  189.9890  177.0980  136.6700 C   0  0  0  0  0  2  0  0  0  0  0  0
  191.3880  177.2330  140.2490 C   0  0  0  0  0  2  0  0  0  0  0  0
  191.0420  177.1420  137.7720 C   0  0  2  0  0  3  0  0  0  0  0  0
  190.7010  177.0030  141.5660 C   0  0  0  0  0  3  0  0  0  0  0  0
  188.9660  178.1990  136.8820 C   0  0  0  0  0  2  0  0  0  0  0  0
  189.0850  177.6140  139.3310 C   0  0  0  0  0  0  0  0  0  0  0  0
  187.4390  177.2750  143.1720 C   0  0  0  0  0  3  0  0  0  0  0  0
  189.4240  177.1620  145.4940 C   0  0  0  0  0  3  0  0  0  0  0  0
  187.1130  178.0860  145.4640 C   0  0  0  0  0  0  0  0  0  0  0  0
  188.7620  177.0810  143.0740 C   0  0  0  0  0  0  0  0  0  0  0  0
  190.6560  175.8700  144.0480 F   0  0  0  0  0  0  0  0  0  0  0  0
  188.3470  178.0530  145.9660 C   0  0  0  0  0  3  0  0  0  0  0  0
  189.5910  176.6840  144.2520 C   0  0  0  0  0  0  0  0  0  0  0  0
  186.2170  178.9640  145.9740 F   0  0  0  0  0  0  0  0  0  0  0  0
  186.6600  177.1080  144.4340 C   0  0  0  0  0  2  0  0  0  0  0  0
  187.0140  176.9750  138.0170 C   0  0  2  0  0  3  0  0  0  0  0  0
  187.3890  175.7350  137.2560 C   0  0  0  0  0  3  0  0  0  0  0  0
  184.7460  176.7340  136.8660 N   0  0  0  0  0  0  0  0  0  0  0  0
  186.4210  174.9280  136.8300 C   0  0  0  0  0  3  0  0  0  0  0  0
  185.1130  178.5580  138.4530 C   0  0  0  0  0  1  0  0  0  0  0  0
  185.7620  177.6560  137.4180 C   0  0  1  0  0  3  0  0  0  0  0  0
  184.6780  176.9930  135.1170 S   0  0  0  0  0  1  0  0  0  0  0  0
  184.9970  175.3050  137.1210 C   0  0  0  0  0  2  0  0  0  0  0  0
  1 10  1  6  0  0  0
  1 11  1  0  0  0  0
  3 15  1  0  0  0  0
  4 11  1  0  0  0  0
  4  7  1  0  0  0  0
  5  3  1  0  0  0  0
  6 10  1  0  0  0  0
  6  8  1  0  0  0  0
  7  9  1  0  0  0  0
  8  2  1  1  0  0  0
  8  4  1  0  0  0  0
  9  3  2  0  0  0  0
 11  5  2  0  0  0  0
 12 20  1  0  0  0  0
 13 17  1  0  0  0  0
 14 17  2  0  0  0  0
 14 19  1  0  0  0  0
 15 12  2  0  0  0  0
 15 18  1  0  0  0  0
 16 18  1  0  0  0  0
 18 13  2  0  0  0  0
 20 14  1  0  0  0  0
 21 22  1  6  0  0  0
 21  1  1  0  0  0  0
 23 28  1  0  0  0  0
 23 26  1  0  0  0  0
 24 28  1  0  0  0  0
 24 22  2  0  0  0  0
 26 21  1  0  0  0  0
 26 25  1  1  0  0  0
 27 23  1  0  0  0  0
M  END
>  <MODEL>
2

>  <REMARK>
 VINA RESULT:      -8.3      2.868      4.180
  Name = 
  2 active torsions:
  status: ('A' for Active; 'I' for Inactive)
    1  A    between atoms: C_1  and  C_2
    2  A    between atoms: C_10  and  C_13
                            x       y       z     vdW  Elec       q    Type
                         _______ _______ _______ _____ _____    ______ ____

>  <TORSDO>
F 2

$$$$
=
 OpenBabel10272401463D

 28 31  0  0  1  0  0  0  0  0999 V2000
  188.5540  177.5720  137.5930 C   0  0  2  0  0  3  0  0  0  0  0  0
  192.1220  175.1540  137.5890 C   0  0  0  0  0  1  0  0  0  0  0  0
  189.7630  177.6670  141.2260 C   0  0  0  0  0  0  0  0  0  0  0  0
  190.7670  176.8740  138.7100 N   0  0  0  0  0  0  0  0  0  0  0  0
  188.9650  177.8280  139.9920 C   0  0  0  0  0  3  0  0  0  0  0  0
  190.2550  176.2060  136.3620 C   0  0  0  0  0  2  0  0  0  0  0  0
  191.7230  177.1200  139.7960 C   0  0  0  0  0  2  0  0  0  0  0  0
  191.3270  176.4380  137.4210 C   0  0  2  0  0  3  0  0  0  0  0  0
  191.0430  177.2890  141.1260 C   0  0  0  0  0  3  0  0  0  0  0  0
  189.3300  177.4070  136.2860 C   0  0  0  0  0  2  0  0  0  0  0  0
  189.4430  177.4500  138.8030 C   0  0  0  0  0  0  0  0  0  0  0  0
  189.9550  178.0250  143.6190 C   0  0  0  0  0  3  0  0  0  0  0  0
  186.9350  177.5560  143.7000 C   0  0  0  0  0  3  0  0  0  0  0  0
  188.6150  177.2050  145.5040 C   0  0  0  0  0  0  0  0  0  0  0  0
  189.1440  177.9060  142.5580 C   0  0  0  0  0  0  0  0  0  0  0  0
  186.9740  178.5870  141.6480 F   0  0  0  0  0  0  0  0  0  0  0  0
  187.4460  176.9220  144.9320 C   0  0  0  0  0  3  0  0  0  0  0  0
  187.6600  178.0390  142.6810 C   0  0  0  0  0  0  0  0  0  0  0  0
  188.9790  176.5400  146.6250 F   0  0  0  0  0  0  0  0  0  0  0  0
  189.4840  178.3110  145.0060 C   0  0  0  0  0  2  0  0  0  0  0  0
  187.3030  176.6770  137.6850 C   0  0  2  0  0  3  0  0  0  0  0  0
  187.4360  175.3980  136.9080 C   0  0  0  0  0  3  0  0  0  0  0  0
  184.8500  176.5980  136.9820 N   0  0  0  0  0  0  0  0  0  0  0  0
  186.3470  174.6640  136.6940 C   0  0  0  0  0  3  0  0  0  0  0  0
  185.6430  178.4140  138.4140 C   0  0  0  0  0  1  0  0  0  0  0  0
  186.0170  177.4450  137.3070 C   0  0  1  0  0  3  0  0  0  0  0  0
  184.4750  176.8310  135.2680 S   0  0  0  0  0  1  0  0  0  0  0  0
  185.0350  175.1580  137.2320 C   0  0  0  0  0  2  0  0  0  0  0  0
  1 10  1  6  0  0  0
  1 21  1  0  0  0  0
  1 11  1  0  0  0  0
  3 15  1  0  0  0  0
  4 11  1  0  0  0  0
  4  7  1  0  0  0  0
  5  3  1  0  0  0  0
  6  8  1  0  0  0  0
  7  9  1  0  0  0  0
  8  2  1  1  0  0  0
  8  4  1  0  0  0  0
  9  3  2  0  0  0  0
 10  6  1  0  0  0  0
 11  5  2  0  0  0  0
 12 20  1  0  0  0  0
 13 17  1  0  0  0  0
 14 19  1  0  0  0  0
 15 18  1  0  0  0  0
 15 12  2  0  0  0  0
 16 18  1  0  0  0  0
 17 14  2  0  0  0  0
 18 13  2  0  0  0  0
 20 14  1  0  0  0  0
 21 22  1  6  0  0  0
 23 28  1  0  0  0  0
 23 26  1  0  0  0  0
 24 22  2  0  0  0  0
 24 28  1  0  0  0  0
 26 21  1  0  0  0  0
 26 25  1  1  0  0  0
 27 23  1  0  0  0  0
M  END
>  <MODEL>
3

>  <REMARK>
 VINA RESULT:      -7.9      3.137      4.728
  Name = 
  2 active torsions:
  status: ('A' for Active; 'I' for Inactive)
    1  A    between atoms: C_1  and  C_2
    2  A    between atoms: C_10  and  C_13
                            x       y       z     vdW  Elec       q    Type
                         _______ _______ _______ _____ _____    ______ ____

>  <TORSDO>
F 2

$$$$
=
 OpenBabel10272401463D

 28 31  0  0  1  0  0  0  0  0999 V2000
  186.9730  178.4350  138.1530 C   0  0  2  0  0  3  0  0  0  0  0  0
  190.4450  176.4490  136.5470 C   0  0  0  0  0  1  0  0  0  0  0  0
  188.9680  177.3720  141.2450 C   0  0  0  0  0  0  0  0  0  0  0  0
  189.3790  177.5700  138.4600 N   0  0  0  0  0  0  0  0  0  0  0  0
  187.9120  177.8840  140.3440 C   0  0  0  0  0  3  0  0  0  0  0  0
  188.3520  177.7100  136.1910 C   0  0  0  0  0  2  0  0  0  0  0  0
  190.5550  177.5020  139.3360 C   0  0  0  0  0  2  0  0  0  0  0  0
  189.6340  177.6470  137.0130 C   0  0  2  0  0  3  0  0  0  0  0  0
  190.1910  177.1510  140.7510 C   0  0  0  0  0  3  0  0  0  0  0  0
  187.4350  178.7880  136.7390 C   0  0  0  0  0  2  0  0  0  0  0  0
  188.1100  177.9750  139.0260 C   0  0  0  0  0  0  0  0  0  0  0  0
  187.4100  177.2980  143.1050 C   0  0  0  0  0  3  0  0  0  0  0  0
  189.8810  176.9130  144.8630 C   0  0  0  0  0  3  0  0  0  0  0  0
  187.6690  177.8770  145.4750 C   0  0  0  0  0  0  0  0  0  0  0  0
  188.6630  177.0910  142.6750 C   0  0  0  0  0  0  0  0  0  0  0  0
  190.6820  175.7540  143.0480 F   0  0  0  0  0  0  0  0  0  0  0  0
  188.9840  177.7710  145.6610 C   0  0  0  0  0  3  0  0  0  0  0  0
  189.7300  176.5620  143.5780 C   0  0  0  0  0  0  0  0  0  0  0  0
  186.9570  178.7150  146.2640 F   0  0  0  0  0  0  0  0  0  0  0  0
  186.9450  177.0170  144.4950 C   0  0  0  0  0  2  0  0  0  0  0  0
  185.7740  177.4680  138.1860 C   0  0  2  0  0  3  0  0  0  0  0  0
  185.6120  176.6870  136.9130 C   0  0  0  0  0  3  0  0  0  0  0  0
  183.2210  177.4570  138.2640 N   0  0  0  0  0  0  0  0  0  0  0  0
  184.4800  176.0150  136.7140 C   0  0  0  0  0  3  0  0  0  0  0  0
  184.4840  178.5220  140.0660 C   0  0  0  0  0  1  0  0  0  0  0  0
  184.4650  178.1870  138.5850 C   0  0  1  0  0  3  0  0  0  0  0  0
  182.3540  178.3850  137.0310 S   0  0  0  0  0  1  0  0  0  0  0  0
  183.4140  176.0830  137.7700 C   0  0  0  0  0  2  0  0  0  0  0  0
  1 10  1  6  0  0  0
  1 21  1  0  0  0  0
  1 11  1  0  0  0  0
  3 15  1  0  0  0  0
  4 11  1  0  0  0  0
  4  7  1  0  0  0  0
  5  3  1  0  0  0  0
  6 10  1  0  0  0  0
  6  8  1  0  0  0  0
  7  9  1  0  0  0  0
  8  2  1  6  0  0  0
  8  4  1  0  0  0  0
  9  3  2  0  0  0  0
 11  5  2  0  0  0  0
 12 20  1  0  0  0  0
 13 17  1  0  0  0  0
 14 17  2  0  0  0  0
 14 19  1  0  0  0  0
 15 12  2  0  0  0  0
 15 18  1  0  0  0  0
 16 18  1  0  0  0  0
 18 13  2  0  0  0  0
 20 14  1  0  0  0  0
 21 22  1  6  0  0  0
 21 26  1  0  0  0  0
 23 26  1  0  0  0  0
 24 22  2  0  0  0  0
 24 28  1  0  0  0  0
 26 25  1  1  0  0  0
 27 23  1  0  0  0  0
 28 23  1  0  0  0  0
M  END
>  <MODEL>
4

>  <REMARK>
 VINA RESULT:      -7.8      2.226      3.284
  Name = 
  2 active torsions:
  status: ('A' for Active; 'I' for Inactive)
    1  A    between atoms: C_1  and  C_2
    2  A    between atoms: C_10  and  C_13
                            x       y       z     vdW  Elec       q    Type
                         _______ _______ _______ _____ _____    ______ ____

>  <TORSDO>
F 2

$$$$
=
 OpenBabel10272401463D

 28 31  0  0  1  0  0  0  0  0999 V2000
  188.0610  178.0860  138.0190 C   0  0  2  0  0  3  0  0  0  0  0  0
  191.7180  176.2440  139.3640 C   0  0  0  0  0  1  0  0  0  0  0  0
  187.7210  177.9840  141.8330 C   0  0  0  0  0  0  0  0  0  0  0  0
  189.7500  177.6150  139.9060 N   0  0  0  0  0  0  0  0  0  0  0  0
  187.4520  178.1500  140.3880 C   0  0  0  0  0  3  0  0  0  0  0  0
  190.3220  177.1250  137.5280 C   0  0  0  0  0  2  0  0  0  0  0  0
  190.1460  177.8880  141.2930 C   0  0  0  0  0  2  0  0  0  0  0  0
  190.8360  177.4040  138.9360 C   0  0  2  0  0  3  0  0  0  0  0  0
  188.9830  177.8130  142.2420 C   0  0  0  0  0  3  0  0  0  0  0  0
  189.3020  178.1750  137.1290 C   0  0  0  0  0  2  0  0  0  0  0  0
  188.4140  177.9740  139.4790 C   0  0  0  0  0  0  0  0  0  0  0  0
  185.3860  178.3650  142.3790 C   0  0  0  0  0  3  0  0  0  0  0  0
  186.2640  178.1100  145.2960 C   0  0  0  0  0  3  0  0  0  0  0  0
  184.3110  179.3370  144.3580 C   0  0  0  0  0  0  0  0  0  0  0  0
  186.5990  177.9870  142.8110 C   0  0  0  0  0  0  0  0  0  0  0  0
  187.7600  176.5870  144.4500 F   0  0  0  0  0  0  0  0  0  0  0  0
  185.2310  179.1640  145.3070 C   0  0  0  0  0  3  0  0  0  0  0  0
  186.8320  177.5480  144.2200 C   0  0  0  0  0  0  0  0  0  0  0  0
  183.4270  180.3550  144.4740 F   0  0  0  0  0  0  0  0  0  0  0  0
  184.1600  178.3750  143.2280 C   0  0  0  0  0  2  0  0  0  0  0  0
  187.0560  177.0090  137.5690 C   0  0  2  0  0  3  0  0  0  0  0  0
  187.6580  175.9900  136.6440 C   0  0  0  0  0  3  0  0  0  0  0  0
  184.9410  176.7140  136.1680 N   0  0  0  0  0  0  0  0  0  0  0  0
  186.8480  175.1660  135.9850 C   0  0  0  0  0  3  0  0  0  0  0  0
  184.9260  178.2370  138.0810 C   0  0  0  0  0  1  0  0  0  0  0  0
  185.7730  177.6320  136.9750 C   0  0  1  0  0  3  0  0  0  0  0  0
  184.9740  177.2880  134.4940 S   0  0  0  0  0  1  0  0  0  0  0  0
  185.3670  175.3040  136.1910 C   0  0  0  0  0  2  0  0  0  0  0  0
  1 10  1  6  0  0  0
  1 11  1  0  0  0  0
  3  9  2  0  0  0  0
  3 15  1  0  0  0  0
  4  7  1  0  0  0  0
  5  3  1  0  0  0  0
  6  8  1  0  0  0  0
  7  9  1  0  0  0  0
  8  2  1  1  0  0  0
  8  4  1  0  0  0  0
 10  6  1  0  0  0  0
 11  4  1  0  0  0  0
 11  5  2  0  0  0  0
 12 15  2  0  0  0  0
 12 20  1  0  0  0  0
 13 17  1  0  0  0  0
 14 19  1  0  0  0  0
 14 17  2  0  0  0  0
 15 18  1  0  0  0  0
 18 16  1  0  0  0  0
 18 13  2  0  0  0  0
 20 14  1  0  0  0  0
 21 22  1  6  0  0  0
 21  1  1  0  0  0  0
 23 28  1  0  0  0  0
 23 26  1  0  0  0  0
 24 28  1  0  0  0  0
 24 22  2  0  0  0  0
 26 21  1  0  0  0  0
 26 25  1  1  0  0  0
 27 23  1  0  0  0  0
M  END
>  <MODEL>
5

>  <REMARK>
 VINA RESULT:      -7.7      2.841      4.198
  Name = 
  2 active torsions:
  status: ('A' for Active; 'I' for Inactive)
    1  A    between atoms: C_1  and  C_2
    2  A    between atoms: C_10  and  C_13
                            x       y       z     vdW  Elec       q    Type
                         _______ _______ _______ _____ _____    ______ ____

>  <TORSDO>
F 2

$$$$
=
 OpenBabel10272401463D

 28 31  0  0  1  0  0  0  0  0999 V2000
  187.8770  178.6690  139.5570 C   0  0  2  0  0  3  0  0  0  0  0  0
  190.9150  175.7910  138.5270 C   0  0  0  0  0  1  0  0  0  0  0  0
  189.0780  177.3140  142.9320 C   0  0  0  0  0  0  0  0  0  0  0  0
  189.9140  177.2470  140.2370 N   0  0  0  0  0  0  0  0  0  0  0  0
  188.3260  178.0230  141.8730 C   0  0  0  0  0  3  0  0  0  0  0  0
  189.2860  177.5130  137.8380 C   0  0  0  0  0  2  0  0  0  0  0  0
  190.8980  176.9360  141.2800 C   0  0  0  0  0  2  0  0  0  0  0  0
  190.3810  177.1770  138.8430 C   0  0  2  0  0  3  0  0  0  0  0  0
  190.2610  176.7670  142.6310 C   0  0  0  0  0  3  0  0  0  0  0  0
  188.6080  178.8160  138.2220 C   0  0  0  0  0  2  0  0  0  0  0  0
  188.7240  177.9880  140.5990 C   0  0  0  0  0  0  0  0  0  0  0  0
  187.1860  177.3180  144.4530 C   0  0  0  0  0  3  0  0  0  0  0  0
  189.2720  177.4610  146.6840 C   0  0  0  0  0  3  0  0  0  0  0  0
  186.9080  178.2420  146.7080 C   0  0  0  0  0  0  0  0  0  0  0  0
  188.5140  177.1980  144.3040 C   0  0  0  0  0  0  0  0  0  0  0  0
  190.5190  176.1630  145.2560 F   0  0  0  0  0  0  0  0  0  0  0  0
  188.1620  178.3130  147.1540 C   0  0  0  0  0  3  0  0  0  0  0  0
  189.4150  176.9230  145.4640 C   0  0  0  0  0  0  0  0  0  0  0  0
  185.9820  179.0940  147.2080 F   0  0  0  0  0  0  0  0  0  0  0  0
  186.4730  177.1800  145.7560 C   0  0  0  0  0  2  0  0  0  0  0  0
  186.4780  178.0370  139.4270 C   0  0  2  0  0  3  0  0  0  0  0  0
  186.1110  177.7050  138.0080 C   0  0  0  0  0  3  0  0  0  0  0  0
  184.0020  178.5970  139.7080 N   0  0  0  0  0  0  0  0  0  0  0  0
  184.8470  177.3980  137.7300 C   0  0  0  0  0  3  0  0  0  0  0  0
  185.5130  178.7890  141.6200 C   0  0  0  0  0  1  0  0  0  0  0  0
  185.3920  178.8980  140.1110 C   0  0  1  0  0  3  0  0  0  0  0  0
  183.3720  180.0080  138.8460 S   0  0  0  0  0  1  0  0  0  0  0  0
  183.8450  177.4110  138.8480 C   0  0  0  0  0  2  0  0  0  0  0  0
  1 10  1  6  0  0  0
  1 11  1  0  0  0  0
  3 15  1  0  0  0  0
  4 11  1  0  0  0  0
  4  7  1  0  0  0  0
  5  3  1  0  0  0  0
  6 10  1  0  0  0  0
  6  8  1  0  0  0  0
  7  9  1  0  0  0  0
  8  2  1  6  0  0  0
  8  4  1  0  0  0  0
  9  3  2  0  0  0  0
 11  5  2  0  0  0  0
 12 20  1  0  0  0  0
 13 17  1  0  0  0  0
 14 17  2  0  0  0  0
 14 19  1  0  0  0  0
 15 12  2  0  0  0  0
 15 18  1  0  0  0  0
 16 18  1  0  0  0  0
 18 13  2  0  0  0  0
 20 14  1  0  0  0  0
 21 22  1  6  0  0  0
 21  1  1  0  0  0  0
 21 26  1  0  0  0  0
 23 26  1  0  0  0  0
 24 22  2  0  0  0  0
 24 28  1  0  0  0  0
 26 25  1  1  0  0  0
 27 23  1  0  0  0  0
 28 23  1  0  0  0  0
M  END
>  <MODEL>
6

>  <REMARK>
 VINA RESULT:      -7.7      2.196      3.432
  Name = 
  2 active torsions:
  status: ('A' for Active; 'I' for Inactive)
    1  A    between atoms: C_1  and  C_2
    2  A    between atoms: C_10  and  C_13
                            x       y       z     vdW  Elec       q    Type
                         _______ _______ _______ _____ _____    ______ ____

>  <TORSDO>
F 2

$$$$
=
 OpenBabel10272401463D

 28 31  0  0  1  0  0  0  0  0999 V2000
  185.5800  177.1050  136.5930 C   0  0  2  0  0  3  0  0  0  0  0  0
  189.4160  177.0290  134.6300 C   0  0  0  0  0  1  0  0  0  0  0  0
  188.0380  178.3000  139.2770 C   0  0  0  0  0  0  0  0  0  0  0  0
  188.0380  177.8660  136.4870 N   0  0  0  0  0  0  0  0  0  0  0  0
  186.8230  177.8440  138.5670 C   0  0  0  0  0  3  0  0  0  0  0  0
  186.9670  176.7350  134.5400 C   0  0  0  0  0  2  0  0  0  0  0  0
  189.0810  178.7270  137.0590 C   0  0  0  0  0  2  0  0  0  0  0  0
  188.0870  177.6430  135.0340 C   0  0  2  0  0  3  0  0  0  0  0  0
  189.1080  178.6660  138.5610 C   0  0  0  0  0  3  0  0  0  0  0  0
  185.6300  177.2220  135.0690 C   0  0  0  0  0  2  0  0  0  0  0  0
  186.8270  177.6390  137.2470 C   0  0  0  0  0  0  0  0  0  0  0  0
  189.2500  178.1300  141.3730 C   0  0  0  0  0  3  0  0  0  0  0  0
  186.4950  178.0210  142.6930 C   0  0  0  0  0  3  0  0  0  0  0  0
  188.6570  177.1070  143.5220 C   0  0  0  0  0  0  0  0  0  0  0  0
  188.0720  178.3310  140.7640 C   0  0  0  0  0  0  0  0  0  0  0  0
  185.9000  179.4410  140.9880 F   0  0  0  0  0  0  0  0  0  0  0  0
  187.3250  177.0900  143.4820 C   0  0  0  0  0  3  0  0  0  0  0  0
  186.8240  178.6130  141.5360 C   0  0  0  0  0  0  0  0  0  0  0  0
  189.3060  176.1860  144.2730 F   0  0  0  0  0  0  0  0  0  0  0  0
  189.4480  178.1780  142.8510 C   0  0  0  0  0  2  0  0  0  0  0  0
  185.2080  175.6950  137.0920 C   0  0  2  0  0  3  0  0  0  0  0  0
  186.3650  174.7370  137.0650 C   0  0  0  0  0  3  0  0  0  0  0  0
  183.7920  173.6650  136.4620 N   0  0  0  0  0  0  0  0  0  0  0  0
  186.1240  173.4380  137.2220 C   0  0  0  0  0  3  0  0  0  0  0  0
  182.7170  175.8340  136.8090 C   0  0  0  0  0  1  0  0  0  0  0  0
  183.9790  175.1270  136.3470 C   0  0  1  0  0  3  0  0  0  0  0  0
  184.0250  172.9630  134.8540 S   0  0  0  0  0  1  0  0  0  0  0  0
  184.7020  172.9920  137.4060 C   0  0  0  0  0  2  0  0  0  0  0  0
  1 10  1  6  0  0  0
  1 21  1  0  0  0  0
  1 11  1  0  0  0  0
  3 15  1  0  0  0  0
  4  7  1  0  0  0  0
  4 11  1  0  0  0  0
  5  3  1  0  0  0  0
  6  8  1  0  0  0  0
  6 10  1  0  0  0  0
  7  9  1  0  0  0  0
  8  2  1  1  0  0  0
  8  4  1  0  0  0  0
  9  3  2  0  0  0  0
 11  5  2  0  0  0  0
 12 20  1  0  0  0  0
 13 17  1  0  0  0  0
 14 19  1  0  0  0  0
 15 12  2  0  0  0  0
 15 18  1  0  0  0  0
 16 18  1  0  0  0  0
 17 14  2  0  0  0  0
 18 13  2  0  0  0  0
 20 14  1  0  0  0  0
 21 22  1  6  0  0  0
 22 24  2  0  0  0  0
 23 28  1  0  0  0  0
 24 28  1  0  0  0  0
 26 23  1  0  0  0  0
 26 25  1  1  0  0  0
 26 21  1  0  0  0  0
 27 23  1  0  0  0  0
M  END
>  <MODEL>
7

>  <REMARK>
 VINA RESULT:      -7.5      3.458      4.726
  Name = 
  2 active torsions:
  status: ('A' for Active; 'I' for Inactive)
    1  A    between atoms: C_1  and  C_2
    2  A    between atoms: C_10  and  C_13
                            x       y       z     vdW  Elec       q    Type
                         _______ _______ _______ _____ _____    ______ ____

>  <TORSDO>
F 2

$$$$
=
 OpenBabel10272401463D

 28 31  0  0  1  0  0  0  0  0999 V2000
  185.3430  179.2080  142.5900 C   0  0  2  0  0  3  0  0  0  0  0  0
  181.4110  178.2910  144.0960 C   0  0  0  0  0  1  0  0  0  0  0  0
  183.4200  177.9700  139.5170 C   0  0  0  0  0  0  0  0  0  0  0  0
  182.8400  178.7860  142.1570 N   0  0  0  0  0  0  0  0  0  0  0  0
  184.4850  178.4330  140.4340 C   0  0  0  0  0  3  0  0  0  0  0  0
  183.6900  179.1630  144.4710 C   0  0  0  0  0  2  0  0  0  0  0  0
  181.7500  178.7790  141.1730 C   0  0  0  0  0  2  0  0  0  0  0  0
  182.4930  179.1930  143.5270 C   0  0  2  0  0  3  0  0  0  0  0  0
  182.1420  178.0940  139.8950 C   0  0  0  0  0  3  0  0  0  0  0  0
  184.8570  179.9140  143.8560 C   0  0  0  0  0  2  0  0  0  0  0  0
  184.2070  178.8170  141.6820 C   0  0  0  0  0  0  0  0  0  0  0  0
  182.8370  176.6270  137.5820 C   0  0  0  0  0  3  0  0  0  0  0  0
  185.8230  176.6810  136.9300 C   0  0  0  0  0  3  0  0  0  0  0  0
  184.1200  174.9820  136.2910 C   0  0  0  0  0  0  0  0  0  0  0  0
  183.7700  177.3610  138.2050 C   0  0  0  0  0  0  0  0  0  0  0  0
  185.7270  178.7880  137.8400 F   0  0  0  0  0  0  0  0  0  0  0  0
  185.3810  175.3260  136.5480 C   0  0  0  0  0  3  0  0  0  0  0  0
  185.1170  177.6000  137.6040 C   0  0  0  0  0  0  0  0  0  0  0  0
  183.8390  173.6980  135.9670 F   0  0  0  0  0  0  0  0  0  0  0  0
  183.0250  175.9940  136.2440 C   0  0  0  0  0  2  0  0  0  0  0  0
  186.3070  178.0380  142.8690 C   0  0  2  0  0  3  0  0  0  0  0  0
  186.3730  177.6630  144.3220 C   0  0  0  0  0  3  0  0  0  0  0  0
  188.7910  177.4450  142.8250 N   0  0  0  0  0  0  0  0  0  0  0  0
  187.3470  176.8530  144.7300 C   0  0  0  0  0  3  0  0  0  0  0  0
  187.6790  178.1640  140.7690 C   0  0  0  0  0  1  0  0  0  0  0  0
  187.7120  178.2980  142.2810 C   0  0  1  0  0  3  0  0  0  0  0  0
  189.9040  178.4890  143.7210 S   0  0  0  0  0  1  0  0  0  0  0  0
  188.3400  176.3630  143.7160 C   0  0  0  0  0  2  0  0  0  0  0  0
  1 21  1  0  0  0  0
  1 10  1  1  0  0  0
  3  9  2  0  0  0  0
  3  5  1  0  0  0  0
  4  8  1  0  0  0  0
  5 11  2  0  0  0  0
  7  4  1  0  0  0  0
  8  2  1  1  0  0  0
  8  6  1  0  0  0  0
  9  7  1  0  0  0  0
 10  6  1  0  0  0  0
 11  4  1  0  0  0  0
 11  1  1  0  0  0  0
 12 15  2  0  0  0  0
 13 18  2  0  0  0  0
 14 17  2  0  0  0  0
 15  3  1  0  0  0  0
 17 13  1  0  0  0  0
 18 16  1  0  0  0  0
 18 15  1  0  0  0  0
 19 14  1  0  0  0  0
 20 14  1  0  0  0  0
 20 12  1  0  0  0  0
 21 22  1  1  0  0  0
 22 24  2  0  0  0  0
 23 28  1  0  0  0  0
 23 27  1  0  0  0  0
 26 25  1  6  0  0  0
 26 23  1  0  0  0  0
 26 21  1  0  0  0  0
 28 24  1  0  0  0  0
M  END
>  <MODEL>
8

>  <REMARK>
 VINA RESULT:      -7.4      3.734      7.712
  Name = 
  2 active torsions:
  status: ('A' for Active; 'I' for Inactive)
    1  A    between atoms: C_1  and  C_2
    2  A    between atoms: C_10  and  C_13
                            x       y       z     vdW  Elec       q    Type
                         _______ _______ _______ _____ _____    ______ ____

>  <TORSDO>
F 2

$$$$
=
 OpenBabel10272401463D

 28 31  0  0  1  0  0  0  0  0999 V2000
  186.5050  177.9940  137.3310 C   0  0  2  0  0  3  0  0  0  0  0  0
  189.5560  175.2050  136.1090 C   0  0  0  0  0  1  0  0  0  0  0  0
  188.8190  177.7310  140.3730 C   0  0  0  0  0  0  0  0  0  0  0  0
  188.8560  176.9900  137.6490 N   0  0  0  0  0  0  0  0  0  0  0  0
  187.6920  178.0540  139.4700 C   0  0  0  0  0  3  0  0  0  0  0  0
  187.5390  176.5280  135.5820 C   0  0  0  0  0  2  0  0  0  0  0  0
  190.1320  177.0630  138.3700 C   0  0  0  0  0  2  0  0  0  0  0  0
  188.9140  176.5750  136.2390 C   0  0  2  0  0  3  0  0  0  0  0  0
  189.9410  177.2220  139.8520 C   0  0  0  0  0  3  0  0  0  0  0  0
  186.7930  177.8250  135.8390 C   0  0  0  0  0  2  0  0  0  0  0  0
  187.7130  177.7010  138.1820 C   0  0  0  0  0  0  0  0  0  0  0  0
  189.8190  178.0320  142.5630 C   0  0  0  0  0  3  0  0  0  0  0  0
  186.9940  177.6260  143.6580 C   0  0  0  0  0  3  0  0  0  0  0  0
  189.1750  177.2000  144.7800 C   0  0  0  0  0  0  0  0  0  0  0  0
  188.6930  177.9540  141.8390 C   0  0  0  0  0  0  0  0  0  0  0  0
  186.3630  178.7010  141.7280 F   0  0  0  0  0  0  0  0  0  0  0  0
  187.8730  176.9550  144.6340 C   0  0  0  0  0  3  0  0  0  0  0  0
  187.3430  178.1160  142.4600 C   0  0  0  0  0  0  0  0  0  0  0  0
  189.8780  176.5030  145.7020 F   0  0  0  0  0  0  0  0  0  0  0  0
  189.8540  178.2970  144.0310 C   0  0  0  0  0  2  0  0  0  0  0  0
  185.2500  177.2370  137.8060 C   0  0  2  0  0  3  0  0  0  0  0  0
  184.9340  176.0330  136.9630 C   0  0  0  0  0  3  0  0  0  0  0  0
  182.7170  177.4960  137.9990 N   0  0  0  0  0  0  0  0  0  0  0  0
  183.7480  175.4470  137.1040 C   0  0  0  0  0  3  0  0  0  0  0  0
  184.1890  179.0650  139.1600 C   0  0  0  0  0  1  0  0  0  0  0  0
  184.0290  178.1740  137.9420 C   0  0  1  0  0  3  0  0  0  0  0  0
  181.8190  177.9360  136.5380 S   0  0  0  0  0  1  0  0  0  0  0  0
  182.7770  176.0280  138.0910 C   0  0  0  0  0  2  0  0  0  0  0  0
  1 10  1  6  0  0  0
  1 21  1  0  0  0  0
  1 11  1  0  0  0  0
  3 15  1  0  0  0  0
  4 11  1  0  0  0  0
  4  7  1  0  0  0  0
  5  3  1  0  0  0  0
  6 10  1  0  0  0  0
  6  8  1  0  0  0  0
  7  9  1  0  0  0  0
  8  2  1  1  0  0  0
  8  4  1  0  0  0  0
  9  3  2  0  0  0  0
 11  5  2  0  0  0  0
 12 20  1  0  0  0  0
 13 17  1  0  0  0  0
 14 19  1  0  0  0  0
 15 18  1  0  0  0  0
 15 12  2  0  0  0  0
 16 18  1  0  0  0  0
 17 14  2  0  0  0  0
 18 13  2  0  0  0  0
 20 14  1  0  0  0  0
 21 22  1  6  0  0  0
 21 26  1  0  0  0  0
 22 24  2  0  0  0  0
 23 28  1  0  0  0  0
 24 28  1  0  0  0  0
 26 23  1  0  0  0  0
 26 25  1  1  0  0  0
 27 23  1  0  0  0  0
M  END
>  <MODEL>
9

>  <REMARK>
 VINA RESULT:      -7.3      2.411      3.697
  Name = 
  2 active torsions:
  status: ('A' for Active; 'I' for Inactive)
    1  A    between atoms: C_1  and  C_2
    2  A    between atoms: C_10  and  C_13
                            x       y       z     vdW  Elec       q    Type
                         _______ _______ _______ _____ _____    ______ ____

>  <TORSDO>
F 2

$$$$
