=
 OpenBabel10272413193D

 32 37  0  0  1  0  0  0  0  0999 V2000
  188.5340  177.8610  141.3880 C   0  0  2  0  0  3  0  0  0  0  0  0
  188.7820  177.6220  139.9330 C   0  0  0  0  0  0  0  0  0  0  0  0
  187.8070  178.0290  138.9940 C   0  0  0  0  0  3  0  0  0  0  0  0
  190.7970  176.3360  136.1910 C   0  0  0  0  0  0  0  0  0  0  0  0
  189.9720  177.0000  139.4950 C   0  0  0  0  0  3  0  0  0  0  0  0
  189.5890  176.9180  135.9790 N   0  0  0  0  0  2  0  0  0  0  0  0
  189.1920  177.2090  137.2250 C   0  0  0  0  0  0  0  0  0  0  0  0
  188.0050  177.8240  137.6170 C   0  0  0  0  0  3  0  0  0  0  0  0
  191.1740  176.2510  137.4940 N   0  0  0  0  0  2  0  0  0  0  0  0
  191.7320  175.7850  134.9720 S   0  0  0  0  0  0  0  0  0  0  0  0
  190.1330  176.8140  138.1260 C   0  0  0  0  0  0  0  0  0  0  0  0
  188.3930  176.6400  142.0590 O   0  0  0  0  0  0  0  0  0  0  0  0
  189.4560  176.5780  142.9640 C   0  0  1  0  0  3  0  0  0  0  0  0
  190.3320  175.5650  142.5630 O   0  0  0  0  0  1  0  0  0  0  0  0
  190.5950  178.3830  144.4290 C   0  0  2  0  0  3  0  0  0  0  0  0
  190.1620  177.9440  143.0150 C   0  0  1  0  0  3  0  0  0  0  0  0
  191.6150  177.8380  143.4420 C   0  0  0  0  0  2  0  0  0  0  0  0
  190.2900  177.3890  145.4630 N   0  0  0  0  0  0  0  0  0  0  0  0
  189.3950  178.0320  146.4200 C   0  0  1  0  0  3  0  0  0  0  0  0
  187.9540  177.6770  146.1110 C   0  0  0  0  0  2  0  0  0  0  0  0
  188.6700  176.9750  147.2400 C   0  0  2  0  0  3  0  0  0  0  0  0
  188.2440  177.5840  148.5580 C   0  0  0  0  0  1  0  0  0  0  0  0
  191.5320  177.1180  146.1820 C   0  0  0  0  0  2  0  0  0  0  0  0
  192.0030  175.8490  145.8410 O   0  0  0  0  0  0  0  0  0  0  0  0
  192.4480  176.1830  148.1500 C   0  0  0  0  0  1  0  0  0  0  0  0
  192.1270  175.1830  147.0590 C   0  0  0  0  0  2  0  0  0  0  0  0
  187.2950  178.7230  141.5830 C   0  0  0  0  0  2  0  0  0  0  0  0
  186.3660  178.0820  142.5960 C   0  0  0  0  0  2  0  0  0  0  0  0
  185.3280  179.0910  143.0390 C   0  0  1  0  0  3  0  0  0  0  0  0
  184.0030  178.3870  143.2670 C   0  0  2  0  0  3  0  0  0  0  0  0
  183.3650  178.9650  144.5160 C   0  0  0  0  0  2  0  0  0  0  0  0
  184.8650  178.7560  144.4450 C   0  0  2  0  0  3  0  0  0  0  0  0
  1 27  1  6  0  0  0
  1 12  1  0  0  0  0
  2  1  1  0  0  0  0
  3  2  2  0  0  0  0
  4  9  1  0  0  0  0
  5  2  1  0  0  0  0
  6  4  1  0  0  0  0
  6  7  1  0  0  0  0
  7  8  2  0  0  0  0
  7 11  1  0  0  0  0
  8  3  1  0  0  0  0
  9 11  1  0  0  0  0
 10  4  2  0  0  0  0
 11  5  2  0  0  0  0
 12 13  1  0  0  0  0
 13 14  1  6  0  0  0
 15 18  1  1  0  0  0
 16 13  1  1  0  0  0
 16 17  1  0  0  0  0
 16 15  1  0  0  0  0
 17 15  1  0  0  0  0
 18 23  1  0  0  0  0
 19 18  1  6  0  0  0
 19 21  1  0  0  0  0
 20 19  1  0  0  0  0
 20 21  1  0  0  0  0
 21 22  1  1  0  0  0
 24 23  1  0  0  0  0
 24 26  1  0  0  0  0
 26 25  1  0  0  0  0
 27 28  1  0  0  0  0
 29 28  1  6  0  0  0
 29 30  1  0  0  0  0
 29 32  1  0  0  0  0
 30 32  1  0  0  0  0
 30 31  1  1  0  0  0
 32 31  1  1  0  0  0
M  END
>  <MODEL>
1

>  <REMARK>
 VINA RESULT:      -7.8      0.000      0.000
  Name = 
  12 active torsions:
  status: ('A' for Active; 'I' for Inactive)
    1  A    between atoms: O_1  and  C_4
    2  A    between atoms: O_1  and  C_5
    3  A    between atoms: C_2  and  C_5
    4  A    between atoms: C_3  and  N_20
    5  A    between atoms: C_4  and  C_24
    6  A    between atoms: C_5  and  C_14
    7  A    between atoms: C_13  and  C_30
    8  A    between atoms: C_14  and  C_30
    9  A    between atoms: C_15  and  N_20
   10  A    between atoms: C_15  and  O_26
   11  A    between atoms: C_16  and  N_20
   12  A    between atoms: C_19  and  O_26
                            x       y       z     vdW  Elec       q    Type
                         _______ _______ _______ _____ _____    ______ ____

>  <TORSDO>
F 12

$$$$
=
 OpenBabel10272413193D

 32 37  0  0  1  0  0  0  0  0999 V2000
  186.0920  178.3730  144.6390 C   0  0  2  0  0  3  0  0  0  0  0  0
  184.8660  178.4800  143.7890 C   0  0  0  0  0  0  0  0  0  0  0  0
  183.6390  178.8320  144.3950 C   0  0  0  0  0  3  0  0  0  0  0  0
  182.2450  178.4200  140.2060 C   0  0  0  0  0  0  0  0  0  0  0  0
  184.9260  178.2340  142.4000 C   0  0  0  0  0  3  0  0  0  0  0  0
  181.5880  178.7470  141.3490 N   0  0  0  0  0  2  0  0  0  0  0  0
  182.5650  178.6970  142.2630 C   0  0  0  0  0  0  0  0  0  0  0  0
  182.4650  178.9450  143.6290 C   0  0  0  0  0  3  0  0  0  0  0  0
  183.5720  178.1720  140.3570 N   0  0  0  0  0  2  0  0  0  0  0  0
  181.4980  178.3360  138.7570 S   0  0  0  0  0  0  0  0  0  0  0  0
  183.7450  178.3560  141.6740 C   0  0  0  0  0  0  0  0  0  0  0  0
  186.4010  177.0270  144.8700 O   0  0  0  0  0  0  0  0  0  0  0  0
  187.6390  176.8110  144.2560 C   0  0  1  0  0  3  0  0  0  0  0  0
  187.4440  176.0330  143.1110 O   0  0  0  0  0  1  0  0  0  0  0  0
  189.7720  178.0840  143.5300 C   0  0  2  0  0  3  0  0  0  0  0  0
  188.2810  178.1670  143.9130 C   0  0  1  0  0  3  0  0  0  0  0  0
  188.7070  178.2620  142.4590 C   0  0  0  0  0  2  0  0  0  0  0  0
  190.2930  176.7130  143.5200 N   0  0  0  0  0  0  0  0  0  0  0  0
  191.4570  176.6940  144.4010 C   0  0  1  0  0  3  0  0  0  0  0  0
  191.4000  177.8590  145.3700 C   0  0  0  0  0  2  0  0  0  0  0  0
  191.0110  176.4770  145.8390 C   0  0  2  0  0  3  0  0  0  0  0  0
  192.1590  175.8740  146.6220 C   0  0  0  0  0  1  0  0  0  0  0  0
  190.7950  176.4500  142.1740 C   0  0  0  0  0  2  0  0  0  0  0  0
  191.9710  177.1710  141.9640 O   0  0  0  0  0  0  0  0  0  0  0  0
  190.8140  176.7450  139.9350 C   0  0  0  0  0  1  0  0  0  0  0  0
  191.9480  177.4880  140.6070 C   0  0  0  0  0  2  0  0  0  0  0  0
  185.8920  179.1080  145.9570 C   0  0  0  0  0  2  0  0  0  0  0  0
  186.0760  178.1540  147.1210 C   0  0  0  0  0  2  0  0  0  0  0  0
  187.0990  178.7200  148.0820 C   0  0  1  0  0  3  0  0  0  0  0  0
  187.9670  177.5960  148.6180 C   0  0  2  0  0  3  0  0  0  0  0  0
  189.4010  178.0870  148.6740 C   0  0  0  0  0  2  0  0  0  0  0  0
  188.4930  178.4930  147.5290 C   0  0  2  0  0  3  0  0  0  0  0  0
  1 12  1  0  0  0  0
  1 27  1  1  0  0  0
  2  3  1  0  0  0  0
  2  1  1  0  0  0  0
  4  9  1  0  0  0  0
  4  6  1  0  0  0  0
  5  2  2  0  0  0  0
  6  7  1  0  0  0  0
  7  8  1  0  0  0  0
  8  3  2  0  0  0  0
  9 11  1  0  0  0  0
 10  4  2  0  0  0  0
 11  7  2  0  0  0  0
 11  5  1  0  0  0  0
 13 14  1  6  0  0  0
 13 12  1  0  0  0  0
 15 18  1  6  0  0  0
 15 16  1  0  0  0  0
 16 13  1  6  0  0  0
 17 15  1  0  0  0  0
 17 16  1  0  0  0  0
 19 18  1  6  0  0  0
 19 20  1  0  0  0  0
 19 21  1  0  0  0  0
 20 21  1  0  0  0  0
 21 22  1  1  0  0  0
 23 18  1  0  0  0  0
 24 23  1  0  0  0  0
 25 26  1  0  0  0  0
 26 24  1  0  0  0  0
 27 28  1  0  0  0  0
 29 28  1  6  0  0  0
 29 30  1  0  0  0  0
 30 31  1  1  0  0  0
 32 29  1  0  0  0  0
 32 30  1  0  0  0  0
 32 31  1  1  0  0  0
M  END
>  <MODEL>
2

>  <REMARK>
 VINA RESULT:      -7.5      3.371      6.002
  Name = 
  12 active torsions:
  status: ('A' for Active; 'I' for Inactive)
    1  A    between atoms: O_1  and  C_4
    2  A    between atoms: O_1  and  C_5
    3  A    between atoms: C_2  and  C_5
    4  A    between atoms: C_3  and  N_20
    5  A    between atoms: C_4  and  C_24
    6  A    between atoms: C_5  and  C_14
    7  A    between atoms: C_13  and  C_30
    8  A    between atoms: C_14  and  C_30
    9  A    between atoms: C_15  and  N_20
   10  A    between atoms: C_15  and  O_26
   11  A    between atoms: C_16  and  N_20
   12  A    between atoms: C_19  and  O_26
                            x       y       z     vdW  Elec       q    Type
                         _______ _______ _______ _____ _____    ______ ____

>  <TORSDO>
F 12

$$$$
=
 OpenBabel10272413193D

 32 37  0  0  1  0  0  0  0  0999 V2000
  184.9610  178.5570  142.0230 C   0  0  2  0  0  3  0  0  0  0  0  0
  186.4150  178.2080  142.0080 C   0  0  0  0  0  0  0  0  0  0  0  0
  187.2080  178.6170  140.9120 C   0  0  0  0  0  3  0  0  0  0  0  0
  190.3300  176.5500  143.2880 C   0  0  0  0  0  0  0  0  0  0  0  0
  186.9950  177.4810  143.0710 C   0  0  0  0  0  3  0  0  0  0  0  0
  190.3830  177.1960  142.0940 N   0  0  0  0  0  2  0  0  0  0  0  0
  189.1140  177.5930  141.9300 C   0  0  0  0  0  0  0  0  0  0  0  0
  188.5800  178.3100  140.8620 C   0  0  0  0  0  3  0  0  0  0  0  0
  189.1050  176.5250  143.8740 N   0  0  0  0  0  2  0  0  0  0  0  0
  191.6420  175.8600  143.9710 S   0  0  0  0  0  0  0  0  0  0  0  0
  188.3540  177.1950  142.9880 C   0  0  0  0  0  0  0  0  0  0  0  0
  184.6120  179.2170  140.8390 O   0  0  0  0  0  0  0  0  0  0  0  0
  183.9210  178.2760  140.0690 C   0  0  1  0  0  3  0  0  0  0  0  0
  182.8800  177.7450  140.8350 O   0  0  0  0  0  1  0  0  0  0  0  0
  183.7450  178.2070  137.4880 C   0  0  2  0  0  3  0  0  0  0  0  0
  183.3930  178.9510  138.7920 C   0  0  1  0  0  3  0  0  0  0  0  0
  182.3460  178.1150  138.0770 C   0  0  0  0  0  2  0  0  0  0  0  0
  184.4850  176.9620  137.7130 N   0  0  0  0  0  0  0  0  0  0  0  0
  185.6520  176.9960  136.8350 C   0  0  1  0  0  3  0  0  0  0  0  0
  186.5740  178.1320  137.2320 C   0  0  0  0  0  2  0  0  0  0  0  0
  186.9120  176.7170  137.6410 C   0  0  2  0  0  3  0  0  0  0  0  0
  187.9750  176.1700  136.7130 C   0  0  0  0  0  1  0  0  0  0  0  0
  183.6460  175.8660  137.2360 C   0  0  0  0  0  2  0  0  0  0  0  0
  183.7100  174.8010  138.1350 O   0  0  0  0  0  0  0  0  0  0  0  0
  185.3180  173.1040  137.7190 C   0  0  0  0  0  1  0  0  0  0  0  0
  183.9740  173.6880  137.3400 C   0  0  0  0  0  2  0  0  0  0  0  0
  184.6340  179.4220  143.2320 C   0  0  0  0  0  2  0  0  0  0  0  0
  183.7430  178.6610  144.1940 C   0  0  0  0  0  2  0  0  0  0  0  0
  184.0460  179.0920  145.6140 C   0  0  1  0  0  3  0  0  0  0  0  0
  184.8950  178.0330  146.2930 C   0  0  2  0  0  3  0  0  0  0  0  0
  185.9550  178.7320  147.1220 C   0  0  0  0  0  2  0  0  0  0  0  0
  185.5420  179.2890  145.7730 C   0  0  2  0  0  3  0  0  0  0  0  0
  1 27  1  1  0  0  0
  2  1  1  0  0  0  0
  2  5  1  0  0  0  0
  3  2  2  0  0  0  0
  4  9  1  0  0  0  0
  4 10  2  0  0  0  0
  6  4  1  0  0  0  0
  7  6  1  0  0  0  0
  7 11  1  0  0  0  0
  8  3  1  0  0  0  0
  8  7  2  0  0  0  0
 11  5  2  0  0  0  0
 11  9  1  0  0  0  0
 12  1  1  0  0  0  0
 13 14  1  1  0  0  0
 13 12  1  0  0  0  0
 15 18  1  1  0  0  0
 15 17  1  0  0  0  0
 15 16  1  0  0  0  0
 16 13  1  1  0  0  0
 17 16  1  0  0  0  0
 19 20  1  0  0  0  0
 19 21  1  0  0  0  0
 19 18  1  1  0  0  0
 20 21  1  0  0  0  0
 21 22  1  6  0  0  0
 23 18  1  0  0  0  0
 23 24  1  0  0  0  0
 26 25  1  0  0  0  0
 26 24  1  0  0  0  0
 27 28  1  0  0  0  0
 29 28  1  6  0  0  0
 29 32  1  0  0  0  0
 29 30  1  0  0  0  0
 30 31  1  1  0  0  0
 32 30  1  0  0  0  0
 32 31  1  1  0  0  0
M  END
>  <MODEL>
3

>  <REMARK>
 VINA RESULT:      -7.1      3.719      7.719
  Name = 
  12 active torsions:
  status: ('A' for Active; 'I' for Inactive)
    1  A    between atoms: O_1  and  C_4
    2  A    between atoms: O_1  and  C_5
    3  A    between atoms: C_2  and  C_5
    4  A    between atoms: C_3  and  N_20
    5  A    between atoms: C_4  and  C_24
    6  A    between atoms: C_5  and  C_14
    7  A    between atoms: C_13  and  C_30
    8  A    between atoms: C_14  and  C_30
    9  A    between atoms: C_15  and  N_20
   10  A    between atoms: C_15  and  O_26
   11  A    between atoms: C_16  and  N_20
   12  A    between atoms: C_19  and  O_26
                            x       y       z     vdW  Elec       q    Type
                         _______ _______ _______ _____ _____    ______ ____

>  <TORSDO>
F 12

$$$$
=
 OpenBabel10272413193D

 32 37  0  0  1  0  0  0  0  0999 V2000
  187.6260  178.1880  140.7610 C   0  0  2  0  0  3  0  0  0  0  0  0
  188.7180  177.6600  141.6350 C   0  0  0  0  0  0  0  0  0  0  0  0
  189.8360  177.0340  141.0370 C   0  0  0  0  0  3  0  0  0  0  0  0
  191.0310  176.6570  145.2910 C   0  0  0  0  0  0  0  0  0  0  0  0
  188.6420  177.7830  143.0410 C   0  0  0  0  0  3  0  0  0  0  0  0
  191.6430  176.2670  144.1430 N   0  0  0  0  0  2  0  0  0  0  0  0
  190.7730  176.6690  143.2070 C   0  0  0  0  0  0  0  0  0  0  0  0
  190.8840  176.5270  141.8260 C   0  0  0  0  0  3  0  0  0  0  0  0
  189.8350  177.2770  145.1220 N   0  0  0  0  0  2  0  0  0  0  0  0
  191.6860  176.4030  146.7640 S   0  0  0  0  0  0  0  0  0  0  0  0
  189.6980  177.2700  143.7880 C   0  0  0  0  0  0  0  0  0  0  0  0
  188.1720  178.7870  139.6190 O   0  0  0  0  0  0  0  0  0  0  0  0
  187.6950  178.0440  138.5360 C   0  0  1  0  0  3  0  0  0  0  0  0
  186.3020  177.9680  138.6190 O   0  0  0  0  0  1  0  0  0  0  0  0
  188.8380  177.7520  136.2310 C   0  0  2  0  0  3  0  0  0  0  0  0
  188.1470  178.7090  137.2230 C   0  0  1  0  0  3  0  0  0  0  0  0
  187.3960  178.1830  136.0130 C   0  0  0  0  0  2  0  0  0  0  0  0
  188.8970  176.3670  136.7080 N   0  0  0  0  0  0  0  0  0  0  0  0
  190.2760  175.9160  136.5350 C   0  0  1  0  0  3  0  0  0  0  0  0
  191.2070  176.7230  137.4190 C   0  0  0  0  0  2  0  0  0  0  0  0
  190.7960  175.3320  137.8390 C   0  0  2  0  0  3  0  0  0  0  0  0
  191.9180  174.3650  137.5300 C   0  0  0  0  0  1  0  0  0  0  0  0
  188.0870  175.5600  135.8010 C   0  0  0  0  0  2  0  0  0  0  0  0
  187.7570  174.3520  136.4160 O   0  0  0  0  0  0  0  0  0  0  0  0
  185.9550  173.2550  137.5070 C   0  0  0  0  0  1  0  0  0  0  0  0
  186.4460  174.5300  136.8540 C   0  0  0  0  0  2  0  0  0  0  0  0
  186.7660  179.1830  141.5270 C   0  0  0  0  0  2  0  0  0  0  0  0
  185.4480  178.5430  141.9170 C   0  0  0  0  0  2  0  0  0  0  0  0
  184.7690  179.3870  142.9750 C   0  0  1  0  0  3  0  0  0  0  0  0
  183.6760  178.5750  143.6460 C   0  0  2  0  0  3  0  0  0  0  0  0
  183.7100  178.8690  145.1330 C   0  0  0  0  0  2  0  0  0  0  0  0
  184.9980  178.7670  144.3400 C   0  0  2  0  0  3  0  0  0  0  0  0
  1 27  1  1  0  0  0
  1  2  1  0  0  0  0
  2  5  1  0  0  0  0
  3  2  2  0  0  0  0
  3  8  1  0  0  0  0
  4 10  2  0  0  0  0
  5 11  2  0  0  0  0
  6  4  1  0  0  0  0
  7 11  1  0  0  0  0
  7  6  1  0  0  0  0
  8  7  2  0  0  0  0
  9  4  1  0  0  0  0
 11  9  1  0  0  0  0
 12  1  1  0  0  0  0
 13 14  1  6  0  0  0
 13 12  1  0  0  0  0
 15 18  1  1  0  0  0
 15 16  1  0  0  0  0
 16 13  1  1  0  0  0
 17 15  1  0  0  0  0
 17 16  1  0  0  0  0
 19 18  1  1  0  0  0
 19 20  1  0  0  0  0
 19 21  1  0  0  0  0
 20 21  1  0  0  0  0
 21 22  1  6  0  0  0
 23 24  1  0  0  0  0
 23 18  1  0  0  0  0
 24 26  1  0  0  0  0
 26 25  1  0  0  0  0
 27 28  1  0  0  0  0
 29 28  1  6  0  0  0
 29 30  1  0  0  0  0
 29 32  1  0  0  0  0
 30 32  1  0  0  0  0
 30 31  1  1  0  0  0
 32 31  1  1  0  0  0
M  END
>  <MODEL>
4

>  <REMARK>
 VINA RESULT:      -7.0      3.185      7.464
  Name = 
  12 active torsions:
  status: ('A' for Active; 'I' for Inactive)
    1  A    between atoms: O_1  and  C_4
    2  A    between atoms: O_1  and  C_5
    3  A    between atoms: C_2  and  C_5
    4  A    between atoms: C_3  and  N_20
    5  A    between atoms: C_4  and  C_24
    6  A    between atoms: C_5  and  C_14
    7  A    between atoms: C_13  and  C_30
    8  A    between atoms: C_14  and  C_30
    9  A    between atoms: C_15  and  N_20
   10  A    between atoms: C_15  and  O_26
   11  A    between atoms: C_16  and  N_20
   12  A    between atoms: C_19  and  O_26
                            x       y       z     vdW  Elec       q    Type
                         _______ _______ _______ _____ _____    ______ ____

>  <TORSDO>
F 12

$$$$
=
 OpenBabel10272413193D

 32 37  0  0  1  0  0  0  0  0999 V2000
  185.7580  178.9270  141.0430 C   0  0  2  0  0  3  0  0  0  0  0  0
  186.8490  178.5450  140.0950 C   0  0  0  0  0  0  0  0  0  0  0  0
  188.1860  178.5350  140.5540 C   0  0  0  0  0  3  0  0  0  0  0  0
  188.8860  177.2650  136.3630 C   0  0  0  0  0  0  0  0  0  0  0  0
  186.5550  178.1950  138.7580 C   0  0  0  0  0  3  0  0  0  0  0  0
  189.7400  177.4690  137.3990 N   0  0  0  0  0  2  0  0  0  0  0  0
  188.9090  177.8390  138.3830 C   0  0  0  0  0  0  0  0  0  0  0  0
  189.2390  178.1780  139.6920 C   0  0  0  0  0  3  0  0  0  0  0  0
  187.5760  177.4850  136.6460 N   0  0  0  0  0  2  0  0  0  0  0  0
  189.3950  176.7860  134.8880 S   0  0  0  0  0  0  0  0  0  0  0  0
  187.6220  177.8480  137.9360 C   0  0  0  0  0  0  0  0  0  0  0  0
  185.6540  177.9760  142.0660 O   0  0  0  0  0  0  0  0  0  0  0  0
  185.8880  178.6700  143.2560 C   0  0  1  0  0  3  0  0  0  0  0  0
  185.1890  179.8800  143.2170 O   0  0  0  0  0  1  0  0  0  0  0  0
  186.6050  177.3040  145.3340 C   0  0  2  0  0  3  0  0  0  0  0  0
  185.4460  177.8020  144.4480 C   0  0  1  0  0  3  0  0  0  0  0  0
  185.7270  178.4600  145.7870 C   0  0  0  0  0  2  0  0  0  0  0  0
  187.9180  177.7900  144.8990 N   0  0  0  0  0  0  0  0  0  0  0  0
  188.7050  176.6160  144.5300 C   0  0  1  0  0  3  0  0  0  0  0  0
  188.2860  176.1120  143.1630 C   0  0  0  0  0  2  0  0  0  0  0  0
  189.5500  176.9260  143.3040 C   0  0  2  0  0  3  0  0  0  0  0  0
  190.7460  175.9980  143.2860 C   0  0  0  0  0  1  0  0  0  0  0  0
  188.5750  178.3710  146.0660 C   0  0  0  0  0  2  0  0  0  0  0  0
  189.3090  177.3870  146.7300 O   0  0  0  0  0  0  0  0  0  0  0  0
  188.1000  178.0630  148.6590 C   0  0  0  0  0  1  0  0  0  0  0  0
  189.4630  177.8800  148.0250 C   0  0  0  0  0  2  0  0  0  0  0  0
  184.4340  179.0630  140.3040 C   0  0  0  0  0  2  0  0  0  0  0  0
  183.4890  177.9510  140.7160 C   0  0  0  0  0  2  0  0  0  0  0  0
  182.7190  177.4670  139.5060 C   0  0  1  0  0  3  0  0  0  0  0  0
  182.6080  175.9540  139.5490 C   0  0  2  0  0  3  0  0  0  0  0  0
  181.2100  175.5670  139.1070 C   0  0  0  0  0  2  0  0  0  0  0  0
  181.4330  176.8020  139.9580 C   0  0  2  0  0  3  0  0  0  0  0  0
  1 27  1  6  0  0  0
  1 12  1  0  0  0  0
  2  3  1  0  0  0  0
  2  1  1  0  0  0  0
  4  9  1  0  0  0  0
  4  6  1  0  0  0  0
  5  2  2  0  0  0  0
  6  7  1  0  0  0  0
  7  8  1  0  0  0  0
  8  3  2  0  0  0  0
  9 11  1  0  0  0  0
 10  4  2  0  0  0  0
 11  7  2  0  0  0  0
 11  5  1  0  0  0  0
 12 13  1  0  0  0  0
 13 14  1  6  0  0  0
 15 18  1  6  0  0  0
 15 17  1  0  0  0  0
 16 13  1  6  0  0  0
 16 15  1  0  0  0  0
 16 17  1  0  0  0  0
 18 23  1  0  0  0  0
 19 18  1  6  0  0  0
 20 21  1  0  0  0  0
 20 19  1  0  0  0  0
 21 22  1  1  0  0  0
 21 19  1  0  0  0  0
 23 24  1  0  0  0  0
 24 26  1  0  0  0  0
 26 25  1  0  0  0  0
 27 28  1  0  0  0  0
 29 30  1  0  0  0  0
 29 32  1  0  0  0  0
 29 28  1  1  0  0  0
 30 31  1  6  0  0  0
 30 32  1  0  0  0  0
 32 31  1  6  0  0  0
M  END
>  <MODEL>
5

>  <REMARK>
 VINA RESULT:      -6.7      2.477      3.992
  Name = 
  12 active torsions:
  status: ('A' for Active; 'I' for Inactive)
    1  A    between atoms: O_1  and  C_4
    2  A    between atoms: O_1  and  C_5
    3  A    between atoms: C_2  and  C_5
    4  A    between atoms: C_3  and  N_20
    5  A    between atoms: C_4  and  C_24
    6  A    between atoms: C_5  and  C_14
    7  A    between atoms: C_13  and  C_30
    8  A    between atoms: C_14  and  C_30
    9  A    between atoms: C_15  and  N_20
   10  A    between atoms: C_15  and  O_26
   11  A    between atoms: C_16  and  N_20
   12  A    between atoms: C_19  and  O_26
                            x       y       z     vdW  Elec       q    Type
                         _______ _______ _______ _____ _____    ______ ____

>  <TORSDO>
F 12

$$$$
=
 OpenBabel10272413193D

 32 37  0  0  1  0  0  0  0  0999 V2000
  187.7370  178.1240  140.9690 C   0  0  2  0  0  3  0  0  0  0  0  0
  188.7900  177.6120  141.8990 C   0  0  0  0  0  0  0  0  0  0  0  0
  189.9040  176.9250  141.3640 C   0  0  0  0  0  3  0  0  0  0  0  0
  190.9760  176.7340  145.6620 C   0  0  0  0  0  0  0  0  0  0  0  0
  188.6810  177.8090  143.2930 C   0  0  0  0  0  3  0  0  0  0  0  0
  191.6070  176.2690  144.5530 N   0  0  0  0  0  2  0  0  0  0  0  0
  190.7730  176.6460  143.5740 C   0  0  0  0  0  0  0  0  0  0  0  0
  190.9160  176.4310  142.2060 C   0  0  0  0  0  3  0  0  0  0  0  0
  189.8030  177.3780  145.4300 N   0  0  0  0  0  2  0  0  0  0  0  0
  191.5850  176.5390  147.1640 S   0  0  0  0  0  0  0  0  0  0  0  0
  189.7020  177.3060  144.0940 C   0  0  0  0  0  0  0  0  0  0  0  0
  188.3310  178.6850  139.8320 O   0  0  0  0  0  0  0  0  0  0  0  0
  187.6850  178.1000  138.7380 C   0  0  1  0  0  3  0  0  0  0  0  0
  186.3640  178.5530  138.7010 O   0  0  0  0  0  1  0  0  0  0  0  0
  188.2710  177.4370  136.3060 C   0  0  2  0  0  3  0  0  0  0  0  0
  188.4410  178.4600  137.4470 C   0  0  1  0  0  3  0  0  0  0  0  0
  187.5090  178.7530  136.2850 C   0  0  0  0  0  2  0  0  0  0  0  0
  187.3790  176.3270  136.6510 N   0  0  0  0  0  0  0  0  0  0  0  0
  188.0250  175.1020  136.1850 C   0  0  1  0  0  3  0  0  0  0  0  0
  189.3500  174.9050  136.8940 C   0  0  0  0  0  2  0  0  0  0  0  0
  188.1430  174.1120  137.3340 C   0  0  2  0  0  3  0  0  0  0  0  0
  188.2320  172.7110  136.7650 C   0  0  0  0  0  1  0  0  0  0  0  0
  186.1670  176.4790  135.8520 C   0  0  0  0  0  2  0  0  0  0  0  0
  185.1100  175.8100  136.4710 O   0  0  0  0  0  0  0  0  0  0  0  0
  183.4790  176.8940  137.8150 C   0  0  0  0  0  1  0  0  0  0  0  0
  184.0500  176.7140  136.4240 C   0  0  0  0  0  2  0  0  0  0  0  0
  186.8590  179.1490  141.6730 C   0  0  0  0  0  2  0  0  0  0  0  0
  185.5030  178.5480  141.9860 C   0  0  0  0  0  2  0  0  0  0  0  0
  184.8270  179.3620  143.0690 C   0  0  1  0  0  3  0  0  0  0  0  0
  183.7540  178.5230  143.7380 C   0  0  2  0  0  3  0  0  0  0  0  0
  183.8030  178.7880  145.2300 C   0  0  0  0  0  2  0  0  0  0  0  0
  185.0830  178.7190  144.4190 C   0  0  2  0  0  3  0  0  0  0  0  0
  1 27  1  1  0  0  0
  1  2  1  0  0  0  0
  2  5  1  0  0  0  0
  3  2  2  0  0  0  0
  3  8  1  0  0  0  0
  4 10  2  0  0  0  0
  5 11  2  0  0  0  0
  6  4  1  0  0  0  0
  7 11  1  0  0  0  0
  7  6  1  0  0  0  0
  8  7  2  0  0  0  0
  9  4  1  0  0  0  0
 11  9  1  0  0  0  0
 12  1  1  0  0  0  0
 13 14  1  6  0  0  0
 13 12  1  0  0  0  0
 15 18  1  1  0  0  0
 15 16  1  0  0  0  0
 16 13  1  1  0  0  0
 17 15  1  0  0  0  0
 17 16  1  0  0  0  0
 19 18  1  1  0  0  0
 19 20  1  0  0  0  0
 19 21  1  0  0  0  0
 20 21  1  0  0  0  0
 21 22  1  6  0  0  0
 23 24  1  0  0  0  0
 23 18  1  0  0  0  0
 26 24  1  0  0  0  0
 26 25  1  0  0  0  0
 27 28  1  0  0  0  0
 29 28  1  6  0  0  0
 29 30  1  0  0  0  0
 29 32  1  0  0  0  0
 30 32  1  0  0  0  0
 30 31  1  1  0  0  0
 32 31  1  1  0  0  0
M  END
>  <MODEL>
6

>  <REMARK>
 VINA RESULT:      -6.4      3.270      7.873
  Name = 
  12 active torsions:
  status: ('A' for Active; 'I' for Inactive)
    1  A    between atoms: O_1  and  C_4
    2  A    between atoms: O_1  and  C_5
    3  A    between atoms: C_2  and  C_5
    4  A    between atoms: C_3  and  N_20
    5  A    between atoms: C_4  and  C_24
    6  A    between atoms: C_5  and  C_14
    7  A    between atoms: C_13  and  C_30
    8  A    between atoms: C_14  and  C_30
    9  A    between atoms: C_15  and  N_20
   10  A    between atoms: C_15  and  O_26
   11  A    between atoms: C_16  and  N_20
   12  A    between atoms: C_19  and  O_26
                            x       y       z     vdW  Elec       q    Type
                         _______ _______ _______ _____ _____    ______ ____

>  <TORSDO>
F 12

$$$$
=
 OpenBabel10272413193D

 32 37  0  0  1  0  0  0  0  0999 V2000
  187.3280  178.2700  141.4030 C   0  0  2  0  0  3  0  0  0  0  0  0
  187.7700  177.9110  142.7850 C   0  0  0  0  0  0  0  0  0  0  0  0
  186.7970  177.7570  143.8000 C   0  0  0  0  0  3  0  0  0  0  0  0
  190.4290  176.8830  146.1890 C   0  0  0  0  0  0  0  0  0  0  0  0
  189.1380  177.7240  143.0810 C   0  0  0  0  0  3  0  0  0  0  0  0
  189.1130  176.9160  146.5250 N   0  0  0  0  0  2  0  0  0  0  0  0
  188.5320  177.2400  145.3620 C   0  0  0  0  0  0  0  0  0  0  0  0
  187.1740  177.4170  145.1120 C   0  0  0  0  0  3  0  0  0  0  0  0
  190.6980  177.1660  144.8880 N   0  0  0  0  0  2  0  0  0  0  0  0
  191.6010  176.5240  147.2680 S   0  0  0  0  0  0  0  0  0  0  0  0
  189.4730  177.3880  144.3890 C   0  0  0  0  0  0  0  0  0  0  0  0
  188.3660  178.9130  140.7180 O   0  0  0  0  0  0  0  0  0  0  0  0
  188.3170  178.4240  139.4090 C   0  0  1  0  0  3  0  0  0  0  0  0
  188.9850  179.3180  138.5680 O   0  0  0  0  0  1  0  0  0  0  0  0
  188.9000  176.3450  137.9810 C   0  0  2  0  0  3  0  0  0  0  0  0
  188.9560  177.0240  139.3640 C   0  0  1  0  0  3  0  0  0  0  0  0
  190.1910  176.9720  138.4820 C   0  0  0  0  0  2  0  0  0  0  0  0
  188.2830  177.1830  136.9480 N   0  0  0  0  0  0  0  0  0  0  0  0
  187.2260  176.3870  136.3300 C   0  0  1  0  0  3  0  0  0  0  0  0
  186.1600  176.0450  137.3530 C   0  0  0  0  0  2  0  0  0  0  0  0
  185.9150  177.1580  136.3620 C   0  0  2  0  0  3  0  0  0  0  0  0
  185.0200  176.6490  135.2520 C   0  0  0  0  0  1  0  0  0  0  0  0
  189.2870  177.4030  135.9120 C   0  0  0  0  0  2  0  0  0  0  0  0
  189.3410  176.2930  135.0680 O   0  0  0  0  0  0  0  0  0  0  0  0
  191.2440  174.9360  135.4900 C   0  0  0  0  0  1  0  0  0  0  0  0
  190.6950  176.1480  134.7680 C   0  0  0  0  0  2  0  0  0  0  0  0
  186.0920  179.1570  141.4530 C   0  0  0  0  0  2  0  0  0  0  0  0
  184.8800  178.3950  140.9520 C   0  0  0  0  0  2  0  0  0  0  0  0
  184.6370  178.7310  139.4960 C   0  0  1  0  0  3  0  0  0  0  0  0
  183.4270  177.9650  138.9950 C   0  0  2  0  0  3  0  0  0  0  0  0
  182.6120  178.8860  138.1090 C   0  0  0  0  0  2  0  0  0  0  0  0
  183.2920  179.4200  139.3550 C   0  0  2  0  0  3  0  0  0  0  0  0
  1 27  1  1  0  0  0
  1  2  1  0  0  0  0
  2  5  2  0  0  0  0
  2  3  1  0  0  0  0
  3  8  2  0  0  0  0
  4  6  1  0  0  0  0
  4 10  2  0  0  0  0
  5 11  1  0  0  0  0
  7  6  1  0  0  0  0
  8  7  1  0  0  0  0
  9  4  1  0  0  0  0
 11  9  1  0  0  0  0
 11  7  2  0  0  0  0
 12  1  1  0  0  0  0
 13 14  1  6  0  0  0
 13 12  1  0  0  0  0
 15 18  1  6  0  0  0
 15 17  1  0  0  0  0
 15 16  1  0  0  0  0
 16 13  1  6  0  0  0
 17 16  1  0  0  0  0
 19 21  1  0  0  0  0
 19 18  1  1  0  0  0
 19 20  1  0  0  0  0
 21 22  1  6  0  0  0
 21 20  1  0  0  0  0
 23 18  1  0  0  0  0
 24 23  1  0  0  0  0
 26 24  1  0  0  0  0
 26 25  1  0  0  0  0
 28 27  1  0  0  0  0
 29 28  1  1  0  0  0
 30 31  1  6  0  0  0
 30 32  1  0  0  0  0
 30 29  1  0  0  0  0
 32 31  1  6  0  0  0
 32 29  1  0  0  0  0
M  END
>  <MODEL>
7

>  <REMARK>
 VINA RESULT:      -6.4      3.400      7.951
  Name = 
  12 active torsions:
  status: ('A' for Active; 'I' for Inactive)
    1  A    between atoms: O_1  and  C_4
    2  A    between atoms: O_1  and  C_5
    3  A    between atoms: C_2  and  C_5
    4  A    between atoms: C_3  and  N_20
    5  A    between atoms: C_4  and  C_24
    6  A    between atoms: C_5  and  C_14
    7  A    between atoms: C_13  and  C_30
    8  A    between atoms: C_14  and  C_30
    9  A    between atoms: C_15  and  N_20
   10  A    between atoms: C_15  and  O_26
   11  A    between atoms: C_16  and  N_20
   12  A    between atoms: C_19  and  O_26
                            x       y       z     vdW  Elec       q    Type
                         _______ _______ _______ _____ _____    ______ ____

>  <TORSDO>
F 12

$$$$
=
 OpenBabel10272413193D

 32 37  0  0  1  0  0  0  0  0999 V2000
  185.4740  178.4660  142.6580 C   0  0  2  0  0  3  0  0  0  0  0  0
  186.8420  178.0920  143.1310 C   0  0  0  0  0  0  0  0  0  0  0  0
  187.8960  178.0100  142.1920 C   0  0  0  0  0  3  0  0  0  0  0  0
  190.1550  176.9460  145.8560 C   0  0  0  0  0  0  0  0  0  0  0  0
  187.0860  177.8240  144.4960 C   0  0  0  0  0  3  0  0  0  0  0  0
  190.5410  177.0660  144.5600 N   0  0  0  0  0  2  0  0  0  0  0  0
  189.3970  177.4080  143.9530 C   0  0  0  0  0  0  0  0  0  0  0  0
  189.1960  177.6630  142.5990 C   0  0  0  0  0  3  0  0  0  0  0  0
  188.8400  177.1940  146.0890 N   0  0  0  0  0  2  0  0  0  0  0  0
  191.1940  176.5380  147.0480 S   0  0  0  0  0  0  0  0  0  0  0  0
  188.3850  177.4850  144.8620 C   0  0  0  0  0  0  0  0  0  0  0  0
  185.5590  179.1770  141.4540 O   0  0  0  0  0  0  0  0  0  0  0  0
  184.8540  178.4200  140.5150 C   0  0  1  0  0  3  0  0  0  0  0  0
  183.8940  177.6540  141.1820 O   0  0  0  0  0  1  0  0  0  0  0  0
  184.1080  178.7730  138.0620 C   0  0  2  0  0  3  0  0  0  0  0  0
  184.2060  179.3610  139.4840 C   0  0  1  0  0  3  0  0  0  0  0  0
  182.8830  178.8340  138.9600 C   0  0  0  0  0  2  0  0  0  0  0  0
  184.6130  177.4010  137.9650 N   0  0  0  0  0  0  0  0  0  0  0  0
  185.5730  177.3770  136.8650 C   0  0  1  0  0  3  0  0  0  0  0  0
  186.7310  178.3110  137.1600 C   0  0  0  0  0  2  0  0  0  0  0  0
  186.9030  176.8220  137.3530 C   0  0  2  0  0  3  0  0  0  0  0  0
  187.6570  176.2490  136.1730 C   0  0  0  0  0  1  0  0  0  0  0  0
  183.4960  176.5560  137.5510 C   0  0  0  0  0  2  0  0  0  0  0  0
  183.4320  175.4290  138.3720 O   0  0  0  0  0  0  0  0  0  0  0  0
  184.7660  173.5750  137.7200 C   0  0  0  0  0  1  0  0  0  0  0  0
  183.4870  174.3510  137.4890 C   0  0  0  0  0  2  0  0  0  0  0  0
  184.7520  179.2910  143.7150 C   0  0  0  0  0  2  0  0  0  0  0  0
  183.4660  178.6020  144.1270 C   0  0  0  0  0  2  0  0  0  0  0  0
  182.2950  179.5290  143.8830 C   0  0  1  0  0  3  0  0  0  0  0  0
  181.4950  179.0320  142.6930 C   0  0  2  0  0  3  0  0  0  0  0  0
  180.0200  179.1930  143.0090 C   0  0  0  0  0  2  0  0  0  0  0  0
  180.9970  178.7700  144.0890 C   0  0  2  0  0  3  0  0  0  0  0  0
  1  2  1  0  0  0  0
  1 27  1  1  0  0  0
  2  5  1  0  0  0  0
  3  8  1  0  0  0  0
  3  2  2  0  0  0  0
  4  9  1  0  0  0  0
  4 10  2  0  0  0  0
  5 11  2  0  0  0  0
  6  4  1  0  0  0  0
  7  6  1  0  0  0  0
  7 11  1  0  0  0  0
  8  7  2  0  0  0  0
 11  9  1  0  0  0  0
 12  1  1  0  0  0  0
 13 14  1  1  0  0  0
 13 12  1  0  0  0  0
 15 18  1  1  0  0  0
 15 17  1  0  0  0  0
 15 16  1  0  0  0  0
 16 13  1  1  0  0  0
 17 16  1  0  0  0  0
 19 20  1  0  0  0  0
 19 21  1  0  0  0  0
 19 18  1  1  0  0  0
 20 21  1  0  0  0  0
 21 22  1  6  0  0  0
 23 18  1  0  0  0  0
 23 24  1  0  0  0  0
 26 25  1  0  0  0  0
 26 24  1  0  0  0  0
 27 28  1  0  0  0  0
 29 32  1  0  0  0  0
 29 28  1  1  0  0  0
 30 31  1  6  0  0  0
 30 29  1  0  0  0  0
 30 32  1  0  0  0  0
 32 31  1  6  0  0  0
M  END
>  <MODEL>
8

>  <REMARK>
 VINA RESULT:      -6.4      3.755      8.141
  Name = 
  12 active torsions:
  status: ('A' for Active; 'I' for Inactive)
    1  A    between atoms: O_1  and  C_4
    2  A    between atoms: O_1  and  C_5
    3  A    between atoms: C_2  and  C_5
    4  A    between atoms: C_3  and  N_20
    5  A    between atoms: C_4  and  C_24
    6  A    between atoms: C_5  and  C_14
    7  A    between atoms: C_13  and  C_30
    8  A    between atoms: C_14  and  C_30
    9  A    between atoms: C_15  and  N_20
   10  A    between atoms: C_15  and  O_26
   11  A    between atoms: C_16  and  N_20
   12  A    between atoms: C_19  and  O_26
                            x       y       z     vdW  Elec       q    Type
                         _______ _______ _______ _____ _____    ______ ____

>  <TORSDO>
F 12

$$$$
=
 OpenBabel10272413193D

 32 37  0  0  1  0  0  0  0  0999 V2000
  190.0890  177.4250  140.2000 C   0  0  2  0  0  3  0  0  0  0  0  0
  190.8710  176.6670  139.1760 C   0  0  0  0  0  0  0  0  0  0  0  0
  190.2000  175.7390  138.3470 C   0  0  0  0  0  3  0  0  0  0  0  0
  194.3050  175.2570  136.7390 C   0  0  0  0  0  0  0  0  0  0  0  0
  192.2610  176.8710  139.0320 C   0  0  0  0  0  3  0  0  0  0  0  0
  193.1290  174.6650  136.4060 N   0  0  0  0  0  2  0  0  0  0  0  0
  192.2700  175.2400  137.2580 C   0  0  0  0  0  0  0  0  0  0  0  0
  190.9020  175.0090  137.3700 C   0  0  0  0  0  3  0  0  0  0  0  0
  194.2260  176.1650  137.7470 N   0  0  0  0  0  2  0  0  0  0  0  0
  195.7090  174.9080  135.9830 S   0  0  0  0  0  0  0  0  0  0  0  0
  192.9220  176.1320  138.0550 C   0  0  0  0  0  0  0  0  0  0  0  0
  189.2760  176.5480  140.9290 O   0  0  0  0  0  0  0  0  0  0  0  0
  189.7560  176.5880  142.2420 C   0  0  1  0  0  3  0  0  0  0  0  0
  190.6740  175.5500  142.4170 O   0  0  0  0  0  1  0  0  0  0  0  0
  190.0920  178.5450  143.9020 C   0  0  2  0  0  3  0  0  0  0  0  0
  190.3980  177.9600  142.5080 C   0  0  1  0  0  3  0  0  0  0  0  0
  191.4430  177.9140  143.6080 C   0  0  0  0  0  2  0  0  0  0  0  0
  189.2760  177.6580  144.7360 N   0  0  0  0  0  0  0  0  0  0  0  0
  187.9880  178.3210  144.9280 C   0  0  1  0  0  3  0  0  0  0  0  0
  187.0040  177.8720  143.8650 C   0  0  0  0  0  2  0  0  0  0  0  0
  186.9200  177.2880  145.2560 C   0  0  2  0  0  3  0  0  0  0  0  0
  185.8000  177.9660  146.0160 C   0  0  0  0  0  1  0  0  0  0  0  0
  189.9050  177.5990  146.0520 C   0  0  0  0  0  2  0  0  0  0  0  0
  190.6050  176.3990  146.1830 O   0  0  0  0  0  0  0  0  0  0  0  0
  192.3560  175.4380  147.4680 C   0  0  0  0  0  1  0  0  0  0  0  0
  191.3260  176.5430  147.3670 C   0  0  0  0  0  2  0  0  0  0  0  0
  189.2480  178.5050  139.5350 C   0  0  0  0  0  2  0  0  0  0  0  0
  187.8300  178.0080  139.3250 C   0  0  0  0  0  2  0  0  0  0  0  0
  187.4410  178.1900  137.8730 C   0  0  1  0  0  3  0  0  0  0  0  0
  186.8430  176.8990  137.3440 C   0  0  2  0  0  3  0  0  0  0  0  0
  185.6560  177.2470  136.4670 C   0  0  0  0  0  2  0  0  0  0  0  0
  185.9380  178.0380  137.7300 C   0  0  2  0  0  3  0  0  0  0  0  0
  1 27  1  6  0  0  0
  1 12  1  0  0  0  0
  2  1  1  0  0  0  0
  3  2  2  0  0  0  0
  4  9  1  0  0  0  0
  5  2  1  0  0  0  0
  6  4  1  0  0  0  0
  6  7  1  0  0  0  0
  7  8  2  0  0  0  0
  7 11  1  0  0  0  0
  8  3  1  0  0  0  0
  9 11  1  0  0  0  0
 10  4  2  0  0  0  0
 11  5  2  0  0  0  0
 12 13  1  0  0  0  0
 13 14  1  6  0  0  0
 15 18  1  1  0  0  0
 16 13  1  1  0  0  0
 16 17  1  0  0  0  0
 16 15  1  0  0  0  0
 17 15  1  0  0  0  0
 18 23  1  0  0  0  0
 19 18  1  6  0  0  0
 19 21  1  0  0  0  0
 20 19  1  0  0  0  0
 20 21  1  0  0  0  0
 21 22  1  1  0  0  0
 23 24  1  0  0  0  0
 24 26  1  0  0  0  0
 26 25  1  0  0  0  0
 28 27  1  0  0  0  0
 29 28  1  1  0  0  0
 30 31  1  6  0  0  0
 30 32  1  0  0  0  0
 30 29  1  0  0  0  0
 32 31  1  6  0  0  0
 32 29  1  0  0  0  0
M  END
>  <MODEL>
9

>  <REMARK>
 VINA RESULT:      -6.4      1.931      3.471
  Name = 
  12 active torsions:
  status: ('A' for Active; 'I' for Inactive)
    1  A    between atoms: O_1  and  C_4
    2  A    between atoms: O_1  and  C_5
    3  A    between atoms: C_2  and  C_5
    4  A    between atoms: C_3  and  N_20
    5  A    between atoms: C_4  and  C_24
    6  A    between atoms: C_5  and  C_14
    7  A    between atoms: C_13  and  C_30
    8  A    between atoms: C_14  and  C_30
    9  A    between atoms: C_15  and  N_20
   10  A    between atoms: C_15  and  O_26
   11  A    between atoms: C_16  and  N_20
   12  A    between atoms: C_19  and  O_26
                            x       y       z     vdW  Elec       q    Type
                         _______ _______ _______ _____ _____    ______ ____

>  <TORSDO>
F 12

$$$$
