=
 OpenBabel10272401143D

 27 31  0  0  1  0  0  0  0  0999 V2000
  185.6980  178.3210  144.9190 N   0  0  0  0  0  2  0  0  0  0  0  0
  187.6890  177.9170  143.5270 C   0  0  0  0  0  0  0  0  0  0  0  0
  185.7860  178.0030  141.9040 N   0  0  0  0  0  2  0  0  0  0  0  0
  189.2770  178.2420  139.2210 N   0  0  0  0  0  0  0  0  0  0  0  0
  188.0690  178.4300  137.1710 C   0  0  0  0  0  3  0  0  0  0  0  0
  189.0660  177.9000  143.3570 C   0  0  0  0  0  3  0  0  0  0  0  0
  186.8700  178.3870  137.8830 C   0  0  0  0  0  3  0  0  0  0  0  0
  186.8920  178.2710  139.2730 C   0  0  0  0  0  3  0  0  0  0  0  0
  182.5490  178.8990  142.9740 C   0  0  0  0  0  0  0  0  0  0  0  0
  188.1220  178.1970  139.9440 C   0  0  0  0  0  0  0  0  0  0  0  0
  186.9250  177.5490  144.7560 C   0  0  1  0  0  3  0  0  0  0  0  0
  189.2770  178.3550  137.8670 C   0  0  0  0  0  3  0  0  0  0  0  0
  188.1870  178.0780  141.3780 N   0  0  0  0  0  0  0  0  0  0  0  0
  184.7670  178.5410  144.0390 C   0  0  0  0  0  0  0  0  0  0  0  0
  187.1710  178.0000  142.2620 C   0  0  0  0  0  0  0  0  0  0  0  0
  183.4950  178.4180  142.0740 C   0  0  0  0  0  3  0  0  0  0  0  0
  189.3330  178.0230  142.0400 N   0  0  0  0  0  0  0  0  0  0  0  0
  183.2480  179.1040  144.4850 S   0  0  0  0  0  0  0  0  0  0  0  0
  184.7540  178.2360  142.6630 C   0  0  0  0  0  0  0  0  0  0  0  0
  189.2550  177.7900  148.3610 C   0  0  0  0  0  3  0  0  0  0  0  0
  187.7510  177.6330  146.0040 C   0  0  0  0  0  0  0  0  0  0  0  0
  187.2150  178.2510  147.1390 C   0  0  0  0  0  3  0  0  0  0  0  0
  187.9660  178.3300  148.3160 C   0  0  0  0  0  3  0  0  0  0  0  0
  189.7930  177.1700  147.2310 C   0  0  0  0  0  3  0  0  0  0  0  0
  189.0430  177.0890  146.0540 C   0  0  0  0  0  3  0  0  0  0  0  0
  180.1530  178.7290  143.5090 C   0  0  0  0  0  1  0  0  0  0  0  0
  181.2150  179.1850  142.6850 O   0  0  0  0  0  0  0  0  0  0  0  0
  2 11  1  0  0  0  0
  3 15  1  0  0  0  0
  3 19  1  0  0  0  0
  4 10  1  0  0  0  0
  5 12  1  0  0  0  0
  5  7  2  0  0  0  0
  6  2  1  0  0  0  0
  7  8  1  0  0  0  0
  8 10  2  0  0  0  0
  9 18  1  0  0  0  0
 10 13  1  0  0  0  0
 11  1  1  0  0  0  0
 11 21  1  1  0  0  0
 12  4  2  0  0  0  0
 13 17  1  0  0  0  0
 13 15  1  0  0  0  0
 14 18  1  0  0  0  0
 14  1  1  0  0  0  0
 15  2  2  0  0  0  0
 16 19  1  0  0  0  0
 16  9  2  0  0  0  0
 17  6  2  0  0  0  0
 19 14  2  0  0  0  0
 21 25  2  0  0  0  0
 21 22  1  0  0  0  0
 22 23  2  0  0  0  0
 23 20  1  0  0  0  0
 24 20  2  0  0  0  0
 25 24  1  0  0  0  0
 27  9  1  0  0  0  0
 27 26  1  0  0  0  0
M  END
>  <MODEL>
1

>  <REMARK>
 VINA RESULT:      -9.9      0.000      0.000
  Name = 
  2 active torsions:
  status: ('A' for Active; 'I' for Inactive)
    1  A    between atoms: C_9  and  C_15
    2  A    between atoms: C_13  and  O_22
                            x       y       z     vdW  Elec       q    Type
                         _______ _______ _______ _____ _____    ______ ____

>  <TORSDO>
F 2

$$$$
=
 OpenBabel10272401143D

 27 31  0  0  1  0  0  0  0  0999 V2000
  189.8420  177.2370  142.8750 N   0  0  0  0  0  2  0  0  0  0  0  0
  187.8590  177.7510  144.2430 C   0  0  0  0  0  0  0  0  0  0  0  0
  187.1910  178.3510  141.9070 N   0  0  0  0  0  2  0  0  0  0  0  0
  183.3130  178.4130  144.0020 N   0  0  0  0  0  0  0  0  0  0  0  0
  181.9570  178.9450  142.1100 C   0  0  0  0  0  3  0  0  0  0  0  0
  187.1390  177.6390  145.4250 C   0  0  0  0  0  3  0  0  0  0  0  0
  183.0960  178.9430  141.3040 C   0  0  0  0  0  3  0  0  0  0  0  0
  184.3440  178.6730  141.8660 C   0  0  0  0  0  3  0  0  0  0  0  0
  189.3090  177.6130  139.1870 C   0  0  0  0  0  0  0  0  0  0  0  0
  184.4430  178.4050  143.2400 C   0  0  0  0  0  0  0  0  0  0  0  0
  189.3400  177.8630  144.0940 C   0  0  1  0  0  3  0  0  0  0  0  0
  182.0880  178.6740  143.4730 C   0  0  0  0  0  3  0  0  0  0  0  0
  185.7120  178.1200  143.8580 N   0  0  0  0  0  0  0  0  0  0  0  0
  189.4030  177.3850  141.6610 C   0  0  0  0  0  0  0  0  0  0  0  0
  186.9340  178.0810  143.2880 C   0  0  0  0  0  0  0  0  0  0  0  0
  188.2120  178.1970  139.8130 C   0  0  0  0  0  3  0  0  0  0  0  0
  185.8340  177.8480  145.1480 N   0  0  0  0  0  0  0  0  0  0  0  0
  190.3190  176.9180  140.3310 S   0  0  0  0  0  0  0  0  0  0  0  0
  188.2480  178.0520  141.2070 C   0  0  0  0  0  0  0  0  0  0  0  0
  191.5250  176.3600  147.4780 C   0  0  0  0  0  3  0  0  0  0  0  0
  190.0880  177.3390  145.2830 C   0  0  0  0  0  0  0  0  0  0  0  0
  191.2330  176.5590  145.0820 C   0  0  0  0  0  3  0  0  0  0  0  0
  191.9500  176.0700  146.1780 C   0  0  0  0  0  3  0  0  0  0  0  0
  190.3840  177.1400  147.6830 C   0  0  0  0  0  3  0  0  0  0  0  0
  189.6670  177.6300  146.5890 C   0  0  0  0  0  3  0  0  0  0  0  0
  189.0600  178.5970  136.9450 C   0  0  0  0  0  1  0  0  0  0  0  0
  189.5500  177.5870  137.8130 O   0  0  0  0  0  0  0  0  0  0  0  0
  1 11  1  0  0  0  0
  2  6  1  0  0  0  0
  3 15  1  0  0  0  0
  5 12  2  0  0  0  0
  7  8  2  0  0  0  0
  7  5  1  0  0  0  0
  8 10  1  0  0  0  0
  9 16  2  0  0  0  0
  9 18  1  0  0  0  0
 10 13  1  0  0  0  0
 10  4  2  0  0  0  0
 11  2  1  0  0  0  0
 11 21  1  1  0  0  0
 12  4  1  0  0  0  0
 13 17  1  0  0  0  0
 14  1  1  0  0  0  0
 15 13  1  0  0  0  0
 15  2  2  0  0  0  0
 16 19  1  0  0  0  0
 17  6  2  0  0  0  0
 18 14  1  0  0  0  0
 19 14  2  0  0  0  0
 19  3  1  0  0  0  0
 20 24  1  0  0  0  0
 21 25  1  0  0  0  0
 22 21  2  0  0  0  0
 22 23  1  0  0  0  0
 23 20  2  0  0  0  0
 25 24  2  0  0  0  0
 26 27  1  0  0  0  0
 27  9  1  0  0  0  0
M  END
>  <MODEL>
2

>  <REMARK>
 VINA RESULT:      -9.9      2.838      5.542
  Name = 
  2 active torsions:
  status: ('A' for Active; 'I' for Inactive)
    1  A    between atoms: C_9  and  C_15
    2  A    between atoms: C_13  and  O_22
                            x       y       z     vdW  Elec       q    Type
                         _______ _______ _______ _____ _____    ______ ____

>  <TORSDO>
F 2

$$$$
=
 OpenBabel10272401143D

 27 31  0  0  1  0  0  0  0  0999 V2000
  186.6350  178.1740  140.8450 N   0  0  0  0  0  2  0  0  0  0  0  0
  188.9610  177.6770  141.4840 C   0  0  0  0  0  0  0  0  0  0  0  0
  187.7970  178.1590  143.6470 N   0  0  0  0  0  2  0  0  0  0  0  0
  191.5900  176.3910  145.0340 N   0  0  0  0  0  0  0  0  0  0  0  0
  191.1270  176.4800  147.3740 C   0  0  0  0  0  3  0  0  0  0  0  0
  190.2160  177.1630  141.1890 C   0  0  0  0  0  3  0  0  0  0  0  0
  189.8760  177.0320  147.0960 C   0  0  0  0  0  3  0  0  0  0  0  0
  189.4950  177.2590  145.7730 C   0  0  0  0  0  3  0  0  0  0  0  0
  184.3060  178.6370  143.7420 C   0  0  0  0  0  0  0  0  0  0  0  0
  190.3750  176.9300  144.7310 C   0  0  0  0  0  0  0  0  0  0  0  0
  188.0460  178.4140  140.5630 C   0  0  1  0  0  3  0  0  0  0  0  0
  191.9800  176.1630  146.3160 C   0  0  0  0  0  3  0  0  0  0  0  0
  190.0180  177.1460  143.3530 N   0  0  0  0  0  0  0  0  0  0  0  0
  186.0250  178.2370  141.9920 C   0  0  0  0  0  0  0  0  0  0  0  0
  188.8850  177.6770  142.8520 C   0  0  0  0  0  0  0  0  0  0  0  0
  185.5970  178.6460  144.2590 C   0  0  0  0  0  3  0  0  0  0  0  0
  190.8220  176.8300  142.3490 N   0  0  0  0  0  0  0  0  0  0  0  0
  184.3500  178.3260  142.0950 S   0  0  0  0  0  0  0  0  0  0  0  0
  186.5700  178.3980  143.2810 C   0  0  0  0  0  0  0  0  0  0  0  0
  188.8250  177.6060  136.4120 C   0  0  0  0  0  3  0  0  0  0  0  0
  188.3310  178.1420  139.1160 C   0  0  0  0  0  0  0  0  0  0  0  0
  187.9260  176.9260  138.5560 C   0  0  0  0  0  3  0  0  0  0  0  0
  188.1740  176.6570  137.2060 C   0  0  0  0  0  3  0  0  0  0  0  0
  189.2290  178.8230  136.9670 C   0  0  0  0  0  3  0  0  0  0  0  0
  188.9820  179.0930  138.3160 C   0  0  0  0  0  3  0  0  0  0  0  0
  181.8520  178.7890  143.8550 C   0  0  0  0  0  1  0  0  0  0  0  0
  183.1320  178.8440  144.4660 O   0  0  0  0  0  0  0  0  0  0  0  0
  1 14  1  0  0  0  0
  2 15  2  0  0  0  0
  4 12  1  0  0  0  0
  6  2  1  0  0  0  0
  6 17  2  0  0  0  0
  7  5  1  0  0  0  0
  8  7  2  0  0  0  0
  9 16  2  0  0  0  0
  9 27  1  0  0  0  0
 10  4  2  0  0  0  0
 10  8  1  0  0  0  0
 11 21  1  6  0  0  0
 11  1  1  0  0  0  0
 11  2  1  0  0  0  0
 12  5  2  0  0  0  0
 13 10  1  0  0  0  0
 14 18  1  0  0  0  0
 14 19  2  0  0  0  0
 15 13  1  0  0  0  0
 15  3  1  0  0  0  0
 17 13  1  0  0  0  0
 18  9  1  0  0  0  0
 19  3  1  0  0  0  0
 19 16  1  0  0  0  0
 20 24  2  0  0  0  0
 20 23  1  0  0  0  0
 22 21  1  0  0  0  0
 23 22  2  0  0  0  0
 24 25  1  0  0  0  0
 25 21  2  0  0  0  0
 26 27  1  0  0  0  0
M  END
>  <MODEL>
3

>  <REMARK>
 VINA RESULT:      -9.4      1.769      6.372
  Name = 
  2 active torsions:
  status: ('A' for Active; 'I' for Inactive)
    1  A    between atoms: C_9  and  C_15
    2  A    between atoms: C_13  and  O_22
                            x       y       z     vdW  Elec       q    Type
                         _______ _______ _______ _____ _____    ______ ____

>  <TORSDO>
F 2

$$$$
=
 OpenBabel10272401143D

 27 31  0  0  1  0  0  0  0  0999 V2000
  189.0050  177.4430  143.0430 N   0  0  0  0  0  2  0  0  0  0  0  0
  186.6680  178.0970  143.4640 C   0  0  0  0  0  0  0  0  0  0  0  0
  186.9940  178.4520  141.0080 N   0  0  0  0  0  2  0  0  0  0  0  0
  182.6110  178.7340  141.3910 N   0  0  0  0  0  0  0  0  0  0  0  0
  182.1270  179.0670  139.0770 C   0  0  0  0  0  3  0  0  0  0  0  0
  185.5390  178.1090  144.2720 C   0  0  0  0  0  3  0  0  0  0  0  0
  183.4890  178.9810  138.7890 C   0  0  0  0  0  3  0  0  0  0  0  0
  184.4050  178.7700  139.8200 C   0  0  0  0  0  3  0  0  0  0  0  0
  189.9740  177.4350  139.4250 C   0  0  0  0  0  0  0  0  0  0  0  0
  183.9480  178.6460  141.1400 C   0  0  0  0  0  0  0  0  0  0  0  0
  188.0930  178.1930  143.9000 C   0  0  1  0  0  3  0  0  0  0  0  0
  181.7030  178.9390  140.4000 C   0  0  0  0  0  3  0  0  0  0  0  0
  184.8610  178.4250  142.2320 N   0  0  0  0  0  0  0  0  0  0  0  0
  189.0830  177.4640  141.7460 C   0  0  0  0  0  0  0  0  0  0  0  0
  186.2050  178.3270  142.1960 C   0  0  0  0  0  0  0  0  0  0  0  0
  188.7460  178.0810  139.5100 C   0  0  0  0  0  3  0  0  0  0  0  0
  184.4570  178.2890  143.4860 N   0  0  0  0  0  0  0  0  0  0  0  0
  190.4260  176.8610  140.9350 S   0  0  0  0  0  0  0  0  0  0  0  0
  188.2270  178.0810  140.8130 C   0  0  0  0  0  0  0  0  0  0  0  0
  188.7140  177.0550  148.0000 C   0  0  0  0  0  3  0  0  0  0  0  0
  188.2930  177.7930  145.3320 C   0  0  0  0  0  0  0  0  0  0  0  0
  189.4920  177.1800  145.7100 C   0  0  0  0  0  3  0  0  0  0  0  0
  189.7030  176.8100  147.0420 C   0  0  0  0  0  3  0  0  0  0  0  0
  187.5160  177.6690  147.6270 C   0  0  0  0  0  3  0  0  0  0  0  0
  187.3050  178.0400  146.2960 C   0  0  0  0  0  3  0  0  0  0  0  0
  191.9080  176.4710  138.2480 C   0  0  0  0  0  1  0  0  0  0  0  0
  190.7320  177.2660  138.2670 O   0  0  0  0  0  0  0  0  0  0  0  0
  1 11  1  0  0  0  0
  2 11  1  0  0  0  0
  2  6  1  0  0  0  0
  3 15  1  0  0  0  0
  5 12  1  0  0  0  0
  7  5  2  0  0  0  0
  7  8  1  0  0  0  0
  8 10  2  0  0  0  0
  9 16  2  0  0  0  0
  9 18  1  0  0  0  0
 10  4  1  0  0  0  0
 10 13  1  0  0  0  0
 11 21  1  1  0  0  0
 12  4  2  0  0  0  0
 13 17  1  0  0  0  0
 14  1  1  0  0  0  0
 15 13  1  0  0  0  0
 15  2  2  0  0  0  0
 16 19  1  0  0  0  0
 17  6  2  0  0  0  0
 18 14  1  0  0  0  0
 19  3  1  0  0  0  0
 19 14  2  0  0  0  0
 21 22  2  0  0  0  0
 21 25  1  0  0  0  0
 22 23  1  0  0  0  0
 23 20  2  0  0  0  0
 24 20  1  0  0  0  0
 25 24  2  0  0  0  0
 26 27  1  0  0  0  0
 27  9  1  0  0  0  0
M  END
>  <MODEL>
4

>  <REMARK>
 VINA RESULT:      -9.2      3.120      5.409
  Name = 
  2 active torsions:
  status: ('A' for Active; 'I' for Inactive)
    1  A    between atoms: C_9  and  C_15
    2  A    between atoms: C_13  and  O_22
                            x       y       z     vdW  Elec       q    Type
                         _______ _______ _______ _____ _____    ______ ____

>  <TORSDO>
F 2

$$$$
=
 OpenBabel10272401143D

 27 31  0  0  1  0  0  0  0  0999 V2000
  186.4280  178.5140  140.1480 N   0  0  0  0  0  2  0  0  0  0  0  0
  185.4770  178.4380  142.4180 C   0  0  0  0  0  0  0  0  0  0  0  0
  187.8050  177.5570  142.6760 N   0  0  0  0  0  2  0  0  0  0  0  0
  186.6260  178.2450  146.8690 N   0  0  0  0  0  0  0  0  0  0  0  0
  188.6850  177.5760  147.8740 C   0  0  0  0  0  3  0  0  0  0  0  0
  184.5070  178.8100  143.3390 C   0  0  0  0  0  3  0  0  0  0  0  0
  189.2130  177.3280  146.6070 C   0  0  0  0  0  3  0  0  0  0  0  0
  188.4300  177.5450  145.4730 C   0  0  0  0  0  3  0  0  0  0  0  0
  190.0630  177.6270  139.9710 C   0  0  0  0  0  0  0  0  0  0  0  0
  187.1140  178.0110  145.6170 C   0  0  0  0  0  0  0  0  0  0  0  0
  185.2800  178.1440  140.9680 C   0  0  1  0  0  3  0  0  0  0  0  0
  187.3740  178.0390  147.9850 C   0  0  0  0  0  3  0  0  0  0  0  0
  186.2750  178.2500  144.4730 N   0  0  0  0  0  0  0  0  0  0  0  0
  187.6810  178.2270  140.3480 C   0  0  0  0  0  0  0  0  0  0  0  0
  186.5610  178.0660  143.1670 C   0  0  0  0  0  0  0  0  0  0  0  0
  189.6250  177.2710  141.2410 C   0  0  0  0  0  3  0  0  0  0  0  0
  185.0350  178.7050  144.5770 N   0  0  0  0  0  0  0  0  0  0  0  0
  188.8240  178.3780  139.1260 S   0  0  0  0  0  0  0  0  0  0  0  0
  188.2880  177.6270  141.4690 C   0  0  0  0  0  0  0  0  0  0  0  0
  181.7260  179.9230  139.3260 C   0  0  0  0  0  3  0  0  0  0  0  0
  184.0330  178.7630  140.4100 C   0  0  0  0  0  0  0  0  0  0  0  0
  184.1350  179.6720  139.3520 C   0  0  0  0  0  3  0  0  0  0  0  0
  182.9840  180.2520  138.8110 C   0  0  0  0  0  3  0  0  0  0  0  0
  181.6200  179.0130  140.3810 C   0  0  0  0  0  3  0  0  0  0  0  0
  182.7700  178.4320  140.9220 C   0  0  0  0  0  3  0  0  0  0  0  0
  191.5860  176.4760  138.4170 C   0  0  0  0  0  1  0  0  0  0  0  0
  191.3420  177.4130  139.4550 O   0  0  0  0  0  0  0  0  0  0  0  0
  1 14  1  0  0  0  0
  1 11  1  0  0  0  0
  2 15  2  0  0  0  0
  2  6  1  0  0  0  0
  3 15  1  0  0  0  0
  4 12  1  0  0  0  0
  5 12  2  0  0  0  0
  6 17  2  0  0  0  0
  7  5  1  0  0  0  0
  8 10  1  0  0  0  0
  8  7  2  0  0  0  0
  9 16  2  0  0  0  0
 10  4  2  0  0  0  0
 11 21  1  6  0  0  0
 11  2  1  0  0  0  0
 13 17  1  0  0  0  0
 13 10  1  0  0  0  0
 14 19  2  0  0  0  0
 15 13  1  0  0  0  0
 16 19  1  0  0  0  0
 18  9  1  0  0  0  0
 18 14  1  0  0  0  0
 19  3  1  0  0  0  0
 20 24  1  0  0  0  0
 21 25  1  0  0  0  0
 22 21  2  0  0  0  0
 23 20  2  0  0  0  0
 23 22  1  0  0  0  0
 24 25  2  0  0  0  0
 26 27  1  0  0  0  0
 27  9  1  0  0  0  0
M  END
>  <MODEL>
5

>  <REMARK>
 VINA RESULT:      -9.2      3.137      7.708
  Name = 
  2 active torsions:
  status: ('A' for Active; 'I' for Inactive)
    1  A    between atoms: C_9  and  C_15
    2  A    between atoms: C_13  and  O_22
                            x       y       z     vdW  Elec       q    Type
                         _______ _______ _______ _____ _____    ______ ____

>  <TORSDO>
F 2

$$$$
=
 OpenBabel10272401143D

 27 31  0  0  1  0  0  0  0  0999 V2000
  188.6470  177.5770  146.5620 N   0  0  0  0  0  2  0  0  0  0  0  0
  190.1480  177.0850  144.6730 C   0  0  0  0  0  0  0  0  0  0  0  0
  187.9100  177.4690  143.6220 N   0  0  0  0  0  2  0  0  0  0  0  0
  190.5850  177.5660  140.1180 N   0  0  0  0  0  0  0  0  0  0  0  0
  188.9130  178.0160  138.4750 C   0  0  0  0  0  3  0  0  0  0  0  0
  191.4230  176.9490  144.1410 C   0  0  0  0  0  3  0  0  0  0  0  0
  187.9450  178.0360  139.4790 C   0  0  0  0  0  3  0  0  0  0  0  0
  188.3150  177.8190  140.8060 C   0  0  0  0  0  3  0  0  0  0  0  0
  185.1850  178.5910  145.5550 C   0  0  0  0  0  0  0  0  0  0  0  0
  189.6610  177.5790  141.1210 C   0  0  0  0  0  0  0  0  0  0  0  0
  189.6950  176.7050  146.0440 C   0  0  1  0  0  3  0  0  0  0  0  0
  190.2440  177.7760  138.8190 C   0  0  0  0  0  3  0  0  0  0  0  0
  190.0840  177.3520  142.4780 N   0  0  0  0  0  0  0  0  0  0  0  0
  187.5490  177.9480  145.9730 C   0  0  0  0  0  0  0  0  0  0  0  0
  189.3320  177.3090  143.5970 C   0  0  0  0  0  0  0  0  0  0  0  0
  185.8030  178.0890  144.4150 C   0  0  0  0  0  3  0  0  0  0  0  0
  191.3490  177.1400  142.8070 N   0  0  0  0  0  0  0  0  0  0  0  0
  186.2710  178.6190  146.8320 S   0  0  0  0  0  0  0  0  0  0  0  0
  187.1440  177.7450  144.6380 C   0  0  0  0  0  0  0  0  0  0  0  0
  192.9000  176.4820  148.9010 C   0  0  0  0  0  3  0  0  0  0  0  0
  190.8220  176.6200  147.0290 C   0  0  0  0  0  0  0  0  0  0  0  0
  190.9360  177.5950  148.0260 C   0  0  0  0  0  3  0  0  0  0  0  0
  191.9730  177.5280  148.9600 C   0  0  0  0  0  3  0  0  0  0  0  0
  192.7900  175.5050  147.9090 C   0  0  0  0  0  3  0  0  0  0  0  0
  191.7520  175.5710  146.9750 C   0  0  0  0  0  3  0  0  0  0  0  0
  182.9570  178.9070  144.5580 C   0  0  0  0  0  1  0  0  0  0  0  0
  183.8620  179.0240  145.6460 O   0  0  0  0  0  0  0  0  0  0  0  0
  2 11  1  0  0  0  0
  3 19  1  0  0  0  0
  4 10  1  0  0  0  0
  5 12  1  0  0  0  0
  5  7  2  0  0  0  0
  6  2  1  0  0  0  0
  7  8  1  0  0  0  0
  8 10  2  0  0  0  0
  9 27  1  0  0  0  0
  9 18  1  0  0  0  0
 10 13  1  0  0  0  0
 11  1  1  0  0  0  0
 11 21  1  1  0  0  0
 12  4  2  0  0  0  0
 13 17  1  0  0  0  0
 13 15  1  0  0  0  0
 14  1  1  0  0  0  0
 14 18  1  0  0  0  0
 15  3  1  0  0  0  0
 15  2  2  0  0  0  0
 16 19  1  0  0  0  0
 16  9  2  0  0  0  0
 17  6  2  0  0  0  0
 19 14  2  0  0  0  0
 20 23  1  0  0  0  0
 21 22  1  0  0  0  0
 22 23  2  0  0  0  0
 24 20  2  0  0  0  0
 25 21  2  0  0  0  0
 25 24  1  0  0  0  0
 26 27  1  0  0  0  0
M  END
>  <MODEL>
6

>  <REMARK>
 VINA RESULT:      -9.0      2.162      3.046
  Name = 
  2 active torsions:
  status: ('A' for Active; 'I' for Inactive)
    1  A    between atoms: C_9  and  C_15
    2  A    between atoms: C_13  and  O_22
                            x       y       z     vdW  Elec       q    Type
                         _______ _______ _______ _____ _____    ______ ____

>  <TORSDO>
F 2

$$$$
=
 OpenBabel10272401143D

 27 31  0  0  1  0  0  0  0  0999 V2000
  187.3070  177.8530  145.0800 N   0  0  0  0  0  2  0  0  0  0  0  0
  187.4340  178.1350  142.6370 C   0  0  0  0  0  0  0  0  0  0  0  0
  189.8110  177.8480  143.3680 N   0  0  0  0  0  2  0  0  0  0  0  0
  190.1440  177.3740  138.9970 N   0  0  0  0  0  0  0  0  0  0  0  0
  192.4910  176.9500  138.9170 C   0  0  0  0  0  3  0  0  0  0  0  0
  186.8340  178.1530  141.3860 C   0  0  0  0  0  3  0  0  0  0  0  0
  192.5480  177.0510  140.3080 C   0  0  0  0  0  3  0  0  0  0  0  0
  191.3860  177.3160  141.0320 C   0  0  0  0  0  3  0  0  0  0  0  0
  190.5770  177.0240  146.7080 C   0  0  0  0  0  0  0  0  0  0  0  0
  190.1670  177.4800  140.3560 C   0  0  0  0  0  0  0  0  0  0  0  0
  186.8570  178.6210  143.9250 C   0  0  1  0  0  3  0  0  0  0  0  0
  191.2650  177.1170  138.2730 C   0  0  0  0  0  3  0  0  0  0  0  0
  188.9460  177.7520  141.0680 N   0  0  0  0  0  0  0  0  0  0  0  0
  188.5240  177.5260  145.3990 C   0  0  0  0  0  0  0  0  0  0  0  0
  188.7640  177.9090  142.3950 C   0  0  0  0  0  0  0  0  0  0  0  0
  190.8660  177.4190  145.4060 C   0  0  0  0  0  3  0  0  0  0  0  0
  187.7790  177.8950  140.4580 N   0  0  0  0  0  0  0  0  0  0  0  0
  188.9170  176.9920  146.9440 S   0  0  0  0  0  0  0  0  0  0  0  0
  189.7110  177.6820  144.6560 C   0  0  0  0  0  0  0  0  0  0  0  0
  182.5620  178.8260  143.9080 C   0  0  0  0  0  3  0  0  0  0  0  0
  185.3580  178.6830  143.9060 C   0  0  0  0  0  0  0  0  0  0  0  0
  184.6640  178.8460  145.1100 C   0  0  0  0  0  3  0  0  0  0  0  0
  183.2680  178.9160  145.1110 C   0  0  0  0  0  3  0  0  0  0  0  0
  183.2500  178.6650  142.7030 C   0  0  0  0  0  3  0  0  0  0  0  0
  184.6460  178.5950  142.7000 C   0  0  0  0  0  3  0  0  0  0  0  0
  192.4210  175.6120  147.5220 C   0  0  0  0  0  1  0  0  0  0  0  0
  191.5110  176.6890  147.6880 O   0  0  0  0  0  0  0  0  0  0  0  0
  1 14  1  0  0  0  0
  2 11  1  0  0  0  0
  3 19  1  0  0  0  0
  4 10  1  0  0  0  0
  5  7  2  0  0  0  0
  6  2  1  0  0  0  0
  7  8  1  0  0  0  0
  9 18  1  0  0  0  0
  9 27  1  0  0  0  0
 10  8  2  0  0  0  0
 10 13  1  0  0  0  0
 11 21  1  6  0  0  0
 11  1  1  0  0  0  0
 12  5  1  0  0  0  0
 12  4  2  0  0  0  0
 13 15  1  0  0  0  0
 14 18  1  0  0  0  0
 15  2  2  0  0  0  0
 15  3  1  0  0  0  0
 16  9  2  0  0  0  0
 17 13  1  0  0  0  0
 17  6  2  0  0  0  0
 19 14  2  0  0  0  0
 19 16  1  0  0  0  0
 20 23  1  0  0  0  0
 21 22  1  0  0  0  0
 22 23  2  0  0  0  0
 24 20  2  0  0  0  0
 25 24  1  0  0  0  0
 25 21  2  0  0  0  0
 26 27  1  0  0  0  0
M  END
>  <MODEL>
7

>  <REMARK>
 VINA RESULT:      -8.7      3.156      5.810
  Name = 
  2 active torsions:
  status: ('A' for Active; 'I' for Inactive)
    1  A    between atoms: C_9  and  C_15
    2  A    between atoms: C_13  and  O_22
                            x       y       z     vdW  Elec       q    Type
                         _______ _______ _______ _____ _____    ______ ____

>  <TORSDO>
F 2

$$$$
=
 OpenBabel10272401143D

 27 31  0  0  1  0  0  0  0  0999 V2000
  190.8420  176.9650  142.7870 N   0  0  0  0  0  2  0  0  0  0  0  0
  188.6540  177.4700  141.7740 C   0  0  0  0  0  0  0  0  0  0  0  0
  188.1900  177.2770  144.2260 N   0  0  0  0  0  2  0  0  0  0  0  0
  184.4580  179.0920  142.7370 N   0  0  0  0  0  0  0  0  0  0  0  0
  183.3570  179.2900  144.8460 C   0  0  0  0  0  3  0  0  0  0  0  0
  187.8850  177.9120  140.7060 C   0  0  0  0  0  3  0  0  0  0  0  0
  184.4770  178.7430  145.4720 C   0  0  0  0  0  3  0  0  0  0  0  0
  185.5870  178.3740  144.7120 C   0  0  0  0  0  3  0  0  0  0  0  0
  190.8300  176.9080  146.5320 C   0  0  0  0  0  0  0  0  0  0  0  0
  185.5660  178.5540  143.3210 C   0  0  0  0  0  0  0  0  0  0  0  0
  189.9040  176.6550  141.7130 C   0  0  1  0  0  3  0  0  0  0  0  0
  183.3670  179.4580  143.4610 C   0  0  0  0  0  3  0  0  0  0  0  0
  186.6920  178.1880  142.5010 N   0  0  0  0  0  0  0  0  0  0  0  0
  190.6000  177.0530  144.0610 C   0  0  0  0  0  0  0  0  0  0  0  0
  187.8610  177.6320  142.8790 C   0  0  0  0  0  0  0  0  0  0  0  0
  189.5000  176.9250  146.1260 C   0  0  0  0  0  3  0  0  0  0  0  0
  186.7080  178.3620  141.1880 N   0  0  0  0  0  0  0  0  0  0  0  0
  191.8380  177.0230  145.1970 S   0  0  0  0  0  0  0  0  0  0  0  0
  189.3630  177.0300  144.7350 C   0  0  0  0  0  0  0  0  0  0  0  0
  191.9330  176.9130  137.9310 C   0  0  0  0  0  3  0  0  0  0  0  0
  190.5970  176.7480  140.3860 C   0  0  0  0  0  0  0  0  0  0  0  0
  191.9180  177.2050  140.3350 C   0  0  0  0  0  3  0  0  0  0  0  0
  192.5850  177.2890  139.1090 C   0  0  0  0  0  3  0  0  0  0  0  0
  190.6140  176.4540  137.9780 C   0  0  0  0  0  3  0  0  0  0  0  0
  189.9460  176.3700  139.2030 C   0  0  0  0  0  3  0  0  0  0  0  0
  192.3780  175.9910  148.2110 C   0  0  0  0  0  1  0  0  0  0  0  0
  191.2840  176.8200  147.8480 O   0  0  0  0  0  0  0  0  0  0  0  0
  1 14  1  0  0  0  0
  2 15  2  0  0  0  0
  3 19  1  0  0  0  0
  4 10  2  0  0  0  0
  4 12  1  0  0  0  0
  5  7  1  0  0  0  0
  6 17  2  0  0  0  0
  6  2  1  0  0  0  0
  8  7  2  0  0  0  0
  9 27  1  0  0  0  0
 10  8  1  0  0  0  0
 11 21  1  6  0  0  0
 11  2  1  0  0  0  0
 11  1  1  0  0  0  0
 12  5  2  0  0  0  0
 13 15  1  0  0  0  0
 13 10  1  0  0  0  0
 14 19  2  0  0  0  0
 14 18  1  0  0  0  0
 15  3  1  0  0  0  0
 16  9  2  0  0  0  0
 17 13  1  0  0  0  0
 18  9  1  0  0  0  0
 19 16  1  0  0  0  0
 20 24  2  0  0  0  0
 20 23  1  0  0  0  0
 22 21  1  0  0  0  0
 23 22  2  0  0  0  0
 24 25  1  0  0  0  0
 25 21  2  0  0  0  0
 27 26  1  0  0  0  0
M  END
>  <MODEL>
8

>  <REMARK>
 VINA RESULT:      -8.7      3.445      7.329
  Name = 
  2 active torsions:
  status: ('A' for Active; 'I' for Inactive)
    1  A    between atoms: C_9  and  C_15
    2  A    between atoms: C_13  and  O_22
                            x       y       z     vdW  Elec       q    Type
                         _______ _______ _______ _____ _____    ______ ____

>  <TORSDO>
F 2

$$$$
=
 OpenBabel10272401143D

 27 31  0  0  1  0  0  0  0  0999 V2000
  186.5640  178.2340  141.6820 N   0  0  0  0  0  2  0  0  0  0  0  0
  186.7590  177.7410  144.0870 C   0  0  0  0  0  0  0  0  0  0  0  0
  188.9310  176.9790  143.1040 N   0  0  0  0  0  2  0  0  0  0  0  0
  189.8190  176.9180  147.4220 N   0  0  0  0  0  0  0  0  0  0  0  0
  192.0980  176.2300  147.2520 C   0  0  0  0  0  3  0  0  0  0  0  0
  186.3260  177.9000  145.3960 C   0  0  0  0  0  3  0  0  0  0  0  0
  191.9820  176.2200  145.8610 C   0  0  0  0  0  3  0  0  0  0  0  0
  190.7690  176.5640  145.2630 C   0  0  0  0  0  3  0  0  0  0  0  0
  189.6970  177.6190  139.7240 C   0  0  0  0  0  0  0  0  0  0  0  0
  189.6750  176.9170  146.0670 C   0  0  0  0  0  0  0  0  0  0  0  0
  185.9140  177.6670  142.8580 C   0  0  1  0  0  3  0  0  0  0  0  0
  190.9920  176.5860  148.0240 C   0  0  0  0  0  3  0  0  0  0  0  0
  188.4070  177.2800  145.4880 N   0  0  0  0  0  0  0  0  0  0  0  0
  187.7630  178.0000  141.2380 C   0  0  0  0  0  0  0  0  0  0  0  0
  188.0600  177.3240  144.1860 C   0  0  0  0  0  0  0  0  0  0  0  0
  189.8840  177.0380  140.9740 C   0  0  0  0  0  3  0  0  0  0  0  0
  187.3620  177.6340  146.2200 N   0  0  0  0  0  0  0  0  0  0  0  0
  188.2210  178.4140  139.6760 S   0  0  0  0  0  0  0  0  0  0  0  0
  188.8070  177.2690  141.8400 C   0  0  0  0  0  0  0  0  0  0  0  0
  182.0160  179.4120  143.3570 C   0  0  0  0  0  3  0  0  0  0  0  0
  184.5600  178.2870  143.0420 C   0  0  0  0  0  0  0  0  0  0  0  0
  183.6320  178.2270  141.9970 C   0  0  0  0  0  3  0  0  0  0  0  0
  182.3620  178.7900  142.1530 C   0  0  0  0  0  3  0  0  0  0  0  0
  182.9380  179.4720  144.4040 C   0  0  0  0  0  3  0  0  0  0  0  0
  184.2090  178.9100  144.2490 C   0  0  0  0  0  3  0  0  0  0  0  0
  190.2050  177.1060  137.3710 C   0  0  0  0  0  1  0  0  0  0  0  0
  190.5920  177.5700  138.6550 O   0  0  0  0  0  0  0  0  0  0  0  0
  1 11  1  0  0  0  0
  2 15  2  0  0  0  0
  2  6  1  0  0  0  0
  3 15  1  0  0  0  0
  4 12  1  0  0  0  0
  5 12  2  0  0  0  0
  6 17  2  0  0  0  0
  7  5  1  0  0  0  0
  8  7  2  0  0  0  0
  8 10  1  0  0  0  0
  9 16  2  0  0  0  0
 10  4  2  0  0  0  0
 11 21  1  1  0  0  0
 11  2  1  0  0  0  0
 13 10  1  0  0  0  0
 13 17  1  0  0  0  0
 14  1  1  0  0  0  0
 14 19  2  0  0  0  0
 15 13  1  0  0  0  0
 16 19  1  0  0  0  0
 18  9  1  0  0  0  0
 18 14  1  0  0  0  0
 19  3  1  0  0  0  0
 20 24  1  0  0  0  0
 21 25  1  0  0  0  0
 22 23  1  0  0  0  0
 22 21  2  0  0  0  0
 23 20  2  0  0  0  0
 25 24  2  0  0  0  0
 26 27  1  0  0  0  0
 27  9  1  0  0  0  0
M  END
>  <MODEL>
9

>  <REMARK>
 VINA RESULT:      -8.7      2.991      6.975
  Name = 
  2 active torsions:
  status: ('A' for Active; 'I' for Inactive)
    1  A    between atoms: C_9  and  C_15
    2  A    between atoms: C_13  and  O_22
                            x       y       z     vdW  Elec       q    Type
                         _______ _______ _______ _____ _____    ______ ____

>  <TORSDO>
F 2

$$$$
