=
 OpenBabel10272414283D

 43 47  0  0  1  0  0  0  0  0999 V2000
  185.6870  178.6340  143.2410 C   0  0  0  0  0  0  0  0  0  0  0  0
  188.1300  177.5510  142.3730 C   0  0  0  0  0  0  0  0  0  0  0  0
  184.9480  178.4310  145.9480 C   0  0  0  0  0  0  0  0  0  0  0  0
  186.1710  177.8830  145.5240 C   0  0  0  0  0  0  0  0  0  0  0  0
  184.5590  178.3530  147.2810 O   0  0  0  0  0  1  0  0  0  0  0  0
  187.7570  177.4480  143.7120 C   0  0  0  0  0  3  0  0  0  0  0  0
  186.5430  177.9810  144.1650 C   0  0  0  0  0  0  0  0  0  0  0  0
  184.4730  179.1710  143.6930 C   0  0  0  0  0  3  0  0  0  0  0  0
  186.0680  178.7420  141.8870 C   0  0  0  0  0  0  0  0  0  0  0  0
  187.2870  178.2030  141.4650 C   0  0  0  0  0  3  0  0  0  0  0  0
  184.1080  179.0690  145.0340 C   0  0  0  0  0  3  0  0  0  0  0  0
  189.4550  177.0000  141.9500 C   0  0  1  0  0  3  0  0  0  0  0  0
  189.8920  175.8440  142.8360 C   0  0  0  0  0  1  0  0  0  0  0  0
  189.4250  176.5820  140.4880 C   0  0  0  0  0  2  0  0  0  0  0  0
  190.6570  177.0510  139.7830 C   0  0  0  0  0  0  0  0  0  0  0  0
  191.5630  177.5680  140.4170 O   0  0  0  0  0  0  0  0  0  0  0  0
  190.8040  176.8300  138.3000 C   0  0  0  0  0  2  0  0  0  0  0  0
  189.5290  176.6690  137.5770 N   0  0  0  0  0  0  0  0  0  0  0  0
  188.9580  179.0190  137.2550 C   0  0  0  0  0  2  0  0  0  0  0  0
  189.3620  177.7210  136.5760 C   0  0  0  0  0  3  0  0  0  0  0  0
  187.9150  178.1810  136.5490 C   0  0  0  0  0  2  0  0  0  0  0  0
  189.4380  175.1070  136.8060 S   0  0  0  0  0  0  0  0  0  0  0  0
  189.8900  175.2040  135.3750 O   0  0  0  0  0  0  0  0  0  0  0  0
  190.3120  174.1250  137.5380 O   0  0  0  0  0  0  0  0  0  0  0  0
  187.7520  174.5280  136.8430 C   0  0  0  0  0  3  0  0  0  0  0  0
  186.4730  172.3370  136.4480 C   0  0  0  0  0  2  0  0  0  0  0  0
  185.5390  174.5350  135.6230 C   0  0  0  0  0  2  0  0  0  0  0  0
  185.2750  173.2800  136.4680 C   0  0  0  0  0  2  0  0  0  0  0  0
  187.0180  174.9390  135.5680 C   0  0  0  0  0  2  0  0  0  0  0  0
  187.7170  173.0060  137.0480 C   0  0  0  0  0  2  0  0  0  0  0  0
  185.1850  179.3990  140.8690 C   0  0  0  0  0  2  0  0  0  0  0  0
  182.8230  176.6290  139.8110 C   0  0  0  0  0  3  0  0  0  0  0  0
  183.2170  176.4210  138.4850 C   0  0  0  0  0  0  0  0  0  0  0  0
  184.8790  178.1700  138.7080 C   0  0  0  0  0  3  0  0  0  0  0  0
  183.4590  177.6030  140.5860 C   0  0  0  0  0  3  0  0  0  0  0  0
  184.4880  178.3760  140.0350 C   0  0  0  0  0  0  0  0  0  0  0  0
  184.2430  177.1960  137.9320 C   0  0  0  0  0  3  0  0  0  0  0  0
  182.5280  175.3940  137.6550 C   0  0  0  0  0  2  0  0  0  0  0  0
  181.7130  176.0610  136.5640 C   0  0  0  0  0  1  0  0  0  0  0  0
  187.0540  177.1900  146.5260 C   0  0  0  0  0  2  0  0  0  0  0  0
  188.1580  178.1110  147.0280 C   0  0  0  0  0  2  0  0  0  0  0  0
  189.4690  177.4620  146.9140 C   0  0  0  0  0  0  0  0  0  0  0  0
  190.5470  176.9300  146.8200 C   0  0  0  0  0  3  0  0  0  0  0  0
  1  8  1  0  0  0  0
  1  7  1  0  0  0  0
  2  6  1  0  0  0  0
  3  5  1  0  0  0  0
  4  3  2  0  0  0  0
  4 40  1  0  0  0  0
  6  7  2  0  0  0  0
  7  4  1  0  0  0  0
  8 11  2  0  0  0  0
  9  1  2  0  0  0  0
 10  9  1  0  0  0  0
 10  2  2  0  0  0  0
 11  3  1  0  0  0  0
 12  2  1  0  0  0  0
 12 13  1  1  0  0  0
 14 12  1  0  0  0  0
 15 16  2  0  0  0  0
 15 14  1  0  0  0  0
 17 15  1  0  0  0  0
 18 17  1  0  0  0  0
 20 19  1  0  0  0  0
 20 18  1  0  0  0  0
 21 20  1  0  0  0  0
 21 19  1  0  0  0  0
 22 25  1  0  0  0  0
 22 24  2  0  0  0  0
 22 18  1  0  0  0  0
 23 22  2  0  0  0  0
 25 30  1  0  0  0  0
 26 28  1  0  0  0  0
 26 30  1  0  0  0  0
 27 28  1  0  0  0  0
 29 27  1  0  0  0  0
 29 25  1  0  0  0  0
 31  9  1  0  0  0  0
 32 35  1  0  0  0  0
 33 32  2  0  0  0  0
 34 36  1  0  0  0  0
 36 35  2  0  0  0  0
 36 31  1  0  0  0  0
 37 33  1  0  0  0  0
 37 34  2  0  0  0  0
 38 33  1  0  0  0  0
 39 38  1  0  0  0  0
 40 41  1  0  0  0  0
 42 41  1  0  0  0  0
 43 42  3  0  0  0  0
M  END
>  <MODEL>
1

>  <REMARK>
 VINA RESULT:      -8.3      0.000      0.000
  Name = 
  14 active torsions:
  status: ('A' for Active; 'I' for Inactive)
    1  A    between atoms: C_1  and  C_34
    2  A    between atoms: C_1  and  C_35
    3  A    between atoms: C_2  and  C_6
    4  A    between atoms: C_2  and  C_13
    5  A    between atoms: C_3  and  N_4
    6  A    between atoms: C_3  and  C_12
    7  A    between atoms: N_4  and  S_14
    8  A    between atoms: N_4  and  C_15
    9  A    between atoms: C_5  and  C_18
   10  A    between atoms: C_6  and  C_12
   11  A    between atoms: C_11  and  S_14
   12  A    between atoms: C_18  and  C_24
   13  A    between atoms: C_19  and  C_25
   14  A    between atoms: C_21  and  C_24
                            x       y       z     vdW  Elec       q    Type
                         _______ _______ _______ _____ _____    ______ ____

>  <TORSDO>
F 14

$$$$
=
 OpenBabel10272414283D

 43 47  0  0  1  0  0  0  0  0999 V2000
  186.5340  178.1920  145.3490 C   0  0  0  0  0  0  0  0  0  0  0  0
  186.8840  178.0900  142.5620 C   0  0  0  0  0  0  0  0  0  0  0  0
  188.6300  177.4060  147.0520 C   0  0  0  0  0  0  0  0  0  0  0  0
  188.8150  177.3480  145.6600 C   0  0  0  0  0  0  0  0  0  0  0  0
  189.6500  177.0300  147.9200 O   0  0  0  0  0  1  0  0  0  0  0  0
  187.9180  177.6970  143.4110 C   0  0  0  0  0  3  0  0  0  0  0  0
  187.7630  177.7390  144.8030 C   0  0  0  0  0  0  0  0  0  0  0  0
  186.3790  178.2380  146.7410 C   0  0  0  0  0  3  0  0  0  0  0  0
  185.4900  178.5940  144.4890 C   0  0  0  0  0  0  0  0  0  0  0  0
  185.6760  178.5440  143.1040 C   0  0  0  0  0  3  0  0  0  0  0  0
  187.4180  177.8470  147.5840 C   0  0  0  0  0  3  0  0  0  0  0  0
  187.1160  178.0630  141.0850 C   0  0  1  0  0  3  0  0  0  0  0  0
  185.9550  178.6790  140.3210 C   0  0  0  0  0  1  0  0  0  0  0  0
  188.4250  178.7520  140.7300 C   0  0  0  0  0  2  0  0  0  0  0  0
  188.9330  178.2650  139.4120 C   0  0  0  0  0  0  0  0  0  0  0  0
  189.0680  179.0460  138.4830 O   0  0  0  0  0  0  0  0  0  0  0  0
  189.3370  176.8230  139.2490 C   0  0  0  0  0  2  0  0  0  0  0  0
  190.0420  176.5230  137.9900 N   0  0  0  0  0  0  0  0  0  0  0  0
  192.4290  176.6780  138.4670 C   0  0  0  0  0  2  0  0  0  0  0  0
  191.2520  175.7430  138.2420 C   0  0  0  0  0  3  0  0  0  0  0  0
  192.2610  175.9840  137.1340 C   0  0  0  0  0  2  0  0  0  0  0  0
  189.0080  175.6590  136.8820 S   0  0  0  0  0  0  0  0  0  0  0  0
  189.2540  176.1180  135.4720 O   0  0  0  0  0  0  0  0  0  0  0  0
  189.2800  174.1820  136.9770 O   0  0  0  0  0  0  0  0  0  0  0  0
  187.3020  175.9670  137.3020 C   0  0  0  0  0  3  0  0  0  0  0  0
  184.9920  174.9930  136.7520 C   0  0  0  0  0  2  0  0  0  0  0  0
  185.3250  177.4930  136.9200 C   0  0  0  0  0  2  0  0  0  0  0  0
  184.5250  176.2820  137.4220 C   0  0  0  0  0  2  0  0  0  0  0  0
  186.7610  177.1490  136.5020 C   0  0  0  0  0  2  0  0  0  0  0  0
  186.4620  174.7010  137.0770 C   0  0  0  0  0  2  0  0  0  0  0  0
  184.1650  179.0540  145.0180 C   0  0  0  0  0  2  0  0  0  0  0  0
  182.4030  178.6360  141.6870 C   0  0  0  0  0  3  0  0  0  0  0  0
  181.0690  178.5180  142.0930 C   0  0  0  0  0  0  0  0  0  0  0  0
  181.7590  178.7260  144.4060 C   0  0  0  0  0  3  0  0  0  0  0  0
  183.4120  178.8050  142.6390 C   0  0  0  0  0  3  0  0  0  0  0  0
  183.0910  178.8490  144.0010 C   0  0  0  0  0  0  0  0  0  0  0  0
  180.7480  178.5580  143.4540 C   0  0  0  0  0  3  0  0  0  0  0  0
  179.9960  178.3230  141.0790 C   0  0  0  0  0  2  0  0  0  0  0  0
  180.5920  177.8480  139.7680 C   0  0  0  0  0  1  0  0  0  0  0  0
  190.1270  176.8570  145.1110 C   0  0  0  0  0  2  0  0  0  0  0  0
  190.9780  178.0070  144.5880 C   0  0  0  0  0  2  0  0  0  0  0  0
  191.4060  177.7510  143.2090 C   0  0  0  0  0  0  0  0  0  0  0  0
  191.7560  177.5420  142.0740 C   0  0  0  0  0  3  0  0  0  0  0  0
  1  8  1  0  0  0  0
  2 10  2  0  0  0  0
  2  6  1  0  0  0  0
  3 11  1  0  0  0  0
  3  5  1  0  0  0  0
  4  3  2  0  0  0  0
  6  7  2  0  0  0  0
  7  1  1  0  0  0  0
  7  4  1  0  0  0  0
  8 11  2  0  0  0  0
  9 31  1  0  0  0  0
  9  1  2  0  0  0  0
 10  9  1  0  0  0  0
 12 13  1  6  0  0  0
 12  2  1  0  0  0  0
 14 12  1  0  0  0  0
 15 14  1  0  0  0  0
 16 15  2  0  0  0  0
 17 15  1  0  0  0  0
 18 20  1  0  0  0  0
 18 17  1  0  0  0  0
 20 19  1  0  0  0  0
 21 20  1  0  0  0  0
 21 19  1  0  0  0  0
 22 24  2  0  0  0  0
 22 25  1  0  0  0  0
 22 18  1  0  0  0  0
 23 22  2  0  0  0  0
 26 30  1  0  0  0  0
 26 28  1  0  0  0  0
 27 28  1  0  0  0  0
 29 27  1  0  0  0  0
 29 25  1  0  0  0  0
 30 25  1  0  0  0  0
 32 33  2  0  0  0  0
 32 35  1  0  0  0  0
 33 37  1  0  0  0  0
 35 36  2  0  0  0  0
 36 34  1  0  0  0  0
 36 31  1  0  0  0  0
 37 34  2  0  0  0  0
 38 33  1  0  0  0  0
 39 38  1  0  0  0  0
 40  4  1  0  0  0  0
 41 40  1  0  0  0  0
 42 41  1  0  0  0  0
 43 42  3  0  0  0  0
M  END
>  <MODEL>
2

>  <REMARK>
 VINA RESULT:      -7.7      1.930      3.531
  Name = 
  14 active torsions:
  status: ('A' for Active; 'I' for Inactive)
    1  A    between atoms: C_1  and  C_34
    2  A    between atoms: C_1  and  C_35
    3  A    between atoms: C_2  and  C_6
    4  A    between atoms: C_2  and  C_13
    5  A    between atoms: C_3  and  N_4
    6  A    between atoms: C_3  and  C_12
    7  A    between atoms: N_4  and  S_14
    8  A    between atoms: N_4  and  C_15
    9  A    between atoms: C_5  and  C_18
   10  A    between atoms: C_6  and  C_12
   11  A    between atoms: C_11  and  S_14
   12  A    between atoms: C_18  and  C_24
   13  A    between atoms: C_19  and  C_25
   14  A    between atoms: C_21  and  C_24
                            x       y       z     vdW  Elec       q    Type
                         _______ _______ _______ _____ _____    ______ ____

>  <TORSDO>
F 14

$$$$
=
 OpenBabel10272414283D

 43 47  0  0  1  0  0  0  0  0999 V2000
  186.0700  178.3400  143.4310 C   0  0  0  0  0  0  0  0  0  0  0  0
  187.8500  178.1290  141.2650 C   0  0  0  0  0  0  0  0  0  0  0  0
  186.9070  177.5830  146.0080 C   0  0  0  0  0  0  0  0  0  0  0  0
  187.8030  177.4700  144.9320 C   0  0  0  0  0  0  0  0  0  0  0  0
  187.2930  177.2230  147.2950 O   0  0  0  0  0  1  0  0  0  0  0  0
  188.2570  177.7500  142.5440 C   0  0  0  0  0  3  0  0  0  0  0  0
  187.3850  177.8470  143.6370 C   0  0  0  0  0  0  0  0  0  0  0  0
  185.1980  178.4410  144.5240 C   0  0  0  0  0  3  0  0  0  0  0  0
  185.6610  178.7270  142.1380 C   0  0  0  0  0  0  0  0  0  0  0  0
  186.5540  178.6220  141.0680 C   0  0  0  0  0  3  0  0  0  0  0  0
  185.6140  178.0640  145.8000 C   0  0  0  0  0  3  0  0  0  0  0  0
  188.8330  178.0430  140.1420 C   0  0  1  0  0  3  0  0  0  0  0  0
  189.9850  177.1080  140.4720 C   0  0  0  0  0  1  0  0  0  0  0  0
  188.1440  177.6210  138.8520 C   0  0  0  0  0  2  0  0  0  0  0  0
  188.5930  178.4800  137.7140 C   0  0  0  0  0  0  0  0  0  0  0  0
  188.9360  179.6340  137.9170 O   0  0  0  0  0  0  0  0  0  0  0  0
  188.6790  177.9000  136.3260 C   0  0  0  0  0  2  0  0  0  0  0  0
  187.9880  176.6090  136.1580 N   0  0  0  0  0  0  0  0  0  0  0  0
  185.7130  177.2250  135.5300 C   0  0  0  0  0  2  0  0  0  0  0  0
  187.0400  176.6650  135.0470 C   0  0  0  0  0  3  0  0  0  0  0  0
  185.8710  175.7360  135.3200 C   0  0  0  0  0  2  0  0  0  0  0  0
  189.1290  175.3170  135.8910 S   0  0  0  0  0  0  0  0  0  0  0  0
  188.7720  174.1230  136.7330 O   0  0  0  0  0  0  0  0  0  0  0  0
  189.1200  174.9200  134.4400 O   0  0  0  0  0  0  0  0  0  0  0  0
  190.7650  175.8710  136.3350 C   0  0  0  0  0  3  0  0  0  0  0  0
  193.1720  175.6020  135.4840 C   0  0  0  0  0  2  0  0  0  0  0  0
  192.6750  175.5740  137.9620 C   0  0  0  0  0  2  0  0  0  0  0  0
  193.4940  176.2250  136.8380 C   0  0  0  0  0  2  0  0  0  0  0  0
  191.3100  175.0490  137.5000 C   0  0  0  0  0  2  0  0  0  0  0  0
  191.6970  175.8080  135.1160 C   0  0  0  0  0  2  0  0  0  0  0  0
  184.2750  179.2290  141.8660 C   0  0  0  0  0  2  0  0  0  0  0  0
  182.7880  176.7300  139.4330 C   0  0  0  0  0  3  0  0  0  0  0  0
  182.7590  177.4780  138.2510 C   0  0  0  0  0  0  0  0  0  0  0  0
  183.6980  179.3730  139.4330 C   0  0  0  0  0  3  0  0  0  0  0  0
  183.2760  177.3010  140.6120 C   0  0  0  0  0  3  0  0  0  0  0  0
  183.7310  178.6250  140.6140 C   0  0  0  0  0  0  0  0  0  0  0  0
  183.2110  178.8020  138.2530 C   0  0  0  0  0  3  0  0  0  0  0  0
  182.2260  176.8730  136.9990 C   0  0  0  0  0  2  0  0  0  0  0  0
  182.0310  177.9430  135.9420 C   0  0  0  0  0  1  0  0  0  0  0  0
  189.1880  176.9370  145.1800 C   0  0  0  0  0  2  0  0  0  0  0  0
  190.1390  178.0410  145.6240 C   0  0  0  0  0  2  0  0  0  0  0  0
  190.9930  178.4700  144.5110 C   0  0  0  0  0  0  0  0  0  0  0  0
  191.6940  178.8220  143.5950 C   0  0  0  0  0  3  0  0  0  0  0  0
  1  7  1  0  0  0  0
  1  8  1  0  0  0  0
  2  6  1  0  0  0  0
  3  5  1  0  0  0  0
  4 40  1  0  0  0  0
  4  3  2  0  0  0  0
  6  7  2  0  0  0  0
  7  4  1  0  0  0  0
  8 11  2  0  0  0  0
  9  1  2  0  0  0  0
 10  2  2  0  0  0  0
 10  9  1  0  0  0  0
 11  3  1  0  0  0  0
 12 13  1  1  0  0  0
 12  2  1  0  0  0  0
 14 12  1  0  0  0  0
 15 16  2  0  0  0  0
 15 14  1  0  0  0  0
 17 15  1  0  0  0  0
 18 17  1  0  0  0  0
 20 21  1  0  0  0  0
 20 19  1  0  0  0  0
 20 18  1  0  0  0  0
 21 19  1  0  0  0  0
 22 18  1  0  0  0  0
 22 25  1  0  0  0  0
 22 23  2  0  0  0  0
 24 22  2  0  0  0  0
 25 29  1  0  0  0  0
 26 28  1  0  0  0  0
 28 27  1  0  0  0  0
 29 27  1  0  0  0  0
 30 26  1  0  0  0  0
 30 25  1  0  0  0  0
 31  9  1  0  0  0  0
 32 35  1  0  0  0  0
 33 37  1  0  0  0  0
 33 32  2  0  0  0  0
 34 36  1  0  0  0  0
 35 36  2  0  0  0  0
 36 31  1  0  0  0  0
 37 34  2  0  0  0  0
 38 33  1  0  0  0  0
 39 38  1  0  0  0  0
 40 41  1  0  0  0  0
 42 41  1  0  0  0  0
 43 42  3  0  0  0  0
M  END
>  <MODEL>
3

>  <REMARK>
 VINA RESULT:      -7.7      1.889      3.225
  Name = 
  14 active torsions:
  status: ('A' for Active; 'I' for Inactive)
    1  A    between atoms: C_1  and  C_34
    2  A    between atoms: C_1  and  C_35
    3  A    between atoms: C_2  and  C_6
    4  A    between atoms: C_2  and  C_13
    5  A    between atoms: C_3  and  N_4
    6  A    between atoms: C_3  and  C_12
    7  A    between atoms: N_4  and  S_14
    8  A    between atoms: N_4  and  C_15
    9  A    between atoms: C_5  and  C_18
   10  A    between atoms: C_6  and  C_12
   11  A    between atoms: C_11  and  S_14
   12  A    between atoms: C_18  and  C_24
   13  A    between atoms: C_19  and  C_25
   14  A    between atoms: C_21  and  C_24
                            x       y       z     vdW  Elec       q    Type
                         _______ _______ _______ _____ _____    ______ ____

>  <TORSDO>
F 14

$$$$
=
 OpenBabel10272414283D

 43 47  0  0  1  0  0  0  0  0999 V2000
  189.8490  177.3950  143.6620 C   0  0  0  0  0  0  0  0  0  0  0  0
  187.1270  177.8810  143.1530 C   0  0  0  0  0  0  0  0  0  0  0  0
  190.6900  176.7340  146.2640 C   0  0  0  0  0  0  0  0  0  0  0  0
  189.3270  176.9780  146.0210 C   0  0  0  0  0  0  0  0  0  0  0  0
  191.1350  176.3980  147.5380 O   0  0  0  0  0  1  0  0  0  0  0  0
  187.5500  177.5580  144.4420 C   0  0  0  0  0  3  0  0  0  0  0  0
  188.9020  177.3130  144.7160 C   0  0  0  0  0  0  0  0  0  0  0  0
  191.2010  177.1470  143.9340 C   0  0  0  0  0  3  0  0  0  0  0  0
  189.4190  177.7170  142.3570 C   0  0  0  0  0  0  0  0  0  0  0  0
  188.0620  177.9530  142.1140 C   0  0  0  0  0  3  0  0  0  0  0  0
  191.6160  176.8200  145.2240 C   0  0  0  0  0  3  0  0  0  0  0  0
  185.6680  178.0940  142.9070 C   0  0  1  0  0  3  0  0  0  0  0  0
  184.8920  178.2350  144.2070 C   0  0  0  0  0  1  0  0  0  0  0  0
  185.4420  179.2990  142.0060 C   0  0  0  0  0  2  0  0  0  0  0  0
  184.7270  178.8930  140.7580 C   0  0  0  0  0  0  0  0  0  0  0  0
  184.8190  179.5770  139.7510 O   0  0  0  0  0  0  0  0  0  0  0  0
  183.9430  177.6060  140.7270 C   0  0  0  0  0  2  0  0  0  0  0  0
  182.4840  177.7820  140.6150 N   0  0  0  0  0  0  0  0  0  0  0  0
  181.5900  178.9390  142.5680 C   0  0  0  0  0  2  0  0  0  0  0  0
  182.0740  179.0850  141.1350 C   0  0  0  0  0  3  0  0  0  0  0  0
  180.5880  179.0730  141.4430 C   0  0  0  0  0  2  0  0  0  0  0  0
  181.9570  177.6180  138.9610 S   0  0  0  0  0  0  0  0  0  0  0  0
  180.5930  176.9870  138.9070 O   0  0  0  0  0  0  0  0  0  0  0  0
  181.9020  178.9720  138.3070 O   0  0  0  0  0  0  0  0  0  0  0  0
  183.1080  176.5870  138.0720 C   0  0  0  0  0  3  0  0  0  0  0  0
  184.0640  176.3940  135.6980 C   0  0  0  0  0  2  0  0  0  0  0  0
  183.4550  174.3210  137.0100 C   0  0  0  0  0  2  0  0  0  0  0  0
  184.5600  175.0550  136.2360 C   0  0  0  0  0  2  0  0  0  0  0  0
  182.4520  175.2620  137.6880 C   0  0  0  0  0  2  0  0  0  0  0  0
  183.6450  177.3290  136.8390 C   0  0  0  0  0  2  0  0  0  0  0  0
  190.3830  177.8420  141.2170 C   0  0  0  0  0  2  0  0  0  0  0  0
  189.3650  176.1630  137.9740 C   0  0  0  0  0  3  0  0  0  0  0  0
  188.4590  177.0930  137.4520 C   0  0  0  0  0  0  0  0  0  0  0  0
  188.7930  178.5000  139.3970 C   0  0  0  0  0  3  0  0  0  0  0  0
  189.9870  176.4030  139.2020 C   0  0  0  0  0  3  0  0  0  0  0  0
  189.7010  177.5720  139.9170 C   0  0  0  0  0  0  0  0  0  0  0  0
  188.1700  178.2610  138.1680 C   0  0  0  0  0  3  0  0  0  0  0  0
  187.7860  176.8300  136.1510 C   0  0  0  0  0  2  0  0  0  0  0  0
  187.2740  178.1270  135.5530 C   0  0  0  0  0  1  0  0  0  0  0  0
  188.3490  176.8900  147.1610 C   0  0  0  0  0  2  0  0  0  0  0  0
  188.2380  178.2150  147.9040 C   0  0  0  0  0  2  0  0  0  0  0  0
  186.9400  178.8480  147.6460 C   0  0  0  0  0  0  0  0  0  0  0  0
  185.8730  179.3700  147.4340 C   0  0  0  0  0  3  0  0  0  0  0  0
  1  8  1  0  0  0  0
  1  7  1  0  0  0  0
  2  6  1  0  0  0  0
  3  5  1  0  0  0  0
  4  3  2  0  0  0  0
  4 40  1  0  0  0  0
  6  7  2  0  0  0  0
  7  4  1  0  0  0  0
  8 11  2  0  0  0  0
  9  1  2  0  0  0  0
 10  9  1  0  0  0  0
 10  2  2  0  0  0  0
 11  3  1  0  0  0  0
 12  2  1  0  0  0  0
 12 13  1  1  0  0  0
 14 12  1  0  0  0  0
 15 14  1  0  0  0  0
 16 15  2  0  0  0  0
 17 15  1  0  0  0  0
 18 17  1  0  0  0  0
 18 20  1  0  0  0  0
 20 21  1  0  0  0  0
 20 19  1  0  0  0  0
 21 19  1  0  0  0  0
 22 18  1  0  0  0  0
 23 22  2  0  0  0  0
 24 22  2  0  0  0  0
 25 22  1  0  0  0  0
 26 28  1  0  0  0  0
 26 30  1  0  0  0  0
 27 29  1  0  0  0  0
 28 27  1  0  0  0  0
 29 25  1  0  0  0  0
 30 25  1  0  0  0  0
 31  9  1  0  0  0  0
 32 35  1  0  0  0  0
 33 32  2  0  0  0  0
 33 37  1  0  0  0  0
 34 36  1  0  0  0  0
 35 36  2  0  0  0  0
 36 31  1  0  0  0  0
 37 34  2  0  0  0  0
 38 33  1  0  0  0  0
 39 38  1  0  0  0  0
 40 41  1  0  0  0  0
 42 41  1  0  0  0  0
 43 42  3  0  0  0  0
M  END
>  <MODEL>
4

>  <REMARK>
 VINA RESULT:      -7.7      3.353      5.837
  Name = 
  14 active torsions:
  status: ('A' for Active; 'I' for Inactive)
    1  A    between atoms: C_1  and  C_34
    2  A    between atoms: C_1  and  C_35
    3  A    between atoms: C_2  and  C_6
    4  A    between atoms: C_2  and  C_13
    5  A    between atoms: C_3  and  N_4
    6  A    between atoms: C_3  and  C_12
    7  A    between atoms: N_4  and  S_14
    8  A    between atoms: N_4  and  C_15
    9  A    between atoms: C_5  and  C_18
   10  A    between atoms: C_6  and  C_12
   11  A    between atoms: C_11  and  S_14
   12  A    between atoms: C_18  and  C_24
   13  A    between atoms: C_19  and  C_25
   14  A    between atoms: C_21  and  C_24
                            x       y       z     vdW  Elec       q    Type
                         _______ _______ _______ _____ _____    ______ ____

>  <TORSDO>
F 14

$$$$
=
 OpenBabel10272414283D

 43 47  0  0  1  0  0  0  0  0999 V2000
  184.1040  178.6030  143.6680 C   0  0  0  0  0  0  0  0  0  0  0  0
  186.4640  178.4650  142.1470 C   0  0  0  0  0  0  0  0  0  0  0  0
  181.6170  178.8420  142.3740 C   0  0  0  0  0  0  0  0  0  0  0  0
  182.7910  178.7770  141.6050 C   0  0  0  0  0  0  0  0  0  0  0  0
  180.3720  178.9530  141.7640 O   0  0  0  0  0  1  0  0  0  0  0  0
  185.2290  178.5890  141.5110 C   0  0  0  0  0  3  0  0  0  0  0  0
  184.0410  178.6590  142.2510 C   0  0  0  0  0  0  0  0  0  0  0  0
  182.9160  178.6700  144.4100 C   0  0  0  0  0  3  0  0  0  0  0  0
  185.3530  178.4720  144.3100 C   0  0  0  0  0  0  0  0  0  0  0  0
  186.5210  178.4000  143.5440 C   0  0  0  0  0  3  0  0  0  0  0  0
  181.6850  178.7890  143.7670 C   0  0  0  0  0  3  0  0  0  0  0  0
  187.6970  178.3530  141.3080 C   0  0  1  0  0  3  0  0  0  0  0  0
  188.6760  177.3410  141.8790 C   0  0  0  0  0  1  0  0  0  0  0  0
  187.3420  178.0130  139.8680 C   0  0  0  0  0  2  0  0  0  0  0  0
  188.5470  178.1260  138.9920 C   0  0  0  0  0  0  0  0  0  0  0  0
  189.1030  179.2040  138.8520 O   0  0  0  0  0  0  0  0  0  0  0  0
  189.1110  176.8950  138.3300 C   0  0  0  0  0  2  0  0  0  0  0  0
  188.2990  176.3740  137.2150 N   0  0  0  0  0  0  0  0  0  0  0  0
  187.0200  178.1240  136.0970 C   0  0  0  0  0  2  0  0  0  0  0  0
  188.3000  177.3060  136.0890 C   0  0  0  0  0  3  0  0  0  0  0  0
  187.1680  176.9640  135.1370 C   0  0  0  0  0  2  0  0  0  0  0  0
  188.8830  174.8170  136.6880 S   0  0  0  0  0  0  0  0  0  0  0  0
  189.4550  174.9160  135.3010 O   0  0  0  0  0  0  0  0  0  0  0  0
  189.9500  174.3270  137.6300 O   0  0  0  0  0  0  0  0  0  0  0  0
  187.5330  173.6520  136.6770 C   0  0  0  0  0  3  0  0  0  0  0  0
  185.7580  172.7980  135.0300 C   0  0  0  0  0  2  0  0  0  0  0  0
  185.1650  173.2280  137.4500 C   0  0  0  0  0  2  0  0  0  0  0  0
  185.1690  172.2030  136.3050 C   0  0  0  0  0  2  0  0  0  0  0  0
  186.3060  174.2500  137.3610 C   0  0  0  0  0  2  0  0  0  0  0  0
  187.2200  173.2160  135.2380 C   0  0  0  0  0  2  0  0  0  0  0  0
  185.4730  178.4340  145.8030 C   0  0  0  0  0  2  0  0  0  0  0  0
  188.9750  176.9850  145.7000 C   0  0  0  0  0  3  0  0  0  0  0  0
  189.4230  177.2490  146.9990 C   0  0  0  0  0  0  0  0  0  0  0  0
  187.3030  178.3060  147.5090 C   0  0  0  0  0  3  0  0  0  0  0  0
  187.6920  177.3750  145.3080 C   0  0  0  0  0  3  0  0  0  0  0  0
  186.8530  178.0380  146.2120 C   0  0  0  0  0  0  0  0  0  0  0  0
  188.5860  177.9150  147.9020 C   0  0  0  0  0  3  0  0  0  0  0  0
  190.7960  176.8460  147.4110 C   0  0  0  0  0  2  0  0  0  0  0  0
  191.6390  176.5330  146.1900 C   0  0  0  0  0  1  0  0  0  0  0  0
  182.6920  178.8480  140.1050 C   0  0  0  0  0  2  0  0  0  0  0  0
  183.0400  177.5130  139.4600 C   0  0  0  0  0  2  0  0  0  0  0  0
  181.9490  176.5490  139.6380 C   0  0  0  0  0  0  0  0  0  0  0  0
  181.0510  175.7570  139.7860 C   0  0  0  0  0  3  0  0  0  0  0  0
  1  9  1  0  0  0  0
  1  8  1  0  0  0  0
  2 10  1  0  0  0  0
  3 11  1  0  0  0  0
  4  7  1  0  0  0  0
  4  3  2  0  0  0  0
  5  3  1  0  0  0  0
  6  2  2  0  0  0  0
  6  7  1  0  0  0  0
  7  1  2  0  0  0  0
  9 31  1  0  0  0  0
 10  9  2  0  0  0  0
 11  8  2  0  0  0  0
 12 13  1  1  0  0  0
 12  2  1  0  0  0  0
 14 12  1  0  0  0  0
 15 14  1  0  0  0  0
 16 15  2  0  0  0  0
 17 15  1  0  0  0  0
 18 17  1  0  0  0  0
 20 19  1  0  0  0  0
 20 18  1  0  0  0  0
 21 20  1  0  0  0  0
 21 19  1  0  0  0  0
 22 18  1  0  0  0  0
 22 24  2  0  0  0  0
 23 22  2  0  0  0  0
 25 22  1  0  0  0  0
 25 29  1  0  0  0  0
 26 30  1  0  0  0  0
 26 28  1  0  0  0  0
 28 27  1  0  0  0  0
 29 27  1  0  0  0  0
 30 25  1  0  0  0  0
 31 36  1  0  0  0  0
 32 33  1  0  0  0  0
 33 38  1  0  0  0  0
 33 37  2  0  0  0  0
 34 37  1  0  0  0  0
 35 32  2  0  0  0  0
 35 36  1  0  0  0  0
 36 34  2  0  0  0  0
 39 38  1  0  0  0  0
 40  4  1  0  0  0  0
 41 42  1  0  0  0  0
 41 40  1  0  0  0  0
 42 43  3  0  0  0  0
M  END
>  <MODEL>
5

>  <REMARK>
 VINA RESULT:      -7.6      1.791      5.850
  Name = 
  14 active torsions:
  status: ('A' for Active; 'I' for Inactive)
    1  A    between atoms: C_1  and  C_34
    2  A    between atoms: C_1  and  C_35
    3  A    between atoms: C_2  and  C_6
    4  A    between atoms: C_2  and  C_13
    5  A    between atoms: C_3  and  N_4
    6  A    between atoms: C_3  and  C_12
    7  A    between atoms: N_4  and  S_14
    8  A    between atoms: N_4  and  C_15
    9  A    between atoms: C_5  and  C_18
   10  A    between atoms: C_6  and  C_12
   11  A    between atoms: C_11  and  S_14
   12  A    between atoms: C_18  and  C_24
   13  A    between atoms: C_19  and  C_25
   14  A    between atoms: C_21  and  C_24
                            x       y       z     vdW  Elec       q    Type
                         _______ _______ _______ _____ _____    ______ ____

>  <TORSDO>
F 14

$$$$
=
 OpenBabel10272414283D

 43 47  0  0  1  0  0  0  0  0999 V2000
  184.0450  178.6980  143.8310 C   0  0  0  0  0  0  0  0  0  0  0  0
  186.3940  178.6250  142.2900 C   0  0  0  0  0  0  0  0  0  0  0  0
  181.5390  178.8200  142.5590 C   0  0  0  0  0  0  0  0  0  0  0  0
  182.7080  178.7880  141.7790 C   0  0  0  0  0  0  0  0  0  0  0  0
  180.2850  178.8740  141.9590 O   0  0  0  0  0  1  0  0  0  0  0  0
  185.1500  178.6910  141.6650 C   0  0  0  0  0  3  0  0  0  0  0  0
  183.9670  178.7290  142.4150 C   0  0  0  0  0  0  0  0  0  0  0  0
  182.8620  178.7320  144.5840 C   0  0  0  0  0  3  0  0  0  0  0  0
  185.3040  178.6260  144.4630 C   0  0  0  0  0  0  0  0  0  0  0  0
  186.4670  178.5860  143.6880 C   0  0  0  0  0  3  0  0  0  0  0  0
  181.6220  178.7940  143.9520 C   0  0  0  0  0  3  0  0  0  0  0  0
  187.6230  178.5470  141.4410 C   0  0  1  0  0  3  0  0  0  0  0  0
  188.6500  177.5910  142.0250 C   0  0  0  0  0  1  0  0  0  0  0  0
  187.2690  178.1590  140.0130 C   0  0  0  0  0  2  0  0  0  0  0  0
  188.4990  178.1110  139.1640 C   0  0  0  0  0  0  0  0  0  0  0  0
  189.0060  179.1460  138.7640 O   0  0  0  0  0  0  0  0  0  0  0  0
  189.1460  176.7850  138.8560 C   0  0  0  0  0  2  0  0  0  0  0  0
  189.9840  176.7820  137.6430 N   0  0  0  0  0  0  0  0  0  0  0  0
  192.3010  176.5410  138.3670 C   0  0  0  0  0  2  0  0  0  0  0  0
  191.0910  175.8360  137.7770 C   0  0  0  0  0  3  0  0  0  0  0  0
  192.2410  176.2600  136.8820 C   0  0  0  0  0  2  0  0  0  0  0  0
  189.0410  176.3850  136.2300 S   0  0  0  0  0  0  0  0  0  0  0  0
  189.1580  177.4760  135.2020 O   0  0  0  0  0  0  0  0  0  0  0  0
  189.5310  175.0910  135.6370 O   0  0  0  0  0  0  0  0  0  0  0  0
  187.3290  176.2050  136.6930 C   0  0  0  0  0  3  0  0  0  0  0  0
  185.3170  174.7460  136.0490 C   0  0  0  0  0  2  0  0  0  0  0  0
  185.0210  177.2150  136.5000 C   0  0  0  0  0  2  0  0  0  0  0  0
  184.5670  175.7940  136.8640 C   0  0  0  0  0  2  0  0  0  0  0  0
  186.4810  177.2920  136.0370 C   0  0  0  0  0  2  0  0  0  0  0  0
  186.8250  174.8000  136.3290 C   0  0  0  0  0  2  0  0  0  0  0  0
  185.4390  178.6170  145.9560 C   0  0  0  0  0  2  0  0  0  0  0  0
  188.5370  177.9030  148.0220 C   0  0  0  0  0  3  0  0  0  0  0  0
  189.3250  177.2000  147.1040 C   0  0  0  0  0  0  0  0  0  0  0  0
  187.5690  177.4020  145.4470 C   0  0  0  0  0  3  0  0  0  0  0  0
  187.2700  178.3600  147.6500 C   0  0  0  0  0  3  0  0  0  0  0  0
  186.7830  178.1090  146.3620 C   0  0  0  0  0  0  0  0  0  0  0  0
  188.8380  176.9450  145.8170 C   0  0  0  0  0  3  0  0  0  0  0  0
  190.6700  176.7000  147.5050 C   0  0  0  0  0  2  0  0  0  0  0  0
  191.5610  176.5590  146.2860 C   0  0  0  0  0  1  0  0  0  0  0  0
  182.5930  178.8300  140.2790 C   0  0  0  0  0  2  0  0  0  0  0  0
  182.9050  177.4740  139.6580 C   0  0  0  0  0  2  0  0  0  0  0  0
  181.7250  176.6030  139.6920 C   0  0  0  0  0  0  0  0  0  0  0  0
  180.7550  175.8870  139.7180 C   0  0  0  0  0  3  0  0  0  0  0  0
  1  9  1  0  0  0  0
  1  8  1  0  0  0  0
  2 10  1  0  0  0  0
  3 11  1  0  0  0  0
  4  7  1  0  0  0  0
  4  3  2  0  0  0  0
  5  3  1  0  0  0  0
  6  2  2  0  0  0  0
  6  7  1  0  0  0  0
  7  1  2  0  0  0  0
  9 31  1  0  0  0  0
 10  9  2  0  0  0  0
 11  8  2  0  0  0  0
 12 13  1  1  0  0  0
 12  2  1  0  0  0  0
 14 12  1  0  0  0  0
 15 14  1  0  0  0  0
 16 15  2  0  0  0  0
 17 15  1  0  0  0  0
 18 20  1  0  0  0  0
 18 17  1  0  0  0  0
 20 19  1  0  0  0  0
 21 20  1  0  0  0  0
 21 19  1  0  0  0  0
 22 25  1  0  0  0  0
 22 18  1  0  0  0  0
 23 22  2  0  0  0  0
 24 22  2  0  0  0  0
 26 30  1  0  0  0  0
 26 28  1  0  0  0  0
 27 28  1  0  0  0  0
 29 27  1  0  0  0  0
 29 25  1  0  0  0  0
 30 25  1  0  0  0  0
 31 36  1  0  0  0  0
 33 38  1  0  0  0  0
 33 32  2  0  0  0  0
 34 37  2  0  0  0  0
 34 36  1  0  0  0  0
 35 32  1  0  0  0  0
 36 35  2  0  0  0  0
 37 33  1  0  0  0  0
 39 38  1  0  0  0  0
 40  4  1  0  0  0  0
 41 42  1  0  0  0  0
 41 40  1  0  0  0  0
 42 43  3  0  0  0  0
M  END
>  <MODEL>
6

>  <REMARK>
 VINA RESULT:      -7.5      1.871      5.979
  Name = 
  14 active torsions:
  status: ('A' for Active; 'I' for Inactive)
    1  A    between atoms: C_1  and  C_34
    2  A    between atoms: C_1  and  C_35
    3  A    between atoms: C_2  and  C_6
    4  A    between atoms: C_2  and  C_13
    5  A    between atoms: C_3  and  N_4
    6  A    between atoms: C_3  and  C_12
    7  A    between atoms: N_4  and  S_14
    8  A    between atoms: N_4  and  C_15
    9  A    between atoms: C_5  and  C_18
   10  A    between atoms: C_6  and  C_12
   11  A    between atoms: C_11  and  S_14
   12  A    between atoms: C_18  and  C_24
   13  A    between atoms: C_19  and  C_25
   14  A    between atoms: C_21  and  C_24
                            x       y       z     vdW  Elec       q    Type
                         _______ _______ _______ _____ _____    ______ ____

>  <TORSDO>
F 14

$$$$
=
 OpenBabel10272414283D

 43 47  0  0  1  0  0  0  0  0999 V2000
  185.4780  178.7030  143.0260 C   0  0  0  0  0  0  0  0  0  0  0  0
  187.9600  177.7910  142.0760 C   0  0  0  0  0  0  0  0  0  0  0  0
  184.8290  178.4140  145.7490 C   0  0  0  0  0  0  0  0  0  0  0  0
  186.0710  177.9510  145.2830 C   0  0  0  0  0  0  0  0  0  0  0  0
  184.4820  178.2910  147.0900 O   0  0  0  0  0  1  0  0  0  0  0  0
  187.6320  177.6450  143.4230 C   0  0  0  0  0  3  0  0  0  0  0  0
  186.3990  178.0930  143.9170 C   0  0  0  0  0  0  0  0  0  0  0  0
  184.2450  179.1550  143.5190 C   0  0  0  0  0  3  0  0  0  0  0  0
  185.8130  178.8550  141.6650 C   0  0  0  0  0  0  0  0  0  0  0  0
  187.0520  178.4010  141.2020 C   0  0  0  0  0  3  0  0  0  0  0  0
  183.9250  179.0100  144.8680 C   0  0  0  0  0  3  0  0  0  0  0  0
  189.3050  177.3320  141.6100 C   0  0  1  0  0  3  0  0  0  0  0  0
  189.8190  176.1640  142.4360 C   0  0  0  0  0  1  0  0  0  0  0  0
  189.2720  176.9780  140.1300 C   0  0  0  0  0  2  0  0  0  0  0  0
  190.6600  176.8150  139.6000 C   0  0  0  0  0  0  0  0  0  0  0  0
  191.5080  177.6600  139.8390 O   0  0  0  0  0  0  0  0  0  0  0  0
  191.0260  175.5770  138.8230 C   0  0  0  0  0  2  0  0  0  0  0  0
  191.2110  175.7960  137.3770 N   0  0  0  0  0  0  0  0  0  0  0  0
  193.5230  176.5230  137.0920 C   0  0  0  0  0  2  0  0  0  0  0  0
  192.5430  175.3690  136.9510 C   0  0  0  0  0  3  0  0  0  0  0  0
  192.9730  176.1630  135.7300 C   0  0  0  0  0  2  0  0  0  0  0  0
  190.0010  174.9450  136.4530 S   0  0  0  0  0  0  0  0  0  0  0  0
  190.6440  174.1800  135.3290 O   0  0  0  0  0  0  0  0  0  0  0  0
  189.2590  173.9860  137.3450 O   0  0  0  0  0  0  0  0  0  0  0  0
  188.8460  176.1180  135.7690 C   0  0  0  0  0  3  0  0  0  0  0  0
  187.7840  178.3620  136.4250 C   0  0  0  0  0  2  0  0  0  0  0  0
  186.4080  176.5750  135.2850 C   0  0  0  0  0  2  0  0  0  0  0  0
  186.8780  178.0360  135.2420 C   0  0  0  0  0  2  0  0  0  0  0  0
  187.4120  175.6270  135.9540 C   0  0  0  0  0  2  0  0  0  0  0  0
  189.0540  177.5010  136.4030 C   0  0  0  0  0  2  0  0  0  0  0  0
  184.8640  179.4690  140.6810 C   0  0  0  0  0  2  0  0  0  0  0  0
  182.6790  176.5680  139.5940 C   0  0  0  0  0  3  0  0  0  0  0  0
  183.0700  176.4110  138.2600 C   0  0  0  0  0  0  0  0  0  0  0  0
  184.6140  178.2630  138.5010 C   0  0  0  0  0  3  0  0  0  0  0  0
  183.2580  177.5670  140.3820 C   0  0  0  0  0  3  0  0  0  0  0  0
  184.2260  178.4170  139.8350 C   0  0  0  0  0  0  0  0  0  0  0  0
  184.0350  177.2630  137.7120 C   0  0  0  0  0  3  0  0  0  0  0  0
  182.4420  175.3560  137.4180 C   0  0  0  0  0  2  0  0  0  0  0  0
  182.9410  175.4590  135.9900 C   0  0  0  0  0  1  0  0  0  0  0  0
  187.0240  177.3010  146.2500 C   0  0  0  0  0  2  0  0  0  0  0  0
  188.1560  178.2440  146.6360 C   0  0  0  0  0  2  0  0  0  0  0  0
  189.4600  177.6270  146.3700 C   0  0  0  0  0  0  0  0  0  0  0  0
  190.5320  177.1200  146.1530 C   0  0  0  0  0  3  0  0  0  0  0  0
  1  8  1  0  0  0  0
  1  7  1  0  0  0  0
  2  6  1  0  0  0  0
  3  5  1  0  0  0  0
  4  3  2  0  0  0  0
  4 40  1  0  0  0  0
  6  7  2  0  0  0  0
  7  4  1  0  0  0  0
  8 11  2  0  0  0  0
  9  1  2  0  0  0  0
 10  9  1  0  0  0  0
 10  2  2  0  0  0  0
 11  3  1  0  0  0  0
 12  2  1  0  0  0  0
 12 13  1  1  0  0  0
 14 12  1  0  0  0  0
 15 16  2  0  0  0  0
 15 14  1  0  0  0  0
 17 15  1  0  0  0  0
 18 17  1  0  0  0  0
 20 19  1  0  0  0  0
 20 18  1  0  0  0  0
 21 20  1  0  0  0  0
 21 19  1  0  0  0  0
 22 24  2  0  0  0  0
 22 18  1  0  0  0  0
 23 22  2  0  0  0  0
 25 29  1  0  0  0  0
 25 30  1  0  0  0  0
 25 22  1  0  0  0  0
 27 29  1  0  0  0  0
 28 27  1  0  0  0  0
 28 26  1  0  0  0  0
 30 26  1  0  0  0  0
 31  9  1  0  0  0  0
 32 35  1  0  0  0  0
 33 32  2  0  0  0  0
 34 36  1  0  0  0  0
 36 35  2  0  0  0  0
 36 31  1  0  0  0  0
 37 33  1  0  0  0  0
 37 34  2  0  0  0  0
 38 33  1  0  0  0  0
 39 38  1  0  0  0  0
 40 41  1  0  0  0  0
 42 41  1  0  0  0  0
 43 42  3  0  0  0  0
M  END
>  <MODEL>
7

>  <REMARK>
 VINA RESULT:      -7.5      1.136      2.081
  Name = 
  14 active torsions:
  status: ('A' for Active; 'I' for Inactive)
    1  A    between atoms: C_1  and  C_34
    2  A    between atoms: C_1  and  C_35
    3  A    between atoms: C_2  and  C_6
    4  A    between atoms: C_2  and  C_13
    5  A    between atoms: C_3  and  N_4
    6  A    between atoms: C_3  and  C_12
    7  A    between atoms: N_4  and  S_14
    8  A    between atoms: N_4  and  C_15
    9  A    between atoms: C_5  and  C_18
   10  A    between atoms: C_6  and  C_12
   11  A    between atoms: C_11  and  S_14
   12  A    between atoms: C_18  and  C_24
   13  A    between atoms: C_19  and  C_25
   14  A    between atoms: C_21  and  C_24
                            x       y       z     vdW  Elec       q    Type
                         _______ _______ _______ _____ _____    ______ ____

>  <TORSDO>
F 14

$$$$
=
 OpenBabel10272414283D

 43 47  0  0  1  0  0  0  0  0999 V2000
  189.2510  177.8430  142.2510 C   0  0  0  0  0  0  0  0  0  0  0  0
  186.4600  178.1710  142.2280 C   0  0  0  0  0  0  0  0  0  0  0  0
  190.5430  177.0120  144.6080 C   0  0  0  0  0  0  0  0  0  0  0  0
  189.1470  177.1760  144.6080 C   0  0  0  0  0  0  0  0  0  0  0  0
  191.2100  176.5950  145.7550 O   0  0  0  0  0  1  0  0  0  0  0  0
  187.1060  177.7640  143.3940 C   0  0  0  0  0  3  0  0  0  0  0  0
  188.4960  177.5950  143.4270 C   0  0  0  0  0  0  0  0  0  0  0  0
  190.6420  177.6720  142.2810 C   0  0  0  0  0  3  0  0  0  0  0  0
  188.5960  178.2500  141.0700 C   0  0  0  0  0  0  0  0  0  0  0  0
  187.2070  178.4070  141.0670 C   0  0  0  0  0  3  0  0  0  0  0  0
  191.2810  177.2610  143.4500 C   0  0  0  0  0  3  0  0  0  0  0  0
  184.9700  178.2970  142.2370 C   0  0  1  0  0  3  0  0  0  0  0  0
  184.4730  179.0210  143.4780 C   0  0  0  0  0  1  0  0  0  0  0  0
  184.4780  178.9870  140.9730 C   0  0  0  0  0  2  0  0  0  0  0  0
  183.6610  178.0460  140.1470 C   0  0  0  0  0  0  0  0  0  0  0  0
  183.1810  177.0450  140.6560 O   0  0  0  0  0  0  0  0  0  0  0  0
  183.3790  178.3670  138.7020 C   0  0  0  0  0  2  0  0  0  0  0  0
  182.8350  177.2420  137.9210 N   0  0  0  0  0  0  0  0  0  0  0  0
  180.4870  176.9420  138.5150 C   0  0  0  0  0  2  0  0  0  0  0  0
  181.4620  177.5160  137.5000 C   0  0  0  0  0  3  0  0  0  0  0  0
  180.7400  176.2110  137.2150 C   0  0  0  0  0  2  0  0  0  0  0  0
  183.8230  176.9130  136.5210 S   0  0  0  0  0  0  0  0  0  0  0  0
  183.1700  177.4590  135.2820 O   0  0  0  0  0  0  0  0  0  0  0  0
  185.1750  177.5490  136.6910 O   0  0  0  0  0  0  0  0  0  0  0  0
  184.0240  175.1500  136.3410 C   0  0  0  0  0  3  0  0  0  0  0  0
  184.9140  173.1760  137.7210 C   0  0  0  0  0  2  0  0  0  0  0  0
  185.3900  173.3300  135.2430 C   0  0  0  0  0  2  0  0  0  0  0  0
  184.8130  172.4660  136.3750 C   0  0  0  0  0  2  0  0  0  0  0  0
  185.2550  174.8380  135.4930 C   0  0  0  0  0  2  0  0  0  0  0  0
  184.1060  174.4810  137.7210 C   0  0  0  0  0  2  0  0  0  0  0  0
  189.3520  178.5490  139.8110 C   0  0  0  0  0  2  0  0  0  0  0  0
  188.2660  175.9100  137.3150 C   0  0  0  0  0  3  0  0  0  0  0  0
  189.3990  175.0910  137.2670 C   0  0  0  0  0  0  0  0  0  0  0  0
  190.5080  176.5400  138.8610 C   0  0  0  0  0  3  0  0  0  0  0  0
  188.2520  177.0390  138.1380 C   0  0  0  0  0  3  0  0  0  0  0  0
  189.3740  177.3570  138.9120 C   0  0  0  0  0  0  0  0  0  0  0  0
  190.5230  175.4100  138.0380 C   0  0  0  0  0  3  0  0  0  0  0  0
  189.4190  173.8960  136.3790 C   0  0  0  0  0  2  0  0  0  0  0  0
  188.5690  172.7880  136.9710 C   0  0  0  0  0  1  0  0  0  0  0  0
  188.3750  176.9120  145.8720 C   0  0  0  0  0  2  0  0  0  0  0  0
  188.1740  178.1880  146.6790 C   0  0  0  0  0  2  0  0  0  0  0  0
  186.7460  178.4560  146.8800 C   0  0  0  0  0  0  0  0  0  0  0  0
  185.5710  178.6760  147.0430 C   0  0  0  0  0  3  0  0  0  0  0  0
  1  8  1  0  0  0  0
  1  7  1  0  0  0  0
  2 12  1  0  0  0  0
  2  6  1  0  0  0  0
  3  5  1  0  0  0  0
  4  3  2  0  0  0  0
  4 40  1  0  0  0  0
  6  7  2  0  0  0  0
  7  4  1  0  0  0  0
  8 11  2  0  0  0  0
  9  1  2  0  0  0  0
 10  9  1  0  0  0  0
 10  2  2  0  0  0  0
 11  3  1  0  0  0  0
 12 13  1  1  0  0  0
 14 12  1  0  0  0  0
 15 16  2  0  0  0  0
 15 14  1  0  0  0  0
 17 15  1  0  0  0  0
 18 17  1  0  0  0  0
 20 18  1  0  0  0  0
 20 19  1  0  0  0  0
 21 20  1  0  0  0  0
 21 19  1  0  0  0  0
 22 24  2  0  0  0  0
 22 18  1  0  0  0  0
 23 22  2  0  0  0  0
 25 22  1  0  0  0  0
 25 30  1  0  0  0  0
 27 29  1  0  0  0  0
 27 28  1  0  0  0  0
 28 26  1  0  0  0  0
 29 25  1  0  0  0  0
 30 26  1  0  0  0  0
 31  9  1  0  0  0  0
 32 35  1  0  0  0  0
 33 32  2  0  0  0  0
 33 37  1  0  0  0  0
 34 36  1  0  0  0  0
 35 36  2  0  0  0  0
 36 31  1  0  0  0  0
 37 34  2  0  0  0  0
 38 39  1  0  0  0  0
 38 33  1  0  0  0  0
 40 41  1  0  0  0  0
 41 42  1  0  0  0  0
 42 43  3  0  0  0  0
M  END
>  <MODEL>
8

>  <REMARK>
 VINA RESULT:      -7.4      2.688      5.454
  Name = 
  14 active torsions:
  status: ('A' for Active; 'I' for Inactive)
    1  A    between atoms: C_1  and  C_34
    2  A    between atoms: C_1  and  C_35
    3  A    between atoms: C_2  and  C_6
    4  A    between atoms: C_2  and  C_13
    5  A    between atoms: C_3  and  N_4
    6  A    between atoms: C_3  and  C_12
    7  A    between atoms: N_4  and  S_14
    8  A    between atoms: N_4  and  C_15
    9  A    between atoms: C_5  and  C_18
   10  A    between atoms: C_6  and  C_12
   11  A    between atoms: C_11  and  S_14
   12  A    between atoms: C_18  and  C_24
   13  A    between atoms: C_19  and  C_25
   14  A    between atoms: C_21  and  C_24
                            x       y       z     vdW  Elec       q    Type
                         _______ _______ _______ _____ _____    ______ ____

>  <TORSDO>
F 14

$$$$
=
 OpenBabel10272414283D

 43 47  0  0  1  0  0  0  0  0999 V2000
  183.9870  178.7180  143.4350 C   0  0  0  0  0  0  0  0  0  0  0  0
  186.3750  178.5400  141.9630 C   0  0  0  0  0  0  0  0  0  0  0  0
  181.5150  178.7530  142.0930 C   0  0  0  0  0  0  0  0  0  0  0  0
  182.7030  178.6670  141.3470 C   0  0  0  0  0  0  0  0  0  0  0  0
  180.2770  178.7650  141.4590 O   0  0  0  0  0  1  0  0  0  0  0  0
  185.1480  178.5630  141.3030 C   0  0  0  0  0  3  0  0  0  0  0  0
  183.9460  178.6520  142.0180 C   0  0  0  0  0  0  0  0  0  0  0  0
  182.7860  178.8030  144.1530 C   0  0  0  0  0  3  0  0  0  0  0  0
  185.2300  178.6890  144.1030 C   0  0  0  0  0  0  0  0  0  0  0  0
  186.4120  178.5970  143.3620 C   0  0  0  0  0  3  0  0  0  0  0  0
  181.5620  178.8210  143.4860 C   0  0  0  0  0  3  0  0  0  0  0  0
  187.6250  178.4050  141.1540 C   0  0  1  0  0  3  0  0  0  0  0  0
  188.6050  177.4310  141.7900 C   0  0  0  0  0  1  0  0  0  0  0  0
  187.3020  177.9940  139.7250 C   0  0  0  0  0  2  0  0  0  0  0  0
  188.3350  178.5210  138.7820 C   0  0  0  0  0  0  0  0  0  0  0  0
  189.2810  179.1640  139.2090 O   0  0  0  0  0  0  0  0  0  0  0  0
  188.2400  178.2060  137.3120 C   0  0  0  0  0  2  0  0  0  0  0  0
  187.6350  176.8970  137.0050 N   0  0  0  0  0  0  0  0  0  0  0  0
  185.2330  177.2950  136.8460 C   0  0  0  0  0  2  0  0  0  0  0  0
  186.5170  177.0440  136.0740 C   0  0  0  0  0  3  0  0  0  0  0  0
  185.5190  175.9200  136.2850 C   0  0  0  0  0  2  0  0  0  0  0  0
  188.8150  175.8010  136.3370 S   0  0  0  0  0  0  0  0  0  0  0  0
  188.5630  174.4010  136.8250 O   0  0  0  0  0  0  0  0  0  0  0  0
  188.7380  175.8230  134.8340 O   0  0  0  0  0  0  0  0  0  0  0  0
  190.4470  176.3070  136.8460 C   0  0  0  0  0  3  0  0  0  0  0  0
  192.8770  175.5500  136.5070 C   0  0  0  0  0  2  0  0  0  0  0  0
  192.0870  176.3600  138.7670 C   0  0  0  0  0  2  0  0  0  0  0  0
  193.1190  176.5380  137.6440 C   0  0  0  0  0  2  0  0  0  0  0  0
  190.7270  175.8490  138.2750 C   0  0  0  0  0  2  0  0  0  0  0  0
  191.5000  175.7690  135.8660 C   0  0  0  0  0  2  0  0  0  0  0  0
  185.3260  178.7830  145.5950 C   0  0  0  0  0  2  0  0  0  0  0  0
  188.6700  176.9970  145.6630 C   0  0  0  0  0  3  0  0  0  0  0  0
  189.0640  177.1960  146.9900 C   0  0  0  0  0  0  0  0  0  0  0  0
  187.0300  178.4480  147.4010 C   0  0  0  0  0  3  0  0  0  0  0  0
  187.4570  177.5180  145.2060 C   0  0  0  0  0  3  0  0  0  0  0  0
  186.6340  178.2460  146.0750 C   0  0  0  0  0  0  0  0  0  0  0  0
  188.2440  177.9260  147.8580 C   0  0  0  0  0  3  0  0  0  0  0  0
  190.3640  176.6530  147.4720 C   0  0  0  0  0  2  0  0  0  0  0  0
  191.3600  176.5860  146.3300 C   0  0  0  0  0  1  0  0  0  0  0  0
  182.6270  178.6070  139.8460 C   0  0  0  0  0  2  0  0  0  0  0  0
  182.9700  179.9500  139.2150 C   0  0  0  0  0  2  0  0  0  0  0  0
  181.7510  180.6860  138.8640 C   0  0  0  0  0  0  0  0  0  0  0  0
  180.7480  181.2900  138.5760 C   0  0  0  0  0  3  0  0  0  0  0  0
  1  9  1  0  0  0  0
  1  8  1  0  0  0  0
  2 10  1  0  0  0  0
  3 11  1  0  0  0  0
  4  7  1  0  0  0  0
  4  3  2  0  0  0  0
  5  3  1  0  0  0  0
  6  2  2  0  0  0  0
  6  7  1  0  0  0  0
  7  1  2  0  0  0  0
  9 31  1  0  0  0  0
 10  9  2  0  0  0  0
 11  8  2  0  0  0  0
 12 13  1  1  0  0  0
 12  2  1  0  0  0  0
 14 12  1  0  0  0  0
 15 16  2  0  0  0  0
 15 14  1  0  0  0  0
 17 15  1  0  0  0  0
 18 17  1  0  0  0  0
 20 21  1  0  0  0  0
 20 19  1  0  0  0  0
 20 18  1  0  0  0  0
 21 19  1  0  0  0  0
 22 23  2  0  0  0  0
 22 25  1  0  0  0  0
 22 18  1  0  0  0  0
 24 22  2  0  0  0  0
 25 29  1  0  0  0  0
 26 28  1  0  0  0  0
 28 27  1  0  0  0  0
 29 27  1  0  0  0  0
 30 26  1  0  0  0  0
 30 25  1  0  0  0  0
 31 36  1  0  0  0  0
 32 33  1  0  0  0  0
 33 38  1  0  0  0  0
 33 37  2  0  0  0  0
 34 37  1  0  0  0  0
 35 32  2  0  0  0  0
 35 36  1  0  0  0  0
 36 34  2  0  0  0  0
 39 38  1  0  0  0  0
 40  4  1  0  0  0  0
 41 40  1  0  0  0  0
 42 41  1  0  0  0  0
 43 42  3  0  0  0  0
M  END
>  <MODEL>
9

>  <REMARK>
 VINA RESULT:      -7.3      2.152      6.472
  Name = 
  14 active torsions:
  status: ('A' for Active; 'I' for Inactive)
    1  A    between atoms: C_1  and  C_34
    2  A    between atoms: C_1  and  C_35
    3  A    between atoms: C_2  and  C_6
    4  A    between atoms: C_2  and  C_13
    5  A    between atoms: C_3  and  N_4
    6  A    between atoms: C_3  and  C_12
    7  A    between atoms: N_4  and  S_14
    8  A    between atoms: N_4  and  C_15
    9  A    between atoms: C_5  and  C_18
   10  A    between atoms: C_6  and  C_12
   11  A    between atoms: C_11  and  S_14
   12  A    between atoms: C_18  and  C_24
   13  A    between atoms: C_19  and  C_25
   14  A    between atoms: C_21  and  C_24
                            x       y       z     vdW  Elec       q    Type
                         _______ _______ _______ _____ _____    ______ ____

>  <TORSDO>
F 14

$$$$
