=
 OpenBabel10272401153D

 27 31  0  0  1  0  0  0  0  0999 V2000
  189.5690  176.8980  142.6750 C   0  0  0  0  0  2  0  0  0  0  0  0
  187.7810  177.8290  144.0690 N   0  0  0  0  0  0  0  0  0  0  0  0
  186.9800  178.3090  141.7510 N   0  0  0  0  0  0  0  0  0  0  0  0
  187.1980  177.7770  145.2590 N   0  0  0  0  0  0  0  0  0  0  0  0
  189.2450  178.0290  139.2460 C   0  0  0  0  0  0  0  0  0  0  0  0
  189.2310  177.7780  143.8610 C   0  0  1  0  0  3  0  0  0  0  0  0
  185.6180  178.1540  143.8470 C   0  0  0  0  0  0  0  0  0  0  0  0
  189.2840  177.6190  141.4520 N   0  0  0  0  0  0  0  0  0  0  0  0
  186.8140  178.0770  143.1600 C   0  0  0  0  0  0  0  0  0  0  0  0
  188.0560  178.3950  139.6200 N   0  0  0  0  0  0  0  0  0  0  0  0
  185.8890  177.9590  145.1540 N   0  0  0  0  0  0  0  0  0  0  0  0
  190.0600  177.5080  140.2990 N   0  0  0  0  0  2  0  0  0  0  0  0
  188.0400  178.1400  141.0180 C   0  0  0  0  0  0  0  0  0  0  0  0
  183.2360  178.7980  144.1870 C   0  0  0  0  0  3  0  0  0  0  0  0
  181.6830  178.9180  142.3350 C   0  0  0  0  0  3  0  0  0  0  0  0
  182.7010  178.5370  141.4580 C   0  0  0  0  0  3  0  0  0  0  0  0
  183.9870  178.2870  141.9460 C   0  0  0  0  0  3  0  0  0  0  0  0
  184.2660  178.4160  143.3140 C   0  0  0  0  0  0  0  0  0  0  0  0
  181.9500  179.0490  143.6990 C   0  0  0  0  0  3  0  0  0  0  0  0
  191.3800  176.4330  147.3370 C   0  0  0  0  0  3  0  0  0  0  0  0
  189.9640  177.3100  145.0840 C   0  0  0  0  0  0  0  0  0  0  0  0
  191.1640  176.6060  144.9310 C   0  0  0  0  0  3  0  0  0  0  0  0
  191.8710  176.1680  146.0550 C   0  0  0  0  0  3  0  0  0  0  0  0
  190.1830  177.1360  147.4960 C   0  0  0  0  0  3  0  0  0  0  0  0
  189.4760  177.5750  146.3730 C   0  0  0  0  0  3  0  0  0  0  0  0
  188.8960  179.1310  137.0760 C   0  0  0  0  0  1  0  0  0  0  0  0
  189.6890  178.0800  137.8280 C   0  0  0  0  0  2  0  0  0  0  0  0
  1  6  1  0  0  0  0
  2  4  1  0  0  0  0
  3  9  1  0  0  0  0
  5 10  2  0  0  0  0
  5 12  1  0  0  0  0
  6  2  1  0  0  0  0
  6 21  1  1  0  0  0
  7 11  1  0  0  0  0
  8  1  1  0  0  0  0
  9  7  2  0  0  0  0
  9  2  1  0  0  0  0
 10 13  1  0  0  0  0
 11  4  2  0  0  0  0
 12  8  1  0  0  0  0
 13  8  1  0  0  0  0
 13  3  2  0  0  0  0
 15 19  2  0  0  0  0
 16 17  2  0  0  0  0
 16 15  1  0  0  0  0
 17 18  1  0  0  0  0
 18  7  1  0  0  0  0
 18 14  2  0  0  0  0
 19 14  1  0  0  0  0
 20 24  1  0  0  0  0
 21 25  1  0  0  0  0
 22 21  2  0  0  0  0
 22 23  1  0  0  0  0
 23 20  2  0  0  0  0
 25 24  2  0  0  0  0
 26 27  1  0  0  0  0
 27  5  1  0  0  0  0
M  END
>  <MODEL>
1

>  <REMARK>
 VINA RESULT:     -10.6      0.000      0.000
  Name = 
  3 active torsions:
  status: ('A' for Active; 'I' for Inactive)
    1  A    between atoms: C_9  and  C_15
    2  A    between atoms: C_13  and  C_22
    3  A    between atoms: C_14  and  C_17
                            x       y       z     vdW  Elec       q    Type
                         _______ _______ _______ _____ _____    ______ ____

>  <TORSDO>
F 3

$$$$
=
 OpenBabel10272401153D

 27 31  0  0  1  0  0  0  0  0999 V2000
  189.6060  176.8820  142.6650 C   0  0  0  0  0  2  0  0  0  0  0  0
  187.8330  177.8210  144.0720 N   0  0  0  0  0  0  0  0  0  0  0  0
  187.0120  178.2950  141.7600 N   0  0  0  0  0  0  0  0  0  0  0  0
  187.2600  177.7730  145.2680 N   0  0  0  0  0  0  0  0  0  0  0  0
  189.2540  178.0040  139.2360 C   0  0  0  0  0  0  0  0  0  0  0  0
  189.2800  177.7660  143.8510 C   0  0  1  0  0  3  0  0  0  0  0  0
  185.6680  178.1490  143.8690 C   0  0  0  0  0  0  0  0  0  0  0  0
  189.3120  177.6010  141.4420 N   0  0  0  0  0  0  0  0  0  0  0  0
  186.8580  178.0670  143.1710 C   0  0  0  0  0  0  0  0  0  0  0  0
  188.0690  178.3730  139.6190 N   0  0  0  0  0  0  0  0  0  0  0  0
  185.9510  177.9580  145.1740 N   0  0  0  0  0  0  0  0  0  0  0  0
  190.0780  177.4840  140.2830 N   0  0  0  0  0  2  0  0  0  0  0  0
  188.0650  178.1220  141.0180 C   0  0  0  0  0  0  0  0  0  0  0  0
  184.0510  178.2570  141.9770 C   0  0  0  0  0  3  0  0  0  0  0  0
  181.7450  178.9050  142.3220 C   0  0  0  0  0  3  0  0  0  0  0  0
  181.9940  179.0620  143.6880 C   0  0  0  0  0  3  0  0  0  0  0  0
  183.2720  178.8160  144.1970 C   0  0  0  0  0  3  0  0  0  0  0  0
  184.3120  178.4110  143.3470 C   0  0  0  0  0  0  0  0  0  0  0  0
  182.7730  178.5030  141.4670 C   0  0  0  0  0  3  0  0  0  0  0  0
  191.3660  176.4350  147.3720 C   0  0  0  0  0  3  0  0  0  0  0  0
  190.0240  177.3010  145.0690 C   0  0  0  0  0  0  0  0  0  0  0  0
  189.5030  177.5860  146.3360 C   0  0  0  0  0  3  0  0  0  0  0  0
  190.1730  177.1540  147.4850 C   0  0  0  0  0  3  0  0  0  0  0  0
  191.8900  176.1460  146.1090 C   0  0  0  0  0  3  0  0  0  0  0  0
  191.2220  176.5770  144.9590 C   0  0  0  0  0  3  0  0  0  0  0  0
  188.8890  179.1010  137.0660 C   0  0  0  0  0  1  0  0  0  0  0  0
  189.6850  178.0500  137.8130 C   0  0  0  0  0  2  0  0  0  0  0  0
  1  6  1  0  0  0  0
  2  4  1  0  0  0  0
  3  9  1  0  0  0  0
  5 10  2  0  0  0  0
  5 12  1  0  0  0  0
  6  2  1  0  0  0  0
  6 21  1  1  0  0  0
  7 11  1  0  0  0  0
  8  1  1  0  0  0  0
  9  7  2  0  0  0  0
  9  2  1  0  0  0  0
 10 13  1  0  0  0  0
 11  4  2  0  0  0  0
 12  8  1  0  0  0  0
 13  8  1  0  0  0  0
 13  3  2  0  0  0  0
 14 18  1  0  0  0  0
 15 16  2  0  0  0  0
 16 17  1  0  0  0  0
 18  7  1  0  0  0  0
 18 17  2  0  0  0  0
 19 14  2  0  0  0  0
 19 15  1  0  0  0  0
 20 23  1  0  0  0  0
 21 22  1  0  0  0  0
 22 23  2  0  0  0  0
 24 20  2  0  0  0  0
 25 21  2  0  0  0  0
 25 24  1  0  0  0  0
 26 27  1  0  0  0  0
 27  5  1  0  0  0  0
M  END
>  <MODEL>
2

>  <REMARK>
 VINA RESULT:     -10.5      0.051      1.318
  Name = 
  3 active torsions:
  status: ('A' for Active; 'I' for Inactive)
    1  A    between atoms: C_9  and  C_15
    2  A    between atoms: C_13  and  C_22
    3  A    between atoms: C_14  and  C_17
                            x       y       z     vdW  Elec       q    Type
                         _______ _______ _______ _____ _____    ______ ____

>  <TORSDO>
F 3

$$$$
=
 OpenBabel10272401153D

 27 31  0  0  1  0  0  0  0  0999 V2000
  186.1570  178.9960  141.4580 C   0  0  0  0  0  2  0  0  0  0  0  0
  186.3570  177.8470  143.6130 N   0  0  0  0  0  0  0  0  0  0  0  0
  188.6110  177.5000  142.5920 N   0  0  0  0  0  0  0  0  0  0  0  0
  185.8760  177.7680  144.8470 N   0  0  0  0  0  0  0  0  0  0  0  0
  188.9140  178.1200  139.2740 C   0  0  0  0  0  0  0  0  0  0  0  0
  185.5270  178.0060  142.4160 C   0  0  1  0  0  3  0  0  0  0  0  0
  187.9910  177.4030  145.0160 C   0  0  0  0  0  0  0  0  0  0  0  0
  187.2600  178.3570  140.7710 N   0  0  0  0  0  0  0  0  0  0  0  0
  187.6840  177.6100  143.6850 C   0  0  0  0  0  0  0  0  0  0  0  0
  189.4500  177.6500  140.3600 N   0  0  0  0  0  0  0  0  0  0  0  0
  186.8430  177.5110  145.7170 N   0  0  0  0  0  0  0  0  0  0  0  0
  187.5800  178.6080  139.4380 N   0  0  0  0  0  2  0  0  0  0  0  0
  188.4300  177.7940  141.3390 C   0  0  0  0  0  0  0  0  0  0  0  0
  189.4360  177.0760  147.0180 C   0  0  0  0  0  3  0  0  0  0  0  0
  191.7830  176.5260  146.8060 C   0  0  0  0  0  3  0  0  0  0  0  0
  191.6610  176.5460  145.4150 C   0  0  0  0  0  3  0  0  0  0  0  0
  190.4260  176.8310  144.8260 C   0  0  0  0  0  3  0  0  0  0  0  0
  189.3020  177.0980  145.6220 C   0  0  0  0  0  0  0  0  0  0  0  0
  190.6710  176.7910  147.6080 C   0  0  0  0  0  3  0  0  0  0  0  0
  181.4860  179.1740  143.3250 C   0  0  0  0  0  3  0  0  0  0  0  0
  184.1240  178.4230  142.7490 C   0  0  0  0  0  0  0  0  0  0  0  0
  183.1610  178.4450  141.7340 C   0  0  0  0  0  3  0  0  0  0  0  0
  181.8450  178.8200  142.0210 C   0  0  0  0  0  3  0  0  0  0  0  0
  182.4440  179.1530  144.3420 C   0  0  0  0  0  3  0  0  0  0  0  0
  183.7600  178.7770  144.0570 C   0  0  0  0  0  3  0  0  0  0  0  0
  188.7790  178.8420  136.9280 C   0  0  0  0  0  1  0  0  0  0  0  0
  189.6570  178.2090  137.9880 C   0  0  0  0  0  2  0  0  0  0  0  0
  1  6  1  0  0  0  0
  2  9  1  0  0  0  0
  2  4  1  0  0  0  0
  3  9  1  0  0  0  0
  4 11  2  0  0  0  0
  5 12  1  0  0  0  0
  5 10  2  0  0  0  0
  6 21  1  1  0  0  0
  6  2  1  0  0  0  0
  7 18  1  0  0  0  0
  7 11  1  0  0  0  0
  8 13  1  0  0  0  0
  8  1  1  0  0  0  0
  9  7  2  0  0  0  0
 10 13  1  0  0  0  0
 12  8  1  0  0  0  0
 13  3  2  0  0  0  0
 14 19  1  0  0  0  0
 15 19  2  0  0  0  0
 16 15  1  0  0  0  0
 17 16  2  0  0  0  0
 17 18  1  0  0  0  0
 18 14  2  0  0  0  0
 20 24  1  0  0  0  0
 21 25  1  0  0  0  0
 22 23  1  0  0  0  0
 22 21  2  0  0  0  0
 23 20  2  0  0  0  0
 25 24  2  0  0  0  0
 26 27  1  0  0  0  0
 27  5  1  0  0  0  0
M  END
>  <MODEL>
3

>  <REMARK>
 VINA RESULT:     -10.1      0.919      6.097
  Name = 
  3 active torsions:
  status: ('A' for Active; 'I' for Inactive)
    1  A    between atoms: C_9  and  C_15
    2  A    between atoms: C_13  and  C_22
    3  A    between atoms: C_14  and  C_17
                            x       y       z     vdW  Elec       q    Type
                         _______ _______ _______ _____ _____    ______ ____

>  <TORSDO>
F 3

$$$$
=
 OpenBabel10272401153D

 27 31  0  0  1  0  0  0  0  0999 V2000
  185.3600  179.1330  141.2720 C   0  0  0  0  0  2  0  0  0  0  0  0
  185.1180  178.2580  143.5480 N   0  0  0  0  0  0  0  0  0  0  0  0
  187.5450  177.8980  143.0750 N   0  0  0  0  0  0  0  0  0  0  0  0
  184.3860  178.3050  144.6540 N   0  0  0  0  0  0  0  0  0  0  0  0
  188.5380  178.1320  139.8430 C   0  0  0  0  0  0  0  0  0  0  0  0
  184.5600  178.2360  142.1940 C   0  0  1  0  0  3  0  0  0  0  0  0
  186.4220  178.0610  145.3070 C   0  0  0  0  0  0  0  0  0  0  0  0
  186.5970  178.4680  140.9180 N   0  0  0  0  0  0  0  0  0  0  0  0
  186.4030  178.0940  143.9270 C   0  0  0  0  0  0  0  0  0  0  0  0
  188.8380  177.8210  141.0680 N   0  0  0  0  0  0  0  0  0  0  0  0
  185.1500  178.1980  145.7330 N   0  0  0  0  0  0  0  0  0  0  0  0
  187.1900  178.5740  139.6610 N   0  0  0  0  0  2  0  0  0  0  0  0
  187.6290  178.0320  141.7850 C   0  0  0  0  0  0  0  0  0  0  0  0
  188.8080  177.4540  145.6890 C   0  0  0  0  0  3  0  0  0  0  0  0
  189.8010  177.5560  147.8940 C   0  0  0  0  0  3  0  0  0  0  0  0
  188.5830  177.9920  148.4210 C   0  0  0  0  0  3  0  0  0  0  0  0
  187.4780  178.1590  147.5810 C   0  0  0  0  0  3  0  0  0  0  0  0
  187.5800  177.8910  146.2080 C   0  0  0  0  0  0  0  0  0  0  0  0
  189.9140  177.2870  146.5280 C   0  0  0  0  0  3  0  0  0  0  0  0
  180.3950  179.3130  142.0820 C   0  0  0  0  0  3  0  0  0  0  0  0
  183.1100  178.6240  142.1700 C   0  0  0  0  0  0  0  0  0  0  0  0
  182.3720  178.4300  140.9970 C   0  0  0  0  0  3  0  0  0  0  0  0
  181.0180  178.7740  140.9530 C   0  0  0  0  0  3  0  0  0  0  0  0
  181.1270  179.5080  143.2570 C   0  0  0  0  0  3  0  0  0  0  0  0
  182.4810  179.1640  143.3020 C   0  0  0  0  0  3  0  0  0  0  0  0
  188.9610  178.7660  137.5060 C   0  0  0  0  0  1  0  0  0  0  0  0
  189.5360  178.1020  138.7410 C   0  0  0  0  0  2  0  0  0  0  0  0
  1  6  1  0  0  0  0
  2  9  1  0  0  0  0
  2  4  1  0  0  0  0
  3  9  1  0  0  0  0
  4 11  2  0  0  0  0
  5 10  2  0  0  0  0
  6 21  1  1  0  0  0
  6  2  1  0  0  0  0
  7 11  1  0  0  0  0
  7 18  1  0  0  0  0
  8  1  1  0  0  0  0
  8 13  1  0  0  0  0
  9  7  2  0  0  0  0
 10 13  1  0  0  0  0
 12  5  1  0  0  0  0
 12  8  1  0  0  0  0
 13  3  2  0  0  0  0
 14 18  2  0  0  0  0
 14 19  1  0  0  0  0
 15 16  1  0  0  0  0
 17 16  2  0  0  0  0
 18 17  1  0  0  0  0
 19 15  2  0  0  0  0
 20 24  1  0  0  0  0
 21 25  1  0  0  0  0
 22 21  2  0  0  0  0
 23 22  1  0  0  0  0
 23 20  2  0  0  0  0
 24 25  2  0  0  0  0
 26 27  1  0  0  0  0
 27  5  1  0  0  0  0
M  END
>  <MODEL>
4

>  <REMARK>
 VINA RESULT:      -9.8      1.297      6.320
  Name = 
  3 active torsions:
  status: ('A' for Active; 'I' for Inactive)
    1  A    between atoms: C_9  and  C_15
    2  A    between atoms: C_13  and  C_22
    3  A    between atoms: C_14  and  C_17
                            x       y       z     vdW  Elec       q    Type
                         _______ _______ _______ _____ _____    ______ ____

>  <TORSDO>
F 3

$$$$
=
 OpenBabel10272401153D

 27 31  0  0  1  0  0  0  0  0999 V2000
  185.5660  178.8390  144.8420 C   0  0  0  0  0  2  0  0  0  0  0  0
  187.3600  177.8830  143.4730 N   0  0  0  0  0  0  0  0  0  0  0  0
  185.5210  178.2200  141.8160 N   0  0  0  0  0  0  0  0  0  0  0  0
  188.6710  177.7010  143.3800 N   0  0  0  0  0  0  0  0  0  0  0  0
  182.4160  178.7890  143.0480 C   0  0  0  0  0  0  0  0  0  0  0  0
  186.5960  177.7360  144.7150 C   0  0  1  0  0  3  0  0  0  0  0  0
  187.9770  178.0170  141.3670 C   0  0  0  0  0  0  0  0  0  0  0  0
  184.4500  178.5510  143.9640 N   0  0  0  0  0  0  0  0  0  0  0  0
  186.8930  178.0730  142.2210 C   0  0  0  0  0  0  0  0  0  0  0  0
  183.1630  178.5470  142.0140 N   0  0  0  0  0  0  0  0  0  0  0  0
  189.0730  177.7880  142.1190 N   0  0  0  0  0  0  0  0  0  0  0  0
  183.1270  178.8440  144.2880 N   0  0  0  0  0  2  0  0  0  0  0  0
  184.4690  178.4000  142.5560 C   0  0  0  0  0  0  0  0  0  0  0  0
  189.2110  178.4130  139.2400 C   0  0  0  0  0  3  0  0  0  0  0  0
  188.0750  178.4300  137.1040 C   0  0  0  0  0  3  0  0  0  0  0  0
  186.8620  178.1750  137.7480 C   0  0  0  0  0  3  0  0  0  0  0  0
  186.8250  178.0390  139.1390 C   0  0  0  0  0  3  0  0  0  0  0  0
  187.9990  178.1570  139.8970 C   0  0  0  0  0  0  0  0  0  0  0  0
  189.2500  178.5490  137.8500 C   0  0  0  0  0  3  0  0  0  0  0  0
  189.0900  177.6640  148.2210 C   0  0  0  0  0  3  0  0  0  0  0  0
  187.4810  177.7070  145.9270 C   0  0  0  0  0  0  0  0  0  0  0  0
  187.0690  178.3690  147.0890 C   0  0  0  0  0  3  0  0  0  0  0  0
  187.8720  178.3490  148.2330 C   0  0  0  0  0  3  0  0  0  0  0  0
  189.5070  177.0000  147.0640 C   0  0  0  0  0  3  0  0  0  0  0  0
  188.7050  177.0190  145.9190 C   0  0  0  0  0  3  0  0  0  0  0  0
  180.2240  178.4140  144.0950 C   0  0  0  0  0  1  0  0  0  0  0  0
  180.9580  179.0610  142.9380 C   0  0  0  0  0  2  0  0  0  0  0  0
  2  6  1  0  0  0  0
  3  9  1  0  0  0  0
  3 13  2  0  0  0  0
  4  2  1  0  0  0  0
  5 12  1  0  0  0  0
  6  1  1  0  0  0  0
  6 21  1  1  0  0  0
  7 11  1  0  0  0  0
  7  9  2  0  0  0  0
  8 12  1  0  0  0  0
  8  1  1  0  0  0  0
  9  2  1  0  0  0  0
 10 13  1  0  0  0  0
 10  5  2  0  0  0  0
 11  4  2  0  0  0  0
 13  8  1  0  0  0  0
 14 18  1  0  0  0  0
 15 16  2  0  0  0  0
 15 19  1  0  0  0  0
 16 17  1  0  0  0  0
 17 18  2  0  0  0  0
 18  7  1  0  0  0  0
 19 14  2  0  0  0  0
 20 23  1  0  0  0  0
 21 22  1  0  0  0  0
 22 23  2  0  0  0  0
 24 20  2  0  0  0  0
 25 21  2  0  0  0  0
 25 24  1  0  0  0  0
 27  5  1  0  0  0  0
 27 26  1  0  0  0  0
M  END
>  <MODEL>
5

>  <REMARK>
 VINA RESULT:      -9.7      1.693      5.642
  Name = 
  3 active torsions:
  status: ('A' for Active; 'I' for Inactive)
    1  A    between atoms: C_9  and  C_15
    2  A    between atoms: C_13  and  C_22
    3  A    between atoms: C_14  and  C_17
                            x       y       z     vdW  Elec       q    Type
                         _______ _______ _______ _____ _____    ______ ____

>  <TORSDO>
F 3

$$$$
=
 OpenBabel10272401153D

 27 31  0  0  1  0  0  0  0  0999 V2000
  187.6260  177.0990  144.8870 C   0  0  0  0  0  2  0  0  0  0  0  0
  187.9610  177.9230  142.6030 N   0  0  0  0  0  0  0  0  0  0  0  0
  190.2820  177.3500  143.3280 N   0  0  0  0  0  0  0  0  0  0  0  0
  187.3790  178.1200  141.4280 N   0  0  0  0  0  0  0  0  0  0  0  0
  190.7890  176.8660  146.6440 C   0  0  0  0  0  0  0  0  0  0  0  0
  187.3230  178.2010  143.8930 C   0  0  1  0  0  3  0  0  0  0  0  0
  189.4070  177.5500  140.9900 C   0  0  0  0  0  0  0  0  0  0  0  0
  188.9820  177.2560  145.3720 N   0  0  0  0  0  0  0  0  0  0  0  0
  189.2420  177.5740  142.3610 C   0  0  0  0  0  0  0  0  0  0  0  0
  191.3040  176.9980  145.4590 N   0  0  0  0  0  0  0  0  0  0  0  0
  188.2270  177.8920  140.4340 N   0  0  0  0  0  0  0  0  0  0  0  0
  189.3630  176.9750  146.6830 N   0  0  0  0  0  2  0  0  0  0  0  0
  190.1820  177.2370  144.6190 C   0  0  0  0  0  0  0  0  0  0  0  0
  190.5150  176.5620  138.9900 C   0  0  0  0  0  3  0  0  0  0  0  0
  192.9190  176.6200  138.7180 C   0  0  0  0  0  3  0  0  0  0  0  0
  193.0390  177.2920  139.9380 C   0  0  0  0  0  3  0  0  0  0  0  0
  191.8970  177.5980  140.6820 C   0  0  0  0  0  3  0  0  0  0  0  0
  190.6250  177.2360  140.2150 C   0  0  0  0  0  0  0  0  0  0  0  0
  191.6570  176.2550  138.2440 C   0  0  0  0  0  3  0  0  0  0  0  0
  183.0730  178.7880  143.5690 C   0  0  0  0  0  3  0  0  0  0  0  0
  185.8400  178.3950  143.7640 C   0  0  0  0  0  0  0  0  0  0  0  0
  185.1030  178.7780  144.8900 C   0  0  0  0  0  3  0  0  0  0  0  0
  183.7220  178.9740  144.7930 C   0  0  0  0  0  3  0  0  0  0  0  0
  183.8040  178.4070  142.4410 C   0  0  0  0  0  3  0  0  0  0  0  0
  185.1850  178.2110  142.5370 C   0  0  0  0  0  3  0  0  0  0  0  0
  192.5690  175.4210  147.5300 C   0  0  0  0  0  1  0  0  0  0  0  0
  191.6100  176.5510  147.8440 C   0  0  0  0  0  2  0  0  0  0  0  0
  1  8  1  0  0  0  0
  2  6  1  0  0  0  0
  3 13  2  0  0  0  0
  4  2  1  0  0  0  0
  5 12  1  0  0  0  0
  5 27  1  0  0  0  0
  6 21  1  6  0  0  0
  6  1  1  0  0  0  0
  7  9  2  0  0  0  0
  8 12  1  0  0  0  0
  9  2  1  0  0  0  0
  9  3  1  0  0  0  0
 10  5  2  0  0  0  0
 11  7  1  0  0  0  0
 11  4  2  0  0  0  0
 13  8  1  0  0  0  0
 13 10  1  0  0  0  0
 14 18  1  0  0  0  0
 15 16  2  0  0  0  0
 16 17  1  0  0  0  0
 18 17  2  0  0  0  0
 18  7  1  0  0  0  0
 19 15  1  0  0  0  0
 19 14  2  0  0  0  0
 20 23  1  0  0  0  0
 21 22  1  0  0  0  0
 23 22  2  0  0  0  0
 24 25  1  0  0  0  0
 24 20  2  0  0  0  0
 25 21  2  0  0  0  0
 26 27  1  0  0  0  0
M  END
>  <MODEL>
6

>  <REMARK>
 VINA RESULT:      -9.7      1.951      7.304
  Name = 
  3 active torsions:
  status: ('A' for Active; 'I' for Inactive)
    1  A    between atoms: C_9  and  C_15
    2  A    between atoms: C_13  and  C_22
    3  A    between atoms: C_14  and  C_17
                            x       y       z     vdW  Elec       q    Type
                         _______ _______ _______ _____ _____    ______ ____

>  <TORSDO>
F 3

$$$$
=
 OpenBabel10272401153D

 27 31  0  0  1  0  0  0  0  0999 V2000
  188.2880  177.0870  139.2330 C   0  0  0  0  0  2  0  0  0  0  0  0
  189.6430  177.2600  141.2680 N   0  0  0  0  0  0  0  0  0  0  0  0
  187.4570  178.2380  141.9770 N   0  0  0  0  0  0  0  0  0  0  0  0
  190.6930  176.7700  141.9140 N   0  0  0  0  0  0  0  0  0  0  0  0
  185.2730  179.0790  139.5260 C   0  0  0  0  0  0  0  0  0  0  0  0
  189.6130  177.5190  139.8260 C   0  0  1  0  0  3  0  0  0  0  0  0
  189.2460  177.2600  143.4300 C   0  0  0  0  0  0  0  0  0  0  0  0
  187.2760  178.0680  139.5660 N   0  0  0  0  0  0  0  0  0  0  0  0
  188.7200  177.5880  142.1960 C   0  0  0  0  0  0  0  0  0  0  0  0
  185.5790  179.1130  140.7870 N   0  0  0  0  0  0  0  0  0  0  0  0
  190.4770  176.7480  143.2220 N   0  0  0  0  0  0  0  0  0  0  0  0
  186.2420  178.4250  138.7020 N   0  0  0  0  0  2  0  0  0  0  0  0
  186.8440  178.4690  140.8550 C   0  0  0  0  0  0  0  0  0  0  0  0
  189.4580  177.5060  145.9000 C   0  0  0  0  0  3  0  0  0  0  0  0
  187.5110  177.7430  147.3180 C   0  0  0  0  0  3  0  0  0  0  0  0
  186.6850  177.6650  146.1940 C   0  0  0  0  0  3  0  0  0  0  0  0
  187.2460  177.5080  144.9230 C   0  0  0  0  0  3  0  0  0  0  0  0
  188.6370  177.4270  144.7650 C   0  0  0  0  0  0  0  0  0  0  0  0
  188.8980  177.6630  147.1710 C   0  0  0  0  0  3  0  0  0  0  0  0
  192.8340  175.5920  137.7210 C   0  0  0  0  0  3  0  0  0  0  0  0
  190.7490  176.8530  139.1050 C   0  0  0  0  0  0  0  0  0  0  0  0
  190.4760  175.7870  138.2410 C   0  0  0  0  0  3  0  0  0  0  0  0
  191.5160  175.1560  137.5510 C   0  0  0  0  0  3  0  0  0  0  0  0
  193.1120  176.6570  138.5810 C   0  0  0  0  0  3  0  0  0  0  0  0
  192.0730  177.2880  139.2720 C   0  0  0  0  0  3  0  0  0  0  0  0
  183.1620  178.4760  138.4200 C   0  0  0  0  0  1  0  0  0  0  0  0
  183.9870  179.6080  138.9980 C   0  0  0  0  0  2  0  0  0  0  0  0
  1  8  1  0  0  0  0
  1  6  1  0  0  0  0
  2  4  1  0  0  0  0
  2  9  1  0  0  0  0
  3  9  1  0  0  0  0
  4 11  2  0  0  0  0
  5 10  2  0  0  0  0
  6 21  1  6  0  0  0
  6  2  1  0  0  0  0
  7 18  1  0  0  0  0
  8 13  1  0  0  0  0
  9  7  2  0  0  0  0
 10 13  1  0  0  0  0
 11  7  1  0  0  0  0
 12  5  1  0  0  0  0
 12  8  1  0  0  0  0
 13  3  2  0  0  0  0
 14 19  1  0  0  0  0
 16 15  1  0  0  0  0
 17 16  2  0  0  0  0
 18 17  1  0  0  0  0
 18 14  2  0  0  0  0
 19 15  2  0  0  0  0
 20 24  1  0  0  0  0
 21 25  1  0  0  0  0
 22 21  2  0  0  0  0
 23 20  2  0  0  0  0
 23 22  1  0  0  0  0
 24 25  2  0  0  0  0
 26 27  1  0  0  0  0
 27  5  1  0  0  0  0
M  END
>  <MODEL>
7

>  <REMARK>
 VINA RESULT:      -9.5      2.495      5.706
  Name = 
  3 active torsions:
  status: ('A' for Active; 'I' for Inactive)
    1  A    between atoms: C_9  and  C_15
    2  A    between atoms: C_13  and  C_22
    3  A    between atoms: C_14  and  C_17
                            x       y       z     vdW  Elec       q    Type
                         _______ _______ _______ _____ _____    ______ ____

>  <TORSDO>
F 3

$$$$
=
 OpenBabel10272401153D

 27 31  0  0  1  0  0  0  0  0999 V2000
  191.1540  177.5330  143.0600 C   0  0  0  0  0  2  0  0  0  0  0  0
  188.9250  177.3700  142.0540 N   0  0  0  0  0  0  0  0  0  0  0  0
  188.4240  177.4060  144.5020 N   0  0  0  0  0  0  0  0  0  0  0  0
  188.2130  177.5970  140.9580 N   0  0  0  0  0  0  0  0  0  0  0  0
  191.0120  176.8410  146.6160 C   0  0  0  0  0  0  0  0  0  0  0  0
  190.2810  176.8140  142.0520 C   0  0  1  0  0  3  0  0  0  0  0  0
  186.8950  178.0050  142.6110 C   0  0  0  0  0  0  0  0  0  0  0  0
  190.8220  177.0700  144.3920 N   0  0  0  0  0  0  0  0  0  0  0  0
  188.1200  177.6070  143.1110 C   0  0  0  0  0  0  0  0  0  0  0  0
  189.7320  176.9920  146.4580 N   0  0  0  0  0  0  0  0  0  0  0  0
  186.9850  177.9930  141.2650 N   0  0  0  0  0  0  0  0  0  0  0  0
  191.7680  176.9080  145.4030 N   0  0  0  0  0  2  0  0  0  0  0  0
  189.5730  177.1520  145.0540 C   0  0  0  0  0  0  0  0  0  0  0  0
  184.4690  178.5650  142.6600 C   0  0  0  0  0  3  0  0  0  0  0  0
  183.3310  179.0720  144.7350 C   0  0  0  0  0  3  0  0  0  0  0  0
  184.5250  178.8830  145.4350 C   0  0  0  0  0  3  0  0  0  0  0  0
  185.6900  178.5340  144.7470 C   0  0  0  0  0  3  0  0  0  0  0  0
  185.6730  178.3720  143.3540 C   0  0  0  0  0  0  0  0  0  0  0  0
  183.3030  178.9130  143.3470 C   0  0  0  0  0  3  0  0  0  0  0  0
  192.1380  176.9400  138.1730 C   0  0  0  0  0  3  0  0  0  0  0  0
  190.9120  176.8570  140.6910 C   0  0  0  0  0  0  0  0  0  0  0  0
  192.2140  177.3520  140.5580 C   0  0  0  0  0  3  0  0  0  0  0  0
  192.8260  177.3940  139.3020 C   0  0  0  0  0  3  0  0  0  0  0  0
  190.8380  176.4440  138.2990 C   0  0  0  0  0  3  0  0  0  0  0  0
  190.2250  176.4020  139.5550 C   0  0  0  0  0  3  0  0  0  0  0  0
  192.6850  175.5880  147.9100 C   0  0  0  0  0  1  0  0  0  0  0  0
  191.6410  176.6870  147.9540 C   0  0  0  0  0  2  0  0  0  0  0  0
  1  8  1  0  0  0  0
  2  9  1  0  0  0  0
  3 13  2  0  0  0  0
  4 11  2  0  0  0  0
  4  2  1  0  0  0  0
  5 27  1  0  0  0  0
  6 21  1  6  0  0  0
  6  2  1  0  0  0  0
  6  1  1  0  0  0  0
  7  9  2  0  0  0  0
  7 18  1  0  0  0  0
  8 13  1  0  0  0  0
  8 12  1  0  0  0  0
  9  3  1  0  0  0  0
 10  5  2  0  0  0  0
 11  7  1  0  0  0  0
 12  5  1  0  0  0  0
 13 10  1  0  0  0  0
 14 19  2  0  0  0  0
 14 18  1  0  0  0  0
 15 16  2  0  0  0  0
 17 16  1  0  0  0  0
 18 17  2  0  0  0  0
 19 15  1  0  0  0  0
 20 24  2  0  0  0  0
 20 23  1  0  0  0  0
 22 21  1  0  0  0  0
 23 22  2  0  0  0  0
 24 25  1  0  0  0  0
 25 21  2  0  0  0  0
 26 27  1  0  0  0  0
M  END
>  <MODEL>
8

>  <REMARK>
 VINA RESULT:      -9.4      1.934      5.588
  Name = 
  3 active torsions:
  status: ('A' for Active; 'I' for Inactive)
    1  A    between atoms: C_9  and  C_15
    2  A    between atoms: C_13  and  C_22
    3  A    between atoms: C_14  and  C_17
                            x       y       z     vdW  Elec       q    Type
                         _______ _______ _______ _____ _____    ______ ____

>  <TORSDO>
F 3

$$$$
=
 OpenBabel10272401153D

 27 31  0  0  1  0  0  0  0  0999 V2000
  187.2450  178.4130  144.7700 C   0  0  0  0  0  2  0  0  0  0  0  0
  188.5470  177.5240  142.8940 N   0  0  0  0  0  0  0  0  0  0  0  0
  186.3870  178.1620  141.8130 N   0  0  0  0  0  0  0  0  0  0  0  0
  189.7710  177.2780  142.4460 N   0  0  0  0  0  0  0  0  0  0  0  0
  183.7530  178.7610  143.8590 C   0  0  0  0  0  0  0  0  0  0  0  0
  188.1100  177.2750  144.2700 C   0  0  1  0  0  3  0  0  0  0  0  0
  188.6240  177.8710  140.7240 C   0  0  0  0  0  0  0  0  0  0  0  0
  185.9240  178.2970  144.1880 N   0  0  0  0  0  0  0  0  0  0  0  0
  187.7980  177.8890  141.8320 C   0  0  0  0  0  0  0  0  0  0  0  0
  184.1920  178.6010  142.6470 N   0  0  0  0  0  0  0  0  0  0  0  0
  189.8490  177.4900  141.1390 N   0  0  0  0  0  0  0  0  0  0  0  0
  184.7550  178.6260  144.8720 N   0  0  0  0  0  2  0  0  0  0  0  0
  185.5740  178.3140  142.8150 C   0  0  0  0  0  0  0  0  0  0  0  0
  189.2830  178.6620  138.4560 C   0  0  0  0  0  3  0  0  0  0  0  0
  187.6810  178.7890  136.6470 C   0  0  0  0  0  3  0  0  0  0  0  0
  186.6820  178.3130  137.4990 C   0  0  0  0  0  3  0  0  0  0  0  0
  186.9850  178.0120  138.8300 C   0  0  0  0  0  3  0  0  0  0  0  0
  188.2880  178.1830  139.3210 C   0  0  0  0  0  0  0  0  0  0  0  0
  188.9820  178.9630  137.1250 C   0  0  0  0  0  3  0  0  0  0  0  0
  191.3870  176.6180  146.9810 C   0  0  0  0  0  3  0  0  0  0  0  0
  189.2660  177.0500  145.2020 C   0  0  0  0  0  0  0  0  0  0  0  0
  189.0530  177.1290  146.5830 C   0  0  0  0  0  3  0  0  0  0  0  0
  190.1120  176.9140  147.4710 C   0  0  0  0  0  3  0  0  0  0  0  0
  191.6050  176.5370  145.6030 C   0  0  0  0  0  3  0  0  0  0  0  0
  190.5470  176.7510  144.7140 C   0  0  0  0  0  3  0  0  0  0  0  0
  181.4880  178.9380  142.9230 C   0  0  0  0  0  1  0  0  0  0  0  0
  182.3440  179.1290  144.1590 C   0  0  0  0  0  2  0  0  0  0  0  0
  2  6  1  0  0  0  0
  3  9  1  0  0  0  0
  3 13  2  0  0  0  0
  4  2  1  0  0  0  0
  5 27  1  0  0  0  0
  5 12  1  0  0  0  0
  6  1  1  0  0  0  0
  6 21  1  1  0  0  0
  7 11  1  0  0  0  0
  7  9  2  0  0  0  0
  8  1  1  0  0  0  0
  8 12  1  0  0  0  0
  9  2  1  0  0  0  0
 10 13  1  0  0  0  0
 10  5  2  0  0  0  0
 11  4  2  0  0  0  0
 13  8  1  0  0  0  0
 14 18  1  0  0  0  0
 15 19  1  0  0  0  0
 15 16  2  0  0  0  0
 16 17  1  0  0  0  0
 17 18  2  0  0  0  0
 18  7  1  0  0  0  0
 19 14  2  0  0  0  0
 20 23  1  0  0  0  0
 21 22  1  0  0  0  0
 22 23  2  0  0  0  0
 24 20  2  0  0  0  0
 25 21  2  0  0  0  0
 25 24  1  0  0  0  0
 26 27  1  0  0  0  0
M  END
>  <MODEL>
9

>  <REMARK>
 VINA RESULT:      -9.3      1.226      5.310
  Name = 
  3 active torsions:
  status: ('A' for Active; 'I' for Inactive)
    1  A    between atoms: C_9  and  C_15
    2  A    between atoms: C_13  and  C_22
    3  A    between atoms: C_14  and  C_17
                            x       y       z     vdW  Elec       q    Type
                         _______ _______ _______ _____ _____    ______ ____

>  <TORSDO>
F 3

$$$$
