=
 OpenBabel10272414523D

 37 42  0  0  1  0  0  0  0  0999 V2000
  179.9820  180.6550  140.2280 C   0  0  0  0  0  2  0  0  0  0  0  0
  184.0860  179.1400  141.4740 C   0  0  0  0  0  0  0  0  0  0  0  0
  187.3960  178.3560  140.1530 N   0  0  0  0  0  2  0  0  0  0  0  0
  181.5940  178.9340  140.9940 C   0  0  0  0  0  0  0  0  0  0  0  0
  185.2960  179.2760  140.9520 C   0  0  0  0  0  3  0  0  0  0  0  0
  182.9240  179.5430  140.5690 C   0  0  0  0  0  0  0  0  0  0  0  0
  186.5910  178.6840  141.2980 C   0  0  0  0  0  0  0  0  0  0  0  0
  181.4590  178.3140  142.1680 C   0  0  0  0  0  3  0  0  0  0  0  0
  183.2650  179.3250  139.0590 C   0  0  2  0  0  3  0  0  0  0  0  0
  181.8820  181.6570  138.4790 S   0  0  0  0  0  0  0  0  0  0  0  0
  184.8220  178.4280  143.8520 C   0  0  0  0  0  3  0  0  0  0  0  0
  182.5870  178.1310  143.0910 C   0  0  0  0  0  3  0  0  0  0  0  0
  182.2690  179.9260  138.0720 C   0  0  0  0  0  2  0  0  0  0  0  0
  187.3550  177.3920  138.0260 C   0  0  1  0  0  3  0  0  0  0  0  0
  186.8600  178.4950  138.8590 N   0  0  1  0  0  0  0  0  0  0  0  0
  183.8290  178.4950  142.7770 C   0  0  1  0  0  3  0  0  0  0  0  0
  183.5440  177.8620  138.7150 C   0  0  0  0  0  2  0  0  0  0  0  0
  180.3480  179.1790  140.2050 C   0  0  0  0  0  2  0  0  0  0  0  0
  186.9980  178.3330  142.5360 C   0  0  0  0  0  0  0  0  0  0  0  0
  180.1380  181.2710  138.8450 C   0  0  0  0  0  2  0  0  0  0  0  0
  186.0070  177.3080  138.6350 C   0  0  1  0  0  3  0  0  0  0  0  0
  184.7700  177.7120  137.8080 C   0  0  1  0  0  3  0  0  0  0  0  0
  186.1480  178.3870  143.7450 C   0  0  0  0  0  3  0  0  0  0  0  0
  189.3510  178.7440  143.0260 C   0  0  0  0  0  3  0  0  0  0  0  0
  188.3850  177.8500  142.7580 C   0  0  0  0  0  0  0  0  0  0  0  0
  188.6740  176.3630  142.7660 C   0  0  0  0  0  2  0  0  0  0  0  0
  190.3540  174.7020  143.0280 F   0  0  0  0  0  0  0  0  0  0  0  0
  190.9330  176.9130  143.6690 C   0  0  0  0  0  2  0  0  0  0  0  0
  190.1640  176.0300  142.7000 C   0  0  2  0  0  3  0  0  0  0  0  0
  190.7920  178.3630  143.2210 C   0  0  0  0  0  2  0  0  0  0  0  0
  187.3850  177.8430  136.5720 C   0  0  0  0  0  2  0  0  0  0  0  0
  188.3030  176.9360  135.7800 C   0  0  0  0  0  1  0  0  0  0  0  0
  184.4880  176.7430  136.6440 C   0  0  0  0  0  2  0  0  0  0  0  0
  184.4550  175.2400  136.9720 C   0  0  1  0  0  3  0  0  0  0  0  0
  183.2110  174.6780  136.6890 O   0  0  0  0  0  1  0  0  0  0  0  0
  186.4110  173.7500  137.0100 C   0  0  0  0  0  2  0  0  0  0  0  0
  185.5420  174.4640  136.2990 C   0  0  0  0  0  3  0  0  0  0  0  0
  2 16  1  0  0  0  0
  3  7  1  0  0  0  0
  4  8  1  0  0  0  0
  5  7  1  0  0  0  0
  5  2  2  0  0  0  0
  6  4  2  0  0  0  0
  6  2  1  0  0  0  0
  7 19  2  0  0  0  0
  8 12  2  0  0  0  0
  9 13  1  6  0  0  0
  9  6  1  0  0  0  0
 10 20  1  0  0  0  0
 13 10  1  0  0  0  0
 14 31  1  6  0  0  0
 14 21  1  0  0  0  0
 14 15  1  0  0  0  0
 15  3  1  1  0  0  0
 16 12  1  1  0  0  0
 16 11  1  0  0  0  0
 17  9  1  0  0  0  0
 18  1  1  0  0  0  0
 18  4  1  0  0  0  0
 19 25  1  0  0  0  0
 19 23  1  0  0  0  0
 20  1  1  0  0  0  0
 21 15  1  0  0  0  0
 22 21  1  0  0  0  0
 22 17  1  0  0  0  0
 23 11  2  0  0  0  0
 24 30  1  0  0  0  0
 25 26  1  0  0  0  0
 25 24  2  0  0  0  0
 29 26  1  0  0  0  0
 29 27  1  0  0  0  0
 29 28  1  0  0  0  0
 30 28  1  0  0  0  0
 32 31  1  0  0  0  0
 33 34  1  0  0  0  0
 33 22  1  0  0  0  0
 35 34  1  0  0  0  0
 37 34  1  0  0  0  0
 37 36  2  0  0  0  0
M  END
>  <MODEL>
1

>  <REMARK>
 VINA RESULT:      -6.9      0.000      0.000
  Name = 
  5 active torsions:
  status: ('A' for Active; 'I' for Inactive)
    1  A    between atoms: C_1  and  C_5
    2  A    between atoms: C_1  and  C_36
    3  A    between atoms: C_5  and  C_23
    4  A    between atoms: C_6  and  C_31
    5  A    between atoms: C_11  and  C_26
                            x       y       z     vdW  Elec       q    Type
                         _______ _______ _______ _____ _____    ______ ____

>  <TORSDO>
F 5

$$$$
=
 OpenBabel10272414523D

 37 42  0  0  1  0  0  0  0  0999 V2000
  190.6340  175.7470  136.7720 C   0  0  0  0  0  2  0  0  0  0  0  0
  189.9360  176.6900  141.1670 C   0  0  0  0  0  0  0  0  0  0  0  0
  187.2870  177.2600  143.6110 N   0  0  0  0  0  2  0  0  0  0  0  0
  190.6570  177.2020  138.7790 C   0  0  0  0  0  0  0  0  0  0  0  0
  188.9140  176.4840  141.9840 C   0  0  0  0  0  3  0  0  0  0  0  0
  189.6440  176.5060  139.6800 C   0  0  2  0  0  3  0  0  0  0  0  0
  188.6570  176.9000  143.3660 C   0  0  0  0  0  0  0  0  0  0  0  0
  191.7890  177.7080  139.2720 C   0  0  0  0  0  3  0  0  0  0  0  0
  188.1560  176.8440  139.3370 C   0  0  2  0  0  3  0  0  0  0  0  0
  188.1660  174.7410  137.5290 S   0  0  0  0  0  0  0  0  0  0  0  0
  191.7450  177.0700  142.9790 C   0  0  0  0  0  3  0  0  0  0  0  0
  192.1030  177.6750  140.7060 C   0  0  0  0  0  3  0  0  0  0  0  0
  187.7070  176.4560  137.9310 C   0  0  0  0  0  2  0  0  0  0  0  0
  185.4600  178.4390  142.7590 C   0  0  1  0  0  3  0  0  0  0  0  0
  186.3760  177.3130  142.5400 N   0  0  1  0  0  0  0  0  0  0  0  0
  191.2400  177.2190  141.6120 C   0  0  0  0  0  0  0  0  0  0  0  0
  187.7900  178.2970  139.6340 C   0  0  0  0  0  2  0  0  0  0  0  0
  190.5140  177.1720  137.2920 C   0  0  0  0  0  2  0  0  0  0  0  0
  189.5870  177.0760  144.3280 C   0  0  0  0  0  0  0  0  0  0  0  0
  189.3050  175.2660  136.2060 C   0  0  0  0  0  2  0  0  0  0  0  0
  186.6200  178.5980  141.8520 C   0  0  1  0  0  3  0  0  0  0  0  0
  186.4320  178.4130  140.3330 C   0  0  1  0  0  3  0  0  0  0  0  0
  191.0470  176.9840  144.1100 C   0  0  0  0  0  3  0  0  0  0  0  0
  190.0350  177.1520  146.7230 C   0  0  0  0  0  3  0  0  0  0  0  0
  189.1730  177.3860  145.7200 C   0  0  0  0  0  0  0  0  0  0  0  0
  187.8300  178.0360  145.9810 C   0  0  0  0  0  2  0  0  0  0  0  0
  186.3630  178.8850  147.6470 F   0  0  0  0  0  0  0  0  0  0  0  0
  188.5920  178.4250  148.3240 C   0  0  0  0  0  2  0  0  0  0  0  0
  187.4170  178.0130  147.4520 C   0  0  2  0  0  3  0  0  0  0  0  0
  189.6980  177.3890  148.1680 C   0  0  0  0  0  2  0  0  0  0  0  0
  184.1340  178.1410  142.0730 C   0  0  0  0  0  2  0  0  0  0  0  0
  183.0040  178.7700  142.8610 C   0  0  0  0  0  1  0  0  0  0  0  0
  185.5710  179.5220  139.6990 C   0  0  0  0  0  2  0  0  0  0  0  0
  184.5440  179.0940  138.6360 C   0  0  1  0  0  3  0  0  0  0  0  0
  184.4410  177.7060  138.5470 O   0  0  0  0  0  1  0  0  0  0  0  0
  182.1180  178.9380  139.0090 C   0  0  0  0  0  2  0  0  0  0  0  0
  183.1940  179.7040  138.8380 C   0  0  0  0  0  3  0  0  0  0  0  0
  1 18  1  0  0  0  0
  2 16  1  0  0  0  0
  2  5  2  0  0  0  0
  4  8  2  0  0  0  0
  5  7  1  0  0  0  0
  6  4  1  6  0  0  0
  6  2  1  0  0  0  0
  7  3  1  0  0  0  0
  7 19  2  0  0  0  0
  8 12  1  0  0  0  0
  9 13  1  6  0  0  0
  9 17  1  0  0  0  0
  9  6  1  0  0  0  0
 10 13  1  0  0  0  0
 11 23  2  0  0  0  0
 12 16  2  0  0  0  0
 14 31  1  6  0  0  0
 15 14  1  0  0  0  0
 15  3  1  1  0  0  0
 16 11  1  0  0  0  0
 17 22  1  0  0  0  0
 18  4  1  0  0  0  0
 19 25  1  0  0  0  0
 20  1  1  0  0  0  0
 20 10  1  0  0  0  0
 21 15  1  0  0  0  0
 21 14  1  0  0  0  0
 22 21  1  0  0  0  0
 23 19  1  0  0  0  0
 24 30  1  0  0  0  0
 25 26  1  0  0  0  0
 25 24  2  0  0  0  0
 26 29  1  0  0  0  0
 29 27  1  0  0  0  0
 29 28  1  0  0  0  0
 30 28  1  0  0  0  0
 31 32  1  0  0  0  0
 33 22  1  0  0  0  0
 34 37  1  0  0  0  0
 34 33  1  0  0  0  0
 35 34  1  0  0  0  0
 37 36  2  0  0  0  0
M  END
>  <MODEL>
2

>  <REMARK>
 VINA RESULT:      -6.1      3.125      6.723
  Name = 
  5 active torsions:
  status: ('A' for Active; 'I' for Inactive)
    1  A    between atoms: C_1  and  C_5
    2  A    between atoms: C_1  and  C_36
    3  A    between atoms: C_5  and  C_23
    4  A    between atoms: C_6  and  C_31
    5  A    between atoms: C_11  and  C_26
                            x       y       z     vdW  Elec       q    Type
                         _______ _______ _______ _____ _____    ______ ____

>  <TORSDO>
F 5

$$$$
=
 OpenBabel10272414523D

 37 42  0  0  1  0  0  0  0  0999 V2000
  180.5940  180.3160  140.7870 C   0  0  0  0  0  2  0  0  0  0  0  0
  184.8470  178.7830  140.2880 C   0  0  0  0  0  0  0  0  0  0  0  0
  187.1530  177.4260  137.8060 N   0  0  0  0  0  2  0  0  0  0  0  0
  182.4370  178.6880  141.1030 C   0  0  0  0  0  0  0  0  0  0  0  0
  185.6560  178.6870  139.2430 C   0  0  0  0  0  3  0  0  0  0  0  0
  183.3810  179.0620  139.9670 C   0  0  0  0  0  0  0  0  0  0  0  0
  186.9800  178.0810  139.0730 C   0  0  0  0  0  0  0  0  0  0  0  0
  182.9000  178.3730  142.3140 C   0  0  0  0  0  3  0  0  0  0  0  0
  182.9680  178.4690  138.5810 C   0  0  2  0  0  3  0  0  0  0  0  0
  181.3930  180.7120  138.1640 S   0  0  0  0  0  0  0  0  0  0  0  0
  186.6520  178.5830  142.1320 C   0  0  0  0  0  3  0  0  0  0  0  0
  184.3370  178.3130  142.6110 C   0  0  0  0  0  3  0  0  0  0  0  0
  181.6010  178.9070  138.0650 C   0  0  0  0  0  2  0  0  0  0  0  0
  186.1370  176.0000  136.2600 C   0  0  1  0  0  3  0  0  0  0  0  0
  186.0600  177.3050  136.9270 N   0  0  1  0  0  0  0  0  0  0  0  0
  185.2650  178.4840  141.6720 C   0  0  1  0  0  3  0  0  0  0  0  0
  183.1020  176.9480  138.5190 C   0  0  0  0  0  2  0  0  0  0  0  0
  180.9580  178.8490  140.9590 C   0  0  0  0  0  2  0  0  0  0  0  0
  187.9400  177.9950  140.0180 C   0  0  0  0  0  0  0  0  0  0  0  0
  180.0500  180.5750  139.3890 C   0  0  0  0  0  2  0  0  0  0  0  0
  185.2470  176.1780  137.4300 C   0  0  1  0  0  3  0  0  0  0  0  0
  183.7520  176.4840  137.2110 C   0  0  1  0  0  3  0  0  0  0  0  0
  187.7680  178.4040  141.4290 C   0  0  0  0  0  3  0  0  0  0  0  0
  189.4430  176.8010  138.5140 C   0  0  0  0  0  3  0  0  0  0  0  0
  189.2810  177.4590  139.6740 C   0  0  0  0  0  0  0  0  0  0  0  0
  190.4600  177.7320  140.5860 C   0  0  0  0  0  2  0  0  0  0  0  0
  192.7890  177.3970  140.9200 F   0  0  0  0  0  0  0  0  0  0  0  0
  191.9320  176.8570  138.7730 C   0  0  0  0  0  2  0  0  0  0  0  0
  191.6860  176.8760  140.2730 C   0  0  2  0  0  3  0  0  0  0  0  0
  190.7470  176.1820  138.0950 C   0  0  0  0  0  2  0  0  0  0  0  0
  185.4550  176.0950  134.9030 C   0  0  0  0  0  2  0  0  0  0  0  0
  185.6270  177.4930  134.3460 C   0  0  0  0  0  1  0  0  0  0  0  0
  182.9840  175.2990  136.5960 C   0  0  0  0  0  2  0  0  0  0  0  0
  182.7310  174.0790  137.5000 C   0  0  1  0  0  3  0  0  0  0  0  0
  181.3720  173.9060  137.7640 O   0  0  0  0  0  1  0  0  0  0  0  0
  184.5910  172.4960  137.2140 C   0  0  0  0  0  2  0  0  0  0  0  0
  183.3220  172.8140  136.9660 C   0  0  0  0  0  3  0  0  0  0  0  0
  1 18  1  0  0  0  0
  2 16  1  0  0  0  0
  3  7  1  0  0  0  0
  4  8  1  0  0  0  0
  5  2  2  0  0  0  0
  6  2  1  0  0  0  0
  6  4  2  0  0  0  0
  7  5  1  0  0  0  0
  7 19  2  0  0  0  0
  8 12  2  0  0  0  0
  9 13  1  1  0  0  0
  9  6  1  0  0  0  0
 10 20  1  0  0  0  0
 13 10  1  0  0  0  0
 14 31  1  6  0  0  0
 14 15  1  0  0  0  0
 14 21  1  0  0  0  0
 15 21  1  0  0  0  0
 15  3  1  1  0  0  0
 16 11  1  1  0  0  0
 16 12  1  0  0  0  0
 17  9  1  0  0  0  0
 18  4  1  0  0  0  0
 19 23  1  0  0  0  0
 20  1  1  0  0  0  0
 22 21  1  0  0  0  0
 22 17  1  0  0  0  0
 23 11  2  0  0  0  0
 24 25  2  0  0  0  0
 25 19  1  0  0  0  0
 25 26  1  0  0  0  0
 28 29  1  0  0  0  0
 29 26  1  0  0  0  0
 29 27  1  0  0  0  0
 30 24  1  0  0  0  0
 30 28  1  0  0  0  0
 32 31  1  0  0  0  0
 33 22  1  0  0  0  0
 33 34  1  0  0  0  0
 34 35  1  0  0  0  0
 37 36  2  0  0  0  0
 37 34  1  0  0  0  0
M  END
>  <MODEL>
3

>  <REMARK>
 VINA RESULT:      -5.6      1.990      2.592
  Name = 
  5 active torsions:
  status: ('A' for Active; 'I' for Inactive)
    1  A    between atoms: C_1  and  C_5
    2  A    between atoms: C_1  and  C_36
    3  A    between atoms: C_5  and  C_23
    4  A    between atoms: C_6  and  C_31
    5  A    between atoms: C_11  and  C_26
                            x       y       z     vdW  Elec       q    Type
                         _______ _______ _______ _____ _____    ______ ____

>  <TORSDO>
F 5

$$$$
=
 OpenBabel10272414523D

 37 42  0  0  1  0  0  0  0  0999 V2000
  181.1540  179.9440  142.9280 C   0  0  0  0  0  2  0  0  0  0  0  0
  184.8140  178.6270  140.5700 C   0  0  0  0  0  0  0  0  0  0  0  0
  185.8300  177.2680  137.3390 N   0  0  0  0  0  2  0  0  0  0  0  0
  183.0550  178.4420  142.4010 C   0  0  0  0  0  0  0  0  0  0  0  0
  185.0630  178.5190  139.2730 C   0  0  0  0  0  3  0  0  0  0  0  0
  183.3460  178.8060  140.9510 C   0  0  0  0  0  0  0  0  0  0  0  0
  186.2050  177.9810  138.5300 C   0  0  0  0  0  0  0  0  0  0  0  0
  184.0410  178.2200  143.2720 C   0  0  0  0  0  3  0  0  0  0  0  0
  182.3930  178.1150  139.9220 C   0  0  2  0  0  3  0  0  0  0  0  0
  180.6380  180.2390  140.2220 S   0  0  0  0  0  0  0  0  0  0  0  0
  187.2710  178.6320  141.3860 C   0  0  0  0  0  3  0  0  0  0  0  0
  185.4560  178.2580  142.8790 C   0  0  0  0  0  3  0  0  0  0  0  0
  180.9120  178.4460  140.0800 C   0  0  0  0  0  2  0  0  0  0  0  0
  184.3320  175.7040  136.4640 C   0  0  1  0  0  3  0  0  0  0  0  0
  184.4700  177.0370  137.0620 N   0  0  1  0  0  0  0  0  0  0  0  0
  185.8380  178.4290  141.6140 C   0  0  1  0  0  3  0  0  0  0  0  0
  182.5980  176.6020  139.8410 C   0  0  0  0  0  2  0  0  0  0  0  0
  181.6660  178.5110  142.9480 C   0  0  0  0  0  2  0  0  0  0  0  0
  187.4940  178.0010  138.9300 C   0  0  0  0  0  0  0  0  0  0  0  0
  180.0150  180.0940  141.9290 C   0  0  0  0  0  2  0  0  0  0  0  0
  184.0630  175.8960  137.9080 C   0  0  1  0  0  3  0  0  0  0  0  0
  182.6140  176.1040  138.3920 C   0  0  1  0  0  3  0  0  0  0  0  0
  187.9540  178.4770  140.2540 C   0  0  0  0  0  3  0  0  0  0  0  0
  188.6710  178.0610  136.7960 C   0  0  0  0  0  3  0  0  0  0  0  0
  188.5670  177.5230  138.0220 C   0  0  0  0  0  0  0  0  0  0  0  0
  189.5760  176.5060  138.5160 C   0  0  0  0  0  2  0  0  0  0  0  0
  191.5000  175.2310  137.9490 F   0  0  0  0  0  0  0  0  0  0  0  0
  190.9030  176.9790  136.4570 C   0  0  0  0  0  2  0  0  0  0  0  0
  190.4170  175.8890  137.3990 C   0  0  2  0  0  3  0  0  0  0  0  0
  189.6920  177.6150  135.7870 C   0  0  0  0  0  2  0  0  0  0  0  0
  183.1010  175.6850  135.5690 C   0  0  0  0  0  2  0  0  0  0  0  0
  183.0370  176.9700  134.7700 C   0  0  0  0  0  1  0  0  0  0  0  0
  181.7420  174.8450  138.2250 C   0  0  0  0  0  2  0  0  0  0  0  0
  180.3210  175.0420  137.6670 C   0  0  1  0  0  3  0  0  0  0  0  0
  180.1050  176.3590  137.2600 O   0  0  0  0  0  1  0  0  0  0  0  0
  180.7870  173.0750  136.2660 C   0  0  0  0  0  2  0  0  0  0  0  0
  179.9830  174.0940  136.5610 C   0  0  0  0  0  3  0  0  0  0  0  0
  1 18  1  0  0  0  0
  2  6  1  0  0  0  0
  2 16  1  0  0  0  0
  3  7  1  0  0  0  0
  4 18  1  0  0  0  0
  4  8  1  0  0  0  0
  5  2  2  0  0  0  0
  6  4  2  0  0  0  0
  7 19  2  0  0  0  0
  7  5  1  0  0  0  0
  9 17  1  1  0  0  0
  9 13  1  0  0  0  0
  9  6  1  0  0  0  0
 10 20  1  0  0  0  0
 12  8  2  0  0  0  0
 13 10  1  0  0  0  0
 14 31  1  6  0  0  0
 14 15  1  0  0  0  0
 14 21  1  0  0  0  0
 15  3  1  1  0  0  0
 15 21  1  0  0  0  0
 16 11  1  1  0  0  0
 16 12  1  0  0  0  0
 19 23  1  0  0  0  0
 20  1  1  0  0  0  0
 21 22  1  0  0  0  0
 22 17  1  0  0  0  0
 23 11  2  0  0  0  0
 24 25  2  0  0  0  0
 25 26  1  0  0  0  0
 25 19  1  0  0  0  0
 28 29  1  0  0  0  0
 29 27  1  0  0  0  0
 29 26  1  0  0  0  0
 30 28  1  0  0  0  0
 30 24  1  0  0  0  0
 32 31  1  0  0  0  0
 33 22  1  0  0  0  0
 34 33  1  0  0  0  0
 35 34  1  0  0  0  0
 36 37  2  0  0  0  0
 37 34  1  0  0  0  0
M  END
>  <MODEL>
4

>  <REMARK>
 VINA RESULT:      -5.4      2.320      3.992
  Name = 
  5 active torsions:
  status: ('A' for Active; 'I' for Inactive)
    1  A    between atoms: C_1  and  C_5
    2  A    between atoms: C_1  and  C_36
    3  A    between atoms: C_5  and  C_23
    4  A    between atoms: C_6  and  C_31
    5  A    between atoms: C_11  and  C_26
                            x       y       z     vdW  Elec       q    Type
                         _______ _______ _______ _____ _____    ______ ____

>  <TORSDO>
F 5

$$$$
=
 OpenBabel10272414523D

 37 42  0  0  1  0  0  0  0  0999 V2000
  180.0170  179.0640  137.1540 C   0  0  0  0  0  2  0  0  0  0  0  0
  184.2340  178.3080  138.6840 C   0  0  0  0  0  0  0  0  0  0  0  0
  187.4460  176.8800  137.7040 N   0  0  0  0  0  2  0  0  0  0  0  0
  181.7160  177.9430  138.5700 C   0  0  0  0  0  0  0  0  0  0  0  0
  185.3970  178.1290  138.0750 C   0  0  0  0  0  3  0  0  0  0  0  0
  182.9980  178.2160  137.7920 C   0  0  0  0  0  0  0  0  0  0  0  0
  186.7260  177.7680  138.5760 C   0  0  0  0  0  0  0  0  0  0  0  0
  181.6850  178.0160  139.9010 C   0  0  0  0  0  3  0  0  0  0  0  0
  183.2250  177.2470  136.5860 C   0  0  2  0  0  3  0  0  0  0  0  0
  181.7560  178.9810  134.9990 S   0  0  0  0  0  0  0  0  0  0  0  0
  185.1650  178.9000  141.0250 C   0  0  0  0  0  3  0  0  0  0  0  0
  182.8840  178.3060  140.6980 C   0  0  0  0  0  3  0  0  0  0  0  0
  182.1430  177.2780  135.5110 C   0  0  0  0  0  2  0  0  0  0  0  0
  187.2590  174.9630  136.3830 C   0  0  1  0  0  3  0  0  0  0  0  0
  186.8090  176.3480  136.5680 N   0  0  1  0  0  0  0  0  0  0  0  0
  184.0910  178.4290  140.1480 C   0  0  1  0  0  3  0  0  0  0  0  0
  183.5050  175.8080  137.0220 C   0  0  0  0  0  2  0  0  0  0  0  0
  180.4090  177.7770  137.8640 C   0  0  0  0  0  2  0  0  0  0  0  0
  187.2350  178.0930  139.7830 C   0  0  0  0  0  0  0  0  0  0  0  0
  180.0540  178.8780  135.6440 C   0  0  0  0  0  2  0  0  0  0  0  0
  185.9650  175.2350  137.0500 C   0  0  1  0  0  3  0  0  0  0  0  0
  184.6600  175.1860  136.2300 C   0  0  1  0  0  3  0  0  0  0  0  0
  186.4800  178.7800  140.8540 C   0  0  0  0  0  3  0  0  0  0  0  0
  189.6020  178.0040  139.2070 C   0  0  0  0  0  3  0  0  0  0  0  0
  188.6430  177.7610  140.1150 C   0  0  0  0  0  0  0  0  0  0  0  0
  188.9900  177.2360  141.4930 C   0  0  0  0  0  2  0  0  0  0  0  0
  190.7440  176.5000  142.9180 F   0  0  0  0  0  0  0  0  0  0  0  0
  191.3890  177.5930  140.9110 C   0  0  0  0  0  2  0  0  0  0  0  0
  190.4010  176.6570  141.5890 C   0  0  2  0  0  3  0  0  0  0  0  0
  191.0490  177.6630  139.4270 C   0  0  0  0  0  2  0  0  0  0  0  0
  187.1680  174.6030  134.9070 C   0  0  0  0  0  2  0  0  0  0  0  0
  188.3990  173.8210  134.5000 C   0  0  0  0  0  1  0  0  0  0  0  0
  184.3070  173.7640  135.7540 C   0  0  0  0  0  2  0  0  0  0  0  0
  184.4860  172.6190  136.7670 C   0  0  1  0  0  3  0  0  0  0  0  0
  183.2630  172.1970  137.2900 O   0  0  0  0  0  1  0  0  0  0  0  0
  185.3810  171.2900  134.9000 C   0  0  0  0  0  2  0  0  0  0  0  0
  185.2440  171.4540  136.2140 C   0  0  0  0  0  3  0  0  0  0  0  0
  1 18  1  0  0  0  0
  2 16  1  0  0  0  0
  3  7  1  0  0  0  0
  4  8  1  0  0  0  0
  5  7  1  0  0  0  0
  5  2  2  0  0  0  0
  6  4  2  0  0  0  0
  6  2  1  0  0  0  0
  7 19  2  0  0  0  0
  8 12  2  0  0  0  0
  9 13  1  6  0  0  0
  9 17  1  0  0  0  0
  9  6  1  0  0  0  0
 10 13  1  0  0  0  0
 10 20  1  0  0  0  0
 14 31  1  6  0  0  0
 14 15  1  0  0  0  0
 14 21  1  0  0  0  0
 15 21  1  0  0  0  0
 15  3  1  1  0  0  0
 16 12  1  6  0  0  0
 16 11  1  0  0  0  0
 18  4  1  0  0  0  0
 19 25  1  0  0  0  0
 19 23  1  0  0  0  0
 20  1  1  0  0  0  0
 22 17  1  0  0  0  0
 22 21  1  0  0  0  0
 23 11  2  0  0  0  0
 24 30  1  0  0  0  0
 24 25  2  0  0  0  0
 25 26  1  0  0  0  0
 26 29  1  0  0  0  0
 28 29  1  0  0  0  0
 29 27  1  0  0  0  0
 30 28  1  0  0  0  0
 32 31  1  0  0  0  0
 33 22  1  0  0  0  0
 33 34  1  0  0  0  0
 34 35  1  0  0  0  0
 36 37  2  0  0  0  0
 37 34  1  0  0  0  0
M  END
>  <MODEL>
5

>  <REMARK>
 VINA RESULT:      -5.2      2.194      3.010
  Name = 
  5 active torsions:
  status: ('A' for Active; 'I' for Inactive)
    1  A    between atoms: C_1  and  C_5
    2  A    between atoms: C_1  and  C_36
    3  A    between atoms: C_5  and  C_23
    4  A    between atoms: C_6  and  C_31
    5  A    between atoms: C_11  and  C_26
                            x       y       z     vdW  Elec       q    Type
                         _______ _______ _______ _____ _____    ______ ____

>  <TORSDO>
F 5

$$$$
=
 OpenBabel10272414523D

 37 42  0  0  1  0  0  0  0  0999 V2000
  191.1630  176.1860  145.4900 C   0  0  0  0  0  2  0  0  0  0  0  0
  186.9360  177.5790  144.5520 C   0  0  0  0  0  0  0  0  0  0  0  0
  184.5710  177.9740  141.8010 N   0  0  0  0  0  2  0  0  0  0  0  0
  189.3780  177.8830  145.2060 C   0  0  0  0  0  0  0  0  0  0  0  0
  186.0890  177.3000  143.5720 C   0  0  0  0  0  3  0  0  0  0  0  0
  188.3810  177.1410  144.3250 C   0  0  0  0  0  0  0  0  0  0  0  0
  184.7760  177.8470  143.2180 C   0  0  0  0  0  0  0  0  0  0  0  0
  188.9700  178.6550  146.2150 C   0  0  0  0  0  3  0  0  0  0  0  0
  188.7540  177.1430  142.8070 C   0  0  2  0  0  3  0  0  0  0  0  0
  190.2520  174.8510  143.2400 S   0  0  0  0  0  0  0  0  0  0  0  0
  185.2100  178.5380  146.2260 C   0  0  0  0  0  3  0  0  0  0  0  0
  187.5480  178.8800  146.5050 C   0  0  0  0  0  3  0  0  0  0  0  0
  190.0880  176.4880  142.4620 C   0  0  0  0  0  2  0  0  0  0  0  0
  185.5620  178.6610  139.8010 C   0  0  1  0  0  3  0  0  0  0  0  0
  185.6310  177.7070  140.9150 N   0  0  1  0  0  0  0  0  0  0  0  0
  186.5800  178.3990  145.7260 C   0  0  1  0  0  3  0  0  0  0  0  0
  188.6580  178.5290  142.1710 C   0  0  0  0  0  2  0  0  0  0  0  0
  190.8450  177.6210  145.0960 C   0  0  0  0  0  2  0  0  0  0  0  0
  183.8560  178.3250  144.0820 C   0  0  0  0  0  0  0  0  0  0  0  0
  191.6460  175.3920  144.2840 C   0  0  0  0  0  2  0  0  0  0  0  0
  186.4930  178.9080  140.9270 C   0  0  1  0  0  3  0  0  0  0  0  0
  187.9700  178.4840  140.8020 C   0  0  1  0  0  3  0  0  0  0  0  0
  184.0720  178.4790  145.5370 C   0  0  0  0  0  3  0  0  0  0  0  0
  181.4750  178.7070  144.4410 C   0  0  0  0  0  3  0  0  0  0  0  0
  182.5170  178.7410  143.5940 C   0  0  0  0  0  0  0  0  0  0  0  0
  182.3600  179.2750  142.1850 C   0  0  0  0  0  2  0  0  0  0  0  0
  180.8320  180.1470  140.5860 F   0  0  0  0  0  0  0  0  0  0  0  0
  180.0590  179.9930  142.8260 C   0  0  0  0  0  2  0  0  0  0  0  0
  180.9050  179.3710  141.7270 C   0  0  2  0  0  3  0  0  0  0  0  0
  180.0730  179.0640  144.0330 C   0  0  0  0  0  2  0  0  0  0  0  0
  186.1890  178.0290  138.5660 C   0  0  0  0  0  2  0  0  0  0  0  0
  185.1110  177.7480  137.5400 C   0  0  0  0  0  1  0  0  0  0  0  0
  188.7440  179.3140  139.7610 C   0  0  0  0  0  2  0  0  0  0  0  0
  189.5590  178.5400  138.7100 C   0  0  1  0  0  3  0  0  0  0  0  0
  189.4930  177.1620  138.9180 O   0  0  0  0  0  1  0  0  0  0  0  0
  189.0780  177.9180  136.3790 C   0  0  0  0  0  2  0  0  0  0  0  0
  189.1760  178.8720  137.3030 C   0  0  0  0  0  3  0  0  0  0  0  0
  2 16  1  0  0  0  0
  3  7  1  0  0  0  0
  4  8  1  0  0  0  0
  5  2  2  0  0  0  0
  6  2  1  0  0  0  0
  6  4  2  0  0  0  0
  7  5  1  0  0  0  0
  7 19  2  0  0  0  0
  8 12  2  0  0  0  0
  9 17  1  1  0  0  0
  9  6  1  0  0  0  0
 10 20  1  0  0  0  0
 13  9  1  0  0  0  0
 13 10  1  0  0  0  0
 14 31  1  6  0  0  0
 14 15  1  0  0  0  0
 14 21  1  0  0  0  0
 15 21  1  0  0  0  0
 15  3  1  1  0  0  0
 16 11  1  1  0  0  0
 16 12  1  0  0  0  0
 18  4  1  0  0  0  0
 18  1  1  0  0  0  0
 19 23  1  0  0  0  0
 20  1  1  0  0  0  0
 22 21  1  0  0  0  0
 22 17  1  0  0  0  0
 23 11  2  0  0  0  0
 25 19  1  0  0  0  0
 25 24  2  0  0  0  0
 26 25  1  0  0  0  0
 27 29  1  0  0  0  0
 28 30  1  0  0  0  0
 29 26  1  0  0  0  0
 29 28  1  0  0  0  0
 30 24  1  0  0  0  0
 32 31  1  0  0  0  0
 33 22  1  0  0  0  0
 34 35  1  0  0  0  0
 34 33  1  0  0  0  0
 36 37  2  0  0  0  0
 37 34  1  0  0  0  0
M  END
>  <MODEL>
6

>  <REMARK>
 VINA RESULT:      -5.0      3.465      7.384
  Name = 
  5 active torsions:
  status: ('A' for Active; 'I' for Inactive)
    1  A    between atoms: C_1  and  C_5
    2  A    between atoms: C_1  and  C_36
    3  A    between atoms: C_5  and  C_23
    4  A    between atoms: C_6  and  C_31
    5  A    between atoms: C_11  and  C_26
                            x       y       z     vdW  Elec       q    Type
                         _______ _______ _______ _____ _____    ______ ____

>  <TORSDO>
F 5

$$$$
=
 OpenBabel10272414523D

 37 42  0  0  1  0  0  0  0  0999 V2000
  186.3150  178.7600  146.3830 C   0  0  0  0  0  2  0  0  0  0  0  0
  187.3920  178.0090  142.0280 C   0  0  0  0  0  0  0  0  0  0  0  0
  186.2090  178.5780  138.6220 N   0  0  0  0  0  2  0  0  0  0  0  0
  186.6380  177.3500  144.3690 C   0  0  0  0  0  0  0  0  0  0  0  0
  187.0580  178.6130  140.8970 C   0  0  0  0  0  3  0  0  0  0  0  0
  186.5580  178.3820  143.2510 C   0  0  0  0  0  0  0  0  0  0  0  0
  187.3170  178.2880  139.4920 C   0  0  0  0  0  0  0  0  0  0  0  0
  187.5310  176.3610  144.3360 C   0  0  0  0  0  3  0  0  0  0  0  0
  185.0970  178.7760  142.8560 C   0  0  2  0  0  3  0  0  0  0  0  0
  185.1670  180.7360  144.8160 S   0  0  0  0  0  0  0  0  0  0  0  0
  189.4740  176.7540  141.1370 C   0  0  0  0  0  3  0  0  0  0  0  0
  188.4500  176.1720  143.2050 C   0  0  0  0  0  3  0  0  0  0  0  0
  184.2650  179.3980  143.9740 C   0  0  0  0  0  2  0  0  0  0  0  0
  183.8910  178.4040  138.3920 C   0  0  1  0  0  3  0  0  0  0  0  0
  184.9840  179.0010  139.1700 N   0  0  1  0  0  0  0  0  0  0  0  0
  188.3880  176.9220  142.1060 C   0  0  1  0  0  3  0  0  0  0  0  0
  184.3300  177.6340  142.1900 C   0  0  0  0  0  2  0  0  0  0  0  0
  185.8540  177.5200  145.6300 C   0  0  0  0  0  2  0  0  0  0  0  0
  188.4100  177.6590  139.0100 C   0  0  0  0  0  0  0  0  0  0  0  0
  185.2230  179.8210  146.3920 C   0  0  0  0  0  2  0  0  0  0  0  0
  184.3110  177.7830  139.6690 C   0  0  1  0  0  3  0  0  0  0  0  0
  183.5440  178.1120  140.9650 C   0  0  1  0  0  3  0  0  0  0  0  0
  189.4860  177.0880  139.8490 C   0  0  0  0  0  3  0  0  0  0  0  0
  189.1260  178.5110  136.8410 C   0  0  0  0  0  3  0  0  0  0  0  0
  188.5960  177.4980  137.5460 C   0  0  0  0  0  0  0  0  0  0  0  0
  188.2690  176.1760  136.8850 C   0  0  0  0  0  2  0  0  0  0  0  0
  188.2310  174.9740  134.8340 F   0  0  0  0  0  0  0  0  0  0  0  0
  189.4130  177.0330  134.8410 C   0  0  0  0  0  2  0  0  0  0  0  0
  188.2160  176.2510  135.3590 C   0  0  2  0  0  3  0  0  0  0  0  0
  189.3140  178.4650  135.3510 C   0  0  0  0  0  2  0  0  0  0  0  0
  182.6690  179.3070  138.4780 C   0  0  0  0  0  2  0  0  0  0  0  0
  181.6380  178.8620  137.4610 C   0  0  0  0  0  1  0  0  0  0  0  0
  182.1090  177.5500  140.9690 C   0  0  0  0  0  2  0  0  0  0  0  0
  180.9970  178.4650  141.5110 C   0  0  1  0  0  3  0  0  0  0  0  0
  179.9820  178.6540  140.5730 O   0  0  0  0  0  1  0  0  0  0  0  0
  180.6430  178.6690  143.9360 C   0  0  0  0  0  2  0  0  0  0  0  0
  180.4240  177.9940  142.8100 C   0  0  0  0  0  3  0  0  0  0  0  0
  1 20  1  0  0  0  0
  2 16  1  0  0  0  0
  2  6  1  0  0  0  0
  3  7  1  0  0  0  0
  4 18  1  0  0  0  0
  5  2  2  0  0  0  0
  6  4  2  0  0  0  0
  7  5  1  0  0  0  0
  8  4  1  0  0  0  0
  9 17  1  1  0  0  0
  9  6  1  0  0  0  0
  9 13  1  0  0  0  0
 10 20  1  0  0  0  0
 12  8  2  0  0  0  0
 13 10  1  0  0  0  0
 14 31  1  1  0  0  0
 14 15  1  0  0  0  0
 14 21  1  0  0  0  0
 15  3  1  6  0  0  0
 15 21  1  0  0  0  0
 16 11  1  1  0  0  0
 16 12  1  0  0  0  0
 18  1  1  0  0  0  0
 19  7  2  0  0  0  0
 19 23  1  0  0  0  0
 21 22  1  0  0  0  0
 22 33  1  0  0  0  0
 22 17  1  0  0  0  0
 23 11  2  0  0  0  0
 24 25  2  0  0  0  0
 25 19  1  0  0  0  0
 26 25  1  0  0  0  0
 27 29  1  0  0  0  0
 28 30  1  0  0  0  0
 28 29  1  0  0  0  0
 29 26  1  0  0  0  0
 30 24  1  0  0  0  0
 32 31  1  0  0  0  0
 33 34  1  0  0  0  0
 34 37  1  0  0  0  0
 35 34  1  0  0  0  0
 37 36  2  0  0  0  0
M  END
>  <MODEL>
7

>  <REMARK>
 VINA RESULT:      -5.0      2.762      6.150
  Name = 
  5 active torsions:
  status: ('A' for Active; 'I' for Inactive)
    1  A    between atoms: C_1  and  C_5
    2  A    between atoms: C_1  and  C_36
    3  A    between atoms: C_5  and  C_23
    4  A    between atoms: C_6  and  C_31
    5  A    between atoms: C_11  and  C_26
                            x       y       z     vdW  Elec       q    Type
                         _______ _______ _______ _____ _____    ______ ____

>  <TORSDO>
F 5

$$$$
=
 OpenBabel10272414523D

 37 42  0  0  1  0  0  0  0  0999 V2000
  191.7510  175.9860  148.4030 C   0  0  0  0  0  2  0  0  0  0  0  0
  188.0250  177.3320  146.1670 C   0  0  0  0  0  0  0  0  0  0  0  0
  186.5760  177.5170  142.8230 N   0  0  0  0  0  2  0  0  0  0  0  0
  190.1810  177.6690  147.4800 C   0  0  0  0  0  0  0  0  0  0  0  0
  187.4910  176.9800  145.0070 C   0  0  0  0  0  3  0  0  0  0  0  0
  189.4590  176.8640  146.4060 C   0  0  0  0  0  0  0  0  0  0  0  0
  186.3570  177.5060  144.2440 C   0  0  0  0  0  0  0  0  0  0  0  0
  189.5230  178.5240  148.2640 C   0  0  0  0  0  3  0  0  0  0  0  0
  190.2570  176.7370  145.0680 C   0  0  2  0  0  3  0  0  0  0  0  0
  191.4900  174.4760  146.0950 S   0  0  0  0  0  0  0  0  0  0  0  0
  185.9190  178.4400  147.1850 C   0  0  0  0  0  3  0  0  0  0  0  0
  188.0860  178.7850  148.1070 C   0  0  0  0  0  3  0  0  0  0  0  0
  191.6120  176.0450  145.1800 C   0  0  0  0  0  2  0  0  0  0  0  0
  188.1270  178.0270  141.1530 C   0  0  1  0  0  3  0  0  0  0  0  0
  187.8390  177.1690  142.3090 N   0  0  1  0  0  0  0  0  0  0  0  0
  187.3700  178.2500  147.1190 C   0  0  1  0  0  3  0  0  0  0  0  0
  190.3950  178.0670  144.3270 C   0  0  0  0  0  2  0  0  0  0  0  0
  191.6070  177.3860  147.8250 C   0  0  0  0  0  2  0  0  0  0  0  0
  185.2410  178.0610  144.7620 C   0  0  0  0  0  0  0  0  0  0  0  0
  192.5370  175.0910  147.4550 C   0  0  0  0  0  2  0  0  0  0  0  0
  188.6980  178.3590  142.4790 C   0  0  1  0  0  3  0  0  0  0  0  0
  190.1330  177.9140  142.8250 C   0  0  1  0  0  3  0  0  0  0  0  0
  185.0300  178.3340  146.2000 C   0  0  0  0  0  3  0  0  0  0  0  0
  184.2940  178.4130  142.5420 C   0  0  0  0  0  3  0  0  0  0  0  0
  184.1150  178.4470  143.8730 C   0  0  0  0  0  0  0  0  0  0  0  0
  182.7660  178.7880  144.4700 C   0  0  0  0  0  2  0  0  0  0  0  0
  180.5290  179.4390  143.9970 F   0  0  0  0  0  0  0  0  0  0  0  0
  181.8380  178.7040  142.1570 C   0  0  0  0  0  2  0  0  0  0  0  0
  181.8100  179.4520  143.4800 C   0  0  2  0  0  3  0  0  0  0  0  0
  183.2340  178.8260  141.5600 C   0  0  0  0  0  2  0  0  0  0  0  0
  189.0650  177.2890  140.2080 C   0  0  0  0  0  2  0  0  0  0  0  0
  188.8820  177.8170  138.8000 C   0  0  0  0  0  1  0  0  0  0  0  0
  191.2020  178.6480  141.9940 C   0  0  0  0  0  2  0  0  0  0  0  0
  192.3680  177.8060  141.4470 C   0  0  1  0  0  3  0  0  0  0  0  0
  192.4260  176.5500  142.0520 O   0  0  0  0  0  1  0  0  0  0  0  0
  193.2420  176.9020  139.3330 C   0  0  0  0  0  2  0  0  0  0  0  0
  192.3480  177.6640  139.9580 C   0  0  0  0  0  3  0  0  0  0  0  0
  2  6  1  0  0  0  0
  2 16  1  0  0  0  0
  3  7  1  0  0  0  0
  4 18  1  0  0  0  0
  4  8  1  0  0  0  0
  5  2  2  0  0  0  0
  6  4  2  0  0  0  0
  7 19  2  0  0  0  0
  7  5  1  0  0  0  0
  9 17  1  1  0  0  0
  9 13  1  0  0  0  0
  9  6  1  0  0  0  0
 10 20  1  0  0  0  0
 12  8  2  0  0  0  0
 13 10  1  0  0  0  0
 14 31  1  6  0  0  0
 14 15  1  0  0  0  0
 14 21  1  0  0  0  0
 15 21  1  0  0  0  0
 15  3  1  1  0  0  0
 16 11  1  1  0  0  0
 16 12  1  0  0  0  0
 18  1  1  0  0  0  0
 19 23  1  0  0  0  0
 20  1  1  0  0  0  0
 21 22  1  0  0  0  0
 22 17  1  0  0  0  0
 23 11  2  0  0  0  0
 24 25  2  0  0  0  0
 25 26  1  0  0  0  0
 25 19  1  0  0  0  0
 28 29  1  0  0  0  0
 29 27  1  0  0  0  0
 29 26  1  0  0  0  0
 30 28  1  0  0  0  0
 30 24  1  0  0  0  0
 32 31  1  0  0  0  0
 33 22  1  0  0  0  0
 34 33  1  0  0  0  0
 34 35  1  0  0  0  0
 36 37  2  0  0  0  0
 37 34  1  0  0  0  0
M  END
>  <MODEL>
8

>  <REMARK>
 VINA RESULT:      -4.9      4.390      8.535
  Name = 
  5 active torsions:
  status: ('A' for Active; 'I' for Inactive)
    1  A    between atoms: C_1  and  C_5
    2  A    between atoms: C_1  and  C_36
    3  A    between atoms: C_5  and  C_23
    4  A    between atoms: C_6  and  C_31
    5  A    between atoms: C_11  and  C_26
                            x       y       z     vdW  Elec       q    Type
                         _______ _______ _______ _____ _____    ______ ____

>  <TORSDO>
F 5

$$$$
=
 OpenBabel10272414523D

 37 42  0  0  1  0  0  0  0  0999 V2000
  192.3990  177.9400  142.6700 C   0  0  0  0  0  2  0  0  0  0  0  0
  188.3510  178.2020  140.6100 C   0  0  0  0  0  0  0  0  0  0  0  0
  184.8690  179.1250  141.1970 N   0  0  0  0  0  2  0  0  0  0  0  0
  190.3470  177.0020  141.6400 C   0  0  0  0  0  0  0  0  0  0  0  0
  187.2630  178.9210  140.8440 C   0  0  0  0  0  3  0  0  0  0  0  0
  189.3860  178.1810  141.7330 C   0  0  2  0  0  3  0  0  0  0  0  0
  185.9260  178.9090  140.2460 C   0  0  0  0  0  0  0  0  0  0  0  0
  190.3930  176.2290  140.5530 C   0  0  0  0  0  3  0  0  0  0  0  0
  188.7200  178.3440  143.1380 C   0  0  2  0  0  3  0  0  0  0  0  0
  190.8820  179.8990  143.9090 S   0  0  0  0  0  0  0  0  0  0  0  0
  187.8110  177.5590  138.1620 C   0  0  0  0  0  3  0  0  0  0  0  0
  189.4910  176.4290  139.4120 C   0  0  0  0  0  3  0  0  0  0  0  0
  189.6860  178.5820  144.2940 C   0  0  0  0  0  2  0  0  0  0  0  0
  184.0880  178.5430  143.3190 C   0  0  1  0  0  3  0  0  0  0  0  0
  185.1690  179.1940  142.5700 N   0  0  1  0  0  0  0  0  0  0  0  0
  188.5150  177.3360  139.4260 C   0  0  0  0  0  0  0  0  0  0  0  0
  187.7510  177.2110  143.4740 C   0  0  0  0  0  2  0  0  0  0  0  0
  191.4050  176.7880  142.6740 C   0  0  0  0  0  2  0  0  0  0  0  0
  185.6320  178.6020  138.9650 C   0  0  0  0  0  0  0  0  0  0  0  0
  192.2940  178.7460  143.9570 C   0  0  0  0  0  2  0  0  0  0  0  0
  185.3350  177.7990  143.0280 C   0  0  1  0  0  3  0  0  0  0  0  0
  186.4500  177.7350  144.0910 C   0  0  1  0  0  3  0  0  0  0  0  0
  186.6150  178.1140  137.9730 C   0  0  0  0  0  3  0  0  0  0  0  0
  183.7430  177.7960  137.6520 C   0  0  0  0  0  3  0  0  0  0  0  0
  184.2430  178.7440  138.4610 C   0  0  0  0  0  0  0  0  0  0  0  0
  183.3850  179.9010  138.9290 C   0  0  0  0  0  2  0  0  0  0  0  0
  181.2510  180.9370  138.7790 F   0  0  0  0  0  0  0  0  0  0  0  0
  181.4380  178.7450  137.8850 C   0  0  0  0  0  2  0  0  0  0  0  0
  182.1110  180.0900  138.1070 C   0  0  2  0  0  3  0  0  0  0  0  0
  182.3660  177.8690  137.0530 C   0  0  0  0  0  2  0  0  0  0  0  0
  184.0060  179.1590  144.7090 C   0  0  0  0  0  2  0  0  0  0  0  0
  182.6450  178.8740  145.3090 C   0  0  0  0  0  1  0  0  0  0  0  0
  186.0480  176.9110  145.3290 C   0  0  0  0  0  2  0  0  0  0  0  0
  186.6580  177.3270  146.6790 C   0  0  1  0  0  3  0  0  0  0  0  0
  187.8850  176.7030  146.9050 O   0  0  0  0  0  1  0  0  0  0  0  0
  186.0120  179.4780  147.6830 C   0  0  0  0  0  2  0  0  0  0  0  0
  186.7920  178.8090  146.8370 C   0  0  0  0  0  3  0  0  0  0  0  0
  1 18  1  0  0  0  0
  1 20  1  0  0  0  0
  2  5  2  0  0  0  0
  4  6  1  0  0  0  0
  4 18  1  0  0  0  0
  6  2  1  6  0  0  0
  6  9  1  0  0  0  0
  7  5  1  0  0  0  0
  7  3  1  0  0  0  0
  8  4  2  0  0  0  0
  9 17  1  1  0  0  0
  9 13  1  0  0  0  0
 10 20  1  0  0  0  0
 10 13  1  0  0  0  0
 11 16  1  0  0  0  0
 12 16  2  0  0  0  0
 12  8  1  0  0  0  0
 14 31  1  1  0  0  0
 15  3  1  6  0  0  0
 15 21  1  0  0  0  0
 15 14  1  0  0  0  0
 16  2  1  0  0  0  0
 17 22  1  0  0  0  0
 19  7  2  0  0  0  0
 21 14  1  0  0  0  0
 21 22  1  0  0  0  0
 22 33  1  0  0  0  0
 23 11  2  0  0  0  0
 23 19  1  0  0  0  0
 24 25  2  0  0  0  0
 25 26  1  0  0  0  0
 25 19  1  0  0  0  0
 28 29  1  0  0  0  0
 29 27  1  0  0  0  0
 29 26  1  0  0  0  0
 30 24  1  0  0  0  0
 30 28  1  0  0  0  0
 31 32  1  0  0  0  0
 33 34  1  0  0  0  0
 34 37  1  0  0  0  0
 34 35  1  0  0  0  0
 37 36  2  0  0  0  0
M  END
>  <MODEL>
9

>  <REMARK>
 VINA RESULT:      -4.9      3.757      8.638
  Name = 
  5 active torsions:
  status: ('A' for Active; 'I' for Inactive)
    1  A    between atoms: C_1  and  C_5
    2  A    between atoms: C_1  and  C_36
    3  A    between atoms: C_5  and  C_23
    4  A    between atoms: C_6  and  C_31
    5  A    between atoms: C_11  and  C_26
                            x       y       z     vdW  Elec       q    Type
                         _______ _______ _______ _____ _____    ______ ____

>  <TORSDO>
F 5

$$$$
