=
 OpenBabel10272401103D

 27 31  0  0  1  0  0  0  0  0999 V2000
  189.3610  176.9110  140.5060 N   0  0  0  0  0  0  0  0  0  0  0  0
  187.6440  178.0060  141.8330 C   0  0  0  0  0  0  0  0  0  0  0  0
  187.1430  178.7310  139.4970 N   0  0  0  0  0  2  0  0  0  0  0  0
  183.6110  178.4070  142.5530 N   0  0  0  0  0  0  0  0  0  0  0  0
  181.8180  179.1150  141.0420 C   0  0  0  0  0  1  0  0  0  0  0  0
  187.1690  177.6960  143.1360 C   0  0  0  0  0  3  0  0  0  0  0  0
  184.2520  178.9010  140.5050 C   0  0  0  0  0  0  0  0  0  0  0  0
  189.4790  178.1790  136.6030 C   0  0  0  0  0  2  0  0  0  0  0  0
  184.1650  179.3170  139.0740 C   0  0  0  0  0  1  0  0  0  0  0  0
  188.9910  176.8200  136.1550 C   0  0  0  0  0  2  0  0  0  0  0  0
  185.3860  178.5300  141.1960 C   0  0  0  0  0  0  0  0  0  0  0  0
  189.1100  177.9460  141.4990 C   0  0  1  0  0  3  0  0  0  0  0  0
  183.2050  178.8150  141.3560 N   0  0  0  0  0  0  0  0  0  0  0  0
  184.9430  178.2310  142.4600 C   0  0  0  0  0  0  0  0  0  0  0  0
  189.0020  176.9790  139.2590 C   0  0  0  0  0  0  0  0  0  0  0  0
  186.7300  178.4080  140.8310 C   0  0  0  0  0  0  0  0  0  0  0  0
  188.4770  178.7090  137.5610 C   0  0  0  0  0  3  0  0  0  0  0  0
  185.8060  177.8030  143.4600 C   0  0  0  0  0  3  0  0  0  0  0  0
  189.4000  175.7590  137.1230 C   0  0  0  0  0  3  0  0  0  0  0  0
  189.3870  175.8720  138.4200 N   0  0  0  0  0  0  0  0  0  0  0  0
  188.2330  178.1640  138.7520 C   0  0  0  0  0  0  0  0  0  0  0  0
  191.7510  177.4330  144.8580 C   0  0  0  0  0  3  0  0  0  0  0  0
  190.0190  177.7820  142.6840 C   0  0  0  0  0  0  0  0  0  0  0  0
  190.4210  176.4970  143.0630 C   0  0  0  0  0  3  0  0  0  0  0  0
  191.2840  176.3220  144.1490 C   0  0  0  0  0  3  0  0  0  0  0  0
  191.3580  178.7190  144.4790 C   0  0  0  0  0  3  0  0  0  0  0  0
  190.4950  178.8950  143.3940 C   0  0  0  0  0  3  0  0  0  0  0  0
  1 12  1  0  0  0  0
  2  6  1  0  0  0  0
  3 16  1  0  0  0  0
  5 13  1  0  0  0  0
  6 18  2  0  0  0  0
  7 11  2  0  0  0  0
  7 13  1  0  0  0  0
  8 17  1  0  0  0  0
  9  7  1  0  0  0  0
 10  8  1  0  0  0  0
 10 19  1  0  0  0  0
 11 14  1  0  0  0  0
 12  2  1  0  0  0  0
 12 23  1  1  0  0  0
 13  4  1  0  0  0  0
 14  4  2  0  0  0  0
 14 18  1  0  0  0  0
 15  1  2  0  0  0  0
 16 11  1  0  0  0  0
 16  2  2  0  0  0  0
 17 21  2  0  0  0  0
 19 20  2  0  0  0  0
 20 15  1  0  0  0  0
 21 15  1  0  0  0  0
 21  3  1  0  0  0  0
 23 24  2  0  0  0  0
 23 27  1  0  0  0  0
 24 25  1  0  0  0  0
 25 22  2  0  0  0  0
 26 22  1  0  0  0  0
 27 26  2  0  0  0  0
M  END
>  <MODEL>
1

>  <REMARK>
 VINA RESULT:      -8.4      0.000      0.000
  Name = 
  1 active torsions:
  status: ('A' for Active; 'I' for Inactive)
    1  A    between atoms: C_9  and  C_15
                            x       y       z     vdW  Elec       q    Type
                         _______ _______ _______ _____ _____    ______ ____

>  <TORSDO>
F 1

$$$$
=
 OpenBabel10272401103D

 27 31  0  0  1  0  0  0  0  0999 V2000
  187.0490  178.6170  141.6580 N   0  0  0  0  0  0  0  0  0  0  0  0
  187.4130  177.6920  143.8770 C   0  0  0  0  0  0  0  0  0  0  0  0
  189.1020  176.5210  142.4580 N   0  0  0  0  0  2  0  0  0  0  0  0
  190.0640  177.2070  146.9890 N   0  0  0  0  0  0  0  0  0  0  0  0
  192.2650  176.1330  147.0130 C   0  0  0  0  0  1  0  0  0  0  0  0
  187.0460  178.2110  145.1470 C   0  0  0  0  0  3  0  0  0  0  0  0
  190.7230  176.3790  145.0580 C   0  0  0  0  0  0  0  0  0  0  0  0
  189.1150  176.6570  138.7010 C   0  0  0  0  0  2  0  0  0  0  0  0
  191.5900  175.7010  144.0490 C   0  0  0  0  0  1  0  0  0  0  0  0
  189.9820  177.8800  138.5080 C   0  0  0  0  0  2  0  0  0  0  0  0
  189.4790  176.9340  144.8470 C   0  0  0  0  0  0  0  0  0  0  0  0
  186.4810  177.7710  142.6990 C   0  0  1  0  0  3  0  0  0  0  0  0
  191.0390  176.5630  146.3590 N   0  0  0  0  0  0  0  0  0  0  0  0
  189.1080  177.4370  146.0680 C   0  0  0  0  0  0  0  0  0  0  0  0
  188.0730  178.2990  140.9230 C   0  0  0  0  0  0  0  0  0  0  0  0
  188.6700  177.0620  143.7140 C   0  0  0  0  0  0  0  0  0  0  0  0
  189.2340  176.2580  140.1260 C   0  0  0  0  0  3  0  0  0  0  0  0
  187.8980  178.0900  146.2580 C   0  0  0  0  0  3  0  0  0  0  0  0
  189.2460  179.1230  138.8850 C   0  0  0  0  0  3  0  0  0  0  0  0
  188.4540  179.2510  139.9110 N   0  0  0  0  0  0  0  0  0  0  0  0
  188.7910  177.0000  141.1400 C   0  0  0  0  0  0  0  0  0  0  0  0
  182.4470  178.9540  143.6180 C   0  0  0  0  0  3  0  0  0  0  0  0
  185.0810  178.2020  143.0330 C   0  0  0  0  0  0  0  0  0  0  0  0
  184.1210  178.2480  142.0170 C   0  0  0  0  0  3  0  0  0  0  0  0
  182.8070  178.6250  142.3070 C   0  0  0  0  0  3  0  0  0  0  0  0
  183.4000  178.9030  144.6380 C   0  0  0  0  0  3  0  0  0  0  0  0
  184.7140  178.5260  144.3480 C   0  0  0  0  0  3  0  0  0  0  0  0
  1 12  1  0  0  0  0
  2  6  1  0  0  0  0
  3 16  1  0  0  0  0
  6 18  2  0  0  0  0
  7 13  1  0  0  0  0
  8 17  1  0  0  0  0
  9  7  1  0  0  0  0
 10  8  1  0  0  0  0
 10 19  1  0  0  0  0
 11  7  2  0  0  0  0
 11 14  1  0  0  0  0
 12 23  1  1  0  0  0
 12  2  1  0  0  0  0
 13  4  1  0  0  0  0
 13  5  1  0  0  0  0
 14 18  1  0  0  0  0
 14  4  2  0  0  0  0
 15 21  1  0  0  0  0
 15  1  2  0  0  0  0
 16  2  2  0  0  0  0
 16 11  1  0  0  0  0
 17 21  2  0  0  0  0
 19 20  2  0  0  0  0
 20 15  1  0  0  0  0
 21  3  1  0  0  0  0
 22 26  1  0  0  0  0
 23 27  1  0  0  0  0
 24 25  1  0  0  0  0
 24 23  2  0  0  0  0
 25 22  2  0  0  0  0
 27 26  2  0  0  0  0
M  END
>  <MODEL>
2

>  <REMARK>
 VINA RESULT:      -7.8      2.434      6.118
  Name = 
  1 active torsions:
  status: ('A' for Active; 'I' for Inactive)
    1  A    between atoms: C_9  and  C_15
                            x       y       z     vdW  Elec       q    Type
                         _______ _______ _______ _____ _____    ______ ____

>  <TORSDO>
F 1

$$$$
=
 OpenBabel10272401103D

 27 31  0  0  1  0  0  0  0  0999 V2000
  188.5850  177.6500  139.7640 N   0  0  0  0  0  0  0  0  0  0  0  0
  190.8220  176.7360  139.5020 C   0  0  0  0  0  0  0  0  0  0  0  0
  189.5660  175.8060  137.5540 N   0  0  0  0  0  2  0  0  0  0  0  0
  194.1730  176.5190  137.1200 N   0  0  0  0  0  0  0  0  0  0  0  0
  194.4020  175.7210  134.8160 C   0  0  0  0  0  1  0  0  0  0  0  0
  192.0540  177.1820  140.0490 C   0  0  0  0  0  3  0  0  0  0  0  0
  192.3090  175.8140  136.1830 C   0  0  0  0  0  0  0  0  0  0  0  0
  185.8290  176.0130  137.1990 C   0  0  0  0  0  2  0  0  0  0  0  0
  191.3850  175.2660  135.1470 C   0  0  0  0  0  1  0  0  0  0  0  0
  185.7290  177.3360  136.4750 C   0  0  0  0  0  2  0  0  0  0  0  0
  191.9820  176.2170  137.4610 C   0  0  0  0  0  0  0  0  0  0  0  0
  189.5600  176.7230  140.3200 C   0  0  1  0  0  3  0  0  0  0  0  0
  193.6370  176.0100  136.0170 N   0  0  0  0  0  0  0  0  0  0  0  0
  193.1660  176.6480  138.0050 C   0  0  0  0  0  0  0  0  0  0  0  0
  187.9510  177.4740  138.6440 C   0  0  0  0  0  0  0  0  0  0  0  0
  190.7770  176.2660  138.1670 C   0  0  0  0  0  0  0  0  0  0  0  0
  187.2550  175.6050  137.1680 C   0  0  0  0  0  3  0  0  0  0  0  0
  193.2420  177.1450  139.2990 C   0  0  0  0  0  3  0  0  0  0  0  0
  186.0420  178.4730  137.3920 C   0  0  0  0  0  3  0  0  0  0  0  0
  186.9870  178.4840  138.2870 N   0  0  0  0  0  0  0  0  0  0  0  0
  188.2270  176.2680  137.7940 C   0  0  0  0  0  0  0  0  0  0  0  0
  190.0710  177.4680  144.5270 C   0  0  0  0  0  3  0  0  0  0  0  0
  189.7600  176.9730  141.7870 C   0  0  0  0  0  0  0  0  0  0  0  0
  189.3960  178.2130  142.3240 C   0  0  0  0  0  3  0  0  0  0  0  0
  189.5530  178.4610  143.6910 C   0  0  0  0  0  3  0  0  0  0  0  0
  190.4290  176.2250  143.9990 C   0  0  0  0  0  3  0  0  0  0  0  0
  190.2730  175.9760  142.6320 C   0  0  0  0  0  3  0  0  0  0  0  0
  1 12  1  0  0  0  0
  2  6  1  0  0  0  0
  2 12  1  0  0  0  0
  3 21  1  0  0  0  0
  3 16  1  0  0  0  0
  4 14  2  0  0  0  0
  5 13  1  0  0  0  0
  7 11  2  0  0  0  0
  9  7  1  0  0  0  0
 10  8  1  0  0  0  0
 10 19  1  0  0  0  0
 11 14  1  0  0  0  0
 11 16  1  0  0  0  0
 12 23  1  1  0  0  0
 13  7  1  0  0  0  0
 13  4  1  0  0  0  0
 14 18  1  0  0  0  0
 15  1  2  0  0  0  0
 16  2  2  0  0  0  0
 17  8  1  0  0  0  0
 17 21  2  0  0  0  0
 18  6  2  0  0  0  0
 19 20  2  0  0  0  0
 20 15  1  0  0  0  0
 21 15  1  0  0  0  0
 23 24  2  0  0  0  0
 23 27  1  0  0  0  0
 24 25  1  0  0  0  0
 25 22  2  0  0  0  0
 26 22  1  0  0  0  0
 27 26  2  0  0  0  0
M  END
>  <MODEL>
3

>  <REMARK>
 VINA RESULT:      -7.4      2.740      6.425
  Name = 
  1 active torsions:
  status: ('A' for Active; 'I' for Inactive)
    1  A    between atoms: C_9  and  C_15
                            x       y       z     vdW  Elec       q    Type
                         _______ _______ _______ _____ _____    ______ ____

>  <TORSDO>
F 1

$$$$
=
 OpenBabel10272401103D

 27 31  0  0  1  0  0  0  0  0999 V2000
  189.6920  178.2510  141.3170 N   0  0  0  0  0  0  0  0  0  0  0  0
  187.2730  178.0560  141.1710 C   0  0  0  0  0  0  0  0  0  0  0  0
  187.8040  177.1890  143.4520 N   0  0  0  0  0  0  0  0  0  0  0  0
  183.6460  179.2180  142.7340 N   0  0  0  0  0  0  0  0  0  0  0  0
  182.7670  178.9520  145.0050 C   0  0  0  0  0  1  0  0  0  0  0  0
  186.3600  178.7170  140.3070 C   0  0  0  0  0  3  0  0  0  0  0  0
  184.9970  178.2080  144.1500 C   0  0  0  0  0  0  0  0  0  0  0  0
  191.2920  176.4140  144.6210 C   0  0  0  0  0  2  0  0  0  0  0  0
  185.5020  177.6260  145.4280 C   0  0  0  0  0  1  0  0  0  0  0  0
  191.6640  177.7670  145.1830 C   0  0  0  0  0  2  0  0  0  0  0  0
  185.6590  178.2630  142.9410 C   0  0  0  0  0  0  0  0  0  0  0  0
  188.5950  177.5430  140.6700 C   0  0  1  0  0  3  0  0  0  0  0  0
  183.7890  178.7920  143.9840 N   0  0  0  0  0  0  0  0  0  0  0  0
  184.7860  178.8970  142.0940 C   0  0  0  0  0  0  0  0  0  0  0  0
  190.0260  178.1150  142.5650 C   0  0  0  0  0  0  0  0  0  0  0  0
  186.9270  177.8460  142.5270 C   0  0  0  0  0  0  0  0  0  0  0  0
  189.8290  176.4300  144.3760 C   0  0  0  0  0  2  0  0  0  0  0  0
  185.1040  179.1500  140.7650 C   0  0  0  0  0  3  0  0  0  0  0  0
  191.8900  178.7570  144.0890 C   0  0  0  0  0  3  0  0  0  0  0  0
  191.1740  178.8650  143.0070 N   0  0  0  0  0  0  0  0  0  0  0  0
  189.2410  177.2090  143.4690 C   0  0  0  0  0  0  0  0  0  0  0  0
  189.1030  177.6410  136.3980 C   0  0  0  0  0  3  0  0  0  0  0  0
  188.7530  177.5650  139.1760 C   0  0  0  0  0  0  0  0  0  0  0  0
  189.1090  178.7610  138.5450 C   0  0  0  0  0  3  0  0  0  0  0  0
  189.2820  178.8010  137.1580 C   0  0  0  0  0  3  0  0  0  0  0  0
  188.7530  176.4420  137.0240 C   0  0  0  0  0  3  0  0  0  0  0  0
  188.5800  176.4020  138.4100 C   0  0  0  0  0  3  0  0  0  0  0  0
  1 15  2  0  0  0  0
  2 16  2  0  0  0  0
  3 21  2  0  0  0  0
  4 13  1  0  0  0  0
  6 18  2  0  0  0  0
  6  2  1  0  0  0  0
  7  9  1  0  0  0  0
  8 10  1  0  0  0  0
 11  7  2  0  0  0  0
 12 23  1  6  0  0  0
 12  2  1  0  0  0  0
 12  1  1  0  0  0  0
 13  7  1  0  0  0  0
 13  5  1  0  0  0  0
 14  4  2  0  0  0  0
 14 11  1  0  0  0  0
 15 20  1  0  0  0  0
 15 21  1  0  0  0  0
 16 11  1  0  0  0  0
 16  3  1  0  0  0  0
 17  8  1  0  0  0  0
 18 14  1  0  0  0  0
 19 10  1  0  0  0  0
 20 19  2  0  0  0  0
 21 17  1  0  0  0  0
 22 26  2  0  0  0  0
 22 25  1  0  0  0  0
 24 23  1  0  0  0  0
 25 24  2  0  0  0  0
 26 27  1  0  0  0  0
 27 23  2  0  0  0  0
M  END
>  <MODEL>
4

>  <REMARK>
 VINA RESULT:      -7.4      1.503      5.313
  Name = 
  1 active torsions:
  status: ('A' for Active; 'I' for Inactive)
    1  A    between atoms: C_9  and  C_15
                            x       y       z     vdW  Elec       q    Type
                         _______ _______ _______ _____ _____    ______ ____

>  <TORSDO>
F 1

$$$$
=
 OpenBabel10272401103D

 27 31  0  0  1  0  0  0  0  0999 V2000
  186.3100  178.6630  141.7960 N   0  0  0  0  0  0  0  0  0  0  0  0
  185.9470  178.2540  144.1640 C   0  0  0  0  0  0  0  0  0  0  0  0
  188.0880  177.0650  143.6760 N   0  0  0  0  0  2  0  0  0  0  0  0
  187.3930  178.7590  147.9850 N   0  0  0  0  0  0  0  0  0  0  0  0
  189.5130  178.0190  148.9630 C   0  0  0  0  0  1  0  0  0  0  0  0
  185.1350  178.9590  145.0920 C   0  0  0  0  0  3  0  0  0  0  0  0
  188.7240  177.6620  146.6160 C   0  0  0  0  0  0  0  0  0  0  0  0
  189.3820  176.4560  140.1990 C   0  0  0  0  0  2  0  0  0  0  0  0
  189.9250  176.9230  146.1260 C   0  0  0  0  0  1  0  0  0  0  0  0
  190.1860  177.7220  140.0160 C   0  0  0  0  0  2  0  0  0  0  0  0
  187.5960  177.9900  145.8940 C   0  0  0  0  0  0  0  0  0  0  0  0
  185.4730  177.9710  142.7650 C   0  0  1  0  0  3  0  0  0  0  0  0
  188.5630  178.1410  147.8700 N   0  0  0  0  0  0  0  0  0  0  0  0
  186.7990  178.6700  146.7800 C   0  0  0  0  0  0  0  0  0  0  0  0
  187.5420  178.3480  141.5230 C   0  0  0  0  0  0  0  0  0  0  0  0
  187.2190  177.7800  144.5640 C   0  0  0  0  0  0  0  0  0  0  0  0
  189.0290  176.3660  141.6380 C   0  0  0  0  0  3  0  0  0  0  0  0
  185.5590  179.1770  146.4140 C   0  0  0  0  0  3  0  0  0  0  0  0
  189.2900  178.9040  139.8380 C   0  0  0  0  0  3  0  0  0  0  0  0
  188.1880  179.1240  140.4950 N   0  0  0  0  0  0  0  0  0  0  0  0
  188.2200  177.2270  142.2540 C   0  0  0  0  0  0  0  0  0  0  0  0
  181.3050  178.7560  142.0340 C   0  0  0  0  0  3  0  0  0  0  0  0
  184.0200  178.2650  142.5220 C   0  0  0  0  0  0  0  0  0  0  0  0
  183.4910  178.0790  141.2410 C   0  0  0  0  0  3  0  0  0  0  0  0
  182.1370  178.3260  140.9950 C   0  0  0  0  0  3  0  0  0  0  0  0
  181.8260  178.9360  143.3180 C   0  0  0  0  0  3  0  0  0  0  0  0
  183.1800  178.6890  143.5630 C   0  0  0  0  0  3  0  0  0  0  0  0
  1 12  1  0  0  0  0
  2 16  2  0  0  0  0
  2  6  1  0  0  0  0
  3 16  1  0  0  0  0
  6 18  2  0  0  0  0
  7 13  1  0  0  0  0
  8 17  1  0  0  0  0
  9  7  1  0  0  0  0
 10  8  1  0  0  0  0
 11  7  2  0  0  0  0
 11 14  1  0  0  0  0
 12 23  1  1  0  0  0
 12  2  1  0  0  0  0
 13  4  1  0  0  0  0
 13  5  1  0  0  0  0
 14  4  2  0  0  0  0
 15  1  2  0  0  0  0
 15 21  1  0  0  0  0
 16 11  1  0  0  0  0
 17 21  2  0  0  0  0
 18 14  1  0  0  0  0
 19 10  1  0  0  0  0
 19 20  2  0  0  0  0
 20 15  1  0  0  0  0
 21  3  1  0  0  0  0
 22 26  1  0  0  0  0
 23 27  1  0  0  0  0
 24 23  2  0  0  0  0
 25 24  1  0  0  0  0
 25 22  2  0  0  0  0
 26 27  2  0  0  0  0
M  END
>  <MODEL>
5

>  <REMARK>
 VINA RESULT:      -7.4      2.857      6.362
  Name = 
  1 active torsions:
  status: ('A' for Active; 'I' for Inactive)
    1  A    between atoms: C_9  and  C_15
                            x       y       z     vdW  Elec       q    Type
                         _______ _______ _______ _____ _____    ______ ____

>  <TORSDO>
F 1

$$$$
=
 OpenBabel10272401103D

 27 31  0  0  1  0  0  0  0  0999 V2000
  184.3590  179.5040  140.5220 N   0  0  0  0  0  0  0  0  0  0  0  0
  186.4350  178.3250  140.0630 C   0  0  0  0  0  0  0  0  0  0  0  0
  185.0170  177.8330  138.0670 N   0  0  0  0  0  2  0  0  0  0  0  0
  189.6680  177.9430  137.5440 N   0  0  0  0  0  0  0  0  0  0  0  0
  189.7320  177.4160  135.1530 C   0  0  0  0  0  1  0  0  0  0  0  0
  187.7300  178.5220  140.6120 C   0  0  0  0  0  3  0  0  0  0  0  0
  187.7030  177.6290  136.6010 C   0  0  0  0  0  0  0  0  0  0  0  0
  181.3420  178.6050  137.8870 C   0  0  0  0  0  2  0  0  0  0  0  0
  186.6880  177.3510  135.5430 C   0  0  0  0  0  1  0  0  0  0  0  0
  181.4180  180.0090  137.3330 C   0  0  0  0  0  2  0  0  0  0  0  0
  187.4650  177.9100  137.9300 C   0  0  0  0  0  0  0  0  0  0  0  0
  185.2020  178.3860  140.9220 C   0  0  1  0  0  3  0  0  0  0  0  0
  189.0410  177.6570  136.4090 N   0  0  0  0  0  0  0  0  0  0  0  0
  188.7100  178.0990  138.4760 C   0  0  0  0  0  0  0  0  0  0  0  0
  183.6830  179.5610  139.4140 C   0  0  0  0  0  0  0  0  0  0  0  0
  186.2950  178.0380  138.6840 C   0  0  0  0  0  0  0  0  0  0  0  0
  182.6940  178.0080  137.7510 C   0  0  0  0  0  3  0  0  0  0  0  0
  188.8840  178.4130  139.8180 C   0  0  0  0  0  3  0  0  0  0  0  0
  181.9110  180.9660  138.3680 C   0  0  0  0  0  3  0  0  0  0  0  0
  182.8660  180.7330  139.2210 N   0  0  0  0  0  0  0  0  0  0  0  0
  183.7640  178.4440  138.4140 C   0  0  0  0  0  0  0  0  0  0  0  0
  185.8950  178.4740  145.1680 C   0  0  0  0  0  3  0  0  0  0  0  0
  185.4670  178.4190  142.4000 C   0  0  0  0  0  0  0  0  0  0  0  0
  184.6430  179.1940  143.2240 C   0  0  0  0  0  3  0  0  0  0  0  0
  184.8570  179.2230  144.6050 C   0  0  0  0  0  3  0  0  0  0  0  0
  186.7170  177.6930  144.3520 C   0  0  0  0  0  3  0  0  0  0  0  0
  186.5030  177.6630  142.9710 C   0  0  0  0  0  3  0  0  0  0  0  0
  1 12  1  0  0  0  0
  2  6  1  0  0  0  0
  2 12  1  0  0  0  0
  3 21  1  0  0  0  0
  3 16  1  0  0  0  0
  4 14  2  0  0  0  0
  5 13  1  0  0  0  0
  7 11  2  0  0  0  0
  9  7  1  0  0  0  0
 10  8  1  0  0  0  0
 10 19  1  0  0  0  0
 11 14  1  0  0  0  0
 11 16  1  0  0  0  0
 12 23  1  1  0  0  0
 13  7  1  0  0  0  0
 13  4  1  0  0  0  0
 14 18  1  0  0  0  0
 15  1  2  0  0  0  0
 16  2  2  0  0  0  0
 17  8  1  0  0  0  0
 17 21  2  0  0  0  0
 18  6  2  0  0  0  0
 19 20  2  0  0  0  0
 20 15  1  0  0  0  0
 21 15  1  0  0  0  0
 23 27  2  0  0  0  0
 23 24  1  0  0  0  0
 24 25  2  0  0  0  0
 25 22  1  0  0  0  0
 26 22  2  0  0  0  0
 27 26  1  0  0  0  0
M  END
>  <MODEL>
6

>  <REMARK>
 VINA RESULT:      -7.2      2.538      6.022
  Name = 
  1 active torsions:
  status: ('A' for Active; 'I' for Inactive)
    1  A    between atoms: C_9  and  C_15
                            x       y       z     vdW  Elec       q    Type
                         _______ _______ _______ _____ _____    ______ ____

>  <TORSDO>
F 1

$$$$
=
 OpenBabel10272401103D

 27 31  0  0  1  0  0  0  0  0999 V2000
  191.1630  177.3980  140.7880 N   0  0  0  0  0  0  0  0  0  0  0  0
  189.2170  177.2740  139.3360 C   0  0  0  0  0  0  0  0  0  0  0  0
  188.2490  177.1970  141.6370 N   0  0  0  0  0  0  0  0  0  0  0  0
  185.6880  179.0520  138.1840 N   0  0  0  0  0  0  0  0  0  0  0  0
  183.7070  179.6010  139.5170 C   0  0  0  0  0  1  0  0  0  0  0  0
  189.0770  177.6480  137.9730 C   0  0  0  0  0  3  0  0  0  0  0  0
  185.8150  178.5160  140.3160 C   0  0  0  0  0  0  0  0  0  0  0  0
  190.3080  176.7040  144.7440 C   0  0  0  0  0  2  0  0  0  0  0  0
  185.4200  178.3730  141.7490 C   0  0  0  0  0  1  0  0  0  0  0  0
  190.6210  178.1490  145.0570 C   0  0  0  0  0  2  0  0  0  0  0  0
  187.0080  178.1330  139.7390 C   0  0  0  0  0  0  0  0  0  0  0  0
  190.4480  176.5650  139.8320 C   0  0  1  0  0  3  0  0  0  0  0  0
  185.0470  179.0630  139.3470 N   0  0  0  0  0  0  0  0  0  0  0  0
  186.8860  178.4850  138.4190 C   0  0  0  0  0  0  0  0  0  0  0  0
  190.7450  177.6730  141.9880 C   0  0  0  0  0  0  0  0  0  0  0  0
  188.1700  177.5450  140.2480 C   0  0  0  0  0  0  0  0  0  0  0  0
  189.2450  176.7020  143.7090 C   0  0  0  0  0  2  0  0  0  0  0  0
  187.9060  178.2640  137.5020 C   0  0  0  0  0  3  0  0  0  0  0  0
  191.6100  178.7050  144.0850 C   0  0  0  0  0  3  0  0  0  0  0  0
  191.6210  178.4770  142.8030 N   0  0  0  0  0  0  0  0  0  0  0  0
  189.4200  177.1590  142.4690 C   0  0  0  0  0  0  0  0  0  0  0  0
  193.1450  175.1760  136.7810 C   0  0  0  0  0  3  0  0  0  0  0  0
  191.3710  176.0780  138.7520 C   0  0  0  0  0  0  0  0  0  0  0  0
  192.5970  176.7250  138.5600 C   0  0  0  0  0  3  0  0  0  0  0  0
  193.4820  176.2770  137.5750 C   0  0  0  0  0  3  0  0  0  0  0  0
  191.9250  174.5220  136.9720 C   0  0  0  0  0  3  0  0  0  0  0  0
  191.0400  174.9700  137.9570 C   0  0  0  0  0  3  0  0  0  0  0  0
  1 15  2  0  0  0  0
  2 12  1  0  0  0  0
  2 16  2  0  0  0  0
  3 21  2  0  0  0  0
  4 14  2  0  0  0  0
  4 13  1  0  0  0  0
  6  2  1  0  0  0  0
  7  9  1  0  0  0  0
  8 10  1  0  0  0  0
 11 16  1  0  0  0  0
 11  7  2  0  0  0  0
 12 23  1  6  0  0  0
 12  1  1  0  0  0  0
 13  5  1  0  0  0  0
 13  7  1  0  0  0  0
 14 11  1  0  0  0  0
 15 21  1  0  0  0  0
 15 20  1  0  0  0  0
 16  3  1  0  0  0  0
 17  8  1  0  0  0  0
 18  6  2  0  0  0  0
 18 14  1  0  0  0  0
 19 10  1  0  0  0  0
 20 19  2  0  0  0  0
 21 17  1  0  0  0  0
 22 26  2  0  0  0  0
 22 25  1  0  0  0  0
 24 23  1  0  0  0  0
 25 24  2  0  0  0  0
 26 27  1  0  0  0  0
 27 23  2  0  0  0  0
M  END
>  <MODEL>
7

>  <REMARK>
 VINA RESULT:      -7.1      2.013      5.362
  Name = 
  1 active torsions:
  status: ('A' for Active; 'I' for Inactive)
    1  A    between atoms: C_9  and  C_15
                            x       y       z     vdW  Elec       q    Type
                         _______ _______ _______ _____ _____    ______ ____

>  <TORSDO>
F 1

$$$$
=
 OpenBabel10272401103D

 27 31  0  0  1  0  0  0  0  0999 V2000
  187.1850  177.3250  142.9610 N   0  0  0  0  0  0  0  0  0  0  0  0
  186.1570  178.2680  140.9700 C   0  0  0  0  0  0  0  0  0  0  0  0
  188.6070  178.4920  140.5390 N   0  0  0  0  0  0  0  0  0  0  0  0
  185.7200  177.9930  136.8870 N   0  0  0  0  0  0  0  0  0  0  0  0
  187.4190  178.0850  135.1240 C   0  0  0  0  0  1  0  0  0  0  0  0
  184.8460  178.0890  140.4550 C   0  0  0  0  0  3  0  0  0  0  0  0
  187.7890  178.2620  137.5920 C   0  0  0  0  0  0  0  0  0  0  0  0
  191.2390  177.9380  143.1650 C   0  0  0  0  0  2  0  0  0  0  0  0
  189.2730  178.4140  137.5480 C   0  0  0  0  0  1  0  0  0  0  0  0
  191.4650  176.4560  142.9710 C   0  0  0  0  0  2  0  0  0  0  0  0
  186.9880  178.2350  138.7140 C   0  0  0  0  0  0  0  0  0  0  0  0
  186.4030  178.4390  142.4440 C   0  0  1  0  0  3  0  0  0  0  0  0
  186.9890  178.1150  136.5120 N   0  0  0  0  0  0  0  0  0  0  0  0
  185.7150  178.0660  138.2310 C   0  0  0  0  0  0  0  0  0  0  0  0
  188.4410  177.1170  142.6980 C   0  0  0  0  0  0  0  0  0  0  0  0
  187.2580  178.3170  140.0830 C   0  0  0  0  0  0  0  0  0  0  0  0
  190.4400  178.4130  142.0080 C   0  0  0  0  0  2  0  0  0  0  0  0
  184.6140  177.9810  139.0730 C   0  0  0  0  0  3  0  0  0  0  0  0
  190.3070  175.6660  143.4860 C   0  0  0  0  0  3  0  0  0  0  0  0
  189.0520  175.9840  143.3460 N   0  0  0  0  0  0  0  0  0  0  0  0
  189.1860  178.0330  141.7710 C   0  0  0  0  0  0  0  0  0  0  0  0
  182.8900  179.0810  144.8460 C   0  0  0  0  0  3  0  0  0  0  0  0
  185.1640  178.6500  143.2680 C   0  0  0  0  0  0  0  0  0  0  0  0
  185.2510  178.5750  144.6620 C   0  0  0  0  0  3  0  0  0  0  0  0
  184.1170  178.7880  145.4500 C   0  0  0  0  0  3  0  0  0  0  0  0
  182.7980  179.1630  143.4540 C   0  0  0  0  0  3  0  0  0  0  0  0
  183.9330  178.9500  142.6660 C   0  0  0  0  0  3  0  0  0  0  0  0
  2 12  1  0  0  0  0
  3 21  2  0  0  0  0
  4 14  2  0  0  0  0
  5 13  1  0  0  0  0
  6  2  1  0  0  0  0
  7 11  2  0  0  0  0
  9  7  1  0  0  0  0
 10  8  1  0  0  0  0
 10 19  1  0  0  0  0
 11 16  1  0  0  0  0
 12  1  1  0  0  0  0
 12 23  1  1  0  0  0
 13  4  1  0  0  0  0
 13  7  1  0  0  0  0
 14 11  1  0  0  0  0
 14 18  1  0  0  0  0
 15  1  2  0  0  0  0
 15 20  1  0  0  0  0
 16  3  1  0  0  0  0
 16  2  2  0  0  0  0
 17  8  1  0  0  0  0
 18  6  2  0  0  0  0
 20 19  2  0  0  0  0
 21 17  1  0  0  0  0
 21 15  1  0  0  0  0
 22 25  1  0  0  0  0
 23 24  1  0  0  0  0
 24 25  2  0  0  0  0
 26 22  2  0  0  0  0
 27 23  2  0  0  0  0
 27 26  1  0  0  0  0
M  END
>  <MODEL>
8

>  <REMARK>
 VINA RESULT:      -6.7      1.929      5.469
  Name = 
  1 active torsions:
  status: ('A' for Active; 'I' for Inactive)
    1  A    between atoms: C_9  and  C_15
                            x       y       z     vdW  Elec       q    Type
                         _______ _______ _______ _____ _____    ______ ____

>  <TORSDO>
F 1

$$$$
=
 OpenBabel10272401103D

 27 31  0  0  1  0  0  0  0  0999 V2000
  189.4100  176.3710  138.0680 N   0  0  0  0  0  0  0  0  0  0  0  0
  189.4900  177.2000  140.3510 C   0  0  0  0  0  0  0  0  0  0  0  0
  187.5420  178.4010  139.3490 N   0  0  0  0  0  2  0  0  0  0  0  0
  187.5120  177.5200  143.9470 N   0  0  0  0  0  0  0  0  0  0  0  0
  185.3520  178.5580  144.4560 C   0  0  0  0  0  1  0  0  0  0  0  0
  190.1070  176.6380  141.5000 C   0  0  0  0  0  3  0  0  0  0  0  0
  186.4730  178.4140  142.2230 C   0  0  0  0  0  0  0  0  0  0  0  0
  186.7790  178.4130  135.6680 C   0  0  0  0  0  2  0  0  0  0  0  0
  185.4170  179.1170  141.4380 C   0  0  0  0  0  1  0  0  0  0  0  0
  185.9000  177.1860  135.6000 C   0  0  0  0  0  2  0  0  0  0  0  0
  187.6550  177.8870  141.7450 C   0  0  0  0  0  0  0  0  0  0  0  0
  190.1680  177.1830  139.0090 C   0  0  1  0  0  3  0  0  0  0  0  0
  186.4260  178.1730  143.5530 N   0  0  0  0  0  0  0  0  0  0  0  0
  188.2660  177.3420  142.8460 C   0  0  0  0  0  0  0  0  0  0  0  0
  188.2570  176.7010  137.5660 C   0  0  0  0  0  0  0  0  0  0  0  0
  188.2220  177.8170  140.4690 C   0  0  0  0  0  0  0  0  0  0  0  0
  186.9440  178.7540  137.1030 C   0  0  0  0  0  3  0  0  0  0  0  0
  189.4950  176.7010  142.7630 C   0  0  0  0  0  3  0  0  0  0  0  0
  186.7060  175.9400  135.7710 C   0  0  0  0  0  3  0  0  0  0  0  0
  187.6880  175.7840  136.6110 N   0  0  0  0  0  0  0  0  0  0  0  0
  187.5870  177.9790  137.9760 C   0  0  0  0  0  0  0  0  0  0  0  0
  194.3000  175.9820  139.0260 C   0  0  0  0  0  3  0  0  0  0  0  0
  191.6090  176.7620  139.0380 C   0  0  0  0  0  0  0  0  0  0  0  0
  192.0690  175.8350  138.0960 C   0  0  0  0  0  3  0  0  0  0  0  0
  193.4110  175.4440  138.0910 C   0  0  0  0  0  3  0  0  0  0  0  0
  193.8490  176.9130  139.9640 C   0  0  0  0  0  3  0  0  0  0  0  0
  192.5070  177.3050  139.9700 C   0  0  0  0  0  3  0  0  0  0  0  0
  1 12  1  0  0  0  0
  2 16  2  0  0  0  0
  2  6  1  0  0  0  0
  3 16  1  0  0  0  0
  6 18  2  0  0  0  0
  7 13  1  0  0  0  0
  8 17  1  0  0  0  0
  9  7  1  0  0  0  0
 10  8  1  0  0  0  0
 10 19  1  0  0  0  0
 11  7  2  0  0  0  0
 11 14  1  0  0  0  0
 12 23  1  1  0  0  0
 12  2  1  0  0  0  0
 13  4  1  0  0  0  0
 13  5  1  0  0  0  0
 14  4  2  0  0  0  0
 15 21  1  0  0  0  0
 15  1  2  0  0  0  0
 16 11  1  0  0  0  0
 17 21  2  0  0  0  0
 18 14  1  0  0  0  0
 19 20  2  0  0  0  0
 20 15  1  0  0  0  0
 21  3  1  0  0  0  0
 22 26  1  0  0  0  0
 23 27  1  0  0  0  0
 24 23  2  0  0  0  0
 25 24  1  0  0  0  0
 25 22  2  0  0  0  0
 26 27  2  0  0  0  0
M  END
>  <MODEL>
9

>  <REMARK>
 VINA RESULT:      -6.4      2.494      3.653
  Name = 
  1 active torsions:
  status: ('A' for Active; 'I' for Inactive)
    1  A    between atoms: C_9  and  C_15
                            x       y       z     vdW  Elec       q    Type
                         _______ _______ _______ _____ _____    ______ ____

>  <TORSDO>
F 1

$$$$
