=
 OpenBabel10272415213D

 34 39  0  0  1  0  0  0  0  0999 V2000
  183.6060  178.5230  138.9290 C   0  0  2  0  0  3  0  0  0  0  0  0
  184.9210  176.6590  135.7480 C   0  0  0  0  0  2  0  0  0  0  0  0
  188.5160  176.8500  136.0260 C   0  0  0  0  0  0  0  0  0  0  0  0
  182.6830  176.8320  136.8260 N   0  0  0  0  0  2  0  0  0  0  0  0
  185.1900  179.7770  140.2310 O   0  0  0  0  0  0  0  0  0  0  0  0
  184.2210  178.9710  140.2350 C   0  0  0  0  0  0  0  0  0  0  0  0
  181.6700  177.6850  140.3010 C   0  0  0  0  0  0  0  0  0  0  0  0
  180.4950  176.9540  140.4410 O   0  0  0  0  0  1  0  0  0  0  0  0
  187.7730  177.4420  134.8170 C   0  0  0  0  0  2  0  0  0  0  0  0
  182.1770  178.4170  141.5080 C   0  0  0  0  0  2  0  0  0  0  0  0
  183.6290  178.5600  141.4760 N   0  0  0  0  0  0  0  0  0  0  0  0
  181.7890  177.0840  137.9060 C   0  0  0  0  0  0  0  0  0  0  0  0
  182.3120  177.7460  139.1140 C   0  0  0  0  0  0  0  0  0  0  0  0
  180.5800  176.7450  137.8030 O   0  0  0  0  0  0  0  0  0  0  0  0
  186.1830  176.1830  136.1320 O   0  0  0  0  0  0  0  0  0  0  0  0
  189.5110  176.3890  136.5590 O   0  0  0  0  0  0  0  0  0  0  0  0
  187.0570  177.2790  136.0430 C   0  0  1  0  0  0  0  0  0  0  0  0
  186.7970  178.4960  136.9240 C   0  0  0  0  0  2  0  0  0  0  0  0
  184.0860  177.1060  136.9210 C   0  0  0  0  0  0  0  0  0  0  0  0
  186.0620  178.0410  138.1740 C   0  0  0  0  0  2  0  0  0  0  0  0
  184.5760  177.8340  137.9650 C   0  0  0  0  0  0  0  0  0  0  0  0
  184.5980  178.7820  145.0980 C   0  0  0  0  0  3  0  0  0  0  0  0
  185.7160  177.9790  142.6670 C   0  0  0  0  0  3  0  0  0  0  0  0
  188.1780  178.0470  146.1410 C   0  0  2  0  0  3  0  0  0  0  0  0
  186.6660  178.1810  146.3580 C   0  0  0  0  0  2  0  0  0  0  0  0
  185.9140  178.3140  145.0630 C   0  0  0  0  0  0  0  0  0  0  0  0
  187.9020  177.4380  143.7410 C   0  0  0  0  0  2  0  0  0  0  0  0
  186.4710  177.8860  143.8390 C   0  0  0  0  0  0  0  0  0  0  0  0
  188.4590  176.9840  145.0870 C   0  0  0  0  0  2  0  0  0  0  0  0
  184.3940  178.4530  142.6950 C   0  0  0  0  0  0  0  0  0  0  0  0
  183.8470  178.8580  143.9230 C   0  0  0  0  0  3  0  0  0  0  0  0
  188.9160  177.7190  147.4370 C   0  0  2  0  0  3  0  0  0  0  0  0
  189.5830  176.4950  147.3420 O   0  0  0  0  0  1  0  0  0  0  0  0
  187.9570  177.6930  148.6130 C   0  0  0  0  0  1  0  0  0  0  0  0
  1 21  1  1  0  0  0
  1 13  1  0  0  0  0
  1  6  1  0  0  0  0
  2 15  1  0  0  0  0
  2 19  1  0  0  0  0
  3 17  1  0  0  0  0
  3 16  2  0  0  0  0
  4 19  1  0  0  0  0
  4 12  1  0  0  0  0
  5  6  2  0  0  0  0
  6 11  1  0  0  0  0
  7  8  1  0  0  0  0
  7 10  1  0  0  0  0
  9  3  1  0  0  0  0
 11 10  1  0  0  0  0
 11 30  1  0  0  0  0
 12 13  1  0  0  0  0
 13  7  2  0  0  0  0
 14 12  2  0  0  0  0
 17  9  1  6  0  0  0
 17 15  1  0  0  0  0
 17 18  1  0  0  0  0
 18 20  1  0  0  0  0
 19 21  2  0  0  0  0
 21 20  1  0  0  0  0
 23 30  2  0  0  0  0
 23 28  1  0  0  0  0
 24 25  1  0  0  0  0
 24 32  1  1  0  0  0
 26 22  1  0  0  0  0
 26 25  1  0  0  0  0
 27 28  1  0  0  0  0
 27 29  1  0  0  0  0
 28 26  2  0  0  0  0
 29 24  1  0  0  0  0
 30 31  1  0  0  0  0
 31 22  2  0  0  0  0
 32 34  1  1  0  0  0
 33 32  1  0  0  0  0
M  END
>  <MODEL>
1

>  <REMARK>
 VINA RESULT:     -11.0      0.000      0.000
  Name = 
  2 active torsions:
  status: ('A' for Active; 'I' for Inactive)
    1  A    between atoms: C_7  and  C_11
    2  A    between atoms: N_18  and  C_30
                            x       y       z     vdW  Elec       q    Type
                         _______ _______ _______ _____ _____    ______ ____

>  <TORSDO>
F 2

$$$$
=
 OpenBabel10272415213D

 34 39  0  0  1  0  0  0  0  0999 V2000
  183.6090  179.1190  141.1960 C   0  0  2  0  0  3  0  0  0  0  0  0
  183.0990  177.2490  137.7940 C   0  0  0  0  0  2  0  0  0  0  0  0
  186.4350  176.3060  136.7860 C   0  0  0  0  0  0  0  0  0  0  0  0
  181.5400  177.9970  139.5860 N   0  0  0  0  0  2  0  0  0  0  0  0
  185.8530  179.7000  141.8310 O   0  0  0  0  0  0  0  0  0  0  0  0
  184.7400  179.2320  142.1920 C   0  0  0  0  0  0  0  0  0  0  0  0
  182.0950  178.7880  143.1770 C   0  0  0  0  0  0  0  0  0  0  0  0
  180.8690  178.4410  143.7370 O   0  0  0  0  0  1  0  0  0  0  0  0
  185.5560  177.2080  135.9040 C   0  0  0  0  0  2  0  0  0  0  0  0
  183.1860  179.2120  144.1140 C   0  0  0  0  0  2  0  0  0  0  0  0
  184.5070  178.9080  143.5710 N   0  0  0  0  0  0  0  0  0  0  0  0
  181.1950  178.4070  140.9060 C   0  0  0  0  0  0  0  0  0  0  0  0
  182.2800  178.7610  141.8400 C   0  0  0  0  0  0  0  0  0  0  0  0
  179.9820  178.4650  141.2420 O   0  0  0  0  0  0  0  0  0  0  0  0
  184.1930  176.3770  137.7200 O   0  0  0  0  0  0  0  0  0  0  0  0
  187.3490  175.5150  136.9440 O   0  0  0  0  0  0  0  0  0  0  0  0
  185.2870  177.1570  137.3070 C   0  0  1  0  0  0  0  0  0  0  0  0
  185.7440  178.3070  138.1970 C   0  0  0  0  0  2  0  0  0  0  0  0
  182.9010  177.8180  139.1760 C   0  0  0  0  0  0  0  0  0  0  0  0
  185.3730  177.9830  139.6350 C   0  0  0  0  0  2  0  0  0  0  0  0
  183.9210  178.2600  139.9670 C   0  0  0  0  0  0  0  0  0  0  0  0
  186.4160  178.0350  146.6840 C   0  0  0  0  0  3  0  0  0  0  0  0
  186.8040  178.0660  143.9180 C   0  0  0  0  0  3  0  0  0  0  0  0
  190.1040  177.1490  146.4490 C   0  0  2  0  0  3  0  0  0  0  0  0
  188.7130  177.1520  147.0950 C   0  0  0  0  0  2  0  0  0  0  0  0
  187.6510  177.6510  146.1560 C   0  0  0  0  0  0  0  0  0  0  0  0
  189.1690  177.3020  144.1450 C   0  0  0  0  0  2  0  0  0  0  0  0
  187.8400  177.6440  144.7570 C   0  0  0  0  0  0  0  0  0  0  0  0
  190.0430  176.4760  145.0850 C   0  0  0  0  0  2  0  0  0  0  0  0
  185.5630  178.4570  144.4450 C   0  0  0  0  0  0  0  0  0  0  0  0
  185.3840  178.4420  145.8370 C   0  0  0  0  0  3  0  0  0  0  0  0
  191.1450  176.4650  147.3330 C   0  0  2  0  0  3  0  0  0  0  0  0
  191.8560  177.3980  148.0910 O   0  0  0  0  0  1  0  0  0  0  0  0
  192.1060  175.6410  146.4960 C   0  0  0  0  0  1  0  0  0  0  0  0
  1 21  1  6  0  0  0
  1 13  1  0  0  0  0
  1  6  1  0  0  0  0
  2 19  1  0  0  0  0
  3 16  2  0  0  0  0
  3 17  1  0  0  0  0
  4 12  1  0  0  0  0
  5  6  2  0  0  0  0
  6 11  1  0  0  0  0
  7  8  1  0  0  0  0
  7 10  1  0  0  0  0
  9  3  1  0  0  0  0
 11 10  1  0  0  0  0
 11 30  1  0  0  0  0
 12 14  2  0  0  0  0
 12 13  1  0  0  0  0
 13  7  2  0  0  0  0
 15  2  1  0  0  0  0
 17  9  1  6  0  0  0
 17 15  1  0  0  0  0
 17 18  1  0  0  0  0
 18 20  1  0  0  0  0
 19  4  1  0  0  0  0
 19 21  2  0  0  0  0
 20 21  1  0  0  0  0
 23 30  2  0  0  0  0
 23 28  1  0  0  0  0
 24 25  1  0  0  0  0
 24 32  1  1  0  0  0
 26 22  1  0  0  0  0
 26 25  1  0  0  0  0
 27 28  1  0  0  0  0
 27 29  1  0  0  0  0
 28 26  2  0  0  0  0
 29 24  1  0  0  0  0
 30 31  1  0  0  0  0
 31 22  2  0  0  0  0
 32 34  1  6  0  0  0
 32 33  1  0  0  0  0
M  END
>  <MODEL>
2

>  <REMARK>
 VINA RESULT:     -10.4      1.695      2.592
  Name = 
  2 active torsions:
  status: ('A' for Active; 'I' for Inactive)
    1  A    between atoms: C_7  and  C_11
    2  A    between atoms: N_18  and  C_30
                            x       y       z     vdW  Elec       q    Type
                         _______ _______ _______ _____ _____    ______ ____

>  <TORSDO>
F 2

$$$$
=
 OpenBabel10272415213D

 34 39  0  0  1  0  0  0  0  0999 V2000
  183.8180  178.9820  139.9350 C   0  0  2  0  0  3  0  0  0  0  0  0
  184.0130  177.1540  136.4780 C   0  0  0  0  0  2  0  0  0  0  0  0
  187.5350  176.5080  136.0090 C   0  0  0  0  0  0  0  0  0  0  0  0
  182.1330  177.7320  138.0040 N   0  0  0  0  0  2  0  0  0  0  0  0
  185.8760  179.7300  140.9270 O   0  0  0  0  0  0  0  0  0  0  0  0
  184.7630  179.1650  141.1000 C   0  0  0  0  0  0  0  0  0  0  0  0
  182.0420  178.4850  141.6450 C   0  0  0  0  0  0  0  0  0  0  0  0
  180.7770  178.0270  141.9980 O   0  0  0  0  0  1  0  0  0  0  0  0
  186.7340  177.3550  135.0060 C   0  0  0  0  0  2  0  0  0  0  0  0
  182.9310  178.9760  142.7480 C   0  0  0  0  0  2  0  0  0  0  0  0
  184.3420  178.7920  142.4210 N   0  0  0  0  0  0  0  0  0  0  0  0
  181.5490  178.0830  139.2560 C   0  0  0  0  0  0  0  0  0  0  0  0
  182.4380  178.5030  140.3540 C   0  0  0  0  0  0  0  0  0  0  0  0
  180.2980  178.0340  139.3940 O   0  0  0  0  0  0  0  0  0  0  0  0
  185.1750  176.3750  136.5720 O   0  0  0  0  0  0  0  0  0  0  0  0
  188.4750  175.7910  136.3040 O   0  0  0  0  0  0  0  0  0  0  0  0
  186.2510  177.2510  136.3470 C   0  0  1  0  0  0  0  0  0  0  0  0
  186.4620  178.4140  137.3090 C   0  0  0  0  0  2  0  0  0  0  0  0
  183.5520  177.6740  137.8160 C   0  0  0  0  0  0  0  0  0  0  0  0
  185.8970  178.0290  138.6660 C   0  0  0  0  0  2  0  0  0  0  0  0
  184.3920  178.1800  138.7640 C   0  0  0  0  0  0  0  0  0  0  0  0
  185.8410  178.1300  145.8000 C   0  0  0  0  0  3  0  0  0  0  0  0
  186.5830  178.0080  143.1100 C   0  0  0  0  0  3  0  0  0  0  0  0
  189.5350  177.2920  146.0940 C   0  0  2  0  0  3  0  0  0  0  0  0
  188.0730  177.3090  146.5540 C   0  0  0  0  0  2  0  0  0  0  0  0
  187.1360  177.7360  145.4580 C   0  0  0  0  0  0  0  0  0  0  0  0
  188.9050  177.2970  143.6830 C   0  0  0  0  0  2  0  0  0  0  0  0
  187.5040  177.6510  144.0980 C   0  0  0  0  0  0  0  0  0  0  0  0
  189.6560  176.5400  144.7750 C   0  0  0  0  0  2  0  0  0  0  0  0
  185.2800  178.4090  143.4480 C   0  0  0  0  0  0  0  0  0  0  0  0
  184.9230  178.4710  144.8040 C   0  0  0  0  0  3  0  0  0  0  0  0
  190.4580  176.6750  147.1430 C   0  0  2  0  0  3  0  0  0  0  0  0
  190.6490  177.5450  148.2200 O   0  0  0  0  0  1  0  0  0  0  0  0
  191.7990  176.3080  146.5330 C   0  0  0  0  0  1  0  0  0  0  0  0
  1 21  1  6  0  0  0
  1 13  1  0  0  0  0
  1  6  1  0  0  0  0
  2 15  1  0  0  0  0
  2 19  1  0  0  0  0
  3 16  2  0  0  0  0
  3 17  1  0  0  0  0
  4 12  1  0  0  0  0
  5  6  2  0  0  0  0
  6 11  1  0  0  0  0
  7  8  1  0  0  0  0
  7 10  1  0  0  0  0
  9  3  1  0  0  0  0
 11 10  1  0  0  0  0
 11 30  1  0  0  0  0
 12 14  2  0  0  0  0
 12 13  1  0  0  0  0
 13  7  2  0  0  0  0
 17  9  1  6  0  0  0
 17 15  1  0  0  0  0
 17 18  1  0  0  0  0
 18 20  1  0  0  0  0
 19  4  1  0  0  0  0
 19 21  2  0  0  0  0
 20 21  1  0  0  0  0
 23 30  2  0  0  0  0
 23 28  1  0  0  0  0
 24 25  1  0  0  0  0
 24 32  1  1  0  0  0
 26 22  1  0  0  0  0
 26 25  1  0  0  0  0
 27 28  1  0  0  0  0
 27 29  1  0  0  0  0
 28 26  2  0  0  0  0
 29 24  1  0  0  0  0
 30 31  1  0  0  0  0
 31 22  2  0  0  0  0
 32 34  1  6  0  0  0
 32 33  1  0  0  0  0
M  END
>  <MODEL>
3

>  <REMARK>
 VINA RESULT:     -10.1      1.235      1.541
  Name = 
  2 active torsions:
  status: ('A' for Active; 'I' for Inactive)
    1  A    between atoms: C_7  and  C_11
    2  A    between atoms: N_18  and  C_30
                            x       y       z     vdW  Elec       q    Type
                         _______ _______ _______ _____ _____    ______ ____

>  <TORSDO>
F 2

$$$$
=
 OpenBabel10272415213D

 34 39  0  0  1  0  0  0  0  0999 V2000
  183.7400  178.9630  140.9230 C   0  0  2  0  0  3  0  0  0  0  0  0
  182.3740  177.0180  137.8130 C   0  0  0  0  0  2  0  0  0  0  0  0
  185.3410  175.8950  136.0890 C   0  0  0  0  0  0  0  0  0  0  0  0
  181.3100  177.8880  139.8890 N   0  0  0  0  0  2  0  0  0  0  0  0
  186.0900  179.4610  140.9920 O   0  0  0  0  0  0  0  0  0  0  0  0
  185.0770  179.0550  141.6220 C   0  0  0  0  0  0  0  0  0  0  0  0
  182.7250  178.7600  143.2160 C   0  0  0  0  0  0  0  0  0  0  0  0
  181.6540  178.4850  144.0610 O   0  0  0  0  0  1  0  0  0  0  0  0
  184.3130  176.8090  135.4030 C   0  0  0  0  0  2  0  0  0  0  0  0
  184.0210  179.1630  143.8530 C   0  0  0  0  0  2  0  0  0  0  0  0
  185.1640  178.7830  143.0280 N   0  0  0  0  0  0  0  0  0  0  0  0
  181.3020  178.3530  141.2360 C   0  0  0  0  0  0  0  0  0  0  0  0
  182.5880  178.6850  141.8750 C   0  0  0  0  0  0  0  0  0  0  0  0
  180.2050  178.4750  141.8440 O   0  0  0  0  0  0  0  0  0  0  0  0
  183.3870  176.0950  137.5190 O   0  0  0  0  0  0  0  0  0  0  0  0
  186.2370  175.0690  136.0600 O   0  0  0  0  0  0  0  0  0  0  0  0
  184.3810  176.8130  136.8300 C   0  0  1  0  0  0  0  0  0  0  0  0
  185.0760  177.9670  137.5430 C   0  0  0  0  0  2  0  0  0  0  0  0
  182.5290  177.6360  139.1790 C   0  0  0  0  0  0  0  0  0  0  0  0
  185.0440  177.7020  139.0390 C   0  0  0  0  0  2  0  0  0  0  0  0
  183.7210  178.0550  139.6910 C   0  0  0  0  0  0  0  0  0  0  0  0
  188.5940  177.3190  143.4700 C   0  0  0  0  0  3  0  0  0  0  0  0
  186.5130  178.3130  145.0460 C   0  0  0  0  0  3  0  0  0  0  0  0
  189.8760  176.5350  146.9600 C   0  0  2  0  0  3  0  0  0  0  0  0
  190.0160  176.8560  145.4670 C   0  0  0  0  0  2  0  0  0  0  0  0
  188.7210  177.3190  144.8610 C   0  0  0  0  0  0  0  0  0  0  0  0
  187.7410  177.8050  147.1570 C   0  0  0  0  0  2  0  0  0  0  0  0
  187.6790  177.8430  145.6560 C   0  0  0  0  0  0  0  0  0  0  0  0
  189.1720  177.6820  147.6730 C   0  0  0  0  0  2  0  0  0  0  0  0
  186.3790  178.3110  143.6480 C   0  0  0  0  0  0  0  0  0  0  0  0
  187.4310  177.8030  142.8680 C   0  0  0  0  0  3  0  0  0  0  0  0
  191.2270  176.2530  147.6140 C   0  0  2  0  0  3  0  0  0  0  0  0
  191.8280  177.4320  148.0620 O   0  0  0  0  0  1  0  0  0  0  0  0
  192.1550  175.5370  146.6490 C   0  0  0  0  0  1  0  0  0  0  0  0
  1 21  1  6  0  0  0
  1  6  1  0  0  0  0
  1 13  1  0  0  0  0
  2 19  1  0  0  0  0
  3 17  1  0  0  0  0
  4 12  1  0  0  0  0
  5  6  2  0  0  0  0
  6 11  1  0  0  0  0
  7 10  1  0  0  0  0
  7  8  1  0  0  0  0
  9  3  1  0  0  0  0
 11 30  1  0  0  0  0
 11 10  1  0  0  0  0
 12 14  2  0  0  0  0
 12 13  1  0  0  0  0
 13  7  2  0  0  0  0
 15  2  1  0  0  0  0
 16  3  2  0  0  0  0
 17  9  1  6  0  0  0
 17 15  1  0  0  0  0
 17 18  1  0  0  0  0
 18 20  1  0  0  0  0
 19 21  2  0  0  0  0
 19  4  1  0  0  0  0
 20 21  1  0  0  0  0
 22 26  1  0  0  0  0
 23 28  1  0  0  0  0
 24 32  1  1  0  0  0
 24 29  1  0  0  0  0
 25 24  1  0  0  0  0
 26 25  1  0  0  0  0
 26 28  2  0  0  0  0
 27 29  1  0  0  0  0
 28 27  1  0  0  0  0
 30 23  2  0  0  0  0
 31 22  2  0  0  0  0
 31 30  1  0  0  0  0
 32 34  1  6  0  0  0
 32 33  1  0  0  0  0
M  END
>  <MODEL>
4

>  <REMARK>
 VINA RESULT:      -9.9      1.706      3.095
  Name = 
  2 active torsions:
  status: ('A' for Active; 'I' for Inactive)
    1  A    between atoms: C_7  and  C_11
    2  A    between atoms: N_18  and  C_30
                            x       y       z     vdW  Elec       q    Type
                         _______ _______ _______ _____ _____    ______ ____

>  <TORSDO>
F 2

$$$$
=
 OpenBabel10272415213D

 34 39  0  0  1  0  0  0  0  0999 V2000
  186.5740  178.3420  138.7570 C   0  0  2  0  0  3  0  0  0  0  0  0
  186.6920  175.8820  135.7140 C   0  0  0  0  0  2  0  0  0  0  0  0
  189.8990  174.2500  136.0110 C   0  0  0  0  0  0  0  0  0  0  0  0
  184.8740  177.2250  136.7580 N   0  0  0  0  0  2  0  0  0  0  0  0
  188.6050  178.7010  139.9900 O   0  0  0  0  0  0  0  0  0  0  0  0
  187.3620  178.4950  140.0370 C   0  0  0  0  0  0  0  0  0  0  0  0
  184.5150  178.6790  140.1620 C   0  0  0  0  0  0  0  0  0  0  0  0
  183.1340  178.6500  140.3390 O   0  0  0  0  0  1  0  0  0  0  0  0
  189.5260  175.0620  134.7610 C   0  0  0  0  0  2  0  0  0  0  0  0
  185.3500  179.1260  141.3250 C   0  0  0  0  0  2  0  0  0  0  0  0
  186.6750  178.5150  141.2970 N   0  0  0  0  0  0  0  0  0  0  0  0
  184.2550  177.9580  137.8120 C   0  0  0  0  0  0  0  0  0  0  0  0
  185.0700  178.3370  138.9800 C   0  0  0  0  0  0  0  0  0  0  0  0
  183.0380  178.2690  137.7200 O   0  0  0  0  0  0  0  0  0  0  0  0
  187.5500  174.8580  136.1390 O   0  0  0  0  0  0  0  0  0  0  0  0
  190.5390  173.3820  136.5820 O   0  0  0  0  0  0  0  0  0  0  0  0
  188.8560  175.3570  135.9880 C   0  0  1  0  0  0  0  0  0  0  0  0
  189.2660  176.5890  136.7860 C   0  0  0  0  0  2  0  0  0  0  0  0
  186.2250  176.7590  136.8490 C   0  0  0  0  0  0  0  0  0  0  0  0
  188.4340  176.6420  138.0570 C   0  0  0  0  0  2  0  0  0  0  0  0
  187.0410  177.2020  137.8480 C   0  0  0  0  0  0  0  0  0  0  0  0
  187.1870  177.6110  144.9060 C   0  0  0  0  0  3  0  0  0  0  0  0
  188.6970  177.8830  142.5710 C   0  0  0  0  0  3  0  0  0  0  0  0
  190.7090  177.1160  146.2460 C   0  0  2  0  0  3  0  0  0  0  0  0
  189.1860  176.9340  146.2360 C   0  0  0  0  0  2  0  0  0  0  0  0
  188.5660  177.3910  144.9460 C   0  0  0  0  0  0  0  0  0  0  0  0
  190.8200  177.3430  143.7670 C   0  0  0  0  0  2  0  0  0  0  0  0
  189.3250  177.5050  143.7620 C   0  0  0  0  0  0  0  0  0  0  0  0
  191.3090  176.5420  144.9700 C   0  0  0  0  0  2  0  0  0  0  0  0
  187.3120  178.1090  142.5270 C   0  0  0  0  0  0  0  0  0  0  0  0
  186.5660  177.9750  143.7090 C   0  0  0  0  0  3  0  0  0  0  0  0
  191.3550  176.4760  147.4730 C   0  0  2  0  0  3  0  0  0  0  0  0
  191.9820  177.4350  148.2710 O   0  0  0  0  0  1  0  0  0  0  0  0
  192.3570  175.4130  147.0610 C   0  0  0  0  0  1  0  0  0  0  0  0
  1 21  1  1  0  0  0
  1 13  1  0  0  0  0
  1  6  1  0  0  0  0
  2 15  1  0  0  0  0
  2 19  1  0  0  0  0
  3 16  2  0  0  0  0
  4 19  1  0  0  0  0
  4 12  1  0  0  0  0
  5  6  2  0  0  0  0
  6 11  1  0  0  0  0
  7  8  1  0  0  0  0
  7 10  1  0  0  0  0
  9  3  1  0  0  0  0
 11 10  1  0  0  0  0
 11 30  1  0  0  0  0
 12 13  1  0  0  0  0
 13  7  2  0  0  0  0
 14 12  2  0  0  0  0
 17  9  1  6  0  0  0
 17  3  1  0  0  0  0
 17 15  1  0  0  0  0
 17 18  1  0  0  0  0
 18 20  1  0  0  0  0
 19 21  2  0  0  0  0
 21 20  1  0  0  0  0
 22 26  1  0  0  0  0
 23 28  1  0  0  0  0
 24 32  1  1  0  0  0
 25 24  1  0  0  0  0
 26 25  1  0  0  0  0
 27 29  1  0  0  0  0
 28 27  1  0  0  0  0
 28 26  2  0  0  0  0
 29 24  1  0  0  0  0
 30 23  2  0  0  0  0
 30 31  1  0  0  0  0
 31 22  2  0  0  0  0
 32 34  1  6  0  0  0
 32 33  1  0  0  0  0
M  END
>  <MODEL>
5

>  <REMARK>
 VINA RESULT:      -9.8      2.144      2.937
  Name = 
  2 active torsions:
  status: ('A' for Active; 'I' for Inactive)
    1  A    between atoms: C_7  and  C_11
    2  A    between atoms: N_18  and  C_30
                            x       y       z     vdW  Elec       q    Type
                         _______ _______ _______ _____ _____    ______ ____

>  <TORSDO>
F 2

$$$$
=
 OpenBabel10272415213D

 34 39  0  0  1  0  0  0  0  0999 V2000
  190.2450  176.8080  137.5580 C   0  0  2  0  0  3  0  0  0  0  0  0
  192.0430  173.8690  135.6980 C   0  0  0  0  0  2  0  0  0  0  0  0
  194.8780  173.0900  137.7940 C   0  0  0  0  0  0  0  0  0  0  0  0
  189.8190  174.9560  135.4310 N   0  0  0  0  0  2  0  0  0  0  0  0
  191.4020  177.8550  139.3850 O   0  0  0  0  0  0  0  0  0  0  0  0
  190.3140  177.3910  138.9500 C   0  0  0  0  0  0  0  0  0  0  0  0
  187.7440  176.9550  137.7820 C   0  0  0  0  0  0  0  0  0  0  0  0
  186.4560  176.6560  137.3490 O   0  0  0  0  0  1  0  0  0  0  0  0
  195.0580  173.5260  136.3310 C   0  0  0  0  0  2  0  0  0  0  0  0
  187.8790  177.8050  139.0110 C   0  0  0  0  0  2  0  0  0  0  0  0
  189.1150  177.5130  139.7300 N   0  0  0  0  0  0  0  0  0  0  0  0
  188.7030  175.7310  135.8610 C   0  0  0  0  0  0  0  0  0  0  0  0
  188.8240  176.5120  137.1050 C   0  0  0  0  0  0  0  0  0  0  0  0
  187.6480  175.7380  135.1710 O   0  0  0  0  0  0  0  0  0  0  0  0
  192.6990  173.1720  136.7220 O   0  0  0  0  0  0  0  0  0  0  0  0
  195.2580  172.5220  138.8040 O   0  0  0  0  0  0  0  0  0  0  0  0
  193.8610  173.9070  137.0120 C   0  0  1  0  0  0  0  0  0  0  0  0
  193.7150  175.3360  137.5220 C   0  0  0  0  0  2  0  0  0  0  0  0
  191.0070  174.8320  136.2220 C   0  0  0  0  0  0  0  0  0  0  0  0
  192.3800  175.4600  138.2390 C   0  0  0  0  0  2  0  0  0  0  0  0
  191.2020  175.6400  137.3030 C   0  0  0  0  0  0  0  0  0  0  0  0
  190.3450  177.3070  143.2720 C   0  0  0  0  0  3  0  0  0  0  0  0
  187.9400  177.6700  141.8980 C   0  0  0  0  0  3  0  0  0  0  0  0
  187.8480  177.2570  146.1360 C   0  0  2  0  0  3  0  0  0  0  0  0
  189.2190  177.4920  145.4900 C   0  0  0  0  0  2  0  0  0  0  0  0
  189.1550  177.4540  143.9890 C   0  0  0  0  0  0  0  0  0  0  0  0
  186.6300  177.7580  144.0210 C   0  0  0  0  0  2  0  0  0  0  0  0
  187.9440  177.6610  143.2960 C   0  0  0  0  0  0  0  0  0  0  0  0
  186.8060  178.1560  145.4830 C   0  0  0  0  0  2  0  0  0  0  0  0
  189.1330  177.5190  141.1730 C   0  0  0  0  0  0  0  0  0  0  0  0
  190.3330  177.3320  141.8760 C   0  0  0  0  0  3  0  0  0  0  0  0
  187.8780  177.4880  147.6450 C   0  0  2  0  0  3  0  0  0  0  0  0
  186.9880  178.4980  148.0190 O   0  0  0  0  0  1  0  0  0  0  0  0
  189.2800  177.8390  148.1100 C   0  0  0  0  0  1  0  0  0  0  0  0
  1 13  1  1  0  0  0
  1  6  1  0  0  0  0
  2 19  1  0  0  0  0
  2 15  1  0  0  0  0
  3 16  2  0  0  0  0
  4 12  1  0  0  0  0
  4 19  1  0  0  0  0
  6  5  2  0  0  0  0
  6 11  1  0  0  0  0
  7 10  1  0  0  0  0
  8  7  1  0  0  0  0
  9  3  1  0  0  0  0
 10 11  1  0  0  0  0
 11 30  1  0  0  0  0
 12 13  1  0  0  0  0
 13  7  2  0  0  0  0
 14 12  2  0  0  0  0
 15 17  1  0  0  0  0
 17  9  1  6  0  0  0
 17 18  1  0  0  0  0
 17  3  1  0  0  0  0
 18 20  1  0  0  0  0
 19 21  2  0  0  0  0
 21  1  1  0  0  0  0
 21 20  1  0  0  0  0
 22 26  1  0  0  0  0
 23 28  1  0  0  0  0
 24 32  1  1  0  0  0
 25 24  1  0  0  0  0
 26 25  1  0  0  0  0
 27 29  1  0  0  0  0
 28 26  2  0  0  0  0
 28 27  1  0  0  0  0
 29 24  1  0  0  0  0
 30 31  1  0  0  0  0
 30 23  2  0  0  0  0
 31 22  2  0  0  0  0
 32 33  1  0  0  0  0
 32 34  1  6  0  0  0
M  END
>  <MODEL>
6

>  <REMARK>
 VINA RESULT:      -9.5      3.836      6.019
  Name = 
  2 active torsions:
  status: ('A' for Active; 'I' for Inactive)
    1  A    between atoms: C_7  and  C_11
    2  A    between atoms: N_18  and  C_30
                            x       y       z     vdW  Elec       q    Type
                         _______ _______ _______ _____ _____    ______ ____

>  <TORSDO>
F 2

$$$$
=
 OpenBabel10272415213D

 34 39  0  0  1  0  0  0  0  0999 V2000
  186.8780  178.0660  137.8310 C   0  0  2  0  0  3  0  0  0  0  0  0
  188.0170  175.4740  135.1270 C   0  0  0  0  0  2  0  0  0  0  0  0
  191.2520  174.3520  136.2730 C   0  0  0  0  0  0  0  0  0  0  0  0
  185.8470  176.5940  135.6160 N   0  0  0  0  0  2  0  0  0  0  0  0
  188.5040  178.7920  139.4450 O   0  0  0  0  0  0  0  0  0  0  0  0
  187.3220  178.4090  139.2340 C   0  0  0  0  0  0  0  0  0  0  0  0
  184.5230  178.1780  138.7090 C   0  0  0  0  0  0  0  0  0  0  0  0
  183.1560  177.9570  138.5780 O   0  0  0  0  0  1  0  0  0  0  0  0
  191.0760  175.0260  134.9030 C   0  0  0  0  0  2  0  0  0  0  0  0
  185.0010  178.8110  139.9820 C   0  0  0  0  0  2  0  0  0  0  0  0
  186.3650  178.4020  140.3040 N   0  0  0  0  0  0  0  0  0  0  0  0
  184.9110  177.2890  136.4360 C   0  0  0  0  0  0  0  0  0  0  0  0
  185.3770  177.8520  137.7160 C   0  0  0  0  0  0  0  0  0  0  0  0
  183.7190  177.4120  136.0490 O   0  0  0  0  0  0  0  0  0  0  0  0
  188.8790  174.6150  135.8230 O   0  0  0  0  0  0  0  0  0  0  0  0
  191.8490  173.6240  137.0480 O   0  0  0  0  0  0  0  0  0  0  0  0
  190.1080  175.2910  135.9200 C   0  0  1  0  0  0  0  0  0  0  0  0
  190.1580  176.6150  136.6730 C   0  0  0  0  0  2  0  0  0  0  0  0
  187.1900  176.3380  136.0450 C   0  0  0  0  0  0  0  0  0  0  0  0
  189.0540  176.6200  137.7170 C   0  0  0  0  0  2  0  0  0  0  0  0
  187.6870  176.9550  137.1560 C   0  0  0  0  0  0  0  0  0  0  0  0
  186.1660  178.0250  144.0350 C   0  0  0  0  0  3  0  0  0  0  0  0
  188.0880  177.9240  142.0100 C   0  0  0  0  0  3  0  0  0  0  0  0
  189.3560  177.6640  146.0680 C   0  0  2  0  0  3  0  0  0  0  0  0
  187.8550  177.5110  145.7980 C   0  0  0  0  0  2  0  0  0  0  0  0
  187.5030  177.7870  144.3630 C   0  0  0  0  0  0  0  0  0  0  0  0
  189.9290  177.5240  143.6470 C   0  0  0  0  0  2  0  0  0  0  0  0
  188.4700  177.7130  143.3380 C   0  0  0  0  0  0  0  0  0  0  0  0
  190.1530  176.8980  145.0200 C   0  0  0  0  0  2  0  0  0  0  0  0
  186.7460  178.1680  141.6760 C   0  0  0  0  0  0  0  0  0  0  0  0
  185.7920  178.2220  142.7040 C   0  0  0  0  0  3  0  0  0  0  0  0
  189.7370  177.1970  147.4710 C   0  0  2  0  0  3  0  0  0  0  0  0
  189.5610  178.2180  148.4080 O   0  0  0  0  0  1  0  0  0  0  0  0
  191.1730  176.7070  147.5060 C   0  0  0  0  0  1  0  0  0  0  0  0
  1 21  1  1  0  0  0
  1  6  1  0  0  0  0
  2 15  1  0  0  0  0
  2 19  1  0  0  0  0
  3 16  2  0  0  0  0
  4 19  1  0  0  0  0
  4 12  1  0  0  0  0
  6  5  2  0  0  0  0
  6 11  1  0  0  0  0
  7 10  1  0  0  0  0
  8  7  1  0  0  0  0
  9  3  1  0  0  0  0
 10 11  1  0  0  0  0
 11 30  1  0  0  0  0
 12 13  1  0  0  0  0
 13  1  1  0  0  0  0
 13  7  2  0  0  0  0
 14 12  2  0  0  0  0
 15 17  1  0  0  0  0
 17  9  1  6  0  0  0
 17  3  1  0  0  0  0
 17 18  1  0  0  0  0
 18 20  1  0  0  0  0
 19 21  2  0  0  0  0
 21 20  1  0  0  0  0
 22 26  1  0  0  0  0
 23 28  1  0  0  0  0
 24 32  1  1  0  0  0
 25 24  1  0  0  0  0
 26 25  1  0  0  0  0
 27 29  1  0  0  0  0
 28 27  1  0  0  0  0
 28 26  2  0  0  0  0
 29 24  1  0  0  0  0
 30 23  2  0  0  0  0
 30 31  1  0  0  0  0
 31 22  2  0  0  0  0
 32 34  1  6  0  0  0
 32 33  1  0  0  0  0
M  END
>  <MODEL>
7

>  <REMARK>
 VINA RESULT:      -9.5      2.045      3.023
  Name = 
  2 active torsions:
  status: ('A' for Active; 'I' for Inactive)
    1  A    between atoms: C_7  and  C_11
    2  A    between atoms: N_18  and  C_30
                            x       y       z     vdW  Elec       q    Type
                         _______ _______ _______ _____ _____    ______ ____

>  <TORSDO>
F 2

$$$$
=
 OpenBabel10272415213D

 34 39  0  0  1  0  0  0  0  0999 V2000
  186.8420  178.0190  137.8240 C   0  0  2  0  0  3  0  0  0  0  0  0
  187.6960  175.3720  135.0690 C   0  0  0  0  0  2  0  0  0  0  0  0
  191.0430  174.2880  135.8820 C   0  0  0  0  0  0  0  0  0  0  0  0
  185.5860  176.4950  135.7670 N   0  0  0  0  0  2  0  0  0  0  0  0
  188.6300  178.7870  139.2350 O   0  0  0  0  0  0  0  0  0  0  0  0
  187.4340  178.3960  139.1630 C   0  0  0  0  0  0  0  0  0  0  0  0
  184.5960  178.1430  138.9500 C   0  0  0  0  0  0  0  0  0  0  0  0
  183.2240  177.9150  138.9740 O   0  0  0  0  0  1  0  0  0  0  0  0
  190.7150  174.9300  134.5240 C   0  0  0  0  0  2  0  0  0  0  0  0
  185.2060  178.8060  140.1490 C   0  0  0  0  0  2  0  0  0  0  0  0
  186.5990  178.4090  140.3300 N   0  0  0  0  0  0  0  0  0  0  0  0
  184.7400  177.2050  136.6680 C   0  0  0  0  0  0  0  0  0  0  0  0
  185.3390  177.7980  137.8770 C   0  0  0  0  0  0  0  0  0  0  0  0
  183.5120  177.3150  136.4110 O   0  0  0  0  0  0  0  0  0  0  0  0
  188.6330  174.5320  135.6860 O   0  0  0  0  0  0  0  0  0  0  0  0
  191.7250  173.5790  136.6020 O   0  0  0  0  0  0  0  0  0  0  0  0
  189.8620  175.2140  135.6340 C   0  0  1  0  0  0  0  0  0  0  0  0
  189.9850  176.5540  136.3480 C   0  0  0  0  0  2  0  0  0  0  0  0
  186.9690  176.2530  136.0530 C   0  0  0  0  0  0  0  0  0  0  0  0
  189.0020  176.5790  137.5060 C   0  0  0  0  0  2  0  0  0  0  0  0
  187.5790  176.8960  137.0890 C   0  0  0  0  0  0  0  0  0  0  0  0
  188.9830  177.6480  143.1300 C   0  0  0  0  0  3  0  0  0  0  0  0
  186.2890  178.3000  142.7800 C   0  0  0  0  0  3  0  0  0  0  0  0
  187.6720  177.2870  146.6780 C   0  0  2  0  0  3  0  0  0  0  0  0
  188.7390  177.5570  145.6110 C   0  0  0  0  0  2  0  0  0  0  0  0
  188.1440  177.7370  144.2430 C   0  0  0  0  0  0  0  0  0  0  0  0
  185.8320  178.1340  145.2270 C   0  0  0  0  0  2  0  0  0  0  0  0
  186.7880  178.0900  144.0690 C   0  0  0  0  0  0  0  0  0  0  0  0
  186.5500  178.3100  146.5620 C   0  0  0  0  0  2  0  0  0  0  0  0
  187.1280  178.2070  141.6570 C   0  0  0  0  0  0  0  0  0  0  0  0
  188.4780  177.8730  141.8480 C   0  0  0  0  0  3  0  0  0  0  0  0
  188.2570  177.2970  148.0890 C   0  0  2  0  0  3  0  0  0  0  0  0
  187.5630  178.1830  148.9160 O   0  0  0  0  0  1  0  0  0  0  0  0
  189.7290  177.6640  148.0600 C   0  0  0  0  0  1  0  0  0  0  0  0
  1 21  1  1  0  0  0
  1 13  1  0  0  0  0
  1  6  1  0  0  0  0
  2 15  1  0  0  0  0
  2 19  1  0  0  0  0
  3 16  2  0  0  0  0
  4 19  1  0  0  0  0
  4 12  1  0  0  0  0
  6  5  2  0  0  0  0
  6 11  1  0  0  0  0
  7  8  1  0  0  0  0
  7 10  1  0  0  0  0
  9  3  1  0  0  0  0
 10 11  1  0  0  0  0
 11 30  1  0  0  0  0
 12 13  1  0  0  0  0
 13  7  2  0  0  0  0
 14 12  2  0  0  0  0
 17  9  1  6  0  0  0
 17 15  1  0  0  0  0
 17  3  1  0  0  0  0
 17 18  1  0  0  0  0
 18 20  1  0  0  0  0
 19 21  2  0  0  0  0
 21 20  1  0  0  0  0
 22 26  1  0  0  0  0
 23 28  1  0  0  0  0
 24 32  1  1  0  0  0
 25 24  1  0  0  0  0
 26 25  1  0  0  0  0
 27 29  1  0  0  0  0
 28 26  2  0  0  0  0
 28 27  1  0  0  0  0
 29 24  1  0  0  0  0
 30 31  1  0  0  0  0
 30 23  2  0  0  0  0
 31 22  2  0  0  0  0
 32 34  1  6  0  0  0
 32 33  1  0  0  0  0
M  END
>  <MODEL>
8

>  <REMARK>
 VINA RESULT:      -9.4      2.014      3.164
  Name = 
  2 active torsions:
  status: ('A' for Active; 'I' for Inactive)
    1  A    between atoms: C_7  and  C_11
    2  A    between atoms: N_18  and  C_30
                            x       y       z     vdW  Elec       q    Type
                         _______ _______ _______ _____ _____    ______ ____

>  <TORSDO>
F 2

$$$$
=
 OpenBabel10272415213D

 34 39  0  0  1  0  0  0  0  0999 V2000
  189.9430  177.6920  138.6050 C   0  0  2  0  0  3  0  0  0  0  0  0
  191.6050  177.3180  142.1300 C   0  0  0  0  0  2  0  0  0  0  0  0
  188.8270  177.3720  144.4360 C   0  0  0  0  0  0  0  0  0  0  0  0
  192.4440  177.0300  139.8030 N   0  0  0  0  0  2  0  0  0  0  0  0
  187.6160  178.2890  138.5190 O   0  0  0  0  0  0  0  0  0  0  0  0
  188.5370  177.5550  138.0680 C   0  0  0  0  0  0  0  0  0  0  0  0
  190.6770  176.3620  136.6000 C   0  0  0  0  0  0  0  0  0  0  0  0
  191.6340  175.6400  135.8930 O   0  0  0  0  0  1  0  0  0  0  0  0
  189.9540  178.4130  144.5150 C   0  0  0  0  0  2  0  0  0  0  0  0
  189.3280  176.5250  135.9660 C   0  0  0  0  0  2  0  0  0  0  0  0
  188.2790  176.6670  136.9710 N   0  0  0  0  0  0  0  0  0  0  0  0
  192.3090  176.8110  138.4020 C   0  0  0  0  0  0  0  0  0  0  0  0
  190.9680  176.9100  137.7990 C   0  0  0  0  0  0  0  0  0  0  0  0
  193.3310  176.5470  137.7130 O   0  0  0  0  0  0  0  0  0  0  0  0
  190.6060  176.7230  142.9140 O   0  0  0  0  0  0  0  0  0  0  0  0
  187.9160  176.7290  144.9310 O   0  0  0  0  0  0  0  0  0  0  0  0
  189.7210  177.7570  143.2670 C   0  0  1  0  0  0  0  0  0  0  0  0
  188.9810  178.4980  142.1590 C   0  0  0  0  0  2  0  0  0  0  0  0
  191.3100  177.2380  140.6530 C   0  0  0  0  0  0  0  0  0  0  0  0
  188.8310  177.5650  140.9690 C   0  0  0  0  0  2  0  0  0  0  0  0
  190.0780  177.4650  140.1130 C   0  0  0  0  0  0  0  0  0  0  0  0
  184.6930  176.2010  135.9560 C   0  0  0  0  0  3  0  0  0  0  0  0
  186.7280  174.7580  137.2130 C   0  0  0  0  0  3  0  0  0  0  0  0
  182.8220  173.0690  137.0200 C   0  0  2  0  0  3  0  0  0  0  0  0
  183.0940  174.2960  136.1400 C   0  0  0  0  0  2  0  0  0  0  0  0
  184.4400  174.9060  136.4130 C   0  0  0  0  0  0  0  0  0  0  0  0
  185.2320  172.7970  137.5940 C   0  0  0  0  0  2  0  0  0  0  0  0
  185.4740  174.1680  137.0270 C   0  0  0  0  0  0  0  0  0  0  0  0
  184.0130  172.1220  136.9710 C   0  0  0  0  0  2  0  0  0  0  0  0
  186.9860  176.0610  136.7590 C   0  0  0  0  0  0  0  0  0  0  0  0
  185.9530  176.7770  136.1340 C   0  0  0  0  0  3  0  0  0  0  0  0
  181.5450  172.3400  136.6080 C   0  0  2  0  0  3  0  0  0  0  0  0
  180.7570  172.0360  137.7210 O   0  0  0  0  0  1  0  0  0  0  0  0
  181.8720  171.0690  135.8450 C   0  0  0  0  0  1  0  0  0  0  0  0
  1 13  1  6  0  0  0
  1 21  1  0  0  0  0
  2 15  1  0  0  0  0
  3  9  1  0  0  0  0
  3 16  2  0  0  0  0
  4 19  1  0  0  0  0
  6  5  2  0  0  0  0
  6  1  1  0  0  0  0
  7 13  2  0  0  0  0
  8  7  1  0  0  0  0
 10  7  1  0  0  0  0
 10 11  1  0  0  0  0
 11  6  1  0  0  0  0
 12  4  1  0  0  0  0
 13 12  1  0  0  0  0
 14 12  2  0  0  0  0
 15 17  1  0  0  0  0
 17 18  1  6  0  0  0
 17  3  1  0  0  0  0
 17  9  1  0  0  0  0
 19  2  1  0  0  0  0
 20 18  1  0  0  0  0
 21 19  2  0  0  0  0
 21 20  1  0  0  0  0
 22 31  2  0  0  0  0
 22 26  1  0  0  0  0
 24 32  1  6  0  0  0
 25 26  1  0  0  0  0
 25 24  1  0  0  0  0
 26 28  2  0  0  0  0
 28 23  1  0  0  0  0
 28 27  1  0  0  0  0
 29 24  1  0  0  0  0
 29 27  1  0  0  0  0
 30 11  1  0  0  0  0
 30 23  2  0  0  0  0
 31 30  1  0  0  0  0
 32 34  1  1  0  0  0
 32 33  1  0  0  0  0
M  END
>  <MODEL>
9

>  <REMARK>
 VINA RESULT:      -8.6      3.763      9.375
  Name = 
  2 active torsions:
  status: ('A' for Active; 'I' for Inactive)
    1  A    between atoms: C_7  and  C_11
    2  A    between atoms: N_18  and  C_30
                            x       y       z     vdW  Elec       q    Type
                         _______ _______ _______ _____ _____    ______ ____

>  <TORSDO>
F 2

$$$$
