=
 OpenBabel10272415073D

 34 39  0  0  1  0  0  0  0  0999 V2000
  186.0810  177.9760  144.9460 C   0  0  0  0  0  0  0  0  0  0  0  0
  188.2120  177.6990  146.1050 C   0  0  0  0  0  0  0  0  0  0  0  0
  186.2490  178.4370  147.4000 C   0  0  0  0  0  3  0  0  0  0  0  0
  184.8250  178.8490  141.8560 C   0  0  0  0  0  0  0  0  0  0  0  0
  185.8260  178.3230  142.4970 N   0  0  0  0  0  0  0  0  0  0  0  0
  184.0860  178.8460  143.9300 C   0  0  0  0  0  0  0  0  0  0  0  0
  183.5060  179.1790  145.1870 N   0  0  0  0  0  0  0  0  0  0  0  0
  183.7010  179.2480  142.7320 C   0  0  0  0  0  3  0  0  0  0  0  0
  185.3430  178.0220  146.2800 C   0  0  1  0  0  3  0  0  0  0  0  0
  185.3900  178.2850  143.8450 C   0  0  0  0  0  0  0  0  0  0  0  0
  184.1070  178.8340  146.2630 N   0  0  0  0  0  0  0  0  0  0  0  0
  189.6510  177.2730  146.2250 C   0  0  0  0  0  2  0  0  0  0  0  0
  190.3500  177.1480  144.8740 C   0  0  2  0  0  3  0  0  0  0  0  0
  189.4720  176.3440  143.9230 C   0  0  0  0  0  2  0  0  0  0  0  0
  187.5690  178.2420  147.3230 C   0  0  0  0  0  3  0  0  0  0  0  0
  188.1800  177.1110  143.6760 C   0  0  0  0  0  2  0  0  0  0  0  0
  187.5090  177.5600  144.9530 C   0  0  0  0  0  0  0  0  0  0  0  0
  191.7340  176.5260  145.0500 C   0  0  2  0  0  3  0  0  0  0  0  0
  191.9100  175.3300  144.1340 C   0  0  0  0  0  1  0  0  0  0  0  0
  191.9510  176.1450  146.3770 O   0  0  0  0  0  1  0  0  0  0  0  0
  184.8770  179.1360  140.3940 C   0  0  0  0  0  2  0  0  0  0  0  0
  187.1010  177.3280  137.9660 N   0  0  0  0  0  0  0  0  0  0  0  0
  187.2880  178.4620  140.4890 C   0  0  0  0  0  3  0  0  0  0  0  0
  190.6170  176.6010  138.7290 C   0  0  0  0  0  0  0  0  0  0  0  0
  189.3950  176.6570  138.0450 C   0  0  0  0  0  3  0  0  0  0  0  0
  188.2880  177.2760  138.6300 C   0  0  0  0  0  0  0  0  0  0  0  0
  189.6160  177.7930  140.6000 C   0  0  0  0  0  3  0  0  0  0  0  0
  188.4010  177.8480  139.9150 C   0  0  0  0  0  0  0  0  0  0  0  0
  190.7200  177.1720  140.0070 C   0  0  0  0  0  3  0  0  0  0  0  0
  186.0820  178.5070  139.7830 C   0  0  0  0  0  0  0  0  0  0  0  0
  186.0070  177.9240  138.5140 C   0  0  0  0  0  3  0  0  0  0  0  0
  191.7800  175.9460  138.1080 C   0  0  0  0  0  0  0  0  0  0  0  0
  192.7850  176.6230  137.7620 O   0  0  0  0  0  0  0  0  0  0  0  0
  191.7800  174.5720  137.8960 O   0  0  0  0  0  1  0  0  0  0  0  0
  1 17  1  0  0  0  0
  1  9  1  0  0  0  0
  2 12  1  0  0  0  0
  2 15  1  0  0  0  0
  4  5  2  0  0  0  0
  4  8  1  0  0  0  0
  5 10  1  0  0  0  0
  6  7  1  0  0  0  0
  7 11  2  0  0  0  0
  8  6  2  0  0  0  0
  9  3  1  1  0  0  0
 10  6  1  0  0  0  0
 10  1  2  0  0  0  0
 11  9  1  0  0  0  0
 13 18  1  1  0  0  0
 13 12  1  0  0  0  0
 14 13  1  0  0  0  0
 15  3  2  0  0  0  0
 16 14  1  0  0  0  0
 16 17  1  0  0  0  0
 17  2  2  0  0  0  0
 18 19  1  6  0  0  0
 18 20  1  0  0  0  0
 21  4  1  0  0  0  0
 22 31  2  0  0  0  0
 22 26  1  0  0  0  0
 24 29  1  0  0  0  0
 25 26  1  0  0  0  0
 25 24  2  0  0  0  0
 26 28  2  0  0  0  0
 28 23  1  0  0  0  0
 28 27  1  0  0  0  0
 29 27  2  0  0  0  0
 30 21  1  0  0  0  0
 30 23  2  0  0  0  0
 31 30  1  0  0  0  0
 32 24  1  0  0  0  0
 33 32  2  0  0  0  0
 34 32  1  0  0  0  0
M  END
>  <MODEL>
1

>  <REMARK>
 VINA RESULT:     -11.6      0.000      0.000
  Name = 
  4 active torsions:
  status: ('A' for Active; 'I' for Inactive)
    1  A    between atoms: C_3  and  C_25
    2  A    between atoms: C_7  and  C_11
    3  A    between atoms: C_8  and  C_18
    4  A    between atoms: C_18  and  C_30
                            x       y       z     vdW  Elec       q    Type
                         _______ _______ _______ _____ _____    ______ ____

>  <TORSDO>
F 4

$$$$
=
 OpenBabel10272415073D

 34 39  0  0  1  0  0  0  0  0999 V2000
  188.8950  177.3410  145.4090 C   0  0  0  0  0  0  0  0  0  0  0  0
  190.5800  177.3400  143.6420 C   0  0  0  0  0  0  0  0  0  0  0  0
  191.3250  177.1760  145.9850 C   0  0  0  0  0  3  0  0  0  0  0  0
  185.7730  178.6260  146.1120 C   0  0  0  0  0  0  0  0  0  0  0  0
  186.5860  178.2320  145.1760 N   0  0  0  0  0  0  0  0  0  0  0  0
  187.4900  177.8910  147.2790 C   0  0  0  0  0  0  0  0  0  0  0  0
  188.5490  177.7230  148.2150 N   0  0  0  0  0  0  0  0  0  0  0  0
  186.3220  178.4750  147.4780 C   0  0  0  0  0  3  0  0  0  0  0  0
  189.9280  176.8440  146.4160 C   0  0  1  0  0  3  0  0  0  0  0  0
  187.7080  177.7330  145.8820 C   0  0  0  0  0  0  0  0  0  0  0  0
  189.6790  177.2800  147.8070 N   0  0  0  0  0  0  0  0  0  0  0  0
  191.0540  177.2890  142.2140 C   0  0  0  0  0  2  0  0  0  0  0  0
  189.9790  177.7060  141.2140 C   0  0  2  0  0  3  0  0  0  0  0  0
  188.6800  176.9760  141.5330 C   0  0  0  0  0  2  0  0  0  0  0  0
  191.6200  177.3600  144.6950 C   0  0  0  0  0  3  0  0  0  0  0  0
  188.1920  177.4150  142.9060 C   0  0  0  0  0  2  0  0  0  0  0  0
  189.2630  177.3260  143.9690 C   0  0  0  0  0  0  0  0  0  0  0  0
  190.4560  177.4440  139.7860 C   0  0  2  0  0  3  0  0  0  0  0  0
  189.5120  178.0720  138.7780 C   0  0  0  0  0  1  0  0  0  0  0  0
  190.5750  176.0750  139.5360 O   0  0  0  0  0  1  0  0  0  0  0  0
  184.4700  179.2850  145.8110 C   0  0  0  0  0  2  0  0  0  0  0  0
  182.4290  178.5170  142.7530 N   0  0  0  0  0  0  0  0  0  0  0  0
  185.0580  179.1310  143.3810 C   0  0  0  0  0  3  0  0  0  0  0  0
  183.9220  178.4100  139.4020 C   0  0  0  0  0  0  0  0  0  0  0  0
  182.9740  178.3430  140.4310 C   0  0  0  0  0  3  0  0  0  0  0  0
  183.3510  178.5840  141.7540 C   0  0  0  0  0  0  0  0  0  0  0  0
  185.6420  178.9610  141.0330 C   0  0  0  0  0  3  0  0  0  0  0  0
  184.6940  178.8950  142.0550 C   0  0  0  0  0  0  0  0  0  0  0  0
  185.2560  178.7200  139.7110 C   0  0  0  0  0  3  0  0  0  0  0  0
  184.0910  179.0620  144.3870 C   0  0  0  0  0  0  0  0  0  0  0  0
  182.7710  178.7450  144.0510 C   0  0  0  0  0  3  0  0  0  0  0  0
  183.5190  178.1560  138.0100 C   0  0  0  0  0  0  0  0  0  0  0  0
  184.2850  177.5350  137.2260 O   0  0  0  0  0  0  0  0  0  0  0  0
  182.2860  178.5990  137.5450 O   0  0  0  0  0  1  0  0  0  0  0  0
  1 10  2  0  0  0  0
  1  9  1  0  0  0  0
  2 17  2  0  0  0  0
  2 15  1  0  0  0  0
  4  8  1  0  0  0  0
  5 10  1  0  0  0  0
  5  4  2  0  0  0  0
  6  8  2  0  0  0  0
  6  7  1  0  0  0  0
  9  3  1  6  0  0  0
  9 11  1  0  0  0  0
 10  6  1  0  0  0  0
 11  7  2  0  0  0  0
 12  2  1  0  0  0  0
 13 18  1  6  0  0  0
 13 14  1  0  0  0  0
 13 12  1  0  0  0  0
 14 16  1  0  0  0  0
 15  3  2  0  0  0  0
 16 17  1  0  0  0  0
 17  1  1  0  0  0  0
 18 19  1  6  0  0  0
 20 18  1  0  0  0  0
 21  4  1  0  0  0  0
 22 31  1  0  0  0  0
 23 30  1  0  0  0  0
 24 29  1  0  0  0  0
 24 25  2  0  0  0  0
 25 26  1  0  0  0  0
 26 28  1  0  0  0  0
 26 22  2  0  0  0  0
 27 28  1  0  0  0  0
 28 23  2  0  0  0  0
 29 27  2  0  0  0  0
 30 21  1  0  0  0  0
 31 30  2  0  0  0  0
 32 24  1  0  0  0  0
 33 32  2  0  0  0  0
 34 32  1  0  0  0  0
M  END
>  <MODEL>
2

>  <REMARK>
 VINA RESULT:     -10.9      2.943      5.521
  Name = 
  4 active torsions:
  status: ('A' for Active; 'I' for Inactive)
    1  A    between atoms: C_3  and  C_25
    2  A    between atoms: C_7  and  C_11
    3  A    between atoms: C_8  and  C_18
    4  A    between atoms: C_18  and  C_30
                            x       y       z     vdW  Elec       q    Type
                         _______ _______ _______ _____ _____    ______ ____

>  <TORSDO>
F 4

$$$$
=
 OpenBabel10272415073D

 34 39  0  0  1  0  0  0  0  0999 V2000
  184.8700  178.8160  140.4760 C   0  0  0  0  0  0  0  0  0  0  0  0
  186.7730  177.9870  139.1910 C   0  0  0  0  0  0  0  0  0  0  0  0
  184.5720  178.1210  138.0900 C   0  0  0  0  0  3  0  0  0  0  0  0
  183.6630  178.8850  143.7050 C   0  0  0  0  0  0  0  0  0  0  0  0
  184.7270  178.8370  142.9580 N   0  0  0  0  0  2  0  0  0  0  0  0
  182.8060  179.0470  141.6830 C   0  0  0  0  0  0  0  0  0  0  0  0
  182.0190  178.9090  140.5050 N   0  0  0  0  0  0  0  0  0  0  0  0
  182.4010  178.9700  142.9380 C   0  0  0  0  0  3  0  0  0  0  0  0
  184.0630  178.9990  139.1940 C   0  0  0  0  0  0  0  0  0  0  0  0
  184.2250  178.9540  141.6370 C   0  0  0  0  0  0  0  0  0  0  0  0
  182.6030  178.8470  139.3670 N   0  0  0  0  0  0  0  0  0  0  0  0
  188.2310  177.6960  138.9520 C   0  0  0  0  0  2  0  0  0  0  0  0
  189.0390  177.6040  140.2430 C   0  0  2  0  0  3  0  0  0  0  0  0
  188.7140  178.7980  141.1310 C   0  0  0  0  0  2  0  0  0  0  0  0
  185.8400  177.6970  138.0790 C   0  0  0  0  0  3  0  0  0  0  0  0
  187.2460  178.7320  141.5300 C   0  0  0  0  0  2  0  0  0  0  0  0
  186.3240  178.5310  140.3490 C   0  0  0  0  0  0  0  0  0  0  0  0
  190.5310  177.5060  139.9270 C   0  0  2  0  0  3  0  0  0  0  0  0
  190.7870  176.4690  138.8490 C   0  0  0  0  0  1  0  0  0  0  0  0
  191.2710  177.1950  141.0710 O   0  0  0  0  0  1  0  0  0  0  0  0
  183.7240  178.7330  145.1870 C   0  0  0  0  0  2  0  0  0  0  0  0
  186.7980  178.3700  147.3140 N   0  0  0  0  0  0  0  0  0  0  0  0
  186.0100  177.8280  144.7120 C   0  0  0  0  0  3  0  0  0  0  0  0
  189.9180  176.9630  145.9870 C   0  0  0  0  0  0  0  0  0  0  0  0
  188.9940  177.5300  146.8750 C   0  0  0  0  0  3  0  0  0  0  0  0
  187.6940  177.8170  146.4520 C   0  0  0  0  0  0  0  0  0  0  0  0
  188.2290  176.9710  144.2350 C   0  0  0  0  0  3  0  0  0  0  0  0
  187.3110  177.5350  145.1230 C   0  0  0  0  0  0  0  0  0  0  0  0
  189.5280  176.6860  144.6680 C   0  0  0  0  0  3  0  0  0  0  0  0
  185.1080  178.3890  145.6190 C   0  0  0  0  0  0  0  0  0  0  0  0
  185.5260  178.6600  146.9260 C   0  0  0  0  0  3  0  0  0  0  0  0
  191.2860  176.6630  146.4390 C   0  0  0  0  0  0  0  0  0  0  0  0
  192.0650  175.9900  145.7140 O   0  0  0  0  0  0  0  0  0  0  0  0
  191.7320  177.1210  147.6740 O   0  0  0  0  0  1  0  0  0  0  0  0
  1 10  1  0  0  0  0
  2 17  1  0  0  0  0
  3  9  2  0  0  0  0
  4 21  1  0  0  0  0
  5  4  1  0  0  0  0
  6  8  1  0  0  0  0
  7  6  1  0  0  0  0
  8  4  2  0  0  0  0
  9 11  1  0  0  0  0
  9  1  1  0  0  0  0
 10  6  2  0  0  0  0
 10  5  1  0  0  0  0
 11  7  2  0  0  0  0
 12  2  1  0  0  0  0
 12 13  1  0  0  0  0
 13 18  1  6  0  0  0
 13 14  1  0  0  0  0
 14 16  1  0  0  0  0
 15  3  1  0  0  0  0
 15  2  2  0  0  0  0
 17  1  2  0  0  0  0
 17 16  1  0  0  0  0
 18 19  1  6  0  0  0
 18 20  1  0  0  0  0
 21 30  1  0  0  0  0
 23 28  2  0  0  0  0
 23 30  1  0  0  0  0
 24 32  1  0  0  0  0
 24 25  2  0  0  0  0
 26 25  1  0  0  0  0
 26 22  2  0  0  0  0
 27 29  2  0  0  0  0
 27 28  1  0  0  0  0
 28 26  1  0  0  0  0
 29 24  1  0  0  0  0
 30 31  2  0  0  0  0
 31 22  1  0  0  0  0
 32 34  1  0  0  0  0
 33 32  2  0  0  0  0
M  END
>  <MODEL>
3

>  <REMARK>
 VINA RESULT:     -10.8      1.699      6.301
  Name = 
  4 active torsions:
  status: ('A' for Active; 'I' for Inactive)
    1  A    between atoms: C_3  and  C_25
    2  A    between atoms: C_7  and  C_11
    3  A    between atoms: C_8  and  C_18
    4  A    between atoms: C_18  and  C_30
                            x       y       z     vdW  Elec       q    Type
                         _______ _______ _______ _____ _____    ______ ____

>  <TORSDO>
F 4

$$$$
=
 OpenBabel10272415073D

 34 39  0  0  1  0  0  0  0  0999 V2000
  185.9530  178.0120  144.8630 C   0  0  0  0  0  0  0  0  0  0  0  0
  188.1260  177.8290  145.9610 C   0  0  0  0  0  0  0  0  0  0  0  0
  186.1750  178.5000  147.3080 C   0  0  0  0  0  3  0  0  0  0  0  0
  184.5720  178.8080  141.8060 C   0  0  0  0  0  0  0  0  0  0  0  0
  185.6120  178.3270  142.4210 N   0  0  0  0  0  0  0  0  0  0  0  0
  183.8950  178.7940  143.9010 C   0  0  0  0  0  0  0  0  0  0  0  0
  183.3410  179.1150  145.1730 N   0  0  0  0  0  0  0  0  0  0  0  0
  183.4600  179.1700  142.7130 C   0  0  0  0  0  3  0  0  0  0  0  0
  185.2530  178.0400  146.2190 C   0  0  1  0  0  3  0  0  0  0  0  0
  185.2180  178.2840  143.7820 C   0  0  0  0  0  0  0  0  0  0  0  0
  183.9860  178.8030  146.2330 N   0  0  0  0  0  0  0  0  0  0  0  0
  189.5840  177.4600  146.0410 C   0  0  0  0  0  2  0  0  0  0  0  0
  190.2470  177.3510  144.6700 C   0  0  2  0  0  3  0  0  0  0  0  0
  189.3730  176.5050  143.7520 C   0  0  0  0  0  2  0  0  0  0  0  0
  187.4990  178.3560  147.1930 C   0  0  0  0  0  3  0  0  0  0  0  0
  188.0460  177.2190  143.5380 C   0  0  0  0  0  2  0  0  0  0  0  0
  187.3950  177.6520  144.8320 C   0  0  0  0  0  0  0  0  0  0  0  0
  191.6590  176.7860  144.8100 C   0  0  2  0  0  3  0  0  0  0  0  0
  191.7830  175.4570  144.0870 C   0  0  0  0  0  1  0  0  0  0  0  0
  192.0110  176.6310  146.1530 O   0  0  0  0  0  1  0  0  0  0  0  0
  184.5690  179.0840  140.3410 C   0  0  0  0  0  2  0  0  0  0  0  0
  183.8920  176.4910  137.7090 N   0  0  0  0  0  0  0  0  0  0  0  0
  182.7590  177.3720  140.0810 C   0  0  0  0  0  3  0  0  0  0  0  0
  180.9850  174.2560  137.8910 C   0  0  0  0  0  0  0  0  0  0  0  0
  182.1610  174.8650  137.4300 C   0  0  0  0  0  3  0  0  0  0  0  0
  182.7520  175.9000  138.1580 C   0  0  0  0  0  0  0  0  0  0  0  0
  180.9890  175.7330  139.8260 C   0  0  0  0  0  3  0  0  0  0  0  0
  182.1600  176.3360  139.3640 C   0  0  0  0  0  0  0  0  0  0  0  0
  180.4050  174.6970  139.0910 C   0  0  0  0  0  3  0  0  0  0  0  0
  183.9340  177.9570  139.6000 C   0  0  0  0  0  0  0  0  0  0  0  0
  184.4860  177.5030  138.3990 C   0  0  0  0  0  3  0  0  0  0  0  0
  180.3680  173.1660  137.1190 C   0  0  0  0  0  0  0  0  0  0  0  0
  179.9910  173.3580  135.9320 O   0  0  0  0  0  0  0  0  0  0  0  0
  180.1930  171.9120  137.6940 O   0  0  0  0  0  1  0  0  0  0  0  0
  1  9  1  0  0  0  0
  2 12  1  0  0  0  0
  2 15  1  0  0  0  0
  4  5  2  0  0  0  0
  4  8  1  0  0  0  0
  5 10  1  0  0  0  0
  6  7  1  0  0  0  0
  7 11  2  0  0  0  0
  8  6  2  0  0  0  0
  9 11  1  0  0  0  0
  9  3  1  1  0  0  0
 10  6  1  0  0  0  0
 10  1  2  0  0  0  0
 13 18  1  1  0  0  0
 13 12  1  0  0  0  0
 14 13  1  0  0  0  0
 15  3  2  0  0  0  0
 16 14  1  0  0  0  0
 16 17  1  0  0  0  0
 17  1  1  0  0  0  0
 17  2  2  0  0  0  0
 18 19  1  6  0  0  0
 18 20  1  0  0  0  0
 21  4  1  0  0  0  0
 22 26  2  0  0  0  0
 22 31  1  0  0  0  0
 24 29  1  0  0  0  0
 25 24  2  0  0  0  0
 25 26  1  0  0  0  0
 26 28  1  0  0  0  0
 28 27  1  0  0  0  0
 28 23  2  0  0  0  0
 29 27  2  0  0  0  0
 30 23  1  0  0  0  0
 30 21  1  0  0  0  0
 31 30  2  0  0  0  0
 32 34  1  0  0  0  0
 32 24  1  0  0  0  0
 33 32  2  0  0  0  0
M  END
>  <MODEL>
4

>  <REMARK>
 VINA RESULT:     -10.7      3.954      5.206
  Name = 
  4 active torsions:
  status: ('A' for Active; 'I' for Inactive)
    1  A    between atoms: C_3  and  C_25
    2  A    between atoms: C_7  and  C_11
    3  A    between atoms: C_8  and  C_18
    4  A    between atoms: C_18  and  C_30
                            x       y       z     vdW  Elec       q    Type
                         _______ _______ _______ _____ _____    ______ ____

>  <TORSDO>
F 4

$$$$
=
 OpenBabel10272415073D

 34 39  0  0  1  0  0  0  0  0999 V2000
  186.4570  178.1770  139.2230 C   0  0  0  0  0  0  0  0  0  0  0  0
  188.7340  177.3030  139.3310 C   0  0  0  0  0  0  0  0  0  0  0  0
  187.4780  177.0710  137.2240 C   0  0  0  0  0  3  0  0  0  0  0  0
  183.7010  178.6850  141.2330 C   0  0  0  0  0  0  0  0  0  0  0  0
  184.9990  178.6000  141.1920 N   0  0  0  0  0  2  0  0  0  0  0  0
  184.0730  178.4380  139.0770 C   0  0  0  0  0  0  0  0  0  0  0  0
  184.0440  178.0420  137.7090 N   0  0  0  0  0  0  0  0  0  0  0  0
  183.0540  178.5390  139.9100 C   0  0  0  0  0  3  0  0  0  0  0  0
  186.4740  178.0770  137.7010 C   0  0  0  0  0  0  0  0  0  0  0  0
  185.2910  178.4540  139.8130 C   0  0  0  0  0  0  0  0  0  0  0  0
  185.1470  177.8380  137.0930 N   0  0  0  0  0  0  0  0  0  0  0  0
  190.0840  177.0950  139.9650 C   0  0  0  0  0  2  0  0  0  0  0  0
  190.0660  177.2850  141.4790 C   0  0  2  0  0  3  0  0  0  0  0  0
  189.3400  178.5810  141.8180 C   0  0  0  0  0  2  0  0  0  0  0  0
  188.5410  176.7560  137.9690 C   0  0  0  0  0  3  0  0  0  0  0  0
  187.8880  178.4630  141.3770 C   0  0  0  0  0  2  0  0  0  0  0  0
  187.7430  177.9940  139.9470 C   0  0  0  0  0  0  0  0  0  0  0  0
  191.4900  177.2570  142.0320 C   0  0  2  0  0  3  0  0  0  0  0  0
  191.6090  178.1370  143.2620 C   0  0  0  0  0  1  0  0  0  0  0  0
  192.4150  177.6620  141.0670 O   0  0  0  0  0  1  0  0  0  0  0  0
  182.9500  178.7890  142.5160 C   0  0  0  0  0  2  0  0  0  0  0  0
  184.3750  179.0670  145.9800 N   0  0  0  0  0  0  0  0  0  0  0  0
  185.1310  178.0610  143.5100 C   0  0  0  0  0  3  0  0  0  0  0  0
  187.7200  177.8030  146.8080 C   0  0  0  0  0  0  0  0  0  0  0  0
  186.4590  178.4000  146.9430 C   0  0  0  0  0  3  0  0  0  0  0  0
  185.5980  178.4850  145.8480 C   0  0  0  0  0  0  0  0  0  0  0  0
  187.2550  177.3750  144.4580 C   0  0  0  0  0  3  0  0  0  0  0  0
  186.0000  177.9690  144.5970 C   0  0  0  0  0  0  0  0  0  0  0  0
  188.1120  177.2920  145.5600 C   0  0  0  0  0  3  0  0  0  0  0  0
  183.8780  178.6570  143.6750 C   0  0  0  0  0  0  0  0  0  0  0  0
  183.5170  179.1640  144.9270 C   0  0  0  0  0  3  0  0  0  0  0  0
  188.6230  177.7170  147.9660 C   0  0  0  0  0  0  0  0  0  0  0  0
  188.2200  178.0390  149.1160 O   0  0  0  0  0  1  0  0  0  0  0  0
  189.9330  177.2790  147.8030 O   0  0  0  0  0  0  0  0  0  0  0  0
  1 10  1  0  0  0  0
  1 17  2  0  0  0  0
  2 17  1  0  0  0  0
  2 12  1  0  0  0  0
  3  9  2  0  0  0  0
  3 15  1  0  0  0  0
  4 21  1  0  0  0  0
  5  4  1  0  0  0  0
  6 10  2  0  0  0  0
  6  8  1  0  0  0  0
  7  6  1  0  0  0  0
  8  4  2  0  0  0  0
  9  1  1  0  0  0  0
 10  5  1  0  0  0  0
 11  9  1  0  0  0  0
 11  7  2  0  0  0  0
 12 13  1  0  0  0  0
 13 14  1  0  0  0  0
 13 18  1  6  0  0  0
 15  2  2  0  0  0  0
 16 14  1  0  0  0  0
 17 16  1  0  0  0  0
 18 19  1  1  0  0  0
 20 18  1  0  0  0  0
 21 30  1  0  0  0  0
 23 30  2  0  0  0  0
 23 28  1  0  0  0  0
 24 25  1  0  0  0  0
 24 32  1  0  0  0  0
 26 22  1  0  0  0  0
 26 25  2  0  0  0  0
 27 28  2  0  0  0  0
 27 29  1  0  0  0  0
 28 26  1  0  0  0  0
 29 24  2  0  0  0  0
 30 31  1  0  0  0  0
 31 22  2  0  0  0  0
 32 33  1  0  0  0  0
 34 32  2  0  0  0  0
M  END
>  <MODEL>
5

>  <REMARK>
 VINA RESULT:     -10.6      1.703      6.730
  Name = 
  4 active torsions:
  status: ('A' for Active; 'I' for Inactive)
    1  A    between atoms: C_3  and  C_25
    2  A    between atoms: C_7  and  C_11
    3  A    between atoms: C_8  and  C_18
    4  A    between atoms: C_18  and  C_30
                            x       y       z     vdW  Elec       q    Type
                         _______ _______ _______ _____ _____    ______ ____

>  <TORSDO>
F 4

$$$$
=
 OpenBabel10272415073D

 34 39  0  0  1  0  0  0  0  0999 V2000
  188.7260  178.0060  141.8140 C   0  0  0  0  0  0  0  0  0  0  0  0
  187.4030  177.6640  143.8370 C   0  0  0  0  0  0  0  0  0  0  0  0
  189.7800  177.0160  143.8560 C   0  0  0  0  0  3  0  0  0  0  0  0
  188.3870  178.0340  138.3820 C   0  0  0  0  0  0  0  0  0  0  0  0
  187.7910  178.2340  139.5210 N   0  0  0  0  0  0  0  0  0  0  0  0
  190.0300  177.7240  139.8160 C   0  0  0  0  0  0  0  0  0  0  0  0
  191.1570  177.2380  140.5360 N   0  0  0  0  0  0  0  0  0  0  0  0
  189.8120  177.6560  138.5150 C   0  0  0  0  0  3  0  0  0  0  0  0
  190.0150  177.8060  142.6040 C   0  0  1  0  0  3  0  0  0  0  0  0
  188.8180  178.0600  140.4820 C   0  0  0  0  0  0  0  0  0  0  0  0
  191.1310  177.2390  141.8150 N   0  0  0  0  0  0  0  0  0  0  0  0
  186.1780  177.8030  144.7020 C   0  0  0  0  0  2  0  0  0  0  0  0
  184.9120  178.0890  143.9000 C   0  0  2  0  0  3  0  0  0  0  0  0
  185.1840  179.2140  142.9090 C   0  0  0  0  0  2  0  0  0  0  0  0
  188.5770  176.9940  144.4390 C   0  0  0  0  0  3  0  0  0  0  0  0
  186.2350  178.7490  141.9110 C   0  0  0  0  0  2  0  0  0  0  0  0
  187.4580  178.1610  142.5760 C   0  0  0  0  0  0  0  0  0  0  0  0
  183.7530  178.4140  144.8410 C   0  0  2  0  0  3  0  0  0  0  0  0
  182.6550  179.1620  144.1090 C   0  0  0  0  0  1  0  0  0  0  0  0
  184.1870  179.1620  145.9390 O   0  0  0  0  0  1  0  0  0  0  0  0
  187.6540  178.0580  137.0850 C   0  0  0  0  0  2  0  0  0  0  0  0
  184.3310  176.3070  137.0980 N   0  0  0  0  0  0  0  0  0  0  0  0
  187.0190  175.6370  136.9850 C   0  0  0  0  0  3  0  0  0  0  0  0
  184.0670  172.6480  136.9620 C   0  0  0  0  0  0  0  0  0  0  0  0
  183.7040  174.0000  137.0270 C   0  0  0  0  0  3  0  0  0  0  0  0
  184.6850  174.9940  137.0340 C   0  0  0  0  0  0  0  0  0  0  0  0
  186.4150  173.2890  136.9120 C   0  0  0  0  0  3  0  0  0  0  0  0
  186.0480  174.6350  136.9760 C   0  0  0  0  0  0  0  0  0  0  0  0
  185.4260  172.3000  136.9050 C   0  0  0  0  0  3  0  0  0  0  0  0
  186.6280  176.9770  137.0460 C   0  0  0  0  0  0  0  0  0  0  0  0
  185.2680  177.2940  137.1090 C   0  0  0  0  0  3  0  0  0  0  0  0
  183.0290  171.6050  136.9550 C   0  0  0  0  0  0  0  0  0  0  0  0
  183.3060  170.4300  136.5960 O   0  0  0  0  0  0  0  0  0  0  0  0
  181.7300  171.9080  137.3460 O   0  0  0  0  0  1  0  0  0  0  0  0
  1 17  1  0  0  0  0
  1  9  1  0  0  0  0
  2 15  1  0  0  0  0
  2 12  1  0  0  0  0
  3 15  2  0  0  0  0
  4  8  1  0  0  0  0
  4  5  2  0  0  0  0
  5 10  1  0  0  0  0
  6 10  1  0  0  0  0
  6  7  1  0  0  0  0
  7 11  2  0  0  0  0
  8  6  2  0  0  0  0
  9  3  1  1  0  0  0
 10  1  2  0  0  0  0
 11  9  1  0  0  0  0
 13 12  1  0  0  0  0
 13 18  1  1  0  0  0
 14 13  1  0  0  0  0
 16 17  1  0  0  0  0
 16 14  1  0  0  0  0
 17  2  2  0  0  0  0
 18 19  1  6  0  0  0
 18 20  1  0  0  0  0
 21  4  1  0  0  0  0
 22 31  1  0  0  0  0
 23 30  1  0  0  0  0
 24 25  2  0  0  0  0
 25 26  1  0  0  0  0
 26 22  2  0  0  0  0
 27 28  1  0  0  0  0
 28 23  2  0  0  0  0
 28 26  1  0  0  0  0
 29 27  2  0  0  0  0
 29 24  1  0  0  0  0
 30 21  1  0  0  0  0
 30 31  2  0  0  0  0
 32 24  1  0  0  0  0
 32 34  1  0  0  0  0
 33 32  2  0  0  0  0
M  END
>  <MODEL>
6

>  <REMARK>
 VINA RESULT:     -10.3      4.070      6.419
  Name = 
  4 active torsions:
  status: ('A' for Active; 'I' for Inactive)
    1  A    between atoms: C_3  and  C_25
    2  A    between atoms: C_7  and  C_11
    3  A    between atoms: C_8  and  C_18
    4  A    between atoms: C_18  and  C_30
                            x       y       z     vdW  Elec       q    Type
                         _______ _______ _______ _____ _____    ______ ____

>  <TORSDO>
F 4

$$$$
=
 OpenBabel10272415073D

 34 39  0  0  1  0  0  0  0  0999 V2000
  184.9920  178.2050  143.9410 C   0  0  0  0  0  0  0  0  0  0  0  0
  187.0140  178.1290  145.3070 C   0  0  0  0  0  0  0  0  0  0  0  0
  184.9180  178.9110  146.3410 C   0  0  0  0  0  3  0  0  0  0  0  0
  183.9990  178.7190  140.6790 C   0  0  0  0  0  0  0  0  0  0  0  0
  184.9530  178.2990  141.4570 N   0  0  0  0  0  0  0  0  0  0  0  0
  183.0720  178.8900  142.6690 C   0  0  0  0  0  0  0  0  0  0  0  0
  182.3690  179.3210  143.8300 N   0  0  0  0  0  0  0  0  0  0  0  0
  182.7870  179.1560  141.4070 C   0  0  0  0  0  3  0  0  0  0  0  0
  184.1330  178.3520  145.1930 C   0  0  1  0  0  3  0  0  0  0  0  0
  184.3960  178.3760  142.7580 C   0  0  0  0  0  0  0  0  0  0  0  0
  182.8790  179.1080  144.9850 N   0  0  0  0  0  0  0  0  0  0  0  0
  188.4490  177.7750  145.5970 C   0  0  0  0  0  2  0  0  0  0  0  0
  189.2730  177.5460  144.3320 C   0  0  2  0  0  3  0  0  0  0  0  0
  188.5120  176.6180  143.3940 C   0  0  0  0  0  2  0  0  0  0  0  0
  186.2450  178.7630  146.4020 C   0  0  0  0  0  3  0  0  0  0  0  0
  187.2250  177.3050  142.9570 C   0  0  0  0  0  2  0  0  0  0  0  0
  186.4250  177.8500  144.1180 C   0  0  0  0  0  0  0  0  0  0  0  0
  190.6530  177.0010  144.6930 C   0  0  2  0  0  3  0  0  0  0  0  0
  190.8050  176.8670  146.1960 C   0  0  0  0  0  1  0  0  0  0  0  0
  191.6680  177.8160  144.1840 O   0  0  0  0  0  1  0  0  0  0  0  0
  184.1770  178.8620  139.2060 C   0  0  0  0  0  2  0  0  0  0  0  0
  186.5580  176.6710  137.2980 N   0  0  0  0  0  0  0  0  0  0  0  0
  186.6290  178.4140  139.4530 C   0  0  0  0  0  3  0  0  0  0  0  0
  190.1070  176.4200  138.1980 C   0  0  0  0  0  0  0  0  0  0  0  0
  188.8930  176.2120  137.5300 C   0  0  0  0  0  3  0  0  0  0  0  0
  187.7360  176.8750  137.9460 C   0  0  0  0  0  0  0  0  0  0  0  0
  188.9990  177.9670  139.7150 C   0  0  0  0  0  3  0  0  0  0  0  0
  187.7920  177.7580  139.0460 C   0  0  0  0  0  0  0  0  0  0  0  0
  190.1530  177.3000  139.2910 C   0  0  0  0  0  3  0  0  0  0  0  0
  185.4330  178.1910  138.7660 C   0  0  0  0  0  0  0  0  0  0  0  0
  185.4160  177.3030  137.6850 C   0  0  0  0  0  3  0  0  0  0  0  0
  191.3220  175.7180  137.7550 C   0  0  0  0  0  0  0  0  0  0  0  0
  191.4240  174.4700  137.8890 O   0  0  0  0  0  1  0  0  0  0  0  0
  192.3730  176.4280  137.1830 O   0  0  0  0  0  0  0  0  0  0  0  0
  1 17  1  0  0  0  0
  1  9  1  0  0  0  0
  2 12  1  0  0  0  0
  2 15  1  0  0  0  0
  3 15  2  0  0  0  0
  4  8  1  0  0  0  0
  4  5  2  0  0  0  0
  5 10  1  0  0  0  0
  6 10  1  0  0  0  0
  6  7  1  0  0  0  0
  7 11  2  0  0  0  0
  8  6  2  0  0  0  0
  9  3  1  1  0  0  0
 10  1  2  0  0  0  0
 11  9  1  0  0  0  0
 13 18  1  1  0  0  0
 13 12  1  0  0  0  0
 14 13  1  0  0  0  0
 16 14  1  0  0  0  0
 16 17  1  0  0  0  0
 17  2  2  0  0  0  0
 18 19  1  1  0  0  0
 20 18  1  0  0  0  0
 21  4  1  0  0  0  0
 22 31  2  0  0  0  0
 22 26  1  0  0  0  0
 24 29  1  0  0  0  0
 25 26  1  0  0  0  0
 25 24  2  0  0  0  0
 26 28  2  0  0  0  0
 28 23  1  0  0  0  0
 28 27  1  0  0  0  0
 29 27  2  0  0  0  0
 30 21  1  0  0  0  0
 30 23  2  0  0  0  0
 31 30  1  0  0  0  0
 32 33  1  0  0  0  0
 32 24  1  0  0  0  0
 34 32  2  0  0  0  0
M  END
>  <MODEL>
7

>  <REMARK>
 VINA RESULT:     -10.3      1.119      1.540
  Name = 
  4 active torsions:
  status: ('A' for Active; 'I' for Inactive)
    1  A    between atoms: C_3  and  C_25
    2  A    between atoms: C_7  and  C_11
    3  A    between atoms: C_8  and  C_18
    4  A    between atoms: C_18  and  C_30
                            x       y       z     vdW  Elec       q    Type
                         _______ _______ _______ _____ _____    ______ ____

>  <TORSDO>
F 4

$$$$
=
 OpenBabel10272415073D

 34 39  0  0  1  0  0  0  0  0999 V2000
  185.1730  178.7460  144.1820 C   0  0  0  0  0  0  0  0  0  0  0  0
  184.0570  178.5860  142.0170 C   0  0  0  0  0  0  0  0  0  0  0  0
  182.6750  178.7930  144.0460 C   0  0  0  0  0  3  0  0  0  0  0  0
  188.0230  177.6690  145.7960 C   0  0  0  0  0  0  0  0  0  0  0  0
  187.4920  177.9810  144.6510 N   0  0  0  0  0  0  0  0  0  0  0  0
  186.0160  178.3460  146.3960 C   0  0  0  0  0  0  0  0  0  0  0  0
  184.7290  178.4880  146.9880 N   0  0  0  0  0  0  0  0  0  0  0  0
  187.1050  177.8380  146.9440 C   0  0  0  0  0  2  0  0  0  0  0  0
  183.8770  179.2200  144.8330 C   0  0  0  0  0  0  0  0  0  0  0  0
  186.1940  178.4400  144.9880 C   0  0  0  0  0  0  0  0  0  0  0  0
  183.7410  178.8510  146.2590 N   0  0  0  0  0  0  0  0  0  0  0  0
  184.0040  178.5570  140.5120 C   0  0  0  0  0  2  0  0  0  0  0  0
  185.3350  178.1650  139.8760 C   0  0  2  0  0  3  0  0  0  0  0  0
  186.4570  178.9790  140.5080 C   0  0  0  0  0  2  0  0  0  0  0  0
  182.7640  178.5450  142.7350 C   0  0  0  0  0  3  0  0  0  0  0  0
  186.5570  178.6200  141.9830 C   0  0  0  0  0  2  0  0  0  0  0  0
  185.2270  178.6870  142.6970 C   0  0  0  0  0  0  0  0  0  0  0  0
  185.2690  178.3460  138.3600 C   0  0  2  0  0  3  0  0  0  0  0  0
  184.6200  177.1440  137.7000 C   0  0  0  0  0  1  0  0  0  0  0  0
  186.5410  178.5550  137.8210 O   0  0  0  0  0  1  0  0  0  0  0  0
  189.3860  177.0750  145.9070 C   0  0  0  0  0  2  0  0  0  0  0  0
  192.0350  177.4630  143.2720 N   0  0  0  0  0  0  0  0  0  0  0  0
  189.3510  176.7850  143.4190 C   0  0  0  0  0  3  0  0  0  0  0  0
  191.3240  176.9140  139.7130 C   0  0  0  0  0  0  0  0  0  0  0  0
  192.0170  177.2130  140.8940 C   0  0  0  0  0  3  0  0  0  0  0  0
  191.3620  177.1700  142.1260 C   0  0  0  0  0  0  0  0  0  0  0  0
  189.3010  176.5260  141.0080 C   0  0  0  0  0  3  0  0  0  0  0  0
  189.9950  176.8240  142.1820 C   0  0  0  0  0  0  0  0  0  0  0  0
  189.9650  176.5700  139.7780 C   0  0  0  0  0  3  0  0  0  0  0  0
  190.0670  177.0840  144.5810 C   0  0  0  0  0  0  0  0  0  0  0  0
  191.4190  177.4300  144.4850 C   0  0  0  0  0  3  0  0  0  0  0  0
  192.0200  176.9620  138.4170 C   0  0  0  0  0  0  0  0  0  0  0  0
  191.3660  176.9710  137.3410 O   0  0  0  0  0  0  0  0  0  0  0  0
  193.4090  176.9970  138.3690 O   0  0  0  0  0  1  0  0  0  0  0  0
  1  9  2  0  0  0  0
  1 10  1  0  0  0  0
  2 17  2  0  0  0  0
  2 15  1  0  0  0  0
  3  9  1  0  0  0  0
  4 21  1  0  0  0  0
  4  8  1  0  0  0  0
  5 10  1  0  0  0  0
  5  4  2  0  0  0  0
  6  8  1  0  0  0  0
  6  7  1  0  0  0  0
  9 11  1  0  0  0  0
 10  6  2  0  0  0  0
 11  7  2  0  0  0  0
 12  2  1  0  0  0  0
 13 18  1  6  0  0  0
 13 14  1  0  0  0  0
 13 12  1  0  0  0  0
 14 16  1  0  0  0  0
 15  3  2  0  0  0  0
 16 17  1  0  0  0  0
 17  1  1  0  0  0  0
 18 19  1  6  0  0  0
 20 18  1  0  0  0  0
 22 31  1  0  0  0  0
 23 30  1  0  0  0  0
 24 29  1  0  0  0  0
 24 25  2  0  0  0  0
 25 26  1  0  0  0  0
 26 28  1  0  0  0  0
 26 22  2  0  0  0  0
 27 28  1  0  0  0  0
 28 23  2  0  0  0  0
 29 27  2  0  0  0  0
 30 21  1  0  0  0  0
 31 30  2  0  0  0  0
 32 24  1  0  0  0  0
 33 32  2  0  0  0  0
 34 32  1  0  0  0  0
M  END
>  <MODEL>
8

>  <REMARK>
 VINA RESULT:     -10.2      2.194      5.275
  Name = 
  4 active torsions:
  status: ('A' for Active; 'I' for Inactive)
    1  A    between atoms: C_3  and  C_25
    2  A    between atoms: C_7  and  C_11
    3  A    between atoms: C_8  and  C_18
    4  A    between atoms: C_18  and  C_30
                            x       y       z     vdW  Elec       q    Type
                         _______ _______ _______ _____ _____    ______ ____

>  <TORSDO>
F 4

$$$$
=
 OpenBabel10272415073D

 34 39  0  0  1  0  0  0  0  0999 V2000
  189.1520  177.8360  142.5620 C   0  0  0  0  0  0  0  0  0  0  0  0
  187.5220  177.7630  144.3780 C   0  0  0  0  0  0  0  0  0  0  0  0
  189.8850  177.2880  144.8920 C   0  0  0  0  0  3  0  0  0  0  0  0
  189.3930  177.2440  139.1740 C   0  0  0  0  0  0  0  0  0  0  0  0
  188.6070  177.5990  140.1480 N   0  0  0  0  0  0  0  0  0  0  0  0
  190.7820  177.2990  140.8810 C   0  0  0  0  0  0  0  0  0  0  0  0
  191.7900  177.0210  141.8470 N   0  0  0  0  0  0  0  0  0  0  0  0
  190.7890  176.9920  139.5970 C   0  0  0  0  0  3  0  0  0  0  0  0
  190.2970  177.8640  143.5700 C   0  0  1  0  0  3  0  0  0  0  0  0
  189.4640  177.6630  141.2750 C   0  0  0  0  0  0  0  0  0  0  0  0
  191.5490  177.2440  143.0850 N   0  0  0  0  0  0  0  0  0  0  0  0
  186.1650  177.9680  144.9990 C   0  0  0  0  0  2  0  0  0  0  0  0
  185.0410  178.0260  143.9670 C   0  0  2  0  0  3  0  0  0  0  0  0
  185.4340  178.9760  142.8440 C   0  0  0  0  0  2  0  0  0  0  0  0
  188.6030  177.2880  145.2710 C   0  0  0  0  0  3  0  0  0  0  0  0
  186.6540  178.4160  142.1270 C   0  0  0  0  0  2  0  0  0  0  0  0
  187.7700  178.0360  143.0730 C   0  0  0  0  0  0  0  0  0  0  0  0
  183.7300  178.4310  144.6380 C   0  0  2  0  0  3  0  0  0  0  0  0
  182.8640  179.2360  143.6880 C   0  0  0  0  0  1  0  0  0  0  0  0
  183.9640  179.1630  145.8050 O   0  0  0  0  0  1  0  0  0  0  0  0
  188.8880  176.9930  137.7940 C   0  0  0  0  0  2  0  0  0  0  0  0
  185.3040  176.2270  136.9710 N   0  0  0  0  0  0  0  0  0  0  0  0
  186.7320  178.0910  138.4430 C   0  0  0  0  0  3  0  0  0  0  0  0
  182.5400  178.2840  138.2370 C   0  0  0  0  0  0  0  0  0  0  0  0
  183.2360  177.2720  137.5610 C   0  0  0  0  0  3  0  0  0  0  0  0
  184.6300  177.2080  137.6290 C   0  0  0  0  0  0  0  0  0  0  0  0
  184.6510  179.1760  139.0580 C   0  0  0  0  0  3  0  0  0  0  0  0
  185.3400  178.1660  138.3840 C   0  0  0  0  0  0  0  0  0  0  0  0
  183.2550  179.2330  138.9850 C   0  0  0  0  0  3  0  0  0  0  0  0
  187.4000  177.0700  137.7630 C   0  0  0  0  0  0  0  0  0  0  0  0
  186.6620  176.1420  137.0200 C   0  0  0  0  0  3  0  0  0  0  0  0
  181.0730  178.3470  138.1610 C   0  0  0  0  0  0  0  0  0  0  0  0
  180.4900  179.4440  137.9510 O   0  0  0  0  0  0  0  0  0  0  0  0
  180.3120  177.1940  138.3190 O   0  0  0  0  0  1  0  0  0  0  0  0
  1 17  1  0  0  0  0
  1  9  1  0  0  0  0
  2 12  1  0  0  0  0
  2 15  1  0  0  0  0
  3 15  2  0  0  0  0
  4  8  1  0  0  0  0
  4  5  2  0  0  0  0
  5 10  1  0  0  0  0
  6 10  1  0  0  0  0
  6  7  1  0  0  0  0
  7 11  2  0  0  0  0
  8  6  2  0  0  0  0
  9  3  1  1  0  0  0
 10  1  2  0  0  0  0
 11  9  1  0  0  0  0
 13 18  1  1  0  0  0
 13 12  1  0  0  0  0
 14 13  1  0  0  0  0
 16 14  1  0  0  0  0
 16 17  1  0  0  0  0
 17  2  2  0  0  0  0
 18 19  1  6  0  0  0
 18 20  1  0  0  0  0
 21  4  1  0  0  0  0
 22 31  2  0  0  0  0
 22 26  1  0  0  0  0
 24 29  1  0  0  0  0
 25 26  1  0  0  0  0
 25 24  2  0  0  0  0
 26 28  2  0  0  0  0
 28 23  1  0  0  0  0
 28 27  1  0  0  0  0
 29 27  2  0  0  0  0
 30 21  1  0  0  0  0
 30 23  2  0  0  0  0
 31 30  1  0  0  0  0
 32 24  1  0  0  0  0
 32 34  1  0  0  0  0
 33 32  2  0  0  0  0
M  END
>  <MODEL>
9

>  <REMARK>
 VINA RESULT:      -9.9      4.015      6.483
  Name = 
  4 active torsions:
  status: ('A' for Active; 'I' for Inactive)
    1  A    between atoms: C_3  and  C_25
    2  A    between atoms: C_7  and  C_11
    3  A    between atoms: C_8  and  C_18
    4  A    between atoms: C_18  and  C_30
                            x       y       z     vdW  Elec       q    Type
                         _______ _______ _______ _____ _____    ______ ____

>  <TORSDO>
F 4

$$$$
