=
 OpenBabel10272414143D

 43 46  0  0  1  0  0  0  0  0999 V2000
  186.5690  178.2510  137.8900 C   0  0  1  0  0  3  0  0  0  0  0  0
  190.2350  178.1780  138.8860 C   0  0  0  0  0  3  0  0  0  0  0  0
  190.1790  177.6020  140.1580 C   0  0  0  0  0  0  0  0  0  0  0  0
  188.8100  176.6650  142.0840 C   0  0  0  0  0  2  0  0  0  0  0  0
  189.0670  178.4020  138.1550 C   0  0  0  0  0  0  0  0  0  0  0  0
  191.4710  177.3030  140.8660 C   0  0  0  0  0  2  0  0  0  0  0  0
  187.7640  177.4630  139.9690 C   0  0  0  0  0  3  0  0  0  0  0  0
  189.1520  178.9820  136.8940 O   0  0  0  0  0  1  0  0  0  0  0  0
  191.2950  177.0100  142.3600 C   0  0  2  0  0  3  0  0  0  0  0  0
  187.8220  178.0330  138.6890 C   0  0  0  0  0  0  0  0  0  0  0  0
  190.1210  176.0590  142.5830 C   0  0  0  0  0  2  0  0  0  0  0  0
  188.9310  177.2250  140.6970 C   0  0  0  0  0  0  0  0  0  0  0  0
  191.1330  178.2900  143.1730 C   0  0  0  0  0  2  0  0  0  0  0  0
  191.2760  177.9980  144.6540 C   0  0  0  0  0  2  0  0  0  0  0  0
  189.9250  178.1360  145.3260 C   0  0  0  0  0  2  0  0  0  0  0  0
  189.8740  177.1100  146.8230 S   0  0  0  0  0  0  0  0  0  0  0  0
  188.1840  177.6340  147.2320 C   0  0  0  0  0  2  0  0  0  0  0  0
  188.1060  177.9840  148.7020 C   0  0  0  0  0  1  0  0  0  0  0  0
  186.6120  177.5240  136.5730 C   0  0  0  0  0  0  0  0  0  0  0  0
  186.7370  178.1420  135.5250 O   0  0  0  0  0  0  0  0  0  0  0  0
  186.3950  176.0370  136.5570 C   0  0  1  0  0  3  0  0  0  0  0  0
  182.4730  175.1970  134.9760 C   0  0  0  0  0  0  0  0  0  0  0  0
  184.2610  174.6750  136.5250 C   0  0  0  0  0  0  0  0  0  0  0  0
  183.2390  176.2300  134.4330 C   0  0  0  0  0  3  0  0  0  0  0  0
  180.8720  174.8730  134.3470 Cl  0  0  0  0  0  0  0  0  0  0  0  0
  185.0370  175.7170  135.9860 C   0  0  0  0  0  0  0  0  0  0  0  0
  182.9840  174.4210  136.0180 C   0  0  0  0  0  3  0  0  0  0  0  0
  184.5150  176.4920  134.9370 C   0  0  0  0  0  3  0  0  0  0  0  0
  184.8570  173.6670  137.8350 Cl  0  0  0  0  0  0  0  0  0  0  0  0
  187.5460  175.2610  135.8820 C   0  0  0  0  0  3  0  0  0  0  0  0
  188.5280  174.6980  136.9050 C   0  0  0  0  0  2  0  0  0  0  0  0
  189.9170  175.2530  136.6540 C   0  0  0  0  0  1  0  0  0  0  0  0
  187.4190  172.7560  135.4810 C   0  0  0  0  0  1  0  0  0  0  0  0
  187.0420  174.1380  134.9700 C   0  0  0  0  0  2  0  0  0  0  0  0
  185.3210  177.9330  138.7120 C   0  0  0  0  0  2  0  0  0  0  0  0
  181.7470  178.4820  137.4100 C   0  0  0  0  0  2  0  0  0  0  0  0
  181.3140  179.6360  138.3220 C   0  0  1  0  0  0  0  0  0  0  0  0
  180.3480  180.3730  137.6660 F   0  0  0  0  0  0  0  0  0  0  0  0
  183.6950  179.7800  139.1830 C   0  0  0  0  0  2  0  0  0  0  0  0
  182.9560  177.7310  137.9710 C   0  0  0  0  0  2  0  0  0  0  0  0
  184.1130  178.6960  138.1920 C   0  0  2  0  0  3  0  0  0  0  0  0
  180.7110  179.0960  139.6080 C   0  0  0  0  0  1  0  0  0  0  0  0
  182.4990  180.5570  138.6330 C   0  0  0  0  0  2  0  0  0  0  0  0
  1 10  1  0  0  0  0
  1 35  1  1  0  0  0
  2  3  1  0  0  0  0
  3 12  2  0  0  0  0
  3  6  1  0  0  0  0
  4 11  1  0  0  0  0
  5 10  1  0  0  0  0
  5  2  2  0  0  0  0
  6  9  1  0  0  0  0
  7 12  1  0  0  0  0
  8  5  1  0  0  0  0
  9 11  1  0  0  0  0
  9 13  1  1  0  0  0
 10  7  2  0  0  0  0
 12  4  1  0  0  0  0
 13 14  1  0  0  0  0
 14 15  1  0  0  0  0
 15 16  1  0  0  0  0
 16 17  1  0  0  0  0
 17 18  1  0  0  0  0
 19  1  1  0  0  0  0
 20 19  2  0  0  0  0
 21 30  1  6  0  0  0
 21 19  1  0  0  0  0
 22 27  1  0  0  0  0
 23 29  1  0  0  0  0
 24 28  1  0  0  0  0
 24 22  2  0  0  0  0
 25 22  1  0  0  0  0
 26 23  1  0  0  0  0
 26 21  1  0  0  0  0
 27 23  2  0  0  0  0
 28 26  2  0  0  0  0
 30 31  1  0  0  0  0
 32 31  1  0  0  0  0
 34 33  1  0  0  0  0
 34 30  1  0  0  0  0
 36 40  1  0  0  0  0
 36 37  1  0  0  0  0
 37 43  1  0  0  0  0
 37 42  1  1  0  0  0
 38 37  1  0  0  0  0
 40 41  1  0  0  0  0
 41 35  1  1  0  0  0
 41 39  1  0  0  0  0
 43 39  1  0  0  0  0
M  END
>  <MODEL>
1

>  <REMARK>
 VINA RESULT:      -6.0      0.000      0.000
  Name = 
  14 active torsions:
  status: ('A' for Active; 'I' for Inactive)
    1  A    between atoms: C_1  and  C_34
    2  A    between atoms: C_1  and  C_35
    3  A    between atoms: C_2  and  C_27
    4  A    between atoms: C_8  and  C_30
    5  A    between atoms: C_8  and  C_34
    6  A    between atoms: C_11  and  C_22
    7  A    between atoms: C_11  and  C_36
    8  A    between atoms: C_13  and  C_27
    9  A    between atoms: C_21  and  C_30
   10  A    between atoms: C_26  and  S_31
   11  A    between atoms: C_27  and  C_30
   12  A    between atoms: C_29  and  S_31
   13  A    between atoms: C_29  and  C_36
   14  A    between atoms: C_34  and  C_38
                            x       y       z     vdW  Elec       q    Type
                         _______ _______ _______ _____ _____    ______ ____

>  <TORSDO>
F 14

$$$$
=
 OpenBabel10272414143D

 43 46  0  0  1  0  0  0  0  0999 V2000
  187.8310  178.6370  140.7730 C   0  0  1  0  0  3  0  0  0  0  0  0
  184.0960  179.0650  141.3270 C   0  0  0  0  0  3  0  0  0  0  0  0
  183.5760  178.7090  140.0800 C   0  0  0  0  0  0  0  0  0  0  0  0
  183.9480  177.9910  137.6700 C   0  0  0  0  0  2  0  0  0  0  0  0
  185.4750  179.0560  141.5500 C   0  0  0  0  0  0  0  0  0  0  0  0
  182.0810  178.6520  139.9180 C   0  0  0  0  0  2  0  0  0  0  0  0
  185.8290  178.3230  139.2680 C   0  0  0  0  0  3  0  0  0  0  0  0
  185.9650  179.4210  142.7990 O   0  0  0  0  0  1  0  0  0  0  0  0
  181.6270  178.6010  138.4550 C   0  0  2  0  0  3  0  0  0  0  0  0
  186.3510  178.6720  140.5230 C   0  0  0  0  0  0  0  0  0  0  0  0
  182.4710  177.5980  137.6690 C   0  0  0  0  0  2  0  0  0  0  0  0
  184.4510  178.3180  139.0450 C   0  0  0  0  0  0  0  0  0  0  0  0
  181.6570  179.9790  137.8040 C   0  0  0  0  0  2  0  0  0  0  0  0
  181.2120  181.0400  138.7920 C   0  0  0  0  0  2  0  0  0  0  0  0
  180.9610  182.3400  138.0550 C   0  0  0  0  0  2  0  0  0  0  0  0
  180.1600  182.0020  136.4620 S   0  0  0  0  0  0  0  0  0  0  0  0
  180.9080  183.4580  135.6760 C   0  0  0  0  0  2  0  0  0  0  0  0
  181.2300  184.4910  136.7320 C   0  0  0  0  0  1  0  0  0  0  0  0
  188.2140  177.5240  141.7100 C   0  0  0  0  0  0  0  0  0  0  0  0
  187.4940  176.5430  141.8390 O   0  0  0  0  0  0  0  0  0  0  0  0
  189.4440  177.6810  142.5610 C   0  0  1  0  0  3  0  0  0  0  0  0
  188.3020  177.7730  146.7170 C   0  0  0  0  0  0  0  0  0  0  0  0
  189.8830  178.3300  144.9680 C   0  0  0  0  0  0  0  0  0  0  0  0
  187.4880  177.1290  145.7820 C   0  0  0  0  0  3  0  0  0  0  0  0
  187.8250  177.8270  148.4000 Cl  0  0  0  0  0  0  0  0  0  0  0  0
  189.0660  177.6870  144.0200 C   0  0  0  0  0  0  0  0  0  0  0  0
  189.4960  178.3700  146.3100 C   0  0  0  0  0  3  0  0  0  0  0  0
  187.8660  177.0880  144.4390 C   0  0  0  0  0  3  0  0  0  0  0  0
  191.3970  179.0950  144.5100 Cl  0  0  0  0  0  0  0  0  0  0  0  0
  190.5560  176.6690  142.2150 C   0  0  0  0  0  3  0  0  0  0  0  0
  191.9330  177.3240  142.1930 C   0  0  0  0  0  2  0  0  0  0  0  0
  192.3540  177.6050  140.7630 C   0  0  0  0  0  1  0  0  0  0  0  0
  191.8270  175.4000  144.0130 C   0  0  0  0  0  1  0  0  0  0  0  0
  190.5670  175.4640  143.1610 C   0  0  0  0  0  2  0  0  0  0  0  0
  188.6180  178.6200  139.4640 C   0  0  0  0  0  2  0  0  0  0  0  0
  188.1670  175.4410  137.3520 C   0  0  0  0  0  2  0  0  0  0  0  0
  189.6300  175.1630  136.9880 C   0  0  1  0  0  0  0  0  0  0  0  0
  189.7750  173.8070  136.7660 F   0  0  0  0  0  0  0  0  0  0  0  0
  190.3230  177.0110  138.5790 C   0  0  0  0  0  2  0  0  0  0  0  0
  187.9550  176.8850  137.8100 C   0  0  0  0  0  2  0  0  0  0  0  0
  188.8650  177.1950  138.9910 C   0  0  2  0  0  3  0  0  0  0  0  0
  190.0070  175.8980  135.7130 C   0  0  0  0  0  1  0  0  0  0  0  0
  190.5620  175.5690  138.1350 C   0  0  0  0  0  2  0  0  0  0  0  0
  1 35  1  6  0  0  0
  1 19  1  0  0  0  0
  2  5  1  0  0  0  0
  3  2  2  0  0  0  0
  4 12  1  0  0  0  0
  5  8  1  0  0  0  0
  6  3  1  0  0  0  0
  7 10  1  0  0  0  0
  9 13  1  6  0  0  0
  9  6  1  0  0  0  0
 10  1  1  0  0  0  0
 10  5  2  0  0  0  0
 11  4  1  0  0  0  0
 11  9  1  0  0  0  0
 12  7  2  0  0  0  0
 12  3  1  0  0  0  0
 13 14  1  0  0  0  0
 15 14  1  0  0  0  0
 16 15  1  0  0  0  0
 17 16  1  0  0  0  0
 17 18  1  0  0  0  0
 19 20  2  0  0  0  0
 21 19  1  6  0  0  0
 21 26  1  0  0  0  0
 22 25  1  0  0  0  0
 23 27  2  0  0  0  0
 24 22  2  0  0  0  0
 26 28  2  0  0  0  0
 26 23  1  0  0  0  0
 27 22  1  0  0  0  0
 28 24  1  0  0  0  0
 29 23  1  0  0  0  0
 30 21  1  0  0  0  0
 30 34  1  0  0  0  0
 31 30  1  0  0  0  0
 32 31  1  0  0  0  0
 34 33  1  0  0  0  0
 36 40  1  0  0  0  0
 37 42  1  6  0  0  0
 37 36  1  0  0  0  0
 37 43  1  0  0  0  0
 38 37  1  0  0  0  0
 39 41  1  0  0  0  0
 40 41  1  0  0  0  0
 41 35  1  6  0  0  0
 43 39  1  0  0  0  0
M  END
>  <MODEL>
2

>  <REMARK>
 VINA RESULT:      -5.6      4.628      9.418
  Name = 
  14 active torsions:
  status: ('A' for Active; 'I' for Inactive)
    1  A    between atoms: C_1  and  C_34
    2  A    between atoms: C_1  and  C_35
    3  A    between atoms: C_2  and  C_27
    4  A    between atoms: C_8  and  C_30
    5  A    between atoms: C_8  and  C_34
    6  A    between atoms: C_11  and  C_22
    7  A    between atoms: C_11  and  C_36
    8  A    between atoms: C_13  and  C_27
    9  A    between atoms: C_21  and  C_30
   10  A    between atoms: C_26  and  S_31
   11  A    between atoms: C_27  and  C_30
   12  A    between atoms: C_29  and  S_31
   13  A    between atoms: C_29  and  C_36
   14  A    between atoms: C_34  and  C_38
                            x       y       z     vdW  Elec       q    Type
                         _______ _______ _______ _____ _____    ______ ____

>  <TORSDO>
F 14

$$$$
=
 OpenBabel10272414143D

 43 46  0  0  1  0  0  0  0  0999 V2000
  189.1410  176.2580  137.8370 C   0  0  1  0  0  3  0  0  0  0  0  0
  188.9190  178.7070  140.7340 C   0  0  0  0  0  3  0  0  0  0  0  0
  189.5600  178.0050  141.7570 C   0  0  0  0  0  0  0  0  0  0  0  0
  190.7180  175.8970  142.5820 C   0  0  0  0  0  2  0  0  0  0  0  0
  188.7690  178.1380  139.4670 C   0  0  0  0  0  0  0  0  0  0  0  0
  189.7720  178.6960  143.0760 C   0  0  0  0  0  2  0  0  0  0  0  0
  189.9160  176.1480  140.2370 C   0  0  0  0  0  3  0  0  0  0  0  0
  188.1210  178.8580  138.4690 O   0  0  0  0  0  1  0  0  0  0  0  0
  190.1550  177.7410  144.2120 C   0  0  2  0  0  3  0  0  0  0  0  0
  189.2800  176.8570  139.2070 C   0  0  0  0  0  0  0  0  0  0  0  0
  191.2220  176.7540  143.7420 C   0  0  0  0  0  2  0  0  0  0  0  0
  190.0790  176.7180  141.5000 C   0  0  0  0  0  0  0  0  0  0  0  0
  188.9380  177.0140  144.7750 C   0  0  0  0  0  2  0  0  0  0  0  0
  187.7650  177.9660  144.9010 C   0  0  0  0  0  2  0  0  0  0  0  0
  186.7240  177.3630  145.8230 C   0  0  0  0  0  2  0  0  0  0  0  0
  185.6280  178.6660  146.4510 S   0  0  0  0  0  0  0  0  0  0  0  0
  184.9440  179.0090  144.8050 C   0  0  0  0  0  2  0  0  0  0  0  0
  183.4380  178.8680  144.8440 C   0  0  0  0  0  1  0  0  0  0  0  0
  190.3240  175.4000  137.4790 C   0  0  0  0  0  0  0  0  0  0  0  0
  190.4600  174.2890  137.9730 O   0  0  0  0  0  0  0  0  0  0  0  0
  191.3890  175.9690  136.5850 C   0  0  1  0  0  3  0  0  0  0  0  0
  195.1330  174.0170  137.4580 C   0  0  0  0  0  0  0  0  0  0  0  0
  193.4660  175.6880  138.0050 C   0  0  0  0  0  0  0  0  0  0  0  0
  194.3940  173.6420  136.3330 C   0  0  0  0  0  3  0  0  0  0  0  0
  196.6410  173.2070  137.8210 Cl  0  0  0  0  0  0  0  0  0  0  0  0
  192.7150  175.3130  136.8750 C   0  0  0  0  0  0  0  0  0  0  0  0
  194.6700  175.0380  138.2890 C   0  0  0  0  0  3  0  0  0  0  0  0
  193.1890  174.2850  136.0440 C   0  0  0  0  0  3  0  0  0  0  0  0
  192.9320  176.9690  139.0820 Cl  0  0  0  0  0  0  0  0  0  0  0  0
  191.0050  175.9470  135.0910 C   0  0  0  0  0  3  0  0  0  0  0  0
  189.9070  174.9290  134.8010 C   0  0  0  0  0  2  0  0  0  0  0  0
  190.5190  173.6120  134.3630 C   0  0  0  0  0  1  0  0  0  0  0  0
  189.0870  177.4370  134.3460 C   0  0  0  0  0  1  0  0  0  0  0  0
  190.5880  177.3270  134.5710 C   0  0  0  0  0  2  0  0  0  0  0  0
  187.8040  175.5350  137.6770 C   0  0  0  0  0  2  0  0  0  0  0  0
  185.5530  176.0670  134.6080 C   0  0  0  0  0  2  0  0  0  0  0  0
  184.3430  176.7210  135.2850 C   0  0  1  0  0  0  0  0  0  0  0  0
  183.7020  177.5200  134.3580 F   0  0  0  0  0  0  0  0  0  0  0  0
  185.6770  176.8380  137.4390 C   0  0  0  0  0  2  0  0  0  0  0  0
  186.4370  175.3230  135.6100 C   0  0  0  0  0  2  0  0  0  0  0  0
  186.8940  176.2740  136.7090 C   0  0  2  0  0  3  0  0  0  0  0  0
  183.3630  175.6610  135.7600 C   0  0  0  0  0  1  0  0  0  0  0  0
  184.7880  177.6020  136.4590 C   0  0  0  0  0  2  0  0  0  0  0  0
  1 35  1  1  0  0  0
  1 10  1  0  0  0  0
  2  3  1  0  0  0  0
  3  6  1  0  0  0  0
  4 11  1  0  0  0  0
  5  2  2  0  0  0  0
  6  9  1  0  0  0  0
  7 12  1  0  0  0  0
  8  5  1  0  0  0  0
  9 13  1  6  0  0  0
 10  5  1  0  0  0  0
 10  7  2  0  0  0  0
 11  9  1  0  0  0  0
 12  3  2  0  0  0  0
 12  4  1  0  0  0  0
 13 14  1  0  0  0  0
 14 15  1  0  0  0  0
 15 16  1  0  0  0  0
 17 18  1  0  0  0  0
 17 16  1  0  0  0  0
 19  1  1  0  0  0  0
 19 20  2  0  0  0  0
 21 30  1  6  0  0  0
 21 26  1  0  0  0  0
 21 19  1  0  0  0  0
 22 25  1  0  0  0  0
 22 27  1  0  0  0  0
 23 27  2  0  0  0  0
 23 29  1  0  0  0  0
 24 22  2  0  0  0  0
 26 23  1  0  0  0  0
 28 24  1  0  0  0  0
 28 26  2  0  0  0  0
 31 30  1  0  0  0  0
 32 31  1  0  0  0  0
 33 34  1  0  0  0  0
 34 30  1  0  0  0  0
 36 37  1  0  0  0  0
 36 40  1  0  0  0  0
 37 42  1  1  0  0  0
 37 43  1  0  0  0  0
 38 37  1  0  0  0  0
 40 41  1  0  0  0  0
 41 39  1  0  0  0  0
 41 35  1  1  0  0  0
 43 39  1  0  0  0  0
M  END
>  <MODEL>
3

>  <REMARK>
 VINA RESULT:      -5.6      3.528      5.993
  Name = 
  14 active torsions:
  status: ('A' for Active; 'I' for Inactive)
    1  A    between atoms: C_1  and  C_34
    2  A    between atoms: C_1  and  C_35
    3  A    between atoms: C_2  and  C_27
    4  A    between atoms: C_8  and  C_30
    5  A    between atoms: C_8  and  C_34
    6  A    between atoms: C_11  and  C_22
    7  A    between atoms: C_11  and  C_36
    8  A    between atoms: C_13  and  C_27
    9  A    between atoms: C_21  and  C_30
   10  A    between atoms: C_26  and  S_31
   11  A    between atoms: C_27  and  C_30
   12  A    between atoms: C_29  and  S_31
   13  A    between atoms: C_29  and  C_36
   14  A    between atoms: C_34  and  C_38
                            x       y       z     vdW  Elec       q    Type
                         _______ _______ _______ _____ _____    ______ ____

>  <TORSDO>
F 14

$$$$
=
 OpenBabel10272414143D

 43 46  0  0  1  0  0  0  0  0999 V2000
  190.0010  177.3860  139.6280 C   0  0  1  0  0  3  0  0  0  0  0  0
  193.3270  176.3090  138.1390 C   0  0  0  0  0  3  0  0  0  0  0  0
  192.9410  175.2680  137.2910 C   0  0  0  0  0  0  0  0  0  0  0  0
  191.1210  173.7630  136.3500 C   0  0  0  0  0  2  0  0  0  0  0  0
  192.3790  176.9880  138.9080 C   0  0  0  0  0  0  0  0  0  0  0  0
  193.9890  174.6290  136.4210 C   0  0  0  0  0  2  0  0  0  0  0  0
  190.6360  175.5870  137.9750 C   0  0  0  0  0  3  0  0  0  0  0  0
  192.7910  178.0150  139.7490 O   0  0  0  0  0  1  0  0  0  0  0  0
  193.5430  173.2970  135.8070 C   0  0  2  0  0  3  0  0  0  0  0  0
  191.0220  176.6370  138.8200 C   0  0  0  0  0  0  0  0  0  0  0  0
  192.1240  173.4140  135.2510 C   0  0  0  0  0  2  0  0  0  0  0  0
  191.5790  174.9150  137.1950 C   0  0  0  0  0  0  0  0  0  0  0  0
  193.6540  172.1490  136.8040 C   0  0  0  0  0  2  0  0  0  0  0  0
  195.0340  171.5250  136.7400 C   0  0  0  0  0  2  0  0  0  0  0  0
  195.8930  172.0890  137.8550 C   0  0  0  0  0  2  0  0  0  0  0  0
  197.3820  172.8580  137.1570 S   0  0  0  0  0  0  0  0  0  0  0  0
  197.2780  174.2840  138.2760 C   0  0  0  0  0  2  0  0  0  0  0  0
  196.0940  174.1130  139.2030 C   0  0  0  0  0  1  0  0  0  0  0  0
  189.0120  178.1060  138.7520 C   0  0  0  0  0  0  0  0  0  0  0  0
  189.1180  179.3080  138.5520 O   0  0  0  0  0  0  0  0  0  0  0  0
  187.8340  177.3460  138.2090 C   0  0  1  0  0  3  0  0  0  0  0  0
  184.1440  178.9350  139.7720 C   0  0  0  0  0  0  0  0  0  0  0  0
  185.4000  177.9820  137.9320 C   0  0  0  0  0  0  0  0  0  0  0  0
  185.2840  178.8910  140.5780 C   0  0  0  0  0  3  0  0  0  0  0  0
  182.6420  179.5600  140.4170 Cl  0  0  0  0  0  0  0  0  0  0  0  0
  186.5510  177.9320  138.7390 C   0  0  0  0  0  0  0  0  0  0  0  0
  184.2040  178.4830  138.4530 C   0  0  0  0  0  3  0  0  0  0  0  0
  186.4820  178.3890  140.0660 C   0  0  0  0  0  3  0  0  0  0  0  0
  185.4200  177.4300  136.2640 Cl  0  0  0  0  0  0  0  0  0  0  0  0
  187.8580  177.2040  136.6730 C   0  0  0  0  0  3  0  0  0  0  0  0
  188.9790  178.0250  136.0430 C   0  0  0  0  0  2  0  0  0  0  0  0
  189.5190  177.3160  134.8150 C   0  0  0  0  0  1  0  0  0  0  0  0
  187.3090  174.7800  137.1980 C   0  0  0  0  0  1  0  0  0  0  0  0
  187.9630  175.7440  136.2200 C   0  0  0  0  0  2  0  0  0  0  0  0
  189.3370  176.4800  140.6640 C   0  0  0  0  0  2  0  0  0  0  0  0
  188.6390  176.8830  144.4220 C   0  0  0  0  0  2  0  0  0  0  0  0
  189.9050  177.6380  144.8410 C   0  0  1  0  0  0  0  0  0  0  0  0
  189.6130  178.3940  145.9600 F   0  0  0  0  0  0  0  0  0  0  0  0
  190.5230  177.8540  142.3910 C   0  0  0  0  0  2  0  0  0  0  0  0
  188.8110  176.1770  143.0760 C   0  0  0  0  0  2  0  0  0  0  0  0
  189.2060  177.1850  142.0060 C   0  0  2  0  0  3  0  0  0  0  0  0
  191.0110  176.6600  145.2010 C   0  0  0  0  0  1  0  0  0  0  0  0
  190.3680  178.5820  143.7260 C   0  0  0  0  0  2  0  0  0  0  0  0
  1 35  1  1  0  0  0
  2  5  1  0  0  0  0
  3  2  2  0  0  0  0
  4 12  1  0  0  0  0
  5  8  1  0  0  0  0
  6  3  1  0  0  0  0
  7 10  1  0  0  0  0
  9  6  1  0  0  0  0
  9 13  1  1  0  0  0
 10  5  2  0  0  0  0
 10  1  1  0  0  0  0
 11  9  1  0  0  0  0
 11  4  1  0  0  0  0
 12  3  1  0  0  0  0
 12  7  2  0  0  0  0
 14 13  1  0  0  0  0
 14 15  1  0  0  0  0
 16 15  1  0  0  0  0
 16 17  1  0  0  0  0
 17 18  1  0  0  0  0
 19  1  1  0  0  0  0
 20 19  2  0  0  0  0
 21 30  1  6  0  0  0
 21 26  1  0  0  0  0
 21 19  1  0  0  0  0
 22 25  1  0  0  0  0
 22 24  1  0  0  0  0
 23 27  1  0  0  0  0
 23 26  2  0  0  0  0
 26 28  1  0  0  0  0
 27 22  2  0  0  0  0
 28 24  2  0  0  0  0
 29 23  1  0  0  0  0
 31 30  1  0  0  0  0
 32 31  1  0  0  0  0
 34 30  1  0  0  0  0
 34 33  1  0  0  0  0
 36 37  1  0  0  0  0
 37 42  1  1  0  0  0
 37 38  1  0  0  0  0
 39 43  1  0  0  0  0
 40 36  1  0  0  0  0
 41 35  1  6  0  0  0
 41 39  1  0  0  0  0
 41 40  1  0  0  0  0
 43 37  1  0  0  0  0
M  END
>  <MODEL>
4

>  <REMARK>
 VINA RESULT:      -5.5      4.125      7.335
  Name = 
  14 active torsions:
  status: ('A' for Active; 'I' for Inactive)
    1  A    between atoms: C_1  and  C_34
    2  A    between atoms: C_1  and  C_35
    3  A    between atoms: C_2  and  C_27
    4  A    between atoms: C_8  and  C_30
    5  A    between atoms: C_8  and  C_34
    6  A    between atoms: C_11  and  C_22
    7  A    between atoms: C_11  and  C_36
    8  A    between atoms: C_13  and  C_27
    9  A    between atoms: C_21  and  C_30
   10  A    between atoms: C_26  and  S_31
   11  A    between atoms: C_27  and  C_30
   12  A    between atoms: C_29  and  S_31
   13  A    between atoms: C_29  and  C_36
   14  A    between atoms: C_34  and  C_38
                            x       y       z     vdW  Elec       q    Type
                         _______ _______ _______ _____ _____    ______ ____

>  <TORSDO>
F 14

$$$$
=
 OpenBabel10272414143D

 43 46  0  0  1  0  0  0  0  0999 V2000
  187.6310  178.3050  141.1290 C   0  0  1  0  0  3  0  0  0  0  0  0
  188.7580  177.9760  137.5150 C   0  0  0  0  0  3  0  0  0  0  0  0
  187.5540  177.7090  136.8590 C   0  0  0  0  0  0  0  0  0  0  0  0
  185.0470  177.2930  136.9540 C   0  0  0  0  0  2  0  0  0  0  0  0
  188.7880  178.1560  138.9000 C   0  0  0  0  0  0  0  0  0  0  0  0
  187.5630  177.6090  135.3580 C   0  0  0  0  0  2  0  0  0  0  0  0
  186.3920  177.8090  138.9870 C   0  0  0  0  0  3  0  0  0  0  0  0
  190.0020  178.4140  139.5280 O   0  0  0  0  0  1  0  0  0  0  0  0
  186.2920  176.9780  134.7800 C   0  0  2  0  0  3  0  0  0  0  0  0
  187.6000  178.0850  139.6440 C   0  0  0  0  0  0  0  0  0  0  0  0
  185.0510  177.5660  135.4510 C   0  0  0  0  0  2  0  0  0  0  0  0
  186.3550  177.6420  137.6020 C   0  0  0  0  0  0  0  0  0  0  0  0
  186.3130  175.4580  134.8930 C   0  0  0  0  0  2  0  0  0  0  0  0
  187.7410  174.9490  134.9020 C   0  0  0  0  0  2  0  0  0  0  0  0
  187.9390  174.0260  136.0870 C   0  0  0  0  0  2  0  0  0  0  0  0
  186.8180  172.6040  135.9560 S   0  0  0  0  0  0  0  0  0  0  0  0
  185.9730  173.0130  137.5100 C   0  0  0  0  0  2  0  0  0  0  0  0
  184.4830  172.8060  137.3440 C   0  0  0  0  0  1  0  0  0  0  0  0
  186.3430  178.8980  141.6340 C   0  0  0  0  0  0  0  0  0  0  0  0
  186.0820  180.0770  141.4390 O   0  0  0  0  0  0  0  0  0  0  0  0
  185.4300  178.0460  142.4700 C   0  0  1  0  0  3  0  0  0  0  0  0
  186.6360  178.0390  146.6100 C   0  0  0  0  0  0  0  0  0  0  0  0
  185.6300  179.1810  144.7240 C   0  0  0  0  0  0  0  0  0  0  0  0
  186.8890  176.9260  145.8050 C   0  0  0  0  0  3  0  0  0  0  0  0
  187.1070  178.0240  148.2950 Cl  0  0  0  0  0  0  0  0  0  0  0  0
  185.8790  178.0620  143.9090 C   0  0  0  0  0  0  0  0  0  0  0  0
  186.0090  179.1630  146.0690 C   0  0  0  0  0  3  0  0  0  0  0  0
  186.5110  176.9350  144.4610 C   0  0  0  0  0  3  0  0  0  0  0  0
  184.8480  180.6230  144.0950 Cl  0  0  0  0  0  0  0  0  0  0  0  0
  183.9380  178.3920  142.2870 C   0  0  0  0  0  3  0  0  0  0  0  0
  183.3430  177.7100  141.0590 C   0  0  0  0  0  2  0  0  0  0  0  0
  182.9820  178.7450  140.0100 C   0  0  0  0  0  1  0  0  0  0  0  0
  181.7650  178.7880  143.5430 C   0  0  0  0  0  1  0  0  0  0  0  0
  183.1010  178.0580  143.5260 C   0  0  0  0  0  2  0  0  0  0  0  0
  188.0400  177.0350  141.8730 C   0  0  0  0  0  2  0  0  0  0  0  0
  190.6970  178.6250  144.1480 C   0  0  0  0  0  2  0  0  0  0  0  0
  191.1590  177.3810  144.9150 C   0  0  1  0  0  0  0  0  0  0  0  0
  192.4630  177.5790  145.3250 F   0  0  0  0  0  0  0  0  0  0  0  0
  189.7480  175.9610  143.3580 C   0  0  0  0  0  2  0  0  0  0  0  0
  189.3360  178.4170  143.4840 C   0  0  0  0  0  2  0  0  0  0  0  0
  189.3870  177.2100  142.5570 C   0  0  2  0  0  3  0  0  0  0  0  0
  190.2980  177.1710  146.1500 C   0  0  0  0  0  1  0  0  0  0  0  0
  191.1150  176.1410  144.0160 C   0  0  0  0  0  2  0  0  0  0  0  0
  1 19  1  0  0  0  0
  1 35  1  1  0  0  0
  2  5  1  0  0  0  0
  3  2  2  0  0  0  0
  3 12  1  0  0  0  0
  4 12  1  0  0  0  0
  5  8  1  0  0  0  0
  5 10  2  0  0  0  0
  6  3  1  0  0  0  0
  7 10  1  0  0  0  0
  9 13  1  1  0  0  0
  9  6  1  0  0  0  0
  9 11  1  0  0  0  0
 10  1  1  0  0  0  0
 11  4  1  0  0  0  0
 12  7  2  0  0  0  0
 13 14  1  0  0  0  0
 14 15  1  0  0  0  0
 16 15  1  0  0  0  0
 16 17  1  0  0  0  0
 18 17  1  0  0  0  0
 20 19  2  0  0  0  0
 21 19  1  6  0  0  0
 21 26  1  0  0  0  0
 22 25  1  0  0  0  0
 23 27  2  0  0  0  0
 24 22  2  0  0  0  0
 26 28  2  0  0  0  0
 26 23  1  0  0  0  0
 27 22  1  0  0  0  0
 28 24  1  0  0  0  0
 29 23  1  0  0  0  0
 30 21  1  0  0  0  0
 30 34  1  0  0  0  0
 31 30  1  0  0  0  0
 32 31  1  0  0  0  0
 34 33  1  0  0  0  0
 36 37  1  0  0  0  0
 37 38  1  0  0  0  0
 37 42  1  1  0  0  0
 39 43  1  0  0  0  0
 40 36  1  0  0  0  0
 41 35  1  1  0  0  0
 41 39  1  0  0  0  0
 41 40  1  0  0  0  0
 43 37  1  0  0  0  0
M  END
>  <MODEL>
5

>  <REMARK>
 VINA RESULT:      -5.4      4.315      9.121
  Name = 
  14 active torsions:
  status: ('A' for Active; 'I' for Inactive)
    1  A    between atoms: C_1  and  C_34
    2  A    between atoms: C_1  and  C_35
    3  A    between atoms: C_2  and  C_27
    4  A    between atoms: C_8  and  C_30
    5  A    between atoms: C_8  and  C_34
    6  A    between atoms: C_11  and  C_22
    7  A    between atoms: C_11  and  C_36
    8  A    between atoms: C_13  and  C_27
    9  A    between atoms: C_21  and  C_30
   10  A    between atoms: C_26  and  S_31
   11  A    between atoms: C_27  and  C_30
   12  A    between atoms: C_29  and  S_31
   13  A    between atoms: C_29  and  C_36
   14  A    between atoms: C_34  and  C_38
                            x       y       z     vdW  Elec       q    Type
                         _______ _______ _______ _____ _____    ______ ____

>  <TORSDO>
F 14

$$$$
=
 OpenBabel10272414143D

 43 46  0  0  1  0  0  0  0  0999 V2000
  189.3510  176.3470  137.6280 C   0  0  1  0  0  3  0  0  0  0  0  0
  188.6880  178.8040  140.4510 C   0  0  0  0  0  3  0  0  0  0  0  0
  189.0910  178.0740  141.5710 C   0  0  0  0  0  0  0  0  0  0  0  0
  189.9770  175.9160  142.5830 C   0  0  0  0  0  2  0  0  0  0  0  0
  188.7580  178.2430  139.1740 C   0  0  0  0  0  0  0  0  0  0  0  0
  189.0770  178.7550  142.9120 C   0  0  0  0  0  2  0  0  0  0  0  0
  189.6490  176.2030  140.1310 C   0  0  0  0  0  3  0  0  0  0  0  0
  188.3440  178.9900  138.0770 O   0  0  0  0  0  1  0  0  0  0  0  0
  189.1950  177.7840  144.0920 C   0  0  2  0  0  3  0  0  0  0  0  0
  189.2520  176.9390  139.0050 C   0  0  0  0  0  0  0  0  0  0  0  0
  190.2880  176.7500  143.8260 C   0  0  0  0  0  2  0  0  0  0  0  0
  189.5930  176.7660  141.4070 C   0  0  0  0  0  0  0  0  0  0  0  0
  187.8630  177.1120  144.4070 C   0  0  0  0  0  2  0  0  0  0  0  0
  187.2370  177.7300  145.6410 C   0  0  0  0  0  2  0  0  0  0  0  0
  185.9280  178.3930  145.2640 C   0  0  0  0  0  2  0  0  0  0  0  0
  185.5670  178.0920  143.5100 S   0  0  0  0  0  0  0  0  0  0  0  0
  184.1180  179.1860  143.5290 C   0  0  0  0  0  2  0  0  0  0  0  0
  183.2760  178.8880  144.7500 C   0  0  0  0  0  1  0  0  0  0  0  0
  188.0530  176.4590  136.8770 C   0  0  0  0  0  0  0  0  0  0  0  0
  187.9410  177.2370  135.9400 O   0  0  0  0  0  0  0  0  0  0  0  0
  186.8640  175.6750  137.3590 C   0  0  1  0  0  3  0  0  0  0  0  0
  183.2510  178.0190  137.1660 C   0  0  0  0  0  0  0  0  0  0  0  0
  184.8130  176.4920  136.1200 C   0  0  0  0  0  0  0  0  0  0  0  0
  184.0460  178.0540  138.3130 C   0  0  0  0  0  3  0  0  0  0  0  0
  181.7730  178.9550  137.1000 Cl  0  0  0  0  0  0  0  0  0  0  0  0
  185.6180  176.5190  137.2740 C   0  0  0  0  0  0  0  0  0  0  0  0
  183.6350  177.2410  136.0730 C   0  0  0  0  0  3  0  0  0  0  0  0
  185.2240  177.3050  138.3690 C   0  0  0  0  0  3  0  0  0  0  0  0
  185.2510  175.5320  134.7150 Cl  0  0  0  0  0  0  0  0  0  0  0  0
  186.7250  174.2990  136.6760 C   0  0  0  0  0  3  0  0  0  0  0  0
  188.0770  173.7390  136.2450 C   0  0  0  0  0  2  0  0  0  0  0  0
  188.3530  172.4310  136.9610 C   0  0  0  0  0  1  0  0  0  0  0  0
  184.7310  172.7400  136.9000 C   0  0  0  0  0  1  0  0  0  0  0  0
  185.9950  173.2790  137.5550 C   0  0  0  0  0  2  0  0  0  0  0  0
  190.5420  176.9180  136.8600 C   0  0  0  0  0  2  0  0  0  0  0  0
  193.7790  175.2230  135.6700 C   0  0  0  0  0  2  0  0  0  0  0  0
  193.7300  173.9470  136.5180 C   0  0  1  0  0  0  0  0  0  0  0  0
  194.4200  172.9530  135.8530 F   0  0  0  0  0  0  0  0  0  0  0  0
  191.3970  174.5990  137.2700 C   0  0  0  0  0  2  0  0  0  0  0  0
  192.8720  176.3190  136.2310 C   0  0  0  0  0  2  0  0  0  0  0  0
  191.4420  175.8080  136.3390 C   0  0  2  0  0  3  0  0  0  0  0  0
  194.4030  174.1790  137.8610 C   0  0  0  0  0  1  0  0  0  0  0  0
  192.2830  173.4830  136.7190 C   0  0  0  0  0  2  0  0  0  0  0  0
  1 35  1  6  0  0  0
  1 10  1  0  0  0  0
  2  3  1  0  0  0  0
  3  6  1  0  0  0  0
  4 11  1  0  0  0  0
  5  2  2  0  0  0  0
  6  9  1  0  0  0  0
  7 12  1  0  0  0  0
  8  5  1  0  0  0  0
  9 13  1  6  0  0  0
 10  5  1  0  0  0  0
 10  7  2  0  0  0  0
 11  9  1  0  0  0  0
 12  3  2  0  0  0  0
 12  4  1  0  0  0  0
 13 14  1  0  0  0  0
 15 14  1  0  0  0  0
 16 17  1  0  0  0  0
 16 15  1  0  0  0  0
 17 18  1  0  0  0  0
 19 21  1  0  0  0  0
 19  1  1  0  0  0  0
 20 19  2  0  0  0  0
 21 30  1  6  0  0  0
 22 24  1  0  0  0  0
 23 26  2  0  0  0  0
 24 28  2  0  0  0  0
 25 22  1  0  0  0  0
 26 21  1  0  0  0  0
 26 28  1  0  0  0  0
 27 23  1  0  0  0  0
 27 22  2  0  0  0  0
 29 23  1  0  0  0  0
 30 34  1  0  0  0  0
 31 30  1  0  0  0  0
 31 32  1  0  0  0  0
 33 34  1  0  0  0  0
 36 40  1  0  0  0  0
 36 37  1  0  0  0  0
 37 43  1  0  0  0  0
 37 42  1  1  0  0  0
 38 37  1  0  0  0  0
 40 41  1  0  0  0  0
 41 35  1  1  0  0  0
 41 39  1  0  0  0  0
 43 39  1  0  0  0  0
M  END
>  <MODEL>
6

>  <REMARK>
 VINA RESULT:      -5.4      3.517      6.107
  Name = 
  14 active torsions:
  status: ('A' for Active; 'I' for Inactive)
    1  A    between atoms: C_1  and  C_34
    2  A    between atoms: C_1  and  C_35
    3  A    between atoms: C_2  and  C_27
    4  A    between atoms: C_8  and  C_30
    5  A    between atoms: C_8  and  C_34
    6  A    between atoms: C_11  and  C_22
    7  A    between atoms: C_11  and  C_36
    8  A    between atoms: C_13  and  C_27
    9  A    between atoms: C_21  and  C_30
   10  A    between atoms: C_26  and  S_31
   11  A    between atoms: C_27  and  C_30
   12  A    between atoms: C_29  and  S_31
   13  A    between atoms: C_29  and  C_36
   14  A    between atoms: C_34  and  C_38
                            x       y       z     vdW  Elec       q    Type
                         _______ _______ _______ _____ _____    ______ ____

>  <TORSDO>
F 14

$$$$
=
 OpenBabel10272414143D

 43 46  0  0  1  0  0  0  0  0999 V2000
  190.9290  177.0140  137.8290 C   0  0  1  0  0  3  0  0  0  0  0  0
  192.4550  177.2030  141.3040 C   0  0  0  0  0  3  0  0  0  0  0  0
  191.3670  176.8720  142.1170 C   0  0  0  0  0  0  0  0  0  0  0  0
  188.9060  176.2810  142.3570 C   0  0  0  0  0  2  0  0  0  0  0  0
  192.3130  177.2630  139.9160 C   0  0  0  0  0  0  0  0  0  0  0  0
  191.5950  176.7370  143.5970 C   0  0  0  0  0  2  0  0  0  0  0  0
  189.9790  176.6510  140.1400 C   0  0  0  0  0  3  0  0  0  0  0  0
  193.4100  177.6010  139.1330 O   0  0  0  0  0  1  0  0  0  0  0  0
  190.2990  176.7230  144.4160 C   0  0  2  0  0  3  0  0  0  0  0  0
  191.0730  176.9740  139.3240 C   0  0  0  0  0  0  0  0  0  0  0  0
  189.2660  175.8050  143.7640 C   0  0  0  0  0  2  0  0  0  0  0  0
  190.1210  176.5770  141.5260 C   0  0  0  0  0  0  0  0  0  0  0  0
  189.7430  178.1270  144.6190 C   0  0  0  0  0  2  0  0  0  0  0  0
  188.5230  178.0880  145.5180 C   0  0  0  0  0  2  0  0  0  0  0  0
  187.2980  178.4970  144.7230 C   0  0  0  0  0  2  0  0  0  0  0  0
  185.8110  178.3230  145.7500 S   0  0  0  0  0  0  0  0  0  0  0  0
  184.7310  178.1130  144.3060 C   0  0  0  0  0  2  0  0  0  0  0  0
  185.5430  178.2770  143.0400 C   0  0  0  0  0  1  0  0  0  0  0  0
  190.9870  175.6370  137.2250 C   0  0  0  0  0  0  0  0  0  0  0  0
  190.3650  174.7110  137.7270 O   0  0  0  0  0  0  0  0  0  0  0  0
  191.9000  175.3950  136.0560 C   0  0  1  0  0  3  0  0  0  0  0  0
  195.8910  174.6570  137.5100 C   0  0  0  0  0  0  0  0  0  0  0  0
  194.4140  175.6060  135.8410 C   0  0  0  0  0  0  0  0  0  0  0  0
  194.7890  174.1590  138.2080 C   0  0  0  0  0  3  0  0  0  0  0  0
  197.5090  174.3740  138.1150 Cl  0  0  0  0  0  0  0  0  0  0  0  0
  193.2980  175.1110  136.5420 C   0  0  0  0  0  0  0  0  0  0  0  0
  195.7030  175.3770  136.3290 C   0  0  0  0  0  3  0  0  0  0  0  0
  193.4980  174.3870  137.7280 C   0  0  0  0  0  3  0  0  0  0  0  0
  194.2330  176.5160  134.3490 Cl  0  0  0  0  0  0  0  0  0  0  0  0
  191.3620  174.3350  135.0730 C   0  0  0  0  0  3  0  0  0  0  0  0
  191.4460  172.9270  135.6530 C   0  0  0  0  0  2  0  0  0  0  0  0
  192.2690  172.0360  134.7430 C   0  0  0  0  0  1  0  0  0  0  0  0
  189.0000  173.4360  134.8070 C   0  0  0  0  0  1  0  0  0  0  0  0
  189.9280  174.6280  134.6210 C   0  0  0  0  0  2  0  0  0  0  0  0
  189.6910  177.8040  137.4090 C   0  0  0  0  0  2  0  0  0  0  0  0
  186.6230  175.5430  136.9120 C   0  0  0  0  0  2  0  0  0  0  0  0
  186.0080  176.2090  135.6760 C   0  0  1  0  0  0  0  0  0  0  0  0
  185.2850  175.2590  134.9810 F   0  0  0  0  0  0  0  0  0  0  0  0
  188.0750  177.6690  135.5000 C   0  0  0  0  0  2  0  0  0  0  0  0
  187.6050  176.4680  137.6330 C   0  0  0  0  0  2  0  0  0  0  0  0
  188.6980  176.9170  136.6730 C   0  0  2  0  0  3  0  0  0  0  0  0
  185.0600  177.3220  136.0910 C   0  0  0  0  0  1  0  0  0  0  0  0
  187.1030  176.7570  134.7530 C   0  0  0  0  0  2  0  0  0  0  0  0
  1 35  1  1  0  0  0
  1 10  1  0  0  0  0
  2  3  1  0  0  0  0
  3  6  1  0  0  0  0
  4 11  1  0  0  0  0
  5  2  2  0  0  0  0
  6  9  1  0  0  0  0
  7 12  1  0  0  0  0
  8  5  1  0  0  0  0
  9 13  1  6  0  0  0
 10  5  1  0  0  0  0
 10  7  2  0  0  0  0
 11  9  1  0  0  0  0
 12  3  2  0  0  0  0
 12  4  1  0  0  0  0
 13 14  1  0  0  0  0
 15 14  1  0  0  0  0
 15 16  1  0  0  0  0
 17 16  1  0  0  0  0
 18 17  1  0  0  0  0
 19 20  2  0  0  0  0
 19  1  1  0  0  0  0
 21 30  1  1  0  0  0
 21 26  1  0  0  0  0
 21 19  1  0  0  0  0
 22 25  1  0  0  0  0
 22 24  1  0  0  0  0
 23 27  1  0  0  0  0
 23 26  2  0  0  0  0
 26 28  1  0  0  0  0
 27 22  2  0  0  0  0
 28 24  2  0  0  0  0
 29 23  1  0  0  0  0
 30 31  1  0  0  0  0
 32 31  1  0  0  0  0
 34 33  1  0  0  0  0
 34 30  1  0  0  0  0
 36 40  1  0  0  0  0
 37 42  1  1  0  0  0
 37 36  1  0  0  0  0
 38 37  1  0  0  0  0
 39 41  1  0  0  0  0
 41 35  1  1  0  0  0
 41 40  1  0  0  0  0
 43 39  1  0  0  0  0
 43 37  1  0  0  0  0
M  END
>  <MODEL>
7

>  <REMARK>
 VINA RESULT:      -5.1      3.931      6.556
  Name = 
  14 active torsions:
  status: ('A' for Active; 'I' for Inactive)
    1  A    between atoms: C_1  and  C_34
    2  A    between atoms: C_1  and  C_35
    3  A    between atoms: C_2  and  C_27
    4  A    between atoms: C_8  and  C_30
    5  A    between atoms: C_8  and  C_34
    6  A    between atoms: C_11  and  C_22
    7  A    between atoms: C_11  and  C_36
    8  A    between atoms: C_13  and  C_27
    9  A    between atoms: C_21  and  C_30
   10  A    between atoms: C_26  and  S_31
   11  A    between atoms: C_27  and  C_30
   12  A    between atoms: C_29  and  S_31
   13  A    between atoms: C_29  and  C_36
   14  A    between atoms: C_34  and  C_38
                            x       y       z     vdW  Elec       q    Type
                         _______ _______ _______ _____ _____    ______ ____

>  <TORSDO>
F 14

$$$$
=
 OpenBabel10272414143D

 43 46  0  0  1  0  0  0  0  0999 V2000
  187.6490  178.3080  141.1880 C   0  0  1  0  0  3  0  0  0  0  0  0
  189.2160  177.9970  137.7400 C   0  0  0  0  0  3  0  0  0  0  0  0
  188.1000  177.7460  136.9370 C   0  0  0  0  0  0  0  0  0  0  0  0
  185.5990  177.3530  136.7150 C   0  0  0  0  0  2  0  0  0  0  0  0
  189.0740  178.1650  139.1190 C   0  0  0  0  0  0  0  0  0  0  0  0
  188.2960  177.6580  135.4480 C   0  0  0  0  0  2  0  0  0  0  0  0
  186.6830  177.8400  138.9040 C   0  0  0  0  0  3  0  0  0  0  0  0
  190.2020  178.4070  139.8960 O   0  0  0  0  0  1  0  0  0  0  0  0
  187.1020  177.0440  134.7100 C   0  0  2  0  0  3  0  0  0  0  0  0
  187.8020  178.1000  139.7090 C   0  0  0  0  0  0  0  0  0  0  0  0
  185.7920  177.6380  135.2260 C   0  0  0  0  0  2  0  0  0  0  0  0
  186.8190  177.6840  137.5230 C   0  0  0  0  0  0  0  0  0  0  0  0
  187.0970  175.5220  134.8100 C   0  0  0  0  0  2  0  0  0  0  0  0
  188.4730  174.9680  134.5000 C   0  0  0  0  0  2  0  0  0  0  0  0
  188.7150  173.7240  135.3320 C   0  0  0  0  0  2  0  0  0  0  0  0
  189.3500  174.1900  136.9680 S   0  0  0  0  0  0  0  0  0  0  0  0
  190.8560  174.9270  136.2710 C   0  0  0  0  0  2  0  0  0  0  0  0
  191.8600  173.8350  135.9710 C   0  0  0  0  0  1  0  0  0  0  0  0
  186.2940  178.8600  141.5390 C   0  0  0  0  0  0  0  0  0  0  0  0
  185.9840  179.9990  141.2200 O   0  0  0  0  0  0  0  0  0  0  0  0
  185.3650  178.0260  142.3770 C   0  0  1  0  0  3  0  0  0  0  0  0
  186.5310  178.0600  146.5270 C   0  0  0  0  0  0  0  0  0  0  0  0
  185.5970  179.2030  144.6060 C   0  0  0  0  0  0  0  0  0  0  0  0
  186.7400  176.9180  145.7510 C   0  0  0  0  0  3  0  0  0  0  0  0
  186.9850  178.0630  148.2170 Cl  0  0  0  0  0  0  0  0  0  0  0  0
  185.8010  178.0550  143.8190 C   0  0  0  0  0  0  0  0  0  0  0  0
  185.9620  179.1990  145.9540 C   0  0  0  0  0  3  0  0  0  0  0  0
  186.3750  176.9140  144.4030 C   0  0  0  0  0  3  0  0  0  0  0  0
  184.8880  180.6640  143.9350 Cl  0  0  0  0  0  0  0  0  0  0  0  0
  183.8780  178.3840  142.1750 C   0  0  0  0  0  3  0  0  0  0  0  0
  183.2930  177.7120  140.9370 C   0  0  0  0  0  2  0  0  0  0  0  0
  182.8280  178.7600  139.9450 C   0  0  0  0  0  1  0  0  0  0  0  0
  181.8420  178.9980  143.5660 C   0  0  0  0  0  1  0  0  0  0  0  0
  183.0220  178.0520  143.4020 C   0  0  0  0  0  2  0  0  0  0  0  0
  188.0030  177.0430  141.9680 C   0  0  0  0  0  2  0  0  0  0  0  0
  190.6060  178.5260  144.3760 C   0  0  0  0  0  2  0  0  0  0  0  0
  191.0760  177.2430  145.0710 C   0  0  1  0  0  0  0  0  0  0  0  0
  192.3720  177.4340  145.5100 F   0  0  0  0  0  0  0  0  0  0  0  0
  189.7080  175.9030  143.4080 C   0  0  0  0  0  2  0  0  0  0  0  0
  189.2560  178.3390  143.6820 C   0  0  0  0  0  2  0  0  0  0  0  0
  189.3380  177.1940  142.6820 C   0  0  2  0  0  3  0  0  0  0  0  0
  190.2030  176.9430  146.2770 C   0  0  0  0  0  1  0  0  0  0  0  0
  191.0640  176.0610  144.0950 C   0  0  0  0  0  2  0  0  0  0  0  0
  1 19  1  0  0  0  0
  1 35  1  1  0  0  0
  2  5  1  0  0  0  0
  3 12  1  0  0  0  0
  3  2  2  0  0  0  0
  4 12  1  0  0  0  0
  5 10  2  0  0  0  0
  5  8  1  0  0  0  0
  6  3  1  0  0  0  0
  7 10  1  0  0  0  0
  9 13  1  1  0  0  0
  9 11  1  0  0  0  0
  9  6  1  0  0  0  0
 10  1  1  0  0  0  0
 11  4  1  0  0  0  0
 12  7  2  0  0  0  0
 14 13  1  0  0  0  0
 14 15  1  0  0  0  0
 15 16  1  0  0  0  0
 17 16  1  0  0  0  0
 18 17  1  0  0  0  0
 20 19  2  0  0  0  0
 21 19  1  6  0  0  0
 21 26  1  0  0  0  0
 22 25  1  0  0  0  0
 23 27  2  0  0  0  0
 24 22  2  0  0  0  0
 26 28  2  0  0  0  0
 26 23  1  0  0  0  0
 27 22  1  0  0  0  0
 28 24  1  0  0  0  0
 29 23  1  0  0  0  0
 30 21  1  0  0  0  0
 30 34  1  0  0  0  0
 31 30  1  0  0  0  0
 32 31  1  0  0  0  0
 34 33  1  0  0  0  0
 36 37  1  0  0  0  0
 37 38  1  0  0  0  0
 37 42  1  1  0  0  0
 39 43  1  0  0  0  0
 40 36  1  0  0  0  0
 41 35  1  1  0  0  0
 41 39  1  0  0  0  0
 41 40  1  0  0  0  0
 43 37  1  0  0  0  0
M  END
>  <MODEL>
8

>  <REMARK>
 VINA RESULT:      -5.1      4.208      9.088
  Name = 
  14 active torsions:
  status: ('A' for Active; 'I' for Inactive)
    1  A    between atoms: C_1  and  C_34
    2  A    between atoms: C_1  and  C_35
    3  A    between atoms: C_2  and  C_27
    4  A    between atoms: C_8  and  C_30
    5  A    between atoms: C_8  and  C_34
    6  A    between atoms: C_11  and  C_22
    7  A    between atoms: C_11  and  C_36
    8  A    between atoms: C_13  and  C_27
    9  A    between atoms: C_21  and  C_30
   10  A    between atoms: C_26  and  S_31
   11  A    between atoms: C_27  and  C_30
   12  A    between atoms: C_29  and  S_31
   13  A    between atoms: C_29  and  C_36
   14  A    between atoms: C_34  and  C_38
                            x       y       z     vdW  Elec       q    Type
                         _______ _______ _______ _____ _____    ______ ____

>  <TORSDO>
F 14

$$$$
=
 OpenBabel10272414143D

 43 46  0  0  1  0  0  0  0  0999 V2000
  190.0970  177.6170  139.8270 C   0  0  1  0  0  3  0  0  0  0  0  0
  193.0640  176.2810  137.8650 C   0  0  0  0  0  3  0  0  0  0  0  0
  192.4370  175.6280  136.8000 C   0  0  0  0  0  0  0  0  0  0  0  0
  190.3070  174.8850  135.6290 C   0  0  0  0  0  2  0  0  0  0  0  0
  192.3090  176.9140  138.8540 C   0  0  0  0  0  0  0  0  0  0  0  0
  193.2970  175.0370  135.7170 C   0  0  0  0  0  2  0  0  0  0  0  0
  190.2770  176.2500  137.7130 C   0  0  0  0  0  3  0  0  0  0  0  0
  192.9590  177.5510  139.9050 O   0  0  0  0  0  1  0  0  0  0  0  0
  192.5460  174.0610  134.8050 C   0  0  2  0  0  3  0  0  0  0  0  0
  190.9070  176.9130  138.7760 C   0  0  0  0  0  0  0  0  0  0  0  0
  191.1890  174.6390  134.4070 C   0  0  0  0  0  2  0  0  0  0  0  0
  191.0290  175.6280  136.7150 C   0  0  0  0  0  0  0  0  0  0  0  0
  192.3950  172.6870  135.4500 C   0  0  0  0  0  2  0  0  0  0  0  0
  192.4140  171.6020  134.3920 C   0  0  0  0  0  2  0  0  0  0  0  0
  193.3940  170.5190  134.7990 C   0  0  0  0  0  2  0  0  0  0  0  0
  194.2500  171.0040  136.3240 S   0  0  0  0  0  0  0  0  0  0  0  0
  194.2490  169.3080  136.9700 C   0  0  0  0  0  2  0  0  0  0  0  0
  194.9200  169.2830  138.3250 C   0  0  0  0  0  1  0  0  0  0  0  0
  188.9070  178.3230  139.2370 C   0  0  0  0  0  0  0  0  0  0  0  0
  188.9970  179.4820  138.8540 O   0  0  0  0  0  0  0  0  0  0  0  0
  187.5790  177.6180  139.2180 C   0  0  1  0  0  3  0  0  0  0  0  0
  185.0160  179.0500  142.3750 C   0  0  0  0  0  0  0  0  0  0  0  0
  185.4420  178.7180  140.0130 C   0  0  0  0  0  0  0  0  0  0  0  0
  186.2590  178.4910  142.6820 C   0  0  0  0  0  3  0  0  0  0  0  0
  183.9690  179.6090  143.6610 Cl  0  0  0  0  0  0  0  0  0  0  0  0
  186.6940  178.1510  140.3150 C   0  0  0  0  0  0  0  0  0  0  0  0
  184.6110  179.1630  141.0440 C   0  0  0  0  0  3  0  0  0  0  0  0
  187.0940  178.0410  141.6570 C   0  0  0  0  0  3  0  0  0  0  0  0
  184.8850  178.8880  138.3560 Cl  0  0  0  0  0  0  0  0  0  0  0  0
  186.9090  177.6210  137.8280 C   0  0  0  0  0  3  0  0  0  0  0  0
  187.6700  178.4890  136.8310 C   0  0  0  0  0  2  0  0  0  0  0  0
  187.1100  178.2940  135.4360 C   0  0  0  0  0  1  0  0  0  0  0  0
  185.2880  175.7270  137.3370 C   0  0  0  0  0  1  0  0  0  0  0  0
  186.7290  176.2100  137.2600 C   0  0  0  0  0  2  0  0  0  0  0  0
  189.7300  176.6750  140.9720 C   0  0  0  0  0  2  0  0  0  0  0  0
  191.0330  178.5320  144.0740 C   0  0  0  0  0  2  0  0  0  0  0  0
  191.0240  177.3820  145.0870 C   0  0  1  0  0  0  0  0  0  0  0  0
  191.9810  177.6400  146.0500 F   0  0  0  0  0  0  0  0  0  0  0  0
  190.4770  175.7870  143.1930 C   0  0  0  0  0  2  0  0  0  0  0  0
  190.1480  178.2360  142.8630 C   0  0  0  0  0  2  0  0  0  0  0  0
  190.5910  176.9390  142.1980 C   0  0  2  0  0  3  0  0  0  0  0  0
  189.6710  177.2890  145.7710 C   0  0  0  0  0  1  0  0  0  0  0  0
  191.3700  176.0530  144.4040 C   0  0  0  0  0  2  0  0  0  0  0  0
  1 35  1  1  0  0  0
  2  5  1  0  0  0  0
  3  2  2  0  0  0  0
  4 12  1  0  0  0  0
  5  8  1  0  0  0  0
  6  3  1  0  0  0  0
  7 10  1  0  0  0  0
  9 13  1  1  0  0  0
  9  6  1  0  0  0  0
 10  5  2  0  0  0  0
 10  1  1  0  0  0  0
 11  9  1  0  0  0  0
 11  4  1  0  0  0  0
 12  3  1  0  0  0  0
 12  7  2  0  0  0  0
 14 15  1  0  0  0  0
 14 13  1  0  0  0  0
 15 16  1  0  0  0  0
 16 17  1  0  0  0  0
 17 18  1  0  0  0  0
 19  1  1  0  0  0  0
 20 19  2  0  0  0  0
 21 30  1  6  0  0  0
 21 19  1  0  0  0  0
 21 26  1  0  0  0  0
 22 24  1  0  0  0  0
 22 25  1  0  0  0  0
 23 26  2  0  0  0  0
 23 27  1  0  0  0  0
 26 28  1  0  0  0  0
 27 22  2  0  0  0  0
 28 24  2  0  0  0  0
 29 23  1  0  0  0  0
 31 30  1  0  0  0  0
 32 31  1  0  0  0  0
 34 33  1  0  0  0  0
 34 30  1  0  0  0  0
 36 37  1  0  0  0  0
 37 42  1  1  0  0  0
 37 38  1  0  0  0  0
 39 43  1  0  0  0  0
 40 36  1  0  0  0  0
 41 35  1  6  0  0  0
 41 40  1  0  0  0  0
 41 39  1  0  0  0  0
 43 37  1  0  0  0  0
M  END
>  <MODEL>
9

>  <REMARK>
 VINA RESULT:      -5.1      4.359      8.276
  Name = 
  14 active torsions:
  status: ('A' for Active; 'I' for Inactive)
    1  A    between atoms: C_1  and  C_34
    2  A    between atoms: C_1  and  C_35
    3  A    between atoms: C_2  and  C_27
    4  A    between atoms: C_8  and  C_30
    5  A    between atoms: C_8  and  C_34
    6  A    between atoms: C_11  and  C_22
    7  A    between atoms: C_11  and  C_36
    8  A    between atoms: C_13  and  C_27
    9  A    between atoms: C_21  and  C_30
   10  A    between atoms: C_26  and  S_31
   11  A    between atoms: C_27  and  C_30
   12  A    between atoms: C_29  and  S_31
   13  A    between atoms: C_29  and  C_36
   14  A    between atoms: C_34  and  C_38
                            x       y       z     vdW  Elec       q    Type
                         _______ _______ _______ _____ _____    ______ ____

>  <TORSDO>
F 14

$$$$
