=
 OpenBabel10272413413D

 32 37  0  0  1  0  0  0  0  0999 V2000
  189.0360  176.9230  146.9540 C   0  0  2  0  0  3  0  0  0  0  0  0
  185.7860  178.3320  143.1720 C   0  0  0  0  0  0  0  0  0  0  0  0
  189.5590  177.8630  140.7010 O   0  0  0  0  0  0  0  0  0  0  0  0
  187.9570  178.2540  138.9960 N   0  0  0  0  0  0  0  0  0  0  0  0
  183.3740  178.7520  142.7690 C   0  0  0  0  0  3  0  0  0  0  0  0
  182.3220  178.9830  141.8830 C   0  0  0  0  0  0  0  0  0  0  0  0
  186.8580  178.0370  145.4770 C   0  0  0  0  0  0  0  0  0  0  0  0
  188.2570  177.8880  143.4750 C   0  0  0  0  0  3  0  0  0  0  0  0
  180.2660  179.4390  140.0980 N   0  0  0  0  0  0  0  0  0  0  0  0
  189.3980  177.5570  145.6110 C   0  0  0  0  0  2  0  0  0  0  0  0
  188.3710  178.0890  140.3510 C   0  0  0  0  0  0  0  0  0  0  0  0
  187.0840  178.1510  142.6170 C   0  0  0  0  0  0  0  0  0  0  0  0
  187.2300  178.2240  141.2310 C   0  0  0  0  0  0  0  0  0  0  0  0
  184.8880  178.6370  140.8860 C   0  0  0  0  0  0  0  0  0  0  0  0
  179.9930  179.3900  141.4320 C   0  0  0  0  0  3  0  0  0  0  0  0
  188.0000  177.7920  147.6700 C   0  0  0  0  0  2  0  0  0  0  0  0
  188.1610  177.8170  144.8020 C   0  0  0  0  0  0  0  0  0  0  0  0
  181.0200  179.1610  142.3520 C   0  0  0  0  0  3  0  0  0  0  0  0
  186.7790  177.9810  146.8130 C   0  0  0  0  0  3  0  0  0  0  0  0
  186.6750  178.4710  139.0140 C   0  0  0  0  0  3  0  0  0  0  0  0
  186.1760  178.4590  140.3940 C   0  0  0  0  0  0  0  0  0  0  0  0
  183.8470  178.8640  140.0380 N   0  0  0  0  0  0  0  0  0  0  0  0
  185.6510  178.2680  144.6560 C   0  0  0  0  0  0  0  0  0  0  0  0
  184.5320  178.4140  145.2200 O   0  0  0  0  0  0  0  0  0  0  0  0
  181.5270  179.2690  139.6180 C   0  0  0  0  0  3  0  0  0  0  0  0
  184.6800  178.5740  142.2940 C   0  0  0  0  0  0  0  0  0  0  0  0
  182.5830  179.0360  140.5010 C   0  0  0  0  0  0  0  0  0  0  0  0
  190.2880  176.7820  147.8010 C   0  0  0  0  0  2  0  0  0  0  0  0
  191.5300  176.9180  146.9390 C   0  0  0  0  0  2  0  0  0  0  0  0
  192.3510  175.6820  147.0410 C   0  0  0  0  0  0  0  0  0  0  0  0
  193.1140  175.4440  148.1760 O   0  0  0  0  0  1  0  0  0  0  0  0
  192.3720  174.8610  146.0860 O   0  0  0  0  0  0  0  0  0  0  0  0
  1 16  1  0  0  0  0
  1 28  1  1  0  0  0
  2 23  1  0  0  0  0
  4 20  2  0  0  0  0
  4 11  1  0  0  0  0
  6 18  1  0  0  0  0
  6  5  2  0  0  0  0
  7 19  2  0  0  0  0
  8 17  2  0  0  0  0
  9 15  1  0  0  0  0
 10  1  1  0  0  0  0
 11  3  2  0  0  0  0
 11 13  1  0  0  0  0
 12  2  1  0  0  0  0
 12  8  1  0  0  0  0
 13 12  2  0  0  0  0
 14 26  1  0  0  0  0
 15 18  2  0  0  0  0
 17  7  1  0  0  0  0
 17 10  1  0  0  0  0
 19 16  1  0  0  0  0
 20 21  1  0  0  0  0
 21 14  2  0  0  0  0
 21 13  1  0  0  0  0
 22 27  2  0  0  0  0
 22 14  1  0  0  0  0
 23 24  2  0  0  0  0
 23  7  1  0  0  0  0
 25  9  2  0  0  0  0
 25 27  1  0  0  0  0
 26  5  1  0  0  0  0
 26  2  2  0  0  0  0
 27  6  1  0  0  0  0
 29 30  1  0  0  0  0
 29 28  1  0  0  0  0
 30 31  1  0  0  0  0
 32 30  2  0  0  0  0
M  END
>  <MODEL>
1

>  <REMARK>
 VINA RESULT:     -10.6      0.000      0.000
  Name = 
  3 active torsions:
  status: ('A' for Active; 'I' for Inactive)
    1  A    between atoms: C_1  and  C_10
    2  A    between atoms: C_2  and  C_24
    3  A    between atoms: C_10  and  C_24
                            x       y       z     vdW  Elec       q    Type
                         _______ _______ _______ _____ _____    ______ ____

>  <TORSDO>
F 3

$$$$
=
 OpenBabel10272413413D

 32 37  0  0  1  0  0  0  0  0999 V2000
  181.6090  179.6120  142.6680 C   0  0  2  0  0  3  0  0  0  0  0  0
  186.4650  178.0500  143.5760 C   0  0  0  0  0  0  0  0  0  0  0  0
  186.7020  178.4510  139.0660 O   0  0  0  0  0  0  0  0  0  0  0  0
  188.9680  177.9900  139.5910 N   0  0  0  0  0  0  0  0  0  0  0  0
  188.0190  177.6040  145.4590 C   0  0  0  0  0  3  0  0  0  0  0  0
  189.3070  177.3350  145.9220 C   0  0  0  0  0  0  0  0  0  0  0  0
  183.9470  178.4340  143.8140 C   0  0  0  0  0  0  0  0  0  0  0  0
  184.9690  178.5190  141.5920 C   0  0  0  0  0  3  0  0  0  0  0  0
  191.8710  176.8050  146.7980 N   0  0  0  0  0  0  0  0  0  0  0  0
  182.5610  178.9320  141.6850 C   0  0  0  0  0  2  0  0  0  0  0  0
  187.5970  178.2060  139.9170 C   0  0  0  0  0  0  0  0  0  0  0  0
  186.2930  178.2190  142.1740 C   0  0  0  0  0  0  0  0  0  0  0  0
  187.4110  178.0970  141.3480 C   0  0  0  0  0  0  0  0  0  0  0  0
  188.8800  177.6590  143.1990 C   0  0  0  0  0  0  0  0  0  0  0  0
  190.8610  176.9000  147.7070 C   0  0  0  0  0  3  0  0  0  0  0  0
  181.4870  178.7640  143.9360 C   0  0  0  0  0  2  0  0  0  0  0  0
  183.8760  178.6370  142.3460 C   0  0  0  0  0  0  0  0  0  0  0  0
  189.5560  177.1680  147.2840 C   0  0  0  0  0  3  0  0  0  0  0  0
  182.8370  178.5380  144.5580 C   0  0  0  0  0  3  0  0  0  0  0  0
  189.5950  177.7670  140.7090 C   0  0  0  0  0  3  0  0  0  0  0  0
  188.6570  177.8260  141.8370 C   0  0  0  0  0  0  0  0  0  0  0  0
  190.1300  177.3960  143.6710 N   0  0  0  0  0  0  0  0  0  0  0  0
  185.2560  178.1680  144.4430 C   0  0  0  0  0  0  0  0  0  0  0  0
  185.3320  178.0360  145.6950 O   0  0  0  0  0  0  0  0  0  0  0  0
  191.6520  176.9650  145.4650 C   0  0  0  0  0  3  0  0  0  0  0  0
  187.7740  177.7720  144.0900 C   0  0  0  0  0  0  0  0  0  0  0  0
  190.3640  177.2340  144.9980 C   0  0  0  0  0  0  0  0  0  0  0  0
  180.2490  179.7900  142.0150 C   0  0  0  0  0  2  0  0  0  0  0  0
  180.2260  179.1280  140.6490 C   0  0  0  0  0  2  0  0  0  0  0  0
  180.0500  180.1600  139.5920 C   0  0  0  0  0  0  0  0  0  0  0  0
  179.9820  179.7850  138.2570 O   0  0  0  0  0  0  0  0  0  0  0  0
  179.9860  181.3770  139.9060 O   0  0  0  0  0  1  0  0  0  0  0  0
  1 28  1  6  0  0  0
  1 16  1  0  0  0  0
  2 26  1  0  0  0  0
  2 23  1  0  0  0  0
  3 11  2  0  0  0  0
  4 11  1  0  0  0  0
  4 20  2  0  0  0  0
  5  6  1  0  0  0  0
  6 18  1  0  0  0  0
  7 23  1  0  0  0  0
  7 19  2  0  0  0  0
  8 12  1  0  0  0  0
  8 17  2  0  0  0  0
  9 15  1  0  0  0  0
 10 17  1  0  0  0  0
 10  1  1  0  0  0  0
 11 13  1  0  0  0  0
 12  2  2  0  0  0  0
 13 21  2  0  0  0  0
 13 12  1  0  0  0  0
 14 22  2  0  0  0  0
 14 26  1  0  0  0  0
 16 19  1  0  0  0  0
 17  7  1  0  0  0  0
 18 15  2  0  0  0  0
 20 21  1  0  0  0  0
 21 14  1  0  0  0  0
 22 27  1  0  0  0  0
 23 24  2  0  0  0  0
 25  9  2  0  0  0  0
 26  5  2  0  0  0  0
 27 25  1  0  0  0  0
 27  6  2  0  0  0  0
 29 28  1  0  0  0  0
 30 32  1  0  0  0  0
 30 29  1  0  0  0  0
 31 30  2  0  0  0  0
M  END
>  <MODEL>
2

>  <REMARK>
 VINA RESULT:     -10.2      2.963      8.372
  Name = 
  3 active torsions:
  status: ('A' for Active; 'I' for Inactive)
    1  A    between atoms: C_1  and  C_10
    2  A    between atoms: C_2  and  C_24
    3  A    between atoms: C_10  and  C_24
                            x       y       z     vdW  Elec       q    Type
                         _______ _______ _______ _____ _____    ______ ____

>  <TORSDO>
F 3

$$$$
=
 OpenBabel10272413413D

 32 37  0  0  1  0  0  0  0  0999 V2000
  181.5420  179.8020  140.0050 C   0  0  2  0  0  3  0  0  0  0  0  0
  185.6900  178.2990  142.7220 C   0  0  0  0  0  0  0  0  0  0  0  0
  187.5700  178.4080  138.5980 O   0  0  0  0  0  0  0  0  0  0  0  0
  189.4750  177.9790  139.9440 N   0  0  0  0  0  0  0  0  0  0  0  0
  186.4360  177.9730  145.0670 C   0  0  0  0  0  3  0  0  0  0  0  0
  187.4580  177.7340  145.9850 C   0  0  0  0  0  0  0  0  0  0  0  0
  183.2690  178.6990  141.9970 C   0  0  0  0  0  0  0  0  0  0  0  0
  185.0350  178.6390  140.3040 C   0  0  0  0  0  3  0  0  0  0  0  0
  189.5100  177.2590  147.7700 N   0  0  0  0  0  0  0  0  0  0  0  0
  182.7720  179.0600  139.4820 C   0  0  0  0  0  2  0  0  0  0  0  0
  188.0860  178.2170  139.7300 C   0  0  0  0  0  0  0  0  0  0  0  0
  186.0470  178.3760  141.3470 C   0  0  0  0  0  0  0  0  0  0  0  0
  187.3870  178.2010  140.9980 C   0  0  0  0  0  0  0  0  0  0  0  0
  188.0650  177.8820  143.2810 C   0  0  0  0  0  0  0  0  0  0  0  0
  188.2410  177.4140  148.2380 C   0  0  0  0  0  3  0  0  0  0  0  0
  180.9440  179.0370  141.1880 C   0  0  0  0  0  2  0  0  0  0  0  0
  183.7460  178.8060  140.5960 C   0  0  0  0  0  0  0  0  0  0  0  0
  187.1880  177.6550  147.3510 C   0  0  0  0  0  3  0  0  0  0  0  0
  181.9680  178.8500  142.2740 C   0  0  0  0  0  3  0  0  0  0  0  0
  189.6440  177.8290  141.2250 C   0  0  0  0  0  3  0  0  0  0  0  0
  188.3610  177.9610  141.9240 C   0  0  0  0  0  0  0  0  0  0  0  0
  189.0490  177.6490  144.1930 N   0  0  0  0  0  0  0  0  0  0  0  0
  184.2510  178.4720  143.0770 C   0  0  0  0  0  0  0  0  0  0  0  0
  183.8610  178.4210  144.2750 O   0  0  0  0  0  0  0  0  0  0  0  0
  189.7980  177.3330  146.4430 C   0  0  0  0  0  3  0  0  0  0  0  0
  186.7130  178.0530  143.6950 C   0  0  0  0  0  0  0  0  0  0  0  0
  188.7780  177.5730  145.5210 C   0  0  0  0  0  0  0  0  0  0  0  0
  180.5210  179.9380  138.8890 C   0  0  0  0  0  2  0  0  0  0  0  0
  181.1070  180.7170  137.7260 C   0  0  0  0  0  2  0  0  0  0  0  0
  181.2500  182.1500  138.0990 C   0  0  0  0  0  0  0  0  0  0  0  0
  182.4910  182.6540  138.4640 O   0  0  0  0  0  1  0  0  0  0  0  0
  180.2400  182.9010  138.1070 O   0  0  0  0  0  0  0  0  0  0  0  0
  1 28  1  6  0  0  0
  1 16  1  0  0  0  0
  2 23  1  0  0  0  0
  2 26  1  0  0  0  0
  3 11  2  0  0  0  0
  4 20  2  0  0  0  0
  5  6  1  0  0  0  0
  6 18  1  0  0  0  0
  7 19  2  0  0  0  0
  7 23  1  0  0  0  0
  8 17  2  0  0  0  0
  8 12  1  0  0  0  0
  9 15  1  0  0  0  0
 10  1  1  0  0  0  0
 10 17  1  0  0  0  0
 11  4  1  0  0  0  0
 11 13  1  0  0  0  0
 12  2  2  0  0  0  0
 13 12  1  0  0  0  0
 13 21  2  0  0  0  0
 14 26  1  0  0  0  0
 14 22  2  0  0  0  0
 16 19  1  0  0  0  0
 17  7  1  0  0  0  0
 18 15  2  0  0  0  0
 20 21  1  0  0  0  0
 21 14  1  0  0  0  0
 22 27  1  0  0  0  0
 23 24  2  0  0  0  0
 25  9  2  0  0  0  0
 26  5  2  0  0  0  0
 27  6  2  0  0  0  0
 27 25  1  0  0  0  0
 29 30  1  0  0  0  0
 29 28  1  0  0  0  0
 30 32  2  0  0  0  0
 30 31  1  0  0  0  0
M  END
>  <MODEL>
3

>  <REMARK>
 VINA RESULT:      -9.9      3.365      8.441
  Name = 
  3 active torsions:
  status: ('A' for Active; 'I' for Inactive)
    1  A    between atoms: C_1  and  C_10
    2  A    between atoms: C_2  and  C_24
    3  A    between atoms: C_10  and  C_24
                            x       y       z     vdW  Elec       q    Type
                         _______ _______ _______ _____ _____    ______ ____

>  <TORSDO>
F 3

$$$$
=
 OpenBabel10272413413D

 32 37  0  0  1  0  0  0  0  0999 V2000
  188.0460  177.2970  146.6990 C   0  0  2  0  0  3  0  0  0  0  0  0
  185.4480  178.4110  142.3560 C   0  0  0  0  0  0  0  0  0  0  0  0
  189.6010  177.9890  140.5870 O   0  0  0  0  0  0  0  0  0  0  0  0
  188.3030  178.2430  138.6180 N   0  0  0  0  0  0  0  0  0  0  0  0
  183.1280  178.7160  141.5300 C   0  0  0  0  0  3  0  0  0  0  0  0
  182.2360  178.8670  140.4680 C   0  0  0  0  0  0  0  0  0  0  0  0
  186.1180  178.2580  144.8210 C   0  0  0  0  0  0  0  0  0  0  0  0
  187.8440  178.0800  143.0950 C   0  0  0  0  0  3  0  0  0  0  0  0
  180.5030  179.1630  138.3400 N   0  0  0  0  0  0  0  0  0  0  0  0
  188.6110  177.8870  145.4080 C   0  0  0  0  0  2  0  0  0  0  0  0
  188.4840  178.1520  140.0300 C   0  0  0  0  0  0  0  0  0  0  0  0
  186.8270  178.2590  142.0390 C   0  0  0  0  0  0  0  0  0  0  0  0
  187.2050  178.2780  140.6960 C   0  0  0  0  0  0  0  0  0  0  0  0
  184.9450  178.5820  139.9380 C   0  0  0  0  0  0  0  0  0  0  0  0
  180.0070  179.1600  139.6080 C   0  0  0  0  0  3  0  0  0  0  0  0
  186.8740  178.1530  147.1850 C   0  0  0  0  0  2  0  0  0  0  0  0
  187.5230  178.0620  144.3890 C   0  0  0  0  0  0  0  0  0  0  0  0
  180.8680  179.0120  140.6990 C   0  0  0  0  0  3  0  0  0  0  0  0
  185.8130  178.2560  146.1250 C   0  0  0  0  0  3  0  0  0  0  0  0
  187.0310  178.4080  138.4070 C   0  0  0  0  0  3  0  0  0  0  0  0
  186.3040  178.4350  139.6820 C   0  0  0  0  0  0  0  0  0  0  0  0
  184.0580  178.7310  138.9160 N   0  0  0  0  0  0  0  0  0  0  0  0
  185.0630  178.4050  143.7970 C   0  0  0  0  0  0  0  0  0  0  0  0
  183.8600  178.5300  144.1550 O   0  0  0  0  0  0  0  0  0  0  0  0
  181.8320  179.0230  138.0900 C   0  0  0  0  0  3  0  0  0  0  0  0
  184.5010  178.5700  141.2920 C   0  0  0  0  0  0  0  0  0  0  0  0
  182.7280  178.8710  139.1490 C   0  0  0  0  0  0  0  0  0  0  0  0
  189.1380  177.2430  147.7520 C   0  0  0  0  0  2  0  0  0  0  0  0
  190.0920  176.0970  147.4690 C   0  0  0  0  0  2  0  0  0  0  0  0
  191.4740  176.6210  147.3060 C   0  0  0  0  0  0  0  0  0  0  0  0
  192.1200  177.2260  148.3760 O   0  0  0  0  0  1  0  0  0  0  0  0
  192.0510  176.5360  146.1900 O   0  0  0  0  0  0  0  0  0  0  0  0
  1 16  1  0  0  0  0
  1 28  1  1  0  0  0
  2 23  1  0  0  0  0
  4 11  1  0  0  0  0
  6 18  1  0  0  0  0
  6  5  2  0  0  0  0
  7 19  2  0  0  0  0
  8 17  2  0  0  0  0
  9 15  1  0  0  0  0
 10  1  1  0  0  0  0
 11  3  2  0  0  0  0
 11 13  1  0  0  0  0
 12  2  1  0  0  0  0
 12  8  1  0  0  0  0
 13 12  2  0  0  0  0
 14 26  1  0  0  0  0
 15 18  2  0  0  0  0
 17  7  1  0  0  0  0
 17 10  1  0  0  0  0
 19 16  1  0  0  0  0
 20  4  2  0  0  0  0
 20 21  1  0  0  0  0
 21 14  2  0  0  0  0
 21 13  1  0  0  0  0
 22 27  2  0  0  0  0
 22 14  1  0  0  0  0
 23 24  2  0  0  0  0
 23  7  1  0  0  0  0
 25  9  2  0  0  0  0
 25 27  1  0  0  0  0
 26  5  1  0  0  0  0
 26  2  2  0  0  0  0
 27  6  1  0  0  0  0
 29 28  1  0  0  0  0
 30 29  1  0  0  0  0
 30 31  1  0  0  0  0
 32 30  2  0  0  0  0
M  END
>  <MODEL>
4

>  <REMARK>
 VINA RESULT:      -9.9      1.023      1.209
  Name = 
  3 active torsions:
  status: ('A' for Active; 'I' for Inactive)
    1  A    between atoms: C_1  and  C_10
    2  A    between atoms: C_2  and  C_24
    3  A    between atoms: C_10  and  C_24
                            x       y       z     vdW  Elec       q    Type
                         _______ _______ _______ _____ _____    ______ ____

>  <TORSDO>
F 3

$$$$
=
 OpenBabel10272413413D

 32 37  0  0  1  0  0  0  0  0999 V2000
  184.7120  178.0660  138.2760 C   0  0  2  0  0  3  0  0  0  0  0  0
  187.0310  177.9220  142.9070 C   0  0  0  0  0  0  0  0  0  0  0  0
  182.8760  179.1360  144.2540 O   0  0  0  0  0  0  0  0  0  0  0  0
  183.9390  178.7920  146.3460 N   0  0  0  0  0  0  0  0  0  0  0  0
  189.1760  177.2520  143.9620 C   0  0  0  0  0  3  0  0  0  0  0  0
  189.9290  177.0030  145.1090 C   0  0  0  0  0  0  0  0  0  0  0  0
  186.6370  178.1230  140.3870 C   0  0  0  0  0  0  0  0  0  0  0  0
  184.7980  178.5950  141.9300 C   0  0  0  0  0  3  0  0  0  0  0  0
  191.3880  176.5200  147.4020 N   0  0  0  0  0  0  0  0  0  0  0  0
  184.2820  178.7930  139.5490 C   0  0  0  0  0  2  0  0  0  0  0  0
  183.8970  178.8240  144.9210 C   0  0  0  0  0  0  0  0  0  0  0  0
  185.6780  178.3220  143.0850 C   0  0  0  0  0  0  0  0  0  0  0  0
  185.1890  178.4500  144.3860 C   0  0  0  0  0  0  0  0  0  0  0  0
  187.2860  177.8050  145.3660 C   0  0  0  0  0  0  0  0  0  0  0  0
  191.9820  176.3580  146.1870 C   0  0  0  0  0  3  0  0  0  0  0  0
  186.1720  178.3990  137.9620 C   0  0  0  0  0  2  0  0  0  0  0  0
  185.2290  178.4900  140.6730 C   0  0  0  0  0  0  0  0  0  0  0  0
  191.2610  176.5980  145.0140 C   0  0  0  0  0  3  0  0  0  0  0  0
  187.0620  178.0390  139.1190 C   0  0  0  0  0  3  0  0  0  0  0  0
  185.1410  178.4300  146.6840 C   0  0  0  0  0  3  0  0  0  0  0  0
  185.9590  178.2040  145.4860 C   0  0  0  0  0  0  0  0  0  0  0  0
  188.0380  177.5570  146.4730 N   0  0  0  0  0  0  0  0  0  0  0  0
  187.5430  177.8060  141.5100 C   0  0  0  0  0  0  0  0  0  0  0  0
  188.7300  177.4520  141.2740 O   0  0  0  0  0  0  0  0  0  0  0  0
  190.0910  176.9140  147.5190 C   0  0  0  0  0  3  0  0  0  0  0  0
  187.8380  177.6590  144.0620 C   0  0  0  0  0  0  0  0  0  0  0  0
  189.3340  177.1640  146.3740 C   0  0  0  0  0  0  0  0  0  0  0  0
  183.8130  178.4830  137.1260 C   0  0  0  0  0  2  0  0  0  0  0  0
  182.3850  178.0310  137.3770 C   0  0  0  0  0  2  0  0  0  0  0  0
  181.4700  179.2030  137.3300 C   0  0  0  0  0  0  0  0  0  0  0  0
  181.0050  179.7710  138.5080 O   0  0  0  0  0  1  0  0  0  0  0  0
  181.0980  179.6660  136.2200 O   0  0  0  0  0  0  0  0  0  0  0  0
  1 28  1  6  0  0  0
  1 10  1  0  0  0  0
  2 12  2  0  0  0  0
  2 26  1  0  0  0  0
  3 11  2  0  0  0  0
  4 20  2  0  0  0  0
  5 26  2  0  0  0  0
  5  6  1  0  0  0  0
  6 27  1  0  0  0  0
  7 17  1  0  0  0  0
  7 23  1  0  0  0  0
  8 12  1  0  0  0  0
  9 25  1  0  0  0  0
 10 17  1  0  0  0  0
 11  4  1  0  0  0  0
 12 13  1  0  0  0  0
 13 11  1  0  0  0  0
 13 21  2  0  0  0  0
 14 21  1  0  0  0  0
 14 22  2  0  0  0  0
 15  9  2  0  0  0  0
 16  1  1  0  0  0  0
 16 19  1  0  0  0  0
 17  8  2  0  0  0  0
 18  6  2  0  0  0  0
 18 15  1  0  0  0  0
 19  7  2  0  0  0  0
 21 20  1  0  0  0  0
 23  2  1  0  0  0  0
 24 23  2  0  0  0  0
 26 14  1  0  0  0  0
 27 22  1  0  0  0  0
 27 25  2  0  0  0  0
 28 29  1  0  0  0  0
 30 29  1  0  0  0  0
 30 31  1  0  0  0  0
 32 30  2  0  0  0  0
M  END
>  <MODEL>
5

>  <REMARK>
 VINA RESULT:      -9.7      3.495      9.168
  Name = 
  3 active torsions:
  status: ('A' for Active; 'I' for Inactive)
    1  A    between atoms: C_1  and  C_10
    2  A    between atoms: C_2  and  C_24
    3  A    between atoms: C_10  and  C_24
                            x       y       z     vdW  Elec       q    Type
                         _______ _______ _______ _____ _____    ______ ____

>  <TORSDO>
F 3

$$$$
=
 OpenBabel10272413413D

 32 37  0  0  1  0  0  0  0  0999 V2000
  192.0330  177.6640  140.1860 C   0  0  2  0  0  3  0  0  0  0  0  0
  187.4540  177.8960  142.6000 C   0  0  0  0  0  0  0  0  0  0  0  0
  190.1050  177.2160  146.2150 O   0  0  0  0  0  0  0  0  0  0  0  0
  188.0120  177.5960  147.2640 N   0  0  0  0  0  0  0  0  0  0  0  0
  185.0690  178.4150  142.1500 C   0  0  0  0  0  3  0  0  0  0  0  0
  183.7800  178.6660  142.6200 C   0  0  0  0  0  0  0  0  0  0  0  0
  189.2450  177.5590  140.8040 C   0  0  0  0  0  0  0  0  0  0  0  0
  189.8660  177.3900  143.1650 C   0  0  0  0  0  3  0  0  0  0  0  0
  181.2420  179.1580  143.5890 N   0  0  0  0  0  0  0  0  0  0  0  0
  191.6750  177.0770  141.5510 C   0  0  0  0  0  2  0  0  0  0  0  0
  188.8740  177.4670  146.1350 C   0  0  0  0  0  0  0  0  0  0  0  0
  188.4690  177.6520  143.5660 C   0  0  0  0  0  0  0  0  0  0  0  0
  188.1180  177.6680  144.9170 C   0  0  0  0  0  0  0  0  0  0  0  0
  185.8150  178.1610  144.4360 C   0  0  0  0  0  0  0  0  0  0  0  0
  181.4570  179.1710  142.2440 C   0  0  0  0  0  3  0  0  0  0  0  0
  191.0420  177.1610  139.1340 C   0  0  0  0  0  2  0  0  0  0  0  0
  190.2400  177.3600  141.8860 C   0  0  0  0  0  0  0  0  0  0  0  0
  182.7340  178.9240  141.7330 C   0  0  0  0  0  3  0  0  0  0  0  0
  189.6310  177.5090  139.5220 C   0  0  0  0  0  3  0  0  0  0  0  0
  186.8220  177.8550  146.8070 C   0  0  0  0  0  3  0  0  0  0  0  0
  186.8420  177.9100  145.3400 C   0  0  0  0  0  0  0  0  0  0  0  0
  184.5500  178.4070  144.8750 N   0  0  0  0  0  0  0  0  0  0  0  0
  187.8430  177.8600  141.1600 C   0  0  0  0  0  0  0  0  0  0  0  0
  186.9990  178.0720  140.2470 O   0  0  0  0  0  0  0  0  0  0  0  0
  182.2460  178.9090  144.4720 C   0  0  0  0  0  3  0  0  0  0  0  0
  186.1160  178.1570  143.0440 C   0  0  0  0  0  0  0  0  0  0  0  0
  183.5380  178.6580  144.0060 C   0  0  0  0  0  0  0  0  0  0  0  0
  193.4490  177.2610  139.8170 C   0  0  0  0  0  2  0  0  0  0  0  0
  193.4800  176.6400  138.4320 C   0  0  0  0  0  2  0  0  0  0  0  0
  194.2320  175.3570  138.4720 C   0  0  0  0  0  0  0  0  0  0  0  0
  195.3540  175.2330  139.2800 O   0  0  0  0  0  1  0  0  0  0  0  0
  193.8640  174.3900  137.7550 O   0  0  0  0  0  0  0  0  0  0  0  0
  1 28  1  6  0  0  0
  1 10  1  0  0  0  0
  2 26  2  0  0  0  0
  2 12  1  0  0  0  0
  5  6  2  0  0  0  0
  5 26  1  0  0  0  0
  6 27  1  0  0  0  0
  7 23  1  0  0  0  0
  7 17  1  0  0  0  0
  8 12  1  0  0  0  0
  9 25  2  0  0  0  0
 10 17  1  0  0  0  0
 11  3  2  0  0  0  0
 11  4  1  0  0  0  0
 12 13  2  0  0  0  0
 13 21  1  0  0  0  0
 13 11  1  0  0  0  0
 14 22  1  0  0  0  0
 14 21  2  0  0  0  0
 15  9  1  0  0  0  0
 16 19  1  0  0  0  0
 16  1  1  0  0  0  0
 17  8  2  0  0  0  0
 18 15  2  0  0  0  0
 18  6  1  0  0  0  0
 19  7  2  0  0  0  0
 20  4  2  0  0  0  0
 21 20  1  0  0  0  0
 23  2  1  0  0  0  0
 24 23  2  0  0  0  0
 26 14  1  0  0  0  0
 27 25  1  0  0  0  0
 27 22  2  0  0  0  0
 29 30  1  0  0  0  0
 29 28  1  0  0  0  0
 30 31  1  0  0  0  0
 32 30  2  0  0  0  0
M  END
>  <MODEL>
6

>  <REMARK>
 VINA RESULT:      -9.6      3.388      5.705
  Name = 
  3 active torsions:
  status: ('A' for Active; 'I' for Inactive)
    1  A    between atoms: C_1  and  C_10
    2  A    between atoms: C_2  and  C_24
    3  A    between atoms: C_10  and  C_24
                            x       y       z     vdW  Elec       q    Type
                         _______ _______ _______ _____ _____    ______ ____

>  <TORSDO>
F 3

$$$$
=
 OpenBabel10272413413D

 32 37  0  0  1  0  0  0  0  0999 V2000
  187.3210  177.7670  137.2640 C   0  0  2  0  0  3  0  0  0  0  0  0
  187.0500  178.1410  142.4250 C   0  0  0  0  0  0  0  0  0  0  0  0
  182.7050  178.9880  141.4430 O   0  0  0  0  0  0  0  0  0  0  0  0
  182.6130  178.8820  143.8100 N   0  0  0  0  0  0  0  0  0  0  0  0
  188.4290  177.7640  144.4540 C   0  0  0  0  0  3  0  0  0  0  0  0
  188.5300  177.6640  145.8410 C   0  0  0  0  0  0  0  0  0  0  0  0
  187.9420  178.1500  140.0270 C   0  0  0  0  0  0  0  0  0  0  0  0
  185.5550  178.5160  140.4200 C   0  0  0  0  0  3  0  0  0  0  0  0
  188.6910  177.4730  148.5900 N   0  0  0  0  0  0  0  0  0  0  0  0
  186.2730  178.5180  138.0830 C   0  0  0  0  0  2  0  0  0  0  0  0
  183.2800  178.8250  142.5510 C   0  0  0  0  0  0  0  0  0  0  0  0
  185.7630  178.4060  141.8780 C   0  0  0  0  0  0  0  0  0  0  0  0
  184.6880  178.5580  142.7540 C   0  0  0  0  0  0  0  0  0  0  0  0
  186.0610  178.1970  144.6930 C   0  0  0  0  0  0  0  0  0  0  0  0
  189.8160  177.3040  147.8430 C   0  0  0  0  0  3  0  0  0  0  0  0
  188.7220  178.2320  137.6690 C   0  0  0  0  0  2  0  0  0  0  0  0
  186.5570  178.3830  139.5510 C   0  0  0  0  0  0  0  0  0  0  0  0
  189.7570  177.3970  146.4500 C   0  0  0  0  0  3  0  0  0  0  0  0
  188.9430  178.0370  139.1430 C   0  0  0  0  0  3  0  0  0  0  0  0
  183.5110  178.6700  144.7260 C   0  0  0  0  0  3  0  0  0  0  0  0
  184.8260  178.4610  144.1100 C   0  0  0  0  0  0  0  0  0  0  0  0
  186.1810  178.0960  146.0460 N   0  0  0  0  0  0  0  0  0  0  0  0
  188.1910  177.9980  141.4750 C   0  0  0  0  0  0  0  0  0  0  0  0
  189.3600  177.7580  141.8860 O   0  0  0  0  0  0  0  0  0  0  0  0
  187.4840  177.7350  148.0190 C   0  0  0  0  0  3  0  0  0  0  0  0
  187.1940  178.0330  143.8460 C   0  0  0  0  0  0  0  0  0  0  0  0
  187.3780  177.8350  146.6310 C   0  0  0  0  0  0  0  0  0  0  0  0
  187.0840  178.0180  135.7860 C   0  0  0  0  0  2  0  0  0  0  0  0
  186.0600  177.0400  135.2380 C   0  0  0  0  0  2  0  0  0  0  0  0
  186.6020  175.6560  135.3010 C   0  0  0  0  0  0  0  0  0  0  0  0
  187.8370  175.3660  134.7370 O   0  0  0  0  0  0  0  0  0  0  0  0
  185.9290  174.7420  135.8450 O   0  0  0  0  0  1  0  0  0  0  0  0
  1 28  1  6  0  0  0
  1 16  1  0  0  0  0
  1 10  1  0  0  0  0
  2 26  1  0  0  0  0
  3 11  2  0  0  0  0
  4 20  2  0  0  0  0
  5  6  1  0  0  0  0
  6 18  2  0  0  0  0
  6 27  1  0  0  0  0
  7 23  1  0  0  0  0
  8 12  1  0  0  0  0
 10 17  1  0  0  0  0
 11 13  1  0  0  0  0
 11  4  1  0  0  0  0
 12  2  2  0  0  0  0
 12 13  1  0  0  0  0
 13 21  2  0  0  0  0
 14 22  2  0  0  0  0
 15  9  2  0  0  0  0
 16 19  1  0  0  0  0
 17  7  1  0  0  0  0
 17  8  2  0  0  0  0
 18 15  1  0  0  0  0
 19  7  2  0  0  0  0
 21 14  1  0  0  0  0
 21 20  1  0  0  0  0
 22 27  1  0  0  0  0
 23 24  2  0  0  0  0
 23  2  1  0  0  0  0
 25  9  1  0  0  0  0
 26  5  2  0  0  0  0
 26 14  1  0  0  0  0
 27 25  2  0  0  0  0
 29 30  1  0  0  0  0
 29 28  1  0  0  0  0
 30 32  1  0  0  0  0
 31 30  2  0  0  0  0
M  END
>  <MODEL>
7

>  <REMARK>
 VINA RESULT:      -9.6      3.245      8.329
  Name = 
  3 active torsions:
  status: ('A' for Active; 'I' for Inactive)
    1  A    between atoms: C_1  and  C_10
    2  A    between atoms: C_2  and  C_24
    3  A    between atoms: C_10  and  C_24
                            x       y       z     vdW  Elec       q    Type
                         _______ _______ _______ _____ _____    ______ ____

>  <TORSDO>
F 3

$$$$
=
 OpenBabel10272413413D

 32 37  0  0  1  0  0  0  0  0999 V2000
  190.9470  176.0860  146.8020 C   0  0  2  0  0  3  0  0  0  0  0  0
  187.5470  177.8700  143.3220 C   0  0  0  0  0  0  0  0  0  0  0  0
  191.2050  177.6340  140.6540 O   0  0  0  0  0  0  0  0  0  0  0  0
  189.5340  178.1960  139.0680 N   0  0  0  0  0  0  0  0  0  0  0  0
  185.1220  178.3340  143.0680 C   0  0  0  0  0  3  0  0  0  0  0  0
  184.0340  178.6540  142.2560 C   0  0  0  0  0  0  0  0  0  0  0  0
  188.7150  177.3460  145.5370 C   0  0  0  0  0  0  0  0  0  0  0  0
  190.0260  177.3900  143.4710 C   0  0  0  0  0  3  0  0  0  0  0  0
  181.9060  179.2890  140.6160 N   0  0  0  0  0  0  0  0  0  0  0  0
  191.2550  176.8480  145.5130 C   0  0  0  0  0  2  0  0  0  0  0  0
  190.0050  177.8980  140.3800 C   0  0  0  0  0  0  0  0  0  0  0  0
  188.8180  177.7400  142.6960 C   0  0  0  0  0  0  0  0  0  0  0  0
  188.9040  177.9480  141.3180 C   0  0  0  0  0  0  0  0  0  0  0  0
  186.5520  178.4000  141.1180 C   0  0  0  0  0  0  0  0  0  0  0  0
  181.6910  179.1110  141.9490 C   0  0  0  0  0  3  0  0  0  0  0  0
  189.9490  176.8830  147.6440 C   0  0  0  0  0  2  0  0  0  0  0  0
  189.9860  177.1900  144.7880 C   0  0  0  0  0  0  0  0  0  0  0  0
  182.7550  178.7890  142.7960 C   0  0  0  0  0  3  0  0  0  0  0  0
  188.6930  177.1600  146.8640 C   0  0  0  0  0  3  0  0  0  0  0  0
  188.2550  178.4140  139.1630 C   0  0  0  0  0  3  0  0  0  0  0  0
  187.8170  178.2680  140.5560 C   0  0  0  0  0  0  0  0  0  0  0  0
  185.4780  178.7130  140.3430 N   0  0  0  0  0  0  0  0  0  0  0  0
  187.4760  177.6600  144.7970 C   0  0  0  0  0  0  0  0  0  0  0  0
  186.3830  177.7530  145.4210 O   0  0  0  0  0  0  0  0  0  0  0  0
  183.1450  179.1630  140.0670 C   0  0  0  0  0  3  0  0  0  0  0  0
  186.4060  178.1990  142.5210 C   0  0  0  0  0  0  0  0  0  0  0  0
  184.2360  178.8420  140.8760 C   0  0  0  0  0  0  0  0  0  0  0  0
  192.2330  175.8590  147.5760 C   0  0  0  0  0  2  0  0  0  0  0  0
  192.3910  176.9080  148.6620 C   0  0  0  0  0  2  0  0  0  0  0  0
  193.3950  176.4510  149.6610 C   0  0  0  0  0  0  0  0  0  0  0  0
  194.3880  177.3180  150.0960 O   0  0  0  0  0  1  0  0  0  0  0  0
  193.3570  175.2700  150.0950 O   0  0  0  0  0  0  0  0  0  0  0  0
  1 28  1  1  0  0  0
  1 16  1  0  0  0  0
  2 23  1  0  0  0  0
  4 20  2  0  0  0  0
  4 11  1  0  0  0  0
  6 18  1  0  0  0  0
  6  5  2  0  0  0  0
  7 19  2  0  0  0  0
  8 17  2  0  0  0  0
  9 15  1  0  0  0  0
 10  1  1  0  0  0  0
 11  3  2  0  0  0  0
 11 13  1  0  0  0  0
 12  2  1  0  0  0  0
 12  8  1  0  0  0  0
 13 12  2  0  0  0  0
 14 26  1  0  0  0  0
 15 18  2  0  0  0  0
 17 10  1  0  0  0  0
 17  7  1  0  0  0  0
 19 16  1  0  0  0  0
 20 21  1  0  0  0  0
 21 14  2  0  0  0  0
 21 13  1  0  0  0  0
 22 27  2  0  0  0  0
 22 14  1  0  0  0  0
 23 24  2  0  0  0  0
 23  7  1  0  0  0  0
 25  9  2  0  0  0  0
 25 27  1  0  0  0  0
 26  5  1  0  0  0  0
 26  2  2  0  0  0  0
 27  6  1  0  0  0  0
 28 29  1  0  0  0  0
 29 30  1  0  0  0  0
 30 32  2  0  0  0  0
 30 31  1  0  0  0  0
M  END
>  <MODEL>
8

>  <REMARK>
 VINA RESULT:      -9.6      1.400      2.033
  Name = 
  3 active torsions:
  status: ('A' for Active; 'I' for Inactive)
    1  A    between atoms: C_1  and  C_10
    2  A    between atoms: C_2  and  C_24
    3  A    between atoms: C_10  and  C_24
                            x       y       z     vdW  Elec       q    Type
                         _______ _______ _______ _____ _____    ______ ____

>  <TORSDO>
F 3

$$$$
=
 OpenBabel10272413413D

 32 37  0  0  1  0  0  0  0  0999 V2000
  187.8310  177.6270  136.7580 C   0  0  2  0  0  3  0  0  0  0  0  0
  188.3730  177.7240  141.9100 C   0  0  0  0  0  0  0  0  0  0  0  0
  184.0080  178.9230  141.6540 O   0  0  0  0  0  0  0  0  0  0  0  0
  184.2680  178.6890  143.9990 N   0  0  0  0  0  0  0  0  0  0  0  0
  190.0100  177.1370  143.6810 C   0  0  0  0  0  3  0  0  0  0  0  0
  190.3130  176.9510  145.0300 C   0  0  0  0  0  0  0  0  0  0  0  0
  188.8910  177.8080  139.4060 C   0  0  0  0  0  0  0  0  0  0  0  0
  186.6250  178.3150  140.1810 C   0  0  0  0  0  3  0  0  0  0  0  0
  190.8720  176.5930  147.7090 N   0  0  0  0  0  0  0  0  0  0  0  0
  186.9800  178.4010  137.7640 C   0  0  0  0  0  2  0  0  0  0  0  0
  184.7300  178.6580  142.6500 C   0  0  0  0  0  0  0  0  0  0  0  0
  187.0430  178.1070  141.5820 C   0  0  0  0  0  0  0  0  0  0  0  0
  186.1280  178.2830  142.6210 C   0  0  0  0  0  0  0  0  0  0  0  0
  187.7460  177.7180  144.3050 C   0  0  0  0  0  0  0  0  0  0  0  0
  191.8550  176.3890  146.7890 C   0  0  0  0  0  3  0  0  0  0  0  0
  189.3080  177.9710  136.9620 C   0  0  0  0  0  2  0  0  0  0  0  0
  187.4710  178.1630  139.1620 C   0  0  0  0  0  0  0  0  0  0  0  0
  191.5930  176.5650  145.4280 C   0  0  0  0  0  3  0  0  0  0  0  0
  189.7340  177.6760  138.3730 C   0  0  0  0  0  3  0  0  0  0  0  0
  185.2750  178.3630  144.7550 C   0  0  0  0  0  3  0  0  0  0  0  0
  186.4620  178.0990  143.9320 C   0  0  0  0  0  0  0  0  0  0  0  0
  188.0620  177.5310  145.6160 N   0  0  0  0  0  0  0  0  0  0  0  0
  189.3430  177.5560  140.7890 C   0  0  0  0  0  0  0  0  0  0  0  0
  190.5380  177.2130  141.0020 O   0  0  0  0  0  0  0  0  0  0  0  0
  189.6170  176.9690  147.3440 C   0  0  0  0  0  3  0  0  0  0  0  0
  188.7230  177.5240  143.2860 C   0  0  0  0  0  0  0  0  0  0  0  0
  189.3100  177.1560  145.9960 C   0  0  0  0  0  0  0  0  0  0  0  0
  187.3930  177.9780  135.3470 C   0  0  0  0  0  2  0  0  0  0  0  0
  186.8200  176.7580  134.6500 C   0  0  0  0  0  2  0  0  0  0  0  0
  185.4180  176.5350  135.0940 C   0  0  0  0  0  0  0  0  0  0  0  0
  185.1080  175.4530  135.9070 O   0  0  0  0  0  1  0  0  0  0  0  0
  184.5060  177.3170  134.7150 O   0  0  0  0  0  0  0  0  0  0  0  0
  1 28  1  6  0  0  0
  1 16  1  0  0  0  0
  1 10  1  0  0  0  0
  2 26  1  0  0  0  0
  3 11  2  0  0  0  0
  4 20  2  0  0  0  0
  5  6  1  0  0  0  0
  6 18  2  0  0  0  0
  6 27  1  0  0  0  0
  7 23  1  0  0  0  0
  8 12  1  0  0  0  0
 10 17  1  0  0  0  0
 11  4  1  0  0  0  0
 12  2  2  0  0  0  0
 12 13  1  0  0  0  0
 13 11  1  0  0  0  0
 13 21  2  0  0  0  0
 14 22  2  0  0  0  0
 15  9  2  0  0  0  0
 16 19  1  0  0  0  0
 17  7  1  0  0  0  0
 17  8  2  0  0  0  0
 18 15  1  0  0  0  0
 19  7  2  0  0  0  0
 21 14  1  0  0  0  0
 21 20  1  0  0  0  0
 22 27  1  0  0  0  0
 23 24  2  0  0  0  0
 23  2  1  0  0  0  0
 25  9  1  0  0  0  0
 26  5  2  0  0  0  0
 26 14  1  0  0  0  0
 27 25  2  0  0  0  0
 29 30  1  0  0  0  0
 29 28  1  0  0  0  0
 30 31  1  0  0  0  0
 32 30  2  0  0  0  0
M  END
>  <MODEL>
9

>  <REMARK>
 VINA RESULT:      -9.5      3.413      8.916
  Name = 
  3 active torsions:
  status: ('A' for Active; 'I' for Inactive)
    1  A    between atoms: C_1  and  C_10
    2  A    between atoms: C_2  and  C_24
    3  A    between atoms: C_10  and  C_24
                            x       y       z     vdW  Elec       q    Type
                         _______ _______ _______ _____ _____    ______ ____

>  <TORSDO>
F 3

$$$$
