=
 OpenBabel10272414313D

 43 49  0  0  1  0  0  0  0  0999 V2000
  187.7400  177.6870  147.7620 C   0  0  0  0  0  0  0  0  0  0  0  0
  186.1530  178.6140  143.0430 C   0  0  0  0  0  0  0  0  0  0  0  0
  188.2510  177.8660  141.3150 C   0  0  0  0  0  0  0  0  0  0  0  0
  186.4350  178.3330  145.8260 C   0  0  0  0  0  0  0  0  0  0  0  0
  188.7970  177.3090  146.9310 C   0  0  0  0  0  3  0  0  0  0  0  0
  187.8580  177.5530  149.1390 O   0  0  0  0  0  1  0  0  0  0  0  0
  187.5020  177.9530  144.9740 C   0  0  0  0  0  0  0  0  0  0  0  0
  186.5610  178.1970  147.2110 C   0  0  0  0  0  3  0  0  0  0  0  0
  188.6800  177.4410  145.5450 C   0  0  0  0  0  3  0  0  0  0  0  0
  188.3910  177.7270  142.7010 C   0  0  0  0  0  3  0  0  0  0  0  0
  187.3590  178.0940  143.5770 C   0  0  0  0  0  0  0  0  0  0  0  0
  185.1140  178.9830  143.9080 C   0  0  0  0  0  3  0  0  0  0  0  0
  186.0000  178.7550  141.6530 C   0  0  0  0  0  0  0  0  0  0  0  0
  187.0520  178.3810  140.8050 C   0  0  0  0  0  3  0  0  0  0  0  0
  185.2550  178.8430  145.2880 C   0  0  0  0  0  3  0  0  0  0  0  0
  189.3600  177.4640  140.4210 C   0  0  0  0  0  0  0  0  0  0  0  0
  190.8850  177.2950  141.0200 S   0  0  0  0  0  0  0  0  0  0  0  0
  189.0610  177.1620  139.0470 N   0  0  0  0  0  2  0  0  0  0  0  0
  188.9720  178.0710  137.9420 C   0  0  0  0  0  0  0  0  0  0  0  0
  189.0340  179.3170  138.1080 O   0  0  0  0  0  0  0  0  0  0  0  0
  188.7410  177.5300  136.5760 C   0  0  0  0  0  2  0  0  0  0  0  0
  189.4610  176.2720  136.4160 N   0  0  0  0  0  0  0  0  0  0  0  0
  188.8060  174.8470  134.5410 C   0  0  0  0  0  2  0  0  0  0  0  0
  187.2880  174.9320  136.7770 C   0  0  2  0  0  3  0  0  0  0  0  0
  190.3820  176.4740  135.3640 N   0  0  0  0  0  2  0  0  0  0  0  0
  188.5250  175.2660  135.9450 C   0  0  2  0  0  0  0  0  0  0  0  0
  188.5320  174.0650  136.8700 C   0  0  0  0  0  2  0  0  0  0  0  0
  190.1770  175.4370  134.3460 C   0  0  0  0  0  2  0  0  0  0  0  0
  186.2170  174.2410  135.9380 C   0  0  0  0  0  3  0  0  0  0  0  0
  185.0240  172.9650  137.7420 C   0  0  0  0  0  2  0  0  0  0  0  0
  184.1680  174.9760  137.1900 C   0  0  0  0  0  2  0  0  0  0  0  0
  183.8280  173.6310  137.4240 O   0  0  0  0  0  0  0  0  0  0  0  0
  184.9460  175.0950  135.8780 C   0  0  0  0  0  2  0  0  0  0  0  0
  185.9050  172.8480  136.4960 C   0  0  0  0  0  2  0  0  0  0  0  0
  184.8040  179.2700  141.1330 O   0  0  0  0  0  0  0  0  0  0  0  0
  182.1590  177.1000  139.5900 C   0  0  0  0  0  2  0  0  0  0  0  0
  181.5490  178.1540  138.7660 N   0  0  0  0  0  0  0  0  0  0  0  0
  183.4130  179.6870  139.2130 C   0  0  0  0  0  2  0  0  0  0  0  0
  182.9910  177.7260  140.7050 C   0  0  0  0  0  2  0  0  0  0  0  0
  184.0630  178.6310  140.0990 C   0  0  0  0  0  3  0  0  0  0  0  0
  182.5690  179.0070  138.1390 C   0  0  0  0  0  2  0  0  0  0  0  0
  180.6370  176.2220  137.9570 C   0  0  0  0  0  1  0  0  0  0  0  0
  180.6870  177.6290  137.8320 O   0  0  0  0  0  0  0  0  0  0  0  0
  1  6  1  0  0  0  0
  2 11  1  0  0  0  0
  2 12  1  0  0  0  0
  3 10  1  0  0  0  0
  4  8  2  0  0  0  0
  5  1  2  0  0  0  0
  7  9  2  0  0  0  0
  7  4  1  0  0  0  0
  8  1  1  0  0  0  0
  9  5  1  0  0  0  0
 10 11  2  0  0  0  0
 11  7  1  0  0  0  0
 12 15  2  0  0  0  0
 13  2  2  0  0  0  0
 14  3  2  0  0  0  0
 14 13  1  0  0  0  0
 15  4  1  0  0  0  0
 16 17  2  0  0  0  0
 16  3  1  0  0  0  0
 18 16  1  0  0  0  0
 19 20  2  0  0  0  0
 19 18  1  0  0  0  0
 21 19  1  0  0  0  0
 22 21  1  0  0  0  0
 24 29  1  6  0  0  0
 24 27  1  0  0  0  0
 25 22  1  0  0  0  0
 26 23  1  6  0  0  0
 26 22  1  0  0  0  0
 26 24  1  0  0  0  0
 26 27  1  0  0  0  0
 28 23  1  0  0  0  0
 28 25  1  0  0  0  0
 29 34  1  0  0  0  0
 31 32  1  0  0  0  0
 32 30  1  0  0  0  0
 33 29  1  0  0  0  0
 33 31  1  0  0  0  0
 34 30  1  0  0  0  0
 35 13  1  0  0  0  0
 36 39  1  0  0  0  0
 37 36  1  0  0  0  0
 38 40  1  0  0  0  0
 40 39  1  0  0  0  0
 40 35  1  0  0  0  0
 41 37  1  0  0  0  0
 41 38  1  0  0  0  0
 43 42  1  0  0  0  0
 43 37  1  0  0  0  0
M  END
>  <MODEL>
1

>  <REMARK>
 VINA RESULT:      -9.6      0.000      0.000
  Name = 
  8 active torsions:
  status: ('A' for Active; 'I' for Inactive)
    1  A    between atoms: O_1  and  C_34
    2  A    between atoms: O_1  and  C_35
    3  A    between atoms: C_2  and  N_6
    4  A    between atoms: C_2  and  C_13
    5  A    between atoms: C_3  and  N_4
    6  A    between atoms: C_3  and  C_12
    7  A    between atoms: C_11  and  C_14
    8  A    between atoms: N_19  and  O_37
                            x       y       z     vdW  Elec       q    Type
                         _______ _______ _______ _____ _____    ______ ____

>  <TORSDO>
F 8

$$$$
=
 OpenBabel10272414313D

 43 49  0  0  1  0  0  0  0  0999 V2000
  191.0260  176.7040  146.9500 C   0  0  0  0  0  0  0  0  0  0  0  0
  189.3900  177.7930  142.2830 C   0  0  0  0  0  0  0  0  0  0  0  0
  186.6130  178.2480  142.4770 C   0  0  0  0  0  0  0  0  0  0  0  0
  190.8850  177.1370  144.5710 C   0  0  0  0  0  0  0  0  0  0  0  0
  189.6520  176.9220  147.0760 C   0  0  0  0  0  3  0  0  0  0  0  0
  191.7830  176.3820  148.0680 O   0  0  0  0  0  1  0  0  0  0  0  0
  189.4910  177.3600  144.6890 C   0  0  0  0  0  0  0  0  0  0  0  0
  191.6420  176.8110  145.7000 C   0  0  0  0  0  3  0  0  0  0  0  0
  188.8880  177.2480  145.9530 C   0  0  0  0  0  3  0  0  0  0  0  0
  187.3590  177.9200  143.6160 C   0  0  0  0  0  3  0  0  0  0  0  0
  188.7410  177.6900  143.5400 C   0  0  0  0  0  0  0  0  0  0  0  0
  190.7700  177.5670  142.1940 C   0  0  0  0  0  3  0  0  0  0  0  0
  188.6520  178.1250  141.1330 C   0  0  0  0  0  0  0  0  0  0  0  0
  187.2710  178.3470  141.2430 C   0  0  0  0  0  3  0  0  0  0  0  0
  191.5110  177.2410  143.3290 C   0  0  0  0  0  3  0  0  0  0  0  0
  185.1580  178.4880  142.5960 C   0  0  0  0  0  0  0  0  0  0  0  0
  184.5700  179.4000  143.8350 S   0  0  0  0  0  0  0  0  0  0  0  0
  184.2900  177.9680  141.5750 N   0  0  0  0  0  2  0  0  0  0  0  0
  184.0520  178.4980  140.2640 C   0  0  0  0  0  0  0  0  0  0  0  0
  184.5230  179.6100  139.9080 O   0  0  0  0  0  0  0  0  0  0  0  0
  183.1780  177.7440  139.3250 C   0  0  0  0  0  2  0  0  0  0  0  0
  183.3340  178.2740  137.9750 N   0  0  0  0  0  0  0  0  0  0  0  0
  182.1820  177.0860  136.1760 C   0  0  0  0  0  2  0  0  0  0  0  0
  184.4770  176.0950  137.2070 C   0  0  2  0  0  3  0  0  0  0  0  0
  182.1390  178.9680  137.6810 N   0  0  0  0  0  2  0  0  0  0  0  0
  183.3900  177.1560  137.0500 C   0  0  2  0  0  0  0  0  0  0  0  0
  184.6500  177.2290  136.2100 C   0  0  0  0  0  2  0  0  0  0  0  0
  181.5770  178.4410  136.4320 C   0  0  0  0  0  2  0  0  0  0  0  0
  184.1070  174.8020  136.4850 C   0  0  0  0  0  3  0  0  0  0  0  0
  186.3920  174.0560  135.7550 C   0  0  0  0  0  2  0  0  0  0  0  0
  185.6210  173.2020  137.6930 C   0  0  0  0  0  2  0  0  0  0  0  0
  186.2330  172.8600  136.4740 O   0  0  0  0  0  0  0  0  0  0  0  0
  184.1670  173.6120  137.4490 C   0  0  0  0  0  2  0  0  0  0  0  0
  185.0280  174.5690  135.2830 C   0  0  0  0  0  2  0  0  0  0  0  0
  189.3010  178.2250  139.8940 O   0  0  0  0  0  0  0  0  0  0  0  0
  188.5180  177.4820  136.2990 C   0  0  0  0  0  2  0  0  0  0  0  0
  189.5560  176.4550  136.1200 N   0  0  0  0  0  0  0  0  0  0  0  0
  189.9870  176.3620  138.5350 C   0  0  0  0  0  2  0  0  0  0  0  0
  188.8370  178.3370  137.5220 C   0  0  0  0  0  2  0  0  0  0  0  0
  188.9400  177.4460  138.7590 C   0  0  0  0  0  3  0  0  0  0  0  0
  189.6370  175.5600  137.2840 C   0  0  0  0  0  2  0  0  0  0  0  0
  190.2900  174.6780  134.8870 C   0  0  0  0  0  1  0  0  0  0  0  0
  189.3730  175.7510  134.9540 O   0  0  0  0  0  0  0  0  0  0  0  0
  1  5  1  0  0  0  0
  1  6  1  0  0  0  0
  2 11  1  0  0  0  0
  3 16  1  0  0  0  0
  3 10  1  0  0  0  0
  4  7  2  0  0  0  0
  4  8  1  0  0  0  0
  7  9  1  0  0  0  0
  8  1  2  0  0  0  0
  9  5  2  0  0  0  0
 11 10  2  0  0  0  0
 11  7  1  0  0  0  0
 12  2  1  0  0  0  0
 12 15  2  0  0  0  0
 13 14  1  0  0  0  0
 13  2  2  0  0  0  0
 14  3  2  0  0  0  0
 15  4  1  0  0  0  0
 16 17  2  0  0  0  0
 18 16  1  0  0  0  0
 19 18  1  0  0  0  0
 20 19  2  0  0  0  0
 21 19  1  0  0  0  0
 22 21  1  0  0  0  0
 23 28  1  0  0  0  0
 24 29  1  6  0  0  0
 25 22  1  0  0  0  0
 26 23  1  6  0  0  0
 26 24  1  0  0  0  0
 26 22  1  0  0  0  0
 27 26  1  0  0  0  0
 27 24  1  0  0  0  0
 28 25  1  0  0  0  0
 29 33  1  0  0  0  0
 30 32  1  0  0  0  0
 32 31  1  0  0  0  0
 33 31  1  0  0  0  0
 34 30  1  0  0  0  0
 34 29  1  0  0  0  0
 35 13  1  0  0  0  0
 36 39  1  0  0  0  0
 37 36  1  0  0  0  0
 37 41  1  0  0  0  0
 38 40  1  0  0  0  0
 39 40  1  0  0  0  0
 40 35  1  0  0  0  0
 41 38  1  0  0  0  0
 42 43  1  0  0  0  0
 43 37  1  0  0  0  0
M  END
>  <MODEL>
2

>  <REMARK>
 VINA RESULT:      -9.3      2.194      5.477
  Name = 
  8 active torsions:
  status: ('A' for Active; 'I' for Inactive)
    1  A    between atoms: O_1  and  C_34
    2  A    between atoms: O_1  and  C_35
    3  A    between atoms: C_2  and  N_6
    4  A    between atoms: C_2  and  C_13
    5  A    between atoms: C_3  and  N_4
    6  A    between atoms: C_3  and  C_12
    7  A    between atoms: C_11  and  C_14
    8  A    between atoms: N_19  and  O_37
                            x       y       z     vdW  Elec       q    Type
                         _______ _______ _______ _____ _____    ______ ____

>  <TORSDO>
F 8

$$$$
=
 OpenBabel10272414313D

 43 49  0  0  1  0  0  0  0  0999 V2000
  191.5030  176.3200  147.1920 C   0  0  0  0  0  0  0  0  0  0  0  0
  187.6920  177.8930  144.2520 C   0  0  0  0  0  0  0  0  0  0  0  0
  188.5410  177.5850  141.5810 C   0  0  0  0  0  0  0  0  0  0  0  0
  189.3920  177.1810  146.3740 C   0  0  0  0  0  0  0  0  0  0  0  0
  191.9520  176.1580  145.8790 C   0  0  0  0  0  3  0  0  0  0  0  0
  192.3260  175.9720  148.2540 O   0  0  0  0  0  1  0  0  0  0  0  0
  189.8380  177.0210  145.0390 C   0  0  0  0  0  0  0  0  0  0  0  0
  190.2260  176.8300  147.4390 C   0  0  0  0  0  3  0  0  0  0  0  0
  191.1250  176.5060  144.8080 C   0  0  0  0  0  3  0  0  0  0  0  0
  189.3870  177.2310  142.6380 C   0  0  0  0  0  3  0  0  0  0  0  0
  188.9830  177.3770  143.9740 C   0  0  0  0  0  0  0  0  0  0  0  0
  187.2760  178.0430  145.5820 C   0  0  0  0  0  3  0  0  0  0  0  0
  186.8320  178.2480  143.1980 C   0  0  0  0  0  0  0  0  0  0  0  0
  187.2670  178.0910  141.8740 C   0  0  0  0  0  3  0  0  0  0  0  0
  188.1200  177.6890  146.6340 C   0  0  0  0  0  3  0  0  0  0  0  0
  188.9990  177.4130  140.1840 C   0  0  0  0  0  0  0  0  0  0  0  0
  190.6060  177.2660  139.8540 S   0  0  0  0  0  0  0  0  0  0  0  0
  188.0120  177.3080  139.1440 N   0  0  0  0  0  2  0  0  0  0  0  0
  187.8210  178.1740  138.0180 C   0  0  0  0  0  0  0  0  0  0  0  0
  188.4680  179.2470  137.8950 O   0  0  0  0  0  0  0  0  0  0  0  0
  186.7900  177.8270  137.0030 C   0  0  0  0  0  2  0  0  0  0  0  0
  186.7280  176.3790  136.8410 N   0  0  0  0  0  0  0  0  0  0  0  0
  185.4780  175.5290  134.9200 C   0  0  0  0  0  2  0  0  0  0  0  0
  184.1640  176.4150  137.1110 C   0  0  2  0  0  3  0  0  0  0  0  0
  187.6500  176.0540  135.8210 N   0  0  0  0  0  2  0  0  0  0  0  0
  185.4150  176.0330  136.3230 C   0  0  2  0  0  0  0  0  0  0  0  0
  184.7440  175.0160  137.2230 C   0  0  0  0  0  2  0  0  0  0  0  0
  186.9580  175.2900  134.7780 C   0  0  0  0  0  2  0  0  0  0  0  0
  182.9200  176.4080  136.2260 C   0  0  0  0  0  3  0  0  0  0  0  0
  181.1440  176.2670  137.9960 C   0  0  0  0  0  2  0  0  0  0  0  0
  181.6680  178.3290  137.2520 C   0  0  0  0  0  2  0  0  0  0  0  0
  180.5890  177.4740  137.5370 O   0  0  0  0  0  0  0  0  0  0  0  0
  182.4080  177.8360  136.0060 C   0  0  0  0  0  2  0  0  0  0  0  0
  181.8240  175.5300  136.8390 C   0  0  0  0  0  2  0  0  0  0  0  0
  185.5560  178.7570  143.4810 O   0  0  0  0  0  0  0  0  0  0  0  0
  181.8890  178.4900  142.7310 C   0  0  0  0  0  2  0  0  0  0  0  0
  181.9770  178.9530  141.3370 N   0  0  0  0  0  0  0  0  0  0  0  0
  184.4260  178.7790  141.3560 C   0  0  0  0  0  2  0  0  0  0  0  0
  183.1410  178.9020  143.4980 C   0  0  0  0  0  2  0  0  0  0  0  0
  184.3780  178.3250  142.8100 C   0  0  0  0  0  3  0  0  0  0  0  0
  183.1380  178.3710  140.6470 C   0  0  0  0  0  2  0  0  0  0  0  0
  180.0020  177.8080  141.3730 C   0  0  0  0  0  1  0  0  0  0  0  0
  180.8100  178.7150  140.6510 O   0  0  0  0  0  0  0  0  0  0  0  0
  1  8  1  0  0  0  0
  1  6  1  0  0  0  0
  2 12  1  0  0  0  0
  3 14  2  0  0  0  0
  3 10  1  0  0  0  0
  4 15  1  0  0  0  0
  4  8  2  0  0  0  0
  5  1  2  0  0  0  0
  7  4  1  0  0  0  0
  9  7  2  0  0  0  0
  9  5  1  0  0  0  0
 10 11  2  0  0  0  0
 11  2  1  0  0  0  0
 11  7  1  0  0  0  0
 12 15  2  0  0  0  0
 13 35  1  0  0  0  0
 13  2  2  0  0  0  0
 14 13  1  0  0  0  0
 16  3  1  0  0  0  0
 17 16  2  0  0  0  0
 18 16  1  0  0  0  0
 19 18  1  0  0  0  0
 20 19  2  0  0  0  0
 21 19  1  0  0  0  0
 22 21  1  0  0  0  0
 24 29  1  6  0  0  0
 24 27  1  0  0  0  0
 25 22  1  0  0  0  0
 26 23  1  6  0  0  0
 26 22  1  0  0  0  0
 26 24  1  0  0  0  0
 26 27  1  0  0  0  0
 28 23  1  0  0  0  0
 28 25  1  0  0  0  0
 29 34  1  0  0  0  0
 31 32  1  0  0  0  0
 32 30  1  0  0  0  0
 33 29  1  0  0  0  0
 33 31  1  0  0  0  0
 34 30  1  0  0  0  0
 36 39  1  0  0  0  0
 37 36  1  0  0  0  0
 38 40  1  0  0  0  0
 40 35  1  0  0  0  0
 40 39  1  0  0  0  0
 41 37  1  0  0  0  0
 41 38  1  0  0  0  0
 43 37  1  0  0  0  0
 43 42  1  0  0  0  0
M  END
>  <MODEL>
3

>  <REMARK>
 VINA RESULT:      -9.2      1.931      3.092
  Name = 
  8 active torsions:
  status: ('A' for Active; 'I' for Inactive)
    1  A    between atoms: O_1  and  C_34
    2  A    between atoms: O_1  and  C_35
    3  A    between atoms: C_2  and  N_6
    4  A    between atoms: C_2  and  C_13
    5  A    between atoms: C_3  and  N_4
    6  A    between atoms: C_3  and  C_12
    7  A    between atoms: C_11  and  C_14
    8  A    between atoms: N_19  and  O_37
                            x       y       z     vdW  Elec       q    Type
                         _______ _______ _______ _____ _____    ______ ____

>  <TORSDO>
F 8

$$$$
=
 OpenBabel10272414313D

 43 49  0  0  1  0  0  0  0  0999 V2000
  181.7500  178.8990  142.2480 C   0  0  0  0  0  0  0  0  0  0  0  0
  186.4810  178.2190  143.9240 C   0  0  0  0  0  0  0  0  0  0  0  0
  188.0890  177.7390  141.6580 C   0  0  0  0  0  0  0  0  0  0  0  0
  183.7210  178.6760  143.6380 C   0  0  0  0  0  0  0  0  0  0  0  0
  182.5220  178.6620  141.1070 C   0  0  0  0  0  3  0  0  0  0  0  0
  180.3870  179.1300  142.1270 O   0  0  0  0  0  1  0  0  0  0  0  0
  184.5130  178.4350  142.4870 C   0  0  0  0  0  0  0  0  0  0  0  0
  182.3490  178.9060  143.5100 C   0  0  0  0  0  3  0  0  0  0  0  0
  183.8950  178.4310  141.2240 C   0  0  0  0  0  3  0  0  0  0  0  0
  186.7140  177.9660  141.5160 C   0  0  0  0  0  3  0  0  0  0  0  0
  185.8980  178.2070  142.6310 C   0  0  0  0  0  0  0  0  0  0  0  0
  185.6750  178.4590  145.0460 C   0  0  0  0  0  3  0  0  0  0  0  0
  187.8600  177.9960  144.0780 C   0  0  0  0  0  0  0  0  0  0  0  0
  188.6480  177.7570  142.9430 C   0  0  0  0  0  3  0  0  0  0  0  0
  184.3070  178.6860  144.9030 C   0  0  0  0  0  3  0  0  0  0  0  0
  188.9200  177.4940  140.4580 C   0  0  0  0  0  0  0  0  0  0  0  0
  190.5390  177.2330  140.6140 S   0  0  0  0  0  0  0  0  0  0  0  0
  188.2730  177.4200  139.1770 N   0  0  0  0  0  2  0  0  0  0  0  0
  188.3720  178.3420  138.0830 C   0  0  0  0  0  0  0  0  0  0  0  0
  188.9830  179.4360  138.1980 O   0  0  0  0  0  0  0  0  0  0  0  0
  187.6850  178.0230  136.8020 C   0  0  0  0  0  2  0  0  0  0  0  0
  187.8120  176.5990  136.5170 N   0  0  0  0  0  0  0  0  0  0  0  0
  186.5460  175.7300  134.6150 C   0  0  0  0  0  2  0  0  0  0  0  0
  185.2980  176.2420  136.9590 C   0  0  2  0  0  3  0  0  0  0  0  0
  188.6880  176.4920  135.4130 N   0  0  0  0  0  2  0  0  0  0  0  0
  186.5240  176.1080  136.0590 C   0  0  2  0  0  0  0  0  0  0  0  0
  186.0730  174.9370  136.9080 C   0  0  0  0  0  2  0  0  0  0  0  0
  188.0290  175.7200  134.3550 C   0  0  0  0  0  2  0  0  0  0  0  0
  184.0010  176.1240  136.1620 C   0  0  0  0  0  3  0  0  0  0  0  0
  182.5040  175.1570  137.9310 C   0  0  0  0  0  2  0  0  0  0  0  0
  182.4590  177.3960  137.6820 C   0  0  0  0  0  2  0  0  0  0  0  0
  181.6410  176.2590  137.8050 O   0  0  0  0  0  0  0  0  0  0  0  0
  183.1550  177.3910  136.3190 C   0  0  0  0  0  2  0  0  0  0  0  0
  183.2070  174.8880  136.5980 C   0  0  0  0  0  2  0  0  0  0  0  0
  188.4290  178.0100  145.3600 O   0  0  0  0  0  0  0  0  0  0  0  0
  191.7920  176.3600  145.5940 C   0  0  0  0  0  2  0  0  0  0  0  0
  191.9430  176.5130  147.0500 N   0  0  0  0  0  0  0  0  0  0  0  0
  189.5960  177.1880  147.2980 C   0  0  0  0  0  2  0  0  0  0  0  0
  190.7330  177.3280  145.0760 C   0  0  0  0  0  2  0  0  0  0  0  0
  189.4070  177.0700  145.7900 C   0  0  0  0  0  3  0  0  0  0  0  0
  190.6860  176.2240  147.7560 C   0  0  0  0  0  2  0  0  0  0  0  0
  193.1830  176.0240  148.9030 C   0  0  0  0  0  1  0  0  0  0  0  0
  192.9800  175.7510  147.5320 O   0  0  0  0  0  0  0  0  0  0  0  0
  1  8  1  0  0  0  0
  2 13  1  0  0  0  0
  2 12  1  0  0  0  0
  3 14  1  0  0  0  0
  4 15  1  0  0  0  0
  5  9  1  0  0  0  0
  5  1  2  0  0  0  0
  6  1  1  0  0  0  0
  7 11  1  0  0  0  0
  7  4  1  0  0  0  0
  8  4  2  0  0  0  0
  9  7  2  0  0  0  0
 10  3  2  0  0  0  0
 10 11  1  0  0  0  0
 11  2  2  0  0  0  0
 13 35  1  0  0  0  0
 14 13  2  0  0  0  0
 15 12  2  0  0  0  0
 16 17  2  0  0  0  0
 16  3  1  0  0  0  0
 18 16  1  0  0  0  0
 19 20  2  0  0  0  0
 19 18  1  0  0  0  0
 21 19  1  0  0  0  0
 22 21  1  0  0  0  0
 24 29  1  6  0  0  0
 25 22  1  0  0  0  0
 26 23  1  6  0  0  0
 26 22  1  0  0  0  0
 26 27  1  0  0  0  0
 26 24  1  0  0  0  0
 27 24  1  0  0  0  0
 28 23  1  0  0  0  0
 28 25  1  0  0  0  0
 29 33  1  0  0  0  0
 29 34  1  0  0  0  0
 31 32  1  0  0  0  0
 32 30  1  0  0  0  0
 33 31  1  0  0  0  0
 34 30  1  0  0  0  0
 35 40  1  0  0  0  0
 36 37  1  0  0  0  0
 37 43  1  0  0  0  0
 37 41  1  0  0  0  0
 38 41  1  0  0  0  0
 39 36  1  0  0  0  0
 39 40  1  0  0  0  0
 40 38  1  0  0  0  0
 43 42  1  0  0  0  0
M  END
>  <MODEL>
4

>  <REMARK>
 VINA RESULT:      -9.1      2.412      6.406
  Name = 
  8 active torsions:
  status: ('A' for Active; 'I' for Inactive)
    1  A    between atoms: O_1  and  C_34
    2  A    between atoms: O_1  and  C_35
    3  A    between atoms: C_2  and  N_6
    4  A    between atoms: C_2  and  C_13
    5  A    between atoms: C_3  and  N_4
    6  A    between atoms: C_3  and  C_12
    7  A    between atoms: C_11  and  C_14
    8  A    between atoms: N_19  and  O_37
                            x       y       z     vdW  Elec       q    Type
                         _______ _______ _______ _____ _____    ______ ____

>  <TORSDO>
F 8

$$$$
=
 OpenBabel10272414313D

 43 49  0  0  1  0  0  0  0  0999 V2000
  191.4160  176.5740  147.0560 C   0  0  0  0  0  0  0  0  0  0  0  0
  187.2080  177.7650  144.5020 C   0  0  0  0  0  0  0  0  0  0  0  0
  187.9120  177.8710  141.7740 C   0  0  0  0  0  0  0  0  0  0  0  0
  189.1420  177.1430  146.4460 C   0  0  0  0  0  0  0  0  0  0  0  0
  191.7940  176.6210  145.7130 C   0  0  0  0  0  3  0  0  0  0  0  0
  192.3550  176.2660  148.0310 O   0  0  0  0  0  1  0  0  0  0  0  0
  189.5160  177.1930  145.0800 C   0  0  0  0  0  0  0  0  0  0  0  0
  190.0930  176.8340  147.4230 C   0  0  0  0  0  3  0  0  0  0  0  0
  190.8510  176.9290  144.7290 C   0  0  0  0  0  3  0  0  0  0  0  0
  188.8750  177.5620  142.7420 C   0  0  0  0  0  3  0  0  0  0  0  0
  188.5450  177.5050  144.1050 C   0  0  0  0  0  0  0  0  0  0  0  0
  186.8660  177.7090  145.8600 C   0  0  0  0  0  3  0  0  0  0  0  0
  186.2330  178.0730  143.5390 C   0  0  0  0  0  0  0  0  0  0  0  0
  186.5960  178.1230  142.1850 C   0  0  0  0  0  3  0  0  0  0  0  0
  187.8250  177.4010  146.8240 C   0  0  0  0  0  3  0  0  0  0  0  0
  188.2960  177.9180  140.3460 C   0  0  0  0  0  0  0  0  0  0  0  0
  187.1870  178.3420  139.2050 S   0  0  0  0  0  0  0  0  0  0  0  0
  189.6650  177.6550  139.9930 N   0  0  0  0  0  2  0  0  0  0  0  0
  190.1840  176.5640  139.2210 C   0  0  0  0  0  0  0  0  0  0  0  0
  189.4510  175.6060  138.8590 O   0  0  0  0  0  0  0  0  0  0  0  0
  191.6350  176.5330  138.8930 C   0  0  0  0  0  2  0  0  0  0  0  0
  191.8240  176.8030  137.4730 N   0  0  0  0  0  0  0  0  0  0  0  0
  191.9320  174.8700  135.9800 C   0  0  0  0  0  2  0  0  0  0  0  0
  194.0730  175.5420  137.4890 C   0  0  2  0  0  3  0  0  0  0  0  0
  190.5590  176.6410  136.8660 N   0  0  0  0  0  2  0  0  0  0  0  0
  192.6730  175.7620  136.9200 C   0  0  2  0  0  0  0  0  0  0  0  0
  193.8780  176.3740  136.2330 C   0  0  0  0  0  2  0  0  0  0  0  0
  190.6760  175.6730  135.7700 C   0  0  0  0  0  2  0  0  0  0  0  0
  194.6110  174.1590  137.1360 C   0  0  0  0  0  3  0  0  0  0  0  0
  197.0440  174.7140  136.8430 C   0  0  0  0  0  2  0  0  0  0  0  0
  196.4160  173.9570  138.8710 C   0  0  0  0  0  2  0  0  0  0  0  0
  197.3760  173.7980  137.8560 O   0  0  0  0  0  0  0  0  0  0  0  0
  195.0640  173.4190  138.3990 C   0  0  0  0  0  2  0  0  0  0  0  0
  195.7640  174.2660  136.1310 C   0  0  0  0  0  2  0  0  0  0  0  0
  184.9130  178.3280  143.9400 O   0  0  0  0  0  0  0  0  0  0  0  0
  182.7070  178.5130  140.9090 C   0  0  0  0  0  2  0  0  0  0  0  0
  181.4310  178.5150  141.6410 N   0  0  0  0  0  0  0  0  0  0  0  0
  182.5750  178.8750  143.7830 C   0  0  0  0  0  2  0  0  0  0  0  0
  183.8220  177.9860  141.8070 C   0  0  0  0  0  2  0  0  0  0  0  0
  183.9190  178.8490  143.0650 C   0  0  0  0  0  3  0  0  0  0  0  0
  181.4930  179.3770  142.8310 C   0  0  0  0  0  2  0  0  0  0  0  0
  180.2680  180.2650  140.7470 C   0  0  0  0  0  1  0  0  0  0  0  0
  180.3810  178.8580  140.8230 O   0  0  0  0  0  0  0  0  0  0  0  0
  1  8  1  0  0  0  0
  1  6  1  0  0  0  0
  2 12  1  0  0  0  0
  3 14  2  0  0  0  0
  3 10  1  0  0  0  0
  4 15  1  0  0  0  0
  4  8  2  0  0  0  0
  5  1  2  0  0  0  0
  7  4  1  0  0  0  0
  9  7  2  0  0  0  0
  9  5  1  0  0  0  0
 10 11  2  0  0  0  0
 11  2  1  0  0  0  0
 11  7  1  0  0  0  0
 12 15  2  0  0  0  0
 13 35  1  0  0  0  0
 13  2  2  0  0  0  0
 14 13  1  0  0  0  0
 16  3  1  0  0  0  0
 17 16  2  0  0  0  0
 18 16  1  0  0  0  0
 19 18  1  0  0  0  0
 20 19  2  0  0  0  0
 21 19  1  0  0  0  0
 22 21  1  0  0  0  0
 24 29  1  6  0  0  0
 25 22  1  0  0  0  0
 26 23  1  6  0  0  0
 26 22  1  0  0  0  0
 26 24  1  0  0  0  0
 27 26  1  0  0  0  0
 27 24  1  0  0  0  0
 28 23  1  0  0  0  0
 28 25  1  0  0  0  0
 29 33  1  0  0  0  0
 30 32  1  0  0  0  0
 32 31  1  0  0  0  0
 33 31  1  0  0  0  0
 34 30  1  0  0  0  0
 34 29  1  0  0  0  0
 36 37  1  0  0  0  0
 36 39  1  0  0  0  0
 37 41  1  0  0  0  0
 39 40  1  0  0  0  0
 40 38  1  0  0  0  0
 40 35  1  0  0  0  0
 41 38  1  0  0  0  0
 42 43  1  0  0  0  0
 43 37  1  0  0  0  0
M  END
>  <MODEL>
5

>  <REMARK>
 VINA RESULT:      -8.7      3.613      5.228
  Name = 
  8 active torsions:
  status: ('A' for Active; 'I' for Inactive)
    1  A    between atoms: O_1  and  C_34
    2  A    between atoms: O_1  and  C_35
    3  A    between atoms: C_2  and  N_6
    4  A    between atoms: C_2  and  C_13
    5  A    between atoms: C_3  and  N_4
    6  A    between atoms: C_3  and  C_12
    7  A    between atoms: C_11  and  C_14
    8  A    between atoms: N_19  and  O_37
                            x       y       z     vdW  Elec       q    Type
                         _______ _______ _______ _____ _____    ______ ____

>  <TORSDO>
F 8

$$$$
=
 OpenBabel10272414313D

 43 49  0  0  1  0  0  0  0  0999 V2000
  190.9120  176.8470  146.5310 C   0  0  0  0  0  0  0  0  0  0  0  0
  188.4870  178.1580  142.2830 C   0  0  0  0  0  0  0  0  0  0  0  0
  185.7540  178.3820  142.9400 C   0  0  0  0  0  0  0  0  0  0  0  0
  190.3670  177.4470  144.2490 C   0  0  0  0  0  0  0  0  0  0  0  0
  189.5650  176.9490  146.8850 C   0  0  0  0  0  3  0  0  0  0  0  0
  191.8560  176.5000  147.4880 O   0  0  0  0  0  1  0  0  0  0  0  0
  188.9970  177.5530  144.5980 C   0  0  0  0  0  0  0  0  0  0  0  0
  191.3130  177.0960  145.2160 C   0  0  0  0  0  3  0  0  0  0  0  0
  188.6120  177.2990  145.9260 C   0  0  0  0  0  3  0  0  0  0  0  0
  186.6900  178.0270  143.9180 C   0  0  0  0  0  3  0  0  0  0  0  0
  188.0540  177.9100  143.6110 C   0  0  0  0  0  0  0  0  0  0  0  0
  189.8470  178.0460  141.9640 C   0  0  0  0  0  3  0  0  0  0  0  0
  187.5560  178.5180  141.2940 C   0  0  0  0  0  0  0  0  0  0  0  0
  186.1990  178.6250  141.6330 C   0  0  0  0  0  3  0  0  0  0  0  0
  190.7790  177.6930  142.9400 C   0  0  0  0  0  3  0  0  0  0  0  0
  184.3240  178.5000  143.3010 C   0  0  0  0  0  0  0  0  0  0  0  0
  183.8900  178.8840  144.8430 S   0  0  0  0  0  0  0  0  0  0  0  0
  183.3380  178.3410  142.2670 N   0  0  0  0  0  2  0  0  0  0  0  0
  181.9920  178.8340  142.2470 C   0  0  0  0  0  0  0  0  0  0  0  0
  181.4780  179.3870  143.2540 O   0  0  0  0  0  0  0  0  0  0  0  0
  181.1640  178.6330  141.0270 C   0  0  0  0  0  2  0  0  0  0  0  0
  181.5950  179.5560  139.9830 N   0  0  0  0  0  0  0  0  0  0  0  0
  180.2480  179.6350  137.9450 C   0  0  0  0  0  2  0  0  0  0  0  0
  181.9800  177.5980  138.3510 C   0  0  2  0  0  3  0  0  0  0  0  0
  180.7350  180.6750  140.0630 N   0  0  0  0  0  2  0  0  0  0  0  0
  181.3360  178.9400  138.6930 C   0  0  2  0  0  0  0  0  0  0  0  0
  182.6050  178.8950  137.8660 C   0  0  0  0  0  2  0  0  0  0  0  0
  180.1250  180.9020  138.7490 C   0  0  0  0  0  2  0  0  0  0  0  0
  181.2460  176.8990  137.2090 C   0  0  0  0  0  3  0  0  0  0  0  0
  183.1540  175.6070  136.2090 C   0  0  0  0  0  2  0  0  0  0  0  0
  181.8710  174.5180  137.7070 C   0  0  0  0  0  2  0  0  0  0  0  0
  182.4610  174.4060  136.4370 O   0  0  0  0  0  0  0  0  0  0  0  0
  180.7250  175.5310  137.6620 C   0  0  0  0  0  2  0  0  0  0  0  0
  182.1600  176.7510  135.9880 C   0  0  0  0  0  2  0  0  0  0  0  0
  187.9910  178.7620  139.9830 O   0  0  0  0  0  0  0  0  0  0  0  0
  186.3550  177.1010  137.0420 C   0  0  0  0  0  2  0  0  0  0  0  0
  187.4730  177.2950  136.1070 N   0  0  0  0  0  0  0  0  0  0  0  0
  188.9700  177.9900  137.9240 C   0  0  0  0  0  2  0  0  0  0  0  0
  186.4890  178.0590  138.2220 C   0  0  0  0  0  2  0  0  0  0  0  0
  187.8280  177.8290  138.9210 C   0  0  0  0  0  3  0  0  0  0  0  0
  188.7680  177.0330  136.7530 C   0  0  0  0  0  2  0  0  0  0  0  0
  188.5650  176.0310  134.5500 C   0  0  0  0  0  1  0  0  0  0  0  0
  187.3150  176.5410  134.9680 O   0  0  0  0  0  0  0  0  0  0  0  0
  1  5  1  0  0  0  0
  1  6  1  0  0  0  0
  2 11  1  0  0  0  0
  3 16  1  0  0  0  0
  3 10  1  0  0  0  0
  4  7  2  0  0  0  0
  4  8  1  0  0  0  0
  7  9  1  0  0  0  0
  8  1  2  0  0  0  0
  9  5  2  0  0  0  0
 11 10  2  0  0  0  0
 11  7  1  0  0  0  0
 12  2  1  0  0  0  0
 12 15  2  0  0  0  0
 13 14  1  0  0  0  0
 13  2  2  0  0  0  0
 14  3  2  0  0  0  0
 15  4  1  0  0  0  0
 16 17  2  0  0  0  0
 18 16  1  0  0  0  0
 19 18  1  0  0  0  0
 19 20  2  0  0  0  0
 21 19  1  0  0  0  0
 22 25  1  0  0  0  0
 22 21  1  0  0  0  0
 23 26  1  0  0  0  0
 23 28  1  0  0  0  0
 24 29  1  6  0  0  0
 24 26  1  0  0  0  0
 26 27  1  6  0  0  0
 26 22  1  0  0  0  0
 27 24  1  0  0  0  0
 28 25  1  0  0  0  0
 29 33  1  0  0  0  0
 30 32  1  0  0  0  0
 32 31  1  0  0  0  0
 33 31  1  0  0  0  0
 34 30  1  0  0  0  0
 34 29  1  0  0  0  0
 35 13  1  0  0  0  0
 36 39  1  0  0  0  0
 37 41  1  0  0  0  0
 37 36  1  0  0  0  0
 38 40  1  0  0  0  0
 39 40  1  0  0  0  0
 40 35  1  0  0  0  0
 41 38  1  0  0  0  0
 42 43  1  0  0  0  0
 43 37  1  0  0  0  0
M  END
>  <MODEL>
6

>  <REMARK>
 VINA RESULT:      -8.6      2.465      6.137
  Name = 
  8 active torsions:
  status: ('A' for Active; 'I' for Inactive)
    1  A    between atoms: O_1  and  C_34
    2  A    between atoms: O_1  and  C_35
    3  A    between atoms: C_2  and  N_6
    4  A    between atoms: C_2  and  C_13
    5  A    between atoms: C_3  and  N_4
    6  A    between atoms: C_3  and  C_12
    7  A    between atoms: C_11  and  C_14
    8  A    between atoms: N_19  and  O_37
                            x       y       z     vdW  Elec       q    Type
                         _______ _______ _______ _____ _____    ______ ____

>  <TORSDO>
F 8

$$$$
=
 OpenBabel10272414313D

 43 49  0  0  1  0  0  0  0  0999 V2000
  191.3140  176.5720  146.8020 C   0  0  0  0  0  0  0  0  0  0  0  0
  186.9750  177.9480  144.5810 C   0  0  0  0  0  0  0  0  0  0  0  0
  187.5060  178.1710  141.8210 C   0  0  0  0  0  0  0  0  0  0  0  0
  189.0170  177.2060  146.3650 C   0  0  0  0  0  0  0  0  0  0  0  0
  191.6070  176.6760  145.4400 C   0  0  0  0  0  3  0  0  0  0  0  0
  192.3070  176.2040  147.6990 O   0  0  0  0  0  1  0  0  0  0  0  0
  189.3040  177.3140  144.9820 C   0  0  0  0  0  0  0  0  0  0  0  0
  190.0210  176.8360  147.2640 C   0  0  0  0  0  3  0  0  0  0  0  0
  190.6090  177.0450  144.5340 C   0  0  0  0  0  3  0  0  0  0  0  0
  188.5220  177.8020  142.7100 C   0  0  0  0  0  3  0  0  0  0  0  0
  188.2780  177.6860  144.0870 C   0  0  0  0  0  0  0  0  0  0  0  0
  186.7180  177.8340  145.9540 C   0  0  0  0  0  3  0  0  0  0  0  0
  185.9460  178.3160  143.6970 C   0  0  0  0  0  0  0  0  0  0  0  0
  186.2240  178.4240  142.3270 C   0  0  0  0  0  3  0  0  0  0  0  0
  187.7310  177.4660  146.8390 C   0  0  0  0  0  3  0  0  0  0  0  0
  187.7990  178.2790  140.3740 C   0  0  0  0  0  0  0  0  0  0  0  0
  186.5680  178.4120  139.2890 S   0  0  0  0  0  0  0  0  0  0  0  0
  189.1730  178.3330  139.9540 N   0  0  0  0  0  2  0  0  0  0  0  0
  190.1430  177.2780  139.9660 C   0  0  0  0  0  0  0  0  0  0  0  0
  189.8960  176.1630  140.4960 O   0  0  0  0  0  0  0  0  0  0  0  0
  191.4940  177.5270  139.3950 C   0  0  0  0  0  2  0  0  0  0  0  0
  192.0430  176.2830  138.8700 N   0  0  0  0  0  0  0  0  0  0  0  0
  192.7850  176.2910  136.5410 C   0  0  0  0  0  2  0  0  0  0  0  0
  190.1500  176.1310  137.1270 C   0  0  2  0  0  3  0  0  0  0  0  0
  193.4470  176.4450  138.8530 N   0  0  0  0  0  2  0  0  0  0  0  0
  191.6350  176.1530  137.4820 C   0  0  2  0  0  0  0  0  0  0  0  0
  190.9250  174.8320  137.2630 C   0  0  0  0  0  2  0  0  0  0  0  0
  193.9410  176.1750  137.4990 C   0  0  0  0  0  2  0  0  0  0  0  0
  189.9210  176.4650  135.6550 C   0  0  0  0  0  3  0  0  0  0  0  0
  187.8750  175.0730  135.2210 C   0  0  0  0  0  2  0  0  0  0  0  0
  187.5320  177.2320  135.7690 C   0  0  0  0  0  2  0  0  0  0  0  0
  187.1650  176.2290  134.8540 O   0  0  0  0  0  0  0  0  0  0  0  0
  188.9780  177.6640  135.5160 C   0  0  0  0  0  2  0  0  0  0  0  0
  189.3630  175.2500  134.9050 C   0  0  0  0  0  2  0  0  0  0  0  0
  184.6600  178.5730  144.1940 O   0  0  0  0  0  0  0  0  0  0  0  0
  182.4040  178.7580  141.2000 C   0  0  0  0  0  2  0  0  0  0  0  0
  181.1520  178.4970  141.9280 N   0  0  0  0  0  0  0  0  0  0  0  0
  182.2650  178.7890  144.0970 C   0  0  0  0  0  2  0  0  0  0  0  0
  183.5970  178.3060  142.0370 C   0  0  0  0  0  2  0  0  0  0  0  0
  183.5870  179.0340  143.3800 C   0  0  0  0  0  3  0  0  0  0  0  0
  181.1080  179.2270  143.2040 C   0  0  0  0  0  2  0  0  0  0  0  0
  180.3130  178.4320  139.8050 C   0  0  0  0  0  1  0  0  0  0  0  0
  180.0510  178.7700  141.1520 O   0  0  0  0  0  0  0  0  0  0  0  0
  1  8  1  0  0  0  0
  1  6  1  0  0  0  0
  2 12  1  0  0  0  0
  3 14  2  0  0  0  0
  3 10  1  0  0  0  0
  4 15  1  0  0  0  0
  4  8  2  0  0  0  0
  5  1  2  0  0  0  0
  7  4  1  0  0  0  0
  9  7  2  0  0  0  0
  9  5  1  0  0  0  0
 10 11  2  0  0  0  0
 11  2  1  0  0  0  0
 11  7  1  0  0  0  0
 12 15  2  0  0  0  0
 13 35  1  0  0  0  0
 13  2  2  0  0  0  0
 14 13  1  0  0  0  0
 16  3  1  0  0  0  0
 17 16  2  0  0  0  0
 18 19  1  0  0  0  0
 18 16  1  0  0  0  0
 19 20  2  0  0  0  0
 21 19  1  0  0  0  0
 22 21  1  0  0  0  0
 23 28  1  0  0  0  0
 24 29  1  6  0  0  0
 24 27  1  0  0  0  0
 24 26  1  0  0  0  0
 25 22  1  0  0  0  0
 26 23  1  6  0  0  0
 26 22  1  0  0  0  0
 27 26  1  0  0  0  0
 28 25  1  0  0  0  0
 32 30  1  0  0  0  0
 32 31  1  0  0  0  0
 33 29  1  0  0  0  0
 33 31  1  0  0  0  0
 34 30  1  0  0  0  0
 34 29  1  0  0  0  0
 36 37  1  0  0  0  0
 36 39  1  0  0  0  0
 37 41  1  0  0  0  0
 39 40  1  0  0  0  0
 40 38  1  0  0  0  0
 40 35  1  0  0  0  0
 41 38  1  0  0  0  0
 42 43  1  0  0  0  0
 43 37  1  0  0  0  0
M  END
>  <MODEL>
7

>  <REMARK>
 VINA RESULT:      -8.4      2.579      3.495
  Name = 
  8 active torsions:
  status: ('A' for Active; 'I' for Inactive)
    1  A    between atoms: O_1  and  C_34
    2  A    between atoms: O_1  and  C_35
    3  A    between atoms: C_2  and  N_6
    4  A    between atoms: C_2  and  C_13
    5  A    between atoms: C_3  and  N_4
    6  A    between atoms: C_3  and  C_12
    7  A    between atoms: C_11  and  C_14
    8  A    between atoms: N_19  and  O_37
                            x       y       z     vdW  Elec       q    Type
                         _______ _______ _______ _____ _____    ______ ____

>  <TORSDO>
F 8

$$$$
=
 OpenBabel10272414313D

 43 49  0  0  1  0  0  0  0  0999 V2000
  187.7280  177.6100  147.5590 C   0  0  0  0  0  0  0  0  0  0  0  0
  186.2090  178.7130  142.8550 C   0  0  0  0  0  0  0  0  0  0  0  0
  188.2210  177.7880  141.1100 C   0  0  0  0  0  0  0  0  0  0  0  0
  186.4790  178.3870  145.6340 C   0  0  0  0  0  0  0  0  0  0  0  0
  188.7420  177.1440  146.7190 C   0  0  0  0  0  3  0  0  0  0  0  0
  187.8410  177.4560  148.9340 O   0  0  0  0  0  1  0  0  0  0  0  0
  187.5020  177.9170  144.7740 C   0  0  0  0  0  0  0  0  0  0  0  0
  186.5980  178.2310  147.0180 C   0  0  0  0  0  3  0  0  0  0  0  0
  188.6310  177.2950  145.3340 C   0  0  0  0  0  3  0  0  0  0  0  0
  188.3550  177.6270  142.4940 C   0  0  0  0  0  3  0  0  0  0  0  0
  187.3650  178.0800  143.3790 C   0  0  0  0  0  0  0  0  0  0  0  0
  185.2120  179.1690  143.7290 C   0  0  0  0  0  3  0  0  0  0  0  0
  186.0620  178.8770  141.4670 C   0  0  0  0  0  0  0  0  0  0  0  0
  187.0710  178.4140  140.6100 C   0  0  0  0  0  3  0  0  0  0  0  0
  185.3470  179.0070  145.1070 C   0  0  0  0  0  3  0  0  0  0  0  0
  189.2840  177.2930  140.2070 C   0  0  0  0  0  0  0  0  0  0  0  0
  190.8550  177.2920  140.7010 S   0  0  0  0  0  0  0  0  0  0  0  0
  188.9050  176.7540  138.9290 N   0  0  0  0  0  2  0  0  0  0  0  0
  189.1360  177.3150  137.6300 C   0  0  0  0  0  0  0  0  0  0  0  0
  189.6190  178.4690  137.4880 O   0  0  0  0  0  0  0  0  0  0  0  0
  188.7390  176.5400  136.4240 C   0  0  0  0  0  2  0  0  0  0  0  0
  187.4490  177.0150  135.9370 N   0  0  0  0  0  0  0  0  0  0  0  0
  185.4520  176.1010  137.0090 C   0  0  0  0  0  2  0  0  0  0  0  0
  186.8080  174.6330  135.1870 C   0  0  2  0  0  3  0  0  0  0  0  0
  186.9870  177.9540  136.8860 N   0  0  0  0  0  2  0  0  0  0  0  0
  186.5110  175.9070  135.9750 C   0  0  2  0  0  0  0  0  0  0  0  0
  185.8880  175.6950  134.6100 C   0  0  0  0  0  2  0  0  0  0  0  0
  185.6490  177.5570  137.3360 C   0  0  0  0  0  2  0  0  0  0  0  0
  185.9960  173.4490  135.7070 C   0  0  0  0  0  3  0  0  0  0  0  0
  187.1790  171.5740  134.5260 C   0  0  0  0  0  2  0  0  0  0  0  0
  187.8590  172.0370  136.6250 C   0  0  0  0  0  2  0  0  0  0  0  0
  187.4880  170.9880  135.7660 O   0  0  0  0  0  0  0  0  0  0  0  0
  186.6310  172.8790  136.9790 C   0  0  0  0  0  2  0  0  0  0  0  0
  185.8720  172.3640  134.6330 C   0  0  0  0  0  2  0  0  0  0  0  0
  184.9160  179.5030  140.9570 O   0  0  0  0  0  0  0  0  0  0  0  0
  181.6640  177.7460  140.3070 C   0  0  0  0  0  2  0  0  0  0  0  0
  181.2040  178.6510  139.2420 N   0  0  0  0  0  0  0  0  0  0  0  0
  183.4110  179.7140  139.0900 C   0  0  0  0  0  2  0  0  0  0  0  0
  182.7590  178.4210  141.1280 C   0  0  0  0  0  2  0  0  0  0  0  0
  183.9170  178.8150  140.2120 C   0  0  0  0  0  3  0  0  0  0  0  0
  182.2980  179.0050  138.3250 C   0  0  0  0  0  2  0  0  0  0  0  0
  180.4670  176.8710  138.0160 C   0  0  0  0  0  1  0  0  0  0  0  0
  180.1280  178.1280  138.5660 O   0  0  0  0  0  0  0  0  0  0  0  0
  1  6  1  0  0  0  0
  2 11  1  0  0  0  0
  2 12  1  0  0  0  0
  3 10  1  0  0  0  0
  4  8  2  0  0  0  0
  5  1  2  0  0  0  0
  7  9  2  0  0  0  0
  7  4  1  0  0  0  0
  8  1  1  0  0  0  0
  9  5  1  0  0  0  0
 10 11  2  0  0  0  0
 11  7  1  0  0  0  0
 12 15  2  0  0  0  0
 13  2  2  0  0  0  0
 14  3  2  0  0  0  0
 14 13  1  0  0  0  0
 15  4  1  0  0  0  0
 16 17  2  0  0  0  0
 16  3  1  0  0  0  0
 18 16  1  0  0  0  0
 19 18  1  0  0  0  0
 20 19  2  0  0  0  0
 21 19  1  0  0  0  0
 22 26  1  0  0  0  0
 22 21  1  0  0  0  0
 22 25  1  0  0  0  0
 23 28  1  0  0  0  0
 24 29  1  1  0  0  0
 24 26  1  0  0  0  0
 25 28  1  0  0  0  0
 26 27  1  6  0  0  0
 26 23  1  0  0  0  0
 27 24  1  0  0  0  0
 29 33  1  0  0  0  0
 30 34  1  0  0  0  0
 30 32  1  0  0  0  0
 31 33  1  0  0  0  0
 32 31  1  0  0  0  0
 34 29  1  0  0  0  0
 35 13  1  0  0  0  0
 36 39  1  0  0  0  0
 37 36  1  0  0  0  0
 38 40  1  0  0  0  0
 40 35  1  0  0  0  0
 40 39  1  0  0  0  0
 41 38  1  0  0  0  0
 41 37  1  0  0  0  0
 42 43  1  0  0  0  0
 43 37  1  0  0  0  0
M  END
>  <MODEL>
8

>  <REMARK>
 VINA RESULT:      -8.4      1.364      2.049
  Name = 
  8 active torsions:
  status: ('A' for Active; 'I' for Inactive)
    1  A    between atoms: O_1  and  C_34
    2  A    between atoms: O_1  and  C_35
    3  A    between atoms: C_2  and  N_6
    4  A    between atoms: C_2  and  C_13
    5  A    between atoms: C_3  and  N_4
    6  A    between atoms: C_3  and  C_12
    7  A    between atoms: C_11  and  C_14
    8  A    between atoms: N_19  and  O_37
                            x       y       z     vdW  Elec       q    Type
                         _______ _______ _______ _____ _____    ______ ____

>  <TORSDO>
F 8

$$$$
=
 OpenBabel10272414313D

 43 49  0  0  1  0  0  0  0  0999 V2000
  191.5180  176.5270  138.2210 C   0  0  0  0  0  0  0  0  0  0  0  0
  186.6780  176.5090  136.7290 C   0  0  0  0  0  0  0  0  0  0  0  0
  185.2940  178.2810  138.4300 C   0  0  0  0  0  0  0  0  0  0  0  0
  189.4380  176.0860  137.0610 C   0  0  0  0  0  0  0  0  0  0  0  0
  190.8590  177.4090  139.0790 C   0  0  0  0  0  3  0  0  0  0  0  0
  192.8810  176.3070  138.3660 O   0  0  0  0  0  1  0  0  0  0  0  0
  188.7590  176.9790  137.9270 C   0  0  0  0  0  0  0  0  0  0  0  0
  190.8100  175.8670  137.2130 C   0  0  0  0  0  3  0  0  0  0  0  0
  189.4870  177.6350  138.9350 C   0  0  0  0  0  3  0  0  0  0  0  0
  186.6680  178.0690  138.5950 C   0  0  0  0  0  3  0  0  0  0  0  0
  187.3740  177.1910  137.7600 C   0  0  0  0  0  0  0  0  0  0  0  0
  187.3740  175.6300  135.8870 C   0  0  0  0  0  3  0  0  0  0  0  0
  185.3000  176.7160  136.5520 C   0  0  0  0  0  0  0  0  0  0  0  0
  184.6230  177.6000  137.4060 C   0  0  0  0  0  3  0  0  0  0  0  0
  188.7420  175.4210  136.0520 C   0  0  0  0  0  3  0  0  0  0  0  0
  184.5820  179.2180  139.3280 C   0  0  0  0  0  0  0  0  0  0  0  0
  183.1460  179.8770  138.8650 S   0  0  0  0  0  0  0  0  0  0  0  0
  185.1380  179.4800  140.6280 N   0  0  0  0  0  2  0  0  0  0  0  0
  184.8980  178.7700  141.8510 C   0  0  0  0  0  0  0  0  0  0  0  0
  184.0250  177.8660  141.9260 O   0  0  0  0  0  0  0  0  0  0  0  0
  185.6540  179.1540  143.0720 C   0  0  0  0  0  2  0  0  0  0  0  0
  185.5780  178.0810  144.0560 N   0  0  0  0  0  0  0  0  0  0  0  0
  186.8270  178.3870  146.1350 C   0  0  0  0  0  2  0  0  0  0  0  0
  188.1150  177.6690  143.8680 C   0  0  2  0  0  3  0  0  0  0  0  0
  184.6780  178.5200  145.0530 N   0  0  0  0  0  2  0  0  0  0  0  0
  186.8720  177.9620  144.7050 C   0  0  2  0  0  0  0  0  0  0  0  0
  187.3920  176.5430  144.5880 C   0  0  0  0  0  2  0  0  0  0  0  0
  185.3400  178.4420  146.3600 C   0  0  0  0  0  2  0  0  0  0  0  0
  189.3940  178.0440  144.6130 C   0  0  0  0  0  3  0  0  0  0  0  0
  190.8710  176.1410  143.9020 C   0  0  0  0  0  2  0  0  0  0  0  0
  191.0120  178.0370  142.6930 C   0  0  0  0  0  2  0  0  0  0  0  0
  191.7800  177.0550  143.3420 O   0  0  0  0  0  0  0  0  0  0  0  0
  190.2980  178.9090  143.7280 C   0  0  0  0  0  2  0  0  0  0  0  0
  190.1380  176.7880  145.0800 C   0  0  0  0  0  2  0  0  0  0  0  0
  184.6190  176.0380  135.5310 O   0  0  0  0  0  0  0  0  0  0  0  0
  182.0890  173.3800  134.7430 C   0  0  0  0  0  2  0  0  0  0  0  0
  182.6580  172.3520  135.6280 N   0  0  0  0  0  0  0  0  0  0  0  0
  184.1440  173.9870  136.6970 C   0  0  0  0  0  2  0  0  0  0  0  0
  183.1300  174.4590  134.4620 C   0  0  0  0  0  2  0  0  0  0  0  0
  183.6010  175.0750  135.7780 C   0  0  0  0  0  3  0  0  0  0  0  0
  183.0760  172.9200  136.9180 C   0  0  0  0  0  2  0  0  0  0  0  0
  180.7200  171.6810  136.6330 C   0  0  0  0  0  1  0  0  0  0  0  0
  181.7930  171.2970  135.7970 O   0  0  0  0  0  0  0  0  0  0  0  0
  1  6  1  0  0  0  0
  1  5  1  0  0  0  0
  2 11  1  0  0  0  0
  3 10  1  0  0  0  0
  3 16  1  0  0  0  0
  4  8  1  0  0  0  0
  4  7  2  0  0  0  0
  7  9  1  0  0  0  0
  8  1  2  0  0  0  0
  9  5  2  0  0  0  0
 11  7  1  0  0  0  0
 11 10  2  0  0  0  0
 12 15  2  0  0  0  0
 12  2  1  0  0  0  0
 13  2  2  0  0  0  0
 13 14  1  0  0  0  0
 14  3  2  0  0  0  0
 15  4  1  0  0  0  0
 16 18  1  0  0  0  0
 17 16  2  0  0  0  0
 18 19  1  0  0  0  0
 19 20  2  0  0  0  0
 19 21  1  0  0  0  0
 21 22  1  0  0  0  0
 22 26  1  0  0  0  0
 22 25  1  0  0  0  0
 23 28  1  0  0  0  0
 24 27  1  0  0  0  0
 24 29  1  1  0  0  0
 24 26  1  0  0  0  0
 25 28  1  0  0  0  0
 26 27  1  1  0  0  0
 26 23  1  0  0  0  0
 29 34  1  0  0  0  0
 30 34  1  0  0  0  0
 31 32  1  0  0  0  0
 31 33  1  0  0  0  0
 32 30  1  0  0  0  0
 33 29  1  0  0  0  0
 35 40  1  0  0  0  0
 35 13  1  0  0  0  0
 36 37  1  0  0  0  0
 37 43  1  0  0  0  0
 37 41  1  0  0  0  0
 38 41  1  0  0  0  0
 39 36  1  0  0  0  0
 39 40  1  0  0  0  0
 40 38  1  0  0  0  0
 43 42  1  0  0  0  0
M  END
>  <MODEL>
9

>  <REMARK>
 VINA RESULT:      -8.2      3.219      8.241
  Name = 
  8 active torsions:
  status: ('A' for Active; 'I' for Inactive)
    1  A    between atoms: O_1  and  C_34
    2  A    between atoms: O_1  and  C_35
    3  A    between atoms: C_2  and  N_6
    4  A    between atoms: C_2  and  C_13
    5  A    between atoms: C_3  and  N_4
    6  A    between atoms: C_3  and  C_12
    7  A    between atoms: C_11  and  C_14
    8  A    between atoms: N_19  and  O_37
                            x       y       z     vdW  Elec       q    Type
                         _______ _______ _______ _____ _____    ______ ____

>  <TORSDO>
F 8

$$$$
