=
 OpenBabel10272413373D

 32 38  0  0  1  0  0  0  0  0999 V2000
  185.7410  179.0440  141.2840 C   0  0  2  0  0  3  0  0  0  0  0  0
  184.0640  179.6900  144.6840 C   0  0  0  0  0  3  0  0  0  0  0  0
  182.9570  178.9710  144.4470 C   0  0  0  0  0  3  0  0  0  0  0  0
  185.1520  178.0640  138.8580 C   0  0  1  0  0  3  0  0  0  0  0  0
  183.9070  177.7590  138.0440 C   0  0  0  0  0  0  0  0  0  0  0  0
  181.6720  177.3080  137.6480 N   0  0  0  0  0  0  0  0  0  0  0  0
  185.0760  179.9730  143.5970 C   0  0  0  0  0  2  0  0  0  0  0  0
  184.9280  179.0230  142.4970 N   0  0  0  0  0  0  0  0  0  0  0  0
  183.6340  177.8700  140.8400 C   0  0  1  0  0  3  0  0  0  0  0  0
  182.1690  176.9960  136.3200 C   0  0  0  0  0  2  0  0  0  0  0  0
  183.9850  177.2480  136.3300 S   0  0  0  0  0  0  0  0  0  0  0  0
  182.7070  178.3610  143.1260 C   0  0  0  0  0  3  0  0  0  0  0  0
  183.6670  178.4310  142.2050 C   0  0  0  0  0  0  0  0  0  0  0  0
  182.3710  178.0620  140.0110 C   0  0  0  0  0  2  0  0  0  0  0  0
  185.9640  178.9590  138.1600 O   0  0  0  0  0  1  0  0  0  0  0  0
  180.2640  177.1970  137.9890 C   0  0  0  0  0  1  0  0  0  0  0  0
  184.7280  178.6890  140.1840 C   0  0  1  0  0  3  0  0  0  0  0  0
  182.6770  177.6960  138.5690 C   0  0  0  0  0  0  0  0  0  0  0  0
  188.7090  177.1220  142.7910 C   0  0  2  0  0  3  0  0  0  0  0  0
  188.3750  178.6930  140.5220 S   0  0  0  0  0  0  0  0  0  0  0  0
  190.3370  177.0260  141.0590 O   0  0  0  0  0  0  0  0  0  0  0  0
  186.9050  178.0430  141.3700 C   0  0  1  0  0  3  0  0  0  0  0  0
  189.3230  177.5470  141.4950 C   0  0  0  0  0  0  0  0  0  0  0  0
  187.2980  177.6880  142.8060 C   0  0  0  0  0  2  0  0  0  0  0  0
  190.6160  176.6850  144.3630 C   0  0  0  0  0  2  0  0  0  0  0  0
  189.3660  176.4720  145.1120 N   0  0  0  0  0  0  0  0  0  0  0  0
  189.4490  177.5240  144.0840 C   0  0  2  0  0  3  0  0  0  0  0  0
  189.5280  177.1350  146.3920 C   0  0  0  0  0  2  0  0  0  0  0  0
  188.2530  177.6560  148.5730 C   0  0  1  0  0  3  0  0  0  0  0  0
  188.3310  176.8280  147.2840 C   0  0  1  0  0  3  0  0  0  0  0  0
  189.3750  178.6700  148.7580 C   0  0  0  0  0  1  0  0  0  0  0  0
  187.4250  178.0400  147.3620 C   0  0  0  0  0  2  0  0  0  0  0  0
  1 22  1  0  0  0  0
  1  8  1  1  0  0  0
  3  2  2  0  0  0  0
  4 15  1  6  0  0  0
  4 17  1  0  0  0  0
  5 18  2  0  0  0  0
  5  4  1  0  0  0  0
  6 16  1  0  0  0  0
  6 18  1  0  0  0  0
  7  2  1  0  0  0  0
  8  7  1  0  0  0  0
  9 14  1  6  0  0  0
  9 13  1  0  0  0  0
 10 11  1  0  0  0  0
 10  6  1  0  0  0  0
 11  5  1  0  0  0  0
 12  3  1  0  0  0  0
 13  8  1  0  0  0  0
 13 12  2  0  0  0  0
 17  9  1  0  0  0  0
 17  1  1  0  0  0  0
 18 14  1  0  0  0  0
 19 24  1  0  0  0  0
 19 27  1  0  0  0  0
 20 22  1  0  0  0  0
 20 23  1  0  0  0  0
 21 23  2  0  0  0  0
 22 24  1  0  0  0  0
 23 19  1  0  0  0  0
 25 26  1  0  0  0  0
 26 28  1  0  0  0  0
 27 25  1  0  0  0  0
 27 26  1  0  0  0  0
 28 30  1  0  0  0  0
 29 31  1  0  0  0  0
 30 32  1  0  0  0  0
 30 29  1  0  0  0  0
 32 29  1  0  0  0  0
M  END
>  <MODEL>
1

>  <REMARK>
 VINA RESULT:      -8.0      0.000      0.000
  Name = 
  4 active torsions:
  status: ('A' for Active; 'I' for Inactive)
    1  A    between atoms: C_3  and  C_14
    2  A    between atoms: C_8  and  C_23
    3  A    between atoms: C_10  and  C_24
    4  A    between atoms: N_19  and  C_24
                            x       y       z     vdW  Elec       q    Type
                         _______ _______ _______ _____ _____    ______ ____

>  <TORSDO>
F 4

$$$$
=
 OpenBabel10272413373D

 32 38  0  0  1  0  0  0  0  0999 V2000
  190.3970  177.4350  139.4780 C   0  0  2  0  0  3  0  0  0  0  0  0
  186.8040  178.0300  138.2390 C   0  0  0  0  0  3  0  0  0  0  0  0
  186.7710  177.0070  137.3710 C   0  0  0  0  0  3  0  0  0  0  0  0
  192.5830  176.0220  138.8320 C   0  0  1  0  0  3  0  0  0  0  0  0
  193.1220  175.2800  137.6220 C   0  0  0  0  0  0  0  0  0  0  0  0
  193.0530  174.1810  135.5870 N   0  0  0  0  0  0  0  0  0  0  0  0
  188.0810  178.4380  138.9390 C   0  0  0  0  0  2  0  0  0  0  0  0
  189.0550  177.3490  138.9080 N   0  0  0  0  0  0  0  0  0  0  0  0
  190.3420  175.6760  137.7700 C   0  0  1  0  0  3  0  0  0  0  0  0
  194.4220  173.8480  135.9400 C   0  0  0  0  0  2  0  0  0  0  0  0
  194.7730  174.5920  137.5780 S   0  0  0  0  0  0  0  0  0  0  0  0
  187.9690  176.1850  137.1090 C   0  0  0  0  0  3  0  0  0  0  0  0
  189.0560  176.3980  137.8490 C   0  0  0  0  0  0  0  0  0  0  0  0
  190.9310  175.4000  136.3930 C   0  0  0  0  0  2  0  0  0  0  0  0
  193.4900  177.0080  139.2240 O   0  0  0  0  0  1  0  0  0  0  0  0
  192.4470  173.7300  134.3460 C   0  0  0  0  0  1  0  0  0  0  0  0
  191.2550  176.6730  138.4560 C   0  0  1  0  0  3  0  0  0  0  0  0
  192.3710  174.9490  136.5640 C   0  0  0  0  0  0  0  0  0  0  0  0
  189.4350  176.7730  143.1400 C   0  0  2  0  0  3  0  0  0  0  0  0
  191.7750  177.5770  141.8700 S   0  0  0  0  0  0  0  0  0  0  0  0
  191.5000  176.6520  144.3170 O   0  0  0  0  0  0  0  0  0  0  0  0
  190.4510  176.8160  140.8840 C   0  0  1  0  0  3  0  0  0  0  0  0
  190.9060  176.9940  143.3070 C   0  0  0  0  0  0  0  0  0  0  0  0
  189.1380  176.9490  141.6590 C   0  0  0  0  0  2  0  0  0  0  0  0
  188.3400  177.2050  145.3560 C   0  0  0  0  0  2  0  0  0  0  0  0
  187.2720  176.9450  144.3770 N   0  0  0  0  0  0  0  0  0  0  0  0
  188.4930  177.6640  143.9750 C   0  0  2  0  0  3  0  0  0  0  0  0
  186.2520  177.9530  144.5940 C   0  0  0  0  0  2  0  0  0  0  0  0
  183.9390  178.5550  143.6220 C   0  0  1  0  0  3  0  0  0  0  0  0
  185.3670  178.0610  143.3570 C   0  0  1  0  0  3  0  0  0  0  0  0
  183.6280  178.8770  145.0790 C   0  0  0  0  0  1  0  0  0  0  0  0
  185.0000  179.5110  143.1140 C   0  0  0  0  0  2  0  0  0  0  0  0
  1  8  1  6  0  0  0
  1 22  1  0  0  0  0
  2  7  1  0  0  0  0
  3  2  2  0  0  0  0
  4 15  1  6  0  0  0
  5  4  1  0  0  0  0
  6 10  1  0  0  0  0
  6 18  1  0  0  0  0
  8  7  1  0  0  0  0
  9 14  1  6  0  0  0
  9 13  1  0  0  0  0
  9 17  1  0  0  0  0
 10 11  1  0  0  0  0
 11  5  1  0  0  0  0
 12  3  1  0  0  0  0
 12 13  2  0  0  0  0
 13  8  1  0  0  0  0
 14 18  1  0  0  0  0
 16  6  1  0  0  0  0
 17  4  1  0  0  0  0
 17  1  1  0  0  0  0
 18  5  2  0  0  0  0
 19 23  1  0  0  0  0
 19 27  1  0  0  0  0
 20 23  1  0  0  0  0
 22 24  1  0  0  0  0
 22 20  1  0  0  0  0
 23 21  2  0  0  0  0
 24 19  1  0  0  0  0
 26 28  1  0  0  0  0
 26 25  1  0  0  0  0
 27 26  1  0  0  0  0
 27 25  1  0  0  0  0
 29 31  1  0  0  0  0
 30 29  1  0  0  0  0
 30 28  1  0  0  0  0
 32 30  1  0  0  0  0
 32 29  1  0  0  0  0
M  END
>  <MODEL>
2

>  <REMARK>
 VINA RESULT:      -8.0      4.439      7.245
  Name = 
  4 active torsions:
  status: ('A' for Active; 'I' for Inactive)
    1  A    between atoms: C_3  and  C_14
    2  A    between atoms: C_8  and  C_23
    3  A    between atoms: C_10  and  C_24
    4  A    between atoms: N_19  and  C_24
                            x       y       z     vdW  Elec       q    Type
                         _______ _______ _______ _____ _____    ______ ____

>  <TORSDO>
F 4

$$$$
=
 OpenBabel10272413373D

 32 38  0  0  1  0  0  0  0  0999 V2000
  188.9350  178.3660  141.8190 C   0  0  2  0  0  3  0  0  0  0  0  0
  191.9470  177.6320  144.0960 C   0  0  0  0  0  3  0  0  0  0  0  0
  191.2450  177.1220  145.1190 C   0  0  0  0  0  3  0  0  0  0  0  0
  186.2580  178.4940  141.9340 C   0  0  1  0  0  3  0  0  0  0  0  0
  185.1860  178.6040  143.0030 C   0  0  0  0  0  0  0  0  0  0  0  0
  184.2540  178.4530  145.1160 N   0  0  0  0  0  0  0  0  0  0  0  0
  191.2700  178.2920  142.9160 C   0  0  0  0  0  2  0  0  0  0  0  0
  189.8680  177.8850  142.8340 N   0  0  0  0  0  0  0  0  0  0  0  0
  187.6840  177.5700  143.7730 C   0  0  1  0  0  3  0  0  0  0  0  0
  183.0250  178.6920  144.3800 C   0  0  0  0  0  2  0  0  0  0  0  0
  183.4570  178.8390  142.6050 S   0  0  0  0  0  0  0  0  0  0  0  0
  189.7680  177.1200  145.1080 C   0  0  0  0  0  3  0  0  0  0  0  0
  189.1430  177.5200  144.0030 C   0  0  0  0  0  0  0  0  0  0  0  0
  186.8000  178.1400  144.8740 C   0  0  0  0  0  2  0  0  0  0  0  0
  186.1450  179.5600  141.0410 O   0  0  0  0  0  1  0  0  0  0  0  0
  184.2650  178.2740  146.5580 C   0  0  0  0  0  1  0  0  0  0  0  0
  187.6270  178.5380  142.6070 C   0  0  1  0  0  3  0  0  0  0  0  0
  185.4140  178.3850  144.3040 C   0  0  0  0  0  0  0  0  0  0  0  0
  190.0060  176.1210  138.8890 C   0  0  2  0  0  3  0  0  0  0  0  0
  188.1770  178.1970  139.1660 S   0  0  0  0  0  0  0  0  0  0  0  0
  188.3440  176.4400  137.2160 O   0  0  0  0  0  0  0  0  0  0  0  0
  188.8050  177.3680  140.6560 C   0  0  1  0  0  3  0  0  0  0  0  0
  188.8670  176.8450  138.2420 C   0  0  0  0  0  0  0  0  0  0  0  0
  190.1210  176.6740  140.3010 C   0  0  0  0  0  2  0  0  0  0  0  0
  191.3410  175.6950  136.8070 C   0  0  0  0  0  2  0  0  0  0  0  0
  191.9060  174.8540  137.8760 N   0  0  0  0  0  0  0  0  0  0  0  0
  191.3760  176.1940  138.1820 C   0  0  2  0  0  3  0  0  0  0  0  0
  193.3480  174.9900  137.7970 C   0  0  0  0  0  2  0  0  0  0  0  0
  195.3440  173.5490  137.0260 C   0  0  1  0  0  3  0  0  0  0  0  0
  193.9910  173.6090  137.7470 C   0  0  1  0  0  3  0  0  0  0  0  0
  195.8450  174.8820  136.4830 C   0  0  0  0  0  1  0  0  0  0  0  0
  195.2830  173.6160  138.5390 C   0  0  0  0  0  2  0  0  0  0  0  0
  1 17  1  0  0  0  0
  1  8  1  1  0  0  0
  2  3  2  0  0  0  0
  4 15  1  6  0  0  0
  4 17  1  0  0  0  0
  4  5  1  0  0  0  0
  5 18  2  0  0  0  0
  6 16  1  0  0  0  0
  7  2  1  0  0  0  0
  8  7  1  0  0  0  0
  8 13  1  0  0  0  0
  9 13  1  0  0  0  0
  9 14  1  1  0  0  0
 10  6  1  0  0  0  0
 11  5  1  0  0  0  0
 11 10  1  0  0  0  0
 12  3  1  0  0  0  0
 13 12  2  0  0  0  0
 17  9  1  0  0  0  0
 18 14  1  0  0  0  0
 18  6  1  0  0  0  0
 19 24  1  0  0  0  0
 20 22  1  0  0  0  0
 21 23  2  0  0  0  0
 22  1  1  0  0  0  0
 23 19  1  0  0  0  0
 23 20  1  0  0  0  0
 24 22  1  0  0  0  0
 25 26  1  0  0  0  0
 25 27  1  0  0  0  0
 26 27  1  0  0  0  0
 27 19  1  0  0  0  0
 28 26  1  0  0  0  0
 29 30  1  0  0  0  0
 29 32  1  0  0  0  0
 30 28  1  0  0  0  0
 30 32  1  0  0  0  0
 31 29  1  0  0  0  0
M  END
>  <MODEL>
3

>  <REMARK>
 VINA RESULT:      -7.6      4.047      7.428
  Name = 
  4 active torsions:
  status: ('A' for Active; 'I' for Inactive)
    1  A    between atoms: C_3  and  C_14
    2  A    between atoms: C_8  and  C_23
    3  A    between atoms: C_10  and  C_24
    4  A    between atoms: N_19  and  C_24
                            x       y       z     vdW  Elec       q    Type
                         _______ _______ _______ _____ _____    ______ ____

>  <TORSDO>
F 4

$$$$
=
 OpenBabel10272413373D

 32 38  0  0  1  0  0  0  0  0999 V2000
  188.3570  178.2330  140.5270 C   0  0  2  0  0  3  0  0  0  0  0  0
  191.8370  177.1830  141.7850 C   0  0  0  0  0  3  0  0  0  0  0  0
  191.4270  176.6620  142.9510 C   0  0  0  0  0  3  0  0  0  0  0  0
  185.8490  178.5240  141.4320 C   0  0  1  0  0  3  0  0  0  0  0  0
  185.1480  178.6420  142.7740 C   0  0  0  0  0  0  0  0  0  0  0  0
  184.8650  178.4310  145.0610 N   0  0  0  0  0  0  0  0  0  0  0  0
  190.8980  177.9500  140.8830 C   0  0  0  0  0  2  0  0  0  0  0  0
  189.5070  177.6370  141.2040 N   0  0  0  0  0  0  0  0  0  0  0  0
  187.6750  177.4090  142.7340 C   0  0  1  0  0  3  0  0  0  0  0  0
  183.4970  178.7880  144.7300 C   0  0  0  0  0  2  0  0  0  0  0  0
  183.4020  179.0070  142.9120 S   0  0  0  0  0  0  0  0  0  0  0  0
  190.0160  176.7530  143.3780 C   0  0  0  0  0  3  0  0  0  0  0  0
  189.1280  177.2540  142.5210 C   0  0  0  0  0  0  0  0  0  0  0  0
  187.1970  177.9710  144.0670 C   0  0  0  0  0  2  0  0  0  0  0  0
  185.5630  179.6440  140.6500 O   0  0  0  0  0  1  0  0  0  0  0  0
  185.2830  178.1700  146.4270 C   0  0  0  0  0  1  0  0  0  0  0  0
  187.3540  178.4430  141.6720 C   0  0  1  0  0  3  0  0  0  0  0  0
  185.7280  178.3350  143.9400 C   0  0  0  0  0  0  0  0  0  0  0  0
  188.3960  175.8900  137.4810 C   0  0  2  0  0  3  0  0  0  0  0  0
  187.1160  178.2910  138.0580 S   0  0  0  0  0  0  0  0  0  0  0  0
  186.5620  176.5860  136.1330 O   0  0  0  0  0  0  0  0  0  0  0  0
  187.8170  177.3130  139.4200 C   0  0  1  0  0  3  0  0  0  0  0  0
  187.3340  176.8490  137.0410 C   0  0  0  0  0  0  0  0  0  0  0  0
  188.8750  176.3720  138.8410 C   0  0  0  0  0  2  0  0  0  0  0  0
  189.4670  174.5320  135.6630 C   0  0  0  0  0  2  0  0  0  0  0  0
  190.3450  174.4640  136.8430 N   0  0  0  0  0  0  0  0  0  0  0  0
  189.6010  175.6970  136.5370 C   0  0  2  0  0  3  0  0  0  0  0  0
  191.7000  174.6710  136.3680 C   0  0  0  0  0  2  0  0  0  0  0  0
  193.9450  175.4740  137.3520 C   0  0  1  0  0  3  0  0  0  0  0  0
  192.6650  174.6520  137.5470 C   0  0  1  0  0  3  0  0  0  0  0  0
  194.0490  176.1980  136.0150 C   0  0  0  0  0  1  0  0  0  0  0  0
  192.7800  176.0420  138.1390 C   0  0  0  0  0  2  0  0  0  0  0  0
  1  8  1  1  0  0  0
  1 17  1  0  0  0  0
  2  3  2  0  0  0  0
  3 12  1  0  0  0  0
  4 15  1  6  0  0  0
  4 17  1  0  0  0  0
  4  5  1  0  0  0  0
  5 11  1  0  0  0  0
  5 18  2  0  0  0  0
  6 16  1  0  0  0  0
  7  8  1  0  0  0  0
  7  2  1  0  0  0  0
  8 13  1  0  0  0  0
  9 14  1  1  0  0  0
 10  6  1  0  0  0  0
 11 10  1  0  0  0  0
 13  9  1  0  0  0  0
 13 12  2  0  0  0  0
 17  9  1  0  0  0  0
 18 14  1  0  0  0  0
 18  6  1  0  0  0  0
 19 24  1  0  0  0  0
 20 22  1  0  0  0  0
 21 23  2  0  0  0  0
 22  1  1  0  0  0  0
 23 19  1  0  0  0  0
 23 20  1  0  0  0  0
 24 22  1  0  0  0  0
 25 27  1  0  0  0  0
 25 26  1  0  0  0  0
 27 26  1  0  0  0  0
 27 19  1  0  0  0  0
 28 26  1  0  0  0  0
 28 30  1  0  0  0  0
 29 30  1  0  0  0  0
 29 32  1  0  0  0  0
 30 32  1  0  0  0  0
 31 29  1  0  0  0  0
M  END
>  <MODEL>
4

>  <REMARK>
 VINA RESULT:      -7.2      3.914      7.488
  Name = 
  4 active torsions:
  status: ('A' for Active; 'I' for Inactive)
    1  A    between atoms: C_3  and  C_14
    2  A    between atoms: C_8  and  C_23
    3  A    between atoms: C_10  and  C_24
    4  A    between atoms: N_19  and  C_24
                            x       y       z     vdW  Elec       q    Type
                         _______ _______ _______ _____ _____    ______ ____

>  <TORSDO>
F 4

$$$$
=
 OpenBabel10272413373D

 32 38  0  0  1  0  0  0  0  0999 V2000
  187.4260  178.6200  140.6910 C   0  0  2  0  0  3  0  0  0  0  0  0
  189.7560  177.9670  143.6810 C   0  0  0  0  0  3  0  0  0  0  0  0
  188.8120  177.4940  144.5090 C   0  0  0  0  0  3  0  0  0  0  0  0
  184.8090  178.7540  140.1190 C   0  0  1  0  0  3  0  0  0  0  0  0
  183.5010  178.9020  140.8770 C   0  0  0  0  0  0  0  0  0  0  0  0
  182.0630  178.8260  142.6870 N   0  0  0  0  0  0  0  0  0  0  0  0
  189.4050  178.5850  142.3470 C   0  0  0  0  0  2  0  0  0  0  0  0
  188.0670  178.1750  141.9260 N   0  0  0  0  0  0  0  0  0  0  0  0
  185.7130  177.8950  142.2900 C   0  0  1  0  0  3  0  0  0  0  0  0
  181.0630  179.0390  141.6560 C   0  0  0  0  0  2  0  0  0  0  0  0
  181.9330  179.1230  140.0440 S   0  0  0  0  0  0  0  0  0  0  0  0
  187.3860  177.4920  144.1250 C   0  0  0  0  0  3  0  0  0  0  0  0
  187.0650  177.8520  142.8840 C   0  0  0  0  0  0  0  0  0  0  0  0
  184.5840  178.5030  143.1100 C   0  0  0  0  0  2  0  0  0  0  0  0
  184.9360  179.7870  139.1900 O   0  0  0  0  0  1  0  0  0  0  0  0
  181.7070  178.6980  144.0900 C   0  0  0  0  0  1  0  0  0  0  0  0
  185.9630  178.8210  141.1150 C   0  0  1  0  0  3  0  0  0  0  0  0
  183.3900  178.7290  142.1990 C   0  0  0  0  0  0  0  0  0  0  0  0
  189.1840  176.3180  138.1650 C   0  0  2  0  0  3  0  0  0  0  0  0
  187.2910  178.3420  137.9440 S   0  0  0  0  0  0  0  0  0  0  0  0
  187.9350  176.5300  136.1510 O   0  0  0  0  0  0  0  0  0  0  0  0
  187.5860  177.5820  139.5690 C   0  0  1  0  0  3  0  0  0  0  0  0
  188.2030  176.9830  137.2520 C   0  0  0  0  0  0  0  0  0  0  0  0
  188.9650  176.9190  139.5440 C   0  0  0  0  0  2  0  0  0  0  0  0
  190.9930  175.7230  136.5310 C   0  0  0  0  0  2  0  0  0  0  0  0
  191.3350  175.0960  137.8190 N   0  0  0  0  0  0  0  0  0  0  0  0
  190.6760  176.4120  137.7820 C   0  0  2  0  0  3  0  0  0  0  0  0
  192.7450  175.3470  138.0450 C   0  0  0  0  0  2  0  0  0  0  0  0
  194.5950  174.3840  136.5250 C   0  0  1  0  0  3  0  0  0  0  0  0
  193.5570  174.1270  137.6260 C   0  0  1  0  0  3  0  0  0  0  0  0
  194.6660  175.8240  136.0300 C   0  0  0  0  0  1  0  0  0  0  0  0
  195.0160  174.3340  137.9810 C   0  0  0  0  0  2  0  0  0  0  0  0
  1 17  1  0  0  0  0
  1  8  1  1  0  0  0
  2  3  2  0  0  0  0
  4 15  1  6  0  0  0
  4  5  1  0  0  0  0
  4 17  1  0  0  0  0
  5 18  2  0  0  0  0
  6 16  1  0  0  0  0
  7  2  1  0  0  0  0
  8  7  1  0  0  0  0
  8 13  1  0  0  0  0
  9 13  1  0  0  0  0
  9 14  1  1  0  0  0
 10  6  1  0  0  0  0
 11  5  1  0  0  0  0
 11 10  1  0  0  0  0
 12  3  1  0  0  0  0
 13 12  2  0  0  0  0
 17  9  1  0  0  0  0
 18  6  1  0  0  0  0
 18 14  1  0  0  0  0
 19 24  1  0  0  0  0
 20 22  1  0  0  0  0
 21 23  2  0  0  0  0
 22  1  1  0  0  0  0
 23 20  1  0  0  0  0
 23 19  1  0  0  0  0
 24 22  1  0  0  0  0
 25 27  1  0  0  0  0
 25 26  1  0  0  0  0
 26 28  1  0  0  0  0
 27 26  1  0  0  0  0
 27 19  1  0  0  0  0
 29 30  1  0  0  0  0
 29 32  1  0  0  0  0
 30 32  1  0  0  0  0
 30 28  1  0  0  0  0
 31 29  1  0  0  0  0
M  END
>  <MODEL>
5

>  <REMARK>
 VINA RESULT:      -7.0      3.857      6.493
  Name = 
  4 active torsions:
  status: ('A' for Active; 'I' for Inactive)
    1  A    between atoms: C_3  and  C_14
    2  A    between atoms: C_8  and  C_23
    3  A    between atoms: C_10  and  C_24
    4  A    between atoms: N_19  and  C_24
                            x       y       z     vdW  Elec       q    Type
                         _______ _______ _______ _____ _____    ______ ____

>  <TORSDO>
F 4

$$$$
=
 OpenBabel10272413373D

 32 38  0  0  1  0  0  0  0  0999 V2000
  187.1990  177.2530  142.6410 C   0  0  2  0  0  3  0  0  0  0  0  0
  183.6730  178.7560  142.9700 C   0  0  0  0  0  3  0  0  0  0  0  0
  183.9030  179.4370  144.1020 C   0  0  0  0  0  3  0  0  0  0  0  0
  189.4390  176.9390  144.0820 C   0  0  1  0  0  3  0  0  0  0  0  0
  189.8510  177.0020  145.5420 C   0  0  0  0  0  0  0  0  0  0  0  0
  189.7070  177.5800  147.7780 N   0  0  0  0  0  0  0  0  0  0  0  0
  184.6830  177.7780  142.4110 C   0  0  0  0  0  2  0  0  0  0  0  0
  186.0110  178.0390  142.9630 N   0  0  0  0  0  0  0  0  0  0  0  0
  187.5260  178.3910  144.7880 C   0  0  1  0  0  3  0  0  0  0  0  0
  191.0670  177.0720  147.7980 C   0  0  0  0  0  2  0  0  0  0  0  0
  191.4880  176.5390  146.0950 S   0  0  0  0  0  0  0  0  0  0  0  0
  185.1870  179.3170  144.8220 C   0  0  0  0  0  3  0  0  0  0  0  0
  186.1660  178.6130  144.2560 C   0  0  0  0  0  0  0  0  0  0  0  0
  187.6730  178.0330  146.2610 C   0  0  0  0  0  2  0  0  0  0  0  0
  189.7500  175.6840  143.5570 O   0  0  0  0  0  1  0  0  0  0  0  0
  189.0620  178.1010  148.9710 C   0  0  0  0  0  1  0  0  0  0  0  0
  187.9330  177.1700  143.9880 C   0  0  1  0  0  3  0  0  0  0  0  0
  189.0920  177.5460  146.5010 C   0  0  0  0  0  0  0  0  0  0  0  0
  188.2490  178.3840  139.1200 C   0  0  2  0  0  3  0  0  0  0  0  0
  189.4890  176.9140  141.1290 S   0  0  0  0  0  0  0  0  0  0  0  0
  190.6020  178.0380  139.0280 O   0  0  0  0  0  0  0  0  0  0  0  0
  188.0380  177.9280  141.5430 C   0  0  1  0  0  3  0  0  0  0  0  0
  189.5440  177.7980  139.5880 C   0  0  0  0  0  0  0  0  0  0  0  0
  187.2550  178.1940  140.2550 C   0  0  0  0  0  2  0  0  0  0  0  0
  187.6680  178.8010  136.7150 C   0  0  0  0  0  2  0  0  0  0  0  0
  186.4130  178.5150  137.4310 N   0  0  0  0  0  0  0  0  0  0  0  0
  187.6600  177.8270  137.8070 C   0  0  2  0  0  3  0  0  0  0  0  0
  185.6640  177.5870  136.6070 C   0  0  0  0  0  2  0  0  0  0  0  0
  183.5400  176.3280  137.3560 C   0  0  1  0  0  3  0  0  0  0  0  0
  184.1840  177.6640  136.9630 C   0  0  1  0  0  3  0  0  0  0  0  0
  184.4820  175.1300  137.3450 C   0  0  0  0  0  1  0  0  0  0  0  0
  183.9880  177.3080  138.4230 C   0  0  0  0  0  2  0  0  0  0  0  0
  1  8  1  1  0  0  0
  1 17  1  0  0  0  0
  2  3  2  0  0  0  0
  3 12  1  0  0  0  0
  4 15  1  1  0  0  0
  4  5  1  0  0  0  0
  5 11  1  0  0  0  0
  5 18  2  0  0  0  0
  6 10  1  0  0  0  0
  6 16  1  0  0  0  0
  7  8  1  0  0  0  0
  7  2  1  0  0  0  0
  8 13  1  0  0  0  0
  9 14  1  1  0  0  0
 11 10  1  0  0  0  0
 13  9  1  0  0  0  0
 13 12  2  0  0  0  0
 14 18  1  0  0  0  0
 17  4  1  0  0  0  0
 17  9  1  0  0  0  0
 18  6  1  0  0  0  0
 19 23  1  0  0  0  0
 19 24  1  0  0  0  0
 20 22  1  0  0  0  0
 21 23  2  0  0  0  0
 22  1  1  0  0  0  0
 23 20  1  0  0  0  0
 24 22  1  0  0  0  0
 25 26  1  0  0  0  0
 25 27  1  0  0  0  0
 26 27  1  0  0  0  0
 27 19  1  0  0  0  0
 28 30  1  0  0  0  0
 28 26  1  0  0  0  0
 29 32  1  0  0  0  0
 30 29  1  0  0  0  0
 30 32  1  0  0  0  0
 31 29  1  0  0  0  0
M  END
>  <MODEL>
6

>  <REMARK>
 VINA RESULT:      -6.6      2.354      8.025
  Name = 
  4 active torsions:
  status: ('A' for Active; 'I' for Inactive)
    1  A    between atoms: C_3  and  C_14
    2  A    between atoms: C_8  and  C_23
    3  A    between atoms: C_10  and  C_24
    4  A    between atoms: N_19  and  C_24
                            x       y       z     vdW  Elec       q    Type
                         _______ _______ _______ _____ _____    ______ ____

>  <TORSDO>
F 4

$$$$
=
 OpenBabel10272413373D

 32 38  0  0  1  0  0  0  0  0999 V2000
  187.0170  178.7330  140.3120 C   0  0  2  0  0  3  0  0  0  0  0  0
  190.3710  177.6760  138.7530 C   0  0  0  0  0  3  0  0  0  0  0  0
  190.7610  176.8770  139.7580 C   0  0  0  0  0  3  0  0  0  0  0  0
  185.7220  178.6320  142.6590 C   0  0  1  0  0  3  0  0  0  0  0  0
  186.0640  178.3930  144.1190 C   0  0  0  0  0  0  0  0  0  0  0  0
  187.3010  177.6510  145.9280 N   0  0  0  0  0  0  0  0  0  0  0  0
  189.1490  178.5580  138.8680 C   0  0  0  0  0  2  0  0  0  0  0  0
  188.2690  178.0830  139.9340 N   0  0  0  0  0  0  0  0  0  0  0  0
  187.8410  177.3840  142.1880 C   0  0  1  0  0  3  0  0  0  0  0  0
  186.0820  177.9750  146.6480 C   0  0  0  0  0  2  0  0  0  0  0  0
  184.8610  178.5920  145.4280 S   0  0  0  0  0  0  0  0  0  0  0  0
  189.9720  176.7690  141.0010 C   0  0  0  0  0  3  0  0  0  0  0  0
  188.7940  177.3850  141.0590 C   0  0  0  0  0  0  0  0  0  0  0  0
  188.3890  177.5950  143.5930 C   0  0  0  0  0  2  0  0  0  0  0  0
  185.1060  179.8760  142.5160 O   0  0  0  0  0  1  0  0  0  0  0  0
  188.4730  177.1180  146.6000 C   0  0  0  0  0  1  0  0  0  0  0  0
  187.0120  178.6060  141.8430 C   0  0  1  0  0  3  0  0  0  0  0  0
  187.2270  177.8730  144.5300 C   0  0  0  0  0  0  0  0  0  0  0  0
  184.9010  177.0610  137.5730 C   0  0  2  0  0  3  0  0  0  0  0  0
  184.5390  179.2760  139.2150 S   0  0  0  0  0  0  0  0  0  0  0  0
  182.7240  177.9930  137.8080 O   0  0  0  0  0  0  0  0  0  0  0  0
  185.8080  178.0510  139.6520 C   0  0  1  0  0  3  0  0  0  0  0  0
  183.9150  178.0750  138.0630 C   0  0  0  0  0  0  0  0  0  0  0  0
  186.1670  177.2620  138.3910 C   0  0  0  0  0  2  0  0  0  0  0  0
  184.4040  176.1760  135.2780 C   0  0  0  0  0  2  0  0  0  0  0  0
  185.7850  175.7920  135.6120 N   0  0  0  0  0  0  0  0  0  0  0  0
  185.2390  177.0810  136.0680 C   0  0  2  0  0  3  0  0  0  0  0  0
  186.5930  176.0770  134.4410 C   0  0  0  0  0  2  0  0  0  0  0  0
  189.1260  176.0960  134.9300 C   0  0  1  0  0  3  0  0  0  0  0  0
  187.8930  175.2850  134.5090 C   0  0  1  0  0  3  0  0  0  0  0  0
  188.8590  177.5660  135.2310 C   0  0  0  0  0  1  0  0  0  0  0  0
  188.3900  175.2370  135.9400 C   0  0  0  0  0  2  0  0  0  0  0  0
  1  8  1  6  0  0  0
  1 17  1  0  0  0  0
  2  7  1  0  0  0  0
  2  3  2  0  0  0  0
  3 12  1  0  0  0  0
  4 15  1  1  0  0  0
  4  5  1  0  0  0  0
  5 18  2  0  0  0  0
  5 11  1  0  0  0  0
  6 16  1  0  0  0  0
  6 10  1  0  0  0  0
  7  8  1  0  0  0  0
  8 13  1  0  0  0  0
  9 14  1  1  0  0  0
 11 10  1  0  0  0  0
 12 13  2  0  0  0  0
 13  9  1  0  0  0  0
 14 18  1  0  0  0  0
 17  9  1  0  0  0  0
 17  4  1  0  0  0  0
 18  6  1  0  0  0  0
 19 23  1  0  0  0  0
 19 24  1  0  0  0  0
 20 22  1  0  0  0  0
 21 23  2  0  0  0  0
 22  1  1  0  0  0  0
 23 20  1  0  0  0  0
 24 22  1  0  0  0  0
 25 26  1  0  0  0  0
 25 27  1  0  0  0  0
 26 27  1  0  0  0  0
 27 19  1  0  0  0  0
 28 30  1  0  0  0  0
 28 26  1  0  0  0  0
 29 31  1  0  0  0  0
 29 32  1  0  0  0  0
 30 29  1  0  0  0  0
 30 32  1  0  0  0  0
M  END
>  <MODEL>
7

>  <REMARK>
 VINA RESULT:      -6.6      3.226      8.498
  Name = 
  4 active torsions:
  status: ('A' for Active; 'I' for Inactive)
    1  A    between atoms: C_3  and  C_14
    2  A    between atoms: C_8  and  C_23
    3  A    between atoms: C_10  and  C_24
    4  A    between atoms: N_19  and  C_24
                            x       y       z     vdW  Elec       q    Type
                         _______ _______ _______ _____ _____    ______ ____

>  <TORSDO>
F 4

$$$$
=
 OpenBabel10272413373D

 32 38  0  0  1  0  0  0  0  0999 V2000
  187.3750  177.2020  142.5780 C   0  0  2  0  0  3  0  0  0  0  0  0
  183.8030  178.6100  142.8170 C   0  0  0  0  0  3  0  0  0  0  0  0
  183.9830  179.2870  143.9620 C   0  0  0  0  0  3  0  0  0  0  0  0
  189.5790  176.9320  144.0810 C   0  0  1  0  0  3  0  0  0  0  0  0
  189.9470  176.9920  145.5530 C   0  0  0  0  0  0  0  0  0  0  0  0
  189.7240  177.5450  147.7890 N   0  0  0  0  0  0  0  0  0  0  0  0
  184.8530  177.6640  142.2800 C   0  0  0  0  0  2  0  0  0  0  0  0
  186.1580  177.9540  142.8730 N   0  0  0  0  0  0  0  0  0  0  0  0
  187.6090  178.3280  144.7440 C   0  0  1  0  0  3  0  0  0  0  0  0
  191.0960  177.0720  147.8440 C   0  0  0  0  0  2  0  0  0  0  0  0
  191.5800  176.5650  146.1500 S   0  0  0  0  0  0  0  0  0  0  0  0
  185.2480  179.1930  144.7170 C   0  0  0  0  0  3  0  0  0  0  0  0
  186.2600  178.5200  144.1750 C   0  0  0  0  0  0  0  0  0  0  0  0
  187.7240  177.9590  146.2170 C   0  0  0  0  0  2  0  0  0  0  0  0
  189.9390  175.6900  143.5550 O   0  0  0  0  0  1  0  0  0  0  0  0
  189.0320  178.0380  148.9670 C   0  0  0  0  0  1  0  0  0  0  0  0
  188.0720  177.1250  143.9450 C   0  0  1  0  0  3  0  0  0  0  0  0
  189.1470  177.5070  146.4940 C   0  0  0  0  0  0  0  0  0  0  0  0
  188.3430  178.6670  139.1590 C   0  0  2  0  0  3  0  0  0  0  0  0
  189.4920  176.7820  140.8500 S   0  0  0  0  0  0  0  0  0  0  0  0
  190.6130  178.0340  138.8270 O   0  0  0  0  0  0  0  0  0  0  0  0
  188.2270  177.9080  141.5110 C   0  0  1  0  0  3  0  0  0  0  0  0
  189.5710  177.8580  139.4370 C   0  0  0  0  0  0  0  0  0  0  0  0
  187.4080  178.4510  140.3380 C   0  0  0  0  0  2  0  0  0  0  0  0
  186.2050  177.9810  138.0380 C   0  0  0  0  0  2  0  0  0  0  0  0
  187.2200  176.9620  137.7200 N   0  0  0  0  0  0  0  0  0  0  0  0
  187.5980  178.3810  137.8380 C   0  0  2  0  0  3  0  0  0  0  0  0
  187.1020  176.6850  136.3010 C   0  0  0  0  0  2  0  0  0  0  0  0
  189.0970  175.3750  135.3220 C   0  0  1  0  0  3  0  0  0  0  0  0
  187.7170  175.3260  135.9910 C   0  0  1  0  0  3  0  0  0  0  0  0
  189.6490  176.7760  135.0840 C   0  0  0  0  0  1  0  0  0  0  0  0
  188.9750  175.1320  136.8140 C   0  0  0  0  0  2  0  0  0  0  0  0
  1  8  1  1  0  0  0
  1 17  1  0  0  0  0
  2  3  2  0  0  0  0
  3 12  1  0  0  0  0
  4 15  1  1  0  0  0
  4  5  1  0  0  0  0
  5 11  1  0  0  0  0
  5 18  2  0  0  0  0
  6 10  1  0  0  0  0
  6 16  1  0  0  0  0
  7  2  1  0  0  0  0
  7  8  1  0  0  0  0
  8 13  1  0  0  0  0
  9 14  1  1  0  0  0
 11 10  1  0  0  0  0
 13 12  2  0  0  0  0
 13  9  1  0  0  0  0
 14 18  1  0  0  0  0
 17  4  1  0  0  0  0
 17  9  1  0  0  0  0
 18  6  1  0  0  0  0
 19 23  1  0  0  0  0
 19 24  1  0  0  0  0
 20 22  1  0  0  0  0
 21 23  2  0  0  0  0
 22  1  1  0  0  0  0
 23 20  1  0  0  0  0
 24 22  1  0  0  0  0
 26 27  1  0  0  0  0
 26 25  1  0  0  0  0
 27 25  1  0  0  0  0
 27 19  1  0  0  0  0
 28 26  1  0  0  0  0
 29 30  1  0  0  0  0
 29 32  1  0  0  0  0
 30 28  1  0  0  0  0
 30 32  1  0  0  0  0
 31 29  1  0  0  0  0
M  END
>  <MODEL>
8

>  <REMARK>
 VINA RESULT:      -6.6      2.997      8.179
  Name = 
  4 active torsions:
  status: ('A' for Active; 'I' for Inactive)
    1  A    between atoms: C_3  and  C_14
    2  A    between atoms: C_8  and  C_23
    3  A    between atoms: C_10  and  C_24
    4  A    between atoms: N_19  and  C_24
                            x       y       z     vdW  Elec       q    Type
                         _______ _______ _______ _____ _____    ______ ____

>  <TORSDO>
F 4

$$$$
=
 OpenBabel10272413373D

 32 38  0  0  1  0  0  0  0  0999 V2000
  184.7390  177.2930  136.9980 C   0  0  2  0  0  3  0  0  0  0  0  0
  183.4860  179.1640  140.1170 C   0  0  0  0  0  3  0  0  0  0  0  0
  182.8490  178.1220  140.6740 C   0  0  0  0  0  3  0  0  0  0  0  0
  184.3490  174.9800  135.6980 C   0  0  1  0  0  3  0  0  0  0  0  0
  183.3070  173.8770  135.6590 C   0  0  0  0  0  0  0  0  0  0  0  0
  181.5450  172.5770  136.4080 N   0  0  0  0  0  0  0  0  0  0  0  0
  184.0570  179.0920  138.7190 C   0  0  0  0  0  2  0  0  0  0  0  0
  184.2300  177.7010  138.3050 N   0  0  0  0  0  0  0  0  0  0  0  0
  183.4340  175.4630  137.9770 C   0  0  1  0  0  3  0  0  0  0  0  0
  181.9280  171.7500  135.2780 C   0  0  0  0  0  2  0  0  0  0  0  0
  183.3680  172.5430  134.4680 S   0  0  0  0  0  0  0  0  0  0  0  0
  182.7360  176.8290  139.9710 C   0  0  0  0  0  3  0  0  0  0  0  0
  183.3900  176.6740  138.8220 C   0  0  0  0  0  0  0  0  0  0  0  0
  182.1300  174.7200  137.7150 C   0  0  0  0  0  2  0  0  0  0  0  0
  184.5080  175.5250  134.4230 O   0  0  0  0  0  1  0  0  0  0  0  0
  180.4390  172.2250  137.2810 C   0  0  0  0  0  1  0  0  0  0  0  0
  183.8780  176.0670  136.6590 C   0  0  1  0  0  3  0  0  0  0  0  0
  182.3580  173.7250  136.5910 C   0  0  0  0  0  0  0  0  0  0  0  0
  188.3320  177.1960  138.3590 C   0  0  2  0  0  3  0  0  0  0  0  0
  187.1830  178.1110  135.9980 S   0  0  0  0  0  0  0  0  0  0  0  0
  189.7250  177.6380  136.4800 O   0  0  0  0  0  0  0  0  0  0  0  0
  186.2410  176.9710  137.0550 C   0  0  1  0  0  3  0  0  0  0  0  0
  188.6080  177.6800  136.9700 C   0  0  0  0  0  0  0  0  0  0  0  0
  186.8240  177.0360  138.4690 C   0  0  0  0  0  2  0  0  0  0  0  0
  190.1820  177.6630  139.9900 C   0  0  0  0  0  2  0  0  0  0  0  0
  188.9880  177.2910  140.7670 N   0  0  0  0  0  0  0  0  0  0  0  0
  188.8550  178.0650  139.5210 C   0  0  2  0  0  3  0  0  0  0  0  0
  188.8860  178.2430  141.8570 C   0  0  0  0  0  2  0  0  0  0  0  0
  188.0060  177.2460  144.0680 C   0  0  1  0  0  3  0  0  0  0  0  0
  189.2160  177.5520  143.1750 C   0  0  1  0  0  3  0  0  0  0  0  0
  186.6580  177.6660  143.4940 C   0  0  0  0  0  1  0  0  0  0  0  0
  188.6080  176.1640  143.1930 C   0  0  0  0  0  2  0  0  0  0  0  0
  1 22  1  0  0  0  0
  1  8  1  1  0  0  0
  2  3  2  0  0  0  0
  4 15  1  6  0  0  0
  4 17  1  0  0  0  0
  5  4  1  0  0  0  0
  5 18  2  0  0  0  0
  6 18  1  0  0  0  0
  6 16  1  0  0  0  0
  7  2  1  0  0  0  0
  8  7  1  0  0  0  0
  8 13  1  0  0  0  0
  9 14  1  6  0  0  0
  9 13  1  0  0  0  0
 10  6  1  0  0  0  0
 11 10  1  0  0  0  0
 11  5  1  0  0  0  0
 12  3  1  0  0  0  0
 13 12  2  0  0  0  0
 17  1  1  0  0  0  0
 17  9  1  0  0  0  0
 18 14  1  0  0  0  0
 19 24  1  0  0  0  0
 19 27  1  0  0  0  0
 20 23  1  0  0  0  0
 20 22  1  0  0  0  0
 21 23  2  0  0  0  0
 22 24  1  0  0  0  0
 23 19  1  0  0  0  0
 25 26  1  0  0  0  0
 26 28  1  0  0  0  0
 27 25  1  0  0  0  0
 27 26  1  0  0  0  0
 28 30  1  0  0  0  0
 30 32  1  0  0  0  0
 30 29  1  0  0  0  0
 31 29  1  0  0  0  0
 32 29  1  0  0  0  0
M  END
>  <MODEL>
9

>  <REMARK>
 VINA RESULT:      -6.5      3.039      4.609
  Name = 
  4 active torsions:
  status: ('A' for Active; 'I' for Inactive)
    1  A    between atoms: C_3  and  C_14
    2  A    between atoms: C_8  and  C_23
    3  A    between atoms: C_10  and  C_24
    4  A    between atoms: N_19  and  C_24
                            x       y       z     vdW  Elec       q    Type
                         _______ _______ _______ _____ _____    ______ ____

>  <TORSDO>
F 4

$$$$
