=
 OpenBabel10272400153D

 31 36  0  0  1  0  0  0  0  0999 V2000
  182.3390  178.7380  144.0190 C   0  0  0  0  0  0  0  0  0  0  0  0
  183.9790  178.2050  140.6940 N   0  0  0  0  0  0  0  0  0  0  0  0
  182.9590  177.8470  139.7290 C   0  0  2  0  0  3  0  0  0  0  0  0
  181.1120  176.2510  139.1610 C   0  0  0  0  0  2  0  0  0  0  0  0
  183.7640  178.5680  142.0620 C   0  0  0  0  0  0  0  0  0  0  0  0
  183.3690  179.3860  144.7100 C   0  0  0  0  0  3  0  0  0  0  0  0
  182.4340  176.4340  139.9180 C   0  0  0  0  0  2  0  0  0  0  0  0
  186.4170  178.9320  140.8700 C   0  0  2  0  0  3  0  0  0  0  0  0
  181.1450  178.5260  144.6260 F   0  0  0  0  0  0  0  0  0  0  0  0
  185.0330  178.5730  138.5550 C   0  0  2  0  0  3  0  0  0  0  0  0
  181.2170  176.5000  137.6440 C   0  0  0  0  0  2  0  0  0  0  0  0
  186.0470  179.4520  142.1550 O   0  0  0  0  0  0  0  0  0  0  0  0
  185.1660  178.6760  140.0190 C   0  0  1  0  0  0  0  0  0  0  0  0
  182.5310  178.3350  142.6940 C   0  0  0  0  0  3  0  0  0  0  0  0
  181.3440  177.9990  137.3120 C   0  0  0  0  0  2  0  0  0  0  0  0
  184.8060  179.2010  142.7700 C   0  0  0  0  0  0  0  0  0  0  0  0
  184.5980  179.6160  144.0860 C   0  0  0  0  0  3  0  0  0  0  0  0
  184.8740  179.8040  139.2250 O   0  0  0  0  0  0  0  0  0  0  0  0
  183.6700  177.8890  138.3780 C   0  0  2  0  0  3  0  0  0  0  0  0
  182.7950  178.5230  137.2990 C   0  0  0  0  0  2  0  0  0  0  0  0
  188.7220  178.0050  140.3770 C   0  0  0  0  0  2  0  0  0  0  0  0
  188.6150  178.0540  141.8880 C   0  0  1  0  0  3  0  0  0  0  0  0
  187.3830  177.7440  141.0500 C   0  0  1  0  0  3  0  0  0  0  0  0
  189.1190  176.7510  142.4810 C   0  0  0  0  0  2  0  0  0  0  0  0
  190.4700  176.9140  143.1760 C   0  0  0  0  0  2  0  0  0  0  0  0
  191.4340  179.0450  143.5940 O   0  0  0  0  0  0  0  0  0  0  0  0
  190.5860  178.1900  143.9650 C   0  0  0  0  0  0  0  0  0  0  0  0
  189.7690  178.4740  145.1070 N   0  0  0  0  0  2  0  0  0  0  0  0
  189.0440  177.5370  145.9130 C   0  0  0  0  0  0  0  0  0  0  0  0
  187.6320  177.4390  145.7470 N   0  0  0  0  0  1  0  0  0  0  0  0
  189.7220  176.9050  147.2670 S   0  0  0  0  0  0  0  0  0  0  0  0
  1  9  1  0  0  0  0
  1  6  1  0  0  0  0
  2  5  1  0  0  0  0
  3  7  1  1  0  0  0
  3  2  1  0  0  0  0
  4  7  1  0  0  0  0
  5 14  1  0  0  0  0
  5 16  2  0  0  0  0
  8 23  1  0  0  0  0
  8 12  1  1  0  0  0
 10 18  1  6  0  0  0
 10 13  1  0  0  0  0
 11  4  1  0  0  0  0
 12 16  1  0  0  0  0
 13 18  1  1  0  0  0
 13  2  1  0  0  0  0
 13  8  1  0  0  0  0
 14  1  2  0  0  0  0
 15 11  1  0  0  0  0
 16 17  1  0  0  0  0
 17  6  2  0  0  0  0
 19 20  1  6  0  0  0
 19 10  1  0  0  0  0
 19  3  1  0  0  0  0
 20 15  1  0  0  0  0
 21 22  1  0  0  0  0
 22 24  1  1  0  0  0
 23 21  1  6  0  0  0
 23 22  1  0  0  0  0
 24 25  1  0  0  0  0
 25 27  1  0  0  0  0
 26 27  2  0  0  0  0
 27 28  1  0  0  0  0
 28 29  1  0  0  0  0
 29 31  2  0  0  0  0
 30 29  1  0  0  0  0
M  END
>  <MODEL>
1

>  <REMARK>
 VINA RESULT:      -7.8      0.000      0.000
  Name = 
  5 active torsions:
  status: ('A' for Active; 'I' for Inactive)
    1  A    between atoms: C_1  and  N_24
    2  A    between atoms: C_3  and  C_9
    3  A    between atoms: C_3  and  C_22
    4  A    between atoms: C_15  and  C_23
    5  A    between atoms: C_19  and  C_22
                            x       y       z     vdW  Elec       q    Type
                         _______ _______ _______ _____ _____    ______ ____

>  <TORSDO>
F 5

$$$$
=
 OpenBabel10272400153D

 31 36  0  0  1  0  0  0  0  0999 V2000
  183.5320  178.1290  138.6260 C   0  0  0  0  0  0  0  0  0  0  0  0
  187.2400  177.6040  138.5800 N   0  0  0  0  0  0  0  0  0  0  0  0
  187.6170  177.0910  137.2790 C   0  0  2  0  0  3  0  0  0  0  0  0
  187.2620  175.2830  135.5800 C   0  0  0  0  0  2  0  0  0  0  0  0
  185.9290  178.0100  138.9850 C   0  0  0  0  0  0  0  0  0  0  0  0
  183.4010  178.9150  139.7750 C   0  0  0  0  0  3  0  0  0  0  0  0
  187.2120  175.6420  137.0710 C   0  0  0  0  0  2  0  0  0  0  0  0
  188.2220  178.5910  140.7170 C   0  0  2  0  0  3  0  0  0  0  0  0
  182.4380  177.8230  137.8850 F   0  0  0  0  0  0  0  0  0  0  0  0
  189.6220  177.9710  138.4670 C   0  0  2  0  0  3  0  0  0  0  0  0
  188.6520  175.4640  134.9370 C   0  0  0  0  0  2  0  0  0  0  0  0
  186.9110  179.1340  140.9280 O   0  0  0  0  0  0  0  0  0  0  0  0
  188.3900  178.1620  139.2530 C   0  0  1  0  0  0  0  0  0  0  0  0
  184.7940  177.6810  138.2250 C   0  0  0  0  0  3  0  0  0  0  0  0
  188.9970  176.9500  134.7190 C   0  0  0  0  0  2  0  0  0  0  0  0
  185.7880  178.7840  140.1550 C   0  0  0  0  0  0  0  0  0  0  0  0
  184.5250  179.2420  140.5360 C   0  0  0  0  0  3  0  0  0  0  0  0
  188.9500  179.2110  138.4960 O   0  0  0  0  0  0  0  0  0  0  0  0
  189.1440  177.1390  137.2690 C   0  0  2  0  0  3  0  0  0  0  0  0
  189.6850  177.6220  135.9260 C   0  0  0  0  0  2  0  0  0  0  0  0
  189.9480  177.0070  141.6810 C   0  0  0  0  0  2  0  0  0  0  0  0
  189.5620  177.9340  142.8170 C   0  0  1  0  0  3  0  0  0  0  0  0
  188.5200  177.5220  141.7870 C   0  0  1  0  0  3  0  0  0  0  0  0
  189.3200  177.1260  144.0780 C   0  0  0  0  0  2  0  0  0  0  0  0
  189.3680  177.9890  145.3380 C   0  0  0  0  0  2  0  0  0  0  0  0
  189.3500  176.4350  147.1350 O   0  0  0  0  0  0  0  0  0  0  0  0
  188.7180  177.3430  146.5310 C   0  0  0  0  0  0  0  0  0  0  0  0
  187.4240  177.7250  147.0130 N   0  0  0  0  0  2  0  0  0  0  0  0
  186.4000  178.4250  146.2930 C   0  0  0  0  0  0  0  0  0  0  0  0
  185.5920  179.3650  146.9930 N   0  0  0  0  0  1  0  0  0  0  0  0
  185.8810  177.8720  144.8380 S   0  0  0  0  0  0  0  0  0  0  0  0
  1  6  1  0  0  0  0
  2  5  1  0  0  0  0
  2 13  1  0  0  0  0
  3  7  1  1  0  0  0
  3  2  1  0  0  0  0
  4  7  1  0  0  0  0
  5 16  2  0  0  0  0
  6 17  2  0  0  0  0
  8 12  1  6  0  0  0
  8 23  1  0  0  0  0
  9  1  1  0  0  0  0
 10 18  1  6  0  0  0
 10 13  1  0  0  0  0
 11  4  1  0  0  0  0
 13 18  1  6  0  0  0
 13  8  1  0  0  0  0
 14  1  2  0  0  0  0
 14  5  1  0  0  0  0
 15 11  1  0  0  0  0
 15 20  1  0  0  0  0
 16 17  1  0  0  0  0
 16 12  1  0  0  0  0
 19 20  1  6  0  0  0
 19  3  1  0  0  0  0
 19 10  1  0  0  0  0
 21 22  1  0  0  0  0
 22 24  1  1  0  0  0
 23 21  1  6  0  0  0
 23 22  1  0  0  0  0
 24 25  1  0  0  0  0
 25 27  1  0  0  0  0
 27 28  1  0  0  0  0
 27 26  2  0  0  0  0
 29 30  1  0  0  0  0
 29 28  1  0  0  0  0
 31 29  2  0  0  0  0
M  END
>  <MODEL>
2

>  <REMARK>
 VINA RESULT:      -7.8      3.197      4.612
  Name = 
  5 active torsions:
  status: ('A' for Active; 'I' for Inactive)
    1  A    between atoms: C_1  and  N_24
    2  A    between atoms: C_3  and  C_9
    3  A    between atoms: C_3  and  C_22
    4  A    between atoms: C_15  and  C_23
    5  A    between atoms: C_19  and  C_22
                            x       y       z     vdW  Elec       q    Type
                         _______ _______ _______ _____ _____    ______ ____

>  <TORSDO>
F 5

$$$$
=
 OpenBabel10272400153D

 31 36  0  0  1  0  0  0  0  0999 V2000
  189.3020  178.2100  148.4740 C   0  0  0  0  0  0  0  0  0  0  0  0
  188.5310  177.7570  144.8370 N   0  0  0  0  0  0  0  0  0  0  0  0
  189.7800  177.6710  144.1080 C   0  0  2  0  0  3  0  0  0  0  0  0
  191.9580  178.7960  143.5860 C   0  0  0  0  0  2  0  0  0  0  0  0
  188.3810  177.8540  146.2560 C   0  0  0  0  0  0  0  0  0  0  0  0
  188.0500  177.9350  149.0350 C   0  0  0  0  0  3  0  0  0  0  0  0
  190.4930  179.0070  143.9920 C   0  0  0  0  0  2  0  0  0  0  0  0
  186.0220  177.3740  144.5840 C   0  0  2  0  0  3  0  0  0  0  0  0
  190.3560  178.4950  149.2770 F   0  0  0  0  0  0  0  0  0  0  0  0
  187.9100  176.8010  142.7100 C   0  0  2  0  0  3  0  0  0  0  0  0
  192.1370  178.0650  142.2400 C   0  0  0  0  0  2  0  0  0  0  0  0
  186.0120  177.2800  146.0160 O   0  0  0  0  0  0  0  0  0  0  0  0
  187.4510  177.2060  144.0500 C   0  0  1  0  0  0  0  0  0  0  0  0
  189.4720  178.1630  147.0870 C   0  0  0  0  0  3  0  0  0  0  0  0
  191.8210  176.5610  142.3540 C   0  0  0  0  0  2  0  0  0  0  0  0
  187.1170  177.6000  146.8270 C   0  0  0  0  0  0  0  0  0  0  0  0
  186.9620  177.6300  148.2130 C   0  0  0  0  0  3  0  0  0  0  0  0
  187.7020  175.8560  143.7360 O   0  0  0  0  0  0  0  0  0  0  0  0
  189.3780  177.2490  142.6960 C   0  0  2  0  0  3  0  0  0  0  0  0
  190.3370  176.2080  142.1230 C   0  0  0  0  0  2  0  0  0  0  0  0
  185.3100  178.8220  142.6310 C   0  0  0  0  0  2  0  0  0  0  0  0
  184.0250  178.3760  143.3010 C   0  0  1  0  0  3  0  0  0  0  0  0
  185.2650  178.6420  144.1420 C   0  0  1  0  0  3  0  0  0  0  0  0
  183.0890  179.5610  143.4580 C   0  0  0  0  0  2  0  0  0  0  0  0
  181.6300  179.1320  143.6050 C   0  0  0  0  0  2  0  0  0  0  0  0
  179.9830  180.7130  142.9480 O   0  0  0  0  0  0  0  0  0  0  0  0
  180.7170  179.7550  142.5840 C   0  0  0  0  0  0  0  0  0  0  0  0
  180.6590  179.3150  141.2210 N   0  0  0  0  0  2  0  0  0  0  0  0
  181.0900  178.0530  140.6960 C   0  0  0  0  0  0  0  0  0  0  0  0
  182.3840  177.9610  140.1080 N   0  0  0  0  0  1  0  0  0  0  0  0
  180.0000  176.8650  140.3870 S   0  0  0  0  0  0  0  0  0  0  0  0
  1  6  1  0  0  0  0
  1  9  1  0  0  0  0
  2  5  1  0  0  0  0
  3  7  1  6  0  0  0
  3  2  1  0  0  0  0
  4  7  1  0  0  0  0
  5 16  2  0  0  0  0
  5 14  1  0  0  0  0
  8 12  1  1  0  0  0
 10 18  1  1  0  0  0
 10 13  1  0  0  0  0
 11 15  1  0  0  0  0
 11  4  1  0  0  0  0
 12 16  1  0  0  0  0
 13 18  1  1  0  0  0
 13  8  1  0  0  0  0
 13  2  1  0  0  0  0
 14  1  2  0  0  0  0
 16 17  1  0  0  0  0
 17  6  2  0  0  0  0
 19 20  1  1  0  0  0
 19 10  1  0  0  0  0
 19  3  1  0  0  0  0
 20 15  1  0  0  0  0
 21 22  1  0  0  0  0
 22 24  1  1  0  0  0
 22 23  1  0  0  0  0
 23 21  1  6  0  0  0
 23  8  1  0  0  0  0
 24 25  1  0  0  0  0
 27 26  2  0  0  0  0
 27 25  1  0  0  0  0
 28 27  1  0  0  0  0
 29 28  1  0  0  0  0
 30 29  1  0  0  0  0
 31 29  2  0  0  0  0
M  END
>  <MODEL>
3

>  <REMARK>
 VINA RESULT:      -7.7      3.822      8.175
  Name = 
  5 active torsions:
  status: ('A' for Active; 'I' for Inactive)
    1  A    between atoms: C_1  and  N_24
    2  A    between atoms: C_3  and  C_9
    3  A    between atoms: C_3  and  C_22
    4  A    between atoms: C_15  and  C_23
    5  A    between atoms: C_19  and  C_22
                            x       y       z     vdW  Elec       q    Type
                         _______ _______ _______ _____ _____    ______ ____

>  <TORSDO>
F 5

$$$$
=
 OpenBabel10272400153D

 31 36  0  0  1  0  0  0  0  0999 V2000
  183.6870  178.6330  140.4680 C   0  0  0  0  0  0  0  0  0  0  0  0
  186.8720  177.8730  138.6510 N   0  0  0  0  0  0  0  0  0  0  0  0
  186.5610  177.6270  137.2570 C   0  0  2  0  0  3  0  0  0  0  0  0
  185.2220  176.2560  135.6420 C   0  0  0  0  0  2  0  0  0  0  0  0
  185.9500  178.2730  139.6690 C   0  0  0  0  0  0  0  0  0  0  0  0
  184.1940  179.1610  141.6600 C   0  0  0  0  0  3  0  0  0  0  0  0
  185.8810  176.2890  137.0280 C   0  0  0  0  0  2  0  0  0  0  0  0
  188.8270  178.3060  140.2310 C   0  0  2  0  0  3  0  0  0  0  0  0
  182.3470  178.5710  140.2710 F   0  0  0  0  0  0  0  0  0  0  0  0
  188.9950  178.0890  137.5240 C   0  0  2  0  0  3  0  0  0  0  0  0
  186.2050  176.4740  134.4740 C   0  0  0  0  0  2  0  0  0  0  0  0
  187.8420  178.8810  141.1020 O   0  0  0  0  0  0  0  0  0  0  0  0
  188.2730  178.1920  138.8040 C   0  0  1  0  0  0  0  0  0  0  0  0
  184.5620  178.1950  139.4690 C   0  0  0  0  0  3  0  0  0  0  0  0
  186.6530  177.9440  134.3650 C   0  0  0  0  0  2  0  0  0  0  0  0
  186.4550  178.7860  140.8820 C   0  0  0  0  0  0  0  0  0  0  0  0
  185.5740  179.2370  141.8650 C   0  0  0  0  0  3  0  0  0  0  0  0
  188.6090  179.3370  138.0540 O   0  0  0  0  0  0  0  0  0  0  0  0
  187.9190  177.5700  136.5600 C   0  0  2  0  0  3  0  0  0  0  0  0
  187.8940  178.2910  135.2140 C   0  0  0  0  0  2  0  0  0  0  0  0
  190.7610  176.6710  140.3050 C   0  0  0  0  0  2  0  0  0  0  0  0
  190.6280  177.2140  141.7150 C   0  0  1  0  0  3  0  0  0  0  0  0
  189.3860  177.0140  140.8590 C   0  0  1  0  0  3  0  0  0  0  0  0
  190.6990  176.0740  142.7130 C   0  0  0  0  0  2  0  0  0  0  0  0
  191.3400  176.4980  144.0330 C   0  0  0  0  0  2  0  0  0  0  0  0
  192.0410  178.7580  144.2480 O   0  0  0  0  0  0  0  0  0  0  0  0
  191.0910  177.9410  144.3830 C   0  0  0  0  0  0  0  0  0  0  0  0
  189.8230  178.4200  144.8470 N   0  0  0  0  0  2  0  0  0  0  0  0
  188.7610  177.6510  145.4240 C   0  0  0  0  0  0  0  0  0  0  0  0
  189.0060  176.9450  146.6360 N   0  0  0  0  0  1  0  0  0  0  0  0
  187.4510  177.2380  144.5260 S   0  0  0  0  0  0  0  0  0  0  0  0
  1  6  1  0  0  0  0
  2 13  1  0  0  0  0
  2  5  1  0  0  0  0
  3  7  1  1  0  0  0
  3  2  1  0  0  0  0
  4  7  1  0  0  0  0
  5 16  2  0  0  0  0
  6 17  2  0  0  0  0
  8 23  1  0  0  0  0
  8 12  1  1  0  0  0
  9  1  1  0  0  0  0
 10 18  1  6  0  0  0
 10 13  1  0  0  0  0
 11  4  1  0  0  0  0
 13 18  1  6  0  0  0
 13  8  1  0  0  0  0
 14  5  1  0  0  0  0
 14  1  2  0  0  0  0
 15 11  1  0  0  0  0
 15 20  1  0  0  0  0
 16 12  1  0  0  0  0
 16 17  1  0  0  0  0
 19 20  1  6  0  0  0
 19  3  1  0  0  0  0
 19 10  1  0  0  0  0
 21 22  1  0  0  0  0
 22 24  1  1  0  0  0
 23 21  1  6  0  0  0
 23 22  1  0  0  0  0
 24 25  1  0  0  0  0
 25 27  1  0  0  0  0
 26 27  2  0  0  0  0
 27 28  1  0  0  0  0
 28 29  1  0  0  0  0
 29 30  1  0  0  0  0
 31 29  2  0  0  0  0
M  END
>  <MODEL>
4

>  <REMARK>
 VINA RESULT:      -7.7      2.549      3.502
  Name = 
  5 active torsions:
  status: ('A' for Active; 'I' for Inactive)
    1  A    between atoms: C_1  and  N_24
    2  A    between atoms: C_3  and  C_9
    3  A    between atoms: C_3  and  C_22
    4  A    between atoms: C_15  and  C_23
    5  A    between atoms: C_19  and  C_22
                            x       y       z     vdW  Elec       q    Type
                         _______ _______ _______ _____ _____    ______ ____

>  <TORSDO>
F 5

$$$$
=
 OpenBabel10272400153D

 31 36  0  0  1  0  0  0  0  0999 V2000
  184.0140  177.6700  137.3620 C   0  0  0  0  0  0  0  0  0  0  0  0
  187.5760  177.2160  138.4250 N   0  0  0  0  0  0  0  0  0  0  0  0
  188.2990  176.5670  137.3500 C   0  0  2  0  0  3  0  0  0  0  0  0
  188.4140  174.5700  135.8390 C   0  0  0  0  0  2  0  0  0  0  0  0
  186.2100  177.6400  138.3950 C   0  0  0  0  0  0  0  0  0  0  0  0
  183.5740  178.5790  138.3300 C   0  0  0  0  0  3  0  0  0  0  0  0
  187.9490  175.0950  137.2040 C   0  0  0  0  0  2  0  0  0  0  0  0
  187.9280  178.4590  140.6240 C   0  0  2  0  0  3  0  0  0  0  0  0
  183.1690  177.2610  136.3840 F   0  0  0  0  0  0  0  0  0  0  0  0
  189.8980  177.6150  138.9470 C   0  0  2  0  0  3  0  0  0  0  0  0
  189.9310  174.7050  135.5980 C   0  0  0  0  0  2  0  0  0  0  0  0
  186.6180  178.9960  140.3940 O   0  0  0  0  0  0  0  0  0  0  0  0
  188.4970  177.8700  139.3260 C   0  0  1  0  0  0  0  0  0  0  0  0
  185.3320  177.2050  137.3880 C   0  0  0  0  0  3  0  0  0  0  0  0
  190.3430  176.1620  135.3180 C   0  0  0  0  0  2  0  0  0  0  0  0
  185.7540  178.5400  139.3800 C   0  0  0  0  0  0  0  0  0  0  0  0
  184.4420  179.0120  139.3350 C   0  0  0  0  0  3  0  0  0  0  0  0
  189.2620  178.8360  138.6430 O   0  0  0  0  0  0  0  0  0  0  0  0
  189.7660  176.6430  137.7660 C   0  0  2  0  0  3  0  0  0  0  0  0
  190.6720  176.9810  136.5840 C   0  0  0  0  0  2  0  0  0  0  0  0
  189.2300  176.8160  142.0470 C   0  0  0  0  0  2  0  0  0  0  0  0
  188.8270  177.9380  142.9820 C   0  0  1  0  0  3  0  0  0  0  0  0
  187.8980  177.5240  141.8500 C   0  0  1  0  0  3  0  0  0  0  0  0
  188.2800  177.3590  144.2740 C   0  0  0  0  0  2  0  0  0  0  0  0
  188.8330  178.0690  145.5080 C   0  0  0  0  0  2  0  0  0  0  0  0
  187.5790  177.3350  147.3880 O   0  0  0  0  0  0  0  0  0  0  0  0
  188.6790  177.2730  146.7760 C   0  0  0  0  0  0  0  0  0  0  0  0
  189.7210  176.4450  147.3040 N   0  0  0  0  0  2  0  0  0  0  0  0
  191.1220  176.5170  147.0110 C   0  0  0  0  0  0  0  0  0  0  0  0
  192.0070  177.0060  148.0140 N   0  0  0  0  0  1  0  0  0  0  0  0
  191.6520  176.4540  145.4590 S   0  0  0  0  0  0  0  0  0  0  0  0
  1 14  2  0  0  0  0
  1  6  1  0  0  0  0
  2 13  1  0  0  0  0
  3  7  1  1  0  0  0
  3 19  1  0  0  0  0
  3  2  1  0  0  0  0
  4  7  1  0  0  0  0
  5  2  1  0  0  0  0
  5 16  2  0  0  0  0
  6 17  2  0  0  0  0
  8 12  1  6  0  0  0
  8 23  1  0  0  0  0
  9  1  1  0  0  0  0
 10 18  1  6  0  0  0
 10 13  1  0  0  0  0
 11  4  1  0  0  0  0
 13 18  1  6  0  0  0
 13  8  1  0  0  0  0
 14  5  1  0  0  0  0
 15 11  1  0  0  0  0
 15 20  1  0  0  0  0
 16 12  1  0  0  0  0
 17 16  1  0  0  0  0
 19 20  1  6  0  0  0
 19 10  1  0  0  0  0
 21 22  1  0  0  0  0
 22 24  1  1  0  0  0
 23 21  1  6  0  0  0
 23 22  1  0  0  0  0
 24 25  1  0  0  0  0
 25 27  1  0  0  0  0
 27 28  1  0  0  0  0
 27 26  2  0  0  0  0
 29 28  1  0  0  0  0
 29 30  1  0  0  0  0
 31 29  2  0  0  0  0
M  END
>  <MODEL>
5

>  <REMARK>
 VINA RESULT:      -7.2      3.440      5.297
  Name = 
  5 active torsions:
  status: ('A' for Active; 'I' for Inactive)
    1  A    between atoms: C_1  and  N_24
    2  A    between atoms: C_3  and  C_9
    3  A    between atoms: C_3  and  C_22
    4  A    between atoms: C_15  and  C_23
    5  A    between atoms: C_19  and  C_22
                            x       y       z     vdW  Elec       q    Type
                         _______ _______ _______ _____ _____    ______ ____

>  <TORSDO>
F 5

$$$$
=
 OpenBabel10272400153D

 31 36  0  0  1  0  0  0  0  0999 V2000
  189.9330  177.6800  140.9970 C   0  0  0  0  0  0  0  0  0  0  0  0
  186.5100  178.1580  142.4390 N   0  0  0  0  0  0  0  0  0  0  0  0
  186.6160  178.1670  143.8840 C   0  0  2  0  0  3  0  0  0  0  0  0
  187.3810  176.9130  145.9150 C   0  0  0  0  0  2  0  0  0  0  0  0
  187.5950  178.0770  141.5090 C   0  0  0  0  0  0  0  0  0  0  0  0
  189.6980  178.0310  139.6630 C   0  0  0  0  0  3  0  0  0  0  0  0
  186.8840  176.7900  144.4690 C   0  0  0  0  0  2  0  0  0  0  0  0
  184.8980  178.6860  140.5360 C   0  0  2  0  0  3  0  0  0  0  0  0
  191.1820  177.3370  141.3970 F   0  0  0  0  0  0  0  0  0  0  0  0
  184.4330  179.1380  143.1780 C   0  0  2  0  0  3  0  0  0  0  0  0
  186.3940  177.6250  146.8600 C   0  0  0  0  0  2  0  0  0  0  0  0
  186.0760  178.7890  139.7230 O   0  0  0  0  0  0  0  0  0  0  0  0
  185.2680  178.7670  142.0230 C   0  0  1  0  0  0  0  0  0  0  0  0
  188.8860  177.7090  141.9230 C   0  0  0  0  0  3  0  0  0  0  0  0
  186.3520  179.1450  146.6130 C   0  0  0  0  0  2  0  0  0  0  0  0
  187.3590  178.4090  140.1590 C   0  0  0  0  0  0  0  0  0  0  0  0
  188.4150  178.3940  139.2470 C   0  0  0  0  0  3  0  0  0  0  0  0
  185.1900  180.0990  142.4760 O   0  0  0  0  0  0  0  0  0  0  0  0
  185.2360  178.6030  144.3730 C   0  0  2  0  0  3  0  0  0  0  0  0
  185.3340  179.5830  145.5400 C   0  0  0  0  0  2  0  0  0  0  0  0
  182.5770  177.7080  140.2640 C   0  0  0  0  0  2  0  0  0  0  0  0
  183.1900  177.7000  138.8770 C   0  0  1  0  0  3  0  0  0  0  0  0
  184.0690  177.4630  140.0970 C   0  0  1  0  0  3  0  0  0  0  0  0
  182.9380  176.3590  138.2130 C   0  0  0  0  0  2  0  0  0  0  0  0
  183.5530  176.2800  136.8160 C   0  0  0  0  0  2  0  0  0  0  0  0
  185.6950  177.2900  136.6240 O   0  0  0  0  0  0  0  0  0  0  0  0
  185.0570  176.2220  136.8280 C   0  0  0  0  0  0  0  0  0  0  0  0
  185.7870  175.0130  137.0710 N   0  0  0  0  0  2  0  0  0  0  0  0
  185.3080  173.6680  136.9450 C   0  0  0  0  0  0  0  0  0  0  0  0
  185.3240  172.8250  138.0930 N   0  0  0  0  0  1  0  0  0  0  0  0
  185.1470  172.9780  135.4650 S   0  0  0  0  0  0  0  0  0  0  0  0
  1  9  1  0  0  0  0
  1 14  1  0  0  0  0
  2  3  1  0  0  0  0
  3 19  1  0  0  0  0
  3  7  1  1  0  0  0
  4 11  1  0  0  0  0
  5 14  2  0  0  0  0
  5  2  1  0  0  0  0
  6  1  2  0  0  0  0
  7  4  1  0  0  0  0
  8 12  1  6  0  0  0
  8 13  1  0  0  0  0
 10 18  1  1  0  0  0
 10 19  1  0  0  0  0
 12 16  1  0  0  0  0
 13  2  1  0  0  0  0
 13 18  1  6  0  0  0
 13 10  1  0  0  0  0
 15 11  1  0  0  0  0
 16  5  1  0  0  0  0
 17  6  1  0  0  0  0
 17 16  2  0  0  0  0
 19 20  1  1  0  0  0
 20 15  1  0  0  0  0
 22 24  1  6  0  0  0
 22 23  1  0  0  0  0
 22 21  1  0  0  0  0
 23 21  1  1  0  0  0
 23  8  1  0  0  0  0
 25 27  1  0  0  0  0
 25 24  1  0  0  0  0
 26 27  2  0  0  0  0
 27 28  1  0  0  0  0
 29 28  1  0  0  0  0
 29 30  1  0  0  0  0
 31 29  2  0  0  0  0
M  END
>  <MODEL>
6

>  <REMARK>
 VINA RESULT:      -7.0      3.876      7.570
  Name = 
  5 active torsions:
  status: ('A' for Active; 'I' for Inactive)
    1  A    between atoms: C_1  and  N_24
    2  A    between atoms: C_3  and  C_9
    3  A    between atoms: C_3  and  C_22
    4  A    between atoms: C_15  and  C_23
    5  A    between atoms: C_19  and  C_22
                            x       y       z     vdW  Elec       q    Type
                         _______ _______ _______ _____ _____    ______ ____

>  <TORSDO>
F 5

$$$$
=
 OpenBabel10272400153D

 31 36  0  0  1  0  0  0  0  0999 V2000
  185.6780  176.9880  137.1500 C   0  0  0  0  0  0  0  0  0  0  0  0
  189.1880  176.1520  138.1530 N   0  0  0  0  0  0  0  0  0  0  0  0
  189.7680  175.2980  137.1360 C   0  0  2  0  0  3  0  0  0  0  0  0
  189.5430  173.1590  135.8510 C   0  0  0  0  0  2  0  0  0  0  0  0
  187.8930  176.7580  138.1160 C   0  0  0  0  0  0  0  0  0  0  0  0
  185.4090  178.0470  138.0250 C   0  0  0  0  0  3  0  0  0  0  0  0
  189.2140  173.8840  137.1620 C   0  0  0  0  0  2  0  0  0  0  0  0
  189.8030  177.5560  140.1910 C   0  0  2  0  0  3  0  0  0  0  0  0
  184.7440  176.6020  136.2470 F   0  0  0  0  0  0  0  0  0  0  0  0
  191.5640  176.2730  138.5610 C   0  0  2  0  0  3  0  0  0  0  0  0
  191.0510  173.0530  135.5520 C   0  0  0  0  0  2  0  0  0  0  0  0
  188.5690  178.2460  139.9410 O   0  0  0  0  0  0  0  0  0  0  0  0
  190.2290  176.7610  138.9500 C   0  0  1  0  0  0  0  0  0  0  0  0
  186.9200  176.3470  137.1890 C   0  0  0  0  0  3  0  0  0  0  0  0
  191.6470  174.4000  135.1020 C   0  0  0  0  0  2  0  0  0  0  0  0
  187.6080  177.8110  139.0090 C   0  0  0  0  0  0  0  0  0  0  0  0
  186.3720  178.4570  138.9500 C   0  0  0  0  0  3  0  0  0  0  0  0
  191.0880  177.5330  138.1430 O   0  0  0  0  0  0  0  0  0  0  0  0
  191.2490  175.2110  137.4980 C   0  0  2  0  0  3  0  0  0  0  0  0
  192.1390  175.2920  136.2610 C   0  0  0  0  0  2  0  0  0  0  0  0
  191.0720  176.4870  142.1050 C   0  0  0  0  0  2  0  0  0  0  0  0
  190.1760  177.5320  142.7410 C   0  0  1  0  0  3  0  0  0  0  0  0
  189.6990  176.7690  141.5130 C   0  0  1  0  0  3  0  0  0  0  0  0
  189.4830  176.9440  143.9560 C   0  0  0  0  0  2  0  0  0  0  0  0
  188.5460  177.9440  144.6300 C   0  0  0  0  0  2  0  0  0  0  0  0
  186.6160  177.1500  143.4930 O   0  0  0  0  0  0  0  0  0  0  0  0
  187.1000  177.5270  144.5940 C   0  0  0  0  0  0  0  0  0  0  0  0
  186.2620  177.5290  145.7560 N   0  0  0  0  0  2  0  0  0  0  0  0
  186.4690  178.2520  146.9760 C   0  0  0  0  0  0  0  0  0  0  0  0
  185.8120  179.5040  147.1510 N   0  0  0  0  0  1  0  0  0  0  0  0
  187.7340  177.8850  147.9560 S   0  0  0  0  0  0  0  0  0  0  0  0
  1 14  2  0  0  0  0
  1  6  1  0  0  0  0
  2 13  1  0  0  0  0
  3  7  1  1  0  0  0
  3 19  1  0  0  0  0
  3  2  1  0  0  0  0
  4  7  1  0  0  0  0
  5  2  1  0  0  0  0
  5 16  2  0  0  0  0
  6 17  2  0  0  0  0
  8 12  1  6  0  0  0
  8 23  1  0  0  0  0
  9  1  1  0  0  0  0
 10 18  1  6  0  0  0
 10 13  1  0  0  0  0
 11  4  1  0  0  0  0
 13 18  1  6  0  0  0
 13  8  1  0  0  0  0
 14  5  1  0  0  0  0
 15 11  1  0  0  0  0
 15 20  1  0  0  0  0
 16 12  1  0  0  0  0
 17 16  1  0  0  0  0
 19 20  1  6  0  0  0
 19 10  1  0  0  0  0
 21 22  1  0  0  0  0
 22 24  1  1  0  0  0
 23 21  1  6  0  0  0
 23 22  1  0  0  0  0
 24 25  1  0  0  0  0
 26 27  2  0  0  0  0
 27 25  1  0  0  0  0
 27 28  1  0  0  0  0
 28 29  1  0  0  0  0
 29 30  1  0  0  0  0
 29 31  2  0  0  0  0
M  END
>  <MODEL>
7

>  <REMARK>
 VINA RESULT:      -6.8      4.084      6.349
  Name = 
  5 active torsions:
  status: ('A' for Active; 'I' for Inactive)
    1  A    between atoms: C_1  and  N_24
    2  A    between atoms: C_3  and  C_9
    3  A    between atoms: C_3  and  C_22
    4  A    between atoms: C_15  and  C_23
    5  A    between atoms: C_19  and  C_22
                            x       y       z     vdW  Elec       q    Type
                         _______ _______ _______ _____ _____    ______ ____

>  <TORSDO>
F 5

$$$$
=
 OpenBabel10272400153D

 31 36  0  0  1  0  0  0  0  0999 V2000
  186.1260  178.0300  143.6210 C   0  0  0  0  0  0  0  0  0  0  0  0
  184.4120  178.4990  140.3240 N   0  0  0  0  0  0  0  0  0  0  0  0
  183.0160  178.7990  140.5680 C   0  0  2  0  0  3  0  0  0  0  0  0
  180.8900  178.0330  141.6520 C   0  0  0  0  0  2  0  0  0  0  0  0
  185.4300  178.3280  141.3150 C   0  0  0  0  0  0  0  0  0  0  0  0
  187.4660  178.0940  143.2220 C   0  0  0  0  0  3  0  0  0  0  0  0
  182.2220  177.5900  141.0310 C   0  0  0  0  0  2  0  0  0  0  0  0
  186.1830  178.5130  138.4880 C   0  0  2  0  0  3  0  0  0  0  0  0
  185.8160  177.8760  144.9320 F   0  0  0  0  0  0  0  0  0  0  0  0
  183.6340  179.4320  138.2390 C   0  0  2  0  0  3  0  0  0  0  0  0
  179.9860  178.8320  140.6930 C   0  0  0  0  0  2  0  0  0  0  0  0
  187.1300  178.5500  139.5650 O   0  0  0  0  0  0  0  0  0  0  0  0
  184.7890  178.9120  138.9910 C   0  0  1  0  0  0  0  0  0  0  0  0
  185.1070  178.1540  142.6710 C   0  0  0  0  0  3  0  0  0  0  0  0
  180.5040  180.2670  140.4730 C   0  0  0  0  0  2  0  0  0  0  0  0
  186.7820  178.3690  140.9170 C   0  0  0  0  0  0  0  0  0  0  0  0
  187.7910  178.2630  141.8750 C   0  0  0  0  0  3  0  0  0  0  0  0
  184.5840  180.2960  138.8210 O   0  0  0  0  0  0  0  0  0  0  0  0
  182.4620  179.2080  139.2050 C   0  0  2  0  0  3  0  0  0  0  0  0
  181.5160  180.4020  139.3160 C   0  0  0  0  0  2  0  0  0  0  0  0
  185.9010  177.2940  136.2850 C   0  0  0  0  0  2  0  0  0  0  0  0
  187.3570  177.1180  136.6670 C   0  0  1  0  0  3  0  0  0  0  0  0
  186.2890  177.1630  137.7500 C   0  0  1  0  0  3  0  0  0  0  0  0
  187.7670  175.6700  136.4720 C   0  0  0  0  0  2  0  0  0  0  0  0
  189.2760  175.5140  136.2950 C   0  0  0  0  0  2  0  0  0  0  0  0
  189.4120  173.3780  137.3270 O   0  0  0  0  0  0  0  0  0  0  0  0
  189.8950  174.5410  137.2610 C   0  0  0  0  0  0  0  0  0  0  0  0
  191.0100  174.8760  138.0960 N   0  0  0  0  0  2  0  0  0  0  0  0
  191.4570  176.1870  138.4630 C   0  0  0  0  0  0  0  0  0  0  0  0
  192.7980  176.5630  138.1630 N   0  0  0  0  0  1  0  0  0  0  0  0
  190.6200  177.0740  139.5620 S   0  0  0  0  0  0  0  0  0  0  0  0
  1  9  1  0  0  0  0
  2  3  1  0  0  0  0
  2  5  1  0  0  0  0
  3  7  1  6  0  0  0
  5 14  1  0  0  0  0
  6  1  1  0  0  0  0
  7  4  1  0  0  0  0
  8 13  1  0  0  0  0
  8 12  1  1  0  0  0
 10 18  1  1  0  0  0
 10 13  1  0  0  0  0
 10 19  1  0  0  0  0
 11  4  1  0  0  0  0
 12 16  1  0  0  0  0
 13 18  1  1  0  0  0
 13  2  1  0  0  0  0
 14  1  2  0  0  0  0
 15 11  1  0  0  0  0
 16  5  2  0  0  0  0
 16 17  1  0  0  0  0
 17  6  2  0  0  0  0
 19 20  1  1  0  0  0
 19  3  1  0  0  0  0
 20 15  1  0  0  0  0
 21 22  1  0  0  0  0
 22 24  1  6  0  0  0
 22 23  1  0  0  0  0
 23 21  1  6  0  0  0
 23  8  1  0  0  0  0
 25 24  1  0  0  0  0
 25 27  1  0  0  0  0
 27 26  2  0  0  0  0
 27 28  1  0  0  0  0
 28 29  1  0  0  0  0
 29 31  2  0  0  0  0
 30 29  1  0  0  0  0
M  END
>  <MODEL>
8

>  <REMARK>
 VINA RESULT:      -6.6      3.771      4.869
  Name = 
  5 active torsions:
  status: ('A' for Active; 'I' for Inactive)
    1  A    between atoms: C_1  and  N_24
    2  A    between atoms: C_3  and  C_9
    3  A    between atoms: C_3  and  C_22
    4  A    between atoms: C_15  and  C_23
    5  A    between atoms: C_19  and  C_22
                            x       y       z     vdW  Elec       q    Type
                         _______ _______ _______ _____ _____    ______ ____

>  <TORSDO>
F 5

$$$$
=
 OpenBabel10272400153D

 31 36  0  0  1  0  0  0  0  0999 V2000
  188.7800  178.3040  148.2190 C   0  0  0  0  0  0  0  0  0  0  0  0
  188.4510  177.7380  144.5310 N   0  0  0  0  0  0  0  0  0  0  0  0
  189.7790  177.6560  143.9570 C   0  0  2  0  0  3  0  0  0  0  0  0
  191.9850  178.8080  143.6620 C   0  0  0  0  0  2  0  0  0  0  0  0
  188.1330  177.8700  145.9200 C   0  0  0  0  0  0  0  0  0  0  0  0
  187.4750  178.0200  148.6360 C   0  0  0  0  0  3  0  0  0  0  0  0
  190.4800  179.0020  143.8870 C   0  0  0  0  0  2  0  0  0  0  0  0
  185.9970  177.3000  143.9960 C   0  0  2  0  0  3  0  0  0  0  0  0
  189.7270  178.6310  149.1310 F   0  0  0  0  0  0  0  0  0  0  0  0
  188.1020  176.7120  142.3750 C   0  0  2  0  0  3  0  0  0  0  0  0
  192.3340  178.0450  142.3690 C   0  0  0  0  0  2  0  0  0  0  0  0
  185.8180  177.2440  145.4190 O   0  0  0  0  0  0  0  0  0  0  0  0
  187.4810  177.1450  143.6390 C   0  0  1  0  0  0  0  0  0  0  0  0
  189.1130  178.2230  146.8630 C   0  0  0  0  0  3  0  0  0  0  0  0
  192.0310  176.5390  142.4880 C   0  0  0  0  0  2  0  0  0  0  0  0
  186.8150  177.6070  146.3440 C   0  0  0  0  0  0  0  0  0  0  0  0
  186.4970  177.6720  147.7020 C   0  0  0  0  0  3  0  0  0  0  0  0
  187.7890  175.7920  143.3960 O   0  0  0  0  0  0  0  0  0  0  0  0
  189.5540  177.1890  142.5200 C   0  0  2  0  0  3  0  0  0  0  0  0
  190.5900  176.1510  142.0950 C   0  0  0  0  0  2  0  0  0  0  0  0
  185.9810  179.0810  142.1950 C   0  0  0  0  0  2  0  0  0  0  0  0
  184.6660  178.3420  142.0510 C   0  0  1  0  0  3  0  0  0  0  0  0
  185.2770  178.5410  143.4310 C   0  0  1  0  0  3  0  0  0  0  0  0
  183.5320  179.3380  141.8930 C   0  0  0  0  0  2  0  0  0  0  0  0
  182.7160  179.0900  140.6250 C   0  0  0  0  0  2  0  0  0  0  0  0
  184.2260  180.2700  139.2210 O   0  0  0  0  0  0  0  0  0  0  0  0
  183.5170  179.2380  139.3600 C   0  0  0  0  0  0  0  0  0  0  0  0
  183.5140  178.2530  138.3190 N   0  0  0  0  0  2  0  0  0  0  0  0
  182.5330  177.2350  138.0880 C   0  0  0  0  0  0  0  0  0  0  0  0
  181.3120  177.5930  137.4480 N   0  0  0  0  0  1  0  0  0  0  0  0
  182.6060  175.8100  138.8980 S   0  0  0  0  0  0  0  0  0  0  0  0
  1  6  1  0  0  0  0
  1  9  1  0  0  0  0
  2  5  1  0  0  0  0
  3  7  1  6  0  0  0
  3  2  1  0  0  0  0
  4  7  1  0  0  0  0
  5 16  2  0  0  0  0
  5 14  1  0  0  0  0
  8 12  1  1  0  0  0
 10 19  1  0  0  0  0
 10 18  1  1  0  0  0
 10 13  1  0  0  0  0
 11 15  1  0  0  0  0
 11  4  1  0  0  0  0
 12 16  1  0  0  0  0
 13 18  1  1  0  0  0
 13  8  1  0  0  0  0
 13  2  1  0  0  0  0
 14  1  2  0  0  0  0
 16 17  1  0  0  0  0
 17  6  2  0  0  0  0
 19 20  1  1  0  0  0
 19  3  1  0  0  0  0
 20 15  1  0  0  0  0
 22 24  1  1  0  0  0
 22 21  1  0  0  0  0
 22 23  1  0  0  0  0
 23 21  1  6  0  0  0
 23  8  1  0  0  0  0
 25 24  1  0  0  0  0
 26 27  2  0  0  0  0
 27 25  1  0  0  0  0
 28 27  1  0  0  0  0
 29 28  1  0  0  0  0
 29 31  2  0  0  0  0
 30 29  1  0  0  0  0
M  END
>  <MODEL>
9

>  <REMARK>
 VINA RESULT:      -6.5      3.345      7.866
  Name = 
  5 active torsions:
  status: ('A' for Active; 'I' for Inactive)
    1  A    between atoms: C_1  and  N_24
    2  A    between atoms: C_3  and  C_9
    3  A    between atoms: C_3  and  C_22
    4  A    between atoms: C_15  and  C_23
    5  A    between atoms: C_19  and  C_22
                            x       y       z     vdW  Elec       q    Type
                         _______ _______ _______ _____ _____    ______ ____

>  <TORSDO>
F 5

$$$$
