=
 OpenBabel10272413593D

 30 33  0  0  1  0  0  0  0  0999 V2000
  185.0490  177.3510  137.1830 C   0  0  2  0  0  3  0  0  0  0  0  0
  188.1040  176.3190  135.4960 C   0  0  0  0  0  2  0  0  0  0  0  0
  184.1240  174.2550  136.6720 C   0  0  0  0  0  2  0  0  0  0  0  0
  183.8460  176.8380  138.0120 C   0  0  1  0  0  3  0  0  0  0  0  0
  181.7090  181.3290  138.2170 C   0  0  0  0  0  2  0  0  0  0  0  0
  182.0390  177.5420  136.3610 C   0  0  0  0  0  2  0  0  0  0  0  0
  181.9900  174.5660  135.7040 O   0  0  0  0  0  1  0  0  0  0  0  0
  183.2010  177.7790  139.0450 C   0  0  2  0  0  3  0  0  0  0  0  0
  188.5670  174.8680  135.5720 C   0  0  0  0  0  2  0  0  0  0  0  0
  181.8240  178.7560  137.2300 C   0  0  0  0  0  0  0  0  0  0  0  0
  180.5890  180.8060  137.5500 O   0  0  0  0  0  0  0  0  0  0  0  0
  186.5930  176.4330  135.3680 C   0  0  0  0  0  2  0  0  0  0  0  0
  185.5500  174.7370  137.0280 C   0  0  2  0  0  3  0  0  0  0  0  0
  188.0510  174.1410  136.8170 C   0  0  0  0  0  2  0  0  0  0  0  0
  185.9620  176.2020  136.7320 C   0  0  2  0  0  3  0  0  0  0  0  0
  183.6950  175.8220  134.9120 O   0  0  0  0  0  1  0  0  0  0  0  0
  183.1410  175.2640  136.0680 C   0  0  0  0  0  0  0  0  0  0  0  0
  182.7280  176.3620  137.0730 C   0  0  1  0  0  3  0  0  0  0  0  0
  181.0800  179.8590  136.7040 N   0  0  0  0  0  2  0  0  0  0  0  0
  182.2880  180.2480  139.1400 C   0  0  0  0  0  2  0  0  0  0  0  0
  186.6010  173.6720  136.6610 C   0  0  2  0  0  3  0  0  0  0  0  0
  186.3780  173.1470  135.3830 O   0  0  0  0  0  1  0  0  0  0  0  0
  182.4620  178.9330  138.4060 C   0  0  0  0  0  0  0  0  0  0  0  0
  184.1110  178.1370  140.1790 C   0  0  0  0  0  3  0  0  0  0  0  0
  183.7510  177.9330  141.4380 C   0  0  0  0  0  3  0  0  0  0  0  0
  184.6420  178.2970  142.5030 C   0  0  0  0  0  0  0  0  0  0  0  0
  185.3900  178.6020  143.3970 C   0  0  0  0  0  3  0  0  0  0  0  0
  185.9140  178.3950  137.8790 C   0  0  0  0  0  2  0  0  0  0  0  0
  187.5880  178.3540  139.6960 C   0  0  0  0  0  1  0  0  0  0  0  0
  187.2120  177.7700  138.3500 C   0  0  0  0  0  2  0  0  0  0  0  0
  1 28  1  1  0  0  0
  1  4  1  0  0  0  0
  2  9  1  0  0  0  0
  3 13  1  0  0  0  0
  4  8  1  0  0  0  0
  5 20  1  0  0  0  0
  6 18  1  0  0  0  0
  6 10  1  0  0  0  0
  7 17  1  0  0  0  0
  8 24  1  0  0  0  0
  9 14  1  0  0  0  0
 10 23  2  0  0  0  0
 11  5  1  0  0  0  0
 12  2  1  0  0  0  0
 12 15  1  0  0  0  0
 15 13  1  0  0  0  0
 15  1  1  0  0  0  0
 16 17  1  0  0  0  0
 17  3  1  0  0  0  0
 17 18  1  0  0  0  0
 18  4  1  0  0  0  0
 19 10  1  0  0  0  0
 19 11  1  0  0  0  0
 21 14  1  0  0  0  0
 21 13  1  0  0  0  0
 22 21  1  0  0  0  0
 23  8  1  0  0  0  0
 23 20  1  0  0  0  0
 24 25  2  0  0  0  0
 25 26  1  0  0  0  0
 26 27  3  0  0  0  0
 28 30  1  0  0  0  0
 30 29  1  0  0  0  0
M  END
>  <MODEL>
1

>  <REMARK>
 VINA RESULT:      -5.0      0.000      0.000
  Name = 
  4 active torsions:
  status: ('A' for Active; 'I' for Inactive)
    1  A    between atoms: C_1  and  C_5
    2  A    between atoms: C_5  and  C_12
    3  A    between atoms: C_6  and  C_13
    4  A    between atoms: C_9  and  C_21
                            x       y       z     vdW  Elec       q    Type
                         _______ _______ _______ _____ _____    ______ ____

>  <TORSDO>
F 4

$$$$
=
 OpenBabel10272413593D

 30 33  0  0  1  0  0  0  0  0999 V2000
  184.7670  176.9520  138.6310 C   0  0  2  0  0  3  0  0  0  0  0  0
  184.3970  174.2330  136.2410 C   0  0  0  0  0  2  0  0  0  0  0  0
  186.9460  178.0980  136.4760 C   0  0  0  0  0  2  0  0  0  0  0  0
  185.1780  178.4380  138.7790 C   0  0  1  0  0  3  0  0  0  0  0  0
  184.5530  178.4130  143.7170 C   0  0  0  0  0  2  0  0  0  0  0  0
  187.1210  178.0410  140.3760 C   0  0  0  0  0  2  0  0  0  0  0  0
  188.7990  178.5270  137.8780 O   0  0  0  0  0  1  0  0  0  0  0  0
  184.5110  179.2870  139.8760 C   0  0  2  0  0  3  0  0  0  0  0  0
  184.6470  174.4810  134.7550 C   0  0  0  0  0  2  0  0  0  0  0  0
  186.1830  178.4290  141.4930 C   0  0  0  0  0  0  0  0  0  0  0  0
  185.9100  178.7380  143.8710 O   0  0  0  0  0  0  0  0  0  0  0  0
  185.3820  174.9870  137.1210 C   0  0  0  0  0  2  0  0  0  0  0  0
  185.6200  177.3750  136.1400 C   0  0  2  0  0  3  0  0  0  0  0  0
  184.4370  175.9420  134.3500 C   0  0  0  0  0  2  0  0  0  0  0  0
  184.9630  176.4470  137.1950 C   0  0  2  0  0  3  0  0  0  0  0  0
  187.7480  176.5390  138.1070 O   0  0  0  0  0  1  0  0  0  0  0  0
  187.5530  177.9020  137.8700 C   0  0  0  0  0  0  0  0  0  0  0  0
  186.6950  178.5440  138.9830 C   0  0  1  0  0  3  0  0  0  0  0  0
  186.5510  178.1210  142.8410 N   0  0  0  0  0  2  0  0  0  0  0  0
  184.0160  179.1060  142.4570 C   0  0  0  0  0  2  0  0  0  0  0  0
  185.6390  176.8250  134.7020 C   0  0  2  0  0  3  0  0  0  0  0  0
  186.8430  176.1700  134.4170 O   0  0  0  0  0  1  0  0  0  0  0  0
  184.9300  178.8750  141.2700 C   0  0  0  0  0  0  0  0  0  0  0  0
  183.0420  179.4840  139.6700 C   0  0  0  0  0  3  0  0  0  0  0  0
  182.5840  180.2780  138.7110 C   0  0  0  0  0  3  0  0  0  0  0  0
  181.1700  180.4540  138.5460 C   0  0  0  0  0  0  0  0  0  0  0  0
  179.9820  180.6030  138.4070 C   0  0  0  0  0  3  0  0  0  0  0  0
  183.3390  176.6320  139.0530 C   0  0  0  0  0  2  0  0  0  0  0  0
  180.9780  176.6290  138.3210 C   0  0  0  0  0  1  0  0  0  0  0  0
  182.4170  176.6680  137.8500 C   0  0  0  0  0  2  0  0  0  0  0  0
  1  4  1  0  0  0  0
  1 28  1  6  0  0  0
  2 12  1  0  0  0  0
  3 17  1  0  0  0  0
  4 18  1  0  0  0  0
  4  8  1  0  0  0  0
  5 11  1  0  0  0  0
  6 10  1  0  0  0  0
  8 23  1  0  0  0  0
  9  2  1  0  0  0  0
 10 19  1  0  0  0  0
 12 15  1  0  0  0  0
 13  3  1  0  0  0  0
 13 15  1  0  0  0  0
 14 21  1  0  0  0  0
 14  9  1  0  0  0  0
 15  1  1  0  0  0  0
 17  7  1  0  0  0  0
 17 16  1  0  0  0  0
 17 18  1  0  0  0  0
 18  6  1  0  0  0  0
 19 11  1  0  0  0  0
 20  5  1  0  0  0  0
 21 13  1  0  0  0  0
 22 21  1  0  0  0  0
 23 10  2  0  0  0  0
 23 20  1  0  0  0  0
 24  8  1  0  0  0  0
 25 24  2  0  0  0  0
 26 25  1  0  0  0  0
 27 26  3  0  0  0  0
 30 29  1  0  0  0  0
 30 28  1  0  0  0  0
M  END
>  <MODEL>
2

>  <REMARK>
 VINA RESULT:      -4.9      2.936      5.071
  Name = 
  4 active torsions:
  status: ('A' for Active; 'I' for Inactive)
    1  A    between atoms: C_1  and  C_5
    2  A    between atoms: C_5  and  C_12
    3  A    between atoms: C_6  and  C_13
    4  A    between atoms: C_9  and  C_21
                            x       y       z     vdW  Elec       q    Type
                         _______ _______ _______ _____ _____    ______ ____

>  <TORSDO>
F 4

$$$$
=
 OpenBabel10272413593D

 30 33  0  0  1  0  0  0  0  0999 V2000
  183.9890  177.3130  137.2950 C   0  0  2  0  0  3  0  0  0  0  0  0
  186.6460  175.4610  135.6360 C   0  0  0  0  0  2  0  0  0  0  0  0
  182.5110  174.3970  137.4420 C   0  0  0  0  0  2  0  0  0  0  0  0
  182.8050  177.1810  138.2840 C   0  0  1  0  0  3  0  0  0  0  0  0
  181.4820  181.9530  137.7750 C   0  0  0  0  0  2  0  0  0  0  0  0
  180.9870  177.9050  136.6530 C   0  0  0  0  0  2  0  0  0  0  0  0
  180.3760  174.9190  136.5770 O   0  0  0  0  0  1  0  0  0  0  0  0
  182.4320  178.3900  139.1610 C   0  0  2  0  0  3  0  0  0  0  0  0
  186.8640  173.9840  135.9550 C   0  0  0  0  0  2  0  0  0  0  0  0
  181.0660  179.2710  137.2890 C   0  0  0  0  0  0  0  0  0  0  0  0
  180.2300  181.5350  137.2950 O   0  0  0  0  0  0  0  0  0  0  0  0
  185.1700  175.8250  135.5890 C   0  0  0  0  0  2  0  0  0  0  0  0
  184.0260  174.6650  137.6060 C   0  0  2  0  0  3  0  0  0  0  0  0
  186.3590  173.5940  137.3460 C   0  0  0  0  0  2  0  0  0  0  0  0
  184.6470  175.9560  137.0110 C   0  0  2  0  0  3  0  0  0  0  0  0
  182.1800  175.6850  135.4500 O   0  0  0  0  0  1  0  0  0  0  0  0
  181.6570  175.4480  136.7250 C   0  0  0  0  0  0  0  0  0  0  0  0
  181.5360  176.7610  137.5290 C   0  0  1  0  0  3  0  0  0  0  0  0
  180.4700  180.3820  136.6130 N   0  0  0  0  0  2  0  0  0  0  0  0
  181.9590  180.9630  138.8460 C   0  0  0  0  0  2  0  0  0  0  0  0
  184.8420  173.3780  137.3790 C   0  0  2  0  0  3  0  0  0  0  0  0
  184.4090  172.6880  136.2410 O   0  0  0  0  0  1  0  0  0  0  0  0
  181.8370  179.5310  138.3640 C   0  0  0  0  0  0  0  0  0  0  0  0
  183.4960  178.7680  140.1430 C   0  0  0  0  0  3  0  0  0  0  0  0
  183.7200  178.0380  141.2270 C   0  0  0  0  0  3  0  0  0  0  0  0
  184.7410  178.4330  142.1550 C   0  0  0  0  0  0  0  0  0  0  0  0
  185.5990  178.7640  142.9330 C   0  0  0  0  0  3  0  0  0  0  0  0
  185.0810  178.2860  137.7220 C   0  0  0  0  0  2  0  0  0  0  0  0
  187.5260  178.0980  138.0300 C   0  0  0  0  0  1  0  0  0  0  0  0
  186.1810  177.5490  138.4590 C   0  0  0  0  0  2  0  0  0  0  0  0
  1 28  1  1  0  0  0
  1  4  1  0  0  0  0
  2  9  1  0  0  0  0
  3 13  1  0  0  0  0
  4  8  1  0  0  0  0
  5 20  1  0  0  0  0
  6 10  1  0  0  0  0
  6 18  1  0  0  0  0
  7 17  1  0  0  0  0
  8 24  1  0  0  0  0
  9 14  1  0  0  0  0
 10 23  2  0  0  0  0
 11  5  1  0  0  0  0
 12  2  1  0  0  0  0
 12 15  1  0  0  0  0
 14 21  1  0  0  0  0
 15  1  1  0  0  0  0
 15 13  1  0  0  0  0
 16 17  1  0  0  0  0
 17  3  1  0  0  0  0
 17 18  1  0  0  0  0
 18  4  1  0  0  0  0
 19 10  1  0  0  0  0
 19 11  1  0  0  0  0
 21 13  1  0  0  0  0
 22 21  1  0  0  0  0
 23 20  1  0  0  0  0
 23  8  1  0  0  0  0
 24 25  2  0  0  0  0
 25 26  1  0  0  0  0
 26 27  3  0  0  0  0
 28 30  1  0  0  0  0
 29 30  1  0  0  0  0
M  END
>  <MODEL>
3

>  <REMARK>
 VINA RESULT:      -4.9      1.187      1.347
  Name = 
  4 active torsions:
  status: ('A' for Active; 'I' for Inactive)
    1  A    between atoms: C_1  and  C_5
    2  A    between atoms: C_5  and  C_12
    3  A    between atoms: C_6  and  C_13
    4  A    between atoms: C_9  and  C_21
                            x       y       z     vdW  Elec       q    Type
                         _______ _______ _______ _____ _____    ______ ____

>  <TORSDO>
F 4

$$$$
=
 OpenBabel10272413593D

 30 33  0  0  1  0  0  0  0  0999 V2000
  184.1590  177.5440  137.2490 C   0  0  2  0  0  3  0  0  0  0  0  0
  180.8220  178.9870  137.4080 C   0  0  0  0  0  2  0  0  0  0  0  0
  184.1520  178.0260  140.4850 C   0  0  0  0  0  2  0  0  0  0  0  0
  185.2310  176.7850  138.0690 C   0  0  1  0  0  3  0  0  0  0  0  0
  188.5350  176.8600  134.3460 C   0  0  0  0  0  2  0  0  0  0  0  0
  187.0350  178.5760  137.9100 C   0  0  0  0  0  2  0  0  0  0  0  0
  186.2100  179.1460  140.7890 O   0  0  0  0  0  1  0  0  0  0  0  0
  186.1860  175.8260  137.3340 C   0  0  2  0  0  3  0  0  0  0  0  0
  179.9820  178.8370  138.6730 C   0  0  0  0  0  2  0  0  0  0  0  0
  187.6410  177.7600  136.7950 C   0  0  0  0  0  0  0  0  0  0  0  0
  189.4140  177.5860  135.1660 O   0  0  0  0  0  0  0  0  0  0  0  0
  182.2920  179.2210  137.7190 C   0  0  0  0  0  2  0  0  0  0  0  0
  182.9450  177.5880  139.6230 C   0  0  2  0  0  3  0  0  0  0  0  0
  180.3680  177.6100  139.5020 C   0  0  0  0  0  2  0  0  0  0  0  0
  182.9330  177.8980  138.1030 C   0  0  2  0  0  3  0  0  0  0  0  0
  184.8660  179.8570  139.1160 O   0  0  0  0  0  1  0  0  0  0  0  0
  185.3280  178.7250  139.7940 C   0  0  0  0  0  0  0  0  0  0  0  0
  186.1010  177.7840  138.8450 C   0  0  1  0  0  3  0  0  0  0  0  0
  188.6190  178.3680  135.9470 N   0  0  0  0  0  2  0  0  0  0  0  0
  187.7500  175.8680  135.2150 C   0  0  0  0  0  2  0  0  0  0  0  0
  181.6160  177.8490  140.3570 C   0  0  2  0  0  3  0  0  0  0  0  0
  181.5910  179.1240  140.9360 O   0  0  0  0  0  1  0  0  0  0  0  0
  187.1660  176.5490  136.4360 C   0  0  0  0  0  0  0  0  0  0  0  0
  185.4960  174.6450  136.7260 C   0  0  0  0  0  3  0  0  0  0  0  0
  184.9780  173.6880  137.4850 C   0  0  0  0  0  3  0  0  0  0  0  0
  184.3320  172.5630  136.8710 C   0  0  0  0  0  0  0  0  0  0  0  0
  183.7900  171.6180  136.3570 C   0  0  0  0  0  3  0  0  0  0  0  0
  183.6700  176.8230  135.9990 C   0  0  0  0  0  2  0  0  0  0  0  0
  182.1120  175.0900  135.1760 C   0  0  0  0  0  1  0  0  0  0  0  0
  182.3880  176.0710  136.2970 C   0  0  0  0  0  2  0  0  0  0  0  0
  1 28  1  6  0  0  0
  1  4  1  0  0  0  0
  1 15  1  0  0  0  0
  2 12  1  0  0  0  0
  2  9  1  0  0  0  0
  4 18  1  0  0  0  0
  5 11  1  0  0  0  0
  5 20  1  0  0  0  0
  6 18  1  0  0  0  0
  8  4  1  0  0  0  0
  9 14  1  0  0  0  0
 10  6  1  0  0  0  0
 11 19  1  0  0  0  0
 12 15  1  0  0  0  0
 13 21  1  0  0  0  0
 13  3  1  0  0  0  0
 14 21  1  0  0  0  0
 15 13  1  0  0  0  0
 16 17  1  0  0  0  0
 17  3  1  0  0  0  0
 17  7  1  0  0  0  0
 18 17  1  0  0  0  0
 19 10  1  0  0  0  0
 20 23  1  0  0  0  0
 21 22  1  0  0  0  0
 23 10  2  0  0  0  0
 23  8  1  0  0  0  0
 24  8  1  0  0  0  0
 24 25  2  0  0  0  0
 26 25  1  0  0  0  0
 27 26  3  0  0  0  0
 28 30  1  0  0  0  0
 29 30  1  0  0  0  0
M  END
>  <MODEL>
4

>  <REMARK>
 VINA RESULT:      -4.9      2.820      6.763
  Name = 
  4 active torsions:
  status: ('A' for Active; 'I' for Inactive)
    1  A    between atoms: C_1  and  C_5
    2  A    between atoms: C_5  and  C_12
    3  A    between atoms: C_6  and  C_13
    4  A    between atoms: C_9  and  C_21
                            x       y       z     vdW  Elec       q    Type
                         _______ _______ _______ _____ _____    ______ ____

>  <TORSDO>
F 4

$$$$
=
 OpenBabel10272413593D

 30 33  0  0  1  0  0  0  0  0999 V2000
  184.7500  176.3920  136.7630 C   0  0  2  0  0  3  0  0  0  0  0  0
  187.7270  175.1360  135.0880 C   0  0  0  0  0  2  0  0  0  0  0  0
  184.1390  173.2250  137.3150 C   0  0  0  0  0  2  0  0  0  0  0  0
  183.6980  176.0640  137.8520 C   0  0  1  0  0  3  0  0  0  0  0  0
  181.0930  180.2160  136.9820 C   0  0  0  0  0  2  0  0  0  0  0  0
  181.6730  176.0800  136.3080 C   0  0  0  0  0  2  0  0  0  0  0  0
  181.9010  173.0520  136.5760 O   0  0  0  0  0  1  0  0  0  0  0  0
  183.0520  177.2230  138.6320 C   0  0  2  0  0  3  0  0  0  0  0  0
  188.3580  173.8200  135.5330 C   0  0  0  0  0  2  0  0  0  0  0  0
  181.4060  177.4820  136.7970 C   0  0  0  0  0  0  0  0  0  0  0  0
  179.9820  179.4260  136.6470 O   0  0  0  0  0  0  0  0  0  0  0  0
  186.2070  175.0850  135.1240 C   0  0  0  0  0  2  0  0  0  0  0  0
  185.5280  173.9040  137.3300 C   0  0  2  0  0  3  0  0  0  0  0  0
  188.0500  173.4730  136.9910 C   0  0  0  0  0  2  0  0  0  0  0  0
  185.7400  175.2360  136.5630 C   0  0  2  0  0  3  0  0  0  0  0  0
  183.3670  174.1350  135.2380 O   0  0  0  0  0  1  0  0  0  0  0  0
  182.9940  173.9180  136.5680 C   0  0  0  0  0  0  0  0  0  0  0  0
  182.5580  175.2350  137.2450 C   0  0  1  0  0  3  0  0  0  0  0  0
  180.4940  178.3070  136.0650 N   0  0  0  0  0  2  0  0  0  0  0  0
  181.8770  179.5210  138.1030 C   0  0  0  0  0  2  0  0  0  0  0  0
  186.6540  172.8660  137.1660 C   0  0  2  0  0  3  0  0  0  0  0  0
  186.3700  171.9570  136.1410 O   0  0  0  0  0  1  0  0  0  0  0  0
  182.1290  178.0620  137.7770 C   0  0  0  0  0  0  0  0  0  0  0  0
  184.0200  177.9840  139.4840 C   0  0  0  0  0  3  0  0  0  0  0  0
  183.8790  178.0380  140.8010 C   0  0  0  0  0  3  0  0  0  0  0  0
  184.8180  178.7850  141.5890 C   0  0  0  0  0  0  0  0  0  0  0  0
  185.6070  179.4120  142.2490 C   0  0  0  0  0  3  0  0  0  0  0  0
  185.5530  177.6640  137.0030 C   0  0  0  0  0  2  0  0  0  0  0  0
  187.9410  178.2620  137.2240 C   0  0  0  0  0  1  0  0  0  0  0  0
  186.8480  177.3390  137.7210 C   0  0  0  0  0  2  0  0  0  0  0  0
  1 28  1  1  0  0  0
  1  4  1  0  0  0  0
  2 12  1  0  0  0  0
  2  9  1  0  0  0  0
  3 13  1  0  0  0  0
  4  8  1  0  0  0  0
  5 20  1  0  0  0  0
  6 10  1  0  0  0  0
  6 18  1  0  0  0  0
  8 24  1  0  0  0  0
  9 14  1  0  0  0  0
 10 23  2  0  0  0  0
 11  5  1  0  0  0  0
 12 15  1  0  0  0  0
 14 21  1  0  0  0  0
 15  1  1  0  0  0  0
 15 13  1  0  0  0  0
 16 17  1  0  0  0  0
 17  7  1  0  0  0  0
 17 18  1  0  0  0  0
 17  3  1  0  0  0  0
 18  4  1  0  0  0  0
 19 11  1  0  0  0  0
 19 10  1  0  0  0  0
 21 13  1  0  0  0  0
 22 21  1  0  0  0  0
 23 20  1  0  0  0  0
 23  8  1  0  0  0  0
 24 25  2  0  0  0  0
 25 26  1  0  0  0  0
 26 27  3  0  0  0  0
 28 30  1  0  0  0  0
 29 30  1  0  0  0  0
M  END
>  <MODEL>
5

>  <REMARK>
 VINA RESULT:      -4.8      1.239      1.323
  Name = 
  4 active torsions:
  status: ('A' for Active; 'I' for Inactive)
    1  A    between atoms: C_1  and  C_5
    2  A    between atoms: C_5  and  C_12
    3  A    between atoms: C_6  and  C_13
    4  A    between atoms: C_9  and  C_21
                            x       y       z     vdW  Elec       q    Type
                         _______ _______ _______ _____ _____    ______ ____

>  <TORSDO>
F 4

$$$$
=
 OpenBabel10272413593D

 30 33  0  0  1  0  0  0  0  0999 V2000
  185.9270  175.1780  137.2210 C   0  0  2  0  0  3  0  0  0  0  0  0
  187.4740  171.8860  137.1030 C   0  0  0  0  0  2  0  0  0  0  0  0
  188.1930  175.9480  134.9890 C   0  0  0  0  0  2  0  0  0  0  0  0
  185.6950  176.4780  136.4120 C   0  0  1  0  0  3  0  0  0  0  0  0
  183.3170  178.7220  140.1660 C   0  0  0  0  0  2  0  0  0  0  0  0
  186.9000  178.0370  138.0240 C   0  0  0  0  0  2  0  0  0  0  0  0
  189.1010  177.9220  135.9180 O   0  0  0  0  0  1  0  0  0  0  0  0
  184.4110  177.2890  136.6630 C   0  0  2  0  0  3  0  0  0  0  0  0
  188.1560  171.4050  135.8250 C   0  0  0  0  0  2  0  0  0  0  0  0
  185.5410  178.4050  138.5660 C   0  0  0  0  0  0  0  0  0  0  0  0
  184.3050  179.7190  140.1700 O   0  0  0  0  0  0  0  0  0  0  0  0
  187.7180  173.3640  137.3640 C   0  0  0  0  0  2  0  0  0  0  0  0
  187.4410  174.6010  135.1030 C   0  0  2  0  0  3  0  0  0  0  0  0
  187.6090  172.0820  134.5660 C   0  0  0  0  0  2  0  0  0  0  0  0
  186.8130  174.1830  136.4580 C   0  0  2  0  0  3  0  0  0  0  0  0
  188.8220  176.1490  137.2920 O   0  0  0  0  0  1  0  0  0  0  0  0
  188.2590  176.8540  136.2240 C   0  0  0  0  0  0  0  0  0  0  0  0
  186.8800  177.4340  136.6060 C   0  0  1  0  0  3  0  0  0  0  0  0
  185.4600  179.0880  139.8210 N   0  0  0  0  0  2  0  0  0  0  0  0
  183.0830  178.2610  138.7210 C   0  0  0  0  0  2  0  0  0  0  0  0
  188.1920  173.4840  134.3540 C   0  0  2  0  0  3  0  0  0  0  0  0
  189.5620  173.5050  134.6380 O   0  0  0  0  0  1  0  0  0  0  0  0
  184.3930  177.9510  138.0230 C   0  0  0  0  0  0  0  0  0  0  0  0
  183.1600  176.5630  136.2770 C   0  0  0  0  0  3  0  0  0  0  0  0
  182.9290  176.2170  135.0180 C   0  0  0  0  0  3  0  0  0  0  0  0
  181.7150  175.5310  134.6780 C   0  0  0  0  0  0  0  0  0  0  0  0
  180.6960  174.9560  134.3920 C   0  0  0  0  0  3  0  0  0  0  0  0
  184.6600  174.4480  137.6490 C   0  0  0  0  0  2  0  0  0  0  0  0
  182.9700  172.7850  136.9490 C   0  0  0  0  0  1  0  0  0  0  0  0
  184.3760  173.2940  136.7080 C   0  0  0  0  0  2  0  0  0  0  0  0
  1 28  1  6  0  0  0
  2 12  1  0  0  0  0
  3 13  1  0  0  0  0
  3 17  1  0  0  0  0
  4 18  1  0  0  0  0
  4  8  1  0  0  0  0
  4  1  1  0  0  0  0
  5 11  1  0  0  0  0
  6 10  1  0  0  0  0
  7 17  1  0  0  0  0
  8 23  1  0  0  0  0
  9  2  1  0  0  0  0
 10 19  1  0  0  0  0
 13 15  1  0  0  0  0
 14  9  1  0  0  0  0
 15  1  1  0  0  0  0
 15 12  1  0  0  0  0
 17 18  1  0  0  0  0
 17 16  1  0  0  0  0
 18  6  1  0  0  0  0
 19 11  1  0  0  0  0
 20  5  1  0  0  0  0
 21 14  1  0  0  0  0
 21 22  1  0  0  0  0
 21 13  1  0  0  0  0
 23 10  2  0  0  0  0
 23 20  1  0  0  0  0
 24  8  1  0  0  0  0
 25 24  2  0  0  0  0
 26 25  1  0  0  0  0
 27 26  3  0  0  0  0
 30 29  1  0  0  0  0
 30 28  1  0  0  0  0
M  END
>  <MODEL>
6

>  <REMARK>
 VINA RESULT:      -4.8      2.652      5.014
  Name = 
  4 active torsions:
  status: ('A' for Active; 'I' for Inactive)
    1  A    between atoms: C_1  and  C_5
    2  A    between atoms: C_5  and  C_12
    3  A    between atoms: C_6  and  C_13
    4  A    between atoms: C_9  and  C_21
                            x       y       z     vdW  Elec       q    Type
                         _______ _______ _______ _____ _____    ______ ____

>  <TORSDO>
F 4

$$$$
=
 OpenBabel10272413593D

 30 33  0  0  1  0  0  0  0  0999 V2000
  184.7900  177.2710  138.4010 C   0  0  2  0  0  3  0  0  0  0  0  0
  185.5720  174.7010  135.9450 C   0  0  0  0  0  2  0  0  0  0  0  0
  187.6430  178.5640  137.4540 C   0  0  0  0  0  2  0  0  0  0  0  0
  185.0480  178.7480  138.7870 C   0  0  1  0  0  3  0  0  0  0  0  0
  182.3680  178.4160  142.9690 C   0  0  0  0  0  2  0  0  0  0  0  0
  186.1310  178.2700  141.0420 C   0  0  0  0  0  2  0  0  0  0  0  0
  188.7010  178.9210  139.5360 O   0  0  0  0  0  1  0  0  0  0  0  0
  183.9470  179.5230  139.5340 C   0  0  2  0  0  3  0  0  0  0  0  0
  186.4260  175.0410  134.7270 C   0  0  0  0  0  2  0  0  0  0  0  0
  184.7930  178.5810  141.6660 C   0  0  0  0  0  0  0  0  0  0  0  0
  183.5170  178.7420  143.7080 O   0  0  0  0  0  0  0  0  0  0  0  0
  186.0580  175.4070  137.2010 C   0  0  0  0  0  2  0  0  0  0  0  0
  186.6140  177.8520  136.5440 C   0  0  2  0  0  3  0  0  0  0  0  0
  186.3610  176.5220  134.3470 C   0  0  0  0  0  2  0  0  0  0  0  0
  185.6000  176.8560  137.1640 C   0  0  2  0  0  3  0  0  0  0  0  0
  187.7200  176.9140  139.1880 O   0  0  0  0  0  1  0  0  0  0  0  0
  187.6000  178.2880  138.9610 C   0  0  0  0  0  0  0  0  0  0  0  0
  186.3270  178.8540  139.6290 C   0  0  1  0  0  3  0  0  0  0  0  0
  184.5570  178.1940  143.0230 N   0  0  0  0  0  2  0  0  0  0  0  0
  182.4000  179.1800  141.6390 C   0  0  0  0  0  2  0  0  0  0  0  0
  187.2660  177.3920  135.2270 C   0  0  2  0  0  3  0  0  0  0  0  0
  188.4970  176.7650  135.4530 O   0  0  0  0  0  1  0  0  0  0  0  0
  183.7420  179.0300  140.9500 C   0  0  0  0  0  0  0  0  0  0  0  0
  182.7020  179.7210  138.7270 C   0  0  0  0  0  3  0  0  0  0  0  0
  182.2370  180.9360  138.4710 C   0  0  0  0  0  3  0  0  0  0  0  0
  181.0350  181.0920  137.7040 C   0  0  0  0  0  0  0  0  0  0  0  0
  180.0260  181.2230  137.0580 C   0  0  0  0  0  3  0  0  0  0  0  0
  183.3310  176.9140  138.1500 C   0  0  0  0  0  2  0  0  0  0  0  0
  181.5180  175.3660  138.8040 C   0  0  0  0  0  1  0  0  0  0  0  0
  182.8170  176.0060  139.2500 C   0  0  0  0  0  2  0  0  0  0  0  0
  1 28  1  6  0  0  0
  1  4  1  0  0  0  0
  2 12  1  0  0  0  0
  3 17  1  0  0  0  0
  4  8  1  0  0  0  0
  4 18  1  0  0  0  0
  5 11  1  0  0  0  0
  6 10  1  0  0  0  0
  8 23  1  0  0  0  0
  9  2  1  0  0  0  0
 10 19  1  0  0  0  0
 13 15  1  0  0  0  0
 13  3  1  0  0  0  0
 14  9  1  0  0  0  0
 14 21  1  0  0  0  0
 15 12  1  0  0  0  0
 15  1  1  0  0  0  0
 17 16  1  0  0  0  0
 17  7  1  0  0  0  0
 17 18  1  0  0  0  0
 18  6  1  0  0  0  0
 19 11  1  0  0  0  0
 20  5  1  0  0  0  0
 21 22  1  0  0  0  0
 21 13  1  0  0  0  0
 23 20  1  0  0  0  0
 23 10  2  0  0  0  0
 24  8  1  0  0  0  0
 25 24  2  0  0  0  0
 26 25  1  0  0  0  0
 27 26  3  0  0  0  0
 28 30  1  0  0  0  0
 29 30  1  0  0  0  0
M  END
>  <MODEL>
7

>  <REMARK>
 VINA RESULT:      -4.5      2.933      4.984
  Name = 
  4 active torsions:
  status: ('A' for Active; 'I' for Inactive)
    1  A    between atoms: C_1  and  C_5
    2  A    between atoms: C_5  and  C_12
    3  A    between atoms: C_6  and  C_13
    4  A    between atoms: C_9  and  C_21
                            x       y       z     vdW  Elec       q    Type
                         _______ _______ _______ _____ _____    ______ ____

>  <TORSDO>
F 4

$$$$
=
 OpenBabel10272413593D

 30 33  0  0  1  0  0  0  0  0999 V2000
  188.7880  176.2930  136.2870 C   0  0  2  0  0  3  0  0  0  0  0  0
  186.1400  177.8650  134.3460 C   0  0  0  0  0  2  0  0  0  0  0  0
  187.0450  177.3180  138.8590 C   0  0  0  0  0  2  0  0  0  0  0  0
  189.1170  175.6450  137.6540 C   0  0  1  0  0  3  0  0  0  0  0  0
  193.9100  174.9640  136.4940 C   0  0  0  0  0  2  0  0  0  0  0  0
  190.9140  177.3150  138.3370 C   0  0  0  0  0  2  0  0  0  0  0  0
  188.7090  178.3970  140.1430 O   0  0  0  0  0  1  0  0  0  0  0  0
  190.1880  174.5410  137.7130 C   0  0  2  0  0  3  0  0  0  0  0  0
  184.7280  177.9630  134.9160 C   0  0  0  0  0  2  0  0  0  0  0  0
  191.9280  176.2990  137.8710 C   0  0  0  0  0  0  0  0  0  0  0  0
  194.2680  175.7850  137.5750 O   0  0  0  0  0  0  0  0  0  0  0  0
  187.2050  178.0940  135.4080 C   0  0  0  0  0  2  0  0  0  0  0  0
  186.4760  176.7850  137.5230 C   0  0  2  0  0  3  0  0  0  0  0  0
  184.4280  176.8810  135.9560 C   0  0  0  0  0  2  0  0  0  0  0  0
  187.3510  176.8320  136.2430 C   0  0  2  0  0  3  0  0  0  0  0  0
  188.6250  178.8620  137.9330 O   0  0  0  0  0  1  0  0  0  0  0  0
  188.4830  177.8460  138.8820 C   0  0  0  0  0  0  0  0  0  0  0  0
  189.5260  176.7280  138.6620 C   0  0  1  0  0  3  0  0  0  0  0  0
  193.2810  176.7180  137.6650 N   0  0  0  0  0  2  0  0  0  0  0  0
  192.6560  174.1640  136.8730 C   0  0  0  0  0  2  0  0  0  0  0  0
  185.0100  177.2160  137.3340 C   0  0  2  0  0  3  0  0  0  0  0  0
  184.8290  178.5710  137.6380 O   0  0  0  0  0  1  0  0  0  0  0  0
  191.5830  175.0640  137.4540 C   0  0  0  0  0  0  0  0  0  0  0  0
  189.8090  173.3000  136.9670 C   0  0  0  0  0  3  0  0  0  0  0  0
  188.5610  172.8510  136.9720 C   0  0  0  0  0  3  0  0  0  0  0  0
  188.2320  171.6520  136.2550 C   0  0  0  0  0  0  0  0  0  0  0  0
  187.9570  170.6450  135.6530 C   0  0  0  0  0  3  0  0  0  0  0  0
  188.9880  175.3880  135.0780 C   0  0  0  0  0  2  0  0  0  0  0  0
  190.4550  177.2670  134.4210 C   0  0  0  0  0  1  0  0  0  0  0  0
  190.2610  175.7660  134.3460 C   0  0  0  0  0  2  0  0  0  0  0  0
  1 28  1  6  0  0  0
  1  4  1  0  0  0  0
  2  9  1  0  0  0  0
  2 12  1  0  0  0  0
  3 17  1  0  0  0  0
  4  8  1  0  0  0  0
  4 18  1  0  0  0  0
  5 20  1  0  0  0  0
  5 11  1  0  0  0  0
  6 18  1  0  0  0  0
  9 14  1  0  0  0  0
 10  6  1  0  0  0  0
 11 19  1  0  0  0  0
 12 15  1  0  0  0  0
 13  3  1  0  0  0  0
 14 21  1  0  0  0  0
 15  1  1  0  0  0  0
 15 13  1  0  0  0  0
 16 17  1  0  0  0  0
 17  7  1  0  0  0  0
 18 17  1  0  0  0  0
 19 10  1  0  0  0  0
 20 23  1  0  0  0  0
 21 13  1  0  0  0  0
 21 22  1  0  0  0  0
 23  8  1  0  0  0  0
 23 10  2  0  0  0  0
 24 25  2  0  0  0  0
 24  8  1  0  0  0  0
 26 25  1  0  0  0  0
 27 26  3  0  0  0  0
 30 29  1  0  0  0  0
 30 28  1  0  0  0  0
M  END
>  <MODEL>
8

>  <REMARK>
 VINA RESULT:      -4.4      4.147      7.997
  Name = 
  4 active torsions:
  status: ('A' for Active; 'I' for Inactive)
    1  A    between atoms: C_1  and  C_5
    2  A    between atoms: C_5  and  C_12
    3  A    between atoms: C_6  and  C_13
    4  A    between atoms: C_9  and  C_21
                            x       y       z     vdW  Elec       q    Type
                         _______ _______ _______ _____ _____    ______ ____

>  <TORSDO>
F 4

$$$$
=
 OpenBabel10272413593D

 30 33  0  0  1  0  0  0  0  0999 V2000
  186.4350  175.3080  137.1130 C   0  0  2  0  0  3  0  0  0  0  0  0
  189.6150  173.5520  136.8850 C   0  0  0  0  0  2  0  0  0  0  0  0
  187.9620  177.6000  135.3460 C   0  0  0  0  0  2  0  0  0  0  0  0
  185.5400  176.3640  136.4190 C   0  0  1  0  0  3  0  0  0  0  0  0
  182.0690  176.1720  139.9830 C   0  0  0  0  0  2  0  0  0  0  0  0
  185.5060  178.0230  138.3520 C   0  0  0  0  0  2  0  0  0  0  0  0
  187.4880  179.5430  136.6050 O   0  0  0  0  0  1  0  0  0  0  0  0
  184.0110  176.2470  136.5560 C   0  0  2  0  0  3  0  0  0  0  0  0
  190.5280  173.7740  135.6830 C   0  0  0  0  0  2  0  0  0  0  0  0
  184.1560  177.4550  138.7160 C   0  0  0  0  0  0  0  0  0  0  0  0
  182.2880  177.5340  140.2430 O   0  0  0  0  0  0  0  0  0  0  0  0
  188.9350  174.8360  137.3350 C   0  0  0  0  0  2  0  0  0  0  0  0
  188.1320  176.0690  135.2010 C   0  0  2  0  0  3  0  0  0  0  0  0
  189.7700  174.2290  134.4340 C   0  0  0  0  0  2  0  0  0  0  0  0
  187.7810  175.1410  136.3930 C   0  0  2  0  0  3  0  0  0  0  0  0
  188.2100  177.7170  137.7260 O   0  0  0  0  0  1  0  0  0  0  0  0
  187.4100  178.1520  136.6650 C   0  0  0  0  0  0  0  0  0  0  0  0
  185.9300  177.7720  136.8920 C   0  0  1  0  0  3  0  0  0  0  0  0
  183.6130  177.7400  140.0090 N   0  0  0  0  0  2  0  0  0  0  0  0
  182.2400  175.9200  138.4780 C   0  0  0  0  0  2  0  0  0  0  0  0
  189.4380  175.7250  134.4620 C   0  0  2  0  0  3  0  0  0  0  0  0
  190.5180  176.4690  134.9520 O   0  0  0  0  0  1  0  0  0  0  0  0
  183.5250  176.5330  137.9600 C   0  0  0  0  0  0  0  0  0  0  0  0
  183.4460  175.0210  135.9100 C   0  0  0  0  0  3  0  0  0  0  0  0
  182.1980  174.9960  135.4610 C   0  0  0  0  0  3  0  0  0  0  0  0
  181.6810  173.8020  134.8560 C   0  0  0  0  0  0  0  0  0  0  0  0
  181.2480  172.7990  134.3480 C   0  0  0  0  0  3  0  0  0  0  0  0
  185.8070  173.9280  137.2630 C   0  0  0  0  0  2  0  0  0  0  0  0
  185.2520  171.8530  136.0400 C   0  0  0  0  0  1  0  0  0  0  0  0
  186.1760  173.0530  136.0820 C   0  0  0  0  0  2  0  0  0  0  0  0
  1 28  1  6  0  0  0
  2 12  1  0  0  0  0
  3 17  1  0  0  0  0
  4  8  1  0  0  0  0
  4 18  1  0  0  0  0
  4  1  1  0  0  0  0
  5 11  1  0  0  0  0
  6 10  1  0  0  0  0
  7 17  1  0  0  0  0
  8 23  1  0  0  0  0
  9  2  1  0  0  0  0
 10 19  1  0  0  0  0
 13  3  1  0  0  0  0
 13 15  1  0  0  0  0
 14 21  1  0  0  0  0
 14  9  1  0  0  0  0
 15  1  1  0  0  0  0
 15 12  1  0  0  0  0
 17 18  1  0  0  0  0
 17 16  1  0  0  0  0
 18  6  1  0  0  0  0
 19 11  1  0  0  0  0
 20  5  1  0  0  0  0
 21 22  1  0  0  0  0
 21 13  1  0  0  0  0
 23 20  1  0  0  0  0
 23 10  2  0  0  0  0
 24  8  1  0  0  0  0
 25 24  2  0  0  0  0
 26 25  1  0  0  0  0
 27 26  3  0  0  0  0
 29 30  1  0  0  0  0
 30 28  1  0  0  0  0
M  END
>  <MODEL>
9

>  <REMARK>
 VINA RESULT:      -4.2      2.923      5.178
  Name = 
  4 active torsions:
  status: ('A' for Active; 'I' for Inactive)
    1  A    between atoms: C_1  and  C_5
    2  A    between atoms: C_5  and  C_12
    3  A    between atoms: C_6  and  C_13
    4  A    between atoms: C_9  and  C_21
                            x       y       z     vdW  Elec       q    Type
                         _______ _______ _______ _____ _____    ______ ____

>  <TORSDO>
F 4

$$$$
