=
 OpenBabel10272401573D

 28 32  0  0  1  0  0  0  0  0999 V2000
  189.4620  177.8010  142.3320 C   0  0  1  0  0  3  0  0  0  0  0  0
  185.3620  178.9530  139.4310 C   0  0  0  0  0  3  0  0  0  0  0  0
  190.3220  175.6860  138.1120 C   0  0  0  0  0  1  0  0  0  0  0  0
  185.7390  177.8320  137.2660 C   0  0  2  0  0  3  0  0  0  0  0  0
  187.6620  178.1140  139.0590 C   0  0  1  0  0  3  0  0  0  0  0  0
  183.4010  178.1440  138.1590 C   0  0  0  0  0  0  0  0  0  0  0  0
  186.2060  178.2490  138.6570 C   0  0  0  0  0  0  0  0  0  0  0  0
  188.1070  177.0530  136.8610 C   0  0  0  0  0  2  0  0  0  0  0  0
  184.2990  177.3070  137.2880 C   0  0  0  0  0  2  0  0  0  0  0  0
  189.9850  176.8320  140.1450 C   0  0  2  0  0  3  0  0  0  0  0  0
  187.8460  177.9140  140.5500 C   0  0  0  0  0  2  0  0  0  0  0  0
  186.6330  176.7830  136.6050 C   0  0  0  0  0  2  0  0  0  0  0  0
  191.8640  177.8800  141.5450 C   0  0  0  0  0  2  0  0  0  0  0  0
  188.3500  176.9430  138.3640 C   0  0  1  0  0  3  0  0  0  0  0  0
  191.4980  176.8580  140.4720 C   0  0  0  0  0  2  0  0  0  0  0  0
  182.2010  177.9240  138.1710 O   0  0  0  0  0  0  0  0  0  0  0  0
  183.9580  179.2660  138.9870 C   0  0  0  0  0  2  0  0  0  0  0  0
  189.7870  176.9210  138.6820 N   0  0  0  0  0  0  0  0  0  0  0  0
  190.9380  177.7270  142.7430 C   0  0  0  0  0  2  0  0  0  0  0  0
  189.2740  177.9140  140.8660 N   0  0  1  0  0  0  0  0  0  0  0  0
  188.6170  176.7150  143.0340 C   0  0  0  0  0  2  0  0  0  0  0  0
  187.6870  177.2420  144.0810 C   0  0  0  0  0  0  0  0  0  0  0  0
  185.9700  178.2550  146.0470 C   0  0  0  0  0  0  0  0  0  0  0  0
  186.4000  177.6750  143.7350 C   0  0  0  0  0  3  0  0  0  0  0  0
  188.1080  177.3090  145.4140 C   0  0  0  0  0  3  0  0  0  0  0  0
  187.2520  177.8170  146.3960 C   0  0  0  0  0  3  0  0  0  0  0  0
  185.1000  178.7720  147.0460 N   0  0  0  0  0  1  0  0  0  0  0  0
  185.5440  178.1810  144.7170 C   0  0  0  0  0  3  0  0  0  0  0  0
  1 19  1  0  0  0  0
  1 21  1  6  0  0  0
  3 18  1  0  0  0  0
  4 12  1  1  0  0  0
  4  9  1  0  0  0  0
  4  7  1  0  0  0  0
  5 11  1  1  0  0  0
  6 16  2  0  0  0  0
  6 17  1  0  0  0  0
  7  5  1  0  0  0  0
  7  2  2  0  0  0  0
  9  6  1  0  0  0  0
 10 15  1  6  0  0  0
 10 20  1  0  0  0  0
 12  8  1  0  0  0  0
 13 19  1  0  0  0  0
 14  8  1  6  0  0  0
 14 18  1  0  0  0  0
 14  5  1  0  0  0  0
 15 13  1  0  0  0  0
 17  2  1  0  0  0  0
 18 10  1  0  0  0  0
 20 11  1  1  0  0  0
 20  1  1  0  0  0  0
 21 22  1  0  0  0  0
 22 25  1  0  0  0  0
 23 26  1  0  0  0  0
 23 27  1  0  0  0  0
 24 22  2  0  0  0  0
 24 28  1  0  0  0  0
 25 26  2  0  0  0  0
 28 23  2  0  0  0  0
M  END
>  <MODEL>
1

>  <REMARK>
 VINA RESULT:      -8.9      0.000      0.000
  Name = 
  2 active torsions:
  status: ('A' for Active; 'I' for Inactive)
    1  A    between atoms: C_1  and  C_2
    2  A    between atoms: C_2  and  C_3
                            x       y       z     vdW  Elec       q    Type
                         _______ _______ _______ _____ _____    ______ ____

>  <TORSDO>
F 2

$$$$
=
 OpenBabel10272401573D

 28 32  0  0  1  0  0  0  0  0999 V2000
  190.0830  177.5190  141.7750 C   0  0  1  0  0  3  0  0  0  0  0  0
  185.5170  178.8900  139.8210 C   0  0  0  0  0  3  0  0  0  0  0  0
  190.0150  175.6010  137.3780 C   0  0  0  0  0  1  0  0  0  0  0  0
  185.4190  177.8720  137.5760 C   0  0  2  0  0  3  0  0  0  0  0  0
  187.6710  178.0280  138.9530 C   0  0  1  0  0  3  0  0  0  0  0  0
  183.3180  178.1830  138.9370 C   0  0  0  0  0  0  0  0  0  0  0  0
  186.1680  178.2100  138.8600 C   0  0  0  0  0  0  0  0  0  0  0  0
  187.6330  177.0700  136.6650 C   0  0  0  0  0  2  0  0  0  0  0  0
  183.9980  177.3730  137.8650 C   0  0  0  0  0  2  0  0  0  0  0  0
  190.1280  176.6500  139.4860 C   0  0  2  0  0  3  0  0  0  0  0  0
  188.1460  177.7500  140.3650 C   0  0  0  0  0  2  0  0  0  0  0  0
  186.1310  176.8400  136.7010 C   0  0  0  0  0  2  0  0  0  0  0  0
  192.2790  177.5910  140.5220 C   0  0  0  0  0  2  0  0  0  0  0  0
  188.1710  176.8800  138.0800 C   0  0  1  0  0  3  0  0  0  0  0  0
  191.6750  176.6310  139.5010 C   0  0  0  0  0  2  0  0  0  0  0  0
  182.1390  177.9850  139.1830 O   0  0  0  0  0  0  0  0  0  0  0  0
  184.0630  179.2510  139.6850 C   0  0  0  0  0  2  0  0  0  0  0  0
  189.6410  176.8160  138.0990 N   0  0  0  0  0  0  0  0  0  0  0  0
  191.6100  177.3960  141.8750 C   0  0  0  0  0  2  0  0  0  0  0  0
  189.6070  177.7070  140.3850 N   0  0  1  0  0  0  0  0  0  0  0  0
  189.3670  176.4150  142.5850 C   0  0  0  0  0  2  0  0  0  0  0  0
  188.7340  176.8950  143.8530 C   0  0  0  0  0  0  0  0  0  0  0  0
  187.5330  177.7600  146.2290 C   0  0  0  0  0  0  0  0  0  0  0  0
  189.5240  177.2020  144.9680 C   0  0  0  0  0  3  0  0  0  0  0  0
  187.3440  177.0300  143.9280 C   0  0  0  0  0  3  0  0  0  0  0  0
  186.7430  177.4600  145.1150 C   0  0  0  0  0  3  0  0  0  0  0  0
  186.9220  178.1960  147.4360 N   0  0  0  0  0  1  0  0  0  0  0  0
  188.9240  177.6330  146.1540 C   0  0  0  0  0  3  0  0  0  0  0  0
  1 19  1  0  0  0  0
  1 21  1  6  0  0  0
  3 18  1  0  0  0  0
  4 12  1  1  0  0  0
  4  9  1  0  0  0  0
  4  7  1  0  0  0  0
  5 11  1  1  0  0  0
  6 16  2  0  0  0  0
  6 17  1  0  0  0  0
  7  5  1  0  0  0  0
  7  2  2  0  0  0  0
  8 12  1  0  0  0  0
  9  6  1  0  0  0  0
 10 15  1  6  0  0  0
 10 20  1  0  0  0  0
 13 19  1  0  0  0  0
 14  8  1  6  0  0  0
 14 18  1  0  0  0  0
 14  5  1  0  0  0  0
 15 13  1  0  0  0  0
 17  2  1  0  0  0  0
 18 10  1  0  0  0  0
 20 11  1  1  0  0  0
 20  1  1  0  0  0  0
 21 22  1  0  0  0  0
 22 25  2  0  0  0  0
 22 24  1  0  0  0  0
 23 27  1  0  0  0  0
 24 28  2  0  0  0  0
 25 26  1  0  0  0  0
 26 23  2  0  0  0  0
 28 23  1  0  0  0  0
M  END
>  <MODEL>
2

>  <REMARK>
 VINA RESULT:      -8.9      0.862      1.322
  Name = 
  2 active torsions:
  status: ('A' for Active; 'I' for Inactive)
    1  A    between atoms: C_1  and  C_2
    2  A    between atoms: C_2  and  C_3
                            x       y       z     vdW  Elec       q    Type
                         _______ _______ _______ _____ _____    ______ ____

>  <TORSDO>
F 2

$$$$
=
 OpenBabel10272401573D

 28 32  0  0  1  0  0  0  0  0999 V2000
  190.6700  176.3940  143.4670 C   0  0  1  0  0  3  0  0  0  0  0  0
  185.6610  177.5920  143.6130 C   0  0  0  0  0  3  0  0  0  0  0  0
  189.9450  178.0550  147.9090 C   0  0  0  0  0  1  0  0  0  0  0  0
  185.2590  178.5070  145.8690 C   0  0  2  0  0  3  0  0  0  0  0  0
  187.4770  177.2060  145.2530 C   0  0  1  0  0  3  0  0  0  0  0  0
  183.9310  179.3380  143.8920 C   0  0  0  0  0  0  0  0  0  0  0  0
  186.1590  177.8320  144.8390 C   0  0  0  0  0  0  0  0  0  0  0  0
  187.0780  178.0370  147.5550 C   0  0  0  0  0  2  0  0  0  0  0  0
  184.4740  179.6720  145.2550 C   0  0  0  0  0  2  0  0  0  0  0  0
  190.2930  177.1060  145.7790 C   0  0  2  0  0  3  0  0  0  0  0  0
  188.5030  177.2000  144.1370 C   0  0  0  0  0  2  0  0  0  0  0  0
  186.0060  179.0150  147.1010 C   0  0  0  0  0  2  0  0  0  0  0  0
  191.9280  175.1870  145.2990 C   0  0  0  0  0  2  0  0  0  0  0  0
  188.1130  177.9240  146.4400 C   0  0  1  0  0  3  0  0  0  0  0  0
  191.5400  176.3180  146.2470 C   0  0  0  0  0  2  0  0  0  0  0  0
  183.1780  180.1200  143.3360 O   0  0  0  0  0  0  0  0  0  0  0  0
  184.2790  178.0400  143.2210 C   0  0  0  0  0  2  0  0  0  0  0  0
  189.3210  177.2140  146.8890 N   0  0  0  0  0  0  0  0  0  0  0  0
  191.9810  175.7060  143.8690 C   0  0  0  0  0  2  0  0  0  0  0  0
  189.6940  176.4770  144.5790 N   0  0  1  0  0  0  0  0  0  0  0  0
  190.9280  177.7120  142.7020 C   0  0  0  0  0  2  0  0  0  0  0  0
  190.5100  177.6810  141.2660 C   0  0  0  0  0  0  0  0  0  0  0  0
  189.7350  177.5870  138.5780 C   0  0  0  0  0  0  0  0  0  0  0  0
  189.2060  178.0350  140.8990 C   0  0  0  0  0  3  0  0  0  0  0  0
  191.4260  177.2880  140.2840 C   0  0  0  0  0  3  0  0  0  0  0  0
  191.0390  177.2390  138.9420 C   0  0  0  0  0  3  0  0  0  0  0  0
  189.3400  177.5360  137.2130 N   0  0  0  0  0  1  0  0  0  0  0  0
  188.8190  177.9880  139.5570 C   0  0  0  0  0  3  0  0  0  0  0  0
  1 21  1  1  0  0  0
  1 19  1  0  0  0  0
  1 20  1  0  0  0  0
  2  7  2  0  0  0  0
  4  9  1  6  0  0  0
  4 12  1  0  0  0  0
  5 11  1  6  0  0  0
  5 14  1  0  0  0  0
  6  9  1  0  0  0  0
  7  5  1  0  0  0  0
  7  4  1  0  0  0  0
 10 15  1  1  0  0  0
 10 18  1  0  0  0  0
 12  8  1  0  0  0  0
 13 15  1  0  0  0  0
 14 18  1  0  0  0  0
 14  8  1  1  0  0  0
 16  6  2  0  0  0  0
 17  2  1  0  0  0  0
 17  6  1  0  0  0  0
 18  3  1  0  0  0  0
 19 13  1  0  0  0  0
 20 11  1  6  0  0  0
 20 10  1  0  0  0  0
 22 21  1  0  0  0  0
 23 26  2  0  0  0  0
 23 28  1  0  0  0  0
 24 22  1  0  0  0  0
 25 22  2  0  0  0  0
 26 25  1  0  0  0  0
 27 23  1  0  0  0  0
 28 24  2  0  0  0  0
M  END
>  <MODEL>
3

>  <REMARK>
 VINA RESULT:      -8.8      2.787      6.795
  Name = 
  2 active torsions:
  status: ('A' for Active; 'I' for Inactive)
    1  A    between atoms: C_1  and  C_2
    2  A    between atoms: C_2  and  C_3
                            x       y       z     vdW  Elec       q    Type
                         _______ _______ _______ _____ _____    ______ ____

>  <TORSDO>
F 2

$$$$
=
 OpenBabel10272401573D

 28 32  0  0  1  0  0  0  0  0999 V2000
  188.9920  178.1990  139.7800 C   0  0  1  0  0  3  0  0  0  0  0  0
  185.7690  179.5550  143.5640 C   0  0  0  0  0  3  0  0  0  0  0  0
  184.6100  177.6180  137.9140 C   0  0  0  0  0  1  0  0  0  0  0  0
  183.4990  179.2140  142.6620 C   0  0  2  0  0  3  0  0  0  0  0  0
  185.6420  179.2200  141.1140 C   0  0  1  0  0  3  0  0  0  0  0  0
  183.9650  178.8890  145.1200 C   0  0  0  0  0  0  0  0  0  0  0  0
  185.0140  179.2530  142.4930 C   0  0  0  0  0  0  0  0  0  0  0  0
  183.3700  178.9560  140.1530 C   0  0  0  0  0  2  0  0  0  0  0  0
  183.0930  178.4990  143.9560 C   0  0  0  0  0  2  0  0  0  0  0  0
  186.7710  178.0290  138.7630 C   0  0  2  0  0  3  0  0  0  0  0  0
  187.0280  178.6060  141.1100 C   0  0  0  0  0  2  0  0  0  0  0  0
  182.7650  178.5600  141.4910 C   0  0  0  0  0  2  0  0  0  0  0  0
  188.7450  178.8690  137.3540 C   0  0  0  0  0  2  0  0  0  0  0  0
  184.8030  178.4310  140.1120 C   0  0  1  0  0  3  0  0  0  0  0  0
  187.3840  178.1780  137.3500 C   0  0  0  0  0  2  0  0  0  0  0  0
  183.6810  178.5000  146.2410 O   0  0  0  0  0  0  0  0  0  0  0  0
  185.1610  179.7750  144.9230 C   0  0  0  0  0  2  0  0  0  0  0  0
  185.3790  178.5280  138.7620 N   0  0  0  0  0  0  0  0  0  0  0  0
  189.6500  178.2230  138.3930 C   0  0  0  0  0  2  0  0  0  0  0  0
  187.6060  178.7220  139.7730 N   0  0  1  0  0  0  0  0  0  0  0  0
  189.1910  176.8380  140.4830 C   0  0  0  0  0  2  0  0  0  0  0  0
  189.8500  176.9290  141.8230 C   0  0  0  0  0  0  0  0  0  0  0  0
  191.0850  177.1370  144.3270 C   0  0  0  0  0  0  0  0  0  0  0  0
  189.1630  176.5400  142.9800 C   0  0  0  0  0  3  0  0  0  0  0  0
  191.1580  177.4150  141.9230 C   0  0  0  0  0  3  0  0  0  0  0  0
  191.7750  177.5210  143.1730 C   0  0  0  0  0  3  0  0  0  0  0  0
  191.7120  177.2460  145.5990 N   0  0  0  0  0  1  0  0  0  0  0  0
  189.7800  176.6440  144.2300 C   0  0  0  0  0  3  0  0  0  0  0  0
  1 21  1  6  0  0  0
  2 17  1  0  0  0  0
  3 18  1  0  0  0  0
  4 12  1  6  0  0  0
  4  9  1  0  0  0  0
  5 11  1  1  0  0  0
  5  7  1  0  0  0  0
  6 16  2  0  0  0  0
  7  4  1  0  0  0  0
  7  2  2  0  0  0  0
  8 12  1  0  0  0  0
  9  6  1  0  0  0  0
 10 15  1  6  0  0  0
 10 20  1  0  0  0  0
 13 19  1  0  0  0  0
 14  8  1  6  0  0  0
 14  5  1  0  0  0  0
 15 13  1  0  0  0  0
 17  6  1  0  0  0  0
 18 10  1  0  0  0  0
 18 14  1  0  0  0  0
 19  1  1  0  0  0  0
 20  1  1  0  0  0  0
 20 11  1  1  0  0  0
 21 22  1  0  0  0  0
 22 25  2  0  0  0  0
 22 24  1  0  0  0  0
 23 27  1  0  0  0  0
 24 28  2  0  0  0  0
 25 26  1  0  0  0  0
 26 23  2  0  0  0  0
 28 23  1  0  0  0  0
M  END
>  <MODEL>
4

>  <REMARK>
 VINA RESULT:      -8.4      2.612      5.066
  Name = 
  2 active torsions:
  status: ('A' for Active; 'I' for Inactive)
    1  A    between atoms: C_1  and  C_2
    2  A    between atoms: C_2  and  C_3
                            x       y       z     vdW  Elec       q    Type
                         _______ _______ _______ _____ _____    ______ ____

>  <TORSDO>
F 2

$$$$
=
 OpenBabel10272401573D

 28 32  0  0  1  0  0  0  0  0999 V2000
  190.6500  177.3970  141.4690 C   0  0  1  0  0  3  0  0  0  0  0  0
  185.8690  178.7900  140.1440 C   0  0  0  0  0  3  0  0  0  0  0  0
  190.0700  175.6870  137.0230 C   0  0  0  0  0  1  0  0  0  0  0  0
  185.5110  177.8770  137.8810 C   0  0  2  0  0  3  0  0  0  0  0  0
  187.9100  178.0020  138.9840 C   0  0  1  0  0  3  0  0  0  0  0  0
  183.5860  178.0920  139.4970 C   0  0  0  0  0  0  0  0  0  0  0  0
  186.4060  178.1650  139.0810 C   0  0  0  0  0  0  0  0  0  0  0  0
  187.6060  177.1520  136.6730 C   0  0  0  0  0  2  0  0  0  0  0  0
  184.1400  177.3440  138.3140 C   0  0  0  0  0  2  0  0  0  0  0  0
  190.4260  176.6380  139.1520 C   0  0  2  0  0  3  0  0  0  0  0  0
  188.5550  177.6650  140.3140 C   0  0  0  0  0  2  0  0  0  0  0  0
  186.1210  176.8980  136.8780 C   0  0  0  0  0  2  0  0  0  0  0  0
  192.6780  177.5610  139.9660 C   0  0  0  0  0  2  0  0  0  0  0  0
  188.3130  176.9040  138.0030 C   0  0  1  0  0  3  0  0  0  0  0  0
  191.9640  176.6410  138.9800 C   0  0  0  0  0  2  0  0  0  0  0  0
  182.4480  177.8650  139.8730 O   0  0  0  0  0  0  0  0  0  0  0  0
  184.4060  179.1350  140.2010 C   0  0  0  0  0  2  0  0  0  0  0  0
  189.7750  176.8610  137.8420 N   0  0  0  0  0  0  0  0  0  0  0  0
  192.1780  177.2920  141.3790 C   0  0  0  0  0  2  0  0  0  0  0  0
  190.0080  177.6430  140.1560 N   0  0  1  0  0  0  0  0  0  0  0  0
  190.0460  176.2450  142.3040 C   0  0  0  0  0  2  0  0  0  0  0  0
  189.7820  176.5960  143.7340 C   0  0  0  0  0  0  0  0  0  0  0  0
  189.3100  177.2830  146.4060 C   0  0  0  0  0  0  0  0  0  0  0  0
  188.4930  176.9510  144.1510 C   0  0  0  0  0  3  0  0  0  0  0  0
  190.8310  176.5790  144.6590 C   0  0  0  0  0  3  0  0  0  0  0  0
  190.5960  176.9230  145.9930 C   0  0  0  0  0  3  0  0  0  0  0  0
  189.0710  177.6340  147.7640 N   0  0  0  0  0  1  0  0  0  0  0  0
  188.2580  177.2940  145.4850 C   0  0  0  0  0  3  0  0  0  0  0  0
  1 21  1  6  0  0  0
  2 17  1  0  0  0  0
  3 18  1  0  0  0  0
  4 12  1  6  0  0  0
  4  9  1  0  0  0  0
  4  7  1  0  0  0  0
  5  7  1  0  0  0  0
  5 11  1  1  0  0  0
  6 16  2  0  0  0  0
  6 17  1  0  0  0  0
  7  2  2  0  0  0  0
  8 12  1  0  0  0  0
  9  6  1  0  0  0  0
 10 15  1  6  0  0  0
 10 20  1  0  0  0  0
 13 19  1  0  0  0  0
 14  8  1  6  0  0  0
 14  5  1  0  0  0  0
 15 13  1  0  0  0  0
 18 14  1  0  0  0  0
 18 10  1  0  0  0  0
 19  1  1  0  0  0  0
 20 11  1  1  0  0  0
 20  1  1  0  0  0  0
 21 22  1  0  0  0  0
 22 24  2  0  0  0  0
 22 25  1  0  0  0  0
 23 27  1  0  0  0  0
 24 28  1  0  0  0  0
 25 26  2  0  0  0  0
 26 23  1  0  0  0  0
 28 23  2  0  0  0  0
M  END
>  <MODEL>
5

>  <REMARK>
 VINA RESULT:      -8.3      1.492      1.875
  Name = 
  2 active torsions:
  status: ('A' for Active; 'I' for Inactive)
    1  A    between atoms: C_1  and  C_2
    2  A    between atoms: C_2  and  C_3
                            x       y       z     vdW  Elec       q    Type
                         _______ _______ _______ _____ _____    ______ ____

>  <TORSDO>
F 2

$$$$
=
 OpenBabel10272401573D

 28 32  0  0  1  0  0  0  0  0999 V2000
  189.3680  177.7420  138.0890 C   0  0  1  0  0  3  0  0  0  0  0  0
  189.4140  178.2280  143.2180 C   0  0  0  0  0  3  0  0  0  0  0  0
  184.7480  178.1620  139.3140 C   0  0  0  0  0  1  0  0  0  0  0  0
  187.0470  178.3890  143.8950 C   0  0  2  0  0  3  0  0  0  0  0  0
  187.8110  178.6440  141.3770 C   0  0  1  0  0  3  0  0  0  0  0  0
  188.7460  177.3110  145.4170 C   0  0  0  0  0  0  0  0  0  0  0  0
  188.1320  178.3300  142.8250 C   0  0  0  0  0  0  0  0  0  0  0  0
  185.4290  178.8940  142.0230 C   0  0  0  0  0  2  0  0  0  0  0  0
  187.2970  177.3670  145.0110 C   0  0  0  0  0  2  0  0  0  0  0  0
  187.0170  178.0940  138.6770 C   0  0  2  0  0  3  0  0  0  0  0  0
  188.7230  177.9270  140.4010 C   0  0  0  0  0  2  0  0  0  0  0  0
  185.6330  178.1830  143.3510 C   0  0  0  0  0  2  0  0  0  0  0  0
  187.9450  179.1170  136.5140 C   0  0  0  0  0  2  0  0  0  0  0  0
  186.3790  178.2690  141.0050 C   0  0  1  0  0  3  0  0  0  0  0  0
  186.7120  178.5930  137.2440 C   0  0  0  0  0  2  0  0  0  0  0  0
  189.0750  176.6390  146.3800 O   0  0  0  0  0  0  0  0  0  0  0  0
  189.7860  178.0970  144.6710 C   0  0  0  0  0  2  0  0  0  0  0  0
  186.0680  178.7030  139.6340 N   0  0  0  0  0  0  0  0  0  0  0  0
  189.0800  178.1100  136.6270 C   0  0  0  0  0  2  0  0  0  0  0  0
  188.4260  178.3750  139.0420 N   0  0  1  0  0  0  0  0  0  0  0  0
  189.5780  176.2220  138.2660 C   0  0  0  0  0  2  0  0  0  0  0  0
  190.9830  175.7640  138.0330 C   0  0  0  0  0  0  0  0  0  0  0  0
  193.6180  174.9080  137.6330 C   0  0  0  0  0  0  0  0  0  0  0  0
  191.2360  174.5310  137.4190 C   0  0  0  0  0  3  0  0  0  0  0  0
  192.0530  176.5700  138.4380 C   0  0  0  0  0  3  0  0  0  0  0  0
  193.3690  176.1420  138.2410 C   0  0  0  0  0  3  0  0  0  0  0  0
  194.9570  174.4720  137.4330 N   0  0  0  0  0  1  0  0  0  0  0  0
  192.5520  174.1040  137.2200 C   0  0  0  0  0  3  0  0  0  0  0  0
  1 21  1  6  0  0  0
  1 20  1  0  0  0  0
  2 17  1  0  0  0  0
  3 18  1  0  0  0  0
  4 12  1  6  0  0  0
  4  9  1  0  0  0  0
  5 11  1  6  0  0  0
  5  7  1  0  0  0  0
  6 16  2  0  0  0  0
  7  2  2  0  0  0  0
  7  4  1  0  0  0  0
  8 12  1  0  0  0  0
  9  6  1  0  0  0  0
 10 15  1  6  0  0  0
 10 20  1  0  0  0  0
 10 18  1  0  0  0  0
 13 19  1  0  0  0  0
 13 15  1  0  0  0  0
 14  5  1  0  0  0  0
 14  8  1  1  0  0  0
 17  6  1  0  0  0  0
 18 14  1  0  0  0  0
 19  1  1  0  0  0  0
 20 11  1  1  0  0  0
 22 21  1  0  0  0  0
 22 25  1  0  0  0  0
 23 26  1  0  0  0  0
 24 22  2  0  0  0  0
 26 25  2  0  0  0  0
 27 23  1  0  0  0  0
 28 24  1  0  0  0  0
 28 23  2  0  0  0  0
M  END
>  <MODEL>
6

>  <REMARK>
 VINA RESULT:      -8.2      2.905      7.409
  Name = 
  2 active torsions:
  status: ('A' for Active; 'I' for Inactive)
    1  A    between atoms: C_1  and  C_2
    2  A    between atoms: C_2  and  C_3
                            x       y       z     vdW  Elec       q    Type
                         _______ _______ _______ _____ _____    ______ ____

>  <TORSDO>
F 2

$$$$
=
 OpenBabel10272401573D

 28 32  0  0  1  0  0  0  0  0999 V2000
  184.5770  178.8750  142.1400 C   0  0  1  0  0  3  0  0  0  0  0  0
  188.2660  178.7880  138.5450 C   0  0  0  0  0  3  0  0  0  0  0  0
  188.2280  176.5380  144.1980 C   0  0  0  0  0  1  0  0  0  0  0  0
  190.1450  177.5410  139.5450 C   0  0  2  0  0  3  0  0  0  0  0  0
  188.1160  178.4280  140.9900 C   0  0  1  0  0  3  0  0  0  0  0  0
  189.7160  177.4400  137.0620 C   0  0  0  0  0  0  0  0  0  0  0  0
  188.7730  178.2010  139.6430 C   0  0  0  0  0  0  0  0  0  0  0  0
  190.0240  177.2500  142.0510 C   0  0  0  0  0  2  0  0  0  0  0  0
  190.2880  176.7240  138.2560 C   0  0  0  0  0  2  0  0  0  0  0  0
  186.4750  177.8040  143.2570 C   0  0  2  0  0  3  0  0  0  0  0  0
  186.6020  178.4390  140.9140 C   0  0  0  0  0  2  0  0  0  0  0  0
  190.4820  176.6420  140.7340 C   0  0  0  0  0  2  0  0  0  0  0  0
  184.9500  179.3800  144.5900 C   0  0  0  0  0  2  0  0  0  0  0  0
  188.5020  177.3620  142.0120 C   0  0  1  0  0  3  0  0  0  0  0  0
  185.9040  178.1910  144.6430 C   0  0  0  0  0  2  0  0  0  0  0  0
  189.8730  176.9700  135.9460 O   0  0  0  0  0  0  0  0  0  0  0  0
  188.9820  178.7400  137.2220 C   0  0  0  0  0  2  0  0  0  0  0  0
  187.9470  177.6850  143.3350 N   0  0  0  0  0  0  0  0  0  0  0  0
  183.9160  179.1660  143.4950 C   0  0  0  0  0  2  0  0  0  0  0  0
  186.0530  178.7800  142.2250 N   0  0  1  0  0  0  0  0  0  0  0  0
  183.8730  177.7180  141.3970 C   0  0  0  0  0  2  0  0  0  0  0  0
  182.8730  178.1600  140.3770 C   0  0  0  0  0  0  0  0  0  0  0  0
  180.9780  179.0010  138.4950 C   0  0  0  0  0  0  0  0  0  0  0  0
  183.1940  179.1680  139.4580 C   0  0  0  0  0  3  0  0  0  0  0  0
  181.6040  177.5700  140.3460 C   0  0  0  0  0  3  0  0  0  0  0  0
  180.6570  177.9910  139.4070 C   0  0  0  0  0  3  0  0  0  0  0  0
  180.0140  179.4290  137.5410 N   0  0  0  0  0  1  0  0  0  0  0  0
  182.2480  179.5870  138.5190 C   0  0  0  0  0  3  0  0  0  0  0  0
  1 21  1  1  0  0  0
  1 20  1  0  0  0  0
  1 19  1  0  0  0  0
  2  7  2  0  0  0  0
  4  9  1  6  0  0  0
  4  7  1  0  0  0  0
  4 12  1  0  0  0  0
  5 11  1  6  0  0  0
  5 14  1  0  0  0  0
  6 17  1  0  0  0  0
  6  9  1  0  0  0  0
  7  5  1  0  0  0  0
 10 18  1  0  0  0  0
 10 15  1  1  0  0  0
 12  8  1  0  0  0  0
 13 15  1  0  0  0  0
 14  8  1  1  0  0  0
 14 18  1  0  0  0  0
 16  6  2  0  0  0  0
 17  2  1  0  0  0  0
 18  3  1  0  0  0  0
 19 13  1  0  0  0  0
 20 11  1  6  0  0  0
 20 10  1  0  0  0  0
 22 21  1  0  0  0  0
 23 28  2  0  0  0  0
 23 26  1  0  0  0  0
 24 22  2  0  0  0  0
 25 22  1  0  0  0  0
 26 25  2  0  0  0  0
 27 23  1  0  0  0  0
 28 24  1  0  0  0  0
M  END
>  <MODEL>
7

>  <REMARK>
 VINA RESULT:      -8.2      3.027      6.244
  Name = 
  2 active torsions:
  status: ('A' for Active; 'I' for Inactive)
    1  A    between atoms: C_1  and  C_2
    2  A    between atoms: C_2  and  C_3
                            x       y       z     vdW  Elec       q    Type
                         _______ _______ _______ _____ _____    ______ ____

>  <TORSDO>
F 2

$$$$
=
 OpenBabel10272401573D

 28 32  0  0  1  0  0  0  0  0999 V2000
  182.2060  178.3270  139.4890 C   0  0  1  0  0  3  0  0  0  0  0  0
  186.5970  178.2950  142.1860 C   0  0  0  0  0  3  0  0  0  0  0  0
  180.8260  178.7140  144.0680 C   0  0  0  0  0  1  0  0  0  0  0  0
  185.9260  178.4340  144.5560 C   0  0  2  0  0  3  0  0  0  0  0  0
  184.2350  178.9250  142.5830 C   0  0  1  0  0  3  0  0  0  0  0  0
  188.0060  177.1750  143.8830 C   0  0  0  0  0  0  0  0  0  0  0  0
  185.5950  178.4600  143.0670 C   0  0  0  0  0  0  0  0  0  0  0  0
  183.5390  179.1570  144.9530 C   0  0  0  0  0  2  0  0  0  0  0  0
  186.9000  177.3010  144.8970 C   0  0  0  0  0  2  0  0  0  0  0  0
  181.4880  178.6650  141.8050 C   0  0  2  0  0  3  0  0  0  0  0  0
  183.8280  178.2920  141.2670 C   0  0  0  0  0  2  0  0  0  0  0  0
  184.6980  178.3120  145.4580 C   0  0  0  0  0  2  0  0  0  0  0  0
  180.2560  179.8810  139.9100 C   0  0  0  0  0  2  0  0  0  0  0  0
  183.1260  178.6190  143.5860 C   0  0  1  0  0  3  0  0  0  0  0  0
  180.1670  179.3120  141.3230 C   0  0  0  0  0  2  0  0  0  0  0  0
  188.9270  176.4030  144.0900 O   0  0  0  0  0  0  0  0  0  0  0  0
  188.0040  178.0110  142.6350 C   0  0  0  0  0  2  0  0  0  0  0  0
  181.8480  179.1940  143.1390 N   0  0  0  0  0  0  0  0  0  0  0  0
  180.8580  178.8450  138.9710 C   0  0  0  0  0  2  0  0  0  0  0  0
  182.5690  178.8800  140.8150 N   0  0  1  0  0  0  0  0  0  0  0  0
  182.3210  176.7930  139.3490 C   0  0  0  0  0  2  0  0  0  0  0  0
  183.3270  176.3410  138.3380 C   0  0  0  0  0  0  0  0  0  0  0  0
  185.2360  175.5100  136.4670 C   0  0  0  0  0  0  0  0  0  0  0  0
  183.4800  174.9790  138.0480 C   0  0  0  0  0  3  0  0  0  0  0  0
  184.1260  177.2850  137.6830 C   0  0  0  0  0  3  0  0  0  0  0  0
  185.0810  176.8700  136.7510 C   0  0  0  0  0  3  0  0  0  0  0  0
  186.2080  175.0880  135.5190 N   0  0  0  0  0  1  0  0  0  0  0  0
  184.4330  174.5650  137.1140 C   0  0  0  0  0  3  0  0  0  0  0  0
  1 21  1  1  0  0  0
  1 20  1  0  0  0  0
  2 17  1  0  0  0  0
  2  7  2  0  0  0  0
  4  9  1  6  0  0  0
  4 12  1  0  0  0  0
  5 11  1  6  0  0  0
  5  7  1  0  0  0  0
  5 14  1  0  0  0  0
  6 16  2  0  0  0  0
  6  9  1  0  0  0  0
  7  4  1  0  0  0  0
  8 12  1  0  0  0  0
 10 15  1  6  0  0  0
 10 18  1  0  0  0  0
 13 15  1  0  0  0  0
 14  8  1  1  0  0  0
 17  6  1  0  0  0  0
 18 14  1  0  0  0  0
 18  3  1  0  0  0  0
 19  1  1  0  0  0  0
 19 13  1  0  0  0  0
 20 11  1  1  0  0  0
 20 10  1  0  0  0  0
 22 21  1  0  0  0  0
 23 26  2  0  0  0  0
 23 28  1  0  0  0  0
 24 22  1  0  0  0  0
 25 22  2  0  0  0  0
 26 25  1  0  0  0  0
 27 23  1  0  0  0  0
 28 24  2  0  0  0  0
M  END
>  <MODEL>
8

>  <REMARK>
 VINA RESULT:      -8.1      3.462      8.536
  Name = 
  2 active torsions:
  status: ('A' for Active; 'I' for Inactive)
    1  A    between atoms: C_1  and  C_2
    2  A    between atoms: C_2  and  C_3
                            x       y       z     vdW  Elec       q    Type
                         _______ _______ _______ _____ _____    ______ ____

>  <TORSDO>
F 2

$$$$
=
 OpenBabel10272401573D

 28 32  0  0  1  0  0  0  0  0999 V2000
  190.3690  177.6090  142.5630 C   0  0  1  0  0  3  0  0  0  0  0  0
  185.6050  179.4960  143.1050 C   0  0  0  0  0  3  0  0  0  0  0  0
  188.2270  176.7340  138.3600 C   0  0  0  0  0  1  0  0  0  0  0  0
  184.4500  179.0120  140.9790 C   0  0  2  0  0  3  0  0  0  0  0  0
  187.0730  178.8000  141.2350 C   0  0  1  0  0  3  0  0  0  0  0  0
  183.1710  179.0590  143.1530 C   0  0  0  0  0  0  0  0  0  0  0  0
  185.7050  179.0340  141.8450 C   0  0  0  0  0  0  0  0  0  0  0  0
  185.9610  178.3830  139.0570 C   0  0  0  0  0  2  0  0  0  0  0  0
  183.2350  178.4960  141.7590 C   0  0  0  0  0  2  0  0  0  0  0  0
  189.3420  177.2780  140.3650 C   0  0  2  0  0  3  0  0  0  0  0  0
  188.0620  178.1990  142.2150 C   0  0  0  0  0  2  0  0  0  0  0  0
  184.5980  178.1870  139.7010 C   0  0  0  0  0  2  0  0  0  0  0  0
  191.8250  177.9100  140.5160 C   0  0  0  0  0  2  0  0  0  0  0  0
  187.0180  177.8660  140.0290 C   0  0  1  0  0  3  0  0  0  0  0  0
  190.7370  177.2190  139.6980 C   0  0  0  0  0  2  0  0  0  0  0  0
  182.1910  178.8390  143.8470 O   0  0  0  0  0  0  0  0  0  0  0  0
  184.2830  179.9130  143.6900 C   0  0  0  0  0  2  0  0  0  0  0  0
  188.3400  177.7640  139.3910 N   0  0  0  0  0  0  0  0  0  0  0  0
  191.7690  177.4310  141.9600 C   0  0  0  0  0  2  0  0  0  0  0  0
  189.3780  178.1180  141.5850 N   0  0  1  0  0  0  0  0  0  0  0  0
  189.9340  176.3690  143.3740 C   0  0  0  0  0  2  0  0  0  0  0  0
  189.4790  176.6750  144.7660 C   0  0  0  0  0  0  0  0  0  0  0  0
  188.6510  177.2760  147.3720 C   0  0  0  0  0  0  0  0  0  0  0  0
  188.1480  177.0320  145.0160 C   0  0  0  0  0  3  0  0  0  0  0  0
  190.3910  176.6120  145.8250 C   0  0  0  0  0  3  0  0  0  0  0  0
  189.9790  176.9140  147.1270 C   0  0  0  0  0  3  0  0  0  0  0  0
  188.2320  177.5840  148.6960 N   0  0  0  0  0  1  0  0  0  0  0  0
  187.7350  177.3320  146.3170 C   0  0  0  0  0  3  0  0  0  0  0  0
  1 21  1  6  0  0  0
  2 17  1  0  0  0  0
  3 18  1  0  0  0  0
  4 12  1  6  0  0  0
  4  9  1  0  0  0  0
  4  7  1  0  0  0  0
  5  7  1  0  0  0  0
  5 11  1  1  0  0  0
  6 17  1  0  0  0  0
  6 16  2  0  0  0  0
  7  2  2  0  0  0  0
  8 12  1  0  0  0  0
  9  6  1  0  0  0  0
 10 15  1  6  0  0  0
 10 20  1  0  0  0  0
 13 19  1  0  0  0  0
 14  8  1  6  0  0  0
 14  5  1  0  0  0  0
 15 13  1  0  0  0  0
 18 14  1  0  0  0  0
 18 10  1  0  0  0  0
 19  1  1  0  0  0  0
 20 11  1  1  0  0  0
 20  1  1  0  0  0  0
 21 22  1  0  0  0  0
 22 24  2  0  0  0  0
 22 25  1  0  0  0  0
 23 27  1  0  0  0  0
 24 28  1  0  0  0  0
 25 26  2  0  0  0  0
 26 23  1  0  0  0  0
 28 23  2  0  0  0  0
M  END
>  <MODEL>
9

>  <REMARK>
 VINA RESULT:      -8.0      2.056      3.041
  Name = 
  2 active torsions:
  status: ('A' for Active; 'I' for Inactive)
    1  A    between atoms: C_1  and  C_2
    2  A    between atoms: C_2  and  C_3
                            x       y       z     vdW  Elec       q    Type
                         _______ _______ _______ _____ _____    ______ ____

>  <TORSDO>
F 2

$$$$
