=
 OpenBabel10272401263D

 55 60  0  0  1  0  0  0  0  0999 V2000
  185.4240  178.5280  144.5710 C   0  0  0  0  0  3  0  0  0  0  0  0
  183.4380  178.6680  142.6020 C   0  0  0  0  0  0  0  0  0  0  0  0
  184.7490  178.3240  142.2520 C   0  0  0  0  0  3  0  0  0  0  0  0
  184.1150  178.8690  144.9200 C   0  0  0  0  0  3  0  0  0  0  0  0
  185.7440  178.2500  143.2400 C   0  0  0  0  0  0  0  0  0  0  0  0
  183.1210  178.9310  143.9370 C   0  0  0  0  0  3  0  0  0  0  0  0
  187.1430  177.8730  142.8910 C   0  0  0  0  0  2  0  0  0  0  0  0
  189.5090  176.2770  137.3170 C   0  0  0  0  0  3  0  0  0  0  0  0
  190.6760  175.8060  136.7060 C   0  0  0  0  0  3  0  0  0  0  0  0
  190.7670  176.7890  139.3260 C   0  0  0  0  0  0  0  0  0  0  0  0
  191.9330  176.3210  138.7090 C   0  0  0  0  0  3  0  0  0  0  0  0
  191.8890  175.8310  137.4010 C   0  0  0  0  0  3  0  0  0  0  0  0
  189.5470  176.7730  138.6270 C   0  0  0  0  0  0  0  0  0  0  0  0
  187.2730  177.6350  141.4200 C   0  0  0  0  0  3  0  0  0  0  0  0
  189.7770  177.6120  141.3610 C   0  0  0  0  0  0  0  0  0  0  0  0
  190.8240  177.2500  140.6800 N   0  0  0  0  0  0  0  0  0  0  0  0
  188.2940  177.3240  139.2500 C   0  0  1  0  0  3  0  0  0  0  0  0
  188.4200  177.5440  140.7360 C   0  0  0  0  0  0  0  0  0  0  0  0
  189.9370  178.0320  142.7210 N   0  0  0  0  0  2  0  0  0  0  0  0
  191.2820  178.7020  144.6590 C   0  0  0  0  0  2  0  0  0  0  0  0
  191.8170  176.6540  145.4690 C   0  0  1  0  0  3  0  0  0  0  0  0
  191.1300  177.7420  143.5080 C   0  0  1  0  0  3  0  0  0  0  0  0
  190.9760  176.4450  144.2180 C   0  0  0  0  0  2  0  0  0  0  0  0
  191.9710  178.0420  145.6930 O   0  0  0  0  0  0  0  0  0  0  0  0
  191.2130  176.0170  146.6430 N   0  0  0  0  0  0  0  0  0  0  0  0
  192.2520  175.8040  147.6420 C   0  0  0  0  0  1  0  0  0  0  0  0
  190.3270  176.9520  147.2040 N   0  0  0  0  0  1  0  0  0  0  0  0
  187.9300  178.5240  138.6240 O   0  0  0  0  0  0  0  0  0  0  0  0
  187.0920  179.2050  136.4860 C   0  0  0  0  0  1  0  0  0  0  0  0
  187.0760  178.1480  137.5770 C   0  0  2  0  0  3  0  0  0  0  0  0
  185.6540  177.8980  138.0860 C   0  0  0  0  0  2  0  0  0  0  0  0
  185.0390  179.1460  138.7110 C   0  0  0  0  0  1  0  0  0  0  0  0
  182.3580  178.6850  141.5750 C   0  0  0  0  0  2  0  0  0  0  0  0
  182.5510  177.6610  140.6410 O   0  0  0  0  0  0  0  0  0  0  0  0
  181.3620  177.6250  139.9170 C   0  0  0  0  0  2  0  0  0  0  0  0
  181.6020  176.9550  138.5750 C   0  0  0  0  0  2  0  0  0  0  0  0
  181.5180  175.4480  138.7280 C   0  0  0  0  0  2  0  0  0  0  0  0
  182.5330  174.8440  137.9690 O   0  0  0  0  0  0  0  0  0  0  0  0
  181.2920  172.9330  137.6520 F   0  0  0  0  0  0  0  0  0  0  0  0
  181.9350  173.9910  137.0150 C   0  0  0  0  0  0  0  0  0  0  0  0
  180.9980  174.6960  136.2720 F   0  0  0  0  0  0  0  0  0  0  0  0
  184.2250  175.4640  135.0880 C   0  0  0  0  0  0  0  0  0  0  0  0
  184.1790  171.9840  137.6490 F   0  0  0  0  0  0  0  0  0  0  0  0
  183.0350  173.4130  136.0900 C   0  0  1  0  0  0  0  0  0  0  0  0
  187.6420  173.1420  136.8890 C   0  0  0  0  0  2  0  0  0  0  0  0
  184.6750  174.1630  137.7140 F   0  0  0  0  0  0  0  0  0  0  0  0
  184.3600  173.1080  136.8580 C   0  0  0  0  0  0  0  0  0  0  0  0
  183.8570  176.5270  135.5630 O   0  0  0  0  0  0  0  0  0  0  0  0
  187.6660  173.0990  135.4760 O   0  0  0  0  0  0  0  0  0  0  0  0
  186.5200  173.6420  136.0750 C   0  0  1  0  0  0  0  0  0  0  0  0
  185.6590  175.2540  134.7230 C   0  0  0  0  0  2  0  0  0  0  0  0
  185.3860  172.8090  135.9170 O   0  0  0  0  0  0  0  0  0  0  0  0
  182.5580  172.2030  135.5730 O   0  0  0  0  0  1  0  0  0  0  0  0
  186.4170  175.0360  135.8830 O   0  0  0  0  0  0  0  0  0  0  0  0
  183.2490  174.3480  134.8750 C   0  0  0  0  0  2  0  0  0  0  0  0
  1  4  1  0  0  0  0
  2  6  1  0  0  0  0
  3  2  2  0  0  0  0
  3  5  1  0  0  0  0
  5  1  2  0  0  0  0
  6  4  2  0  0  0  0
  7  5  1  0  0  0  0
  8 13  1  0  0  0  0
  9  8  2  0  0  0  0
  9 12  1  0  0  0  0
 10 16  1  0  0  0  0
 11 10  1  0  0  0  0
 12 11  2  0  0  0  0
 13 17  1  0  0  0  0
 13 10  2  0  0  0  0
 14  7  1  0  0  0  0
 15 19  1  0  0  0  0
 16 15  2  0  0  0  0
 17 28  1  6  0  0  0
 17 18  1  0  0  0  0
 18 15  1  0  0  0  0
 18 14  2  0  0  0  0
 20 24  1  0  0  0  0
 21 24  1  0  0  0  0
 21 25  1  1  0  0  0
 22 19  1  1  0  0  0
 22 23  1  0  0  0  0
 22 20  1  0  0  0  0
 23 21  1  0  0  0  0
 25 27  1  0  0  0  0
 25 26  1  0  0  0  0
 30 29  1  6  0  0  0
 30 31  1  0  0  0  0
 30 28  1  0  0  0  0
 31 32  1  0  0  0  0
 33  2  1  0  0  0  0
 34 33  1  0  0  0  0
 35 34  1  0  0  0  0
 36 37  1  0  0  0  0
 36 35  1  0  0  0  0
 38 37  1  0  0  0  0
 40 39  1  0  0  0  0
 40 38  1  0  0  0  0
 41 40  1  0  0  0  0
 42 48  2  0  0  0  0
 44 53  1  6  0  0  0
 44 47  1  0  0  0  0
 44 40  1  0  0  0  0
 47 43  1  0  0  0  0
 47 46  1  0  0  0  0
 49 50  1  0  0  0  0
 49 45  1  0  0  0  0
 50 45  1  1  0  0  0
 51 42  1  0  0  0  0
 51 54  1  0  0  0  0
 52 50  1  0  0  0  0
 52 47  1  0  0  0  0
 54 50  1  0  0  0  0
 55 42  1  0  0  0  0
 55 44  1  0  0  0  0
M  END
>  <MODEL>
1

>  <REMARK>
 VINA RESULT:      -7.7      0.000      0.000
  Name = 
  15 active torsions:
  status: ('A' for Active; 'I' for Inactive)
    1  A    between atoms: C_2  and  C_28
    2  A    between atoms: C_2  and  C_44
    3  A    between atoms: C_4  and  C_40
    4  A    between atoms: C_6  and  C_20
    5  A    between atoms: C_8  and  O_22
    6  A    between atoms: C_8  and  C_35
    7  A    between atoms: N_10  and  C_32
    8  A    between atoms: O_19  and  C_40
    9  A    between atoms: O_19  and  C_45
   10  A    between atoms: C_20  and  O_22
   11  A    between atoms: C_27  and  C_54
   12  A    between atoms: C_34  and  N_52
   13  A    between atoms: C_35  and  C_43
   14  A    between atoms: C_43  and  O_51
   15  A    between atoms: O_51  and  C_54
                            x       y       z     vdW  Elec       q    Type
                         _______ _______ _______ _____ _____    ______ ____

>  <TORSDO>
F 15

$$$$
=
 OpenBabel10272401263D

 55 60  0  0  1  0  0  0  0  0999 V2000
  183.3340  175.5330  137.6530 C   0  0  0  0  0  3  0  0  0  0  0  0
  183.8800  177.6850  139.3590 C   0  0  0  0  0  0  0  0  0  0  0  0
  184.5550  177.5700  138.1380 C   0  0  0  0  0  3  0  0  0  0  0  0
  182.6600  175.6500  138.8710 C   0  0  0  0  0  3  0  0  0  0  0  0
  184.2780  176.4930  137.2810 C   0  0  0  0  0  0  0  0  0  0  0  0
  182.9280  176.7300  139.7200 C   0  0  0  0  0  3  0  0  0  0  0  0
  184.9750  176.3590  135.9700 C   0  0  0  0  0  2  0  0  0  0  0  0
  190.9700  174.5660  135.7370 C   0  0  0  0  0  3  0  0  0  0  0  0
  191.7970  173.5330  135.2840 C   0  0  0  0  0  3  0  0  0  0  0  0
  189.0270  173.1510  135.4180 C   0  0  0  0  0  0  0  0  0  0  0  0
  189.8590  172.1170  134.9710 C   0  0  0  0  0  3  0  0  0  0  0  0
  191.2420  172.3060  134.9050 C   0  0  0  0  0  3  0  0  0  0  0  0
  189.5830  174.3810  135.8090 C   0  0  0  0  0  0  0  0  0  0  0  0
  186.4580  176.3380  136.1610 C   0  0  0  0  0  3  0  0  0  0  0  0
  186.7580  173.8860  135.7500 C   0  0  0  0  0  0  0  0  0  0  0  0
  187.6100  172.9520  135.4410 N   0  0  0  0  0  0  0  0  0  0  0  0
  188.7130  175.4850  136.3460 C   0  0  1  0  0  3  0  0  0  0  0  0
  187.2450  175.2570  136.0910 C   0  0  0  0  0  0  0  0  0  0  0  0
  185.3560  173.5930  135.7150 N   0  0  0  0  0  2  0  0  0  0  0  0
  184.3950  171.3510  135.9740 C   0  0  0  0  0  2  0  0  0  0  0  0
  182.7520  171.4670  134.4190 C   0  0  1  0  0  3  0  0  0  0  0  0
  184.8000  172.4410  135.0150 C   0  0  1  0  0  3  0  0  0  0  0  0
  183.4950  172.7940  134.3970 C   0  0  0  0  0  2  0  0  0  0  0  0
  183.3370  170.6280  135.3960 O   0  0  0  0  0  0  0  0  0  0  0  0
  181.3250  171.6490  134.7000 N   0  0  0  0  0  0  0  0  0  0  0  0
  181.0090  170.9790  135.9560 C   0  0  0  0  0  1  0  0  0  0  0  0
  181.1250  173.0190  134.9350 N   0  0  0  0  0  1  0  0  0  0  0  0
  188.9350  175.6500  137.7200 O   0  0  0  0  0  0  0  0  0  0  0  0
  190.9270  176.5230  138.7240 C   0  0  0  0  0  1  0  0  0  0  0  0
  189.7310  176.7990  137.8290 C   0  0  2  0  0  3  0  0  0  0  0  0
  188.9160  177.9890  138.3440 C   0  0  0  0  0  2  0  0  0  0  0  0
  188.8700  179.1320  137.3370 C   0  0  0  0  0  1  0  0  0  0  0  0
  184.1150  178.8590  140.2470 C   0  0  0  0  0  2  0  0  0  0  0  0
  184.3100  178.4450  141.5690 O   0  0  0  0  0  0  0  0  0  0  0  0
  185.3720  179.2250  142.0220 C   0  0  0  0  0  2  0  0  0  0  0  0
  186.6520  178.7970  141.3270 C   0  0  0  0  0  2  0  0  0  0  0  0
  187.4370  177.8570  142.2230 C   0  0  0  0  0  2  0  0  0  0  0  0
  188.8060  178.1470  142.1190 O   0  0  0  0  0  0  0  0  0  0  0  0
  188.6630  176.1900  143.3200 F   0  0  0  0  0  0  0  0  0  0  0  0
  189.5340  177.1190  142.7570 C   0  0  0  0  0  0  0  0  0  0  0  0
  190.3420  176.4670  141.8350 F   0  0  0  0  0  0  0  0  0  0  0  0
  188.8400  177.8420  145.9390 C   0  0  0  0  0  0  0  0  0  0  0  0
  192.2630  176.2220  143.8590 F   0  0  0  0  0  0  0  0  0  0  0  0
  190.3950  177.7340  143.8900 C   0  0  1  0  0  0  0  0  0  0  0  0
  192.3820  175.5510  147.5260 C   0  0  0  0  0  2  0  0  0  0  0  0
  190.4250  175.5460  144.9380 F   0  0  0  0  0  0  0  0  0  0  0  0
  191.2210  176.6580  144.6620 C   0  0  0  0  0  0  0  0  0  0  0  0
  187.7590  177.3030  145.7650 O   0  0  0  0  0  0  0  0  0  0  0  0
  192.3150  176.8550  148.0690 O   0  0  0  0  0  0  0  0  0  0  0  0
  191.4440  176.5640  147.0080 C   0  0  1  0  0  0  0  0  0  0  0  0
  189.5250  177.7550  147.2650 C   0  0  0  0  0  2  0  0  0  0  0  0
  191.7940  177.2530  145.8220 O   0  0  0  0  0  0  0  0  0  0  0  0
  191.3030  178.6190  143.2970 O   0  0  0  0  0  1  0  0  0  0  0  0
  190.0970  176.4840  147.4200 O   0  0  0  0  0  0  0  0  0  0  0  0
  189.5060  178.5900  144.8240 C   0  0  0  0  0  2  0  0  0  0  0  0
  1  4  1  0  0  0  0
  2  6  1  0  0  0  0
  2 33  1  0  0  0  0
  3  2  2  0  0  0  0
  4  6  2  0  0  0  0
  5  1  2  0  0  0  0
  5  3  1  0  0  0  0
  7 14  1  0  0  0  0
  7  5  1  0  0  0  0
  8 13  1  0  0  0  0
  9  8  2  0  0  0  0
 10 16  1  0  0  0  0
 10 13  2  0  0  0  0
 11 10  1  0  0  0  0
 12 11  2  0  0  0  0
 12  9  1  0  0  0  0
 13 17  1  0  0  0  0
 15 18  1  0  0  0  0
 16 15  2  0  0  0  0
 17 28  1  1  0  0  0
 18 14  2  0  0  0  0
 18 17  1  0  0  0  0
 19 15  1  0  0  0  0
 21 25  1  1  0  0  0
 21 24  1  0  0  0  0
 22 19  1  1  0  0  0
 22 20  1  0  0  0  0
 23 21  1  0  0  0  0
 23 22  1  0  0  0  0
 24 20  1  0  0  0  0
 25 27  1  0  0  0  0
 25 26  1  0  0  0  0
 28 30  1  0  0  0  0
 30 31  1  0  0  0  0
 30 29  1  1  0  0  0
 32 31  1  0  0  0  0
 33 34  1  0  0  0  0
 34 35  1  0  0  0  0
 36 35  1  0  0  0  0
 36 37  1  0  0  0  0
 38 37  1  0  0  0  0
 38 40  1  0  0  0  0
 40 39  1  0  0  0  0
 40 44  1  0  0  0  0
 41 40  1  0  0  0  0
 42 51  1  0  0  0  0
 43 47  1  0  0  0  0
 44 53  1  6  0  0  0
 44 47  1  0  0  0  0
 44 55  1  0  0  0  0
 45 49  1  0  0  0  0
 47 46  1  0  0  0  0
 47 52  1  0  0  0  0
 48 42  2  0  0  0  0
 50 54  1  0  0  0  0
 50 45  1  6  0  0  0
 50 49  1  0  0  0  0
 51 54  1  0  0  0  0
 52 50  1  0  0  0  0
 55 42  1  0  0  0  0
M  END
>  <MODEL>
2

>  <REMARK>
 VINA RESULT:      -7.5      4.242      9.542
  Name = 
  15 active torsions:
  status: ('A' for Active; 'I' for Inactive)
    1  A    between atoms: C_2  and  C_28
    2  A    between atoms: C_2  and  C_44
    3  A    between atoms: C_4  and  C_40
    4  A    between atoms: C_6  and  C_20
    5  A    between atoms: C_8  and  O_22
    6  A    between atoms: C_8  and  C_35
    7  A    between atoms: N_10  and  C_32
    8  A    between atoms: O_19  and  C_40
    9  A    between atoms: O_19  and  C_45
   10  A    between atoms: C_20  and  O_22
   11  A    between atoms: C_27  and  C_54
   12  A    between atoms: C_34  and  N_52
   13  A    between atoms: C_35  and  C_43
   14  A    between atoms: C_43  and  O_51
   15  A    between atoms: O_51  and  C_54
                            x       y       z     vdW  Elec       q    Type
                         _______ _______ _______ _____ _____    ______ ____

>  <TORSDO>
F 15

$$$$
=
 OpenBabel10272401263D

 55 60  0  0  1  0  0  0  0  0999 V2000
  187.2520  178.3950  136.0600 C   0  0  0  0  0  3  0  0  0  0  0  0
  186.7670  175.6870  136.5840 C   0  0  0  0  0  0  0  0  0  0  0  0
  187.7490  176.3760  137.3050 C   0  0  0  0  0  3  0  0  0  0  0  0
  186.2690  177.7090  135.3430 C   0  0  0  0  0  3  0  0  0  0  0  0
  187.9900  177.7340  137.0460 C   0  0  0  0  0  0  0  0  0  0  0  0
  186.0220  176.3570  135.6100 C   0  0  0  0  0  3  0  0  0  0  0  0
  189.0230  178.4890  137.8110 C   0  0  0  0  0  2  0  0  0  0  0  0
  189.2670  177.9740  144.0470 C   0  0  0  0  0  3  0  0  0  0  0  0
  190.0690  177.4870  145.0840 C   0  0  0  0  0  3  0  0  0  0  0  0
  190.5800  176.7160  142.4410 C   0  0  0  0  0  0  0  0  0  0  0  0
  191.3770  176.2270  143.4840 C   0  0  0  0  0  3  0  0  0  0  0  0
  191.1220  176.6100  144.8030 C   0  0  0  0  0  3  0  0  0  0  0  0
  189.5140  177.5890  142.7220 C   0  0  0  0  0  0  0  0  0  0  0  0
  188.6510  178.5710  139.2570 C   0  0  0  0  0  3  0  0  0  0  0  0
  190.2540  176.8230  140.0580 C   0  0  0  0  0  0  0  0  0  0  0  0
  190.8800  176.3430  141.0930 N   0  0  0  0  0  0  0  0  0  0  0  0
  188.6110  178.0800  141.6240 C   0  0  1  0  0  3  0  0  0  0  0  0
  189.1660  177.8300  140.2450 C   0  0  0  0  0  0  0  0  0  0  0  0
  190.6500  176.4070  138.7460 N   0  0  0  0  0  2  0  0  0  0  0  0
  191.7570  174.5010  137.6700 C   0  0  0  0  0  2  0  0  0  0  0  0
  193.5510  175.5620  136.7830 C   0  0  1  0  0  3  0  0  0  0  0  0
  191.9310  175.7680  138.4660 C   0  0  1  0  0  3  0  0  0  0  0  0
  192.7290  176.6020  137.5290 C   0  0  0  0  0  2  0  0  0  0  0  0
  192.9160  174.3040  136.8990 O   0  0  0  0  0  0  0  0  0  0  0  0
  193.7210  175.9140  135.3700 N   0  0  0  0  0  0  0  0  0  0  0  0
  194.2400  174.7510  134.6610 C   0  0  0  0  0  1  0  0  0  0  0  0
  192.4360  176.1400  134.8480 N   0  0  0  0  0  1  0  0  0  0  0  0
  187.3450  177.4890  141.7400 O   0  0  0  0  0  0  0  0  0  0  0  0
  186.1390  178.3520  143.6210 C   0  0  0  0  0  1  0  0  0  0  0  0
  186.4930  178.5220  142.1530 C   0  0  2  0  0  3  0  0  0  0  0  0
  185.2340  178.5830  141.2830 C   0  0  0  0  0  2  0  0  0  0  0  0
  185.5660  178.6680  139.7980 C   0  0  0  0  0  1  0  0  0  0  0  0
  186.4540  174.2630  136.8960 C   0  0  0  0  0  2  0  0  0  0  0  0
  185.5580  173.7390  135.9580 O   0  0  0  0  0  0  0  0  0  0  0  0
  185.0270  172.6120  136.5810 C   0  0  0  0  0  2  0  0  0  0  0  0
  183.6940  172.9630  137.2190 C   0  0  0  0  0  2  0  0  0  0  0  0
  182.8350  173.7320  136.2320 C   0  0  0  0  0  2  0  0  0  0  0  0
  181.9810  174.5990  136.9320 O   0  0  0  0  0  0  0  0  0  0  0  0
  183.5780  176.1970  137.3670 F   0  0  0  0  0  0  0  0  0  0  0  0
  182.3910  175.9280  136.6900 C   0  0  0  0  0  0  0  0  0  0  0  0
  182.6050  176.1180  135.3310 F   0  0  0  0  0  0  0  0  0  0  0  0
  181.6850  177.0600  139.7470 C   0  0  0  0  0  0  0  0  0  0  0  0
  181.7260  178.7940  135.7900 F   0  0  0  0  0  0  0  0  0  0  0  0
  181.3000  176.9000  137.2070 C   0  0  1  0  0  0  0  0  0  0  0  0
  181.7800  181.3830  138.4740 C   0  0  0  0  0  2  0  0  0  0  0  0
  183.0530  178.5380  137.5710 F   0  0  0  0  0  0  0  0  0  0  0  0
  181.7420  178.3940  137.1170 C   0  0  0  0  0  0  0  0  0  0  0  0
  182.6930  176.4860  140.1290 O   0  0  0  0  0  0  0  0  0  0  0  0
  180.6090  181.0770  139.2050 O   0  0  0  0  0  0  0  0  0  0  0  0
  181.4150  179.9960  138.8170 C   0  0  1  0  0  0  0  0  0  0  0  0
  181.2630  178.3490  140.3760 C   0  0  0  0  0  2  0  0  0  0  0  0
  180.8020  179.2010  137.8190 O   0  0  0  0  0  0  0  0  0  0  0  0
  180.1740  176.7410  136.3910 O   0  0  0  0  0  1  0  0  0  0  0  0
  182.0750  179.3930  139.9080 O   0  0  0  0  0  0  0  0  0  0  0  0
  180.8610  176.4900  138.6330 C   0  0  0  0  0  2  0  0  0  0  0  0
  1  5  1  0  0  0  0
  2 33  1  0  0  0  0
  2  3  1  0  0  0  0
  4  6  1  0  0  0  0
  4  1  2  0  0  0  0
  5  3  2  0  0  0  0
  5  7  1  0  0  0  0
  6  2  2  0  0  0  0
  7 14  1  0  0  0  0
  8  9  1  0  0  0  0
 10 13  1  0  0  0  0
 10 11  2  0  0  0  0
 11 12  1  0  0  0  0
 12  9  2  0  0  0  0
 13  8  2  0  0  0  0
 14 18  2  0  0  0  0
 15 18  1  0  0  0  0
 15 16  2  0  0  0  0
 16 10  1  0  0  0  0
 17 28  1  6  0  0  0
 17 13  1  0  0  0  0
 18 17  1  0  0  0  0
 19 15  1  0  0  0  0
 20 22  1  0  0  0  0
 21 25  1  6  0  0  0
 21 24  1  0  0  0  0
 21 23  1  0  0  0  0
 22 19  1  6  0  0  0
 23 22  1  0  0  0  0
 24 20  1  0  0  0  0
 26 25  1  0  0  0  0
 27 25  1  0  0  0  0
 28 30  1  0  0  0  0
 30 29  1  1  0  0  0
 31 30  1  0  0  0  0
 32 31  1  0  0  0  0
 34 35  1  0  0  0  0
 34 33  1  0  0  0  0
 35 36  1  0  0  0  0
 37 38  1  0  0  0  0
 37 36  1  0  0  0  0
 40 38  1  0  0  0  0
 40 44  1  0  0  0  0
 40 39  1  0  0  0  0
 41 40  1  0  0  0  0
 42 48  2  0  0  0  0
 42 51  1  0  0  0  0
 43 47  1  0  0  0  0
 44 53  1  6  0  0  0
 44 55  1  0  0  0  0
 45 49  1  0  0  0  0
 47 44  1  0  0  0  0
 47 46  1  0  0  0  0
 47 52  1  0  0  0  0
 50 45  1  6  0  0  0
 50 49  1  0  0  0  0
 50 54  1  0  0  0  0
 52 50  1  0  0  0  0
 54 51  1  0  0  0  0
 55 42  1  0  0  0  0
M  END
>  <MODEL>
3

>  <REMARK>
 VINA RESULT:      -7.3      2.422      6.745
  Name = 
  15 active torsions:
  status: ('A' for Active; 'I' for Inactive)
    1  A    between atoms: C_2  and  C_28
    2  A    between atoms: C_2  and  C_44
    3  A    between atoms: C_4  and  C_40
    4  A    between atoms: C_6  and  C_20
    5  A    between atoms: C_8  and  O_22
    6  A    between atoms: C_8  and  C_35
    7  A    between atoms: N_10  and  C_32
    8  A    between atoms: O_19  and  C_40
    9  A    between atoms: O_19  and  C_45
   10  A    between atoms: C_20  and  O_22
   11  A    between atoms: C_27  and  C_54
   12  A    between atoms: C_34  and  N_52
   13  A    between atoms: C_35  and  C_43
   14  A    between atoms: C_43  and  O_51
   15  A    between atoms: O_51  and  C_54
                            x       y       z     vdW  Elec       q    Type
                         _______ _______ _______ _____ _____    ______ ____

>  <TORSDO>
F 15

$$$$
=
 OpenBabel10272401263D

 55 60  0  0  1  0  0  0  0  0999 V2000
  187.4240  178.3270  135.8910 C   0  0  0  0  0  3  0  0  0  0  0  0
  186.6230  175.7560  136.6610 C   0  0  0  0  0  0  0  0  0  0  0  0
  187.6240  176.4220  137.3770 C   0  0  0  0  0  3  0  0  0  0  0  0
  186.4230  177.6630  135.1790 C   0  0  0  0  0  3  0  0  0  0  0  0
  188.0230  177.7120  136.9940 C   0  0  0  0  0  0  0  0  0  0  0  0
  186.0170  176.3810  135.5680 C   0  0  0  0  0  3  0  0  0  0  0  0
  189.0790  178.4440  137.7510 C   0  0  0  0  0  2  0  0  0  0  0  0
  189.3010  178.0700  143.9980 C   0  0  0  0  0  3  0  0  0  0  0  0
  190.0950  177.5980  145.0490 C   0  0  0  0  0  3  0  0  0  0  0  0
  190.6030  176.7590  142.4260 C   0  0  0  0  0  0  0  0  0  0  0  0
  191.3910  176.2840  143.4810 C   0  0  0  0  0  3  0  0  0  0  0  0
  191.1380  176.7020  144.7910 C   0  0  0  0  0  3  0  0  0  0  0  0
  189.5470  177.6520  142.6830 C   0  0  0  0  0  0  0  0  0  0  0  0
  188.7040  178.5640  139.1930 C   0  0  0  0  0  3  0  0  0  0  0  0
  190.2840  176.8150  140.0390 C   0  0  0  0  0  0  0  0  0  0  0  0
  190.9010  176.3510  141.0870 N   0  0  0  0  0  0  0  0  0  0  0  0
  188.6530  178.1280  141.5710 C   0  0  1  0  0  3  0  0  0  0  0  0
  189.2080  177.8400  140.2000 C   0  0  0  0  0  0  0  0  0  0  0  0
  190.6780  176.3640  138.7380 N   0  0  0  0  0  2  0  0  0  0  0  0
  191.8070  174.6050  137.4550 C   0  0  0  0  0  2  0  0  0  0  0  0
  193.7330  175.6870  136.9520 C   0  0  1  0  0  3  0  0  0  0  0  0
  191.9510  175.7030  138.4770 C   0  0  1  0  0  3  0  0  0  0  0  0
  192.8820  176.6340  137.7860 C   0  0  0  0  0  2  0  0  0  0  0  0
  193.0330  174.4710  136.7790 O   0  0  0  0  0  0  0  0  0  0  0  0
  194.0700  176.2650  135.6480 N   0  0  0  0  0  0  0  0  0  0  0  0
  195.5040  176.1210  135.4320 C   0  0  0  0  0  1  0  0  0  0  0  0
  193.4520  175.4640  134.6730 N   0  0  0  0  0  1  0  0  0  0  0  0
  187.3790  177.5560  141.6980 O   0  0  0  0  0  0  0  0  0  0  0  0
  185.8540  178.3660  143.3570 C   0  0  0  0  0  1  0  0  0  0  0  0
  186.5270  178.6210  142.0190 C   0  0  2  0  0  3  0  0  0  0  0  0
  185.4930  178.8550  140.9150 C   0  0  0  0  0  2  0  0  0  0  0  0
  184.1450  178.2250  141.2450 C   0  0  0  0  0  1  0  0  0  0  0  0
  186.1420  174.4140  137.0970 C   0  0  0  0  0  2  0  0  0  0  0  0
  186.8290  173.4010  136.4200 O   0  0  0  0  0  0  0  0  0  0  0  0
  186.0310  172.2720  136.5870 C   0  0  0  0  0  2  0  0  0  0  0  0
  185.2380  172.0160  135.3180 C   0  0  0  0  0  2  0  0  0  0  0  0
  184.0500  171.1220  135.6220 C   0  0  0  0  0  2  0  0  0  0  0  0
  182.8900  171.6810  135.0630 O   0  0  0  0  0  0  0  0  0  0  0  0
  180.9440  171.1080  136.1490 F   0  0  0  0  0  0  0  0  0  0  0  0
  182.0010  172.0150  136.1080 C   0  0  0  0  0  0  0  0  0  0  0  0
  182.6660  171.9740  137.3260 F   0  0  0  0  0  0  0  0  0  0  0  0
  180.0800  174.0040  137.9730 C   0  0  0  0  0  0  0  0  0  0  0  0
  183.4500  174.6180  135.3390 F   0  0  0  0  0  0  0  0  0  0  0  0
  181.4240  173.4300  135.8530 C   0  0  1  0  0  0  0  0  0  0  0  0
  182.8860  177.5130  137.6210 C   0  0  0  0  0  2  0  0  0  0  0  0
  182.9940  174.2720  137.5000 F   0  0  0  0  0  0  0  0  0  0  0  0
  182.4180  174.5620  136.2640 C   0  0  0  0  0  0  0  0  0  0  0  0
  180.1970  173.1820  138.8670 O   0  0  0  0  0  0  0  0  0  0  0  0
  181.5540  177.8750  137.3180 O   0  0  0  0  0  0  0  0  0  0  0  0
  181.8230  176.5050  137.4580 C   0  0  1  0  0  0  0  0  0  0  0  0
  179.9830  175.4620  138.2910 C   0  0  0  0  0  2  0  0  0  0  0  0
  181.7410  175.8140  136.2260 O   0  0  0  0  0  0  0  0  0  0  0  0
  181.1910  173.5500  134.4790 O   0  0  0  0  0  1  0  0  0  0  0  0
  181.2510  175.9590  138.6270 O   0  0  0  0  0  0  0  0  0  0  0  0
  180.0440  173.5690  136.5390 C   0  0  0  0  0  2  0  0  0  0  0  0
  1  5  1  0  0  0  0
  2 33  1  0  0  0  0
  2  3  1  0  0  0  0
  4  6  1  0  0  0  0
  4  1  2  0  0  0  0
  5  3  2  0  0  0  0
  5  7  1  0  0  0  0
  6  2  2  0  0  0  0
  7 14  1  0  0  0  0
  8  9  1  0  0  0  0
 10 13  1  0  0  0  0
 10 11  2  0  0  0  0
 11 12  1  0  0  0  0
 12  9  2  0  0  0  0
 13  8  2  0  0  0  0
 14 18  2  0  0  0  0
 15 18  1  0  0  0  0
 15 16  2  0  0  0  0
 16 10  1  0  0  0  0
 17 28  1  6  0  0  0
 17 13  1  0  0  0  0
 18 17  1  0  0  0  0
 19 15  1  0  0  0  0
 20 22  1  0  0  0  0
 21 25  1  6  0  0  0
 21 23  1  0  0  0  0
 22 19  1  6  0  0  0
 23 22  1  0  0  0  0
 24 21  1  0  0  0  0
 24 20  1  0  0  0  0
 26 25  1  0  0  0  0
 27 25  1  0  0  0  0
 28 30  1  0  0  0  0
 30 29  1  1  0  0  0
 31 32  1  0  0  0  0
 31 30  1  0  0  0  0
 34 35  1  0  0  0  0
 34 33  1  0  0  0  0
 36 37  1  0  0  0  0
 36 35  1  0  0  0  0
 38 37  1  0  0  0  0
 38 40  1  0  0  0  0
 40 39  1  0  0  0  0
 40 41  1  0  0  0  0
 42 51  1  0  0  0  0
 42 48  2  0  0  0  0
 43 47  1  0  0  0  0
 44 53  1  6  0  0  0
 44 40  1  0  0  0  0
 44 47  1  0  0  0  0
 44 55  1  0  0  0  0
 47 46  1  0  0  0  0
 49 50  1  0  0  0  0
 49 45  1  0  0  0  0
 50 45  1  1  0  0  0
 50 54  1  0  0  0  0
 51 54  1  0  0  0  0
 52 47  1  0  0  0  0
 52 50  1  0  0  0  0
 55 42  1  0  0  0  0
M  END
>  <MODEL>
4

>  <REMARK>
 VINA RESULT:      -7.1      2.284      6.330
  Name = 
  15 active torsions:
  status: ('A' for Active; 'I' for Inactive)
    1  A    between atoms: C_2  and  C_28
    2  A    between atoms: C_2  and  C_44
    3  A    between atoms: C_4  and  C_40
    4  A    between atoms: C_6  and  C_20
    5  A    between atoms: C_8  and  O_22
    6  A    between atoms: C_8  and  C_35
    7  A    between atoms: N_10  and  C_32
    8  A    between atoms: O_19  and  C_40
    9  A    between atoms: O_19  and  C_45
   10  A    between atoms: C_20  and  O_22
   11  A    between atoms: C_27  and  C_54
   12  A    between atoms: C_34  and  N_52
   13  A    between atoms: C_35  and  C_43
   14  A    between atoms: C_43  and  O_51
   15  A    between atoms: O_51  and  C_54
                            x       y       z     vdW  Elec       q    Type
                         _______ _______ _______ _____ _____    ______ ____

>  <TORSDO>
F 15

$$$$
=
 OpenBabel10272401263D

 55 60  0  0  1  0  0  0  0  0999 V2000
  181.6440  178.0030  140.4230 C   0  0  0  0  0  3  0  0  0  0  0  0
  183.2460  178.8130  142.5730 C   0  0  0  0  0  0  0  0  0  0  0  0
  183.8380  178.4130  141.3700 C   0  0  0  0  0  3  0  0  0  0  0  0
  181.0540  178.4050  141.6230 C   0  0  0  0  0  3  0  0  0  0  0  0
  183.0360  178.0100  140.2900 C   0  0  0  0  0  0  0  0  0  0  0  0
  181.8540  178.8170  142.6950 C   0  0  0  0  0  3  0  0  0  0  0  0
  183.6460  177.5930  138.9960 C   0  0  0  0  0  2  0  0  0  0  0  0
  183.6260  171.8100  136.5950 C   0  0  0  0  0  3  0  0  0  0  0  0
  184.3920  170.9340  135.8180 C   0  0  0  0  0  3  0  0  0  0  0  0
  185.0320  173.6590  135.8960 C   0  0  0  0  0  0  0  0  0  0  0  0
  185.7920  172.7790  135.1150 C   0  0  0  0  0  3  0  0  0  0  0  0
  185.4730  171.4190  135.0750 C   0  0  0  0  0  3  0  0  0  0  0  0
  183.9390  173.1750  136.6370 C   0  0  0  0  0  0  0  0  0  0  0  0
  183.2100  176.2110  138.6290 C   0  0  0  0  0  3  0  0  0  0  0  0
  184.8090  175.9080  136.7270 C   0  0  0  0  0  0  0  0  0  0  0  0
  185.3980  175.0410  135.9560 N   0  0  0  0  0  0  0  0  0  0  0  0
  183.0750  174.1120  137.4360 C   0  0  1  0  0  3  0  0  0  0  0  0
  183.6950  175.4730  137.6230 C   0  0  0  0  0  0  0  0  0  0  0  0
  185.2700  177.2640  136.7350 N   0  0  0  0  0  2  0  0  0  0  0  0
  187.3700  178.4240  137.2480 C   0  0  0  0  0  2  0  0  0  0  0  0
  188.8290  177.0220  136.2280 C   0  0  1  0  0  3  0  0  0  0  0  0
  186.5740  177.6650  136.2180 C   0  0  1  0  0  3  0  0  0  0  0  0
  187.4300  176.4690  136.0000 C   0  0  0  0  0  2  0  0  0  0  0  0
  188.7360  178.2080  136.9920 O   0  0  0  0  0  0  0  0  0  0  0  0
  189.6930  176.0510  136.9060 N   0  0  0  0  0  0  0  0  0  0  0  0
  189.1980  174.7100  136.6210 C   0  0  0  0  0  1  0  0  0  0  0  0
  190.9560  176.1320  136.2960 N   0  0  0  0  0  1  0  0  0  0  0  0
  181.8170  174.2430  136.8320 O   0  0  0  0  0  0  0  0  0  0  0  0
  180.2120  173.4470  138.4210 C   0  0  0  0  0  1  0  0  0  0  0  0
  180.9550  174.6470  137.8610 C   0  0  2  0  0  3  0  0  0  0  0  0
  179.9820  175.7250  137.3760 C   0  0  0  0  0  2  0  0  0  0  0  0
  180.3710  176.2790  136.0100 C   0  0  0  0  0  1  0  0  0  0  0  0
  184.0830  179.3070  143.7040 C   0  0  0  0  0  2  0  0  0  0  0  0
  184.7890  178.2520  144.2910 O   0  0  0  0  0  0  0  0  0  0  0  0
  185.6330  178.8710  145.2100 C   0  0  0  0  0  2  0  0  0  0  0  0
  186.1090  177.8510  146.2310 C   0  0  0  0  0  2  0  0  0  0  0  0
  187.6230  177.7530  146.1940 C   0  0  0  0  0  2  0  0  0  0  0  0
  188.0830  178.1080  144.9170 O   0  0  0  0  0  0  0  0  0  0  0  0
  190.1110  179.1490  144.6040 F   0  0  0  0  0  0  0  0  0  0  0  0
  189.4840  177.9360  144.8780 C   0  0  0  0  0  0  0  0  0  0  0  0
  189.9380  177.4710  146.1050 F   0  0  0  0  0  0  0  0  0  0  0  0
  188.3690  177.6040  141.7520 C   0  0  0  0  0  0  0  0  0  0  0  0
  192.2250  177.2400  143.6660 F   0  0  0  0  0  0  0  0  0  0  0  0
  189.8430  176.9320  143.7530 C   0  0  1  0  0  0  0  0  0  0  0  0
  192.5090  177.6550  139.9710 C   0  0  0  0  0  2  0  0  0  0  0  0
  190.9660  178.7520  142.6060 F   0  0  0  0  0  0  0  0  0  0  0  0
  191.0730  177.3960  142.9110 C   0  0  0  0  0  0  0  0  0  0  0  0
  187.7390  178.6350  141.9290 O   0  0  0  0  0  0  0  0  0  0  0  0
  191.7450  176.5670  139.4910 O   0  0  0  0  0  0  0  0  0  0  0  0
  191.2050  177.2990  140.5590 C   0  0  1  0  0  0  0  0  0  0  0  0
  188.9370  177.2850  140.4060 C   0  0  0  0  0  2  0  0  0  0  0  0
  191.1960  176.5590  141.7660 O   0  0  0  0  0  0  0  0  0  0  0  0
  190.1800  175.7190  144.3620 O   0  0  0  0  0  1  0  0  0  0  0  0
  190.0810  178.0630  140.1780 O   0  0  0  0  0  0  0  0  0  0  0  0
  188.5950  176.6470  142.8820 C   0  0  0  0  0  2  0  0  0  0  0  0
  1  4  1  0  0  0  0
  2  6  1  0  0  0  0
  2 33  1  0  0  0  0
  3  2  2  0  0  0  0
  4  6  2  0  0  0  0
  5  1  2  0  0  0  0
  5  3  1  0  0  0  0
  7  5  1  0  0  0  0
  8 13  1  0  0  0  0
  9  8  2  0  0  0  0
 10 16  1  0  0  0  0
 10 13  2  0  0  0  0
 11 10  1  0  0  0  0
 12 11  2  0  0  0  0
 12  9  1  0  0  0  0
 13 17  1  0  0  0  0
 14  7  1  0  0  0  0
 15 19  1  0  0  0  0
 15 18  1  0  0  0  0
 16 15  2  0  0  0  0
 17 28  1  6  0  0  0
 17 18  1  0  0  0  0
 18 14  2  0  0  0  0
 21 25  1  1  0  0  0
 21 24  1  0  0  0  0
 22 19  1  1  0  0  0
 22 20  1  0  0  0  0
 23 22  1  0  0  0  0
 23 21  1  0  0  0  0
 24 20  1  0  0  0  0
 26 25  1  0  0  0  0
 27 25  1  0  0  0  0
 28 30  1  0  0  0  0
 30 29  1  6  0  0  0
 31 30  1  0  0  0  0
 32 31  1  0  0  0  0
 33 34  1  0  0  0  0
 34 35  1  0  0  0  0
 35 36  1  0  0  0  0
 37 36  1  0  0  0  0
 38 37  1  0  0  0  0
 39 40  1  0  0  0  0
 40 38  1  0  0  0  0
 40 41  1  0  0  0  0
 42 48  2  0  0  0  0
 42 55  1  0  0  0  0
 44 53  1  1  0  0  0
 44 40  1  0  0  0  0
 46 47  1  0  0  0  0
 47 43  1  0  0  0  0
 47 44  1  0  0  0  0
 49 45  1  0  0  0  0
 49 50  1  0  0  0  0
 50 45  1  1  0  0  0
 50 52  1  0  0  0  0
 51 42  1  0  0  0  0
 52 47  1  0  0  0  0
 54 51  1  0  0  0  0
 54 50  1  0  0  0  0
 55 44  1  0  0  0  0
M  END
>  <MODEL>
5

>  <REMARK>
 VINA RESULT:      -6.8      4.254      8.194
  Name = 
  15 active torsions:
  status: ('A' for Active; 'I' for Inactive)
    1  A    between atoms: C_2  and  C_28
    2  A    between atoms: C_2  and  C_44
    3  A    between atoms: C_4  and  C_40
    4  A    between atoms: C_6  and  C_20
    5  A    between atoms: C_8  and  O_22
    6  A    between atoms: C_8  and  C_35
    7  A    between atoms: N_10  and  C_32
    8  A    between atoms: O_19  and  C_40
    9  A    between atoms: O_19  and  C_45
   10  A    between atoms: C_20  and  O_22
   11  A    between atoms: C_27  and  C_54
   12  A    between atoms: C_34  and  N_52
   13  A    between atoms: C_35  and  C_43
   14  A    between atoms: C_43  and  O_51
   15  A    between atoms: O_51  and  C_54
                            x       y       z     vdW  Elec       q    Type
                         _______ _______ _______ _____ _____    ______ ____

>  <TORSDO>
F 15

$$$$
=
 OpenBabel10272401263D

 55 60  0  0  1  0  0  0  0  0999 V2000
  185.8100  178.1790  143.8060 C   0  0  0  0  0  3  0  0  0  0  0  0
  188.4840  177.3500  143.7290 C   0  0  0  0  0  0  0  0  0  0  0  0
  187.9050  177.9550  142.6070 C   0  0  0  0  0  3  0  0  0  0  0  0
  186.3890  177.5780  144.9260 C   0  0  0  0  0  3  0  0  0  0  0  0
  186.5660  178.3750  142.6470 C   0  0  0  0  0  0  0  0  0  0  0  0
  187.7280  177.1710  144.8890 C   0  0  0  0  0  3  0  0  0  0  0  0
  185.9340  179.0330  141.4680 C   0  0  0  0  0  2  0  0  0  0  0  0
  180.5330  176.5950  139.4440 C   0  0  0  0  0  3  0  0  0  0  0  0
  179.9820  175.8470  138.3970 C   0  0  0  0  0  3  0  0  0  0  0  0
  182.5340  176.9670  138.1240 C   0  0  0  0  0  0  0  0  0  0  0  0
  181.9760  176.2220  137.0770 C   0  0  0  0  0  3  0  0  0  0  0  0
  180.7020  175.6640  137.2120 C   0  0  0  0  0  3  0  0  0  0  0  0
  181.8080  177.1610  139.3120 C   0  0  0  0  0  0  0  0  0  0  0  0
  184.4860  178.6730  141.3780 C   0  0  0  0  0  3  0  0  0  0  0  0
  184.4870  178.1180  138.9360 C   0  0  0  0  0  0  0  0  0  0  0  0
  183.8550  177.4980  137.9820 N   0  0  0  0  0  0  0  0  0  0  0  0
  182.3650  178.0050  140.4260 C   0  0  1  0  0  3  0  0  0  0  0  0
  183.8360  178.2940  140.2700 C   0  0  0  0  0  0  0  0  0  0  0  0
  185.8200  178.5870  138.7030 N   0  0  0  0  0  2  0  0  0  0  0  0
  188.0490  177.7840  138.0680 C   0  0  0  0  0  2  0  0  0  0  0  0
  187.4560  176.1260  136.6420 C   0  0  1  0  0  3  0  0  0  0  0  0
  186.6520  178.1070  137.6050 C   0  0  1  0  0  3  0  0  0  0  0  0
  186.1750  176.7770  137.1420 C   0  0  0  0  0  2  0  0  0  0  0  0
  188.5640  176.7740  137.2360 O   0  0  0  0  0  0  0  0  0  0  0  0
  187.4890  174.6920  136.9410 N   0  0  0  0  0  0  0  0  0  0  0  0
  186.6540  173.9950  135.9710 C   0  0  0  0  0  1  0  0  0  0  0  0
  188.8020  174.2550  136.7020 N   0  0  0  0  0  1  0  0  0  0  0  0
  181.6530  179.2080  140.5220 O   0  0  0  0  0  0  0  0  0  0  0  0
  179.9940  180.2770  141.8800 C   0  0  0  0  0  1  0  0  0  0  0  0
  180.6530  178.9690  141.4750 C   0  0  2  0  0  3  0  0  0  0  0  0
  181.2130  178.2300  142.6920 C   0  0  0  0  0  2  0  0  0  0  0  0
  181.7190  179.1880  143.7640 C   0  0  0  0  0  1  0  0  0  0  0  0
  189.9230  176.9610  143.7230 C   0  0  0  0  0  2  0  0  0  0  0  0
  190.2520  176.3080  142.5310 O   0  0  0  0  0  0  0  0  0  0  0  0
  191.2230  177.1190  141.9490 C   0  0  0  0  0  2  0  0  0  0  0  0
  190.9690  177.2260  140.4560 C   0  0  0  0  0  2  0  0  0  0  0  0
  192.2760  177.0780  139.6980 C   0  0  0  0  0  2  0  0  0  0  0  0
  192.0190  176.5580  138.4200 O   0  0  0  0  0  0  0  0  0  0  0  0
  193.8680  177.4560  137.3860 F   0  0  0  0  0  0  0  0  0  0  0  0
  193.2510  176.2750  137.7920 C   0  0  0  0  0  0  0  0  0  0  0  0
  194.0940  175.6180  138.6780 F   0  0  0  0  0  0  0  0  0  0  0  0
  195.3240  174.9430  135.5430 C   0  0  0  0  0  0  0  0  0  0  0  0
  191.7270  173.6150  137.5330 F   0  0  0  0  0  0  0  0  0  0  0  0
  192.9940  175.3990  136.5390 C   0  0  1  0  0  0  0  0  0  0  0  0
  193.6530  170.7880  136.0470 C   0  0  0  0  0  2  0  0  0  0  0  0
  193.9490  173.5300  137.7570 F   0  0  0  0  0  0  0  0  0  0  0  0
  192.9210  173.8770  136.8810 C   0  0  0  0  0  0  0  0  0  0  0  0
  196.2440  175.3490  136.2370 O   0  0  0  0  0  0  0  0  0  0  0  0
  193.7260  171.1620  134.6850 O   0  0  0  0  0  0  0  0  0  0  0  0
  193.9630  172.1690  135.6340 C   0  0  1  0  0  0  0  0  0  0  0  0
  195.4550  173.6610  134.7860 C   0  0  0  0  0  2  0  0  0  0  0  0
  192.9220  173.1270  135.6710 O   0  0  0  0  0  0  0  0  0  0  0  0
  191.7550  175.7740  136.0090 O   0  0  0  0  0  1  0  0  0  0  0  0
  195.3140  172.5760  135.6650 O   0  0  0  0  0  0  0  0  0  0  0  0
  194.0450  175.7170  135.4480 C   0  0  0  0  0  2  0  0  0  0  0  0
  1  4  1  0  0  0  0
  2  6  1  0  0  0  0
  3  5  1  0  0  0  0
  3  2  2  0  0  0  0
  5  1  2  0  0  0  0
  6  4  2  0  0  0  0
  7  5  1  0  0  0  0
  9  8  2  0  0  0  0
 10 13  2  0  0  0  0
 11 12  2  0  0  0  0
 11 10  1  0  0  0  0
 12  9  1  0  0  0  0
 13  8  1  0  0  0  0
 13 17  1  0  0  0  0
 14  7  1  0  0  0  0
 15 18  1  0  0  0  0
 16 10  1  0  0  0  0
 16 15  2  0  0  0  0
 17 28  1  6  0  0  0
 18 17  1  0  0  0  0
 18 14  2  0  0  0  0
 19 15  1  0  0  0  0
 21 25  1  1  0  0  0
 21 23  1  0  0  0  0
 21 24  1  0  0  0  0
 22 20  1  0  0  0  0
 22 19  1  1  0  0  0
 23 22  1  0  0  0  0
 24 20  1  0  0  0  0
 26 25  1  0  0  0  0
 27 25  1  0  0  0  0
 28 30  1  0  0  0  0
 30 29  1  1  0  0  0
 30 31  1  0  0  0  0
 31 32  1  0  0  0  0
 33  2  1  0  0  0  0
 34 33  1  0  0  0  0
 35 34  1  0  0  0  0
 36 35  1  0  0  0  0
 37 36  1  0  0  0  0
 38 37  1  0  0  0  0
 39 40  1  0  0  0  0
 40 38  1  0  0  0  0
 40 41  1  0  0  0  0
 42 48  2  0  0  0  0
 44 53  1  6  0  0  0
 44 47  1  0  0  0  0
 44 40  1  0  0  0  0
 47 43  1  0  0  0  0
 47 46  1  0  0  0  0
 49 50  1  0  0  0  0
 49 45  1  0  0  0  0
 50 54  1  0  0  0  0
 50 52  1  0  0  0  0
 50 45  1  1  0  0  0
 51 42  1  0  0  0  0
 51 54  1  0  0  0  0
 52 47  1  0  0  0  0
 55 42  1  0  0  0  0
 55 44  1  0  0  0  0
M  END
>  <MODEL>
6

>  <REMARK>
 VINA RESULT:      -6.7      4.096      8.611
  Name = 
  15 active torsions:
  status: ('A' for Active; 'I' for Inactive)
    1  A    between atoms: C_2  and  C_28
    2  A    between atoms: C_2  and  C_44
    3  A    between atoms: C_4  and  C_40
    4  A    between atoms: C_6  and  C_20
    5  A    between atoms: C_8  and  O_22
    6  A    between atoms: C_8  and  C_35
    7  A    between atoms: N_10  and  C_32
    8  A    between atoms: O_19  and  C_40
    9  A    between atoms: O_19  and  C_45
   10  A    between atoms: C_20  and  O_22
   11  A    between atoms: C_27  and  C_54
   12  A    between atoms: C_34  and  N_52
   13  A    between atoms: C_35  and  C_43
   14  A    between atoms: C_43  and  O_51
   15  A    between atoms: O_51  and  C_54
                            x       y       z     vdW  Elec       q    Type
                         _______ _______ _______ _____ _____    ______ ____

>  <TORSDO>
F 15

$$$$
=
 OpenBabel10272401263D

 55 60  0  0  1  0  0  0  0  0999 V2000
  187.8410  178.0530  139.3100 C   0  0  0  0  0  3  0  0  0  0  0  0
  185.6780  178.8010  140.9230 C   0  0  0  0  0  0  0  0  0  0  0  0
  185.4640  178.4360  139.5880 C   0  0  0  0  0  3  0  0  0  0  0  0
  188.0530  178.4140  140.6420 C   0  0  0  0  0  3  0  0  0  0  0  0
  186.5470  178.0570  138.7800 C   0  0  0  0  0  0  0  0  0  0  0  0
  186.9710  178.7800  141.4500 C   0  0  0  0  0  3  0  0  0  0  0  0
  186.3400  177.6520  137.3610 C   0  0  0  0  0  2  0  0  0  0  0  0
  182.7670  172.5630  136.6240 C   0  0  0  0  0  3  0  0  0  0  0  0
  182.8410  171.1870  136.3820 C   0  0  0  0  0  3  0  0  0  0  0  0
  185.0910  172.8030  135.9710 C   0  0  0  0  0  0  0  0  0  0  0  0
  185.1580  171.4260  135.7240 C   0  0  0  0  0  3  0  0  0  0  0  0
  184.0360  170.6190  135.9290 C   0  0  0  0  0  3  0  0  0  0  0  0
  183.8880  173.3780  136.4180 C   0  0  0  0  0  0  0  0  0  0  0  0
  185.1430  176.7660  137.2350 C   0  0  0  0  0  3  0  0  0  0  0  0
  186.3150  174.8730  136.0890 C   0  0  0  0  0  0  0  0  0  0  0  0
  186.2610  173.6070  135.7940 N   0  0  0  0  0  0  0  0  0  0  0  0
  183.7780  174.8630  136.6330 C   0  0  1  0  0  3  0  0  0  0  0  0
  185.1150  175.5580  136.6590 C   0  0  0  0  0  0  0  0  0  0  0  0
  187.5450  175.5830  135.9020 N   0  0  0  0  0  2  0  0  0  0  0  0
  189.9080  175.8810  135.3150 C   0  0  0  0  0  2  0  0  0  0  0  0
  190.8530  174.5430  136.8800 C   0  0  1  0  0  3  0  0  0  0  0  0
  188.8330  174.9170  135.7480 C   0  0  1  0  0  3  0  0  0  0  0  0
  189.3450  174.4750  137.0720 C   0  0  0  0  0  2  0  0  0  0  0  0
  191.1410  175.4110  135.8020 O   0  0  0  0  0  0  0  0  0  0  0  0
  191.5350  175.0010  138.0930 N   0  0  0  0  0  0  0  0  0  0  0  0
  192.6210  175.8920  137.7070 C   0  0  0  0  0  1  0  0  0  0  0  0
  190.6200  175.7960  138.8020 N   0  0  0  0  0  1  0  0  0  0  0  0
  182.9660  175.4350  135.6450 O   0  0  0  0  0  0  0  0  0  0  0  0
  180.5800  175.2770  135.7940 C   0  0  0  0  0  1  0  0  0  0  0  0
  181.8450  175.9270  136.3280 C   0  0  2  0  0  3  0  0  0  0  0  0
  181.7660  177.4540  136.2340 C   0  0  0  0  0  2  0  0  0  0  0  0
  182.2350  177.9710  134.8790 C   0  0  0  0  0  1  0  0  0  0  0  0
  184.5280  179.1400  141.8100 C   0  0  0  0  0  2  0  0  0  0  0  0
  184.8850  178.9930  143.1550 O   0  0  0  0  0  0  0  0  0  0  0  0
  183.7810  179.4700  143.8580 C   0  0  0  0  0  2  0  0  0  0  0  0
  183.6740  178.7450  145.1880 C   0  0  0  0  0  2  0  0  0  0  0  0
  184.8180  179.1580  146.0960 C   0  0  0  0  0  2  0  0  0  0  0  0
  185.6340  178.0460  146.3550 O   0  0  0  0  0  0  0  0  0  0  0  0
  187.1150  179.0360  144.8990 F   0  0  0  0  0  0  0  0  0  0  0  0
  186.9790  178.4140  146.1380 C   0  0  0  0  0  0  0  0  0  0  0  0
  187.3930  179.2980  147.1250 F   0  0  0  0  0  0  0  0  0  0  0  0
  189.7600  177.6210  144.4740 C   0  0  0  0  0  0  0  0  0  0  0  0
  188.3290  176.9770  148.4990 F   0  0  0  0  0  0  0  0  0  0  0  0
  187.8630  177.1410  146.1470 C   0  0  1  0  0  0  0  0  0  0  0  0
  192.0190  176.5180  148.2140 C   0  0  0  0  0  2  0  0  0  0  0  0
  189.5540  178.4280  147.3190 F   0  0  0  0  0  0  0  0  0  0  0  0
  188.9440  177.1740  147.2730 C   0  0  0  0  0  0  0  0  0  0  0  0
  189.7590  178.7640  144.0440 O   0  0  0  0  0  0  0  0  0  0  0  0
  192.1180  175.5110  147.2260 O   0  0  0  0  0  0  0  0  0  0  0  0
  191.1990  176.5450  146.9900 C   0  0  1  0  0  0  0  0  0  0  0  0
  191.0490  176.9170  144.7520 C   0  0  0  0  0  2  0  0  0  0  0  0
  189.8580  176.1010  147.0750 O   0  0  0  0  0  0  0  0  0  0  0  0
  187.0260  176.0480  146.3970 O   0  0  0  0  0  1  0  0  0  0  0  0
  191.6060  177.4020  145.9450 O   0  0  0  0  0  0  0  0  0  0  0  0
  188.4690  176.9080  144.7420 C   0  0  0  0  0  2  0  0  0  0  0  0
  1  4  1  0  0  0  0
  2  6  1  0  0  0  0
  2 33  1  0  0  0  0
  3  2  2  0  0  0  0
  4  6  2  0  0  0  0
  5  1  2  0  0  0  0
  5  3  1  0  0  0  0
  7  5  1  0  0  0  0
  9  8  2  0  0  0  0
 10 13  2  0  0  0  0
 11 12  2  0  0  0  0
 11 10  1  0  0  0  0
 12  9  1  0  0  0  0
 13  8  1  0  0  0  0
 13 17  1  0  0  0  0
 14  7  1  0  0  0  0
 15 18  1  0  0  0  0
 16 10  1  0  0  0  0
 16 15  2  0  0  0  0
 17 28  1  6  0  0  0
 17 18  1  0  0  0  0
 18 14  2  0  0  0  0
 19 15  1  0  0  0  0
 20 22  1  0  0  0  0
 20 24  1  0  0  0  0
 21 23  1  0  0  0  0
 21 25  1  1  0  0  0
 22 19  1  1  0  0  0
 22 23  1  0  0  0  0
 24 21  1  0  0  0  0
 25 27  1  0  0  0  0
 26 25  1  0  0  0  0
 28 30  1  0  0  0  0
 30 29  1  6  0  0  0
 31 30  1  0  0  0  0
 32 31  1  0  0  0  0
 33 34  1  0  0  0  0
 34 35  1  0  0  0  0
 35 36  1  0  0  0  0
 36 37  1  0  0  0  0
 37 38  1  0  0  0  0
 39 40  1  0  0  0  0
 40 44  1  0  0  0  0
 40 38  1  0  0  0  0
 40 41  1  0  0  0  0
 42 55  1  0  0  0  0
 42 51  1  0  0  0  0
 44 53  1  1  0  0  0
 44 47  1  0  0  0  0
 47 46  1  0  0  0  0
 47 43  1  0  0  0  0
 48 42  2  0  0  0  0
 49 45  1  0  0  0  0
 50 52  1  0  0  0  0
 50 49  1  0  0  0  0
 50 45  1  1  0  0  0
 51 54  1  0  0  0  0
 52 47  1  0  0  0  0
 54 50  1  0  0  0  0
 55 44  1  0  0  0  0
M  END
>  <MODEL>
7

>  <REMARK>
 VINA RESULT:      -6.7      3.906      8.892
  Name = 
  15 active torsions:
  status: ('A' for Active; 'I' for Inactive)
    1  A    between atoms: C_2  and  C_28
    2  A    between atoms: C_2  and  C_44
    3  A    between atoms: C_4  and  C_40
    4  A    between atoms: C_6  and  C_20
    5  A    between atoms: C_8  and  O_22
    6  A    between atoms: C_8  and  C_35
    7  A    between atoms: N_10  and  C_32
    8  A    between atoms: O_19  and  C_40
    9  A    between atoms: O_19  and  C_45
   10  A    between atoms: C_20  and  O_22
   11  A    between atoms: C_27  and  C_54
   12  A    between atoms: C_34  and  N_52
   13  A    between atoms: C_35  and  C_43
   14  A    between atoms: C_43  and  O_51
   15  A    between atoms: O_51  and  C_54
                            x       y       z     vdW  Elec       q    Type
                         _______ _______ _______ _____ _____    ______ ____

>  <TORSDO>
F 15

$$$$
=
 OpenBabel10272401263D

 55 60  0  0  1  0  0  0  0  0999 V2000
  185.4210  178.0390  138.3880 C   0  0  0  0  0  3  0  0  0  0  0  0
  187.9760  177.5710  137.3410 C   0  0  0  0  0  0  0  0  0  0  0  0
  186.8400  177.2220  136.6010 C   0  0  0  0  0  3  0  0  0  0  0  0
  186.5550  178.3900  139.1250 C   0  0  0  0  0  3  0  0  0  0  0  0
  185.5590  177.4600  137.1240 C   0  0  0  0  0  0  0  0  0  0  0  0
  187.8310  178.1620  138.5980 C   0  0  0  0  0  3  0  0  0  0  0  0
  184.3360  177.1090  136.3470 C   0  0  0  0  0  2  0  0  0  0  0  0
  182.8450  171.2360  134.7660 C   0  0  0  0  0  3  0  0  0  0  0  0
  181.8050  170.3040  134.8360 C   0  0  0  0  0  3  0  0  0  0  0  0
  181.7130  172.6220  136.4040 C   0  0  0  0  0  0  0  0  0  0  0  0
  180.6780  171.6830  136.4750 C   0  0  0  0  0  3  0  0  0  0  0  0
  180.7220  170.5250  135.6940 C   0  0  0  0  0  3  0  0  0  0  0  0
  182.8080  172.3970  135.5500 C   0  0  0  0  0  0  0  0  0  0  0  0
  184.4330  175.7150  135.8150 C   0  0  0  0  0  3  0  0  0  0  0  0
  182.4980  174.7880  137.1060 C   0  0  0  0  0  0  0  0  0  0  0  0
  181.6310  173.8200  137.1820 N   0  0  0  0  0  0  0  0  0  0  0  0
  183.9590  173.3650  135.5010 C   0  0  1  0  0  3  0  0  0  0  0  0
  183.6500  174.6850  136.1580 C   0  0  0  0  0  0  0  0  0  0  0  0
  182.3100  175.9600  137.9070 N   0  0  0  0  0  2  0  0  0  0  0  0
  181.0530  176.0440  140.0110 C   0  0  0  0  0  2  0  0  0  0  0  0
  179.9840  178.0220  139.7290 C   0  0  1  0  0  3  0  0  0  0  0  0
  181.0360  176.3040  138.5270 C   0  0  1  0  0  3  0  0  0  0  0  0
  180.8240  177.7760  138.4840 C   0  0  0  0  0  2  0  0  0  0  0  0
  180.1610  176.9420  140.6240 O   0  0  0  0  0  0  0  0  0  0  0  0
  180.3390  179.2840  140.3840 N   0  0  0  0  0  0  0  0  0  0  0  0
  180.6920  179.0050  141.7700 C   0  0  0  0  0  1  0  0  0  0  0  0
  181.5180  179.7440  139.7730 N   0  0  0  0  0  1  0  0  0  0  0  0
  185.0940  172.7950  136.0940 O   0  0  0  0  0  0  0  0  0  0  0  0
  186.7900  171.2230  135.4700 C   0  0  0  0  0  1  0  0  0  0  0  0
  185.8900  172.3620  135.0240 C   0  0  2  0  0  3  0  0  0  0  0  0
  186.7060  173.5170  134.4380 C   0  0  0  0  0  2  0  0  0  0  0  0
  187.8470  173.9390  135.3580 C   0  0  0  0  0  1  0  0  0  0  0  0
  189.3400  177.3860  136.7700 C   0  0  0  0  0  2  0  0  0  0  0  0
  190.3140  177.5370  137.7620 O   0  0  0  0  0  0  0  0  0  0  0  0
  190.6080  176.2340  138.1590 C   0  0  0  0  0  2  0  0  0  0  0  0
  191.5520  176.2650  139.3480 C   0  0  0  0  0  2  0  0  0  0  0  0
  191.3760  177.5630  140.1140 C   0  0  0  0  0  2  0  0  0  0  0  0
  190.3670  177.4050  141.0760 O   0  0  0  0  0  0  0  0  0  0  0  0
  190.6690  175.7780  142.6740 F   0  0  0  0  0  0  0  0  0  0  0  0
  190.9690  177.0900  142.3130 C   0  0  0  0  0  0  0  0  0  0  0  0
  192.3480  177.2170  142.2150 F   0  0  0  0  0  0  0  0  0  0  0  0
  187.8750  177.6200  143.4420 C   0  0  0  0  0  0  0  0  0  0  0  0
  191.7830  177.3730  145.2670 F   0  0  0  0  0  0  0  0  0  0  0  0
  190.4150  178.0390  143.4060 C   0  0  1  0  0  0  0  0  0  0  0  0
  189.0300  176.9590  147.7480 C   0  0  0  0  0  2  0  0  0  0  0  0
  190.0240  176.0810  144.7860 F   0  0  0  0  0  0  0  0  0  0  0  0
  190.4680  177.4020  144.8310 C   0  0  0  0  0  0  0  0  0  0  0  0
  187.5190  176.6950  142.7290 O   0  0  0  0  0  0  0  0  0  0  0  0
  188.2970  178.1550  147.5800 O   0  0  0  0  0  0  0  0  0  0  0  0
  188.7220  177.5030  146.4130 C   0  0  1  0  0  0  0  0  0  0  0  0
  187.2070  177.8630  144.7570 C   0  0  0  0  0  2  0  0  0  0  0  0
  189.7350  178.2220  145.7350 O   0  0  0  0  0  0  0  0  0  0  0  0
  191.2230  179.1810  143.4220 O   0  0  0  0  0  1  0  0  0  0  0  0
  187.6540  176.9220  145.6970 O   0  0  0  0  0  0  0  0  0  0  0  0
  188.9960  178.5190  143.0180 C   0  0  0  0  0  2  0  0  0  0  0  0
  1  4  1  0  0  0  0
  2  6  1  0  0  0  0
  3  5  1  0  0  0  0
  3  2  2  0  0  0  0
  5  1  2  0  0  0  0
  6  4  2  0  0  0  0
  7  5  1  0  0  0  0
  8  9  2  0  0  0  0
  8 13  1  0  0  0  0
  9 12  1  0  0  0  0
 10 11  1  0  0  0  0
 10 16  1  0  0  0  0
 12 11  2  0  0  0  0
 13 10  2  0  0  0  0
 14 18  2  0  0  0  0
 14  7  1  0  0  0  0
 15 16  2  0  0  0  0
 15 19  1  0  0  0  0
 17 13  1  0  0  0  0
 17 28  1  1  0  0  0
 17 18  1  0  0  0  0
 18 15  1  0  0  0  0
 20 24  1  0  0  0  0
 21 25  1  1  0  0  0
 21 24  1  0  0  0  0
 22 19  1  1  0  0  0
 22 20  1  0  0  0  0
 23 22  1  0  0  0  0
 23 21  1  0  0  0  0
 25 26  1  0  0  0  0
 27 25  1  0  0  0  0
 30 29  1  1  0  0  0
 30 28  1  0  0  0  0
 31 30  1  0  0  0  0
 31 32  1  0  0  0  0
 33  2  1  0  0  0  0
 33 34  1  0  0  0  0
 34 35  1  0  0  0  0
 35 36  1  0  0  0  0
 36 37  1  0  0  0  0
 37 38  1  0  0  0  0
 38 40  1  0  0  0  0
 40 39  1  0  0  0  0
 40 44  1  0  0  0  0
 41 40  1  0  0  0  0
 42 51  1  0  0  0  0
 44 53  1  1  0  0  0
 44 47  1  0  0  0  0
 46 47  1  0  0  0  0
 47 43  1  0  0  0  0
 47 52  1  0  0  0  0
 48 42  2  0  0  0  0
 49 45  1  0  0  0  0
 50 49  1  0  0  0  0
 50 45  1  1  0  0  0
 51 54  1  0  0  0  0
 52 50  1  0  0  0  0
 54 50  1  0  0  0  0
 55 44  1  0  0  0  0
 55 42  1  0  0  0  0
M  END
>  <MODEL>
8

>  <REMARK>
 VINA RESULT:      -6.5      4.375     10.008
  Name = 
  15 active torsions:
  status: ('A' for Active; 'I' for Inactive)
    1  A    between atoms: C_2  and  C_28
    2  A    between atoms: C_2  and  C_44
    3  A    between atoms: C_4  and  C_40
    4  A    between atoms: C_6  and  C_20
    5  A    between atoms: C_8  and  O_22
    6  A    between atoms: C_8  and  C_35
    7  A    between atoms: N_10  and  C_32
    8  A    between atoms: O_19  and  C_40
    9  A    between atoms: O_19  and  C_45
   10  A    between atoms: C_20  and  O_22
   11  A    between atoms: C_27  and  C_54
   12  A    between atoms: C_34  and  N_52
   13  A    between atoms: C_35  and  C_43
   14  A    between atoms: C_43  and  O_51
   15  A    between atoms: O_51  and  C_54
                            x       y       z     vdW  Elec       q    Type
                         _______ _______ _______ _____ _____    ______ ____

>  <TORSDO>
F 15

$$$$
=
 OpenBabel10272401263D

 55 60  0  0  1  0  0  0  0  0999 V2000
  186.9380  177.5100  142.9810 C   0  0  0  0  0  3  0  0  0  0  0  0
  189.4640  177.1800  141.8160 C   0  0  0  0  0  0  0  0  0  0  0  0
  188.5550  178.0960  141.2720 C   0  0  0  0  0  3  0  0  0  0  0  0
  187.8470  176.5990  143.5240 C   0  0  0  0  0  3  0  0  0  0  0  0
  187.2910  178.2640  141.8580 C   0  0  0  0  0  0  0  0  0  0  0  0
  189.1110  176.4400  142.9460 C   0  0  0  0  0  3  0  0  0  0  0  0
  186.3130  179.2430  141.3030 C   0  0  0  0  0  2  0  0  0  0  0  0
  180.8450  176.3490  140.3410 C   0  0  0  0  0  3  0  0  0  0  0  0
  180.1600  175.5620  139.4080 C   0  0  0  0  0  3  0  0  0  0  0  0
  182.4990  176.9070  138.6570 C   0  0  0  0  0  0  0  0  0  0  0  0
  181.8070  176.1240  137.7250 C   0  0  0  0  0  3  0  0  0  0  0  0
  180.6390  175.4530  138.0990 C   0  0  0  0  0  3  0  0  0  0  0  0
  182.0140  177.0270  139.9720 C   0  0  0  0  0  0  0  0  0  0  0  0
  184.9130  178.7560  141.4960 C   0  0  0  0  0  3  0  0  0  0  0  0
  184.4690  178.2220  139.0900 C   0  0  0  0  0  0  0  0  0  0  0  0
  183.7130  177.5550  138.2670 N   0  0  0  0  0  0  0  0  0  0  0  0
  182.7100  177.9090  140.9720 C   0  0  1  0  0  3  0  0  0  0  0  0
  184.0880  178.3300  140.5310 C   0  0  0  0  0  0  0  0  0  0  0  0
  185.6820  178.8100  138.6060 N   0  0  0  0  0  2  0  0  0  0  0  0
  187.8000  178.2320  137.5130 C   0  0  0  0  0  2  0  0  0  0  0  0
  187.0920  176.5220  136.2060 C   0  0  1  0  0  3  0  0  0  0  0  0
  186.3130  178.4140  137.3520 C   0  0  1  0  0  3  0  0  0  0  0  0
  185.8840  177.0430  136.9710 C   0  0  0  0  0  2  0  0  0  0  0  0
  188.2290  177.2770  136.5740 O   0  0  0  0  0  0  0  0  0  0  0  0
  187.3260  175.0980  136.4650 N   0  0  0  0  0  0  0  0  0  0  0  0
  186.2730  174.6060  137.3440 C   0  0  0  0  0  1  0  0  0  0  0  0
  187.1520  174.4270  135.2430 N   0  0  0  0  0  1  0  0  0  0  0  0
  181.9310  179.0430  141.2390 O   0  0  0  0  0  0  0  0  0  0  0  0
  180.3770  179.9260  142.8340 C   0  0  0  0  0  1  0  0  0  0  0  0
  181.2340  178.7430  142.4180 C   0  0  2  0  0  3  0  0  0  0  0  0
  182.1930  178.3320  143.5380 C   0  0  0  0  0  2  0  0  0  0  0  0
  182.8830  179.5330  144.1740 C   0  0  0  0  0  1  0  0  0  0  0  0
  190.8340  177.0400  141.2450 C   0  0  0  0  0  2  0  0  0  0  0  0
  190.8670  176.0190  140.2900 O   0  0  0  0  0  0  0  0  0  0  0  0
  190.6970  176.6770  139.0740 C   0  0  0  0  0  2  0  0  0  0  0  0
  191.2120  175.8010  137.9450 C   0  0  0  0  0  2  0  0  0  0  0  0
  192.7100  175.9920  137.7860 C   0  0  0  0  0  2  0  0  0  0  0  0
  193.3380  174.7370  137.7430 O   0  0  0  0  0  0  0  0  0  0  0  0
  194.3080  174.1450  135.7420 F   0  0  0  0  0  0  0  0  0  0  0  0
  194.4920  174.8390  136.9360 C   0  0  0  0  0  0  0  0  0  0  0  0
  194.7460  176.1710  136.6390 F   0  0  0  0  0  0  0  0  0  0  0  0
  195.4540  171.6720  137.3500 C   0  0  0  0  0  0  0  0  0  0  0  0
  197.5010  175.4110  136.6480 F   0  0  0  0  0  0  0  0  0  0  0  0
  195.6950  174.2130  137.6870 C   0  0  1  0  0  0  0  0  0  0  0  0
  199.6410  172.4560  135.8770 C   0  0  0  0  0  2  0  0  0  0  0  0
  196.6540  173.6750  135.5240 F   0  0  0  0  0  0  0  0  0  0  0  0
  196.9770  174.1370  136.7990 C   0  0  0  0  0  0  0  0  0  0  0  0
  194.5570  171.3600  136.5840 O   0  0  0  0  0  0  0  0  0  0  0  0
  199.6400  171.7600  137.1070 O   0  0  0  0  0  0  0  0  0  0  0  0
  198.4090  172.2690  136.6650 C   0  0  1  0  0  0  0  0  0  0  0  0
  196.7360  170.9020  137.3710 C   0  0  0  0  0  2  0  0  0  0  0  0
  197.9580  173.3470  137.4630 O   0  0  0  0  0  0  0  0  0  0  0  0
  195.9840  175.0370  138.7800 O   0  0  0  0  0  1  0  0  0  0  0  0
  197.5170  171.2530  136.2600 O   0  0  0  0  0  0  0  0  0  0  0  0
  195.2930  172.8390  138.2760 C   0  0  0  0  0  2  0  0  0  0  0  0
  1  4  1  0  0  0  0
  2  6  1  0  0  0  0
  3  2  2  0  0  0  0
  3  5  1  0  0  0  0
  5  1  2  0  0  0  0
  6  4  2  0  0  0  0
  7 14  1  0  0  0  0
  7  5  1  0  0  0  0
  9  8  2  0  0  0  0
 10 13  2  0  0  0  0
 11 12  2  0  0  0  0
 11 10  1  0  0  0  0
 12  9  1  0  0  0  0
 13  8  1  0  0  0  0
 13 17  1  0  0  0  0
 15 18  1  0  0  0  0
 16 10  1  0  0  0  0
 16 15  2  0  0  0  0
 17 28  1  6  0  0  0
 18 17  1  0  0  0  0
 18 14  2  0  0  0  0
 19 15  1  0  0  0  0
 21 25  1  1  0  0  0
 21 24  1  0  0  0  0
 21 23  1  0  0  0  0
 22 20  1  0  0  0  0
 22 19  1  1  0  0  0
 23 22  1  0  0  0  0
 24 20  1  0  0  0  0
 25 26  1  0  0  0  0
 27 25  1  0  0  0  0
 28 30  1  0  0  0  0
 30 29  1  1  0  0  0
 30 31  1  0  0  0  0
 31 32  1  0  0  0  0
 33  2  1  0  0  0  0
 34 33  1  0  0  0  0
 35 34  1  0  0  0  0
 36 35  1  0  0  0  0
 37 36  1  0  0  0  0
 38 37  1  0  0  0  0
 39 40  1  0  0  0  0
 40 44  1  0  0  0  0
 40 38  1  0  0  0  0
 41 40  1  0  0  0  0
 42 51  1  0  0  0  0
 42 55  1  0  0  0  0
 43 47  1  0  0  0  0
 44 55  1  0  0  0  0
 44 53  1  1  0  0  0
 45 49  1  0  0  0  0
 46 47  1  0  0  0  0
 47 52  1  0  0  0  0
 47 44  1  0  0  0  0
 48 42  2  0  0  0  0
 50 45  1  6  0  0  0
 50 49  1  0  0  0  0
 50 52  1  0  0  0  0
 54 50  1  0  0  0  0
 54 51  1  0  0  0  0
M  END
>  <MODEL>
9

>  <REMARK>
 VINA RESULT:      -6.3      5.358      9.784
  Name = 
  15 active torsions:
  status: ('A' for Active; 'I' for Inactive)
    1  A    between atoms: C_2  and  C_28
    2  A    between atoms: C_2  and  C_44
    3  A    between atoms: C_4  and  C_40
    4  A    between atoms: C_6  and  C_20
    5  A    between atoms: C_8  and  O_22
    6  A    between atoms: C_8  and  C_35
    7  A    between atoms: N_10  and  C_32
    8  A    between atoms: O_19  and  C_40
    9  A    between atoms: O_19  and  C_45
   10  A    between atoms: C_20  and  O_22
   11  A    between atoms: C_27  and  C_54
   12  A    between atoms: C_34  and  N_52
   13  A    between atoms: C_35  and  C_43
   14  A    between atoms: C_43  and  O_51
   15  A    between atoms: O_51  and  C_54
                            x       y       z     vdW  Elec       q    Type
                         _______ _______ _______ _____ _____    ______ ____

>  <TORSDO>
F 15

$$$$
