=
 OpenBabel10272400453D

 25 28  0  0  1  0  0  0  0  0999 V2000
  185.4970  178.3730  144.7310 C   0  0  0  0  0  0  0  0  0  0  0  0
  185.6800  178.5320  143.3410 C   0  0  0  0  0  0  0  0  0  0  0  0
  183.1170  178.7930  144.4520 C   0  0  0  0  0  3  0  0  0  0  0  0
  183.2980  178.9640  143.0790 C   0  0  0  0  0  3  0  0  0  0  0  0
  184.7910  178.9790  141.1390 C   0  0  0  0  0  0  0  0  0  0  0  0
  183.8390  179.2540  140.3600 O   0  0  0  0  0  0  0  0  0  0  0  0
  186.9080  178.3780  142.7780 N   0  0  0  0  0  0  0  0  0  0  0  0
  184.2090  178.4950  145.2710 C   0  0  0  0  0  3  0  0  0  0  0  0
  186.0430  178.8190  140.6340 N   0  0  0  0  0  2  0  0  0  0  0  0
  187.0930  178.5150  141.4400 C   0  0  0  0  0  0  0  0  0  0  0  0
  184.5740  178.8320  142.5160 C   0  0  0  0  0  0  0  0  0  0  0  0
  186.6210  178.0450  145.6320 C   0  0  0  0  0  0  0  0  0  0  0  0
  188.7990  177.3730  147.2730 C   0  0  0  0  0  3  0  0  0  0  0  0
  186.7220  178.5800  146.9370 C   0  0  0  0  0  0  0  0  0  0  0  0
  187.8110  178.2420  147.7450 C   0  0  0  0  0  3  0  0  0  0  0  0
  188.6970  176.8320  145.9900 C   0  0  0  0  0  3  0  0  0  0  0  0
  185.6690  179.4700  147.5080 C   0  0  0  0  0  1  0  0  0  0  0  0
  187.6130  177.1650  145.1760 C   0  0  0  0  0  3  0  0  0  0  0  0
  188.7300  178.3050  140.7380 S   0  0  0  0  0  0  0  0  0  0  0  0
  190.6350  175.7040  143.1770 O   0  0  0  0  0  0  0  0  0  0  0  0
  190.5820  178.5510  142.7970 C   0  0  0  0  0  2  0  0  0  0  0  0
  191.7720  176.4750  143.4810 C   0  0  0  0  0  2  0  0  0  0  0  0
  189.5050  177.6170  142.2440 C   0  0  2  0  0  3  0  0  0  0  0  0
  191.3460  177.8730  143.9300 C   0  0  0  0  0  2  0  0  0  0  0  0
  190.0950  176.2270  141.9870 C   0  0  0  0  0  2  0  0  0  0  0  0
  1  8  1  0  0  0  0
  1 12  1  0  0  0  0
  2  1  2  0  0  0  0
  3  8  2  0  0  0  0
  4  3  1  0  0  0  0
  5 11  1  0  0  0  0
  6  5  2  0  0  0  0
  7  2  1  0  0  0  0
  9  5  1  0  0  0  0
  9 10  1  0  0  0  0
 10  7  2  0  0  0  0
 11  4  2  0  0  0  0
 11  2  1  0  0  0  0
 12 14  1  0  0  0  0
 13 15  1  0  0  0  0
 14 17  1  0  0  0  0
 14 15  2  0  0  0  0
 16 13  2  0  0  0  0
 18 12  2  0  0  0  0
 18 16  1  0  0  0  0
 19 10  1  0  0  0  0
 20 22  1  0  0  0  0
 21 24  1  0  0  0  0
 22 24  1  0  0  0  0
 23 19  1  6  0  0  0
 23 21  1  0  0  0  0
 25 23  1  0  0  0  0
 25 20  1  0  0  0  0
M  END
>  <MODEL>
1

>  <REMARK>
 VINA RESULT:      -9.4      0.000      0.000
  Name = 
  3 active torsions:
  status: ('A' for Active; 'I' for Inactive)
    1  A    between atoms: C_1  and  C_5
    2  A    between atoms: S_6  and  C_15
    3  A    between atoms: S_6  and  C_23
                            x       y       z     vdW  Elec       q    Type
                         _______ _______ _______ _____ _____    ______ ____

>  <TORSDO>
F 3

$$$$
=
 OpenBabel10272400453D

 25 28  0  0  1  0  0  0  0  0999 V2000
  187.4050  177.7480  144.7370 C   0  0  0  0  0  0  0  0  0  0  0  0
  188.3820  177.6700  143.7230 C   0  0  0  0  0  0  0  0  0  0  0  0
  189.0780  177.1090  146.3830 C   0  0  0  0  0  3  0  0  0  0  0  0
  190.0440  177.0190  145.3790 C   0  0  0  0  0  3  0  0  0  0  0  0
  190.6530  177.2360  143.0180 C   0  0  0  0  0  0  0  0  0  0  0  0
  191.8450  176.9040  143.2550 O   0  0  0  0  0  0  0  0  0  0  0  0
  188.0730  177.9690  142.4330 N   0  0  0  0  0  0  0  0  0  0  0  0
  187.7690  177.4770  146.0640 C   0  0  0  0  0  3  0  0  0  0  0  0
  190.2840  177.5410  141.7470 N   0  0  0  0  0  2  0  0  0  0  0  0
  189.0100  177.9110  141.4520 C   0  0  0  0  0  0  0  0  0  0  0  0
  189.7050  177.3000  144.0500 C   0  0  0  0  0  0  0  0  0  0  0  0
  186.0110  178.1450  144.4460 C   0  0  0  0  0  0  0  0  0  0  0  0
  183.3740  178.8650  143.8050 C   0  0  0  0  0  3  0  0  0  0  0  0
  185.1480  178.6520  145.4450 C   0  0  0  0  0  0  0  0  0  0  0  0
  183.8360  179.0050  145.1160 C   0  0  0  0  0  3  0  0  0  0  0  0
  184.2260  178.3770  142.8130 C   0  0  0  0  0  3  0  0  0  0  0  0
  185.6070  178.8700  146.8490 C   0  0  0  0  0  1  0  0  0  0  0  0
  185.5380  178.0210  143.1320 C   0  0  0  0  0  3  0  0  0  0  0  0
  188.5610  178.3120  139.7620 S   0  0  0  0  0  0  0  0  0  0  0  0
  188.9270  175.1150  137.3160 O   0  0  0  0  0  0  0  0  0  0  0  0
  190.6980  177.0100  138.5500 C   0  0  0  0  0  2  0  0  0  0  0  0
  190.1440  175.4480  136.6930 C   0  0  0  0  0  2  0  0  0  0  0  0
  189.2550  176.7980  139.0090 C   0  0  2  0  0  3  0  0  0  0  0  0
  191.1870  175.8050  137.7530 C   0  0  0  0  0  2  0  0  0  0  0  0
  188.3970  176.3090  137.8380 C   0  0  0  0  0  2  0  0  0  0  0  0
  1  8  1  0  0  0  0
  2 11  1  0  0  0  0
  2  1  2  0  0  0  0
  4  3  1  0  0  0  0
  5  6  2  0  0  0  0
  5 11  1  0  0  0  0
  7  2  1  0  0  0  0
  8  3  2  0  0  0  0
  9  5  1  0  0  0  0
 10  9  1  0  0  0  0
 10  7  2  0  0  0  0
 11  4  2  0  0  0  0
 12  1  1  0  0  0  0
 12 14  1  0  0  0  0
 13 15  1  0  0  0  0
 14 17  1  0  0  0  0
 15 14  2  0  0  0  0
 16 18  1  0  0  0  0
 16 13  2  0  0  0  0
 18 12  2  0  0  0  0
 19 10  1  0  0  0  0
 20 25  1  0  0  0  0
 21 23  1  0  0  0  0
 22 20  1  0  0  0  0
 22 24  1  0  0  0  0
 23 19  1  6  0  0  0
 24 21  1  0  0  0  0
 25 23  1  0  0  0  0
M  END
>  <MODEL>
2

>  <REMARK>
 VINA RESULT:      -9.0      2.552      4.892
  Name = 
  3 active torsions:
  status: ('A' for Active; 'I' for Inactive)
    1  A    between atoms: C_1  and  C_5
    2  A    between atoms: S_6  and  C_15
    3  A    between atoms: S_6  and  C_23
                            x       y       z     vdW  Elec       q    Type
                         _______ _______ _______ _____ _____    ______ ____

>  <TORSDO>
F 3

$$$$
=
 OpenBabel10272400453D

 25 28  0  0  1  0  0  0  0  0999 V2000
  187.7910  177.7190  145.2150 C   0  0  0  0  0  0  0  0  0  0  0  0
  187.4960  177.9330  143.8520 C   0  0  0  0  0  0  0  0  0  0  0  0
  185.4940  178.2820  145.7860 C   0  0  0  0  0  3  0  0  0  0  0  0
  185.2040  178.5070  144.4400 C   0  0  0  0  0  3  0  0  0  0  0  0
  185.9370  178.5310  142.1040 C   0  0  0  0  0  0  0  0  0  0  0  0
  184.7970  178.8940  141.7100 O   0  0  0  0  0  0  0  0  0  0  0  0
  188.4430  177.7380  142.8960 N   0  0  0  0  0  0  0  0  0  0  0  0
  186.7780  177.8860  146.1700 C   0  0  0  0  0  3  0  0  0  0  0  0
  186.9260  178.3250  141.1950 N   0  0  0  0  0  2  0  0  0  0  0  0
  188.1660  177.9270  141.5800 C   0  0  0  0  0  0  0  0  0  0  0  0
  186.1970  178.3320  143.4680 C   0  0  0  0  0  0  0  0  0  0  0  0
  189.1310  177.2880  145.6630 C   0  0  0  0  0  0  0  0  0  0  0  0
  191.7070  176.4690  146.4250 C   0  0  0  0  0  3  0  0  0  0  0  0
  189.4670  177.1750  147.0320 C   0  0  0  0  0  0  0  0  0  0  0  0
  190.7530  176.7690  147.4010 C   0  0  0  0  0  3  0  0  0  0  0  0
  191.3760  176.5670  145.0730 C   0  0  0  0  0  3  0  0  0  0  0  0
  188.4710  177.4330  148.1140 C   0  0  0  0  0  1  0  0  0  0  0  0
  190.0940  176.9720  144.6950 C   0  0  0  0  0  3  0  0  0  0  0  0
  189.4440  177.6600  140.3500 S   0  0  0  0  0  0  0  0  0  0  0  0
  188.0930  179.2550  136.8900 O   0  0  0  0  0  0  0  0  0  0  0  0
  188.1400  176.6540  138.1090 C   0  0  0  0  0  2  0  0  0  0  0  0
  188.1260  178.1020  136.0840 C   0  0  0  0  0  2  0  0  0  0  0  0
  188.3780  177.9460  138.8920 C   0  0  2  0  0  3  0  0  0  0  0  0
  187.4170  176.9510  136.7990 C   0  0  0  0  0  2  0  0  0  0  0  0
  188.9630  179.0200  137.9710 C   0  0  0  0  0  2  0  0  0  0  0  0
  1 12  1  0  0  0  0
  1  8  1  0  0  0  0
  2  1  2  0  0  0  0
  3  8  2  0  0  0  0
  4  3  1  0  0  0  0
  5 11  1  0  0  0  0
  6  5  2  0  0  0  0
  7  2  1  0  0  0  0
  9 10  1  0  0  0  0
  9  5  1  0  0  0  0
 10  7  2  0  0  0  0
 11  2  1  0  0  0  0
 11  4  2  0  0  0  0
 12 14  1  0  0  0  0
 13 15  1  0  0  0  0
 14 15  2  0  0  0  0
 14 17  1  0  0  0  0
 16 13  2  0  0  0  0
 18 16  1  0  0  0  0
 18 12  2  0  0  0  0
 19 10  1  0  0  0  0
 20 25  1  0  0  0  0
 21 23  1  0  0  0  0
 22 24  1  0  0  0  0
 22 20  1  0  0  0  0
 23 19  1  1  0  0  0
 24 21  1  0  0  0  0
 25 23  1  0  0  0  0
M  END
>  <MODEL>
3

>  <REMARK>
 VINA RESULT:      -8.9      2.530      3.882
  Name = 
  3 active torsions:
  status: ('A' for Active; 'I' for Inactive)
    1  A    between atoms: C_1  and  C_5
    2  A    between atoms: S_6  and  C_15
    3  A    between atoms: S_6  and  C_23
                            x       y       z     vdW  Elec       q    Type
                         _______ _______ _______ _____ _____    ______ ____

>  <TORSDO>
F 3

$$$$
=
 OpenBabel10272400453D

 25 28  0  0  1  0  0  0  0  0999 V2000
  187.9760  177.9530  145.1400 C   0  0  0  0  0  0  0  0  0  0  0  0
  186.7610  178.2920  144.5080 C   0  0  0  0  0  0  0  0  0  0  0  0
  186.8540  177.9970  147.2970 C   0  0  0  0  0  3  0  0  0  0  0  0
  185.6530  178.3450  146.6770 C   0  0  0  0  0  3  0  0  0  0  0  0
  184.4060  178.8220  144.6250 C   0  0  0  0  0  0  0  0  0  0  0  0
  183.3420  179.0170  145.2720 O   0  0  0  0  0  0  0  0  0  0  0  0
  186.6870  178.4070  143.1560 N   0  0  0  0  0  0  0  0  0  0  0  0
  188.0060  177.7980  146.5330 C   0  0  0  0  0  3  0  0  0  0  0  0
  184.3940  178.9290  143.2700 N   0  0  0  0  0  2  0  0  0  0  0  0
  185.5190  178.7190  142.5370 C   0  0  0  0  0  0  0  0  0  0  0  0
  185.5980  178.4910  145.2850 C   0  0  0  0  0  0  0  0  0  0  0  0
  189.2150  177.7210  144.3690 C   0  0  0  0  0  0  0  0  0  0  0  0
  191.6100  177.3530  142.9490 C   0  0  0  0  0  3  0  0  0  0  0  0
  189.3710  176.6080  143.5100 C   0  0  0  0  0  0  0  0  0  0  0  0
  190.5680  176.4330  142.8100 C   0  0  0  0  0  3  0  0  0  0  0  0
  191.4570  178.4600  143.7850 C   0  0  0  0  0  3  0  0  0  0  0  0
  188.2710  175.6240  143.2860 C   0  0  0  0  0  1  0  0  0  0  0  0
  190.2640  178.6430  144.4890 C   0  0  0  0  0  3  0  0  0  0  0  0
  185.4640  178.8630  140.7510 S   0  0  0  0  0  0  0  0  0  0  0  0
  181.7150  179.6130  139.4380 O   0  0  0  0  0  0  0  0  0  0  0  0
  183.1840  177.3210  140.3550 C   0  0  0  0  0  2  0  0  0  0  0  0
  181.3830  178.3290  138.9640 C   0  0  0  0  0  2  0  0  0  0  0  0
  183.6450  178.7580  140.6000 C   0  0  2  0  0  3  0  0  0  0  0  0
  181.6930  177.2850  140.0380 C   0  0  0  0  0  2  0  0  0  0  0  0
  183.1200  179.6750  139.4910 C   0  0  0  0  0  2  0  0  0  0  0  0
  1  8  1  0  0  0  0
  2  1  2  0  0  0  0
  2 11  1  0  0  0  0
  4  3  1  0  0  0  0
  5  6  2  0  0  0  0
  5 11  1  0  0  0  0
  7  2  1  0  0  0  0
  8  3  2  0  0  0  0
  9  5  1  0  0  0  0
 10  7  2  0  0  0  0
 10  9  1  0  0  0  0
 11  4  2  0  0  0  0
 12 18  1  0  0  0  0
 12  1  1  0  0  0  0
 13 16  1  0  0  0  0
 14 12  2  0  0  0  0
 15 13  2  0  0  0  0
 15 14  1  0  0  0  0
 16 18  2  0  0  0  0
 17 14  1  0  0  0  0
 19 10  1  0  0  0  0
 20 25  1  0  0  0  0
 21 23  1  0  0  0  0
 22 20  1  0  0  0  0
 22 24  1  0  0  0  0
 23 19  1  6  0  0  0
 24 21  1  0  0  0  0
 25 23  1  0  0  0  0
M  END
>  <MODEL>
4

>  <REMARK>
 VINA RESULT:      -8.9      2.199      5.696
  Name = 
  3 active torsions:
  status: ('A' for Active; 'I' for Inactive)
    1  A    between atoms: C_1  and  C_5
    2  A    between atoms: S_6  and  C_15
    3  A    between atoms: S_6  and  C_23
                            x       y       z     vdW  Elec       q    Type
                         _______ _______ _______ _____ _____    ______ ____

>  <TORSDO>
F 3

$$$$
=
 OpenBabel10272400453D

 25 28  0  0  1  0  0  0  0  0999 V2000
  185.7120  178.2850  144.1580 C   0  0  0  0  0  0  0  0  0  0  0  0
  185.8710  178.4610  142.7670 C   0  0  0  0  0  0  0  0  0  0  0  0
  183.3380  178.7650  143.9360 C   0  0  0  0  0  3  0  0  0  0  0  0
  183.4950  178.9530  142.5620 C   0  0  0  0  0  3  0  0  0  0  0  0
  184.9470  178.9650  140.5910 C   0  0  0  0  0  0  0  0  0  0  0  0
  183.9860  179.2750  139.8380 O   0  0  0  0  0  0  0  0  0  0  0  0
  187.0830  178.2880  142.1760 N   0  0  0  0  0  0  0  0  0  0  0  0
  184.4390  178.4280  144.7270 C   0  0  0  0  0  3  0  0  0  0  0  0
  186.1840  178.7830  140.0580 N   0  0  0  0  0  2  0  0  0  0  0  0
  187.2440  178.4410  140.8370 C   0  0  0  0  0  0  0  0  0  0  0  0
  184.7550  178.8010  141.9710 C   0  0  0  0  0  0  0  0  0  0  0  0
  186.8470  177.9150  145.0300 C   0  0  0  0  0  0  0  0  0  0  0  0
  189.0510  177.1880  146.6100 C   0  0  0  0  0  3  0  0  0  0  0  0
  186.8420  178.1720  146.4200 C   0  0  0  0  0  0  0  0  0  0  0  0
  187.9460  177.8080  147.1970 C   0  0  0  0  0  3  0  0  0  0  0  0
  189.0550  176.9210  145.2400 C   0  0  0  0  0  3  0  0  0  0  0  0
  185.6670  178.7840  147.1070 C   0  0  0  0  0  1  0  0  0  0  0  0
  187.9570  177.2810  144.4550 C   0  0  0  0  0  3  0  0  0  0  0  0
  188.8600  178.2040  140.0970 S   0  0  0  0  0  0  0  0  0  0  0  0
  188.3190  178.5390  136.1050 O   0  0  0  0  0  0  0  0  0  0  0  0
  188.5500  176.3970  138.0050 C   0  0  0  0  0  2  0  0  0  0  0  0
  188.8430  177.2960  135.7030 C   0  0  0  0  0  2  0  0  0  0  0  0
  188.2540  177.8420  138.4100 C   0  0  2  0  0  3  0  0  0  0  0  0
  188.2150  176.1760  136.5340 C   0  0  0  0  0  2  0  0  0  0  0  0
  188.8460  178.8090  137.3810 C   0  0  0  0  0  2  0  0  0  0  0  0
  1  8  1  0  0  0  0
  1 12  1  0  0  0  0
  2  1  2  0  0  0  0
  3  8  2  0  0  0  0
  4  3  1  0  0  0  0
  5 11  1  0  0  0  0
  6  5  2  0  0  0  0
  7  2  1  0  0  0  0
  9  5  1  0  0  0  0
  9 10  1  0  0  0  0
 10  7  2  0  0  0  0
 11  4  2  0  0  0  0
 11  2  1  0  0  0  0
 12 14  1  0  0  0  0
 13 15  1  0  0  0  0
 14 17  1  0  0  0  0
 14 15  2  0  0  0  0
 16 13  2  0  0  0  0
 18 12  2  0  0  0  0
 18 16  1  0  0  0  0
 19 10  1  0  0  0  0
 20 25  1  0  0  0  0
 21 23  1  0  0  0  0
 22 20  1  0  0  0  0
 22 24  1  0  0  0  0
 23 19  1  1  0  0  0
 24 21  1  0  0  0  0
 25 23  1  0  0  0  0
M  END
>  <MODEL>
5

>  <REMARK>
 VINA RESULT:      -8.8      2.561      3.384
  Name = 
  3 active torsions:
  status: ('A' for Active; 'I' for Inactive)
    1  A    between atoms: C_1  and  C_5
    2  A    between atoms: S_6  and  C_15
    3  A    between atoms: S_6  and  C_23
                            x       y       z     vdW  Elec       q    Type
                         _______ _______ _______ _____ _____    ______ ____

>  <TORSDO>
F 3

$$$$
=
 OpenBabel10272400453D

 25 28  0  0  1  0  0  0  0  0999 V2000
  189.6470  177.5350  141.8030 C   0  0  0  0  0  0  0  0  0  0  0  0
  188.2800  177.8720  141.8900 C   0  0  0  0  0  0  0  0  0  0  0  0
  189.6340  178.1400  139.4480 C   0  0  0  0  0  3  0  0  0  0  0  0
  188.2780  178.4610  139.5270 C   0  0  0  0  0  3  0  0  0  0  0  0
  186.2380  178.6630  140.8660 C   0  0  0  0  0  0  0  0  0  0  0  0
  185.5810  179.0720  139.8720 O   0  0  0  0  0  0  0  0  0  0  0  0
  187.6130  177.7790  143.0710 N   0  0  0  0  0  0  0  0  0  0  0  0
  190.3150  177.6850  140.5800 C   0  0  0  0  0  3  0  0  0  0  0  0
  185.6240  178.5450  142.0720 N   0  0  0  0  0  2  0  0  0  0  0  0
  186.3010  178.1140  143.1690 C   0  0  0  0  0  0  0  0  0  0  0  0
  187.5960  178.3330  140.7440 C   0  0  0  0  0  0  0  0  0  0  0  0
  190.4080  177.0620  142.9780 C   0  0  0  0  0  0  0  0  0  0  0  0
  191.8500  176.0740  145.1770 C   0  0  0  0  0  3  0  0  0  0  0  0
  190.9520  177.9530  143.9320 C   0  0  0  0  0  0  0  0  0  0  0  0
  191.6710  177.4510  145.0210 C   0  0  0  0  0  3  0  0  0  0  0  0
  191.3040  175.1900  144.2450 C   0  0  0  0  0  3  0  0  0  0  0  0
  190.7460  179.4280  143.8420 C   0  0  0  0  0  1  0  0  0  0  0  0
  190.5850  175.6820  143.1530 C   0  0  0  0  0  3  0  0  0  0  0  0
  185.4580  177.9770  144.7460 S   0  0  0  0  0  0  0  0  0  0  0  0
  187.7410  178.8690  147.9600 O   0  0  0  0  0  0  0  0  0  0  0  0
  187.7930  176.9330  145.8390 C   0  0  0  0  0  2  0  0  0  0  0  0
  188.3300  177.6090  148.1730 C   0  0  0  0  0  2  0  0  0  0  0  0
  186.9440  178.2050  145.7860 C   0  0  2  0  0  3  0  0  0  0  0  0
  188.9140  177.0830  146.8610 C   0  0  0  0  0  2  0  0  0  0  0  0
  186.5750  178.6510  147.2040 C   0  0  0  0  0  2  0  0  0  0  0  0
  1  2  1  0  0  0  0
  1 12  1  0  0  0  0
  2  7  1  0  0  0  0
  3  4  2  0  0  0  0
  3  8  1  0  0  0  0
  4 11  1  0  0  0  0
  5  9  1  0  0  0  0
  6  5  2  0  0  0  0
  7 10  2  0  0  0  0
  8  1  2  0  0  0  0
  9 10  1  0  0  0  0
 10 19  1  0  0  0  0
 11  5  1  0  0  0  0
 11  2  2  0  0  0  0
 12 18  2  0  0  0  0
 12 14  1  0  0  0  0
 14 15  2  0  0  0  0
 15 13  1  0  0  0  0
 16 13  2  0  0  0  0
 17 14  1  0  0  0  0
 18 16  1  0  0  0  0
 20 22  1  0  0  0  0
 21 24  1  0  0  0  0
 23 19  1  6  0  0  0
 23 21  1  0  0  0  0
 23 25  1  0  0  0  0
 24 22  1  0  0  0  0
 25 20  1  0  0  0  0
M  END
>  <MODEL>
6

>  <REMARK>
 VINA RESULT:      -8.8      2.242      4.835
  Name = 
  3 active torsions:
  status: ('A' for Active; 'I' for Inactive)
    1  A    between atoms: C_1  and  C_5
    2  A    between atoms: S_6  and  C_15
    3  A    between atoms: S_6  and  C_23
                            x       y       z     vdW  Elec       q    Type
                         _______ _______ _______ _____ _____    ______ ____

>  <TORSDO>
F 3

$$$$
=
 OpenBabel10272400453D

 25 28  0  0  1  0  0  0  0  0999 V2000
  187.6800  177.5950  144.2840 C   0  0  0  0  0  0  0  0  0  0  0  0
  187.2930  177.9800  142.9830 C   0  0  0  0  0  0  0  0  0  0  0  0
  185.4150  178.0090  145.0670 C   0  0  0  0  0  3  0  0  0  0  0  0
  185.0330  178.4030  143.7840 C   0  0  0  0  0  3  0  0  0  0  0  0
  185.6120  178.7620  141.4330 C   0  0  0  0  0  0  0  0  0  0  0  0
  184.4410  179.1410  141.1630 O   0  0  0  0  0  0  0  0  0  0  0  0
  188.1790  177.9430  141.9530 N   0  0  0  0  0  0  0  0  0  0  0  0
  186.7280  177.6020  145.3140 C   0  0  0  0  0  3  0  0  0  0  0  0
  186.5430  178.7090  140.4450 N   0  0  0  0  0  2  0  0  0  0  0  0
  187.8140  178.2980  140.6950 C   0  0  0  0  0  0  0  0  0  0  0  0
  185.9640  178.3890  142.7380 C   0  0  0  0  0  0  0  0  0  0  0  0
  189.0550  177.1460  144.5860 C   0  0  0  0  0  0  0  0  0  0  0  0
  191.6790  176.2700  145.0690 C   0  0  0  0  0  3  0  0  0  0  0  0
  189.6430  177.3240  145.8600 C   0  0  0  0  0  0  0  0  0  0  0  0
  190.9510  176.8870  146.0890 C   0  0  0  0  0  3  0  0  0  0  0  0
  191.0990  176.0800  143.8140 C   0  0  0  0  0  3  0  0  0  0  0  0
  188.8920  177.9310  146.9980 C   0  0  0  0  0  1  0  0  0  0  0  0
  189.7930  176.5130  143.5760 C   0  0  0  0  0  3  0  0  0  0  0  0
  189.0140  178.2360  139.3630 S   0  0  0  0  0  0  0  0  0  0  0  0
  187.0010  178.2670  135.8580 O   0  0  0  0  0  0  0  0  0  0  0  0
  188.0150  176.2750  137.6630 C   0  0  0  0  0  2  0  0  0  0  0  0
  187.3860  177.0050  135.3680 C   0  0  0  0  0  2  0  0  0  0  0  0
  187.8340  177.7420  138.0570 C   0  0  2  0  0  3  0  0  0  0  0  0
  187.1610  175.9420  136.4440 C   0  0  0  0  0  2  0  0  0  0  0  0
  187.9580  178.6380  136.8210 C   0  0  0  0  0  2  0  0  0  0  0  0
  1 12  1  0  0  0  0
  1  8  1  0  0  0  0
  2  1  2  0  0  0  0
  3  8  2  0  0  0  0
  4  3  1  0  0  0  0
  5 11  1  0  0  0  0
  6  5  2  0  0  0  0
  7  2  1  0  0  0  0
  9 10  1  0  0  0  0
  9  5  1  0  0  0  0
 10  7  2  0  0  0  0
 11  2  1  0  0  0  0
 11  4  2  0  0  0  0
 12 14  1  0  0  0  0
 13 15  1  0  0  0  0
 14 15  2  0  0  0  0
 14 17  1  0  0  0  0
 16 13  2  0  0  0  0
 18 16  1  0  0  0  0
 18 12  2  0  0  0  0
 19 10  1  0  0  0  0
 20 25  1  0  0  0  0
 21 23  1  0  0  0  0
 22 20  1  0  0  0  0
 22 24  1  0  0  0  0
 23 19  1  1  0  0  0
 24 21  1  0  0  0  0
 25 23  1  0  0  0  0
M  END
>  <MODEL>
7

>  <REMARK>
 VINA RESULT:      -8.7      2.719      4.228
  Name = 
  3 active torsions:
  status: ('A' for Active; 'I' for Inactive)
    1  A    between atoms: C_1  and  C_5
    2  A    between atoms: S_6  and  C_15
    3  A    between atoms: S_6  and  C_23
                            x       y       z     vdW  Elec       q    Type
                         _______ _______ _______ _____ _____    ______ ____

>  <TORSDO>
F 3

$$$$
=
 OpenBabel10272400453D

 25 28  0  0  1  0  0  0  0  0999 V2000
  188.4570  177.6110  145.0340 C   0  0  0  0  0  0  0  0  0  0  0  0
  187.1870  178.0700  144.6250 C   0  0  0  0  0  0  0  0  0  0  0  0
  187.7150  177.6580  147.3500 C   0  0  0  0  0  3  0  0  0  0  0  0
  186.4630  178.1250  146.9490 C   0  0  0  0  0  3  0  0  0  0  0  0
  184.9380  178.7820  145.1500 C   0  0  0  0  0  0  0  0  0  0  0  0
  184.0170  179.0350  145.9710 O   0  0  0  0  0  0  0  0  0  0  0  0
  186.9010  178.2450  143.3080 N   0  0  0  0  0  0  0  0  0  0  0  0
  188.7040  177.3980  146.3980 C   0  0  0  0  0  3  0  0  0  0  0  0
  184.7120  178.9430  143.8200 N   0  0  0  0  0  2  0  0  0  0  0  0
  185.6770  178.6730  142.9030 C   0  0  0  0  0  0  0  0  0  0  0  0
  186.1900  178.3300  145.5910 C   0  0  0  0  0  0  0  0  0  0  0  0
  189.5270  177.3110  144.0600 C   0  0  0  0  0  0  0  0  0  0  0  0
  191.5110  176.6640  142.1810 C   0  0  0  0  0  3  0  0  0  0  0  0
  190.6110  178.1910  143.8370 C   0  0  0  0  0  0  0  0  0  0  0  0
  191.5920  177.8610  142.8970 C   0  0  0  0  0  3  0  0  0  0  0  0
  190.4500  175.7860  142.4070 C   0  0  0  0  0  3  0  0  0  0  0  0
  190.7730  179.4560  144.6110 C   0  0  0  0  0  1  0  0  0  0  0  0
  189.4650  176.1070  143.3430 C   0  0  0  0  0  3  0  0  0  0  0  0
  185.3400  178.8920  141.1550 S   0  0  0  0  0  0  0  0  0  0  0  0
  188.0390  177.2690  138.6210 O   0  0  0  0  0  0  0  0  0  0  0  0
  188.1120  178.9570  140.9450 C   0  0  0  0  0  2  0  0  0  0  0  0
  189.0840  178.1980  138.7830 C   0  0  0  0  0  2  0  0  0  0  0  0
  186.8880  178.1260  140.5570 C   0  0  2  0  0  3  0  0  0  0  0  0
  189.3650  178.4070  140.2720 C   0  0  0  0  0  2  0  0  0  0  0  0
  186.8580  177.9090  139.0410 C   0  0  0  0  0  2  0  0  0  0  0  0
  1  8  1  0  0  0  0
  2  1  2  0  0  0  0
  2 11  1  0  0  0  0
  4  3  1  0  0  0  0
  5 11  1  0  0  0  0
  5  6  2  0  0  0  0
  7  2  1  0  0  0  0
  8  3  2  0  0  0  0
  9  5  1  0  0  0  0
 10  7  2  0  0  0  0
 10  9  1  0  0  0  0
 11  4  2  0  0  0  0
 12  1  1  0  0  0  0
 13 16  2  0  0  0  0
 13 15  1  0  0  0  0
 14 12  1  0  0  0  0
 14 17  1  0  0  0  0
 15 14  2  0  0  0  0
 16 18  1  0  0  0  0
 18 12  2  0  0  0  0
 19 10  1  0  0  0  0
 20 22  1  0  0  0  0
 20 25  1  0  0  0  0
 22 24  1  0  0  0  0
 23 21  1  0  0  0  0
 23 19  1  6  0  0  0
 24 21  1  0  0  0  0
 25 23  1  0  0  0  0
M  END
>  <MODEL>
8

>  <REMARK>
 VINA RESULT:      -8.5      2.160      4.336
  Name = 
  3 active torsions:
  status: ('A' for Active; 'I' for Inactive)
    1  A    between atoms: C_1  and  C_5
    2  A    between atoms: S_6  and  C_15
    3  A    between atoms: S_6  and  C_23
                            x       y       z     vdW  Elec       q    Type
                         _______ _______ _______ _____ _____    ______ ____

>  <TORSDO>
F 3

$$$$
=
 OpenBabel10272400453D

 25 28  0  0  1  0  0  0  0  0999 V2000
  187.7640  178.0060  144.1660 C   0  0  0  0  0  0  0  0  0  0  0  0
  186.8950  178.2210  143.0760 C   0  0  0  0  0  0  0  0  0  0  0  0
  185.8740  178.1580  145.6890 C   0  0  0  0  0  3  0  0  0  0  0  0
  185.0130  178.3840  144.6140 C   0  0  0  0  0  3  0  0  0  0  0  0
  184.6780  178.6210  142.2000 C   0  0  0  0  0  0  0  0  0  0  0  0
  183.4410  178.8050  142.3520 O   0  0  0  0  0  0  0  0  0  0  0  0
  187.3640  178.2230  141.8000 N   0  0  0  0  0  0  0  0  0  0  0  0
  187.2390  177.9650  145.4660 C   0  0  0  0  0  3  0  0  0  0  0  0
  185.2050  178.6180  140.9480 N   0  0  0  0  0  2  0  0  0  0  0  0
  186.5330  178.4150  140.7440 C   0  0  0  0  0  0  0  0  0  0  0  0
  185.5140  178.4140  143.3070 C   0  0  0  0  0  0  0  0  0  0  0  0
  189.2130  177.7850  143.9740 C   0  0  0  0  0  0  0  0  0  0  0  0
  191.9820  177.4500  143.6470 C   0  0  0  0  0  3  0  0  0  0  0  0
  189.7320  176.5530  143.5120 C   0  0  0  0  0  0  0  0  0  0  0  0
  191.1120  176.3960  143.3550 C   0  0  0  0  0  3  0  0  0  0  0  0
  191.4730  178.6710  144.0920 C   0  0  0  0  0  3  0  0  0  0  0  0
  188.8450  175.4130  143.1360 C   0  0  0  0  0  1  0  0  0  0  0  0
  190.0960  178.8380  144.2510 C   0  0  0  0  0  3  0  0  0  0  0  0
  187.1920  178.4110  139.0760 S   0  0  0  0  0  0  0  0  0  0  0  0
  190.0850  175.6380  138.5430 O   0  0  0  0  0  0  0  0  0  0  0  0
  189.8350  178.1550  139.9050 C   0  0  0  0  0  2  0  0  0  0  0  0
  191.2160  176.4580  138.7190 C   0  0  0  0  0  2  0  0  0  0  0  0
  188.6300  177.3400  139.4330 C   0  0  2  0  0  3  0  0  0  0  0  0
  191.0720  177.2680  140.0070 C   0  0  0  0  0  2  0  0  0  0  0  0
  189.0130  176.4890  138.2180 C   0  0  0  0  0  2  0  0  0  0  0  0
  1  8  1  0  0  0  0
  2 11  1  0  0  0  0
  2  1  2  0  0  0  0
  4  3  1  0  0  0  0
  5  6  2  0  0  0  0
  5 11  1  0  0  0  0
  7  2  1  0  0  0  0
  8  3  2  0  0  0  0
  9  5  1  0  0  0  0
 10  9  1  0  0  0  0
 10  7  2  0  0  0  0
 11  4  2  0  0  0  0
 12  1  1  0  0  0  0
 12 18  1  0  0  0  0
 13 16  1  0  0  0  0
 14 12  2  0  0  0  0
 15 14  1  0  0  0  0
 15 13  2  0  0  0  0
 16 18  2  0  0  0  0
 17 14  1  0  0  0  0
 19 10  1  0  0  0  0
 20 22  1  0  0  0  0
 21 24  1  0  0  0  0
 22 24  1  0  0  0  0
 23 19  1  6  0  0  0
 23 21  1  0  0  0  0
 25 20  1  0  0  0  0
 25 23  1  0  0  0  0
M  END
>  <MODEL>
9

>  <REMARK>
 VINA RESULT:      -8.4      1.994      3.478
  Name = 
  3 active torsions:
  status: ('A' for Active; 'I' for Inactive)
    1  A    between atoms: C_1  and  C_5
    2  A    between atoms: S_6  and  C_15
    3  A    between atoms: S_6  and  C_23
                            x       y       z     vdW  Elec       q    Type
                         _______ _______ _______ _____ _____    ______ ____

>  <TORSDO>
F 3

$$$$
