=
 OpenBabel10272400093D

 34 38  0  0  1  0  0  0  0  0999 V2000
  187.1350  177.1480  136.8730 C   0  0  2  0  0  3  0  0  0  0  0  0
  189.7180  177.6760  137.1080 C   0  0  0  0  0  2  0  0  0  0  0  0
  188.0840  177.8880  139.1980 C   0  0  0  0  0  0  0  0  0  0  0  0
  188.7350  177.8930  141.5450 C   0  0  0  0  0  0  0  0  0  0  0  0
  190.3430  176.9160  139.8960 C   0  0  0  0  0  2  0  0  0  0  0  0
  188.3250  177.6450  137.7210 C   0  0  0  0  0  0  0  0  0  0  0  0
  191.4520  177.3800  140.8440 C   0  0  0  0  0  2  0  0  0  0  0  0
  189.7320  177.6290  142.5970 C   0  0  0  0  0  3  0  0  0  0  0  0
  186.8120  178.3780  139.5650 C   0  0  0  0  0  0  0  0  0  0  0  0
  185.7690  177.4290  137.5250 C   0  0  0  0  0  2  0  0  0  0  0  0
  188.8650  178.9210  137.0940 C   0  0  0  0  0  2  0  0  0  0  0  0
  187.4870  178.4020  141.8920 C   0  0  0  0  0  3  0  0  0  0  0  0
  186.5090  178.6430  140.9200 C   0  0  0  0  0  0  0  0  0  0  0  0
  190.9960  177.3380  142.2780 C   0  0  0  0  0  0  0  0  0  0  0  0
  189.0410  177.6140  140.2000 C   0  0  0  0  0  0  0  0  0  0  0  0
  185.8060  178.6290  138.4740 C   0  0  0  0  0  2  0  0  0  0  0  0
  184.1060  178.4430  143.3170 N   0  0  0  0  0  0  0  0  0  0  0  0
  182.8420  178.4100  142.5810 C   0  0  0  0  0  2  0  0  0  0  0  0
  185.2220  179.1420  141.3260 N   0  0  0  0  0  0  0  0  0  0  0  0
  183.0840  177.9900  141.1300 C   0  0  0  0  0  2  0  0  0  0  0  0
  184.9610  179.4710  142.7260 C   0  0  0  0  0  2  0  0  0  0  0  0
  184.0470  178.9740  140.4750 C   0  0  0  0  0  2  0  0  0  0  0  0
  183.7950  178.8830  144.6650 C   0  0  0  0  0  1  0  0  0  0  0  0
  187.2360  175.6670  136.4920 C   0  0  1  0  0  3  0  0  0  0  0  0
  188.1610  175.0140  137.3060 O   0  0  0  0  0  1  0  0  0  0  0  0
  185.8930  174.9550  136.5600 C   0  0  0  0  0  1  0  0  0  0  0  0
  191.9740  177.0020  143.3530 C   0  0  0  0  0  2  0  0  0  0  0  0
  191.7750  177.0160  145.7620 N   0  0  0  0  0  0  0  0  0  0  0  0
  191.2660  176.6800  144.6280 C   0  0  0  0  0  3  0  0  0  0  0  0
  191.4280  175.2900  147.4430 C   0  0  0  0  0  1  0  0  0  0  0  0
  191.1310  176.7210  147.0260 C   0  0  1  0  0  0  0  0  0  0  0  0
  191.6420  177.5750  148.0050 O   0  0  0  0  0  1  0  0  0  0  0  0
  189.0830  177.8310  148.0150 C   0  0  0  0  0  1  0  0  0  0  0  0
  189.6150  176.9030  146.9320 C   0  0  0  0  0  2  0  0  0  0  0  0
  1 24  1  1  0  0  0
  1 10  1  0  0  0  0
  1  6  1  0  0  0  0
  2  6  1  0  0  0  0
  3  9  2  0  0  0  0
  3 15  1  0  0  0  0
  4 12  1  0  0  0  0
  4  8  1  0  0  0  0
  5 15  1  0  0  0  0
  5  7  1  0  0  0  0
  6  3  1  0  0  0  0
  7 14  1  0  0  0  0
  9 13  1  0  0  0  0
 10 16  1  0  0  0  0
 11  2  1  0  0  0  0
 11  6  1  0  0  0  0
 13 19  1  0  0  0  0
 13 12  2  0  0  0  0
 14  8  2  0  0  0  0
 14 27  1  0  0  0  0
 15  4  2  0  0  0  0
 16  9  1  0  0  0  0
 17 23  1  0  0  0  0
 18 17  1  0  0  0  0
 19 21  1  0  0  0  0
 20 18  1  0  0  0  0
 21 17  1  0  0  0  0
 22 20  1  0  0  0  0
 22 19  1  0  0  0  0
 24 26  1  1  0  0  0
 24 25  1  0  0  0  0
 27 29  1  0  0  0  0
 28 31  1  0  0  0  0
 29 28  2  0  0  0  0
 31 30  1  1  0  0  0
 31 32  1  0  0  0  0
 34 31  1  0  0  0  0
 34 33  1  0  0  0  0
M  END
>  <MODEL>
1

>  <REMARK>
 VINA RESULT:      -8.8      0.000      0.000
  Name = 
  6 active torsions:
  status: ('A' for Active; 'I' for Inactive)
    1  A    between atoms: C_1  and  C_6
    2  A    between atoms: C_3  and  C_29
    3  A    between atoms: C_3  and  C_33
    4  A    between atoms: N_12  and  C_28
    5  A    between atoms: N_13  and  C_20
    6  A    between atoms: C_20  and  C_22
                            x       y       z     vdW  Elec       q    Type
                         _______ _______ _______ _____ _____    ______ ____

>  <TORSDO>
F 6

$$$$
=
 OpenBabel10272400093D

 34 38  0  0  1  0  0  0  0  0999 V2000
  191.5970  176.8310  144.1900 C   0  0  2  0  0  3  0  0  0  0  0  0
  190.1180  178.3330  145.7880 C   0  0  0  0  0  2  0  0  0  0  0  0
  189.3500  177.8280  143.2910 C   0  0  0  0  0  0  0  0  0  0  0  0
  187.0900  178.0320  142.4060 C   0  0  0  0  0  0  0  0  0  0  0  0
  187.3510  177.8130  144.8850 C   0  0  0  0  0  2  0  0  0  0  0  0
  190.3690  177.7380  144.4100 C   0  0  0  0  0  0  0  0  0  0  0  0
  186.0780  178.6550  144.9990 C   0  0  0  0  0  2  0  0  0  0  0  0
  185.6380  178.1580  142.6210 C   0  0  0  0  0  3  0  0  0  0  0  0
  189.8450  177.7640  141.9700 C   0  0  0  0  0  0  0  0  0  0  0  0
  191.8680  176.5310  142.7040 C   0  0  0  0  0  2  0  0  0  0  0  0
  190.8550  179.1380  144.7470 C   0  0  0  0  0  2  0  0  0  0  0  0
  187.5920  177.9960  141.1090 C   0  0  0  0  0  3  0  0  0  0  0  0
  188.9640  177.8530  140.8680 C   0  0  0  0  0  0  0  0  0  0  0  0
  185.1500  178.4000  143.8410 C   0  0  0  0  0  0  0  0  0  0  0  0
  187.9580  177.9310  143.5090 C   0  0  0  0  0  0  0  0  0  0  0  0
  191.3310  177.6230  141.7760 C   0  0  0  0  0  2  0  0  0  0  0  0
  188.0050  177.9410  137.6080 N   0  0  0  0  0  0  0  0  0  0  0  0
  188.7780  176.8820  136.9600 C   0  0  0  0  0  2  0  0  0  0  0  0
  189.4380  177.7910  139.5110 N   0  0  0  0  0  0  0  0  0  0  0  0
  189.2890  175.8850  138.0010 C   0  0  0  0  0  2  0  0  0  0  0  0
  188.8950  178.6900  138.4940 C   0  0  0  0  0  2  0  0  0  0  0  0
  190.1560  176.6200  139.0170 C   0  0  0  0  0  2  0  0  0  0  0  0
  187.5910  178.8580  136.5620 C   0  0  0  0  0  1  0  0  0  0  0  0
  191.5380  175.5220  144.9830 C   0  0  1  0  0  3  0  0  0  0  0  0
  192.2240  174.5100  144.3100 O   0  0  0  0  0  1  0  0  0  0  0  0
  192.0870  175.6690  146.3940 C   0  0  0  0  0  1  0  0  0  0  0  0
  183.6740  178.4520  144.0520 C   0  0  0  0  0  2  0  0  0  0  0  0
  181.7840  179.0580  142.6730 N   0  0  0  0  0  0  0  0  0  0  0  0
  182.9560  178.5310  142.7450 C   0  0  0  0  0  3  0  0  0  0  0  0
  179.9940  178.0550  141.3630 C   0  0  0  0  0  1  0  0  0  0  0  0
  181.0440  179.1520  141.4310 C   0  0  1  0  0  0  0  0  0  0  0  0
  180.3900  180.3840  141.3840 O   0  0  0  0  0  1  0  0  0  0  0  0
  181.6780  180.0730  139.1610 C   0  0  0  0  0  1  0  0  0  0  0  0
  181.9720  179.0220  140.2210 C   0  0  0  0  0  2  0  0  0  0  0  0
  1  6  1  0  0  0  0
  1 24  1  1  0  0  0
  3 15  1  0  0  0  0
  3  6  1  0  0  0  0
  4  8  1  0  0  0  0
  4 15  2  0  0  0  0
  5  7  1  0  0  0  0
  6 11  1  0  0  0  0
  6  2  1  0  0  0  0
  8 14  2  0  0  0  0
  9  3  2  0  0  0  0
 10  1  1  0  0  0  0
 11  2  1  0  0  0  0
 12  4  1  0  0  0  0
 13 12  2  0  0  0  0
 13  9  1  0  0  0  0
 14 27  1  0  0  0  0
 14  7  1  0  0  0  0
 15  5  1  0  0  0  0
 16  9  1  0  0  0  0
 16 10  1  0  0  0  0
 17 21  1  0  0  0  0
 18 17  1  0  0  0  0
 18 20  1  0  0  0  0
 19 13  1  0  0  0  0
 20 22  1  0  0  0  0
 21 19  1  0  0  0  0
 22 19  1  0  0  0  0
 23 17  1  0  0  0  0
 24 26  1  1  0  0  0
 25 24  1  0  0  0  0
 28 29  2  0  0  0  0
 29 27  1  0  0  0  0
 31 30  1  6  0  0  0
 31 28  1  0  0  0  0
 32 31  1  0  0  0  0
 33 34  1  0  0  0  0
 34 31  1  0  0  0  0
M  END
>  <MODEL>
2

>  <REMARK>
 VINA RESULT:      -8.7      2.766      8.055
  Name = 
  6 active torsions:
  status: ('A' for Active; 'I' for Inactive)
    1  A    between atoms: C_1  and  C_6
    2  A    between atoms: C_3  and  C_29
    3  A    between atoms: C_3  and  C_33
    4  A    between atoms: N_12  and  C_28
    5  A    between atoms: N_13  and  C_20
    6  A    between atoms: C_20  and  C_22
                            x       y       z     vdW  Elec       q    Type
                         _______ _______ _______ _____ _____    ______ ____

>  <TORSDO>
F 6

$$$$
=
 OpenBabel10272400093D

 34 38  0  0  1  0  0  0  0  0999 V2000
  181.0750  179.3440  139.0690 C   0  0  2  0  0  3  0  0  0  0  0  0
  180.4320  178.1900  141.3620 C   0  0  0  0  0  2  0  0  0  0  0  0
  182.9770  178.6390  140.7240 C   0  0  0  0  0  0  0  0  0  0  0  0
  184.8590  178.7190  142.2670 C   0  0  0  0  0  0  0  0  0  0  0  0
  182.5680  179.0590  143.2130 C   0  0  0  0  0  2  0  0  0  0  0  0
  181.5000  178.6490  140.3790 C   0  0  0  0  0  0  0  0  0  0  0  0
  183.1070  178.4280  144.4980 C   0  0  0  0  0  2  0  0  0  0  0  0
  185.3870  178.8270  143.6390 C   0  0  0  0  0  3  0  0  0  0  0  0
  183.8840  178.5400  139.6460 C   0  0  0  0  0  0  0  0  0  0  0  0
  182.2320  179.5010  138.0650 C   0  0  0  0  0  2  0  0  0  0  0  0
  180.9920  177.2170  140.3540 C   0  0  0  0  0  2  0  0  0  0  0  0
  185.7430  178.5940  141.1990 C   0  0  0  0  0  3  0  0  0  0  0  0
  185.2770  178.5130  139.8820 C   0  0  0  0  0  0  0  0  0  0  0  0
  184.5670  178.7420  144.6900 C   0  0  0  0  0  0  0  0  0  0  0  0
  183.4710  178.7610  142.0420 C   0  0  0  0  0  0  0  0  0  0  0  0
  183.3220  178.4440  138.2530 C   0  0  0  0  0  2  0  0  0  0  0  0
  186.3080  176.5690  137.2910 N   0  0  0  0  0  0  0  0  0  0  0  0
  187.7690  176.5970  137.3580 C   0  0  0  0  0  2  0  0  0  0  0  0
  186.2260  178.4130  138.8040 N   0  0  0  0  0  0  0  0  0  0  0  0
  188.2280  177.0260  138.7520 C   0  0  0  0  0  2  0  0  0  0  0  0
  185.8080  177.9280  137.4900 C   0  0  0  0  0  2  0  0  0  0  0  0
  187.6630  178.4070  139.0650 C   0  0  0  0  0  2  0  0  0  0  0  0
  185.9580  176.1900  135.9340 C   0  0  0  0  0  1  0  0  0  0  0  0
  180.3920  180.6970  139.2910 C   0  0  1  0  0  3  0  0  0  0  0  0
  180.4060  181.0370  140.6440 O   0  0  0  0  0  1  0  0  0  0  0  0
  181.0240  181.8120  138.4710 C   0  0  0  0  0  1  0  0  0  0  0  0
  185.1070  178.9270  146.0680 C   0  0  0  0  0  2  0  0  0  0  0  0
  187.0210  178.1060  147.2950 N   0  0  0  0  0  0  0  0  0  0  0  0
  186.5100  178.4220  146.1570 C   0  0  0  0  0  3  0  0  0  0  0  0
  189.1230  178.4370  148.4770 C   0  0  0  0  0  1  0  0  0  0  0  0
  188.3790  177.6190  147.4350 C   0  0  1  0  0  0  0  0  0  0  0  0
  188.3430  176.2920  147.8660 O   0  0  0  0  0  1  0  0  0  0  0  0
  190.4780  176.9870  146.1700 C   0  0  0  0  0  1  0  0  0  0  0  0
  189.1370  177.7020  146.1080 C   0  0  0  0  0  2  0  0  0  0  0  0
  1 24  1  1  0  0  0
  1  6  1  0  0  0  0
  3 15  1  0  0  0  0
  4  8  1  0  0  0  0
  5  7  1  0  0  0  0
  6  3  1  0  0  0  0
  6  2  1  0  0  0  0
  7 14  1  0  0  0  0
  8 14  2  0  0  0  0
  9 13  1  0  0  0  0
  9  3  2  0  0  0  0
 10 16  1  0  0  0  0
 10  1  1  0  0  0  0
 11  6  1  0  0  0  0
 11  2  1  0  0  0  0
 12  4  1  0  0  0  0
 13 12  2  0  0  0  0
 14 27  1  0  0  0  0
 15  4  2  0  0  0  0
 15  5  1  0  0  0  0
 16  9  1  0  0  0  0
 17 18  1  0  0  0  0
 17 21  1  0  0  0  0
 18 20  1  0  0  0  0
 19 22  1  0  0  0  0
 19 13  1  0  0  0  0
 20 22  1  0  0  0  0
 21 19  1  0  0  0  0
 23 17  1  0  0  0  0
 24 26  1  6  0  0  0
 24 25  1  0  0  0  0
 27 29  1  0  0  0  0
 28 31  1  0  0  0  0
 29 28  2  0  0  0  0
 31 32  1  0  0  0  0
 31 30  1  1  0  0  0
 34 33  1  0  0  0  0
 34 31  1  0  0  0  0
M  END
>  <MODEL>
3

>  <REMARK>
 VINA RESULT:      -8.4      2.914      6.242
  Name = 
  6 active torsions:
  status: ('A' for Active; 'I' for Inactive)
    1  A    between atoms: C_1  and  C_6
    2  A    between atoms: C_3  and  C_29
    3  A    between atoms: C_3  and  C_33
    4  A    between atoms: N_12  and  C_28
    5  A    between atoms: N_13  and  C_20
    6  A    between atoms: C_20  and  C_22
                            x       y       z     vdW  Elec       q    Type
                         _______ _______ _______ _____ _____    ______ ____

>  <TORSDO>
F 6

$$$$
=
 OpenBabel10272400093D

 34 38  0  0  1  0  0  0  0  0999 V2000
  181.5320  177.9030  137.2020 C   0  0  2  0  0  3  0  0  0  0  0  0
  180.8580  177.1100  139.6350 C   0  0  0  0  0  2  0  0  0  0  0  0
  183.3480  177.8740  139.0880 C   0  0  0  0  0  0  0  0  0  0  0  0
  185.0290  178.5790  140.7020 C   0  0  0  0  0  0  0  0  0  0  0  0
  182.6300  178.6790  141.4060 C   0  0  0  0  0  2  0  0  0  0  0  0
  181.9310  177.5560  138.6510 C   0  0  0  0  0  0  0  0  0  0  0  0
  183.1330  178.4090  142.8260 C   0  0  0  0  0  2  0  0  0  0  0  0
  185.3930  179.0360  142.0550 C   0  0  0  0  0  3  0  0  0  0  0  0
  184.3610  177.7350  138.1150 C   0  0  0  0  0  0  0  0  0  0  0  0
  182.7430  178.0690  136.2660 C   0  0  0  0  0  2  0  0  0  0  0  0
  181.6640  176.0770  138.8860 C   0  0  0  0  0  2  0  0  0  0  0  0
  186.0240  178.4110  139.7430 C   0  0  0  0  0  3  0  0  0  0  0  0
  185.7110  178.0010  138.4420 C   0  0  0  0  0  0  0  0  0  0  0  0
  184.4970  179.0090  143.0450 C   0  0  0  0  0  0  0  0  0  0  0  0
  183.6820  178.3300  140.3820 C   0  0  0  0  0  0  0  0  0  0  0  0
  183.9640  177.2780  136.7370 C   0  0  0  0  0  2  0  0  0  0  0  0
  188.8280  176.7500  137.9170 N   0  0  0  0  0  0  0  0  0  0  0  0
  189.5390  177.8050  137.1930 C   0  0  0  0  0  2  0  0  0  0  0  0
  186.7660  177.8680  137.4720 N   0  0  0  0  0  0  0  0  0  0  0  0
  188.8370  179.1490  137.3900 C   0  0  0  0  0  2  0  0  0  0  0  0
  187.4940  176.6070  137.3360 C   0  0  0  0  0  2  0  0  0  0  0  0
  187.4010  179.0440  136.8860 C   0  0  0  0  0  2  0  0  0  0  0  0
  189.5340  175.5100  137.6510 C   0  0  0  0  0  1  0  0  0  0  0  0
  180.6210  179.1300  137.0990 C   0  0  1  0  0  3  0  0  0  0  0  0
  181.1090  180.1710  137.8880 O   0  0  0  0  0  1  0  0  0  0  0  0
  180.4450  179.6070  135.6640 C   0  0  0  0  0  1  0  0  0  0  0  0
  184.8600  179.5440  144.3890 C   0  0  0  0  0  2  0  0  0  0  0  0
  186.6930  178.7920  145.7740 N   0  0  0  0  0  0  0  0  0  0  0  0
  185.5810  178.5100  145.1920 C   0  0  0  0  0  3  0  0  0  0  0  0
  187.5170  178.2760  148.0050 C   0  0  0  0  0  1  0  0  0  0  0  0
  187.4340  177.8240  146.5570 C   0  0  1  0  0  0  0  0  0  0  0  0
  186.7620  176.6010  146.5190 O   0  0  0  0  0  1  0  0  0  0  0  0
  188.8600  176.9890  144.6410 C   0  0  0  0  0  1  0  0  0  0  0  0
  188.8530  177.6410  146.0150 C   0  0  0  0  0  2  0  0  0  0  0  0
  1 24  1  1  0  0  0
  1  6  1  0  0  0  0
  3 15  1  0  0  0  0
  4  8  1  0  0  0  0
  5  7  1  0  0  0  0
  6 11  1  0  0  0  0
  6  3  1  0  0  0  0
  6  2  1  0  0  0  0
  7 14  1  0  0  0  0
  8 14  2  0  0  0  0
  9 13  1  0  0  0  0
  9  3  2  0  0  0  0
 10 16  1  0  0  0  0
 10  1  1  0  0  0  0
 11  2  1  0  0  0  0
 12  4  1  0  0  0  0
 13 12  2  0  0  0  0
 14 27  1  0  0  0  0
 15  4  2  0  0  0  0
 15  5  1  0  0  0  0
 16  9  1  0  0  0  0
 18 20  1  0  0  0  0
 18 17  1  0  0  0  0
 19 13  1  0  0  0  0
 21 19  1  0  0  0  0
 21 17  1  0  0  0  0
 22 20  1  0  0  0  0
 22 19  1  0  0  0  0
 23 17  1  0  0  0  0
 24 26  1  6  0  0  0
 24 25  1  0  0  0  0
 27 29  1  0  0  0  0
 28 31  1  0  0  0  0
 29 28  2  0  0  0  0
 31 30  1  1  0  0  0
 32 31  1  0  0  0  0
 33 34  1  0  0  0  0
 34 31  1  0  0  0  0
M  END
>  <MODEL>
4

>  <REMARK>
 VINA RESULT:      -7.5      3.086      6.141
  Name = 
  6 active torsions:
  status: ('A' for Active; 'I' for Inactive)
    1  A    between atoms: C_1  and  C_6
    2  A    between atoms: C_3  and  C_29
    3  A    between atoms: C_3  and  C_33
    4  A    between atoms: N_12  and  C_28
    5  A    between atoms: N_13  and  C_20
    6  A    between atoms: C_20  and  C_22
                            x       y       z     vdW  Elec       q    Type
                         _______ _______ _______ _____ _____    ______ ____

>  <TORSDO>
F 6

$$$$
=
 OpenBabel10272400093D

 34 38  0  0  1  0  0  0  0  0999 V2000
  189.3700  177.4450  144.5340 C   0  0  2  0  0  3  0  0  0  0  0  0
  190.5030  175.5630  143.0580 C   0  0  0  0  0  2  0  0  0  0  0  0
  188.7820  177.2890  141.9880 C   0  0  0  0  0  0  0  0  0  0  0  0
  188.5510  177.8170  139.6220 C   0  0  0  0  0  0  0  0  0  0  0  0
  190.7060  176.7950  140.3780 C   0  0  0  0  0  2  0  0  0  0  0  0
  189.5050  176.7060  143.1870 C   0  0  0  0  0  0  0  0  0  0  0  0
  190.7890  176.1690  138.9840 C   0  0  0  0  0  2  0  0  0  0  0  0
  189.0770  177.7880  138.2470 C   0  0  0  0  0  3  0  0  0  0  0  0
  187.5380  177.9100  142.2340 C   0  0  0  0  0  0  0  0  0  0  0  0
  188.1470  178.3790  144.5910 C   0  0  0  0  0  2  0  0  0  0  0  0
  189.0590  175.2650  143.3780 C   0  0  0  0  0  2  0  0  0  0  0  0
  187.3130  178.4030  139.8720 C   0  0  0  0  0  3  0  0  0  0  0  0
  186.7930  178.4690  141.1700 C   0  0  0  0  0  0  0  0  0  0  0  0
  190.1560  177.0590  137.9470 C   0  0  0  0  0  0  0  0  0  0  0  0
  189.3060  177.2710  140.6770 C   0  0  0  0  0  0  0  0  0  0  0  0
  187.0260  177.9380  143.6490 C   0  0  0  0  0  2  0  0  0  0  0  0
  184.0020  178.4600  143.1100 N   0  0  0  0  0  0  0  0  0  0  0  0
  182.8910  178.6250  142.1720 C   0  0  0  0  0  2  0  0  0  0  0  0
  185.5230  179.1080  141.3880 N   0  0  0  0  0  0  0  0  0  0  0  0
  183.3320  178.2480  140.7570 C   0  0  0  0  0  2  0  0  0  0  0  0
  185.0610  179.3990  142.7450 C   0  0  0  0  0  2  0  0  0  0  0  0
  184.5030  179.1330  140.3430 C   0  0  0  0  0  2  0  0  0  0  0  0
  183.5130  178.8700  144.4140 C   0  0  0  0  0  1  0  0  0  0  0  0
  190.6320  178.2150  144.9360 C   0  0  1  0  0  3  0  0  0  0  0  0
  191.5950  177.3440  145.4460 O   0  0  0  0  0  1  0  0  0  0  0  0
  191.2180  179.0170  143.7830 C   0  0  0  0  0  1  0  0  0  0  0  0
  190.7190  177.0990  136.5660 C   0  0  0  0  0  2  0  0  0  0  0  0
  192.9860  176.2640  136.6100 N   0  0  0  0  0  0  0  0  0  0  0  0
  191.7420  176.0270  136.3820 C   0  0  0  0  0  3  0  0  0  0  0  0
  193.8260  174.5320  135.1200 C   0  0  0  0  0  1  0  0  0  0  0  0
  194.0180  175.2600  136.4400 C   0  0  1  0  0  0  0  0  0  0  0  0
  195.2630  175.8900  136.4140 O   0  0  0  0  0  1  0  0  0  0  0  0
  195.1920  174.3730  138.4990 C   0  0  0  0  0  1  0  0  0  0  0  0
  193.9890  174.2370  137.5770 C   0  0  0  0  0  2  0  0  0  0  0  0
  1 10  1  0  0  0  0
  1 24  1  6  0  0  0
  2  6  1  0  0  0  0
  2 11  1  0  0  0  0
  3  9  1  0  0  0  0
  3  6  1  0  0  0  0
  4 12  2  0  0  0  0
  4 15  1  0  0  0  0
  5 15  1  0  0  0  0
  6 11  1  0  0  0  0
  6  1  1  0  0  0  0
  7  5  1  0  0  0  0
  8  4  1  0  0  0  0
  9 16  1  0  0  0  0
 12 13  1  0  0  0  0
 13 19  1  0  0  0  0
 13  9  2  0  0  0  0
 14  8  2  0  0  0  0
 14  7  1  0  0  0  0
 15  3  2  0  0  0  0
 16 10  1  0  0  0  0
 17 23  1  0  0  0  0
 18 17  1  0  0  0  0
 19 21  1  0  0  0  0
 20 18  1  0  0  0  0
 21 17  1  0  0  0  0
 22 20  1  0  0  0  0
 22 19  1  0  0  0  0
 24 26  1  6  0  0  0
 24 25  1  0  0  0  0
 27 14  1  0  0  0  0
 29 27  1  0  0  0  0
 29 28  2  0  0  0  0
 31 30  1  6  0  0  0
 31 28  1  0  0  0  0
 31 34  1  0  0  0  0
 32 31  1  0  0  0  0
 34 33  1  0  0  0  0
M  END
>  <MODEL>
5

>  <REMARK>
 VINA RESULT:      -7.5      2.993      6.646
  Name = 
  6 active torsions:
  status: ('A' for Active; 'I' for Inactive)
    1  A    between atoms: C_1  and  C_6
    2  A    between atoms: C_3  and  C_29
    3  A    between atoms: C_3  and  C_33
    4  A    between atoms: N_12  and  C_28
    5  A    between atoms: N_13  and  C_20
    6  A    between atoms: C_20  and  C_22
                            x       y       z     vdW  Elec       q    Type
                         _______ _______ _______ _____ _____    ______ ____

>  <TORSDO>
F 6

$$$$
=
 OpenBabel10272400093D

 34 38  0  0  1  0  0  0  0  0999 V2000
  189.7660  177.1860  144.8850 C   0  0  2  0  0  3  0  0  0  0  0  0
  190.9530  176.1590  142.7550 C   0  0  0  0  0  2  0  0  0  0  0  0
  188.5910  177.3680  142.5520 C   0  0  0  0  0  0  0  0  0  0  0  0
  187.5970  178.2630  140.5170 C   0  0  0  0  0  0  0  0  0  0  0  0
  190.0740  177.9120  140.5420 C   0  0  0  0  0  2  0  0  0  0  0  0
  189.7420  176.8350  143.3830 C   0  0  0  0  0  0  0  0  0  0  0  0
  189.9590  177.6570  139.0380 C   0  0  0  0  0  2  0  0  0  0  0  0
  187.7240  178.7030  139.1170 C   0  0  0  0  0  3  0  0  0  0  0  0
  187.3340  177.4570  143.1880 C   0  0  0  0  0  0  0  0  0  0  0  0
  188.3880  177.6070  145.4280 C   0  0  0  0  0  2  0  0  0  0  0  0
  189.7940  175.3220  143.2380 C   0  0  0  0  0  2  0  0  0  0  0  0
  186.3570  178.3210  141.1460 C   0  0  0  0  0  3  0  0  0  0  0  0
  186.2050  177.9330  142.4820 C   0  0  0  0  0  0  0  0  0  0  0  0
  188.8460  178.4690  138.4300 C   0  0  0  0  0  0  0  0  0  0  0  0
  188.7290  177.8030  141.2160 C   0  0  0  0  0  0  0  0  0  0  0  0
  187.2310  177.0130  144.6220 C   0  0  0  0  0  2  0  0  0  0  0  0
  183.0350  179.0870  142.0670 N   0  0  0  0  0  0  0  0  0  0  0  0
  182.6850  179.6960  143.3500 C   0  0  0  0  0  2  0  0  0  0  0  0
  184.9110  178.0350  143.1020 N   0  0  0  0  0  0  0  0  0  0  0  0
  183.9500  180.0150  144.1480 C   0  0  0  0  0  2  0  0  0  0  0  0
  183.6940  177.8080  142.3230 C   0  0  0  0  0  2  0  0  0  0  0  0
  184.7390  178.7300  144.3750 C   0  0  0  0  0  2  0  0  0  0  0  0
  181.7860  178.7850  141.3920 C   0  0  0  0  0  1  0  0  0  0  0  0
  190.8140  178.2420  145.2480 C   0  0  1  0  0  3  0  0  0  0  0  0
  191.9810  177.6340  145.7110 O   0  0  0  0  0  1  0  0  0  0  0  0
  191.1380  179.1660  144.0840 C   0  0  0  0  0  1  0  0  0  0  0  0
  188.9850  178.9850  137.0380 C   0  0  0  0  0  2  0  0  0  0  0  0
  187.6810  177.1500  136.1600 N   0  0  0  0  0  0  0  0  0  0  0  0
  187.9250  178.4140  136.1550 C   0  0  0  0  0  3  0  0  0  0  0  0
  185.9980  177.6070  134.4620 C   0  0  0  0  0  1  0  0  0  0  0  0
  186.6680  176.5450  135.3170 C   0  0  1  0  0  0  0  0  0  0  0  0
  187.2780  175.6210  134.4680 O   0  0  0  0  0  1  0  0  0  0  0  0
  184.9420  176.7790  137.1530 C   0  0  0  0  0  1  0  0  0  0  0  0
  185.6000  175.8390  136.1550 C   0  0  0  0  0  2  0  0  0  0  0  0
  1 24  1  6  0  0  0
  1 10  1  0  0  0  0
  2 11  1  0  0  0  0
  2  6  1  0  0  0  0
  3  9  1  0  0  0  0
  3  6  1  0  0  0  0
  4 12  2  0  0  0  0
  4 15  1  0  0  0  0
  5 15  1  0  0  0  0
  6  1  1  0  0  0  0
  7  5  1  0  0  0  0
  8  4  1  0  0  0  0
  9 16  1  0  0  0  0
 11  6  1  0  0  0  0
 12 13  1  0  0  0  0
 13 19  1  0  0  0  0
 13  9  2  0  0  0  0
 14  7  1  0  0  0  0
 14  8  2  0  0  0  0
 15  3  2  0  0  0  0
 16 10  1  0  0  0  0
 17 21  1  0  0  0  0
 17 18  1  0  0  0  0
 18 20  1  0  0  0  0
 19 22  1  0  0  0  0
 20 22  1  0  0  0  0
 21 19  1  0  0  0  0
 23 17  1  0  0  0  0
 24 26  1  6  0  0  0
 24 25  1  0  0  0  0
 27 14  1  0  0  0  0
 29 28  2  0  0  0  0
 29 27  1  0  0  0  0
 31 30  1  6  0  0  0
 31 34  1  0  0  0  0
 31 28  1  0  0  0  0
 32 31  1  0  0  0  0
 34 33  1  0  0  0  0
M  END
>  <MODEL>
6

>  <REMARK>
 VINA RESULT:      -7.5      2.094      7.311
  Name = 
  6 active torsions:
  status: ('A' for Active; 'I' for Inactive)
    1  A    between atoms: C_1  and  C_6
    2  A    between atoms: C_3  and  C_29
    3  A    between atoms: C_3  and  C_33
    4  A    between atoms: N_12  and  C_28
    5  A    between atoms: N_13  and  C_20
    6  A    between atoms: C_20  and  C_22
                            x       y       z     vdW  Elec       q    Type
                         _______ _______ _______ _____ _____    ______ ____

>  <TORSDO>
F 6

$$$$
=
 OpenBabel10272400093D

 34 38  0  0  1  0  0  0  0  0999 V2000
  187.0580  176.5820  136.2760 C   0  0  2  0  0  3  0  0  0  0  0  0
  189.4890  177.4640  136.8380 C   0  0  0  0  0  2  0  0  0  0  0  0
  187.4950  177.7540  138.5760 C   0  0  0  0  0  0  0  0  0  0  0  0
  187.7120  178.1690  140.9660 C   0  0  0  0  0  0  0  0  0  0  0  0
  189.6800  177.1860  139.7750 C   0  0  0  0  0  2  0  0  0  0  0  0
  188.0190  177.3410  137.2150 C   0  0  0  0  0  0  0  0  0  0  0  0
  190.5480  177.9160  140.8030 C   0  0  0  0  0  2  0  0  0  0  0  0
  188.5260  178.1850  142.1940 C   0  0  0  0  0  3  0  0  0  0  0  0
  186.1340  178.1240  138.6510 C   0  0  0  0  0  0  0  0  0  0  0  0
  185.5760  176.7740  136.6460 C   0  0  0  0  0  2  0  0  0  0  0  0
  188.5300  178.5760  136.4890 C   0  0  0  0  0  2  0  0  0  0  0  0
  186.3760  178.5580  141.0220 C   0  0  0  0  0  3  0  0  0  0  0  0
  185.5680  178.5330  139.8800 C   0  0  0  0  0  0  0  0  0  0  0  0
  189.8500  178.0160  142.1330 C   0  0  0  0  0  0  0  0  0  0  0  0
  188.2810  177.7470  139.7500 C   0  0  0  0  0  0  0  0  0  0  0  0
  185.3200  178.0890  137.3850 C   0  0  0  0  0  2  0  0  0  0  0  0
  182.3730  177.4850  139.3780 N   0  0  0  0  0  0  0  0  0  0  0  0
  181.6940  178.6290  138.7700 C   0  0  0  0  0  2  0  0  0  0  0  0
  184.1850  178.9150  139.9870 N   0  0  0  0  0  0  0  0  0  0  0  0
  182.7160  179.5940  138.1660 C   0  0  0  0  0  2  0  0  0  0  0  0
  183.1910  177.9690  140.4900 C   0  0  0  0  0  2  0  0  0  0  0  0
  183.6650  180.0700  139.2610 C   0  0  0  0  0  2  0  0  0  0  0  0
  181.3410  176.6430  139.9550 C   0  0  0  0  0  1  0  0  0  0  0  0
  187.3760  175.0880  136.1580 C   0  0  1  0  0  3  0  0  0  0  0  0
  186.9480  174.4040  137.2950 O   0  0  0  0  0  1  0  0  0  0  0  0
  186.7660  174.4590  134.9140 C   0  0  0  0  0  1  0  0  0  0  0  0
  190.6490  177.9610  143.3920 C   0  0  0  0  0  2  0  0  0  0  0  0
  189.7310  178.0090  145.6270 N   0  0  0  0  0  0  0  0  0  0  0  0
  189.8380  177.3850  144.5070 C   0  0  0  0  0  3  0  0  0  0  0  0
  187.5020  177.3480  146.3480 C   0  0  0  0  0  1  0  0  0  0  0  0
  188.9630  177.4890  146.7410 C   0  0  1  0  0  0  0  0  0  0  0  0
  189.4490  176.2250  147.0770 O   0  0  0  0  0  1  0  0  0  0  0  0
  188.0050  178.0870  149.0060 C   0  0  0  0  0  1  0  0  0  0  0  0
  189.0600  178.4110  147.9590 C   0  0  0  0  0  2  0  0  0  0  0  0
  1 24  1  1  0  0  0
  1 10  1  0  0  0  0
  1  6  1  0  0  0  0
  2  6  1  0  0  0  0
  3  9  2  0  0  0  0
  3 15  1  0  0  0  0
  4 12  1  0  0  0  0
  4  8  1  0  0  0  0
  5  7  1  0  0  0  0
  6  3  1  0  0  0  0
  7 14  1  0  0  0  0
  9 13  1  0  0  0  0
 10 16  1  0  0  0  0
 11  2  1  0  0  0  0
 11  6  1  0  0  0  0
 13 19  1  0  0  0  0
 13 12  2  0  0  0  0
 14  8  2  0  0  0  0
 14 27  1  0  0  0  0
 15  5  1  0  0  0  0
 15  4  2  0  0  0  0
 16  9  1  0  0  0  0
 17 23  1  0  0  0  0
 17 21  1  0  0  0  0
 18 17  1  0  0  0  0
 19 21  1  0  0  0  0
 20 18  1  0  0  0  0
 20 22  1  0  0  0  0
 22 19  1  0  0  0  0
 24 26  1  6  0  0  0
 24 25  1  0  0  0  0
 27 29  1  0  0  0  0
 28 31  1  0  0  0  0
 29 28  2  0  0  0  0
 31 30  1  6  0  0  0
 31 32  1  0  0  0  0
 31 34  1  0  0  0  0
 34 33  1  0  0  0  0
M  END
>  <MODEL>
7

>  <REMARK>
 VINA RESULT:      -7.3      1.687      2.241
  Name = 
  6 active torsions:
  status: ('A' for Active; 'I' for Inactive)
    1  A    between atoms: C_1  and  C_6
    2  A    between atoms: C_3  and  C_29
    3  A    between atoms: C_3  and  C_33
    4  A    between atoms: N_12  and  C_28
    5  A    between atoms: N_13  and  C_20
    6  A    between atoms: C_20  and  C_22
                            x       y       z     vdW  Elec       q    Type
                         _______ _______ _______ _____ _____    ______ ____

>  <TORSDO>
F 6

$$$$
=
 OpenBabel10272400093D

 34 38  0  0  1  0  0  0  0  0999 V2000
  188.4680  176.5040  135.2710 C   0  0  2  0  0  3  0  0  0  0  0  0
  187.5320  175.9200  137.6760 C   0  0  0  0  0  2  0  0  0  0  0  0
  190.1370  176.2930  137.2770 C   0  0  0  0  0  0  0  0  0  0  0  0
  191.7980  176.8150  138.9790 C   0  0  0  0  0  0  0  0  0  0  0  0
  189.4010  177.2910  139.5130 C   0  0  0  0  0  2  0  0  0  0  0  0
  188.7190  176.1650  136.7540 C   0  0  0  0  0  0  0  0  0  0  0  0
  189.7670  177.0110  140.9720 C   0  0  0  0  0  2  0  0  0  0  0  0
  192.1390  177.2720  140.3380 C   0  0  0  0  0  3  0  0  0  0  0  0
  191.1790  175.9680  136.3810 C   0  0  0  0  0  0  0  0  0  0  0  0
  189.7470  176.4540  134.4150 C   0  0  0  0  0  2  0  0  0  0  0  0
  188.2240  174.7510  137.0180 C   0  0  0  0  0  2  0  0  0  0  0  0
  192.8160  176.4660  138.0970 C   0  0  0  0  0  3  0  0  0  0  0  0
  192.5290  176.0500  136.7910 C   0  0  0  0  0  0  0  0  0  0  0  0
  191.1870  177.4160  141.2650 C   0  0  0  0  0  0  0  0  0  0  0  0
  190.4520  176.7500  138.5760 C   0  0  0  0  0  0  0  0  0  0  0  0
  190.8070  175.5150  134.9950 C   0  0  0  0  0  2  0  0  0  0  0  0
  195.8620  175.3980  136.6320 N   0  0  0  0  0  0  0  0  0  0  0  0
  196.3340  176.1400  135.4620 C   0  0  0  0  0  2  0  0  0  0  0  0
  193.6130  175.7250  135.9010 N   0  0  0  0  0  0  0  0  0  0  0  0
  195.3400  177.2430  135.0970 C   0  0  0  0  0  2  0  0  0  0  0  0
  194.6110  174.7270  136.2810 C   0  0  0  0  0  2  0  0  0  0  0  0
  193.9800  176.6180  134.8060 C   0  0  0  0  0  2  0  0  0  0  0  0
  196.8380  174.3550  136.8880 C   0  0  0  0  0  1  0  0  0  0  0  0
  187.7560  177.8440  135.0650 C   0  0  1  0  0  3  0  0  0  0  0  0
  186.3950  177.6450  134.8310 O   0  0  0  0  0  1  0  0  0  0  0  0
  187.9460  178.7930  136.2390 C   0  0  0  0  0  1  0  0  0  0  0  0
  191.5400  177.9500  142.6120 C   0  0  0  0  0  2  0  0  0  0  0  0
  190.1650  178.1950  144.5850 N   0  0  0  0  0  0  0  0  0  0  0  0
  190.6010  177.4260  143.6490 C   0  0  0  0  0  3  0  0  0  0  0  0
  189.8940  176.5960  146.4000 C   0  0  0  0  0  1  0  0  0  0  0  0
  189.2590  177.7330  145.6180 C   0  0  1  0  0  0  0  0  0  0  0  0
  189.0070  178.7830  146.5020 O   0  0  0  0  0  1  0  0  0  0  0  0
  186.7420  177.6570  145.8620 C   0  0  0  0  0  1  0  0  0  0  0  0
  187.9390  177.2440  145.0190 C   0  0  0  0  0  2  0  0  0  0  0  0
  1 24  1  1  0  0  0
  1  6  1  0  0  0  0
  3 15  1  0  0  0  0
  4  8  1  0  0  0  0
  5  7  1  0  0  0  0
  6 11  1  0  0  0  0
  6  3  1  0  0  0  0
  6  2  1  0  0  0  0
  7 14  1  0  0  0  0
  8 14  2  0  0  0  0
  9 13  1  0  0  0  0
  9  3  2  0  0  0  0
 10 16  1  0  0  0  0
 10  1  1  0  0  0  0
 11  2  1  0  0  0  0
 12  4  1  0  0  0  0
 13 12  2  0  0  0  0
 14 27  1  0  0  0  0
 15  4  2  0  0  0  0
 15  5  1  0  0  0  0
 16  9  1  0  0  0  0
 17 23  1  0  0  0  0
 18 17  1  0  0  0  0
 19 21  1  0  0  0  0
 19 13  1  0  0  0  0
 20 18  1  0  0  0  0
 21 17  1  0  0  0  0
 22 20  1  0  0  0  0
 22 19  1  0  0  0  0
 24 26  1  1  0  0  0
 25 24  1  0  0  0  0
 27 29  1  0  0  0  0
 28 31  1  0  0  0  0
 29 28  2  0  0  0  0
 31 30  1  1  0  0  0
 31 32  1  0  0  0  0
 34 31  1  0  0  0  0
 34 33  1  0  0  0  0
M  END
>  <MODEL>
8

>  <REMARK>
 VINA RESULT:      -7.3      3.934      6.991
  Name = 
  6 active torsions:
  status: ('A' for Active; 'I' for Inactive)
    1  A    between atoms: C_1  and  C_6
    2  A    between atoms: C_3  and  C_29
    3  A    between atoms: C_3  and  C_33
    4  A    between atoms: N_12  and  C_28
    5  A    between atoms: N_13  and  C_20
    6  A    between atoms: C_20  and  C_22
                            x       y       z     vdW  Elec       q    Type
                         _______ _______ _______ _____ _____    ______ ____

>  <TORSDO>
F 6

$$$$
=
 OpenBabel10272400093D

 34 38  0  0  1  0  0  0  0  0999 V2000
  186.8050  175.6070  135.4560 C   0  0  2  0  0  3  0  0  0  0  0  0
  189.3720  176.2420  135.3680 C   0  0  0  0  0  2  0  0  0  0  0  0
  187.8590  176.9530  137.4380 C   0  0  0  0  0  0  0  0  0  0  0  0
  188.6490  177.5880  139.6530 C   0  0  0  0  0  0  0  0  0  0  0  0
  190.1950  176.2530  138.2080 C   0  0  0  0  0  2  0  0  0  0  0  0
  188.0210  176.3380  136.0620 C   0  0  0  0  0  0  0  0  0  0  0  0
  191.3380  176.9770  138.9240 C   0  0  0  0  0  2  0  0  0  0  0  0
  189.7170  177.6340  140.6670 C   0  0  0  0  0  3  0  0  0  0  0  0
  186.5920  177.4910  137.7520 C   0  0  0  0  0  0  0  0  0  0  0  0
  185.4700  176.0160  136.1040 C   0  0  0  0  0  2  0  0  0  0  0  0
  188.4700  177.4190  135.0900 C   0  0  0  0  0  2  0  0  0  0  0  0
  187.4040  178.1400  139.9410 C   0  0  0  0  0  3  0  0  0  0  0  0
  186.3600  178.0930  139.0100 C   0  0  0  0  0  0  0  0  0  0  0  0
  190.9710  177.3000  140.3480 C   0  0  0  0  0  0  0  0  0  0  0  0
  188.8860  176.9750  138.4080 C   0  0  0  0  0  0  0  0  0  0  0  0
  185.5130  177.4220  136.7050 C   0  0  0  0  0  2  0  0  0  0  0  0
  183.9830  178.2260  141.4360 N   0  0  0  0  0  0  0  0  0  0  0  0
  182.7110  178.1040  140.7240 C   0  0  0  0  0  2  0  0  0  0  0  0
  185.0800  178.6500  139.3590 N   0  0  0  0  0  0  0  0  0  0  0  0
  182.9350  177.4940  139.3390 C   0  0  0  0  0  2  0  0  0  0  0  0
  184.8360  179.1620  140.7060 C   0  0  0  0  0  2  0  0  0  0  0  0
  183.8950  178.3780  138.5500 C   0  0  0  0  0  2  0  0  0  0  0  0
  183.6880  178.8410  142.7170 C   0  0  0  0  0  1  0  0  0  0  0  0
  186.9440  174.0820  135.4670 C   0  0  1  0  0  3  0  0  0  0  0  0
  188.0660  173.6870  134.7370 O   0  0  0  0  0  1  0  0  0  0  0  0
  187.0160  173.5120  136.8760 C   0  0  0  0  0  1  0  0  0  0  0  0
  192.0240  177.2820  141.4040 C   0  0  0  0  0  2  0  0  0  0  0  0
  190.9240  176.9760  143.5340 N   0  0  0  0  0  0  0  0  0  0  0  0
  191.4800  177.7840  142.7010 C   0  0  0  0  0  3  0  0  0  0  0  0
  191.2270  176.8980  145.9480 C   0  0  0  0  0  1  0  0  0  0  0  0
  190.3740  177.4150  144.8010 C   0  0  1  0  0  0  0  0  0  0  0  0
  190.3870  178.8100  144.8420 O   0  0  0  0  0  1  0  0  0  0  0  0
  187.9830  177.5350  143.9810 C   0  0  0  0  0  1  0  0  0  0  0  0
  188.9400  176.9130  144.9870 C   0  0  0  0  0  2  0  0  0  0  0  0
  1 24  1  1  0  0  0
  1  6  1  0  0  0  0
  1 10  1  0  0  0  0
  2  6  1  0  0  0  0
  3  9  2  0  0  0  0
  3 15  1  0  0  0  0
  4 12  1  0  0  0  0
  4  8  1  0  0  0  0
  5 15  1  0  0  0  0
  5  7  1  0  0  0  0
  6  3  1  0  0  0  0
  7 14  1  0  0  0  0
  9 13  1  0  0  0  0
 10 16  1  0  0  0  0
 11  2  1  0  0  0  0
 11  6  1  0  0  0  0
 13 19  1  0  0  0  0
 13 12  2  0  0  0  0
 14  8  2  0  0  0  0
 14 27  1  0  0  0  0
 15  4  2  0  0  0  0
 16  9  1  0  0  0  0
 17 23  1  0  0  0  0
 18 17  1  0  0  0  0
 19 21  1  0  0  0  0
 20 18  1  0  0  0  0
 21 17  1  0  0  0  0
 22 20  1  0  0  0  0
 22 19  1  0  0  0  0
 24 26  1  1  0  0  0
 25 24  1  0  0  0  0
 27 29  1  0  0  0  0
 28 31  1  0  0  0  0
 29 28  2  0  0  0  0
 31 32  1  0  0  0  0
 31 34  1  0  0  0  0
 31 30  1  1  0  0  0
 33 34  1  0  0  0  0
M  END
>  <MODEL>
9

>  <REMARK>
 VINA RESULT:      -7.2      1.637      2.236
  Name = 
  6 active torsions:
  status: ('A' for Active; 'I' for Inactive)
    1  A    between atoms: C_1  and  C_6
    2  A    between atoms: C_3  and  C_29
    3  A    between atoms: C_3  and  C_33
    4  A    between atoms: N_12  and  C_28
    5  A    between atoms: N_13  and  C_20
    6  A    between atoms: C_20  and  C_22
                            x       y       z     vdW  Elec       q    Type
                         _______ _______ _______ _____ _____    ______ ____

>  <TORSDO>
F 6

$$$$
