=
 OpenBabel10272401083D

 27 30  0  0  0  0  0  0  0  0999 V2000
  188.6250  178.1330  141.4220 N   0  0  0  0  0  0  0  0  0  0  0  0
  186.7300  178.2810  142.9960 C   0  0  0  0  0  3  0  0  0  0  0  0
  183.1590  178.9130  142.4300 N   0  0  0  0  0  0  0  0  0  0  0  0
  181.2760  179.1020  143.9190 N   0  0  0  0  0  1  0  0  0  0  0  0
  186.3230  178.5450  140.6210 C   0  0  0  0  0  3  0  0  0  0  0  0
  184.8790  178.4600  144.5530 C   0  0  0  0  0  3  0  0  0  0  0  0
  183.5170  178.6650  144.7820 C   0  0  0  0  0  3  0  0  0  0  0  0
  185.3720  178.4830  143.2490 C   0  0  0  0  0  0  0  0  0  0  0  0
  182.6650  178.8920  143.6970 C   0  0  0  0  0  0  0  0  0  0  0  0
  184.4810  178.7150  142.1790 C   0  0  0  0  0  0  0  0  0  0  0  0
  187.2160  178.3040  141.6790 C   0  0  0  0  0  0  0  0  0  0  0  0
  184.9630  178.7460  140.8700 C   0  0  0  0  0  3  0  0  0  0  0  0
  191.3110  176.6880  144.4000 C   0  0  0  0  0  3  0  0  0  0  0  0
  189.5270  177.6460  142.4440 C   0  0  0  0  0  0  0  0  0  0  0  0
  190.2400  178.5380  143.2670 C   0  0  0  0  0  3  0  0  0  0  0  0
  191.1230  178.0630  144.2400 C   0  0  0  0  0  3  0  0  0  0  0  0
  190.6190  175.7900  143.5860 C   0  0  0  0  0  3  0  0  0  0  0  0
  189.7360  176.2660  142.6140 C   0  0  0  0  0  3  0  0  0  0  0  0
  189.1770  178.6030  140.1470 C   0  0  0  0  0  2  0  0  0  0  0  0
  192.1410  177.5630  140.2450 Cl  0  0  0  0  0  0  0  0  0  0  0  0
  190.1510  175.2800  137.5950 C   0  0  0  0  0  0  0  0  0  0  0  0
  190.5250  173.9210  136.5590 Cl  0  0  0  0  0  0  0  0  0  0  0  0
  189.5520  177.4570  139.2560 C   0  0  0  0  0  0  0  0  0  0  0  0
  191.1430  175.8270  138.4140 C   0  0  0  0  0  3  0  0  0  0  0  0
  188.8630  175.8190  137.6040 C   0  0  0  0  0  3  0  0  0  0  0  0
  188.5660  176.9030  138.4320 C   0  0  0  0  0  3  0  0  0  0  0  0
  190.8530  176.9120  139.2450 C   0  0  0  0  0  0  0  0  0  0  0  0
  1 11  1  0  0  0  0
  1 14  1  0  0  0  0
  2  8  1  0  0  0  0
  3  9  1  0  0  0  0
  5 12  2  0  0  0  0
  5 11  1  0  0  0  0
  6  7  1  0  0  0  0
  8  6  2  0  0  0  0
  9  4  1  0  0  0  0
  9  7  2  0  0  0  0
 10  3  2  0  0  0  0
 10  8  1  0  0  0  0
 11  2  2  0  0  0  0
 12 10  1  0  0  0  0
 14 18  2  0  0  0  0
 14 15  1  0  0  0  0
 15 16  2  0  0  0  0
 16 13  1  0  0  0  0
 17 13  2  0  0  0  0
 18 17  1  0  0  0  0
 19  1  1  0  0  0  0
 21 25  2  0  0  0  0
 21 24  1  0  0  0  0
 22 21  1  0  0  0  0
 23 19  1  0  0  0  0
 24 27  2  0  0  0  0
 25 26  1  0  0  0  0
 26 23  2  0  0  0  0
 27 23  1  0  0  0  0
 27 20  1  0  0  0  0
M  END
>  <MODEL>
1

>  <REMARK>
 VINA RESULT:      -8.0      0.000      0.000
  Name = 
  4 active torsions:
  status: ('A' for Active; 'I' for Inactive)
    1  A    between atoms: C_1  and  N_15
    2  A    between atoms: C_1  and  C_18
    3  A    between atoms: C_9  and  N_15
    4  A    between atoms: N_15  and  C_19
                            x       y       z     vdW  Elec       q    Type
                         _______ _______ _______ _____ _____    ______ ____

>  <TORSDO>
F 4

$$$$
=
 OpenBabel10272401083D

 27 30  0  0  0  0  0  0  0  0999 V2000
  188.2610  178.0970  141.9120 N   0  0  0  0  0  0  0  0  0  0  0  0
  185.8270  178.4270  141.6780 C   0  0  0  0  0  3  0  0  0  0  0  0
  183.1470  178.5330  144.1840 N   0  0  0  0  0  0  0  0  0  0  0  0
  180.7610  178.8170  144.0150 N   0  0  0  0  0  1  0  0  0  0  0  0
  186.7770  178.1390  143.8880 C   0  0  0  0  0  3  0  0  0  0  0  0
  183.4310  178.7180  141.4340 C   0  0  0  0  0  3  0  0  0  0  0  0
  182.1670  178.8150  142.0200 C   0  0  0  0  0  3  0  0  0  0  0  0
  184.5530  178.5280  142.2410 C   0  0  0  0  0  0  0  0  0  0  0  0
  182.0450  178.7200  143.4090 C   0  0  0  0  0  0  0  0  0  0  0  0
  184.3900  178.4360  143.6390 C   0  0  0  0  0  0  0  0  0  0  0  0
  186.9500  178.2380  142.4970 C   0  0  0  0  0  0  0  0  0  0  0  0
  185.5040  178.2400  144.4560 C   0  0  0  0  0  3  0  0  0  0  0  0
  191.4920  176.2780  144.0160 C   0  0  0  0  0  3  0  0  0  0  0  0
  189.3520  177.4840  142.6400 C   0  0  0  0  0  0  0  0  0  0  0  0
  190.3580  178.2670  143.2330 C   0  0  0  0  0  3  0  0  0  0  0  0
  191.4190  177.6690  143.9190 C   0  0  0  0  0  3  0  0  0  0  0  0
  190.5070  175.4860  143.4240 C   0  0  0  0  0  3  0  0  0  0  0  0
  189.4470  176.0840  142.7390 C   0  0  0  0  0  3  0  0  0  0  0  0
  188.5300  178.7210  140.6120 C   0  0  0  0  0  2  0  0  0  0  0  0
  186.4230  178.0530  138.3780 Cl  0  0  0  0  0  0  0  0  0  0  0  0
  189.6870  175.8110  137.6620 C   0  0  0  0  0  0  0  0  0  0  0  0
  190.1800  174.6340  136.4650 Cl  0  0  0  0  0  0  0  0  0  0  0  0
  188.8970  177.6970  139.5790 C   0  0  0  0  0  0  0  0  0  0  0  0
  188.4250  176.4050  137.5780 C   0  0  0  0  0  3  0  0  0  0  0  0
  190.5530  176.1560  138.7010 C   0  0  0  0  0  3  0  0  0  0  0  0
  190.1580  177.0960  139.6550 C   0  0  0  0  0  3  0  0  0  0  0  0
  188.0230  177.3470  138.5290 C   0  0  0  0  0  0  0  0  0  0  0  0
  1 11  1  0  0  0  0
  1 14  1  0  0  0  0
  2  8  2  0  0  0  0
  2 11  1  0  0  0  0
  5 12  1  0  0  0  0
  6  7  2  0  0  0  0
  6  8  1  0  0  0  0
  7  9  1  0  0  0  0
  8 10  1  0  0  0  0
  9  4  1  0  0  0  0
  9  3  2  0  0  0  0
 10  3  1  0  0  0  0
 10 12  2  0  0  0  0
 11  5  2  0  0  0  0
 14 18  2  0  0  0  0
 14 15  1  0  0  0  0
 15 16  2  0  0  0  0
 16 13  1  0  0  0  0
 17 13  2  0  0  0  0
 18 17  1  0  0  0  0
 19  1  1  0  0  0  0
 20 27  1  0  0  0  0
 21 25  1  0  0  0  0
 22 21  1  0  0  0  0
 23 26  1  0  0  0  0
 23 19  1  0  0  0  0
 24 21  2  0  0  0  0
 24 27  1  0  0  0  0
 25 26  2  0  0  0  0
 27 23  2  0  0  0  0
M  END
>  <MODEL>
2

>  <REMARK>
 VINA RESULT:      -7.5      1.433      2.133
  Name = 
  4 active torsions:
  status: ('A' for Active; 'I' for Inactive)
    1  A    between atoms: C_1  and  N_15
    2  A    between atoms: C_1  and  C_18
    3  A    between atoms: C_9  and  N_15
    4  A    between atoms: N_15  and  C_19
                            x       y       z     vdW  Elec       q    Type
                         _______ _______ _______ _____ _____    ______ ____

>  <TORSDO>
F 4

$$$$
=
 OpenBabel10272401083D

 27 30  0  0  0  0  0  0  0  0999 V2000
  188.4560  178.0830  141.9510 N   0  0  0  0  0  0  0  0  0  0  0  0
  186.0390  178.4340  141.6020 C   0  0  0  0  0  3  0  0  0  0  0  0
  183.2420  178.5310  143.9760 N   0  0  0  0  0  0  0  0  0  0  0  0
  180.8680  178.8340  143.6950 N   0  0  0  0  0  1  0  0  0  0  0  0
  186.8790  178.1140  143.8530 C   0  0  0  0  0  3  0  0  0  0  0  0
  183.6600  178.7450  141.2460 C   0  0  0  0  0  3  0  0  0  0  0  0
  182.3700  178.8440  141.7700 C   0  0  0  0  0  3  0  0  0  0  0  0
  184.7400  178.5370  142.1030 C   0  0  0  0  0  0  0  0  0  0  0  0
  182.1790  178.7340  143.1500 C   0  0  0  0  0  0  0  0  0  0  0  0
  184.5080  178.4310  143.4910 C   0  0  0  0  0  0  0  0  0  0  0  0
  187.1200  178.2270  142.4730 C   0  0  0  0  0  0  0  0  0  0  0  0
  185.5800  178.2180  144.3590 C   0  0  0  0  0  3  0  0  0  0  0  0
  191.5600  176.1830  144.1710 C   0  0  0  0  0  3  0  0  0  0  0  0
  189.5030  177.4410  142.7180 C   0  0  0  0  0  0  0  0  0  0  0  0
  190.4320  178.1990  143.4530 C   0  0  0  0  0  3  0  0  0  0  0  0
  191.4520  177.5750  144.1770 C   0  0  0  0  0  3  0  0  0  0  0  0
  190.6520  175.4160  143.4390 C   0  0  0  0  0  3  0  0  0  0  0  0
  189.6340  176.0410  142.7160 C   0  0  0  0  0  3  0  0  0  0  0  0
  188.7970  178.7320  140.6800 C   0  0  0  0  0  2  0  0  0  0  0  0
  191.6810  177.5570  140.2470 Cl  0  0  0  0  0  0  0  0  0  0  0  0
  189.2540  175.8140  137.5510 C   0  0  0  0  0  0  0  0  0  0  0  0
  189.4170  174.6200  136.2830 Cl  0  0  0  0  0  0  0  0  0  0  0  0
  188.9930  177.7250  139.5860 C   0  0  0  0  0  0  0  0  0  0  0  0
  190.3670  176.1800  138.3140 C   0  0  0  0  0  3  0  0  0  0  0  0
  188.0130  176.4020  137.8030 C   0  0  0  0  0  3  0  0  0  0  0  0
  187.8840  177.3530  138.8170 C   0  0  0  0  0  3  0  0  0  0  0  0
  190.2460  177.1310  139.3300 C   0  0  0  0  0  0  0  0  0  0  0  0
  1 11  1  0  0  0  0
  1 14  1  0  0  0  0
  2  8  2  0  0  0  0
  2 11  1  0  0  0  0
  5 12  1  0  0  0  0
  6  7  2  0  0  0  0
  6  8  1  0  0  0  0
  7  9  1  0  0  0  0
  8 10  1  0  0  0  0
  9  4  1  0  0  0  0
  9  3  2  0  0  0  0
 10  3  1  0  0  0  0
 10 12  2  0  0  0  0
 11  5  2  0  0  0  0
 13 16  1  0  0  0  0
 14 15  1  0  0  0  0
 15 16  2  0  0  0  0
 17 13  2  0  0  0  0
 18 14  2  0  0  0  0
 18 17  1  0  0  0  0
 19  1  1  0  0  0  0
 21 25  2  0  0  0  0
 21 24  1  0  0  0  0
 22 21  1  0  0  0  0
 23 19  1  0  0  0  0
 24 27  2  0  0  0  0
 25 26  1  0  0  0  0
 26 23  2  0  0  0  0
 27 23  1  0  0  0  0
 27 20  1  0  0  0  0
M  END
>  <MODEL>
3

>  <REMARK>
 VINA RESULT:      -7.5      0.863      1.556
  Name = 
  4 active torsions:
  status: ('A' for Active; 'I' for Inactive)
    1  A    between atoms: C_1  and  N_15
    2  A    between atoms: C_1  and  C_18
    3  A    between atoms: C_9  and  N_15
    4  A    between atoms: N_15  and  C_19
                            x       y       z     vdW  Elec       q    Type
                         _______ _______ _______ _____ _____    ______ ____

>  <TORSDO>
F 4

$$$$
=
 OpenBabel10272401083D

 27 30  0  0  0  0  0  0  0  0999 V2000
  182.4950  178.1330  139.8710 N   0  0  0  0  0  0  0  0  0  0  0  0
  184.1060  178.0980  141.7390 C   0  0  0  0  0  3  0  0  0  0  0  0
  183.7720  179.1410  145.2420 N   0  0  0  0  0  0  0  0  0  0  0  0
  185.3100  179.1630  147.0960 N   0  0  0  0  0  1  0  0  0  0  0  0
  181.8550  178.9050  142.1300 C   0  0  0  0  0  3  0  0  0  0  0  0
  185.7080  178.0920  143.5610 C   0  0  0  0  0  3  0  0  0  0  0  0
  186.0060  178.3590  144.8990 C   0  0  0  0  0  3  0  0  0  0  0  0
  184.4280  178.3560  143.0730 C   0  0  0  0  0  0  0  0  0  0  0  0
  185.0160  178.8880  145.7310 C   0  0  0  0  0  0  0  0  0  0  0  0
  183.4550  178.8900  143.9440 C   0  0  0  0  0  0  0  0  0  0  0  0
  182.8160  178.3640  141.2580 C   0  0  0  0  0  0  0  0  0  0  0  0
  182.1720  179.1630  143.4660 C   0  0  0  0  0  3  0  0  0  0  0  0
  185.5490  177.2250  137.0380 C   0  0  0  0  0  3  0  0  0  0  0  0
  183.5230  177.8280  138.8980 C   0  0  0  0  0  0  0  0  0  0  0  0
  183.4890  176.6310  138.1590 C   0  0  0  0  0  3  0  0  0  0  0  0
  184.4920  176.3330  137.2340 C   0  0  0  0  0  3  0  0  0  0  0  0
  185.6020  178.4130  137.7690 C   0  0  0  0  0  3  0  0  0  0  0  0
  184.5980  178.7100  138.6940 C   0  0  0  0  0  3  0  0  0  0  0  0
  181.1210  178.3600  139.4120 C   0  0  0  0  0  2  0  0  0  0  0  0
  180.6570  177.8060  136.3520 Cl  0  0  0  0  0  0  0  0  0  0  0  0
  180.8520  181.7970  136.8370 C   0  0  0  0  0  0  0  0  0  0  0  0
  180.7340  183.2070  135.8080 Cl  0  0  0  0  0  0  0  0  0  0  0  0
  181.0400  179.5370  138.4850 C   0  0  0  0  0  0  0  0  0  0  0  0
  180.7240  180.5180  136.2870 C   0  0  0  0  0  3  0  0  0  0  0  0
  181.0750  181.9470  138.2070 C   0  0  0  0  0  3  0  0  0  0  0  0
  181.1680  180.8210  139.0270 C   0  0  0  0  0  3  0  0  0  0  0  0
  180.8160  179.3860  137.1010 C   0  0  0  0  0  0  0  0  0  0  0  0
  1 11  1  0  0  0  0
  2  8  1  0  0  0  0
  3  9  1  0  0  0  0
  5 12  2  0  0  0  0
  6  7  1  0  0  0  0
  7  9  2  0  0  0  0
  8  6  2  0  0  0  0
  8 10  1  0  0  0  0
  9  4  1  0  0  0  0
 10  3  2  0  0  0  0
 11  2  2  0  0  0  0
 11  5  1  0  0  0  0
 12 10  1  0  0  0  0
 13 16  2  0  0  0  0
 13 17  1  0  0  0  0
 14  1  1  0  0  0  0
 15 14  2  0  0  0  0
 16 15  1  0  0  0  0
 17 18  2  0  0  0  0
 18 14  1  0  0  0  0
 19  1  1  0  0  0  0
 20 27  1  0  0  0  0
 21 25  1  0  0  0  0
 22 21  1  0  0  0  0
 23 26  1  0  0  0  0
 23 19  1  0  0  0  0
 24 21  2  0  0  0  0
 24 27  1  0  0  0  0
 25 26  2  0  0  0  0
 27 23  2  0  0  0  0
M  END
>  <MODEL>
4

>  <REMARK>
 VINA RESULT:      -7.4      4.838      7.702
  Name = 
  4 active torsions:
  status: ('A' for Active; 'I' for Inactive)
    1  A    between atoms: C_1  and  N_15
    2  A    between atoms: C_1  and  C_18
    3  A    between atoms: C_9  and  N_15
    4  A    between atoms: N_15  and  C_19
                            x       y       z     vdW  Elec       q    Type
                         _______ _______ _______ _____ _____    ______ ____

>  <TORSDO>
F 4

$$$$
=
 OpenBabel10272401083D

 27 30  0  0  0  0  0  0  0  0999 V2000
  189.9710  177.3140  138.7890 N   0  0  0  0  0  0  0  0  0  0  0  0
  188.8160  177.3310  140.9690 C   0  0  0  0  0  3  0  0  0  0  0  0
  190.1210  177.2530  144.3980 N   0  0  0  0  0  0  0  0  0  0  0  0
  189.0490  177.2340  146.5560 N   0  0  0  0  0  1  0  0  0  0  0  0
  191.2380  177.2880  140.9100 C   0  0  0  0  0  3  0  0  0  0  0  0
  187.6710  177.3130  143.1070 C   0  0  0  0  0  3  0  0  0  0  0  0
  187.7310  177.2880  144.5010 C   0  0  0  0  0  3  0  0  0  0  0  0
  188.8510  177.3080  142.3640 C   0  0  0  0  0  0  0  0  0  0  0  0
  188.9770  177.2590  145.1350 C   0  0  0  0  0  0  0  0  0  0  0  0
  190.0900  177.2770  143.0390 C   0  0  0  0  0  0  0  0  0  0  0  0
  190.0090  177.3280  140.2310 C   0  0  0  0  0  0  0  0  0  0  0  0
  191.2790  177.2660  142.3070 C   0  0  0  0  0  3  0  0  0  0  0  0
  191.9480  174.3080  136.5010 C   0  0  0  0  0  3  0  0  0  0  0  0
  190.6510  176.2900  138.0230 C   0  0  0  0  0  0  0  0  0  0  0  0
  191.9550  176.4940  137.5370 C   0  0  0  0  0  3  0  0  0  0  0  0
  192.6000  175.5100  136.7840 C   0  0  0  0  0  3  0  0  0  0  0  0
  190.6500  174.0930  136.9690 C   0  0  0  0  0  3  0  0  0  0  0  0
  190.0060  175.0770  137.7210 C   0  0  0  0  0  3  0  0  0  0  0  0
  189.3570  178.4430  138.0820 C   0  0  0  0  0  2  0  0  0  0  0  0
  189.3680  177.6630  135.0370 Cl  0  0  0  0  0  0  0  0  0  0  0  0
  185.5870  177.2840  136.3630 C   0  0  0  0  0  0  0  0  0  0  0  0
  184.0470  176.8040  135.6840 Cl  0  0  0  0  0  0  0  0  0  0  0  0
  188.0550  178.0510  137.4490 C   0  0  0  0  0  0  0  0  0  0  0  0
  186.7320  177.2880  135.5610 C   0  0  0  0  0  3  0  0  0  0  0  0
  185.6730  177.6630  137.7030 C   0  0  0  0  0  3  0  0  0  0  0  0
  186.9030  178.0440  138.2430 C   0  0  0  0  0  3  0  0  0  0  0  0
  187.9660  177.6690  136.0950 C   0  0  0  0  0  0  0  0  0  0  0  0
  1 11  1  0  0  0  0
  2  8  1  0  0  0  0
  3  9  1  0  0  0  0
  5 12  2  0  0  0  0
  6  7  1  0  0  0  0
  7  9  2  0  0  0  0
  8 10  1  0  0  0  0
  8  6  2  0  0  0  0
  9  4  1  0  0  0  0
 10  3  2  0  0  0  0
 11  5  1  0  0  0  0
 11  2  2  0  0  0  0
 12 10  1  0  0  0  0
 13 16  2  0  0  0  0
 13 17  1  0  0  0  0
 14  1  1  0  0  0  0
 15 14  2  0  0  0  0
 16 15  1  0  0  0  0
 17 18  2  0  0  0  0
 18 14  1  0  0  0  0
 19  1  1  0  0  0  0
 20 27  1  0  0  0  0
 21 25  1  0  0  0  0
 22 21  1  0  0  0  0
 23 19  1  0  0  0  0
 23 26  1  0  0  0  0
 24 27  1  0  0  0  0
 24 21  2  0  0  0  0
 25 26  2  0  0  0  0
 27 23  2  0  0  0  0
M  END
>  <MODEL>
5

>  <REMARK>
 VINA RESULT:      -7.2      3.390      5.463
  Name = 
  4 active torsions:
  status: ('A' for Active; 'I' for Inactive)
    1  A    between atoms: C_1  and  N_15
    2  A    between atoms: C_1  and  C_18
    3  A    between atoms: C_9  and  N_15
    4  A    between atoms: N_15  and  C_19
                            x       y       z     vdW  Elec       q    Type
                         _______ _______ _______ _____ _____    ______ ____

>  <TORSDO>
F 4

$$$$
=
 OpenBabel10272401083D

 27 30  0  0  0  0  0  0  0  0999 V2000
  188.2520  178.3830  140.9570 N   0  0  0  0  0  0  0  0  0  0  0  0
  188.7110  177.9820  143.3480 C   0  0  0  0  0  3  0  0  0  0  0  0
  191.6110  176.4970  145.0390 N   0  0  0  0  0  0  0  0  0  0  0  0
  192.1010  176.0500  147.3540 N   0  0  0  0  0  1  0  0  0  0  0  0
  190.3810  177.3740  141.7010 C   0  0  0  0  0  3  0  0  0  0  0  0
  189.1380  177.5600  145.6980 C   0  0  0  0  0  3  0  0  0  0  0  0
  189.9860  177.0770  146.6960 C   0  0  0  0  0  3  0  0  0  0  0  0
  189.5420  177.5060  144.3640 C   0  0  0  0  0  0  0  0  0  0  0  0
  191.2300  176.5450  146.3440 C   0  0  0  0  0  0  0  0  0  0  0  0
  190.8040  176.9610  144.0470 C   0  0  0  0  0  0  0  0  0  0  0  0
  189.1270  177.9250  142.0090 C   0  0  0  0  0  0  0  0  0  0  0  0
  191.2170  176.8970  142.7150 C   0  0  0  0  0  3  0  0  0  0  0  0
  189.0000  177.3740  136.8830 C   0  0  0  0  0  3  0  0  0  0  0  0
  188.4910  178.0400  139.5710 C   0  0  0  0  0  0  0  0  0  0  0  0
  188.2670  176.7340  139.0980 C   0  0  0  0  0  3  0  0  0  0  0  0
  188.5160  176.4040  137.7630 C   0  0  0  0  0  3  0  0  0  0  0  0
  189.2370  178.6730  137.3380 C   0  0  0  0  0  3  0  0  0  0  0  0
  188.9870  179.0010  138.6730 C   0  0  0  0  0  3  0  0  0  0  0  0
  187.1860  179.3370  141.2830 C   0  0  0  0  0  2  0  0  0  0  0  0
  185.3760  178.2620  143.6170 Cl  0  0  0  0  0  0  0  0  0  0  0  0
  183.3070  177.8300  140.1920 C   0  0  0  0  0  0  0  0  0  0  0  0
  181.7290  177.2320  139.7300 Cl  0  0  0  0  0  0  0  0  0  0  0  0
  185.8350  178.7890  140.9330 C   0  0  0  0  0  0  0  0  0  0  0  0
  183.6890  177.8250  141.5360 C   0  0  0  0  0  3  0  0  0  0  0  0
  184.1850  178.3110  139.2190 C   0  0  0  0  0  3  0  0  0  0  0  0
  185.4430  178.7890  139.5900 C   0  0  0  0  0  3  0  0  0  0  0  0
  184.9470  178.3020  141.9140 C   0  0  0  0  0  0  0  0  0  0  0  0
  1 19  1  0  0  0  0
  1 11  1  0  0  0  0
  2  8  1  0  0  0  0
  3  9  1  0  0  0  0
  5 11  1  0  0  0  0
  5 12  2  0  0  0  0
  6  7  1  0  0  0  0
  8  6  2  0  0  0  0
  9  7  2  0  0  0  0
  9  4  1  0  0  0  0
 10  8  1  0  0  0  0
 10  3  2  0  0  0  0
 11  2  2  0  0  0  0
 12 10  1  0  0  0  0
 13 17  2  0  0  0  0
 13 16  1  0  0  0  0
 14  1  1  0  0  0  0
 15 14  1  0  0  0  0
 16 15  2  0  0  0  0
 17 18  1  0  0  0  0
 18 14  2  0  0  0  0
 21 24  1  0  0  0  0
 22 21  1  0  0  0  0
 23 19  1  0  0  0  0
 23 27  1  0  0  0  0
 24 27  2  0  0  0  0
 25 26  1  0  0  0  0
 25 21  2  0  0  0  0
 26 23  2  0  0  0  0
 27 20  1  0  0  0  0
M  END
>  <MODEL>
6

>  <REMARK>
 VINA RESULT:      -7.2      3.353      6.485
  Name = 
  4 active torsions:
  status: ('A' for Active; 'I' for Inactive)
    1  A    between atoms: C_1  and  N_15
    2  A    between atoms: C_1  and  C_18
    3  A    between atoms: C_9  and  N_15
    4  A    between atoms: N_15  and  C_19
                            x       y       z     vdW  Elec       q    Type
                         _______ _______ _______ _____ _____    ______ ____

>  <TORSDO>
F 4

$$$$
=
 OpenBabel10272401083D

 27 30  0  0  0  0  0  0  0  0999 V2000
  182.6350  178.2780  139.7490 N   0  0  0  0  0  0  0  0  0  0  0  0
  184.2090  178.2270  141.6480 C   0  0  0  0  0  3  0  0  0  0  0  0
  183.7330  178.9880  145.2060 N   0  0  0  0  0  0  0  0  0  0  0  0
  185.2300  178.9890  147.0930 N   0  0  0  0  0  1  0  0  0  0  0  0
  181.8970  178.8360  142.0400 C   0  0  0  0  0  3  0  0  0  0  0  0
  185.7720  178.2070  143.5020 C   0  0  0  0  0  3  0  0  0  0  0  0
  186.0250  178.3980  144.8620 C   0  0  0  0  0  3  0  0  0  0  0  0
  184.4860  178.4110  143.0040 C   0  0  0  0  0  0  0  0  0  0  0  0
  184.9830  178.7920  145.7060 C   0  0  0  0  0  0  0  0  0  0  0  0
  183.4590  178.8080  143.8860 C   0  0  0  0  0  0  0  0  0  0  0  0
  182.9110  178.4320  141.1560 C   0  0  0  0  0  0  0  0  0  0  0  0
  182.1690  179.0210  143.3990 C   0  0  0  0  0  3  0  0  0  0  0  0
  180.5060  181.2330  137.5320 C   0  0  0  0  0  3  0  0  0  0  0  0
  181.9020  179.2820  139.0070 C   0  0  0  0  0  0  0  0  0  0  0  0
  180.6770  178.9750  138.3870 C   0  0  0  0  0  3  0  0  0  0  0  0
  179.9820  179.9440  137.6580 C   0  0  0  0  0  3  0  0  0  0  0  0
  181.7250  181.5510  138.1340 C   0  0  0  0  0  3  0  0  0  0  0  0
  182.4180  180.5820  138.8630 C   0  0  0  0  0  3  0  0  0  0  0  0
  182.9740  177.0110  139.0920 C   0  0  0  0  0  2  0  0  0  0  0  0
  182.2290  176.0730  136.1860 Cl  0  0  0  0  0  0  0  0  0  0  0  0
  185.9200  177.6690  136.0270 C   0  0  0  0  0  0  0  0  0  0  0  0
  187.1260  177.9560  134.7920 Cl  0  0  0  0  0  0  0  0  0  0  0  0
  183.9870  177.2110  138.0050 C   0  0  0  0  0  0  0  0  0  0  0  0
  184.7040  177.0700  135.6890 C   0  0  0  0  0  3  0  0  0  0  0  0
  186.1720  178.0380  137.3500 C   0  0  0  0  0  3  0  0  0  0  0  0
  185.2080  177.8090  138.3330 C   0  0  0  0  0  3  0  0  0  0  0  0
  183.7340  176.8380  136.6680 C   0  0  0  0  0  0  0  0  0  0  0  0
  1 11  1  0  0  0  0
  2  8  1  0  0  0  0
  3  9  1  0  0  0  0
  5 12  2  0  0  0  0
  6  7  1  0  0  0  0
  7  9  2  0  0  0  0
  8  6  2  0  0  0  0
  8 10  1  0  0  0  0
  9  4  1  0  0  0  0
 10  3  2  0  0  0  0
 11  2  2  0  0  0  0
 11  5  1  0  0  0  0
 12 10  1  0  0  0  0
 13 16  2  0  0  0  0
 13 17  1  0  0  0  0
 14  1  1  0  0  0  0
 15 14  2  0  0  0  0
 16 15  1  0  0  0  0
 17 18  2  0  0  0  0
 18 14  1  0  0  0  0
 19  1  1  0  0  0  0
 20 27  1  0  0  0  0
 21 25  1  0  0  0  0
 22 21  1  0  0  0  0
 23 26  1  0  0  0  0
 23 19  1  0  0  0  0
 24 21  2  0  0  0  0
 24 27  1  0  0  0  0
 25 26  2  0  0  0  0
 27 23  2  0  0  0  0
M  END
>  <MODEL>
7

>  <REMARK>
 VINA RESULT:      -7.2      4.010      6.967
  Name = 
  4 active torsions:
  status: ('A' for Active; 'I' for Inactive)
    1  A    between atoms: C_1  and  N_15
    2  A    between atoms: C_1  and  C_18
    3  A    between atoms: C_9  and  N_15
    4  A    between atoms: N_15  and  C_19
                            x       y       z     vdW  Elec       q    Type
                         _______ _______ _______ _____ _____    ______ ____

>  <TORSDO>
F 4

$$$$
=
 OpenBabel10272401083D

 27 30  0  0  0  0  0  0  0  0999 V2000
  189.8490  177.6700  140.9550 N   0  0  0  0  0  0  0  0  0  0  0  0
  188.5540  177.5580  143.0520 C   0  0  0  0  0  3  0  0  0  0  0  0
  185.1970  178.7820  143.8900 N   0  0  0  0  0  0  0  0  0  0  0  0
  183.8980  178.7330  145.9180 N   0  0  0  0  0  1  0  0  0  0  0  0
  187.5640  178.6000  141.1000 C   0  0  0  0  0  3  0  0  0  0  0  0
  187.3020  177.4740  145.1270 C   0  0  0  0  0  3  0  0  0  0  0  0
  186.1390  177.7690  145.8410 C   0  0  0  0  0  3  0  0  0  0  0  0
  187.4000  177.8410  143.7860 C   0  0  0  0  0  0  0  0  0  0  0  0
  185.0870  178.4290  145.1990 C   0  0  0  0  0  0  0  0  0  0  0  0
  186.3180  178.5070  143.1720 C   0  0  0  0  0  0  0  0  0  0  0  0
  188.6420  177.9290  141.7020 C   0  0  0  0  0  0  0  0  0  0  0  0
  186.4070  178.8840  141.8310 C   0  0  0  0  0  3  0  0  0  0  0  0
  189.7960  175.4300  137.3280 C   0  0  0  0  0  3  0  0  0  0  0  0
  189.8300  176.8970  139.7310 C   0  0  0  0  0  0  0  0  0  0  0  0
  190.9680  176.1890  139.3040 C   0  0  0  0  0  3  0  0  0  0  0  0
  190.9510  175.4580  138.1130 C   0  0  0  0  0  3  0  0  0  0  0  0
  188.6610  176.1340  137.7330 C   0  0  0  0  0  3  0  0  0  0  0  0
  188.6790  176.8650  138.9240 C   0  0  0  0  0  3  0  0  0  0  0  0
  191.1390  178.0720  141.5260 C   0  0  0  0  0  2  0  0  0  0  0  0
  191.1260  179.9490  144.0480 Cl  0  0  0  0  0  0  0  0  0  0  0  0
  191.7320  176.1890  145.3490 C   0  0  0  0  0  0  0  0  0  0  0  0
  191.9630  175.4030  146.8950 Cl  0  0  0  0  0  0  0  0  0  0  0  0
  191.3600  177.4480  142.8720 C   0  0  0  0  0  0  0  0  0  0  0  0
  191.5390  177.5720  145.2900 C   0  0  0  0  0  3  0  0  0  0  0  0
  191.7400  175.4360  144.1740 C   0  0  0  0  0  3  0  0  0  0  0  0
  191.5540  176.0640  142.9410 C   0  0  0  0  0  3  0  0  0  0  0  0
  191.3530  178.2070  144.0600 C   0  0  0  0  0  0  0  0  0  0  0  0
  1 19  1  0  0  0  0
  1 11  1  0  0  0  0
  2  8  1  0  0  0  0
  3  9  1  0  0  0  0
  5 11  1  0  0  0  0
  5 12  2  0  0  0  0
  6  7  1  0  0  0  0
  8  6  2  0  0  0  0
  9  7  2  0  0  0  0
  9  4  1  0  0  0  0
 10  8  1  0  0  0  0
 10  3  2  0  0  0  0
 11  2  2  0  0  0  0
 12 10  1  0  0  0  0
 13 17  2  0  0  0  0
 13 16  1  0  0  0  0
 14  1  1  0  0  0  0
 15 14  1  0  0  0  0
 16 15  2  0  0  0  0
 17 18  1  0  0  0  0
 18 14  2  0  0  0  0
 19 23  1  0  0  0  0
 20 27  1  0  0  0  0
 21 22  1  0  0  0  0
 23 26  2  0  0  0  0
 23 27  1  0  0  0  0
 24 21  1  0  0  0  0
 25 21  2  0  0  0  0
 26 25  1  0  0  0  0
 27 24  2  0  0  0  0
M  END
>  <MODEL>
8

>  <REMARK>
 VINA RESULT:      -7.1      2.505      4.793
  Name = 
  4 active torsions:
  status: ('A' for Active; 'I' for Inactive)
    1  A    between atoms: C_1  and  N_15
    2  A    between atoms: C_1  and  C_18
    3  A    between atoms: C_9  and  N_15
    4  A    between atoms: N_15  and  C_19
                            x       y       z     vdW  Elec       q    Type
                         _______ _______ _______ _____ _____    ______ ____

>  <TORSDO>
F 4

$$$$
=
 OpenBabel10272401083D

 27 30  0  0  0  0  0  0  0  0999 V2000
  183.4330  178.5130  140.7540 N   0  0  0  0  0  0  0  0  0  0  0  0
  185.3020  178.0470  142.2950 C   0  0  0  0  0  3  0  0  0  0  0  0
  185.5940  178.4410  145.9330 N   0  0  0  0  0  0  0  0  0  0  0  0
  187.3940  178.0380  147.4820 N   0  0  0  0  0  1  0  0  0  0  0  0
  183.2110  178.8870  143.1860 C   0  0  0  0  0  3  0  0  0  0  0  0
  187.1570  177.6190  143.7980 C   0  0  0  0  0  3  0  0  0  0  0  0
  187.6770  177.6180  145.0940 C   0  0  0  0  0  3  0  0  0  0  0  0
  185.8440  178.0360  143.5820 C   0  0  0  0  0  0  0  0  0  0  0  0
  186.8730  178.0360  146.1580 C   0  0  0  0  0  0  0  0  0  0  0  0
  185.0620  178.4520  144.6810 C   0  0  0  0  0  0  0  0  0  0  0  0
  183.9790  178.4660  142.0880 C   0  0  0  0  0  0  0  0  0  0  0  0
  183.7490  178.8770  144.4760 C   0  0  0  0  0  3  0  0  0  0  0  0
  180.2570  175.9530  139.5150 C   0  0  0  0  0  3  0  0  0  0  0  0
  182.3550  177.6360  140.3460 C   0  0  0  0  0  0  0  0  0  0  0  0
  182.6030  176.2970  139.9930 C   0  0  0  0  0  3  0  0  0  0  0  0
  181.5620  175.4610  139.5840 C   0  0  0  0  0  3  0  0  0  0  0  0
  179.9950  177.2820  139.8530 C   0  0  0  0  0  3  0  0  0  0  0  0
  181.0360  178.1180  140.2620 C   0  0  0  0  0  3  0  0  0  0  0  0
  184.0830  179.3600  139.7480 C   0  0  0  0  0  2  0  0  0  0  0  0
  182.9050  178.1270  137.1080 Cl  0  0  0  0  0  0  0  0  0  0  0  0
  186.8000  177.1310  137.2670 C   0  0  0  0  0  0  0  0  0  0  0  0
  187.9240  176.2380  136.2660 Cl  0  0  0  0  0  0  0  0  0  0  0  0
  185.0010  178.5630  138.8700 C   0  0  0  0  0  0  0  0  0  0  0  0
  185.4690  177.2750  136.8660 C   0  0  0  0  0  3  0  0  0  0  0  0
  187.2330  177.6990  138.4670 C   0  0  0  0  0  3  0  0  0  0  0  0
  186.3360  178.4130  139.2640 C   0  0  0  0  0  3  0  0  0  0  0  0
  184.5660  177.9870  137.6590 C   0  0  0  0  0  0  0  0  0  0  0  0
  1 11  1  0  0  0  0
  2  8  1  0  0  0  0
  3  9  1  0  0  0  0
  5 12  2  0  0  0  0
  6  7  1  0  0  0  0
  7  9  2  0  0  0  0
  8  6  2  0  0  0  0
  8 10  1  0  0  0  0
  9  4  1  0  0  0  0
 10  3  2  0  0  0  0
 11  2  2  0  0  0  0
 11  5  1  0  0  0  0
 12 10  1  0  0  0  0
 13 16  2  0  0  0  0
 13 17  1  0  0  0  0
 14  1  1  0  0  0  0
 15 14  2  0  0  0  0
 16 15  1  0  0  0  0
 17 18  2  0  0  0  0
 18 14  1  0  0  0  0
 19  1  1  0  0  0  0
 20 27  1  0  0  0  0
 21 25  1  0  0  0  0
 22 21  1  0  0  0  0
 23 26  1  0  0  0  0
 23 19  1  0  0  0  0
 24 21  2  0  0  0  0
 24 27  1  0  0  0  0
 25 26  2  0  0  0  0
 27 23  2  0  0  0  0
M  END
>  <MODEL>
9

>  <REMARK>
 VINA RESULT:      -7.0      3.437      6.307
  Name = 
  4 active torsions:
  status: ('A' for Active; 'I' for Inactive)
    1  A    between atoms: C_1  and  N_15
    2  A    between atoms: C_1  and  C_18
    3  A    between atoms: C_9  and  N_15
    4  A    between atoms: N_15  and  C_19
                            x       y       z     vdW  Elec       q    Type
                         _______ _______ _______ _____ _____    ______ ____

>  <TORSDO>
F 4

$$$$
