=
 OpenBabel10272415003D

 37 43  0  0  1  0  0  0  0  0999 V2000
  186.3620  176.9700  144.4450 C   0  0  0  0  0  2  0  0  0  0  0  0
  191.0690  178.4760  143.3840 C   0  0  0  0  0  0  0  0  0  0  0  0
  185.6350  178.2800  144.7120 C   0  0  1  0  0  3  0  0  0  0  0  0
  187.8900  178.4750  141.1440 C   0  0  1  0  0  3  0  0  0  0  0  0
  189.6140  178.7010  143.0710 C   0  0  1  0  0  3  0  0  0  0  0  0
  185.6190  180.0260  141.8460 O   0  0  0  0  0  0  0  0  0  0  0  0
  186.0250  178.2520  147.2280 C   0  0  0  0  0  2  0  0  0  0  0  0
  189.3500  178.3130  141.6020 C   0  0  1  0  0  3  0  0  0  0  0  0
  184.7010  178.5840  143.5570 C   0  0  0  0  0  2  0  0  0  0  0  0
  189.2310  177.5340  145.4050 C   0  0  2  0  0  3  0  0  0  0  0  0
  188.3200  177.4930  146.6520 C   0  0  2  0  0  3  0  0  0  0  0  0
  191.8260  177.4680  142.5670 C   0  0  0  0  0  2  0  0  0  0  0  0
  184.9960  178.3570  146.0890 C   0  0  0  0  0  2  0  0  0  0  0  0
  187.4320  178.7230  146.8440 C   0  0  0  0  0  2  0  0  0  0  0  0
  185.5390  178.6920  142.2830 C   0  0  2  0  0  0  0  0  0  0  0  0
  187.1430  177.1550  140.9310 C   0  0  0  0  0  2  0  0  0  0  0  0
  191.7300  179.3340  144.1550 C   0  0  0  0  0  2  0  0  0  0  0  0
  188.6020  178.1070  144.0970 C   0  0  2  0  0  3  0  0  0  0  0  0
  190.0640  177.0140  141.1380 C   0  0  2  0  0  3  0  0  0  0  0  0
  186.9040  177.9540  142.1900 C   0  0  1  0  0  0  0  0  0  0  0  0
  184.8460  179.1480  141.0580 C   0  0  0  0  0  2  0  0  0  0  0  0
  187.4830  177.2590  143.4480 C   0  0  2  0  0  3  0  0  0  0  0  0
  190.9510  176.4660  142.0990 O   0  0  0  0  0  0  0  0  0  0  0  0
  191.7340  177.9940  139.5490 O   0  0  0  0  0  1  0  0  0  0  0  0
  190.6970  177.0690  139.7380 C   0  0  1  0  0  0  0  0  0  0  0  0
  190.1830  177.6500  137.3130 C   0  0  0  0  0  1  0  0  0  0  0  0
  190.8140  175.7590  138.9640 C   0  0  1  0  0  3  0  0  0  0  0  0
  189.7830  176.8310  138.5400 C   0  0  1  0  0  3  0  0  0  0  0  0
  192.1450  174.3390  137.4120 C   0  0  0  0  0  1  0  0  0  0  0  0
  192.0760  175.6840  138.1050 C   0  0  0  0  0  2  0  0  0  0  0  0
  189.9990  176.2150  145.1940 C   0  0  0  0  0  2  0  0  0  0  0  0
  191.4360  176.2440  145.7010 C   0  0  0  0  0  2  0  0  0  0  0  0
  191.6570  175.1730  146.7500 C   0  0  0  0  0  2  0  0  0  0  0  0
  192.6370  175.6730  147.7880 C   0  0  0  0  0  1  0  0  0  0  0  0
  189.1000  177.1910  147.9330 C   0  0  0  0  0  2  0  0  0  0  0  0
  189.4490  178.4530  148.7030 C   0  0  0  0  0  2  0  0  0  0  0  0
  190.9220  178.4420  149.0560 C   0  0  0  0  0  1  0  0  0  0  0  0
  1  3  1  0  0  0  0
  2 17  2  0  0  0  0
  3  9  1  6  0  0  0
  3 13  1  0  0  0  0
  4 16  1  6  0  0  0
  4  8  1  0  0  0  0
  4 20  1  0  0  0  0
  5  2  1  1  0  0  0
  5 18  1  0  0  0  0
  6 15  1  0  0  0  0
  8  5  1  0  0  0  0
 10 11  1  0  0  0  0
 11 14  1  0  0  0  0
 11 35  1  0  0  0  0
 12  2  1  0  0  0  0
 13  7  1  0  0  0  0
 14  7  1  0  0  0  0
 15  9  1  0  0  0  0
 16 20  1  0  0  0  0
 18 10  1  0  0  0  0
 19  8  1  0  0  0  0
 19 23  1  0  0  0  0
 20 15  1  0  0  0  0
 20 22  1  0  0  0  0
 21  6  1  0  0  0  0
 21 15  1  0  0  0  0
 22 18  1  0  0  0  0
 22  1  1  0  0  0  0
 23 12  1  0  0  0  0
 24 25  1  0  0  0  0
 25 19  1  0  0  0  0
 26 28  1  0  0  0  0
 27 25  1  0  0  0  0
 28 27  1  0  0  0  0
 28 25  1  0  0  0  0
 29 30  1  0  0  0  0
 30 27  1  0  0  0  0
 31 10  1  0  0  0  0
 31 32  1  0  0  0  0
 32 33  1  0  0  0  0
 33 34  1  0  0  0  0
 35 36  1  0  0  0  0
 36 37  1  0  0  0  0
M  END
>  <MODEL>
1

>  <REMARK>
 VINA RESULT:      -6.8      0.000      0.000
  Name = 
  7 active torsions:
  status: ('A' for Active; 'I' for Inactive)
    1  A    between atoms: C_3  and  C_32
    2  A    between atoms: C_8  and  C_31
    3  A    between atoms: C_9  and  C_13
    4  A    between atoms: C_9  and  C_16
    5  A    between atoms: C_13  and  C_20
    6  A    between atoms: C_18  and  C_35
    7  A    between atoms: C_21  and  C_32
                            x       y       z     vdW  Elec       q    Type
                         _______ _______ _______ _____ _____    ______ ____

>  <TORSDO>
F 7

$$$$
=
 OpenBabel10272415003D

 37 43  0  0  1  0  0  0  0  0999 V2000
  186.7250  176.7840  145.3620 C   0  0  0  0  0  2  0  0  0  0  0  0
  190.6870  178.3030  142.6140 C   0  0  0  0  0  0  0  0  0  0  0  0
  186.3770  178.0210  146.1750 C   0  0  1  0  0  3  0  0  0  0  0  0
  186.8900  178.9640  142.0890 C   0  0  1  0  0  3  0  0  0  0  0  0
  189.2870  178.6560  143.0380 C   0  0  1  0  0  3  0  0  0  0  0  0
  185.3860  180.3970  144.0210 O   0  0  0  0  0  0  0  0  0  0  0  0
  187.7990  177.3820  148.1890 C   0  0  0  0  0  2  0  0  0  0  0  0
  188.3660  178.6370  141.8010 C   0  0  1  0  0  3  0  0  0  0  0  0
  185.0930  178.6290  145.6470 C   0  0  0  0  0  2  0  0  0  0  0  0
  189.7780  176.9850  145.0190 C   0  0  2  0  0  3  0  0  0  0  0  0
  189.4920  176.6870  146.5090 C   0  0  2  0  0  3  0  0  0  0  0  0
  190.8690  177.4870  141.3670 C   0  0  0  0  0  2  0  0  0  0  0  0
  186.4070  177.7960  147.6780 C   0  0  0  0  0  2  0  0  0  0  0  0
  188.9580  177.8720  147.3130 C   0  0  0  0  0  2  0  0  0  0  0  0
  185.3110  179.0010  144.1800 C   0  0  2  0  0  0  0  0  0  0  0  0
  185.9450  177.7640  141.9820 C   0  0  0  0  0  2  0  0  0  0  0  0
  191.7300  178.9260  143.1560 C   0  0  0  0  0  2  0  0  0  0  0  0
  188.7380  177.8780  144.2730 C   0  0  2  0  0  3  0  0  0  0  0  0
  188.6210  177.4570  140.8230 C   0  0  2  0  0  3  0  0  0  0  0  0
  186.3850  178.2500  143.3420 C   0  0  1  0  0  0  0  0  0  0  0  0
  184.2330  179.7620  143.5120 C   0  0  0  0  0  2  0  0  0  0  0  0
  187.3410  177.2540  144.0450 C   0  0  2  0  0  3  0  0  0  0  0  0
  189.7450  176.6610  141.1560 O   0  0  0  0  0  0  0  0  0  0  0  0
  189.0570  179.0930  138.9770 O   0  0  0  0  0  1  0  0  0  0  0  0
  188.5940  177.8170  139.3290 C   0  0  1  0  0  0  0  0  0  0  0  0
  187.0070  178.2180  137.3780 C   0  0  0  0  0  1  0  0  0  0  0  0
  188.8760  176.6990  138.3290 C   0  0  1  0  0  3  0  0  0  0  0  0
  187.4450  177.2650  138.4900 C   0  0  1  0  0  3  0  0  0  0  0  0
  190.9820  176.4850  137.0190 C   0  0  0  0  0  1  0  0  0  0  0  0
  189.6380  177.1810  137.0940 C   0  0  0  0  0  2  0  0  0  0  0  0
  190.1850  175.7240  144.2350 C   0  0  0  0  0  2  0  0  0  0  0  0
  191.6800  175.6190  143.9570 C   0  0  0  0  0  2  0  0  0  0  0  0
  192.3560  174.7290  144.9820 C   0  0  0  0  0  2  0  0  0  0  0  0
  191.9690  173.2880  144.7350 C   0  0  0  0  0  1  0  0  0  0  0  0
  190.6940  176.0580  147.2160 C   0  0  0  0  0  2  0  0  0  0  0  0
  191.6190  177.1050  147.8130 C   0  0  0  0  0  2  0  0  0  0  0  0
  192.7530  176.4200  148.5480 C   0  0  0  0  0  1  0  0  0  0  0  0
  2 17  2  0  0  0  0
  3  1  1  6  0  0  0
  3 13  1  0  0  0  0
  4 16  1  6  0  0  0
  4 20  1  0  0  0  0
  5  2  1  6  0  0  0
  5 18  1  0  0  0  0
  6 15  1  0  0  0  0
  8  4  1  0  0  0  0
  8  5  1  0  0  0  0
  9  3  1  0  0  0  0
 10 11  1  0  0  0  0
 11 35  1  0  0  0  0
 11 14  1  0  0  0  0
 12  2  1  0  0  0  0
 13  7  1  0  0  0  0
 14  7  1  0  0  0  0
 15  9  1  0  0  0  0
 16 20  1  0  0  0  0
 18 10  1  0  0  0  0
 19 23  1  0  0  0  0
 19  8  1  0  0  0  0
 20 22  1  0  0  0  0
 20 15  1  0  0  0  0
 21  6  1  0  0  0  0
 21 15  1  0  0  0  0
 22 18  1  0  0  0  0
 22  1  1  0  0  0  0
 23 12  1  0  0  0  0
 24 25  1  0  0  0  0
 25 19  1  0  0  0  0
 26 28  1  0  0  0  0
 27 28  1  0  0  0  0
 27 25  1  0  0  0  0
 28 25  1  0  0  0  0
 29 30  1  0  0  0  0
 30 27  1  0  0  0  0
 31 10  1  0  0  0  0
 32 31  1  0  0  0  0
 32 33  1  0  0  0  0
 34 33  1  0  0  0  0
 35 36  1  0  0  0  0
 36 37  1  0  0  0  0
M  END
>  <MODEL>
2

>  <REMARK>
 VINA RESULT:      -6.4      1.478      2.017
  Name = 
  7 active torsions:
  status: ('A' for Active; 'I' for Inactive)
    1  A    between atoms: C_3  and  C_32
    2  A    between atoms: C_8  and  C_31
    3  A    between atoms: C_9  and  C_13
    4  A    between atoms: C_9  and  C_16
    5  A    between atoms: C_13  and  C_20
    6  A    between atoms: C_18  and  C_35
    7  A    between atoms: C_21  and  C_32
                            x       y       z     vdW  Elec       q    Type
                         _______ _______ _______ _____ _____    ______ ____

>  <TORSDO>
F 7

$$$$
=
 OpenBabel10272415003D

 37 43  0  0  1  0  0  0  0  0999 V2000
  184.2750  173.2710  137.5430 C   0  0  0  0  0  2  0  0  0  0  0  0
  186.9730  177.0440  135.5330 C   0  0  0  0  0  0  0  0  0  0  0  0
  183.5820  172.6630  136.3330 C   0  0  1  0  0  3  0  0  0  0  0  0
  187.7080  173.2260  135.6190 C   0  0  1  0  0  3  0  0  0  0  0  0
  186.6380  175.5820  135.4120 C   0  0  1  0  0  3  0  0  0  0  0  0
  185.9660  171.3830  134.3460 O   0  0  0  0  0  0  0  0  0  0  0  0
  181.4650  174.0610  136.5500 C   0  0  0  0  0  2  0  0  0  0  0  0
  187.9070  174.7500  135.6910 C   0  0  1  0  0  3  0  0  0  0  0  0
  184.2120  171.3220  136.0110 C   0  0  0  0  0  2  0  0  0  0  0  0
  184.5060  176.2530  136.8130 C   0  0  2  0  0  3  0  0  0  0  0  0
  183.0110  175.9430  137.0470 C   0  0  2  0  0  3  0  0  0  0  0  0
  188.1400  177.4390  136.3930 C   0  0  0  0  0  2  0  0  0  0  0  0
  182.0660  172.6490  136.4370 C   0  0  0  0  0  2  0  0  0  0  0  0
  182.3300  175.1610  135.9230 C   0  0  0  0  0  2  0  0  0  0  0  0
  185.6950  171.5510  135.7160 C   0  0  2  0  0  0  0  0  0  0  0  0
  187.7540  172.5180  136.9760 C   0  0  0  0  0  2  0  0  0  0  0  0
  186.4430  177.9270  134.6920 C   0  0  0  0  0  2  0  0  0  0  0  0
  185.3670  175.1140  136.1840 C   0  0  2  0  0  3  0  0  0  0  0  0
  188.7720  175.2660  136.8740 C   0  0  2  0  0  3  0  0  0  0  0  0
  186.4220  172.7870  136.3180 C   0  0  1  0  0  0  0  0  0  0  0  0
  186.4680  170.3930  135.2170 C   0  0  0  0  0  2  0  0  0  0  0  0
  185.6000  173.8650  137.0670 C   0  0  2  0  0  3  0  0  0  0  0  0
  188.3270  176.4940  137.4240 O   0  0  0  0  0  0  0  0  0  0  0  0
  190.7380  175.7180  135.3910 O   0  0  0  0  0  1  0  0  0  0  0  0
  190.2910  175.2580  136.6370 C   0  0  1  0  0  0  0  0  0  0  0  0
  192.2890  173.6980  136.4080 C   0  0  0  0  0  1  0  0  0  0  0  0
  191.1920  175.5610  137.8310 C   0  0  1  0  0  3  0  0  0  0  0  0
  191.0980  174.1250  137.2640 C   0  0  1  0  0  3  0  0  0  0  0  0
  193.2680  176.6370  138.6860 C   0  0  0  0  0  1  0  0  0  0  0  0
  192.4510  176.3390  137.4450 C   0  0  0  0  0  2  0  0  0  0  0  0
  185.1660  176.9220  138.0340 C   0  0  0  0  0  2  0  0  0  0  0  0
  185.0710  178.4440  138.0360 C   0  0  0  0  0  2  0  0  0  0  0  0
  184.5440  178.9470  139.3650 C   0  0  0  0  0  2  0  0  0  0  0  0
  185.6220  178.8200  140.4190 C   0  0  0  0  0  1  0  0  0  0  0  0
  182.2040  177.1960  137.3910 C   0  0  0  0  0  2  0  0  0  0  0  0
  181.4300  177.0400  138.6900 C   0  0  0  0  0  2  0  0  0  0  0  0
  182.1130  176.0110  139.5660 C   0  0  0  0  0  1  0  0  0  0  0  0
  2 12  1  0  0  0  0
  3  9  1  1  0  0  0
  3 13  1  0  0  0  0
  3  1  1  0  0  0  0
  4  8  1  0  0  0  0
  4 20  1  0  0  0  0
  4 16  1  1  0  0  0
  5  2  1  1  0  0  0
  5  8  1  0  0  0  0
  5 18  1  0  0  0  0
  6 21  1  0  0  0  0
  6 15  1  0  0  0  0
  8 19  1  0  0  0  0
 10 11  1  0  0  0  0
 10 31  1  0  0  0  0
 11 35  1  0  0  0  0
 12 23  1  0  0  0  0
 13  7  1  0  0  0  0
 14  7  1  0  0  0  0
 14 11  1  0  0  0  0
 15  9  1  0  0  0  0
 15 20  1  0  0  0  0
 17  2  2  0  0  0  0
 18 10  1  0  0  0  0
 18 22  1  0  0  0  0
 19 23  1  0  0  0  0
 20 16  1  0  0  0  0
 20 22  1  0  0  0  0
 21 15  1  0  0  0  0
 22  1  1  0  0  0  0
 24 25  1  0  0  0  0
 25 19  1  0  0  0  0
 25 28  1  0  0  0  0
 25 27  1  0  0  0  0
 26 28  1  0  0  0  0
 28 27  1  0  0  0  0
 30 27  1  0  0  0  0
 30 29  1  0  0  0  0
 31 32  1  0  0  0  0
 32 33  1  0  0  0  0
 33 34  1  0  0  0  0
 35 36  1  0  0  0  0
 36 37  1  0  0  0  0
M  END
>  <MODEL>
3

>  <REMARK>
 VINA RESULT:      -5.6      5.401      9.005
  Name = 
  7 active torsions:
  status: ('A' for Active; 'I' for Inactive)
    1  A    between atoms: C_3  and  C_32
    2  A    between atoms: C_8  and  C_31
    3  A    between atoms: C_9  and  C_13
    4  A    between atoms: C_9  and  C_16
    5  A    between atoms: C_13  and  C_20
    6  A    between atoms: C_18  and  C_35
    7  A    between atoms: C_21  and  C_32
                            x       y       z     vdW  Elec       q    Type
                         _______ _______ _______ _____ _____    ______ ____

>  <TORSDO>
F 7

$$$$
=
 OpenBabel10272415003D

 37 43  0  0  1  0  0  0  0  0999 V2000
  183.8190  177.5480  141.9330 C   0  0  0  0  0  2  0  0  0  0  0  0
  188.6800  178.7680  141.2750 C   0  0  0  0  0  0  0  0  0  0  0  0
  183.1450  178.9010  142.1000 C   0  0  1  0  0  3  0  0  0  0  0  0
  185.7220  178.8700  138.7520 C   0  0  1  0  0  3  0  0  0  0  0  0
  187.2740  179.0610  140.8230 C   0  0  1  0  0  3  0  0  0  0  0  0
  183.4880  180.5610  139.2020 O   0  0  0  0  0  0  0  0  0  0  0  0
  183.3030  178.9280  144.6410 C   0  0  0  0  0  2  0  0  0  0  0  0
  187.1230  178.6430  139.3460 C   0  0  1  0  0  3  0  0  0  0  0  0
  182.3390  179.2210  140.8570 C   0  0  0  0  0  2  0  0  0  0  0  0
  186.6160  177.9850  143.1400 C   0  0  2  0  0  3  0  0  0  0  0  0
  185.5940  178.0300  144.2980 C   0  0  2  0  0  3  0  0  0  0  0  0
  189.4500  177.6970  140.5570 C   0  0  0  0  0  2  0  0  0  0  0  0
  182.3890  179.0530  143.4090 C   0  0  0  0  0  2  0  0  0  0  0  0
  184.7630  179.3110  144.3780 C   0  0  0  0  0  2  0  0  0  0  0  0
  183.2930  179.2460  139.6630 C   0  0  2  0  0  0  0  0  0  0  0  0
  184.9260  177.5860  138.5030 C   0  0  0  0  0  2  0  0  0  0  0  0
  189.3160  179.6110  142.0830 C   0  0  0  0  0  2  0  0  0  0  0  0
  186.1420  178.5530  141.7660 C   0  0  2  0  0  3  0  0  0  0  0  0
  187.8030  177.2950  138.9820 C   0  0  2  0  0  3  0  0  0  0  0  0
  184.6180  178.4330  139.7140 C   0  0  1  0  0  0  0  0  0  0  0  0
  182.7410  179.7020  138.3690 C   0  0  0  0  0  2  0  0  0  0  0  0
  185.0400  177.7470  141.0380 C   0  0  2  0  0  3  0  0  0  0  0  0
  188.5670  176.7290  140.0340 O   0  0  0  0  0  0  0  0  0  0  0  0
  189.1010  178.4930  137.2070 O   0  0  0  0  0  1  0  0  0  0  0  0
  188.5630  177.2750  137.6460 C   0  0  1  0  0  0  0  0  0  0  0  0
  188.2410  176.8970  135.1490 C   0  0  0  0  0  1  0  0  0  0  0  0
  189.3670  176.0220  137.3100 C   0  0  1  0  0  3  0  0  0  0  0  0
  188.0510  176.3360  136.5570 C   0  0  1  0  0  3  0  0  0  0  0  0
  191.8320  176.3160  137.4920 C   0  0  0  0  0  1  0  0  0  0  0  0
  190.6520  176.3270  136.5410 C   0  0  0  0  0  2  0  0  0  0  0  0
  187.3250  176.6220  143.0330 C   0  0  0  0  0  2  0  0  0  0  0  0
  188.5550  176.4890  143.9230 C   0  0  0  0  0  2  0  0  0  0  0  0
  189.6490  175.7140  143.2140 C   0  0  0  0  0  2  0  0  0  0  0  0
  191.0010  176.2330  143.6490 C   0  0  0  0  0  1  0  0  0  0  0  0
  186.2370  177.7240  145.6530 C   0  0  0  0  0  2  0  0  0  0  0  0
  186.1340  178.8970  146.6130 C   0  0  0  0  0  2  0  0  0  0  0  0
  187.0790  178.6840  147.7770 C   0  0  0  0  0  1  0  0  0  0  0  0
  1  3  1  0  0  0  0
  2 17  2  0  0  0  0
  3  9  1  6  0  0  0
  3 13  1  0  0  0  0
  4 16  1  6  0  0  0
  4  8  1  0  0  0  0
  4 20  1  0  0  0  0
  5  2  1  1  0  0  0
  5 18  1  0  0  0  0
  6 15  1  0  0  0  0
  8  5  1  0  0  0  0
 10 11  1  0  0  0  0
 11 14  1  0  0  0  0
 11 35  1  0  0  0  0
 12  2  1  0  0  0  0
 13  7  1  0  0  0  0
 14  7  1  0  0  0  0
 15 20  1  0  0  0  0
 15  9  1  0  0  0  0
 16 20  1  0  0  0  0
 18 10  1  0  0  0  0
 19  8  1  0  0  0  0
 19 23  1  0  0  0  0
 20 22  1  0  0  0  0
 21  6  1  0  0  0  0
 21 15  1  0  0  0  0
 22 18  1  0  0  0  0
 22  1  1  0  0  0  0
 23 12  1  0  0  0  0
 24 25  1  0  0  0  0
 25 19  1  0  0  0  0
 26 28  1  0  0  0  0
 27 25  1  0  0  0  0
 28 27  1  0  0  0  0
 28 25  1  0  0  0  0
 30 27  1  0  0  0  0
 30 29  1  0  0  0  0
 31 10  1  0  0  0  0
 31 32  1  0  0  0  0
 33 34  1  0  0  0  0
 33 32  1  0  0  0  0
 35 36  1  0  0  0  0
 36 37  1  0  0  0  0
M  END
>  <MODEL>
4

>  <REMARK>
 VINA RESULT:      -5.4      2.122      3.406
  Name = 
  7 active torsions:
  status: ('A' for Active; 'I' for Inactive)
    1  A    between atoms: C_3  and  C_32
    2  A    between atoms: C_8  and  C_31
    3  A    between atoms: C_9  and  C_13
    4  A    between atoms: C_9  and  C_16
    5  A    between atoms: C_13  and  C_20
    6  A    between atoms: C_18  and  C_35
    7  A    between atoms: C_21  and  C_32
                            x       y       z     vdW  Elec       q    Type
                         _______ _______ _______ _____ _____    ______ ____

>  <TORSDO>
F 7

$$$$
=
 OpenBabel10272415003D

 37 43  0  0  1  0  0  0  0  0999 V2000
  188.6140  178.9820  140.2900 C   0  0  0  0  0  2  0  0  0  0  0  0
  188.8890  175.4400  136.6950 C   0  0  0  0  0  0  0  0  0  0  0  0
  188.0280  178.2250  141.4730 C   0  0  1  0  0  3  0  0  0  0  0  0
  191.2340  176.1000  139.7260 C   0  0  1  0  0  3  0  0  0  0  0  0
  189.2170  175.7520  138.1300 C   0  0  1  0  0  3  0  0  0  0  0  0
  190.2640  175.8930  142.3840 O   0  0  0  0  0  0  0  0  0  0  0  0
  185.6070  178.8150  140.9490 C   0  0  0  0  0  2  0  0  0  0  0  0
  190.7500  175.7730  138.3020 C   0  0  1  0  0  3  0  0  0  0  0  0
  189.1030  178.0120  142.5190 C   0  0  0  0  0  2  0  0  0  0  0  0
  187.3490  177.5930  137.8520 C   0  0  2  0  0  3  0  0  0  0  0  0
  186.2280  178.3630  138.5860 C   0  0  2  0  0  3  0  0  0  0  0  0
  189.9110  175.7650  135.6430 C   0  0  0  0  0  2  0  0  0  0  0  0
  186.7320  178.8180  141.9990 C   0  0  0  0  0  2  0  0  0  0  0  0
  185.7470  177.7190  139.8860 C   0  0  0  0  0  2  0  0  0  0  0  0
  190.2360  177.2070  141.8820 C   0  0  2  0  0  0  0  0  0  0  0  0
  191.8670  177.4860  139.8750 C   0  0  0  0  0  2  0  0  0  0  0  0
  187.8620  174.6490  136.3970 C   0  0  0  0  0  2  0  0  0  0  0  0
  188.4730  176.9780  138.7420 C   0  0  2  0  0  3  0  0  0  0  0  0
  191.5210  176.4690  137.1480 C   0  0  2  0  0  3  0  0  0  0  0  0
  190.4490  177.2570  140.3420 C   0  0  1  0  0  0  0  0  0  0  0  0
  191.3190  176.7440  142.7760 C   0  0  0  0  0  2  0  0  0  0  0  0
  189.4100  177.9830  139.4520 C   0  0  2  0  0  3  0  0  0  0  0  0
  190.7040  176.8560  136.0560 O   0  0  0  0  0  0  0  0  0  0  0  0
  193.7100  176.5170  135.9310 O   0  0  0  0  0  1  0  0  0  0  0  0
  192.8020  175.7570  136.6820 C   0  0  1  0  0  0  0  0  0  0  0  0
  193.6330  173.8820  135.1740 C   0  0  0  0  0  1  0  0  0  0  0  0
  193.4080  174.7120  137.6160 C   0  0  1  0  0  3  0  0  0  0  0  0
  192.6950  174.2800  136.3120 C   0  0  1  0  0  3  0  0  0  0  0  0
  195.4760  174.0630  138.8400 C   0  0  0  0  0  1  0  0  0  0  0  0
  194.9360  174.6860  137.5690 C   0  0  0  0  0  2  0  0  0  0  0  0
  187.8810  178.3570  136.6250 C   0  0  0  0  0  2  0  0  0  0  0  0
  186.8320  178.6130  135.5480 C   0  0  0  0  0  2  0  0  0  0  0  0
  186.9050  177.5540  134.4660 C   0  0  0  0  0  2  0  0  0  0  0  0
  185.5800  176.8300  134.3740 C   0  0  0  0  0  1  0  0  0  0  0  0
  185.0410  178.6740  137.6720 C   0  0  0  0  0  2  0  0  0  0  0  0
  183.9290  177.6480  137.8080 C   0  0  0  0  0  2  0  0  0  0  0  0
  182.5940  178.3560  137.9130 C   0  0  0  0  0  1  0  0  0  0  0  0
  3  1  1  6  0  0  0
  3 13  1  0  0  0  0
  3  9  1  0  0  0  0
  4 16  1  6  0  0  0
  4 20  1  0  0  0  0
  5  2  1  6  0  0  0
  5  8  1  0  0  0  0
  5 18  1  0  0  0  0
  6 21  1  0  0  0  0
  7 13  1  0  0  0  0
  8  4  1  0  0  0  0
 10 11  1  0  0  0  0
 10 18  1  0  0  0  0
 11 14  1  0  0  0  0
 12 23  1  0  0  0  0
 12  2  1  0  0  0  0
 14  7  1  0  0  0  0
 15  6  1  0  0  0  0
 15  9  1  0  0  0  0
 15 21  1  0  0  0  0
 16 20  1  0  0  0  0
 17  2  2  0  0  0  0
 18 22  1  0  0  0  0
 19  8  1  0  0  0  0
 20 15  1  0  0  0  0
 22  1  1  0  0  0  0
 22 20  1  0  0  0  0
 23 19  1  0  0  0  0
 24 25  1  0  0  0  0
 25 19  1  0  0  0  0
 25 27  1  0  0  0  0
 26 28  1  0  0  0  0
 28 25  1  0  0  0  0
 28 27  1  0  0  0  0
 30 27  1  0  0  0  0
 30 29  1  0  0  0  0
 31 10  1  0  0  0  0
 32 31  1  0  0  0  0
 33 32  1  0  0  0  0
 34 33  1  0  0  0  0
 35 36  1  0  0  0  0
 35 11  1  0  0  0  0
 36 37  1  0  0  0  0
M  END
>  <MODEL>
5

>  <REMARK>
 VINA RESULT:      -5.1      3.235      7.452
  Name = 
  7 active torsions:
  status: ('A' for Active; 'I' for Inactive)
    1  A    between atoms: C_3  and  C_32
    2  A    between atoms: C_8  and  C_31
    3  A    between atoms: C_9  and  C_13
    4  A    between atoms: C_9  and  C_16
    5  A    between atoms: C_13  and  C_20
    6  A    between atoms: C_18  and  C_35
    7  A    between atoms: C_21  and  C_32
                            x       y       z     vdW  Elec       q    Type
                         _______ _______ _______ _____ _____    ______ ____

>  <TORSDO>
F 7

$$$$
=
 OpenBabel10272415003D

 37 43  0  0  1  0  0  0  0  0999 V2000
  188.6340  174.9280  137.2330 C   0  0  0  0  0  2  0  0  0  0  0  0
  183.8690  175.4400  135.6260 C   0  0  0  0  0  0  0  0  0  0  0  0
  189.4420  175.5930  136.1290 C   0  0  1  0  0  3  0  0  0  0  0  0
  186.2090  178.0260  137.3460 C   0  0  1  0  0  3  0  0  0  0  0  0
  185.1630  176.1690  135.8630 C   0  0  1  0  0  3  0  0  0  0  0  0
  188.6250  178.8480  136.1040 O   0  0  0  0  0  0  0  0  0  0  0  0
  189.8400  173.4510  134.8110 C   0  0  0  0  0  2  0  0  0  0  0  0
  184.9550  177.2120  136.9810 C   0  0  1  0  0  3  0  0  0  0  0  0
  189.9850  176.9170  136.6270 C   0  0  0  0  0  2  0  0  0  0  0  0
  186.2120  173.7520  135.7420 C   0  0  2  0  0  3  0  0  0  0  0  0
  187.4600  172.9460  135.3160 C   0  0  2  0  0  3  0  0  0  0  0  0
  182.8730  175.3720  136.7470 C   0  0  0  0  0  2  0  0  0  0  0  0
  190.4730  174.6790  135.4880 C   0  0  0  0  0  2  0  0  0  0  0  0
  188.3950  173.6690  134.3460 C   0  0  0  0  0  2  0  0  0  0  0  0
  188.8000  177.7990  137.0240 C   0  0  2  0  0  0  0  0  0  0  0  0
  186.8190  177.6730  138.7050 C   0  0  0  0  0  2  0  0  0  0  0  0
  183.4980  175.1150  134.3910 C   0  0  0  0  0  2  0  0  0  0  0  0
  186.4250  175.2700  136.0340 C   0  0  2  0  0  3  0  0  0  0  0  0
  184.1000  176.7140  138.1780 C   0  0  2  0  0  3  0  0  0  0  0  0
  187.4530  177.1430  137.4410 C   0  0  1  0  0  0  0  0  0  0  0  0
  189.0970  179.2020  137.3860 C   0  0  0  0  0  2  0  0  0  0  0  0
  187.2690  175.6130  137.2840 C   0  0  2  0  0  3  0  0  0  0  0  0
  183.5360  175.4270  137.9920 O   0  0  0  0  0  0  0  0  0  0  0  0
  181.7210  177.4490  138.4510 O   0  0  0  0  0  1  0  0  0  0  0  0
  183.0700  177.7190  138.7210 C   0  0  1  0  0  0  0  0  0  0  0  0
  182.2910  180.1310  138.4890 C   0  0  0  0  0  1  0  0  0  0  0  0
  183.3700  178.3820  140.0620 C   0  0  1  0  0  3  0  0  0  0  0  0
  183.4680  179.1920  138.7480 C   0  0  1  0  0  3  0  0  0  0  0  0
  182.4820  178.7060  142.3650 C   0  0  0  0  0  1  0  0  0  0  0  0
  182.1140  178.6320  140.8970 C   0  0  0  0  0  2  0  0  0  0  0  0
  185.3820  173.0270  136.8180 C   0  0  0  0  0  2  0  0  0  0  0  0
  184.4440  171.9590  136.2660 C   0  0  0  0  0  2  0  0  0  0  0  0
  183.2800  171.7290  137.2090 C   0  0  0  0  0  2  0  0  0  0  0  0
  181.9810  171.7970  136.4380 C   0  0  0  0  0  1  0  0  0  0  0  0
  187.1010  171.5590  134.7810 C   0  0  0  0  0  2  0  0  0  0  0  0
  187.8120  170.4510  135.5400 C   0  0  0  0  0  2  0  0  0  0  0  0
  188.6640  169.6450  134.5810 C   0  0  0  0  0  1  0  0  0  0  0  0
  1 22  1  0  0  0  0
  2 12  1  0  0  0  0
  3 13  1  1  0  0  0
  3  9  1  0  0  0  0
  3  1  1  0  0  0  0
  4 20  1  0  0  0  0
  4 16  1  1  0  0  0
  5  2  1  1  0  0  0
  5 18  1  0  0  0  0
  5  8  1  0  0  0  0
  6 15  1  0  0  0  0
  6 21  1  0  0  0  0
  7 13  1  0  0  0  0
  8  4  1  0  0  0  0
  8 19  1  0  0  0  0
  9 15  1  0  0  0  0
 10 18  1  0  0  0  0
 10 31  1  0  0  0  0
 11 10  1  0  0  0  0
 12 23  1  0  0  0  0
 14  7  1  0  0  0  0
 14 11  1  0  0  0  0
 15 21  1  0  0  0  0
 15 20  1  0  0  0  0
 17  2  2  0  0  0  0
 18 22  1  0  0  0  0
 19 25  1  0  0  0  0
 20 16  1  0  0  0  0
 22 20  1  0  0  0  0
 23 19  1  0  0  0  0
 24 25  1  0  0  0  0
 25 28  1  0  0  0  0
 25 27  1  0  0  0  0
 26 28  1  0  0  0  0
 27 30  1  0  0  0  0
 28 27  1  0  0  0  0
 30 29  1  0  0  0  0
 32 31  1  0  0  0  0
 32 33  1  0  0  0  0
 34 33  1  0  0  0  0
 35 11  1  0  0  0  0
 35 36  1  0  0  0  0
 37 36  1  0  0  0  0
M  END
>  <MODEL>
6

>  <REMARK>
 VINA RESULT:      -4.9      5.923     10.386
  Name = 
  7 active torsions:
  status: ('A' for Active; 'I' for Inactive)
    1  A    between atoms: C_3  and  C_32
    2  A    between atoms: C_8  and  C_31
    3  A    between atoms: C_9  and  C_13
    4  A    between atoms: C_9  and  C_16
    5  A    between atoms: C_13  and  C_20
    6  A    between atoms: C_18  and  C_35
    7  A    between atoms: C_21  and  C_32
                            x       y       z     vdW  Elec       q    Type
                         _______ _______ _______ _____ _____    ______ ____

>  <TORSDO>
F 7

$$$$
=
 OpenBabel10272415003D

 37 43  0  0  1  0  0  0  0  0999 V2000
  187.7830  179.2540  139.7200 C   0  0  0  0  0  2  0  0  0  0  0  0
  188.9850  176.0760  143.4620 C   0  0  0  0  0  0  0  0  0  0  0  0
  187.0570  178.3580  138.7280 C   0  0  1  0  0  3  0  0  0  0  0  0
  185.5960  177.8050  142.6540 C   0  0  1  0  0  3  0  0  0  0  0  0
  187.8670  176.5500  142.5730 C   0  0  1  0  0  3  0  0  0  0  0  0
  184.2450  177.2830  140.2140 O   0  0  0  0  0  0  0  0  0  0  0  0
  189.1290  177.8020  137.3570 C   0  0  0  0  0  2  0  0  0  0  0  0
  186.7980  177.2500  143.4380 C   0  0  1  0  0  3  0  0  0  0  0  0
  185.5750  178.6760  138.7500 C   0  0  0  0  0  2  0  0  0  0  0  0
  189.8370  177.3680  141.0220 C   0  0  2  0  0  3  0  0  0  0  0  0
  190.2690  177.5890  139.5550 C   0  0  2  0  0  3  0  0  0  0  0  0
  189.2030  176.7820  144.7690 C   0  0  0  0  0  2  0  0  0  0  0  0
  187.6860  178.3360  137.3450 C   0  0  0  0  0  2  0  0  0  0  0  0
  189.4310  176.8440  138.5150 C   0  0  0  0  0  2  0  0  0  0  0  0
  185.0560  178.4310  140.1670 C   0  0  2  0  0  0  0  0  0  0  0  0
  185.5580  179.3330  142.5550 C   0  0  0  0  0  2  0  0  0  0  0  0
  189.5710  174.9040  143.2370 C   0  0  0  0  0  2  0  0  0  0  0  0
  188.3020  177.3420  141.3030 C   0  0  2  0  0  3  0  0  0  0  0  0
  187.3690  178.1750  144.5480 C   0  0  2  0  0  3  0  0  0  0  0  0
  186.0320  178.5190  141.3750 C   0  0  1  0  0  0  0  0  0  0  0  0
  183.5940  178.5240  140.3740 C   0  0  0  0  0  2  0  0  0  0  0  0
  187.5510  178.6810  141.1170 C   0  0  2  0  0  3  0  0  0  0  0  0
  188.7800  178.1240  144.6740 O   0  0  0  0  0  0  0  0  0  0  0  0
  186.3920  176.7980  146.3980 O   0  0  0  0  0  1  0  0  0  0  0  0
  186.6670  178.0850  145.9120 C   0  0  1  0  0  0  0  0  0  0  0  0
  184.4820  178.6380  147.0960 C   0  0  0  0  0  1  0  0  0  0  0  0
  187.0180  179.1400  146.9580 C   0  0  1  0  0  3  0  0  0  0  0  0
  185.6410  179.1630  146.2510 C   0  0  1  0  0  3  0  0  0  0  0  0
  188.3850  178.0380  148.7220 C   0  0  0  0  0  1  0  0  0  0  0  0
  187.0150  178.5890  148.3840 C   0  0  0  0  0  2  0  0  0  0  0  0
  190.6310  178.2460  142.0070 C   0  0  0  0  0  2  0  0  0  0  0  0
  191.8240  177.5440  142.6440 C   0  0  0  0  0  2  0  0  0  0  0  0
  192.1090  178.1110  144.0210 C   0  0  0  0  0  2  0  0  0  0  0  0
  191.6070  179.5360  144.0960 C   0  0  0  0  0  1  0  0  0  0  0  0
  191.7590  177.3140  139.3390 C   0  0  0  0  0  2  0  0  0  0  0  0
  191.9940  176.1170  138.4330 C   0  0  0  0  0  2  0  0  0  0  0  0
  193.1020  176.4360  137.4500 C   0  0  0  0  0  1  0  0  0  0  0  0
  1 22  1  0  0  0  0
  2 12  1  0  0  0  0
  3 13  1  6  0  0  0
  3  9  1  0  0  0  0
  3  1  1  0  0  0  0
  4 16  1  1  0  0  0
  4  8  1  0  0  0  0
  5  8  1  0  0  0  0
  5  2  1  1  0  0  0
  6 21  1  0  0  0  0
  7 14  1  0  0  0  0
  8 19  1  0  0  0  0
  9 15  1  0  0  0  0
 10 18  1  0  0  0  0
 10 31  1  0  0  0  0
 11 10  1  0  0  0  0
 13  7  1  0  0  0  0
 14 11  1  0  0  0  0
 15  6  1  0  0  0  0
 15 21  1  0  0  0  0
 15 20  1  0  0  0  0
 17  2  2  0  0  0  0
 18  5  1  0  0  0  0
 19 23  1  0  0  0  0
 19 25  1  0  0  0  0
 20 16  1  0  0  0  0
 20  4  1  0  0  0  0
 22 18  1  0  0  0  0
 22 20  1  0  0  0  0
 23 12  1  0  0  0  0
 25 28  1  0  0  0  0
 25 24  1  0  0  0  0
 25 27  1  0  0  0  0
 27 30  1  0  0  0  0
 28 27  1  0  0  0  0
 28 26  1  0  0  0  0
 30 29  1  0  0  0  0
 31 32  1  0  0  0  0
 32 33  1  0  0  0  0
 33 34  1  0  0  0  0
 35 11  1  0  0  0  0
 36 35  1  0  0  0  0
 37 36  1  0  0  0  0
M  END
>  <MODEL>
7

>  <REMARK>
 VINA RESULT:      -4.4      1.990      6.839
  Name = 
  7 active torsions:
  status: ('A' for Active; 'I' for Inactive)
    1  A    between atoms: C_3  and  C_32
    2  A    between atoms: C_8  and  C_31
    3  A    between atoms: C_9  and  C_13
    4  A    between atoms: C_9  and  C_16
    5  A    between atoms: C_13  and  C_20
    6  A    between atoms: C_18  and  C_35
    7  A    between atoms: C_21  and  C_32
                            x       y       z     vdW  Elec       q    Type
                         _______ _______ _______ _____ _____    ______ ____

>  <TORSDO>
F 7

$$$$
=
 OpenBabel10272415003D

 37 43  0  0  1  0  0  0  0  0999 V2000
  185.8250  177.0510  144.9530 C   0  0  0  0  0  2  0  0  0  0  0  0
  188.5680  178.8280  141.0970 C   0  0  0  0  0  0  0  0  0  0  0  0
  185.6460  178.2750  145.8390 C   0  0  1  0  0  3  0  0  0  0  0  0
  184.7580  179.1560  141.8030 C   0  0  1  0  0  3  0  0  0  0  0  0
  187.3490  179.0720  141.9440 C   0  0  1  0  0  3  0  0  0  0  0  0
  183.8220  180.5050  144.1160 O   0  0  0  0  0  0  0  0  0  0  0  0
  187.6800  177.8070  147.2970 C   0  0  0  0  0  2  0  0  0  0  0  0
  186.0900  178.9460  141.0610 C   0  0  1  0  0  3  0  0  0  0  0  0
  184.2130  178.7610  145.7460 C   0  0  0  0  0  2  0  0  0  0  0  0
  188.5840  177.4980  143.6620 C   0  0  2  0  0  3  0  0  0  0  0  0
  188.8100  177.2150  145.1640 C   0  0  2  0  0  3  0  0  0  0  0  0
  188.4180  177.9990  139.8530 C   0  0  0  0  0  2  0  0  0  0  0  0
  186.1680  178.0910  147.2540 C   0  0  0  0  0  2  0  0  0  0  0  0
  188.4560  178.3700  146.1000 C   0  0  0  0  0  2  0  0  0  0  0  0
  183.9230  179.1130  144.2870 C   0  0  2  0  0  0  0  0  0  0  0  0
  183.9360  177.8790  141.9970 C   0  0  0  0  0  2  0  0  0  0  0  0
  189.6710  179.5480  141.2820 C   0  0  0  0  0  2  0  0  0  0  0  0
  187.2880  178.2820  143.2860 C   0  0  2  0  0  3  0  0  0  0  0  0
  186.1240  177.7680  140.0500 C   0  0  2  0  0  3  0  0  0  0  0  0
  184.7380  178.4340  143.1500 C   0  0  1  0  0  0  0  0  0  0  0  0
  182.6270  179.7640  143.9970 C   0  0  0  0  0  2  0  0  0  0  0  0
  185.9500  177.5390  143.5110 C   0  0  2  0  0  3  0  0  0  0  0  0
  187.3610  177.0770  140.0080 O   0  0  0  0  0  0  0  0  0  0  0  0
  185.4100  179.4400  138.3280 O   0  0  0  0  0  1  0  0  0  0  0  0
  185.5960  178.0860  138.6420 C   0  0  1  0  0  0  0  0  0  0  0  0
  183.5610  177.8000  137.1380 C   0  0  0  0  0  1  0  0  0  0  0  0
  186.0500  177.1860  137.4970 C   0  0  1  0  0  3  0  0  0  0  0  0
  184.5980  177.1110  138.0250 C   0  0  1  0  0  3  0  0  0  0  0  0
  187.7070  178.1930  135.9350 C   0  0  0  0  0  1  0  0  0  0  0  0
  186.2330  177.9410  136.1800 C   0  0  0  0  0  2  0  0  0  0  0  0
  188.8300  176.2560  142.7860 C   0  0  0  0  0  2  0  0  0  0  0  0
  190.2770  175.7740  142.7820 C   0  0  0  0  0  2  0  0  0  0  0  0
  191.0720  176.4700  141.6950 C   0  0  0  0  0  2  0  0  0  0  0  0
  192.1040  177.3790  142.3250 C   0  0  0  0  0  1  0  0  0  0  0  0
  190.2240  176.7060  145.4530 C   0  0  0  0  0  2  0  0  0  0  0  0
  190.7900  177.2860  146.7380 C   0  0  0  0  0  2  0  0  0  0  0  0
  191.6510  176.2480  147.4280 C   0  0  0  0  0  1  0  0  0  0  0  0
  2 17  2  0  0  0  0
  3  1  1  6  0  0  0
  3 13  1  0  0  0  0
  4 16  1  6  0  0  0
  4 20  1  0  0  0  0
  5  2  1  6  0  0  0
  5 18  1  0  0  0  0
  6 15  1  0  0  0  0
  8  4  1  0  0  0  0
  8  5  1  0  0  0  0
  9  3  1  0  0  0  0
 10 11  1  0  0  0  0
 11 35  1  0  0  0  0
 11 14  1  0  0  0  0
 12 23  1  0  0  0  0
 12  2  1  0  0  0  0
 13  7  1  0  0  0  0
 14  7  1  0  0  0  0
 15  9  1  0  0  0  0
 16 20  1  0  0  0  0
 18 22  1  0  0  0  0
 18 10  1  0  0  0  0
 19  8  1  0  0  0  0
 20 22  1  0  0  0  0
 20 15  1  0  0  0  0
 21  6  1  0  0  0  0
 21 15  1  0  0  0  0
 22  1  1  0  0  0  0
 23 19  1  0  0  0  0
 24 25  1  0  0  0  0
 25 19  1  0  0  0  0
 26 28  1  0  0  0  0
 27 28  1  0  0  0  0
 27 25  1  0  0  0  0
 28 25  1  0  0  0  0
 29 30  1  0  0  0  0
 30 27  1  0  0  0  0
 31 10  1  0  0  0  0
 32 31  1  0  0  0  0
 33 34  1  0  0  0  0
 33 32  1  0  0  0  0
 35 36  1  0  0  0  0
 36 37  1  0  0  0  0
M  END
>  <MODEL>
8

>  <REMARK>
 VINA RESULT:      -4.1      2.078      3.782
  Name = 
  7 active torsions:
  status: ('A' for Active; 'I' for Inactive)
    1  A    between atoms: C_3  and  C_32
    2  A    between atoms: C_8  and  C_31
    3  A    between atoms: C_9  and  C_13
    4  A    between atoms: C_9  and  C_16
    5  A    between atoms: C_13  and  C_20
    6  A    between atoms: C_18  and  C_35
    7  A    between atoms: C_21  and  C_32
                            x       y       z     vdW  Elec       q    Type
                         _______ _______ _______ _____ _____    ______ ____

>  <TORSDO>
F 7

$$$$
=
 OpenBabel10272415003D

 37 43  0  0  1  0  0  0  0  0999 V2000
  184.2310  174.7250  138.0420 C   0  0  0  0  0  2  0  0  0  0  0  0
  188.1780  177.0060  135.8570 C   0  0  0  0  0  0  0  0  0  0  0  0
  183.1490  174.8190  136.9770 C   0  0  1  0  0  3  0  0  0  0  0  0
  186.7850  173.4100  135.3500 C   0  0  1  0  0  3  0  0  0  0  0  0
  187.1070  175.9670  135.6640 C   0  0  1  0  0  3  0  0  0  0  0  0
  184.1640  172.9980  134.3460 O   0  0  0  0  0  0  0  0  0  0  0  0
  182.1530  176.9940  137.8490 C   0  0  0  0  0  2  0  0  0  0  0  0
  187.7680  174.5800  135.5350 C   0  0  1  0  0  3  0  0  0  0  0  0
  182.9170  173.4490  136.3690 C   0  0  0  0  0  2  0  0  0  0  0  0
  185.8920  177.2790  137.6030 C   0  0  2  0  0  3  0  0  0  0  0  0
  184.5140  177.7060  138.1560 C   0  0  2  0  0  3  0  0  0  0  0  0
  189.4910  176.5750  136.4460 C   0  0  0  0  0  2  0  0  0  0  0  0
  181.8910  175.5330  137.4420 C   0  0  0  0  0  2  0  0  0  0  0  0
  183.3630  177.6290  137.1540 C   0  0  0  0  0  2  0  0  0  0  0  0
  184.2320  172.9740  135.7510 C   0  0  2  0  0  0  0  0  0  0  0  0
  186.6530  172.4960  136.5720 C   0  0  0  0  0  2  0  0  0  0  0  0
  188.0750  178.1940  135.2700 C   0  0  0  0  0  2  0  0  0  0  0  0
  185.9140  176.0330  136.6650 C   0  0  2  0  0  3  0  0  0  0  0  0
  188.9410  174.3290  136.5230 C   0  0  2  0  0  3  0  0  0  0  0  0
  185.5840  173.5240  136.2880 C   0  0  1  0  0  0  0  0  0  0  0  0
  184.1900  171.7270  134.9570 C   0  0  0  0  0  2  0  0  0  0  0  0
  185.5800  174.6740  137.3260 C   0  0  2  0  0  3  0  0  0  0  0  0
  189.3020  175.4620  137.2930 O   0  0  0  0  0  0  0  0  0  0  0  0
  191.1790  173.2460  136.8240 O   0  0  0  0  0  1  0  0  0  0  0  0
  190.1700  173.6240  135.9260 C   0  0  1  0  0  0  0  0  0  0  0  0
  192.1520  173.9950  134.3710 C   0  0  0  0  0  1  0  0  0  0  0  0
  189.9440  172.6940  134.7370 C   0  0  1  0  0  3  0  0  0  0  0  0
  190.6350  174.0650  134.5410 C   0  0  1  0  0  3  0  0  0  0  0  0
  190.0770  170.2210  134.4860 C   0  0  0  0  0  1  0  0  0  0  0  0
  190.8760  171.4830  134.7420 C   0  0  0  0  0  2  0  0  0  0  0  0
  186.9800  177.2510  138.6920 C   0  0  0  0  0  2  0  0  0  0  0  0
  187.7530  178.5580  138.8350 C   0  0  0  0  0  2  0  0  0  0  0  0
  188.5840  178.5540  140.1020 C   0  0  0  0  0  2  0  0  0  0  0  0
  189.7930  177.6650  139.9120 C   0  0  0  0  0  1  0  0  0  0  0  0
  184.5550  179.0850  138.8190 C   0  0  0  0  0  2  0  0  0  0  0  0
  184.5890  178.9900  140.3350 C   0  0  0  0  0  2  0  0  0  0  0  0
  183.4940  178.0580  140.8100 C   0  0  0  0  0  1  0  0  0  0  0  0
  2 12  1  0  0  0  0
  3  9  1  1  0  0  0
  3 13  1  0  0  0  0
  3  1  1  0  0  0  0
  4  8  1  0  0  0  0
  4 20  1  0  0  0  0
  4 16  1  1  0  0  0
  5  2  1  1  0  0  0
  5 18  1  0  0  0  0
  6 21  1  0  0  0  0
  6 15  1  0  0  0  0
  8  5  1  0  0  0  0
  8 19  1  0  0  0  0
 10 11  1  0  0  0  0
 10 31  1  0  0  0  0
 11 35  1  0  0  0  0
 12 23  1  0  0  0  0
 13  7  1  0  0  0  0
 14  7  1  0  0  0  0
 14 11  1  0  0  0  0
 15 20  1  0  0  0  0
 15  9  1  0  0  0  0
 17  2  2  0  0  0  0
 18 22  1  0  0  0  0
 18 10  1  0  0  0  0
 19 23  1  0  0  0  0
 20 16  1  0  0  0  0
 20 22  1  0  0  0  0
 21 15  1  0  0  0  0
 22  1  1  0  0  0  0
 25 19  1  0  0  0  0
 25 24  1  0  0  0  0
 26 28  1  0  0  0  0
 27 30  1  0  0  0  0
 27 25  1  0  0  0  0
 28 27  1  0  0  0  0
 28 25  1  0  0  0  0
 29 30  1  0  0  0  0
 31 32  1  0  0  0  0
 32 33  1  0  0  0  0
 34 33  1  0  0  0  0
 35 36  1  0  0  0  0
 36 37  1  0  0  0  0
M  END
>  <MODEL>
9

>  <REMARK>
 VINA RESULT:      -4.1      4.973      8.033
  Name = 
  7 active torsions:
  status: ('A' for Active; 'I' for Inactive)
    1  A    between atoms: C_3  and  C_32
    2  A    between atoms: C_8  and  C_31
    3  A    between atoms: C_9  and  C_13
    4  A    between atoms: C_9  and  C_16
    5  A    between atoms: C_13  and  C_20
    6  A    between atoms: C_18  and  C_35
    7  A    between atoms: C_21  and  C_32
                            x       y       z     vdW  Elec       q    Type
                         _______ _______ _______ _____ _____    ______ ____

>  <TORSDO>
F 7

$$$$
