=
 OpenBabel10272413173D

 32 34  0  0  1  0  0  0  0  0999 V2000
  188.4050  178.1080  141.6880 C   0  0  0  0  0  2  0  0  0  0  0  0
  189.7520  177.4070  141.8950 C   0  0  1  0  0  3  0  0  0  0  0  0
  187.4370  177.8790  142.7750 N   0  0  0  0  0  0  0  0  0  0  0  0
  188.1180  177.8280  144.0840 C   0  0  2  0  0  3  0  0  0  0  0  0
  189.0820  176.6300  144.1590 C   0  0  0  0  0  2  0  0  0  0  0  0
  189.5940  176.1920  142.7890 C   0  0  0  0  0  2  0  0  0  0  0  0
  187.9480  177.2760  147.6500 C   0  0  0  0  0  3  0  0  0  0  0  0
  187.1350  177.7190  145.2130 C   0  0  0  0  0  3  0  0  0  0  0  0
  188.7630  178.2990  148.3570 C   0  0  0  0  0  1  0  0  0  0  0  0
  187.5400  177.4960  146.4340 C   0  0  0  0  0  0  0  0  0  0  0  0
  186.5550  179.0420  142.7410 C   0  0  0  0  0  2  0  0  0  0  0  0
  185.2580  178.6710  142.1120 C   0  0  0  0  0  0  0  0  0  0  0  0
  181.2440  178.5370  138.8000 C   0  0  0  0  0  3  0  0  0  0  0  0
  184.5120  177.8290  142.6800 O   0  0  0  0  0  0  0  0  0  0  0  0
  183.4080  179.8400  138.8990 C   0  0  0  0  0  2  0  0  0  0  0  0
  183.6380  179.0830  140.1830 C   0  0  0  0  0  0  0  0  0  0  0  0
  184.8670  179.3010  140.8860 N   0  0  0  0  0  2  0  0  0  0  0  0
  182.7130  178.3120  140.6800 N   0  0  0  0  0  0  0  0  0  0  0  0
  182.2490  179.3330  138.1670 N   0  0  0  0  0  2  0  0  0  0  0  0
  181.4670  178.0550  140.0190 C   0  0  0  0  0  3  0  0  0  0  0  0
  190.4760  176.9480  140.2940 S   0  0  0  0  0  0  0  0  0  0  0  0
  189.3160  177.9820  139.3390 C   0  0  0  0  0  2  0  0  0  0  0  0
  188.9900  178.8030  136.9670 C   0  0  0  0  0  2  0  0  0  0  0  0
  190.5260  176.8260  137.3080 C   0  0  0  0  0  1  0  0  0  0  0  0
  189.3640  177.6420  137.8570 C   0  0  1  0  0  0  0  0  0  0  0  0
  188.0270  177.6340  137.1290 C   0  0  2  0  0  3  0  0  0  0  0  0
  188.0720  176.8220  135.9930 O   0  0  0  0  0  0  0  0  0  0  0  0
  186.8910  176.0770  136.0420 C   0  0  0  0  0  2  0  0  0  0  0  0
  188.0730  174.1160  136.7320 O   0  0  0  0  0  1  0  0  0  0  0  0
  187.0170  174.9650  137.0690 C   0  0  2  0  0  3  0  0  0  0  0  0
  185.7200  174.1750  137.1660 C   0  0  0  0  0  2  0  0  0  0  0  0
  185.8920  173.0360  137.9550 O   0  0  0  0  0  1  0  0  0  0  0  0
  1  2  1  0  0  0  0
  1  3  1  0  0  0  0
  2 21  1  6  0  0  0
  2  6  1  0  0  0  0
  3  4  1  0  0  0  0
  4  5  1  0  0  0  0
  4  8  1  1  0  0  0
  6  5  1  0  0  0  0
  7  9  1  0  0  0  0
  8 10  2  0  0  0  0
 10  7  2  0  0  0  0
 11  3  1  0  0  0  0
 12 14  2  0  0  0  0
 12 11  1  0  0  0  0
 13 20  2  0  0  0  0
 15 16  1  0  0  0  0
 16 18  2  0  0  0  0
 16 17  1  0  0  0  0
 17 12  1  0  0  0  0
 19 13  1  0  0  0  0
 19 15  1  0  0  0  0
 20 18  1  0  0  0  0
 22 21  1  0  0  0  0
 23 26  1  0  0  0  0
 23 25  1  0  0  0  0
 25 24  1  6  0  0  0
 25 22  1  0  0  0  0
 26 27  1  6  0  0  0
 26 25  1  0  0  0  0
 27 28  1  0  0  0  0
 28 30  1  0  0  0  0
 30 29  1  6  0  0  0
 30 31  1  0  0  0  0
 31 32  1  0  0  0  0
M  END
>  <MODEL>
1

>  <REMARK>
 VINA RESULT:      -6.9      0.000      0.000
  Name = 
  10 active torsions:
  status: ('A' for Active; 'I' for Inactive)
    1  A    between atoms: C_2  and  N_5
    2  A    between atoms: C_2  and  C_6
    3  A    between atoms: C_4  and  S_27
    4  A    between atoms: O_7  and  C_19
    5  A    between atoms: O_7  and  C_26
    6  A    between atoms: C_8  and  C_19
    7  A    between atoms: C_8  and  C_22
    8  A    between atoms: C_14  and  C_18
    9  A    between atoms: C_20  and  C_24
   10  A    between atoms: C_24  and  S_27
                            x       y       z     vdW  Elec       q    Type
                         _______ _______ _______ _____ _____    ______ ____

>  <TORSDO>
F 10

$$$$
=
 OpenBabel10272413173D

 32 34  0  0  1  0  0  0  0  0999 V2000
  186.2800  177.9350  142.8800 C   0  0  0  0  0  2  0  0  0  0  0  0
  185.0250  178.0720  143.7490 C   0  0  1  0  0  3  0  0  0  0  0  0
  187.5400  177.9430  143.6420 N   0  0  0  0  0  0  0  0  0  0  0  0
  187.3810  177.2400  144.9300 C   0  0  2  0  0  3  0  0  0  0  0  0
  186.3710  177.9690  145.8360 C   0  0  0  0  0  2  0  0  0  0  0  0
  185.3470  178.7830  145.0500 C   0  0  0  0  0  2  0  0  0  0  0  0
  189.0380  178.3470  147.9440 C   0  0  0  0  0  3  0  0  0  0  0  0
  188.6860  177.1310  145.6640 C   0  0  0  0  0  3  0  0  0  0  0  0
  188.2470  177.9350  149.1330 C   0  0  0  0  0  1  0  0  0  0  0  0
  188.8650  177.7400  146.8050 C   0  0  0  0  0  0  0  0  0  0  0  0
  188.4860  177.2050  142.8100 C   0  0  0  0  0  2  0  0  0  0  0  0
  188.5360  177.8080  141.4500 C   0  0  0  0  0  0  0  0  0  0  0  0
  189.0930  178.3160  136.2990 C   0  0  0  0  0  3  0  0  0  0  0  0
  188.3440  179.0450  141.3130 O   0  0  0  0  0  0  0  0  0  0  0  0
  189.2700  176.3760  137.9110 C   0  0  0  0  0  2  0  0  0  0  0  0
  188.9570  177.4090  138.9640 C   0  0  0  0  0  0  0  0  0  0  0  0
  188.8320  176.9740  140.3230 N   0  0  0  0  0  2  0  0  0  0  0  0
  188.8790  178.6740  138.6590 N   0  0  0  0  0  0  0  0  0  0  0  0
  189.1120  176.9100  136.5600 N   0  0  0  0  0  2  0  0  0  0  0  0
  188.9920  179.1650  137.3170 C   0  0  0  0  0  3  0  0  0  0  0  0
  183.7190  178.9440  142.8370 S   0  0  0  0  0  0  0  0  0  0  0  0
  184.5590  178.7670  141.2280 C   0  0  0  0  0  2  0  0  0  0  0  0
  182.1850  178.1920  140.5690 C   0  0  0  0  0  2  0  0  0  0  0  0
  183.5120  179.6360  138.9760 C   0  0  0  0  0  1  0  0  0  0  0  0
  183.5580  178.6050  140.0950 C   0  0  1  0  0  0  0  0  0  0  0  0
  183.0650  177.1880  139.8350 C   0  0  2  0  0  3  0  0  0  0  0  0
  182.6190  177.0380  138.5200 O   0  0  0  0  0  0  0  0  0  0  0  0
  183.5200  176.1420  137.9390 C   0  0  0  0  0  2  0  0  0  0  0  0
  183.7090  175.4070  135.6710 O   0  0  0  0  0  1  0  0  0  0  0  0
  183.7860  176.5320  136.4950 C   0  0  2  0  0  3  0  0  0  0  0  0
  185.1530  177.1870  136.3600 C   0  0  0  0  0  2  0  0  0  0  0  0
  185.8000  177.2430  137.5960 O   0  0  0  0  0  1  0  0  0  0  0  0
  1  3  1  0  0  0  0
  1  2  1  0  0  0  0
  2 21  1  6  0  0  0
  2  6  1  0  0  0  0
  3  4  1  0  0  0  0
  4  8  1  1  0  0  0
  4  5  1  0  0  0  0
  6  5  1  0  0  0  0
  7  9  1  0  0  0  0
  8 10  2  0  0  0  0
 10  7  2  0  0  0  0
 11  3  1  0  0  0  0
 12 11  1  0  0  0  0
 13 19  1  0  0  0  0
 13 20  2  0  0  0  0
 14 12  2  0  0  0  0
 15 16  1  0  0  0  0
 16 17  1  0  0  0  0
 17 12  1  0  0  0  0
 18 16  2  0  0  0  0
 19 15  1  0  0  0  0
 20 18  1  0  0  0  0
 22 21  1  0  0  0  0
 25 24  1  6  0  0  0
 25 23  1  0  0  0  0
 25 22  1  0  0  0  0
 26 27  1  6  0  0  0
 26 25  1  0  0  0  0
 26 23  1  0  0  0  0
 28 27  1  0  0  0  0
 30 29  1  6  0  0  0
 30 28  1  0  0  0  0
 31 30  1  0  0  0  0
 31 32  1  0  0  0  0
M  END
>  <MODEL>
2

>  <REMARK>
 VINA RESULT:      -6.8      2.830      5.130
  Name = 
  10 active torsions:
  status: ('A' for Active; 'I' for Inactive)
    1  A    between atoms: C_2  and  N_5
    2  A    between atoms: C_2  and  C_6
    3  A    between atoms: C_4  and  S_27
    4  A    between atoms: O_7  and  C_19
    5  A    between atoms: O_7  and  C_26
    6  A    between atoms: C_8  and  C_19
    7  A    between atoms: C_8  and  C_22
    8  A    between atoms: C_14  and  C_18
    9  A    between atoms: C_20  and  C_24
   10  A    between atoms: C_24  and  S_27
                            x       y       z     vdW  Elec       q    Type
                         _______ _______ _______ _____ _____    ______ ____

>  <TORSDO>
F 10

$$$$
=
 OpenBabel10272413173D

 32 34  0  0  1  0  0  0  0  0999 V2000
  187.6080  178.1960  141.9560 C   0  0  0  0  0  2  0  0  0  0  0  0
  189.0010  177.5560  141.9620 C   0  0  1  0  0  3  0  0  0  0  0  0
  186.8070  177.8970  143.1550 N   0  0  0  0  0  0  0  0  0  0  0  0
  187.6600  177.8510  144.3600 C   0  0  2  0  0  3  0  0  0  0  0  0
  188.6780  176.6990  144.2720 C   0  0  0  0  0  2  0  0  0  0  0  0
  189.0200  176.3160  142.8350 C   0  0  0  0  0  2  0  0  0  0  0  0
  187.9990  177.2680  147.9080 C   0  0  0  0  0  3  0  0  0  0  0  0
  186.8430  177.6700  145.6060 C   0  0  0  0  0  3  0  0  0  0  0  0
  188.8320  178.3390  148.5170 C   0  0  0  0  0  1  0  0  0  0  0  0
  187.4200  177.4680  146.7600 C   0  0  0  0  0  0  0  0  0  0  0  0
  185.8770  179.0160  143.2720 C   0  0  0  0  0  2  0  0  0  0  0  0
  184.6070  178.6900  142.5690 C   0  0  0  0  0  0  0  0  0  0  0  0
  181.0340  178.2040  138.8140 C   0  0  0  0  0  3  0  0  0  0  0  0
  183.6450  178.2030  143.2200 O   0  0  0  0  0  0  0  0  0  0  0  0
  183.3990  179.0940  138.8960 C   0  0  0  0  0  2  0  0  0  0  0  0
  183.3260  178.7460  140.3620 C   0  0  0  0  0  0  0  0  0  0  0  0
  184.4900  178.9630  141.1670 N   0  0  0  0  0  2  0  0  0  0  0  0
  182.2120  178.3330  140.8970 N   0  0  0  0  0  0  0  0  0  0  0  0
  182.2450  178.5850  138.1570 N   0  0  0  0  0  2  0  0  0  0  0  0
  181.0180  178.0960  140.1390 C   0  0  0  0  0  3  0  0  0  0  0  0
  189.5230  177.1670  140.2660 S   0  0  0  0  0  0  0  0  0  0  0  0
  188.2700  178.2520  139.5040 C   0  0  0  0  0  2  0  0  0  0  0  0
  186.8780  177.7080  137.4620 C   0  0  0  0  0  2  0  0  0  0  0  0
  188.9600  179.0950  137.1090 C   0  0  0  0  0  1  0  0  0  0  0  0
  188.2400  178.0860  137.9930 C   0  0  1  0  0  0  0  0  0  0  0  0
  187.9970  176.6730  137.4800 C   0  0  2  0  0  3  0  0  0  0  0  0
  188.5080  176.5060  136.1910 O   0  0  0  0  0  0  0  0  0  0  0  0
  189.4540  175.4850  136.3140 C   0  0  0  0  0  2  0  0  0  0  0  0
  191.4910  175.5640  135.0630 O   0  0  0  0  0  1  0  0  0  0  0  0
  190.8560  176.0570  136.2060 C   0  0  2  0  0  3  0  0  0  0  0  0
  191.6710  175.7170  137.4450 C   0  0  0  0  0  2  0  0  0  0  0  0
  191.1100  174.6350  138.1250 O   0  0  0  0  0  1  0  0  0  0  0  0
  1  2  1  0  0  0  0
  1  3  1  0  0  0  0
  2 21  1  6  0  0  0
  2  6  1  0  0  0  0
  3 11  1  0  0  0  0
  3  4  1  0  0  0  0
  4  8  1  1  0  0  0
  5  4  1  0  0  0  0
  6  5  1  0  0  0  0
  7  9  1  0  0  0  0
  8 10  2  0  0  0  0
 10  7  2  0  0  0  0
 12 14  2  0  0  0  0
 12 11  1  0  0  0  0
 13 20  2  0  0  0  0
 15 16  1  0  0  0  0
 16 18  2  0  0  0  0
 16 17  1  0  0  0  0
 17 12  1  0  0  0  0
 19 13  1  0  0  0  0
 19 15  1  0  0  0  0
 20 18  1  0  0  0  0
 22 21  1  0  0  0  0
 23 26  1  0  0  0  0
 23 25  1  0  0  0  0
 25 24  1  6  0  0  0
 25 22  1  0  0  0  0
 26 27  1  6  0  0  0
 26 25  1  0  0  0  0
 27 28  1  0  0  0  0
 30 29  1  6  0  0  0
 30 28  1  0  0  0  0
 30 31  1  0  0  0  0
 31 32  1  0  0  0  0
M  END
>  <MODEL>
3

>  <REMARK>
 VINA RESULT:      -6.8      1.397      2.050
  Name = 
  10 active torsions:
  status: ('A' for Active; 'I' for Inactive)
    1  A    between atoms: C_2  and  N_5
    2  A    between atoms: C_2  and  C_6
    3  A    between atoms: C_4  and  S_27
    4  A    between atoms: O_7  and  C_19
    5  A    between atoms: O_7  and  C_26
    6  A    between atoms: C_8  and  C_19
    7  A    between atoms: C_8  and  C_22
    8  A    between atoms: C_14  and  C_18
    9  A    between atoms: C_20  and  C_24
   10  A    between atoms: C_24  and  S_27
                            x       y       z     vdW  Elec       q    Type
                         _______ _______ _______ _____ _____    ______ ____

>  <TORSDO>
F 10

$$$$
=
 OpenBabel10272413173D

 32 34  0  0  1  0  0  0  0  0999 V2000
  184.6740  178.6670  138.7860 C   0  0  0  0  0  2  0  0  0  0  0  0
  183.2000  178.3020  138.9970 C   0  0  1  0  0  3  0  0  0  0  0  0
  185.4510  177.6350  138.0790 N   0  0  0  0  0  0  0  0  0  0  0  0
  184.6330  176.9820  137.0370 C   0  0  2  0  0  3  0  0  0  0  0  0
  183.4490  176.2210  137.6610 C   0  0  0  0  0  2  0  0  0  0  0  0
  183.0150  176.7960  139.0070 C   0  0  0  0  0  2  0  0  0  0  0  0
  186.1780  173.7230  137.2230 C   0  0  0  0  0  3  0  0  0  0  0  0
  185.4440  176.0160  136.2240 C   0  0  0  0  0  3  0  0  0  0  0  0
  185.1540  172.6980  137.5580 C   0  0  0  0  0  1  0  0  0  0  0  0
  185.8140  174.8680  136.7220 C   0  0  0  0  0  0  0  0  0  0  0  0
  186.5440  178.3630  137.4400 C   0  0  0  0  0  2  0  0  0  0  0  0
  187.8290  178.0310  138.1130 C   0  0  0  0  0  0  0  0  0  0  0  0
  191.4310  177.3670  141.8120 C   0  0  0  0  0  3  0  0  0  0  0  0
  188.8100  177.6480  137.4210 O   0  0  0  0  0  0  0  0  0  0  0  0
  189.0290  178.1550  141.8080 C   0  0  0  0  0  2  0  0  0  0  0  0
  189.1120  177.9440  140.3170 C   0  0  0  0  0  0  0  0  0  0  0  0
  187.9370  178.1820  139.5340 N   0  0  0  0  0  2  0  0  0  0  0  0
  190.2420  177.6310  139.7480 N   0  0  0  0  0  0  0  0  0  0  0  0
  190.2060  177.6330  142.5000 N   0  0  0  0  0  2  0  0  0  0  0  0
  191.4470  177.3790  140.4830 C   0  0  0  0  0  3  0  0  0  0  0  0
  182.5810  179.0430  140.5350 S   0  0  0  0  0  0  0  0  0  0  0  0
  183.4540  177.8490  141.6030 C   0  0  0  0  0  2  0  0  0  0  0  0
  185.3070  179.4140  142.3270 C   0  0  0  0  0  2  0  0  0  0  0  0
  183.3170  179.1830  143.8670 C   0  0  0  0  0  1  0  0  0  0  0  0
  184.1480  178.5470  142.7610 C   0  0  1  0  0  0  0  0  0  0  0  0
  185.5750  178.1010  143.0530 C   0  0  2  0  0  3  0  0  0  0  0  0
  185.9260  178.3570  144.3810 O   0  0  0  0  0  0  0  0  0  0  0  0
  186.7480  177.2870  144.7430 C   0  0  0  0  0  2  0  0  0  0  0  0
  188.9550  176.9100  145.5820 O   0  0  0  0  0  1  0  0  0  0  0  0
  187.8580  177.7700  145.6610 C   0  0  2  0  0  3  0  0  0  0  0  0
  187.3650  177.8600  147.0980 C   0  0  0  0  0  2  0  0  0  0  0  0
  188.4190  178.1510  147.9660 O   0  0  0  0  0  1  0  0  0  0  0  0
  1  2  1  0  0  0  0
  2  6  1  0  0  0  0
  2 21  1  1  0  0  0
  3  1  1  0  0  0  0
  4  8  1  1  0  0  0
  4  5  1  0  0  0  0
  4  3  1  0  0  0  0
  5  6  1  0  0  0  0
  7  9  1  0  0  0  0
  8 10  2  0  0  0  0
 10  7  2  0  0  0  0
 11  3  1  0  0  0  0
 11 12  1  0  0  0  0
 12 17  1  0  0  0  0
 13 19  1  0  0  0  0
 14 12  2  0  0  0  0
 15 19  1  0  0  0  0
 16 15  1  0  0  0  0
 17 16  1  0  0  0  0
 18 16  2  0  0  0  0
 18 20  1  0  0  0  0
 20 13  2  0  0  0  0
 21 22  1  0  0  0  0
 22 25  1  0  0  0  0
 23 25  1  0  0  0  0
 23 26  1  0  0  0  0
 25 26  1  0  0  0  0
 25 24  1  1  0  0  0
 26 27  1  1  0  0  0
 27 28  1  0  0  0  0
 28 30  1  0  0  0  0
 30 29  1  1  0  0  0
 30 31  1  0  0  0  0
 31 32  1  0  0  0  0
M  END
>  <MODEL>
4

>  <REMARK>
 VINA RESULT:      -6.8      2.829      8.344
  Name = 
  10 active torsions:
  status: ('A' for Active; 'I' for Inactive)
    1  A    between atoms: C_2  and  N_5
    2  A    between atoms: C_2  and  C_6
    3  A    between atoms: C_4  and  S_27
    4  A    between atoms: O_7  and  C_19
    5  A    between atoms: O_7  and  C_26
    6  A    between atoms: C_8  and  C_19
    7  A    between atoms: C_8  and  C_22
    8  A    between atoms: C_14  and  C_18
    9  A    between atoms: C_20  and  C_24
   10  A    between atoms: C_24  and  S_27
                            x       y       z     vdW  Elec       q    Type
                         _______ _______ _______ _____ _____    ______ ____

>  <TORSDO>
F 10

$$$$
=
 OpenBabel10272413173D

 32 34  0  0  1  0  0  0  0  0999 V2000
  188.4970  178.2580  141.2330 C   0  0  0  0  0  2  0  0  0  0  0  0
  187.1810  177.8810  141.9220 C   0  0  1  0  0  3  0  0  0  0  0  0
  189.7000  177.7910  141.9420 N   0  0  0  0  0  0  0  0  0  0  0  0
  189.4690  176.4670  142.5530 C   0  0  2  0  0  3  0  0  0  0  0  0
  188.3790  176.5410  143.6380 C   0  0  0  0  0  2  0  0  0  0  0  0
  187.3910  177.6820  143.4110 C   0  0  0  0  0  2  0  0  0  0  0  0
  191.6080  176.8640  145.4370 C   0  0  0  0  0  3  0  0  0  0  0  0
  190.7220  175.9200  143.1740 C   0  0  0  0  0  3  0  0  0  0  0  0
  190.8160  176.6720  146.6810 C   0  0  0  0  0  1  0  0  0  0  0  0
  191.1680  176.3920  144.3070 C   0  0  0  0  0  0  0  0  0  0  0  0
  190.7210  177.6660  140.9060 C   0  0  0  0  0  2  0  0  0  0  0  0
  190.1190  177.0870  139.6740 C   0  0  0  0  0  0  0  0  0  0  0  0
  187.4120  176.6360  135.2510 C   0  0  0  0  0  3  0  0  0  0  0  0
  190.3030  175.8690  139.4080 O   0  0  0  0  0  0  0  0  0  0  0  0
  187.8420  178.5280  136.8720 C   0  0  0  0  0  2  0  0  0  0  0  0
  188.6390  177.5010  137.6360 C   0  0  0  0  0  0  0  0  0  0  0  0
  189.3170  177.9180  138.8270 N   0  0  0  0  0  2  0  0  0  0  0  0
  188.6490  176.2510  137.2670 N   0  0  0  0  0  0  0  0  0  0  0  0
  187.4280  178.0320  135.5610 N   0  0  0  0  0  2  0  0  0  0  0  0
  187.9920  175.7780  136.0840 C   0  0  0  0  0  3  0  0  0  0  0  0
  185.9190  179.1490  141.6060 S   0  0  0  0  0  0  0  0  0  0  0  0
  184.5710  178.1570  142.3330 C   0  0  0  0  0  2  0  0  0  0  0  0
  184.6200  180.1710  143.8660 C   0  0  0  0  0  2  0  0  0  0  0  0
  182.5150  178.7730  143.8550 C   0  0  0  0  0  1  0  0  0  0  0  0
  184.0120  178.8170  143.5840 C   0  0  1  0  0  0  0  0  0  0  0  0
  184.9830  178.9800  144.7450 C   0  0  2  0  0  3  0  0  0  0  0  0
  184.3070  179.0680  145.9650 O   0  0  0  0  0  0  0  0  0  0  0  0
  184.8570  178.0510  146.7490 C   0  0  0  0  0  2  0  0  0  0  0  0
  185.9870  180.0080  147.5320 O   0  0  0  0  0  1  0  0  0  0  0  0
  185.9310  178.6190  147.6610 C   0  0  2  0  0  3  0  0  0  0  0  0
  187.2870  178.0080  147.3370 C   0  0  0  0  0  2  0  0  0  0  0  0
  188.2460  178.4080  148.2700 O   0  0  0  0  0  1  0  0  0  0  0  0
  1  2  1  0  0  0  0
  1  3  1  0  0  0  0
  2 21  1  1  0  0  0
  2  6  1  0  0  0  0
  3  4  1  0  0  0  0
  4  8  1  1  0  0  0
  4  5  1  0  0  0  0
  6  5  1  0  0  0  0
  7  9  1  0  0  0  0
  8 10  2  0  0  0  0
 10  7  2  0  0  0  0
 11  3  1  0  0  0  0
 12 11  1  0  0  0  0
 13 19  1  0  0  0  0
 13 20  2  0  0  0  0
 14 12  2  0  0  0  0
 15 16  1  0  0  0  0
 16 17  1  0  0  0  0
 17 12  1  0  0  0  0
 18 16  2  0  0  0  0
 19 15  1  0  0  0  0
 20 18  1  0  0  0  0
 21 22  1  0  0  0  0
 22 25  1  0  0  0  0
 23 26  1  0  0  0  0
 25 24  1  1  0  0  0
 25 23  1  0  0  0  0
 25 26  1  0  0  0  0
 26 27  1  1  0  0  0
 27 28  1  0  0  0  0
 28 30  1  0  0  0  0
 30 29  1  6  0  0  0
 31 30  1  0  0  0  0
 31 32  1  0  0  0  0
M  END
>  <MODEL>
5

>  <REMARK>
 VINA RESULT:      -6.7      3.132      7.163
  Name = 
  10 active torsions:
  status: ('A' for Active; 'I' for Inactive)
    1  A    between atoms: C_2  and  N_5
    2  A    between atoms: C_2  and  C_6
    3  A    between atoms: C_4  and  S_27
    4  A    between atoms: O_7  and  C_19
    5  A    between atoms: O_7  and  C_26
    6  A    between atoms: C_8  and  C_19
    7  A    between atoms: C_8  and  C_22
    8  A    between atoms: C_14  and  C_18
    9  A    between atoms: C_20  and  C_24
   10  A    between atoms: C_24  and  S_27
                            x       y       z     vdW  Elec       q    Type
                         _______ _______ _______ _____ _____    ______ ____

>  <TORSDO>
F 10

$$$$
=
 OpenBabel10272413173D

 32 34  0  0  1  0  0  0  0  0999 V2000
  186.2440  177.9270  142.9070 C   0  0  0  0  0  2  0  0  0  0  0  0
  184.9920  178.0400  143.7820 C   0  0  1  0  0  3  0  0  0  0  0  0
  187.5090  177.9820  143.6600 N   0  0  0  0  0  0  0  0  0  0  0  0
  187.3780  177.2930  144.9590 C   0  0  2  0  0  3  0  0  0  0  0  0
  186.3530  178.0050  145.8610 C   0  0  0  0  0  2  0  0  0  0  0  0
  185.3010  178.7780  145.0710 C   0  0  0  0  0  2  0  0  0  0  0  0
  188.9940  178.4170  147.9880 C   0  0  0  0  0  3  0  0  0  0  0  0
  188.6900  177.2320  145.6860 C   0  0  0  0  0  3  0  0  0  0  0  0
  188.2290  177.9440  149.1720 C   0  0  0  0  0  1  0  0  0  0  0  0
  188.8450  177.8260  146.8380 C   0  0  0  0  0  0  0  0  0  0  0  0
  188.4690  177.2590  142.8320 C   0  0  0  0  0  2  0  0  0  0  0  0
  188.5320  177.8760  141.4790 C   0  0  0  0  0  0  0  0  0  0  0  0
  188.9780  178.4140  136.3210 C   0  0  0  0  0  3  0  0  0  0  0  0
  188.4440  179.1280  141.3640 O   0  0  0  0  0  0  0  0  0  0  0  0
  189.0340  176.4420  137.9010 C   0  0  0  0  0  2  0  0  0  0  0  0
  188.8430  177.4810  138.9770 C   0  0  0  0  0  0  0  0  0  0  0  0
  188.7210  177.0370  140.3330 N   0  0  0  0  0  2  0  0  0  0  0  0
  188.8660  178.7520  138.6910 N   0  0  0  0  0  0  0  0  0  0  0  0
  188.8830  177.0080  136.5620 N   0  0  0  0  0  2  0  0  0  0  0  0
  188.9820  179.2530  137.3520 C   0  0  0  0  0  3  0  0  0  0  0  0
  183.6550  178.8600  142.8660 S   0  0  0  0  0  0  0  0  0  0  0  0
  184.6400  179.0240  141.3400 C   0  0  0  0  0  2  0  0  0  0  0  0
  184.5950  178.7780  138.8210 C   0  0  0  0  0  2  0  0  0  0  0  0
  183.0160  177.3260  140.1560 C   0  0  0  0  0  1  0  0  0  0  0  0
  183.8380  178.6060  140.1170 C   0  0  1  0  0  0  0  0  0  0  0  0
  183.4490  179.7230  139.1590 C   0  0  2  0  0  3  0  0  0  0  0  0
  182.3170  179.3810  138.4130 O   0  0  0  0  0  0  0  0  0  0  0  0
  181.3160  180.2400  138.8730 C   0  0  0  0  0  2  0  0  0  0  0  0
  181.0570  180.3260  136.4970 O   0  0  0  0  0  1  0  0  0  0  0  0
  180.5440  180.8170  137.6990 C   0  0  2  0  0  3  0  0  0  0  0  0
  180.6050  182.3380  137.7120 C   0  0  0  0  0  2  0  0  0  0  0  0
  181.8730  182.7790  138.0960 O   0  0  0  0  0  1  0  0  0  0  0  0
  1  3  1  0  0  0  0
  1  2  1  0  0  0  0
  2 21  1  6  0  0  0
  2  6  1  0  0  0  0
  3  4  1  0  0  0  0
  4  8  1  1  0  0  0
  4  5  1  0  0  0  0
  6  5  1  0  0  0  0
  7  9  1  0  0  0  0
  8 10  2  0  0  0  0
 10  7  2  0  0  0  0
 11  3  1  0  0  0  0
 12 11  1  0  0  0  0
 13 19  1  0  0  0  0
 13 20  2  0  0  0  0
 14 12  2  0  0  0  0
 15 16  1  0  0  0  0
 16 17  1  0  0  0  0
 17 12  1  0  0  0  0
 18 16  2  0  0  0  0
 19 15  1  0  0  0  0
 20 18  1  0  0  0  0
 22 21  1  0  0  0  0
 23 26  1  0  0  0  0
 23 25  1  0  0  0  0
 25 24  1  1  0  0  0
 25 22  1  0  0  0  0
 26 27  1  6  0  0  0
 26 25  1  0  0  0  0
 27 28  1  0  0  0  0
 30 29  1  6  0  0  0
 30 31  1  0  0  0  0
 30 28  1  0  0  0  0
 31 32  1  0  0  0  0
M  END
>  <MODEL>
6

>  <REMARK>
 VINA RESULT:      -6.6      3.373      6.000
  Name = 
  10 active torsions:
  status: ('A' for Active; 'I' for Inactive)
    1  A    between atoms: C_2  and  N_5
    2  A    between atoms: C_2  and  C_6
    3  A    between atoms: C_4  and  S_27
    4  A    between atoms: O_7  and  C_19
    5  A    between atoms: O_7  and  C_26
    6  A    between atoms: C_8  and  C_19
    7  A    between atoms: C_8  and  C_22
    8  A    between atoms: C_14  and  C_18
    9  A    between atoms: C_20  and  C_24
   10  A    between atoms: C_24  and  S_27
                            x       y       z     vdW  Elec       q    Type
                         _______ _______ _______ _____ _____    ______ ____

>  <TORSDO>
F 10

$$$$
=
 OpenBabel10272413173D

 32 34  0  0  1  0  0  0  0  0999 V2000
  188.5950  178.1230  141.6130 C   0  0  0  0  0  2  0  0  0  0  0  0
  189.8990  177.3560  141.8550 C   0  0  1  0  0  3  0  0  0  0  0  0
  187.5710  177.9050  142.6500 N   0  0  0  0  0  0  0  0  0  0  0  0
  188.1900  177.7850  143.9840 C   0  0  2  0  0  3  0  0  0  0  0  0
  189.0970  176.5430  144.0630 C   0  0  0  0  0  2  0  0  0  0  0  0
  189.6490  176.1230  142.7030 C   0  0  0  0  0  2  0  0  0  0  0  0
  187.8550  177.3440  147.5540 C   0  0  0  0  0  3  0  0  0  0  0  0
  187.1550  177.6860  145.0660 C   0  0  0  0  0  3  0  0  0  0  0  0
  188.6070  178.4110  148.2660 C   0  0  0  0  0  1  0  0  0  0  0  0
  187.5030  177.5140  146.3120 C   0  0  0  0  0  0  0  0  0  0  0  0
  186.7420  179.1060  142.6150 C   0  0  0  0  0  2  0  0  0  0  0  0
  185.3980  178.7740  142.0710 C   0  0  0  0  0  0  0  0  0  0  0  0
  181.2380  178.6440  138.9430 C   0  0  0  0  0  3  0  0  0  0  0  0
  184.6250  178.0340  142.7360 O   0  0  0  0  0  0  0  0  0  0  0  0
  183.4840  179.8020  138.8470 C   0  0  0  0  0  2  0  0  0  0  0  0
  183.7220  179.1380  140.1800 C   0  0  0  0  0  0  0  0  0  0  0  0
  184.9930  179.3280  140.8130 N   0  0  0  0  0  2  0  0  0  0  0  0
  182.7730  178.4730  140.7760 N   0  0  0  0  0  0  0  0  0  0  0  0
  182.2630  179.3170  138.2060 N   0  0  0  0  0  2  0  0  0  0  0  0
  181.4850  178.2490  140.1880 C   0  0  0  0  0  3  0  0  0  0  0  0
  190.6730  176.9130  140.2730 S   0  0  0  0  0  0  0  0  0  0  0  0
  189.2720  177.5280  139.2800 C   0  0  0  0  0  2  0  0  0  0  0  0
  189.0640  175.9610  137.3030 C   0  0  0  0  0  2  0  0  0  0  0  0
  189.1950  178.4370  136.8110 C   0  0  0  0  0  1  0  0  0  0  0  0
  189.5130  177.3170  137.7930 C   0  0  1  0  0  0  0  0  0  0  0  0
  190.5520  176.2660  137.4270 C   0  0  2  0  0  3  0  0  0  0  0  0
  191.0930  176.5060  136.1610 O   0  0  0  0  0  0  0  0  0  0  0  0
  192.2270  175.6910  136.0990 C   0  0  0  0  0  2  0  0  0  0  0  0
  194.2230  176.9180  136.5760 O   0  0  0  0  0  1  0  0  0  0  0  0
  193.2340  176.1190  137.1530 C   0  0  2  0  0  3  0  0  0  0  0  0
  193.8650  174.9020  137.8160 C   0  0  0  0  0  2  0  0  0  0  0  0
  195.2550  175.0250  137.8570 O   0  0  0  0  0  1  0  0  0  0  0  0
  1  2  1  0  0  0  0
  1  3  1  0  0  0  0
  2 21  1  6  0  0  0
  2  6  1  0  0  0  0
  3  4  1  0  0  0  0
  4  5  1  0  0  0  0
  4  8  1  1  0  0  0
  6  5  1  0  0  0  0
  7  9  1  0  0  0  0
  8 10  2  0  0  0  0
 10  7  2  0  0  0  0
 11  3  1  0  0  0  0
 12 11  1  0  0  0  0
 12 14  2  0  0  0  0
 13 20  2  0  0  0  0
 15 16  1  0  0  0  0
 16 18  2  0  0  0  0
 16 17  1  0  0  0  0
 17 12  1  0  0  0  0
 19 15  1  0  0  0  0
 19 13  1  0  0  0  0
 20 18  1  0  0  0  0
 22 21  1  0  0  0  0
 23 26  1  0  0  0  0
 23 25  1  0  0  0  0
 25 24  1  6  0  0  0
 25 22  1  0  0  0  0
 26 27  1  6  0  0  0
 26 25  1  0  0  0  0
 28 27  1  0  0  0  0
 28 30  1  0  0  0  0
 30 29  1  6  0  0  0
 30 31  1  0  0  0  0
 31 32  1  0  0  0  0
M  END
>  <MODEL>
7

>  <REMARK>
 VINA RESULT:      -6.6      2.047      3.085
  Name = 
  10 active torsions:
  status: ('A' for Active; 'I' for Inactive)
    1  A    between atoms: C_2  and  N_5
    2  A    between atoms: C_2  and  C_6
    3  A    between atoms: C_4  and  S_27
    4  A    between atoms: O_7  and  C_19
    5  A    between atoms: O_7  and  C_26
    6  A    between atoms: C_8  and  C_19
    7  A    between atoms: C_8  and  C_22
    8  A    between atoms: C_14  and  C_18
    9  A    between atoms: C_20  and  C_24
   10  A    between atoms: C_24  and  S_27
                            x       y       z     vdW  Elec       q    Type
                         _______ _______ _______ _____ _____    ______ ____

>  <TORSDO>
F 10

$$$$
=
 OpenBabel10272413173D

 32 34  0  0  1  0  0  0  0  0999 V2000
  187.7440  177.4920  138.2670 C   0  0  0  0  0  2  0  0  0  0  0  0
  187.2270  176.7120  137.0540 C   0  0  1  0  0  3  0  0  0  0  0  0
  188.9330  176.8960  138.9000 N   0  0  0  0  0  0  0  0  0  0  0  0
  189.8310  176.3100  137.8850 C   0  0  2  0  0  3  0  0  0  0  0  0
  189.1490  175.1400  137.1530 C   0  0  0  0  0  2  0  0  0  0  0  0
  187.6260  175.2520  137.1430 C   0  0  0  0  0  2  0  0  0  0  0  0
  193.1250  175.1190  137.0040 C   0  0  0  0  0  3  0  0  0  0  0  0
  191.1050  175.8080  138.5000 C   0  0  0  0  0  3  0  0  0  0  0  0
  193.8320  176.1460  136.1930 C   0  0  0  0  0  1  0  0  0  0  0  0
  192.1170  175.4620  137.7530 C   0  0  0  0  0  0  0  0  0  0  0  0
  189.6110  178.0140  139.5490 C   0  0  0  0  0  2  0  0  0  0  0  0
  189.3710  177.9650  141.0160 C   0  0  0  0  0  0  0  0  0  0  0  0
  190.0680  177.0900  146.1000 C   0  0  0  0  0  3  0  0  0  0  0  0
  188.2730  178.3730  141.4790 O   0  0  0  0  0  0  0  0  0  0  0  0
  191.4650  176.6870  144.0320 C   0  0  0  0  0  2  0  0  0  0  0  0
  190.2870  177.2740  143.2970 C   0  0  0  0  0  0  0  0  0  0  0  0
  190.3840  177.4260  141.8760 N   0  0  0  0  0  2  0  0  0  0  0  0
  189.1820  177.5610  143.9240 N   0  0  0  0  0  0  0  0  0  0  0  0
  191.3300  176.8300  145.4800 N   0  0  0  0  0  2  0  0  0  0  0  0
  189.0300  177.4310  145.3440 C   0  0  0  0  0  3  0  0  0  0  0  0
  185.4240  176.8860  136.9150 S   0  0  0  0  0  0  0  0  0  0  0  0
  185.3700  178.3920  137.9430 C   0  0  0  0  0  2  0  0  0  0  0  0
  183.5640  179.6780  139.1630 C   0  0  0  0  0  2  0  0  0  0  0  0
  183.2290  177.1890  138.8870 C   0  0  0  0  0  1  0  0  0  0  0  0
  184.2250  178.3390  138.9420 C   0  0  1  0  0  0  0  0  0  0  0  0
  184.4460  179.0820  140.2530 C   0  0  2  0  0  3  0  0  0  0  0  0
  183.6490  178.5590  141.2740 O   0  0  0  0  0  0  0  0  0  0  0  0
  184.5570  178.0650  142.2150 C   0  0  0  0  0  2  0  0  0  0  0  0
  185.7430  178.7020  144.1920 O   0  0  0  0  0  1  0  0  0  0  0  0
  184.6170  178.9910  143.4170 C   0  0  2  0  0  3  0  0  0  0  0  0
  183.3550  178.8600  144.2580 C   0  0  0  0  0  2  0  0  0  0  0  0
  183.6300  179.1030  145.6060 O   0  0  0  0  0  1  0  0  0  0  0  0
  1  3  1  0  0  0  0
  2 21  1  1  0  0  0
  2  6  1  0  0  0  0
  2  1  1  0  0  0  0
  3 11  1  0  0  0  0
  4  8  1  1  0  0  0
  4  3  1  0  0  0  0
  5  4  1  0  0  0  0
  6  5  1  0  0  0  0
  7 10  2  0  0  0  0
  9  7  1  0  0  0  0
 10  8  2  0  0  0  0
 11 12  1  0  0  0  0
 12 14  2  0  0  0  0
 12 17  1  0  0  0  0
 15 19  1  0  0  0  0
 16 18  2  0  0  0  0
 16 15  1  0  0  0  0
 17 16  1  0  0  0  0
 18 20  1  0  0  0  0
 19 13  1  0  0  0  0
 20 13  2  0  0  0  0
 21 22  1  0  0  0  0
 22 25  1  0  0  0  0
 23 26  1  0  0  0  0
 25 24  1  1  0  0  0
 25 23  1  0  0  0  0
 25 26  1  0  0  0  0
 26 27  1  1  0  0  0
 27 28  1  0  0  0  0
 28 30  1  0  0  0  0
 30 29  1  1  0  0  0
 30 31  1  0  0  0  0
 31 32  1  0  0  0  0
M  END
>  <MODEL>
8

>  <REMARK>
 VINA RESULT:      -6.6      3.307      7.831
  Name = 
  10 active torsions:
  status: ('A' for Active; 'I' for Inactive)
    1  A    between atoms: C_2  and  N_5
    2  A    between atoms: C_2  and  C_6
    3  A    between atoms: C_4  and  S_27
    4  A    between atoms: O_7  and  C_19
    5  A    between atoms: O_7  and  C_26
    6  A    between atoms: C_8  and  C_19
    7  A    between atoms: C_8  and  C_22
    8  A    between atoms: C_14  and  C_18
    9  A    between atoms: C_20  and  C_24
   10  A    between atoms: C_24  and  S_27
                            x       y       z     vdW  Elec       q    Type
                         _______ _______ _______ _____ _____    ______ ____

>  <TORSDO>
F 10

$$$$
=
 OpenBabel10272413173D

 32 34  0  0  1  0  0  0  0  0999 V2000
  187.5840  178.3660  141.4370 C   0  0  0  0  0  2  0  0  0  0  0  0
  188.7790  177.6630  142.0910 C   0  0  1  0  0  3  0  0  0  0  0  0
  186.3360  178.2730  142.2150 N   0  0  0  0  0  0  0  0  0  0  0  0
  186.6120  178.3480  143.6630 C   0  0  2  0  0  3  0  0  0  0  0  0
  187.4530  177.1450  144.1280 C   0  0  0  0  0  2  0  0  0  0  0  0
  188.3110  176.5540  143.0130 C   0  0  0  0  0  2  0  0  0  0  0  0
  185.4150  178.4180  147.0700 C   0  0  0  0  0  3  0  0  0  0  0  0
  185.3430  178.3800  144.4650 C   0  0  0  0  0  3  0  0  0  0  0  0
  185.9820  179.5960  147.7790 C   0  0  0  0  0  1  0  0  0  0  0  0
  185.3770  178.3980  145.7700 C   0  0  0  0  0  0  0  0  0  0  0  0
  185.5590  179.4430  141.8160 C   0  0  0  0  0  2  0  0  0  0  0  0
  184.7730  179.1320  140.5920 C   0  0  0  0  0  0  0  0  0  0  0  0
  181.6050  176.7010  137.2520 C   0  0  0  0  0  3  0  0  0  0  0  0
  184.8480  179.8980  139.5950 O   0  0  0  0  0  0  0  0  0  0  0  0
  182.3980  176.2170  139.6030 C   0  0  0  0  0  2  0  0  0  0  0  0
  183.1890  177.4920  139.4450 C   0  0  0  0  0  0  0  0  0  0  0  0
  183.9660  177.9480  140.5580 N   0  0  0  0  0  2  0  0  0  0  0  0
  183.2270  178.1180  138.3030 N   0  0  0  0  0  0  0  0  0  0  0  0
  181.4630  176.0150  138.4980 N   0  0  0  0  0  2  0  0  0  0  0  0
  182.4670  177.7090  137.1580 C   0  0  0  0  0  3  0  0  0  0  0  0
  189.9050  177.0210  140.8190 S   0  0  0  0  0  0  0  0  0  0  0  0
  188.7120  177.2760  139.4630 C   0  0  0  0  0  2  0  0  0  0  0  0
  189.1140  175.8080  137.4420 C   0  0  0  0  0  2  0  0  0  0  0  0
  189.3460  178.3040  137.1260 C   0  0  0  0  0  1  0  0  0  0  0  0
  189.3800  177.1380  138.1050 C   0  0  1  0  0  0  0  0  0  0  0  0
  190.4960  176.1070  138.0100 C   0  0  2  0  0  3  0  0  0  0  0  0
  191.3800  176.4090  136.9710 O   0  0  0  0  0  0  0  0  0  0  0  0
  192.6260  176.5360  137.5910 C   0  0  0  0  0  2  0  0  0  0  0  0
  194.2800  174.8980  138.1380 O   0  0  0  0  0  1  0  0  0  0  0  0
  193.5760  175.4690  137.0760 C   0  0  2  0  0  3  0  0  0  0  0  0
  194.5460  176.0600  136.0620 C   0  0  0  0  0  2  0  0  0  0  0  0
  195.8300  175.5410  136.2450 O   0  0  0  0  0  1  0  0  0  0  0  0
  1  2  1  0  0  0  0
  1  3  1  0  0  0  0
  2 21  1  6  0  0  0
  2  6  1  0  0  0  0
  3  4  1  0  0  0  0
  4  5  1  0  0  0  0
  4  8  1  1  0  0  0
  6  5  1  0  0  0  0
  7  9  1  0  0  0  0
  8 10  2  0  0  0  0
 10  7  2  0  0  0  0
 11  3  1  0  0  0  0
 12 11  1  0  0  0  0
 13 19  1  0  0  0  0
 14 12  2  0  0  0  0
 16 15  1  0  0  0  0
 16 17  1  0  0  0  0
 17 12  1  0  0  0  0
 18 16  2  0  0  0  0
 19 15  1  0  0  0  0
 20 13  2  0  0  0  0
 20 18  1  0  0  0  0
 22 21  1  0  0  0  0
 23 26  1  0  0  0  0
 23 25  1  0  0  0  0
 25 24  1  6  0  0  0
 25 22  1  0  0  0  0
 26 27  1  6  0  0  0
 26 25  1  0  0  0  0
 27 28  1  0  0  0  0
 30 28  1  0  0  0  0
 30 29  1  1  0  0  0
 31 32  1  0  0  0  0
 31 30  1  0  0  0  0
M  END
>  <MODEL>
9

>  <REMARK>
 VINA RESULT:      -6.5      2.712      3.782
  Name = 
  10 active torsions:
  status: ('A' for Active; 'I' for Inactive)
    1  A    between atoms: C_2  and  N_5
    2  A    between atoms: C_2  and  C_6
    3  A    between atoms: C_4  and  S_27
    4  A    between atoms: O_7  and  C_19
    5  A    between atoms: O_7  and  C_26
    6  A    between atoms: C_8  and  C_19
    7  A    between atoms: C_8  and  C_22
    8  A    between atoms: C_14  and  C_18
    9  A    between atoms: C_20  and  C_24
   10  A    between atoms: C_24  and  S_27
                            x       y       z     vdW  Elec       q    Type
                         _______ _______ _______ _____ _____    ______ ____

>  <TORSDO>
F 10

$$$$
