=
 OpenBabel10272400113D

 34 38  0  0  1  0  0  0  0  0999 V2000
  189.1310  177.3710  138.3070 C   0  0  0  0  0  0  0  0  0  0  0  0
  191.3140  176.8190  139.2440 C   0  0  0  0  0  0  0  0  0  0  0  0
  189.4680  177.7450  140.6760 C   0  0  0  0  0  0  0  0  0  0  0  0
  189.8240  178.5360  142.9420 C   0  0  2  0  0  3  0  0  0  0  0  0
  189.5460  176.8870  137.0650 C   0  0  0  0  0  3  0  0  0  0  0  0
  191.7050  176.3450  137.9880 C   0  0  0  0  0  3  0  0  0  0  0  0
  190.2330  176.1180  142.3500 C   0  0  0  0  0  2  0  0  0  0  0  0
  189.9870  177.2990  139.4350 C   0  0  0  0  0  0  0  0  0  0  0  0
  191.1440  175.9770  143.5600 C   0  0  0  0  0  2  0  0  0  0  0  0
  190.6310  178.3450  144.2270 C   0  0  0  0  0  2  0  0  0  0  0  0
  190.8250  176.3610  136.9080 C   0  0  0  0  0  3  0  0  0  0  0  0
  188.1910  178.3390  140.7140 C   0  0  0  0  0  0  0  0  0  0  0  0
  187.9030  177.9360  138.4180 N   0  0  0  0  0  0  0  0  0  0  0  0
  192.5900  176.9170  140.4510 Cl  0  0  0  0  0  0  0  0  0  0  0  0
  188.3890  178.5260  143.2060 N   0  0  0  0  0  2  0  0  0  0  0  0
  187.6750  178.9740  141.9980 C   0  0  2  0  0  3  0  0  0  0  0  0
  190.6380  176.8830  144.6770 C   0  0  2  0  0  3  0  0  0  0  0  0
  190.1250  177.5190  141.9300 N   0  0  0  0  0  0  0  0  0  0  0  0
  187.4590  178.4250  139.5730 N   0  0  0  0  0  0  0  0  0  0  0  0
  184.2710  178.4000  143.5980 C   0  0  0  0  0  0  0  0  0  0  0  0
  183.4490  178.3480  142.4690 C   0  0  0  0  0  3  0  0  0  0  0  0
  186.2030  178.7610  142.1750 C   0  0  0  0  0  0  0  0  0  0  0  0
  184.0020  178.5020  141.1940 C   0  0  0  0  0  3  0  0  0  0  0  0
  185.6460  178.6050  143.4530 C   0  0  0  0  0  3  0  0  0  0  0  0
  185.3770  178.7080  141.0480 C   0  0  0  0  0  3  0  0  0  0  0  0
  183.7360  178.2500  144.8330 F   0  0  0  0  0  0  0  0  0  0  0  0
  191.3970  176.6970  145.9150 N   0  0  0  0  0  2  0  0  0  0  0  0
  190.6990  177.3000  147.0510 C   0  0  0  0  0  2  0  0  0  0  0  0
  189.2530  175.5600  147.8320 F   0  0  0  0  0  0  0  0  0  0  0  0
  189.2700  176.7690  147.1560 C   0  0  1  0  0  3  0  0  0  0  0  0
  187.1430  178.0600  146.8570 C   0  0  0  0  0  1  0  0  0  0  0  0
  188.2970  177.7620  147.7980 C   0  0  0  0  0  0  0  0  0  0  0  0
  188.9450  178.9420  148.1170 F   0  0  0  0  0  0  0  0  0  0  0  0
  187.7860  177.2080  148.9560 F   0  0  0  0  0  0  0  0  0  0  0  0
  1 13  2  0  0  0  0
  1  8  1  0  0  0  0
  2  8  1  0  0  0  0
  2 14  1  0  0  0  0
  3 12  1  0  0  0  0
  3 18  1  0  0  0  0
  4 15  1  0  0  0  0
  4 10  1  1  0  0  0
  5  1  1  0  0  0  0
  6  2  2  0  0  0  0
  7  9  1  0  0  0  0
  8  3  2  0  0  0  0
  9 17  1  0  0  0  0
 10 17  1  0  0  0  0
 11  5  2  0  0  0  0
 11  6  1  0  0  0  0
 12 16  1  0  0  0  0
 13 19  1  0  0  0  0
 16 22  1  1  0  0  0
 16 15  1  0  0  0  0
 17 27  1  1  0  0  0
 18  7  1  0  0  0  0
 18  4  1  0  0  0  0
 19 12  2  0  0  0  0
 20 26  1  0  0  0  0
 21 20  2  0  0  0  0
 22 24  2  0  0  0  0
 23 21  1  0  0  0  0
 24 20  1  0  0  0  0
 25 23  2  0  0  0  0
 25 22  1  0  0  0  0
 27 28  1  0  0  0  0
 28 30  1  0  0  0  0
 30 32  1  0  0  0  0
 30 29  1  1  0  0  0
 31 32  1  0  0  0  0
 32 33  1  0  0  0  0
 32 34  1  0  0  0  0
M  END
>  <MODEL>
1

>  <REMARK>
 VINA RESULT:      -9.4      0.000      0.000
  Name = 
  5 active torsions:
  status: ('A' for Active; 'I' for Inactive)
    1  A    between atoms: N_3  and  C_13
    2  A    between atoms: N_3  and  C_29
    3  A    between atoms: C_12  and  C_28
    4  A    between atoms: C_13  and  C_33
    5  A    between atoms: C_20  and  C_33
                            x       y       z     vdW  Elec       q    Type
                         _______ _______ _______ _____ _____    ______ ____

>  <TORSDO>
F 5

$$$$
=
 OpenBabel10272400113D

 34 38  0  0  1  0  0  0  0  0999 V2000
  187.4280  177.8370  137.9660 C   0  0  0  0  0  0  0  0  0  0  0  0
  189.7330  177.1570  138.3750 C   0  0  0  0  0  0  0  0  0  0  0  0
  188.2620  177.9900  140.2350 C   0  0  0  0  0  0  0  0  0  0  0  0
  189.1110  178.5660  142.4330 C   0  0  2  0  0  3  0  0  0  0  0  0
  187.5570  177.4580  136.6280 C   0  0  0  0  0  3  0  0  0  0  0  0
  189.8380  176.7900  137.0300 C   0  0  0  0  0  3  0  0  0  0  0  0
  189.2920  176.2030  141.5700 C   0  0  0  0  0  2  0  0  0  0  0  0
  188.4950  177.6460  138.8790 C   0  0  0  0  0  0  0  0  0  0  0  0
  190.4270  175.9350  142.5460 C   0  0  0  0  0  2  0  0  0  0  0  0
  190.1580  178.2440  143.5000 C   0  0  0  0  0  2  0  0  0  0  0  0
  188.7540  176.9210  136.1640 C   0  0  0  0  0  3  0  0  0  0  0  0
  187.0450  178.6050  140.5880 C   0  0  0  0  0  0  0  0  0  0  0  0
  186.2720  178.4160  138.3780 N   0  0  0  0  0  0  0  0  0  0  0  0
  191.2350  177.1190  139.2920 Cl  0  0  0  0  0  0  0  0  0  0  0  0
  187.7620  178.5630  142.9900 N   0  0  0  0  0  2  0  0  0  0  0  0
  186.8320  179.1320  142.0010 C   0  0  2  0  0  3  0  0  0  0  0  0
  190.2000  176.7480  143.8150 C   0  0  2  0  0  3  0  0  0  0  0  0
  189.1540  177.6380  141.2990 N   0  0  0  0  0  0  0  0  0  0  0  0
  186.0970  178.8090  139.6380 N   0  0  0  0  0  0  0  0  0  0  0  0
  183.7720  178.8170  144.2400 C   0  0  0  0  0  0  0  0  0  0  0  0
  182.7750  178.5470  143.2960 C   0  0  0  0  0  3  0  0  0  0  0  0
  185.4210  178.9360  142.4640 C   0  0  0  0  0  0  0  0  0  0  0  0
  183.1010  178.4720  141.9390 C   0  0  0  0  0  3  0  0  0  0  0  0
  185.0930  179.0100  143.8260 C   0  0  0  0  0  3  0  0  0  0  0  0
  184.4210  178.6660  141.5240 C   0  0  0  0  0  3  0  0  0  0  0  0
  183.4570  178.8890  145.5550 F   0  0  0  0  0  0  0  0  0  0  0  0
  191.1910  176.4350  144.8470 N   0  0  0  0  0  2  0  0  0  0  0  0
  191.1280  177.4040  145.9410 C   0  0  0  0  0  2  0  0  0  0  0  0
  191.3300  176.9620  148.2850 F   0  0  0  0  0  0  0  0  0  0  0  0
  190.5050  176.7790  147.1880 C   0  0  1  0  0  3  0  0  0  0  0  0
  189.1270  178.3720  148.5460 C   0  0  0  0  0  1  0  0  0  0  0  0
  189.0910  177.2880  147.4830 C   0  0  0  0  0  0  0  0  0  0  0  0
  188.2800  176.2520  147.9130 F   0  0  0  0  0  0  0  0  0  0  0  0
  188.5540  177.8240  146.3290 F   0  0  0  0  0  0  0  0  0  0  0  0
  1 13  2  0  0  0  0
  1  8  1  0  0  0  0
  2  8  1  0  0  0  0
  2 14  1  0  0  0  0
  3 12  1  0  0  0  0
  3 18  1  0  0  0  0
  4 15  1  0  0  0  0
  4 10  1  1  0  0  0
  5  1  1  0  0  0  0
  6  2  2  0  0  0  0
  7  9  1  0  0  0  0
  8  3  2  0  0  0  0
  9 17  1  0  0  0  0
 10 17  1  0  0  0  0
 11  5  2  0  0  0  0
 11  6  1  0  0  0  0
 12 16  1  0  0  0  0
 13 19  1  0  0  0  0
 16 22  1  1  0  0  0
 16 15  1  0  0  0  0
 17 27  1  1  0  0  0
 18  7  1  0  0  0  0
 18  4  1  0  0  0  0
 19 12  2  0  0  0  0
 20 26  1  0  0  0  0
 21 20  2  0  0  0  0
 22 24  2  0  0  0  0
 23 21  1  0  0  0  0
 24 20  1  0  0  0  0
 25 23  2  0  0  0  0
 25 22  1  0  0  0  0
 27 28  1  0  0  0  0
 28 30  1  0  0  0  0
 30 32  1  0  0  0  0
 30 29  1  1  0  0  0
 32 33  1  0  0  0  0
 32 31  1  0  0  0  0
 34 32  1  0  0  0  0
M  END
>  <MODEL>
2

>  <REMARK>
 VINA RESULT:      -9.0      1.202      1.570
  Name = 
  5 active torsions:
  status: ('A' for Active; 'I' for Inactive)
    1  A    between atoms: N_3  and  C_13
    2  A    between atoms: N_3  and  C_29
    3  A    between atoms: C_12  and  C_28
    4  A    between atoms: C_13  and  C_33
    5  A    between atoms: C_20  and  C_33
                            x       y       z     vdW  Elec       q    Type
                         _______ _______ _______ _____ _____    ______ ____

>  <TORSDO>
F 5

$$$$
=
 OpenBabel10272400113D

 34 38  0  0  1  0  0  0  0  0999 V2000
  188.4680  177.6630  139.2350 C   0  0  0  0  0  0  0  0  0  0  0  0
  189.3990  177.9200  141.4740 C   0  0  0  0  0  0  0  0  0  0  0  0
  186.9780  178.3980  140.9980 C   0  0  0  0  0  0  0  0  0  0  0  0
  185.5170  179.5200  142.5770 C   0  0  2  0  0  3  0  0  0  0  0  0
  189.7000  177.1880  138.7810 C   0  0  0  0  0  3  0  0  0  0  0  0
  190.6230  177.4450  140.9930 C   0  0  0  0  0  3  0  0  0  0  0  0
  186.5520  177.2910  143.1490 C   0  0  0  0  0  2  0  0  0  0  0  0
  188.2760  177.9900  140.6020 C   0  0  0  0  0  0  0  0  0  0  0  0
  186.3500  177.5800  144.6290 C   0  0  0  0  0  2  0  0  0  0  0  0
  185.1970  179.7380  144.0570 C   0  0  0  0  0  2  0  0  0  0  0  0
  190.7710  177.0640  139.6610 C   0  0  0  0  0  3  0  0  0  0  0  0
  185.9830  178.5720  140.0160 C   0  0  0  0  0  0  0  0  0  0  0  0
  187.4590  177.8340  138.3450 N   0  0  0  0  0  0  0  0  0  0  0  0
  189.4200  178.5450  143.1180 Cl  0  0  0  0  0  0  0  0  0  0  0  0
  184.3360  179.1020  141.8300 N   0  0  0  0  0  2  0  0  0  0  0  0
  184.6300  179.1650  140.3890 C   0  0  2  0  0  3  0  0  0  0  0  0
  185.0850  178.4120  144.8100 C   0  0  2  0  0  3  0  0  0  0  0  0
  186.5810  178.5320  142.3680 N   0  0  0  0  0  0  0  0  0  0  0  0
  186.2670  178.2950  138.7180 N   0  0  0  0  0  0  0  0  0  0  0  0
  182.0240  176.6650  139.1920 C   0  0  0  0  0  0  0  0  0  0  0  0
  181.4290  177.3770  138.1460 C   0  0  0  0  0  3  0  0  0  0  0  0
  183.5120  178.5330  139.6180 C   0  0  0  0  0  0  0  0  0  0  0  0
  181.8750  178.6650  137.8360 C   0  0  0  0  0  3  0  0  0  0  0  0
  183.0640  177.2400  139.9270 C   0  0  0  0  0  3  0  0  0  0  0  0
  182.9140  179.2420  138.5710 C   0  0  0  0  0  3  0  0  0  0  0  0
  181.5930  175.4160  139.4930 F   0  0  0  0  0  0  0  0  0  0  0  0
  184.7650  178.6140  146.2250 N   0  0  0  0  0  2  0  0  0  0  0  0
  185.7240  177.9170  147.0810 C   0  0  0  0  0  2  0  0  0  0  0  0
  186.5610  179.9290  148.0700 F   0  0  0  0  0  0  0  0  0  0  0  0
  186.9390  178.7980  147.3680 C   0  0  1  0  0  3  0  0  0  0  0  0
  188.7750  177.1070  147.1490 C   0  0  0  0  0  1  0  0  0  0  0  0
  188.0680  178.0610  148.0940 C   0  0  0  0  0  0  0  0  0  0  0  0
  187.5710  177.3530  149.1740 F   0  0  0  0  0  0  0  0  0  0  0  0
  188.9880  178.9850  148.5530 F   0  0  0  0  0  0  0  0  0  0  0  0
  1  8  1  0  0  0  0
  2 14  1  0  0  0  0
  3 18  1  0  0  0  0
  4 10  1  1  0  0  0
  5  1  2  0  0  0  0
  5 11  1  0  0  0  0
  6  2  1  0  0  0  0
  7  9  1  0  0  0  0
  8  3  1  0  0  0  0
  8  2  2  0  0  0  0
  9 17  1  0  0  0  0
 10 17  1  0  0  0  0
 11  6  2  0  0  0  0
 12 16  1  0  0  0  0
 12  3  2  0  0  0  0
 13 19  2  0  0  0  0
 13  1  1  0  0  0  0
 15  4  1  0  0  0  0
 16 22  1  6  0  0  0
 16 15  1  0  0  0  0
 17 27  1  1  0  0  0
 18  4  1  0  0  0  0
 18  7  1  0  0  0  0
 19 12  1  0  0  0  0
 20 26  1  0  0  0  0
 20 24  1  0  0  0  0
 21 20  2  0  0  0  0
 22 24  2  0  0  0  0
 23 21  1  0  0  0  0
 23 25  2  0  0  0  0
 25 22  1  0  0  0  0
 27 28  1  0  0  0  0
 28 30  1  0  0  0  0
 30 29  1  1  0  0  0
 30 32  1  0  0  0  0
 31 32  1  0  0  0  0
 32 34  1  0  0  0  0
 32 33  1  0  0  0  0
M  END
>  <MODEL>
3

>  <REMARK>
 VINA RESULT:      -8.9      2.394      3.919
  Name = 
  5 active torsions:
  status: ('A' for Active; 'I' for Inactive)
    1  A    between atoms: N_3  and  C_13
    2  A    between atoms: N_3  and  C_29
    3  A    between atoms: C_12  and  C_28
    4  A    between atoms: C_13  and  C_33
    5  A    between atoms: C_20  and  C_33
                            x       y       z     vdW  Elec       q    Type
                         _______ _______ _______ _____ _____    ______ ____

>  <TORSDO>
F 5

$$$$
=
 OpenBabel10272400113D

 34 38  0  0  1  0  0  0  0  0999 V2000
  188.2140  177.8650  147.4470 C   0  0  0  0  0  0  0  0  0  0  0  0
  190.5350  177.3610  146.8950 C   0  0  0  0  0  0  0  0  0  0  0  0
  188.7330  177.3280  145.1430 C   0  0  0  0  0  0  0  0  0  0  0  0
  189.0660  176.4130  142.9210 C   0  0  2  0  0  3  0  0  0  0  0  0
  188.5910  178.1380  148.7640 C   0  0  0  0  0  3  0  0  0  0  0  0
  190.8850  177.6360  148.2200 C   0  0  0  0  0  3  0  0  0  0  0  0
  190.4050  178.4040  143.7000 C   0  0  0  0  0  2  0  0  0  0  0  0
  189.1850  177.5210  146.4720 C   0  0  0  0  0  0  0  0  0  0  0  0
  191.4680  178.0950  142.6570 C   0  0  0  0  0  2  0  0  0  0  0  0
  190.0720  176.1940  141.7900 C   0  0  0  0  0  2  0  0  0  0  0  0
  189.9250  178.0390  149.1460 C   0  0  0  0  0  3  0  0  0  0  0  0
  187.3500  177.3680  144.8740 C   0  0  0  0  0  0  0  0  0  0  0  0
  186.9000  177.9070  147.1160 N   0  0  0  0  0  0  0  0  0  0  0  0
  191.8130  176.6750  145.8980 Cl  0  0  0  0  0  0  0  0  0  0  0  0
  187.8500  177.0580  142.4370 N   0  0  0  0  0  2  0  0  0  0  0  0
  186.8240  177.0040  143.4920 C   0  0  2  0  0  3  0  0  0  0  0  0
  190.8020  177.4880  141.4270 C   0  0  2  0  0  3  0  0  0  0  0  0
  189.6170  177.2090  144.0220 N   0  0  0  0  0  0  0  0  0  0  0  0
  186.4800  177.6440  145.8800 N   0  0  0  0  0  0  0  0  0  0  0  0
  183.5260  178.8960  143.6210 C   0  0  0  0  0  0  0  0  0  0  0  0
  183.4680  179.4230  142.3270 C   0  0  0  0  0  3  0  0  0  0  0  0
  185.6530  177.8500  143.1000 C   0  0  0  0  0  0  0  0  0  0  0  0
  184.4990  179.1640  141.4210 C   0  0  0  0  0  3  0  0  0  0  0  0
  184.6150  178.1100  144.0080 C   0  0  0  0  0  3  0  0  0  0  0  0
  185.5900  178.3780  141.8070 C   0  0  0  0  0  3  0  0  0  0  0  0
  182.5260  179.1460  144.5000 F   0  0  0  0  0  0  0  0  0  0  0  0
  191.7570  177.2880  140.3340 N   0  0  0  0  0  2  0  0  0  0  0  0
  191.1790  176.4480  139.2850 C   0  0  0  0  0  2  0  0  0  0  0  0
  190.9260  176.5620  136.9080 F   0  0  0  0  0  0  0  0  0  0  0  0
  190.7710  177.2890  138.0760 C   0  0  1  0  0  3  0  0  0  0  0  0
  188.7570  178.0530  136.7950 C   0  0  0  0  0  1  0  0  0  0  0  0
  189.3520  177.8540  138.1780 C   0  0  0  0  0  0  0  0  0  0  0  0
  189.3570  179.0620  138.8530 F   0  0  0  0  0  0  0  0  0  0  0  0
  188.5590  176.9600  138.8720 F   0  0  0  0  0  0  0  0  0  0  0  0
  1  5  2  0  0  0  0
  2  6  1  0  0  0  0
  3  8  1  0  0  0  0
  4 10  1  6  0  0  0
  4 18  1  0  0  0  0
  5 11  1  0  0  0  0
  6 11  2  0  0  0  0
  7 18  1  0  0  0  0
  8  2  2  0  0  0  0
  8  1  1  0  0  0  0
  9  7  1  0  0  0  0
 12  3  2  0  0  0  0
 12 19  1  0  0  0  0
 13  1  1  0  0  0  0
 14  2  1  0  0  0  0
 15  4  1  0  0  0  0
 15 16  1  0  0  0  0
 16 22  1  6  0  0  0
 16 12  1  0  0  0  0
 17 27  1  6  0  0  0
 17 10  1  0  0  0  0
 17  9  1  0  0  0  0
 18  3  1  0  0  0  0
 19 13  2  0  0  0  0
 20 24  1  0  0  0  0
 20 26  1  0  0  0  0
 21 20  2  0  0  0  0
 22 24  2  0  0  0  0
 23 25  2  0  0  0  0
 23 21  1  0  0  0  0
 25 22  1  0  0  0  0
 28 27  1  0  0  0  0
 30 29  1  6  0  0  0
 30 32  1  0  0  0  0
 30 28  1  0  0  0  0
 31 32  1  0  0  0  0
 32 33  1  0  0  0  0
 32 34  1  0  0  0  0
M  END
>  <MODEL>
4

>  <REMARK>
 VINA RESULT:      -8.7      3.243      6.713
  Name = 
  5 active torsions:
  status: ('A' for Active; 'I' for Inactive)
    1  A    between atoms: N_3  and  C_13
    2  A    between atoms: N_3  and  C_29
    3  A    between atoms: C_12  and  C_28
    4  A    between atoms: C_13  and  C_33
    5  A    between atoms: C_20  and  C_33
                            x       y       z     vdW  Elec       q    Type
                         _______ _______ _______ _____ _____    ______ ____

>  <TORSDO>
F 5

$$$$
=
 OpenBabel10272400113D

 34 38  0  0  1  0  0  0  0  0999 V2000
  190.9440  176.8510  144.5400 C   0  0  0  0  0  0  0  0  0  0  0  0
  189.0810  177.6090  145.9180 C   0  0  0  0  0  0  0  0  0  0  0  0
  189.0140  177.7840  143.4120 C   0  0  0  0  0  0  0  0  0  0  0  0
  187.3310  179.0620  142.2210 C   0  0  2  0  0  3  0  0  0  0  0  0
  191.6040  176.4020  145.6850 C   0  0  0  0  0  3  0  0  0  0  0  0
  189.7650  177.1540  147.0500 C   0  0  0  0  0  3  0  0  0  0  0  0
  186.6710  177.0790  143.6330 C   0  0  0  0  0  2  0  0  0  0  0  0
  189.6460  177.4170  144.6260 C   0  0  0  0  0  0  0  0  0  0  0  0
  185.2570  177.6270  143.7400 C   0  0  0  0  0  2  0  0  0  0  0  0
  185.8750  179.5330  142.2230 C   0  0  0  0  0  2  0  0  0  0  0  0
  191.0090  176.5380  146.9360 C   0  0  0  0  0  3  0  0  0  0  0  0
  189.7330  177.6840  142.2040 C   0  0  0  0  0  0  0  0  0  0  0  0
  191.5720  176.7640  143.3410 N   0  0  0  0  0  0  0  0  0  0  0  0
  187.6200  178.5370  146.2360 Cl  0  0  0  0  0  0  0  0  0  0  0  0
  187.6810  178.4130  140.9620 N   0  0  0  0  0  2  0  0  0  0  0  0
  189.1400  178.2220  140.9090 C   0  0  2  0  0  3  0  0  0  0  0  0
  184.9080  178.3710  142.4550 C   0  0  2  0  0  3  0  0  0  0  0  0
  187.6300  178.1450  143.3250 N   0  0  0  0  0  0  0  0  0  0  0  0
  190.9970  177.1880  142.2170 N   0  0  0  0  0  0  0  0  0  0  0  0
  191.1290  176.1560  138.4080 C   0  0  0  0  0  0  0  0  0  0  0  0
  190.1230  175.7730  137.5160 C   0  0  0  0  0  3  0  0  0  0  0  0
  189.4940  177.3640  139.7340 C   0  0  0  0  0  0  0  0  0  0  0  0
  188.8040  176.1840  137.7320 C   0  0  0  0  0  3  0  0  0  0  0  0
  190.8160  176.9510  139.5150 C   0  0  0  0  0  3  0  0  0  0  0  0
  188.4910  176.9780  138.8390 C   0  0  0  0  0  3  0  0  0  0  0  0
  192.4070  175.7590  138.2000 F   0  0  0  0  0  0  0  0  0  0  0  0
  183.5120  178.8130  142.4440 N   0  0  0  0  0  2  0  0  0  0  0  0
  182.9690  178.7880  141.0850 C   0  0  0  0  0  2  0  0  0  0  0  0
  183.1010  176.6630  139.9920 F   0  0  0  0  0  0  0  0  0  0  0  0
  183.7810  177.8530  140.1900 C   0  0  1  0  0  3  0  0  0  0  0  0
  183.2200  178.0390  137.7550 C   0  0  0  0  0  1  0  0  0  0  0  0
  184.1740  178.4810  138.8500 C   0  0  0  0  0  0  0  0  0  0  0  0
  185.4660  178.1230  138.5050 F   0  0  0  0  0  0  0  0  0  0  0  0
  184.1080  179.8560  138.9600 F   0  0  0  0  0  0  0  0  0  0  0  0
  1  8  1  0  0  0  0
  1  5  2  0  0  0  0
  2 14  1  0  0  0  0
  2  6  1  0  0  0  0
  3  8  1  0  0  0  0
  4 10  1  6  0  0  0
  4 18  1  0  0  0  0
  5 11  1  0  0  0  0
  7  9  1  0  0  0  0
  8  2  2  0  0  0  0
 10 17  1  0  0  0  0
 11  6  2  0  0  0  0
 12 19  1  0  0  0  0
 12  3  2  0  0  0  0
 13  1  1  0  0  0  0
 15  4  1  0  0  0  0
 16 22  1  6  0  0  0
 16 15  1  0  0  0  0
 16 12  1  0  0  0  0
 17 27  1  1  0  0  0
 17  9  1  0  0  0  0
 18  3  1  0  0  0  0
 18  7  1  0  0  0  0
 19 13  2  0  0  0  0
 20 24  1  0  0  0  0
 21 23  1  0  0  0  0
 21 20  2  0  0  0  0
 23 25  2  0  0  0  0
 24 22  2  0  0  0  0
 25 22  1  0  0  0  0
 26 20  1  0  0  0  0
 28 27  1  0  0  0  0
 30 29  1  6  0  0  0
 30 28  1  0  0  0  0
 31 32  1  0  0  0  0
 32 34  1  0  0  0  0
 32 30  1  0  0  0  0
 33 32  1  0  0  0  0
M  END
>  <MODEL>
5

>  <REMARK>
 VINA RESULT:      -8.3      3.617      7.366
  Name = 
  5 active torsions:
  status: ('A' for Active; 'I' for Inactive)
    1  A    between atoms: N_3  and  C_13
    2  A    between atoms: N_3  and  C_29
    3  A    between atoms: C_12  and  C_28
    4  A    between atoms: C_13  and  C_33
    5  A    between atoms: C_20  and  C_33
                            x       y       z     vdW  Elec       q    Type
                         _______ _______ _______ _____ _____    ______ ____

>  <TORSDO>
F 5

$$$$
=
 OpenBabel10272400113D

 34 38  0  0  1  0  0  0  0  0999 V2000
  186.8380  178.3250  139.7400 C   0  0  0  0  0  0  0  0  0  0  0  0
  188.7480  178.0670  141.2330 C   0  0  0  0  0  0  0  0  0  0  0  0
  186.4480  178.5570  142.1190 C   0  0  0  0  0  0  0  0  0  0  0  0
  186.0290  179.2100  144.4180 C   0  0  2  0  0  3  0  0  0  0  0  0
  187.6540  178.0190  138.6490 C   0  0  0  0  0  3  0  0  0  0  0  0
  189.5440  177.7670  140.1230 C   0  0  0  0  0  3  0  0  0  0  0  0
  187.0130  176.9480  143.8880 C   0  0  0  0  0  2  0  0  0  0  0  0
  187.3550  178.3050  141.0600 C   0  0  0  0  0  0  0  0  0  0  0  0
  187.5720  176.8620  145.2990 C   0  0  0  0  0  2  0  0  0  0  0  0
  186.4790  179.0520  145.8710 C   0  0  0  0  0  2  0  0  0  0  0  0
  189.0010  177.7250  138.8410 C   0  0  0  0  0  3  0  0  0  0  0  0
  185.1230  178.9270  141.8150 C   0  0  0  0  0  0  0  0  0  0  0  0
  185.5450  178.6690  139.5190 N   0  0  0  0  0  0  0  0  0  0  0  0
  189.6110  178.2760  142.7520 Cl  0  0  0  0  0  0  0  0  0  0  0  0
  184.6020  178.9420  144.2680 N   0  0  0  0  0  2  0  0  0  0  0  0
  184.1730  179.3620  142.9230 C   0  0  2  0  0  3  0  0  0  0  0  0
  186.6270  177.5800  146.2580 C   0  0  2  0  0  3  0  0  0  0  0  0
  186.7710  178.3420  143.4980 N   0  0  0  0  0  0  0  0  0  0  0  0
  184.7240  178.9830  140.5190 N   0  0  0  0  0  0  0  0  0  0  0  0
  181.0750  177.9840  141.1980 C   0  0  0  0  0  0  0  0  0  0  0  0
  180.1390  178.0460  142.2350 C   0  0  0  0  0  3  0  0  0  0  0  0
  182.7720  178.8960  142.6730 C   0  0  0  0  0  0  0  0  0  0  0  0
  180.5190  178.5330  143.4890 C   0  0  0  0  0  3  0  0  0  0  0  0
  182.3890  178.4080  141.4150 C   0  0  0  0  0  3  0  0  0  0  0  0
  181.8330  178.9570  143.7080 C   0  0  0  0  0  3  0  0  0  0  0  0
  180.7080  177.5130  139.9820 F   0  0  0  0  0  0  0  0  0  0  0  0
  187.0440  177.4210  147.6530 N   0  0  0  0  0  2  0  0  0  0  0  0
  188.2880  176.6570  147.7420 C   0  0  0  0  0  2  0  0  0  0  0  0
  189.5960  178.2990  148.8910 F   0  0  0  0  0  0  0  0  0  0  0  0
  189.5020  177.5850  147.7080 C   0  0  1  0  0  3  0  0  0  0  0  0
  191.2810  177.1640  145.9950 C   0  0  0  0  0  1  0  0  0  0  0  0
  190.8160  176.8590  147.4080 C   0  0  0  0  0  0  0  0  0  0  0  0
  190.6620  175.4920  147.5550 F   0  0  0  0  0  0  0  0  0  0  0  0
  191.7850  177.2950  148.2910 F   0  0  0  0  0  0  0  0  0  0  0  0
  1  8  1  0  0  0  0
  2 14  1  0  0  0  0
  3 18  1  0  0  0  0
  4 10  1  1  0  0  0
  5 11  2  0  0  0  0
  5  1  1  0  0  0  0
  6  2  2  0  0  0  0
  7  9  1  0  0  0  0
  8  2  1  0  0  0  0
  8  3  2  0  0  0  0
  9 17  1  0  0  0  0
 10 17  1  0  0  0  0
 11  6  1  0  0  0  0
 12  3  1  0  0  0  0
 12 16  1  0  0  0  0
 13  1  2  0  0  0  0
 13 19  1  0  0  0  0
 15  4  1  0  0  0  0
 16 22  1  6  0  0  0
 16 15  1  0  0  0  0
 17 27  1  1  0  0  0
 18  7  1  0  0  0  0
 18  4  1  0  0  0  0
 19 12  2  0  0  0  0
 20 24  2  0  0  0  0
 20 21  1  0  0  0  0
 21 23  2  0  0  0  0
 22 25  2  0  0  0  0
 23 25  1  0  0  0  0
 24 22  1  0  0  0  0
 26 20  1  0  0  0  0
 27 28  1  0  0  0  0
 30 28  1  0  0  0  0
 30 29  1  1  0  0  0
 31 32  1  0  0  0  0
 32 33  1  0  0  0  0
 32 30  1  0  0  0  0
 32 34  1  0  0  0  0
M  END
>  <MODEL>
6

>  <REMARK>
 VINA RESULT:      -8.1      2.294      3.695
  Name = 
  5 active torsions:
  status: ('A' for Active; 'I' for Inactive)
    1  A    between atoms: N_3  and  C_13
    2  A    between atoms: N_3  and  C_29
    3  A    between atoms: C_12  and  C_28
    4  A    between atoms: C_13  and  C_33
    5  A    between atoms: C_20  and  C_33
                            x       y       z     vdW  Elec       q    Type
                         _______ _______ _______ _____ _____    ______ ____

>  <TORSDO>
F 5

$$$$
=
 OpenBabel10272400113D

 34 38  0  0  1  0  0  0  0  0999 V2000
  187.6990  178.0710  147.3320 C   0  0  0  0  0  0  0  0  0  0  0  0
  190.0860  177.5940  147.1870 C   0  0  0  0  0  0  0  0  0  0  0  0
  188.5920  177.4380  145.1720 C   0  0  0  0  0  0  0  0  0  0  0  0
  189.2950  176.4260  143.0820 C   0  0  2  0  0  3  0  0  0  0  0  0
  187.8530  178.4150  148.6760 C   0  0  0  0  0  3  0  0  0  0  0  0
  190.2110  177.9400  148.5360 C   0  0  0  0  0  3  0  0  0  0  0  0
  190.4600  178.4810  143.9650 C   0  0  0  0  0  2  0  0  0  0  0  0
  188.8200  177.7040  146.5450 C   0  0  0  0  0  0  0  0  0  0  0  0
  191.6830  178.1480  143.1240 C   0  0  0  0  0  2  0  0  0  0  0  0
  190.4750  176.1760  142.1400 C   0  0  0  0  0  2  0  0  0  0  0  0
  189.1080  178.3650  149.2740 C   0  0  0  0  0  3  0  0  0  0  0  0
  187.2710  177.4330  144.6820 C   0  0  0  0  0  0  0  0  0  0  0  0
  186.4550  178.0680  146.7910 N   0  0  0  0  0  0  0  0  0  0  0  0
  191.5180  176.8920  146.4460 Cl  0  0  0  0  0  0  0  0  0  0  0  0
  188.1650  177.0200  142.3760 N   0  0  0  0  0  2  0  0  0  0  0  0
  186.9820  176.9920  143.2530 C   0  0  2  0  0  3  0  0  0  0  0  0
  191.2350  177.4680  141.8350 C   0  0  2  0  0  3  0  0  0  0  0  0
  189.6480  177.2860  144.2160 N   0  0  0  0  0  0  0  0  0  0  0  0
  186.2460  177.7370  145.5190 N   0  0  0  0  0  0  0  0  0  0  0  0
  184.9590  179.0510  140.7750 C   0  0  0  0  0  0  0  0  0  0  0  0
  183.7970  179.2950  141.5130 C   0  0  0  0  0  3  0  0  0  0  0  0
  185.8770  177.7920  142.6340 C   0  0  0  0  0  0  0  0  0  0  0  0
  183.6750  178.7890  142.8100 C   0  0  0  0  0  3  0  0  0  0  0  0
  185.9980  178.3020  141.3330 C   0  0  0  0  0  3  0  0  0  0  0  0
  184.7130  178.0390  143.3690 C   0  0  0  0  0  3  0  0  0  0  0  0
  185.0790  179.5430  139.5180 F   0  0  0  0  0  0  0  0  0  0  0  0
  192.3570  177.2380  140.9230 N   0  0  0  0  0  2  0  0  0  0  0  0
  191.9710  177.5220  139.5400 C   0  0  0  0  0  2  0  0  0  0  0  0
  190.0680  176.1800  138.9880 F   0  0  0  0  0  0  0  0  0  0  0  0
  191.4430  176.2640  138.8520 C   0  0  1  0  0  3  0  0  0  0  0  0
  191.9400  174.7050  136.9540 C   0  0  0  0  0  1  0  0  0  0  0  0
  191.8490  176.1600  137.3790 C   0  0  0  0  0  0  0  0  0  0  0  0
  193.0700  176.7770  137.1660 F   0  0  0  0  0  0  0  0  0  0  0  0
  190.8930  176.7840  136.6020 F   0  0  0  0  0  0  0  0  0  0  0  0
  1  5  2  0  0  0  0
  2  6  1  0  0  0  0
  3  8  1  0  0  0  0
  4 10  1  6  0  0  0
  4 18  1  0  0  0  0
  5 11  1  0  0  0  0
  6 11  2  0  0  0  0
  7 18  1  0  0  0  0
  8  2  2  0  0  0  0
  8  1  1  0  0  0  0
  9  7  1  0  0  0  0
 12  3  2  0  0  0  0
 12 19  1  0  0  0  0
 13  1  1  0  0  0  0
 14  2  1  0  0  0  0
 15  4  1  0  0  0  0
 15 16  1  0  0  0  0
 16 22  1  6  0  0  0
 16 12  1  0  0  0  0
 17 27  1  6  0  0  0
 17 10  1  0  0  0  0
 17  9  1  0  0  0  0
 18  3  1  0  0  0  0
 19 13  2  0  0  0  0
 20 24  2  0  0  0  0
 20 21  1  0  0  0  0
 21 23  2  0  0  0  0
 22 25  2  0  0  0  0
 23 25  1  0  0  0  0
 24 22  1  0  0  0  0
 26 20  1  0  0  0  0
 28 27  1  0  0  0  0
 30 29  1  6  0  0  0
 30 28  1  0  0  0  0
 31 32  1  0  0  0  0
 32 30  1  0  0  0  0
 33 32  1  0  0  0  0
 34 32  1  0  0  0  0
M  END
>  <MODEL>
7

>  <REMARK>
 VINA RESULT:      -8.0      3.757      7.088
  Name = 
  5 active torsions:
  status: ('A' for Active; 'I' for Inactive)
    1  A    between atoms: N_3  and  C_13
    2  A    between atoms: N_3  and  C_29
    3  A    between atoms: C_12  and  C_28
    4  A    between atoms: C_13  and  C_33
    5  A    between atoms: C_20  and  C_33
                            x       y       z     vdW  Elec       q    Type
                         _______ _______ _______ _____ _____    ______ ____

>  <TORSDO>
F 5

$$$$
=
 OpenBabel10272400113D

 34 38  0  0  1  0  0  0  0  0999 V2000
  182.3980  178.7870  143.8060 C   0  0  0  0  0  0  0  0  0  0  0  0
  181.2440  178.9040  141.6610 C   0  0  0  0  0  0  0  0  0  0  0  0
  183.7470  178.7050  141.7960 C   0  0  0  0  0  0  0  0  0  0  0  0
  185.2020  179.0270  139.8820 C   0  0  2  0  0  3  0  0  0  0  0  0
  181.1670  178.7970  144.4650 C   0  0  0  0  0  3  0  0  0  0  0  0
  180.0250  178.9170  142.3460 C   0  0  0  0  0  3  0  0  0  0  0  0
  183.5160  177.1510  139.9070 C   0  0  0  0  0  2  0  0  0  0  0  0
  182.4620  178.7880  142.3900 C   0  0  0  0  0  0  0  0  0  0  0  0
  183.5620  177.0930  138.3870 C   0  0  0  0  0  2  0  0  0  0  0  0
  185.3410  178.8670  138.3670 C   0  0  0  0  0  2  0  0  0  0  0  0
  179.9820  178.8460  143.7360 C   0  0  0  0  0  3  0  0  0  0  0  0
  184.8890  178.7440  142.6200 C   0  0  0  0  0  0  0  0  0  0  0  0
  183.5380  178.8020  144.5410 N   0  0  0  0  0  0  0  0  0  0  0  0
  181.1470  179.1980  139.9290 Cl  0  0  0  0  0  0  0  0  0  0  0  0
  186.3210  178.4140  140.5890 N   0  0  0  0  0  2  0  0  0  0  0  0
  186.2790  178.8220  142.0030 C   0  0  2  0  0  3  0  0  0  0  0  0
  184.9640  177.4560  137.9130 C   0  0  2  0  0  3  0  0  0  0  0  0
  183.9520  178.4630  140.3990 N   0  0  0  0  0  0  0  0  0  0  0  0
  184.7400  178.8060  143.9680 N   0  0  0  0  0  0  0  0  0  0  0  0
  188.2060  177.2860  144.9030 C   0  0  0  0  0  0  0  0  0  0  0  0
  189.1830  176.5560  144.2190 C   0  0  0  0  0  3  0  0  0  0  0  0
  187.2820  178.0320  142.7860 C   0  0  0  0  0  0  0  0  0  0  0  0
  189.2100  176.5640  142.8220 C   0  0  0  0  0  3  0  0  0  0  0  0
  187.2570  178.0240  144.1890 C   0  0  0  0  0  3  0  0  0  0  0  0
  188.2620  177.3000  142.1070 C   0  0  0  0  0  3  0  0  0  0  0  0
  188.1790  177.2800  146.2570 F   0  0  0  0  0  0  0  0  0  0  0  0
  185.1090  177.2920  136.4650 N   0  0  0  0  0  2  0  0  0  0  0  0
  186.2660  176.4550  136.1490 C   0  0  0  0  0  2  0  0  0  0  0  0
  187.0880  178.6110  135.5110 F   0  0  0  0  0  0  0  0  0  0  0  0
  187.4800  177.3150  135.7970 C   0  0  1  0  0  3  0  0  0  0  0  0
  188.9340  178.7210  137.2760 C   0  0  0  0  0  1  0  0  0  0  0  0
  188.5670  177.3030  136.8750 C   0  0  0  0  0  0  0  0  0  0  0  0
  189.6980  176.6490  136.4190 F   0  0  0  0  0  0  0  0  0  0  0  0
  188.0900  176.6420  137.9900 F   0  0  0  0  0  0  0  0  0  0  0  0
  1  5  1  0  0  0  0
  1 13  1  0  0  0  0
  2  6  2  0  0  0  0
  2  8  1  0  0  0  0
  3  8  1  0  0  0  0
  3 12  2  0  0  0  0
  4 10  1  6  0  0  0
  4 18  1  0  0  0  0
  4 15  1  0  0  0  0
  6 11  1  0  0  0  0
  7 18  1  0  0  0  0
  8  1  2  0  0  0  0
  9  7  1  0  0  0  0
 11  5  2  0  0  0  0
 12 19  1  0  0  0  0
 14  2  1  0  0  0  0
 15 16  1  0  0  0  0
 16 12  1  0  0  0  0
 16 22  1  1  0  0  0
 17 27  1  6  0  0  0
 17 10  1  0  0  0  0
 17  9  1  0  0  0  0
 18  3  1  0  0  0  0
 19 13  2  0  0  0  0
 20 26  1  0  0  0  0
 21 20  1  0  0  0  0
 22 24  1  0  0  0  0
 23 21  2  0  0  0  0
 24 20  2  0  0  0  0
 25 22  2  0  0  0  0
 25 23  1  0  0  0  0
 28 27  1  0  0  0  0
 30 29  1  1  0  0  0
 30 28  1  0  0  0  0
 30 32  1  0  0  0  0
 32 31  1  0  0  0  0
 32 34  1  0  0  0  0
 33 32  1  0  0  0  0
M  END
>  <MODEL>
8

>  <REMARK>
 VINA RESULT:      -7.9      4.222      8.622
  Name = 
  5 active torsions:
  status: ('A' for Active; 'I' for Inactive)
    1  A    between atoms: N_3  and  C_13
    2  A    between atoms: N_3  and  C_29
    3  A    between atoms: C_12  and  C_28
    4  A    between atoms: C_13  and  C_33
    5  A    between atoms: C_20  and  C_33
                            x       y       z     vdW  Elec       q    Type
                         _______ _______ _______ _____ _____    ______ ____

>  <TORSDO>
F 5

$$$$
=
 OpenBabel10272400113D

 34 38  0  0  1  0  0  0  0  0999 V2000
  191.4290  176.2260  136.6640 C   0  0  0  0  0  0  0  0  0  0  0  0
  192.4320  176.8200  138.8060 C   0  0  0  0  0  0  0  0  0  0  0  0
  189.9760  177.1370  138.3740 C   0  0  0  0  0  0  0  0  0  0  0  0
  188.5280  178.4070  139.8490 C   0  0  2  0  0  3  0  0  0  0  0  0
  192.6630  175.7400  136.2260 C   0  0  0  0  0  3  0  0  0  0  0  0
  193.6560  176.3300  138.3410 C   0  0  0  0  0  3  0  0  0  0  0  0
  189.6780  176.3180  140.6710 C   0  0  0  0  0  2  0  0  0  0  0  0
  191.2750  176.7280  137.9810 C   0  0  0  0  0  0  0  0  0  0  0  0
  189.5190  176.7970  142.1060 C   0  0  0  0  0  2  0  0  0  0  0  0
  188.2540  178.8120  141.2980 C   0  0  0  0  0  2  0  0  0  0  0  0
  193.7700  175.7780  137.0670 C   0  0  0  0  0  3  0  0  0  0  0  0
  188.9380  177.1390  137.4210 C   0  0  0  0  0  0  0  0  0  0  0  0
  190.3810  176.2360  135.8030 N   0  0  0  0  0  0  0  0  0  0  0  0
  192.4870  177.6630  140.3490 Cl  0  0  0  0  0  0  0  0  0  0  0  0
  187.3380  177.8480  139.2160 N   0  0  0  0  0  2  0  0  0  0  0  0
  187.5760  177.7250  137.7680 C   0  0  2  0  0  3  0  0  0  0  0  0
  188.2280  177.5970  142.2270 C   0  0  2  0  0  3  0  0  0  0  0  0
  189.6240  177.4410  139.7290 N   0  0  0  0  0  0  0  0  0  0  0  0
  189.1850  176.6990  136.1600 N   0  0  0  0  0  0  0  0  0  0  0  0
  185.2830  174.8660  136.7440 C   0  0  0  0  0  0  0  0  0  0  0  0
  184.3650  175.5370  135.9310 C   0  0  0  0  0  3  0  0  0  0  0  0
  186.4580  176.9530  137.1380 C   0  0  0  0  0  0  0  0  0  0  0  0
  184.4920  176.9130  135.7210 C   0  0  0  0  0  3  0  0  0  0  0  0
  186.3290  175.5710  137.3460 C   0  0  0  0  0  3  0  0  0  0  0  0
  185.5370  177.6190  136.3240 C   0  0  0  0  0  3  0  0  0  0  0  0
  185.1610  173.5330  136.9470 F   0  0  0  0  0  0  0  0  0  0  0  0
  187.9510  177.9780  143.6140 N   0  0  0  0  0  2  0  0  0  0  0  0
  186.5630  177.6830  143.9690 C   0  0  0  0  0  2  0  0  0  0  0  0
  187.5770  177.9500  146.1200 F   0  0  0  0  0  0  0  0  0  0  0  0
  186.3800  177.6650  145.4860 C   0  0  1  0  0  3  0  0  0  0  0  0
  184.2230  178.7960  144.8950 C   0  0  0  0  0  1  0  0  0  0  0  0
  185.2710  178.6010  145.9760 C   0  0  0  0  0  0  0  0  0  0  0  0
  185.7950  179.8310  146.3340 F   0  0  0  0  0  0  0  0  0  0  0  0
  184.6620  178.0380  147.0810 F   0  0  0  0  0  0  0  0  0  0  0  0
  1  8  1  0  0  0  0
  2 14  1  0  0  0  0
  3 18  1  0  0  0  0
  4 10  1  1  0  0  0
  5  1  2  0  0  0  0
  5 11  1  0  0  0  0
  6  2  1  0  0  0  0
  7  9  1  0  0  0  0
  8  3  1  0  0  0  0
  8  2  2  0  0  0  0
  9 17  1  0  0  0  0
 10 17  1  0  0  0  0
 11  6  2  0  0  0  0
 12 16  1  0  0  0  0
 12  3  2  0  0  0  0
 13 19  2  0  0  0  0
 13  1  1  0  0  0  0
 15  4  1  0  0  0  0
 16 22  1  1  0  0  0
 16 15  1  0  0  0  0
 17 27  1  1  0  0  0
 18  4  1  0  0  0  0
 18  7  1  0  0  0  0
 19 12  1  0  0  0  0
 20 26  1  0  0  0  0
 20 24  1  0  0  0  0
 21 20  2  0  0  0  0
 22 24  2  0  0  0  0
 23 21  1  0  0  0  0
 23 25  2  0  0  0  0
 25 22  1  0  0  0  0
 27 28  1  0  0  0  0
 28 30  1  0  0  0  0
 30 32  1  0  0  0  0
 30 29  1  1  0  0  0
 31 32  1  0  0  0  0
 32 33  1  0  0  0  0
 32 34  1  0  0  0  0
M  END
>  <MODEL>
9

>  <REMARK>
 VINA RESULT:      -7.8      2.941      4.319
  Name = 
  5 active torsions:
  status: ('A' for Active; 'I' for Inactive)
    1  A    between atoms: N_3  and  C_13
    2  A    between atoms: N_3  and  C_29
    3  A    between atoms: C_12  and  C_28
    4  A    between atoms: C_13  and  C_33
    5  A    between atoms: C_20  and  C_33
                            x       y       z     vdW  Elec       q    Type
                         _______ _______ _______ _____ _____    ______ ____

>  <TORSDO>
F 5

$$$$
