=
 OpenBabel10272413113D

 32 35  0  0  1  0  0  0  0  0999 V2000
  189.4580  176.9930  142.4570 C   0  0  2  0  0  3  0  0  0  0  0  0
  189.2970  178.2410  140.4610 C   0  0  2  0  0  3  0  0  0  0  0  0
  190.3470  176.0490  140.4840 O   0  0  0  0  0  0  0  0  0  0  0  0
  190.2180  177.2580  141.1930 C   0  0  2  0  0  3  0  0  0  0  0  0
  190.1810  177.0280  138.3000 C   0  0  2  0  0  3  0  0  0  0  0  0
  191.0830  176.3510  139.3300 C   0  0  0  0  0  2  0  0  0  0  0  0
  187.9690  178.0860  140.9060 O   0  0  0  0  0  0  0  0  0  0  0  0
  188.0130  177.2420  142.0340 C   0  0  2  0  0  3  0  0  0  0  0  0
  189.3830  178.1300  138.9580 C   0  0  0  0  0  0  0  0  0  0  0  0
  188.8670  179.1040  138.2090 C   0  0  0  0  0  2  0  0  0  0  0  0
  185.0370  178.7800  143.8740 C   0  0  0  0  0  0  0  0  0  0  0  0
  183.8750  179.4940  143.6050 O   0  0  0  0  0  1  0  0  0  0  0  0
  187.0820  177.6890  143.1330 C   0  0  0  0  0  0  0  0  0  0  0  0
  185.3310  178.4300  145.1940 C   0  0  0  0  0  3  0  0  0  0  0  0
  187.3580  177.3400  144.4630 C   0  0  0  0  0  3  0  0  0  0  0  0
  185.9070  178.4110  142.8360 C   0  0  0  0  0  0  0  0  0  0  0  0
  185.5740  178.7830  141.4270 C   0  0  0  0  0  1  0  0  0  0  0  0
  186.4940  177.7070  145.4960 C   0  0  0  0  0  0  0  0  0  0  0  0
  187.9720  177.8110  147.4760 C   0  0  0  0  0  1  0  0  0  0  0  0
  186.8100  177.3400  146.8060 O   0  0  0  0  0  0  0  0  0  0  0  0
  190.1590  179.2510  143.2410 N   0  0  0  0  0  2  0  0  0  0  0  0
  189.9500  177.8610  143.6300 C   0  0  2  0  0  3  0  0  0  0  0  0
  191.1870  177.3180  144.1840 N   0  0  0  0  0  0  0  0  0  0  0  0
  192.0240  178.4680  144.4760 C   0  0  0  0  0  2  0  0  0  0  0  0
  191.2580  179.7020  144.0680 C   0  0  0  0  0  2  0  0  0  0  0  0
  190.8540  176.7020  145.4590 C   0  0  0  0  0  2  0  0  0  0  0  0
  191.9640  175.7590  145.8840 C   0  0  0  0  0  2  0  0  0  0  0  0
  192.1190  175.8090  147.3890 C   0  0  0  0  0  2  0  0  0  0  0  0
  191.7520  177.0730  147.8510 O   0  0  0  0  0  1  0  0  0  0  0  0
  189.2610  175.9890  137.6710 C   0  0  0  0  0  2  0  0  0  0  0  0
  189.5360  173.6580  136.9900 C   0  0  0  0  0  2  0  0  0  0  0  0
  190.0540  174.8790  137.0680 C   0  0  0  0  0  3  0  0  0  0  0  0
  1 22  1  1  0  0  0
  2  9  1  6  0  0  0
  2  7  1  0  0  0  0
  2  4  1  0  0  0  0
  4  3  1  6  0  0  0
  4  1  1  0  0  0  0
  5 30  1  1  0  0  0
  5  9  1  0  0  0  0
  5  6  1  0  0  0  0
  6  3  1  0  0  0  0
  7  8  1  0  0  0  0
  8  1  1  0  0  0  0
  8 13  1  1  0  0  0
 10  9  2  0  0  0  0
 11 14  1  0  0  0  0
 12 11  1  0  0  0  0
 13 15  2  0  0  0  0
 14 18  2  0  0  0  0
 15 18  1  0  0  0  0
 16 13  1  0  0  0  0
 16 11  2  0  0  0  0
 17 16  1  0  0  0  0
 18 20  1  0  0  0  0
 20 19  1  0  0  0  0
 21 25  1  0  0  0  0
 22 21  1  6  0  0  0
 22 23  1  0  0  0  0
 23 24  1  0  0  0  0
 23 26  1  0  0  0  0
 25 24  1  0  0  0  0
 26 27  1  0  0  0  0
 27 28  1  0  0  0  0
 28 29  1  0  0  0  0
 31 32  2  0  0  0  0
 32 30  1  0  0  0  0
M  END
>  <MODEL>
1

>  <REMARK>
 VINA RESULT:      -8.0      0.000      0.000
  Name = 
  8 active torsions:
  status: ('A' for Active; 'I' for Inactive)
    1  A    between atoms: C_1  and  C_5
    2  A    between atoms: C_11  and  C_12
    3  A    between atoms: C_11  and  C_31
    4  A    between atoms: C_13  and  C_18
    5  A    between atoms: N_14  and  C_29
    6  A    between atoms: O_15  and  C_26
    7  A    between atoms: C_16  and  C_27
    8  A    between atoms: C_18  and  C_29
                            x       y       z     vdW  Elec       q    Type
                         _______ _______ _______ _____ _____    ______ ____

>  <TORSDO>
F 8

$$$$
=
 OpenBabel10272413113D

 32 35  0  0  1  0  0  0  0  0999 V2000
  190.5140  176.1300  136.8940 C   0  0  2  0  0  3  0  0  0  0  0  0
  192.6730  175.2630  137.2900 C   0  0  2  0  0  3  0  0  0  0  0  0
  192.1130  176.3020  135.1660 O   0  0  0  0  0  0  0  0  0  0  0  0
  191.6370  175.4450  136.1750 C   0  0  2  0  0  3  0  0  0  0  0  0
  194.4130  175.6480  135.3560 C   0  0  2  0  0  3  0  0  0  0  0  0
  193.1400  175.6040  134.5150 C   0  0  0  0  0  2  0  0  0  0  0  0
  192.4680  176.2210  138.3040 O   0  0  0  0  0  0  0  0  0  0  0  0
  191.2360  176.8480  138.0310 C   0  0  2  0  0  3  0  0  0  0  0  0
  194.0970  175.2960  136.7910 C   0  0  0  0  0  0  0  0  0  0  0  0
  195.0700  174.8660  137.5920 C   0  0  0  0  0  2  0  0  0  0  0  0
  188.5730  178.1830  140.4250 C   0  0  0  0  0  0  0  0  0  0  0  0
  187.5180  179.0870  140.4430 O   0  0  0  0  0  1  0  0  0  0  0  0
  190.4150  177.0870  139.2730 C   0  0  0  0  0  0  0  0  0  0  0  0
  188.8580  177.4450  141.5770 C   0  0  0  0  0  3  0  0  0  0  0  0
  190.6820  176.3490  140.4350 C   0  0  0  0  0  3  0  0  0  0  0  0
  189.3470  178.0080  139.2670 C   0  0  0  0  0  0  0  0  0  0  0  0
  189.0250  178.7980  138.0390 C   0  0  0  0  0  1  0  0  0  0  0  0
  189.9140  176.5220  141.5880 C   0  0  0  0  0  0  0  0  0  0  0  0
  191.3000  176.0820  143.5880 C   0  0  0  0  0  1  0  0  0  0  0  0
  190.2170  175.7680  142.7240 O   0  0  0  0  0  0  0  0  0  0  0  0
  189.8800  173.7610  137.3390 N   0  0  0  0  0  2  0  0  0  0  0  0
  189.4170  175.1450  137.3410 C   0  0  2  0  0  3  0  0  0  0  0  0
  188.2410  175.2670  136.4850 N   0  0  0  0  0  0  0  0  0  0  0  0
  187.7710  173.9100  136.2670 C   0  0  0  0  0  2  0  0  0  0  0  0
  188.7070  172.9830  137.0030 C   0  0  0  0  0  2  0  0  0  0  0  0
  187.2150  175.9510  137.2580 C   0  0  0  0  0  2  0  0  0  0  0  0
  186.3410  176.7820  136.3370 C   0  0  0  0  0  2  0  0  0  0  0  0
  185.0970  177.2170  137.0810 C   0  0  0  0  0  2  0  0  0  0  0  0
  185.4310  178.2100  138.0020 O   0  0  0  0  0  1  0  0  0  0  0  0
  195.0370  177.0350  135.2590 C   0  0  0  0  0  2  0  0  0  0  0  0
  197.1890  175.9890  134.7620 C   0  0  0  0  0  2  0  0  0  0  0  0
  196.3350  176.9790  134.5260 C   0  0  0  0  0  3  0  0  0  0  0  0
  1 22  1  1  0  0  0
  1  8  1  0  0  0  0
  2  9  1  6  0  0  0
  2  7  1  0  0  0  0
  4  3  1  6  0  0  0
  4  1  1  0  0  0  0
  4  2  1  0  0  0  0
  5 30  1  1  0  0  0
  5  9  1  0  0  0  0
  6  3  1  0  0  0  0
  6  5  1  0  0  0  0
  8  7  1  0  0  0  0
  8 13  1  1  0  0  0
  9 10  2  0  0  0  0
 11 12  1  0  0  0  0
 11 14  1  0  0  0  0
 13 15  2  0  0  0  0
 14 18  2  0  0  0  0
 15 18  1  0  0  0  0
 16 13  1  0  0  0  0
 16 11  2  0  0  0  0
 17 16  1  0  0  0  0
 18 20  1  0  0  0  0
 20 19  1  0  0  0  0
 22 21  1  6  0  0  0
 23 26  1  0  0  0  0
 23 22  1  0  0  0  0
 24 23  1  0  0  0  0
 24 25  1  0  0  0  0
 25 21  1  0  0  0  0
 27 28  1  0  0  0  0
 27 26  1  0  0  0  0
 28 29  1  0  0  0  0
 32 31  2  0  0  0  0
 32 30  1  0  0  0  0
M  END
>  <MODEL>
2

>  <REMARK>
 VINA RESULT:      -6.9      3.825      7.178
  Name = 
  8 active torsions:
  status: ('A' for Active; 'I' for Inactive)
    1  A    between atoms: C_1  and  C_5
    2  A    between atoms: C_11  and  C_12
    3  A    between atoms: C_11  and  C_31
    4  A    between atoms: C_13  and  C_18
    5  A    between atoms: N_14  and  C_29
    6  A    between atoms: O_15  and  C_26
    7  A    between atoms: C_16  and  C_27
    8  A    between atoms: C_18  and  C_29
                            x       y       z     vdW  Elec       q    Type
                         _______ _______ _______ _____ _____    ______ ____

>  <TORSDO>
F 8

$$$$
=
 OpenBabel10272413113D

 32 35  0  0  1  0  0  0  0  0999 V2000
  189.1190  176.9500  139.3790 C   0  0  2  0  0  3  0  0  0  0  0  0
  190.3650  177.9450  141.1190 C   0  0  2  0  0  3  0  0  0  0  0  0
  188.1080  177.1300  141.5040 O   0  0  0  0  0  0  0  0  0  0  0  0
  188.9320  177.8120  140.5910 C   0  0  2  0  0  3  0  0  0  0  0  0
  189.1990  177.9520  143.4770 C   0  0  2  0  0  3  0  0  0  0  0  0
  187.9490  177.9890  142.6010 C   0  0  0  0  0  2  0  0  0  0  0  0
  191.1470  176.8560  140.6820 O   0  0  0  0  0  0  0  0  0  0  0  0
  190.3810  176.1630  139.7230 C   0  0  2  0  0  3  0  0  0  0  0  0
  190.4340  178.0970  142.6190 C   0  0  0  0  0  0  0  0  0  0  0  0
  191.5750  178.5070  143.1730 C   0  0  0  0  0  2  0  0  0  0  0  0
  193.2420  175.7640  137.2210 C   0  0  0  0  0  0  0  0  0  0  0  0
  194.5050  176.2820  136.9610 O   0  0  0  0  0  1  0  0  0  0  0  0
  191.2010  175.7020  138.5440 C   0  0  0  0  0  0  0  0  0  0  0  0
  192.7330  174.7610  136.3930 C   0  0  0  0  0  3  0  0  0  0  0  0
  190.7090  174.6900  137.7080 C   0  0  0  0  0  3  0  0  0  0  0  0
  192.4820  176.2400  138.3020 C   0  0  0  0  0  0  0  0  0  0  0  0
  193.0430  177.3070  139.1850 C   0  0  0  0  0  1  0  0  0  0  0  0
  191.4630  174.2170  136.6320 C   0  0  0  0  0  0  0  0  0  0  0  0
  190.4200  173.4610  134.5220 C   0  0  0  0  0  1  0  0  0  0  0  0
  190.9320  173.2100  135.8230 O   0  0  0  0  0  0  0  0  0  0  0  0
  189.2100  179.2100  138.3350 N   0  0  0  0  0  2  0  0  0  0  0  0
  189.2020  177.7740  138.0800 C   0  0  2  0  0  3  0  0  0  0  0  0
  188.0920  177.4420  137.1930 N   0  0  0  0  0  0  0  0  0  0  0  0
  187.6600  178.7030  136.6150 C   0  0  0  0  0  2  0  0  0  0  0  0
  188.5330  179.7880  137.1940 C   0  0  0  0  0  2  0  0  0  0  0  0
  188.6330  176.6410  136.1050 C   0  0  0  0  0  2  0  0  0  0  0  0
  187.5830  175.6670  135.6060 C   0  0  0  0  0  2  0  0  0  0  0  0
  186.8660  175.0500  136.7880 C   0  0  0  0  0  2  0  0  0  0  0  0
  187.3290  173.7500  136.9850 O   0  0  0  0  0  1  0  0  0  0  0  0
  189.2300  176.6470  144.2620 C   0  0  0  0  0  2  0  0  0  0  0  0
  188.4330  177.6670  146.3350 C   0  0  0  0  0  2  0  0  0  0  0  0
  189.3430  176.9150  145.7250 C   0  0  0  0  0  3  0  0  0  0  0  0
  1 22  1  6  0  0  0
  1  8  1  0  0  0  0
  1  4  1  0  0  0  0
  2  7  1  1  0  0  0
  2  9  1  0  0  0  0
  3  6  1  0  0  0  0
  4  2  1  0  0  0  0
  4  3  1  1  0  0  0
  5 30  1  6  0  0  0
  6  5  1  0  0  0  0
  8 13  1  6  0  0  0
  8  7  1  0  0  0  0
  9 10  2  0  0  0  0
  9  5  1  0  0  0  0
 11 16  1  0  0  0  0
 12 11  1  0  0  0  0
 14 18  1  0  0  0  0
 14 11  2  0  0  0  0
 15 13  1  0  0  0  0
 16 13  2  0  0  0  0
 16 17  1  0  0  0  0
 18 15  2  0  0  0  0
 19 20  1  0  0  0  0
 20 18  1  0  0  0  0
 22 21  1  1  0  0  0
 23 22  1  0  0  0  0
 24 23  1  0  0  0  0
 24 25  1  0  0  0  0
 25 21  1  0  0  0  0
 26 23  1  0  0  0  0
 27 26  1  0  0  0  0
 27 28  1  0  0  0  0
 28 29  1  0  0  0  0
 30 32  1  0  0  0  0
 32 31  2  0  0  0  0
M  END
>  <MODEL>
3

>  <REMARK>
 VINA RESULT:      -5.9      2.889      8.408
  Name = 
  8 active torsions:
  status: ('A' for Active; 'I' for Inactive)
    1  A    between atoms: C_1  and  C_5
    2  A    between atoms: C_11  and  C_12
    3  A    between atoms: C_11  and  C_31
    4  A    between atoms: C_13  and  C_18
    5  A    between atoms: N_14  and  C_29
    6  A    between atoms: O_15  and  C_26
    7  A    between atoms: C_16  and  C_27
    8  A    between atoms: C_18  and  C_29
                            x       y       z     vdW  Elec       q    Type
                         _______ _______ _______ _____ _____    ______ ____

>  <TORSDO>
F 8

$$$$
=
 OpenBabel10272413113D

 32 35  0  0  1  0  0  0  0  0999 V2000
  189.1840  176.8200  139.0490 C   0  0  2  0  0  3  0  0  0  0  0  0
  190.3700  177.9020  140.7780 C   0  0  2  0  0  3  0  0  0  0  0  0
  188.2120  176.8680  141.1990 O   0  0  0  0  0  0  0  0  0  0  0  0
  188.9450  177.6410  140.2800 C   0  0  2  0  0  3  0  0  0  0  0  0
  189.2650  177.7600  143.1610 C   0  0  2  0  0  3  0  0  0  0  0  0
  187.9970  177.6900  142.3150 C   0  0  0  0  0  2  0  0  0  0  0  0
  191.2420  176.9010  140.3050 O   0  0  0  0  0  0  0  0  0  0  0  0
  190.5230  176.1530  139.3510 C   0  0  2  0  0  3  0  0  0  0  0  0
  190.4600  178.0370  142.2790 C   0  0  0  0  0  0  0  0  0  0  0  0
  191.5690  178.5470  142.8150 C   0  0  0  0  0  2  0  0  0  0  0  0
  191.7390  174.4530  136.1510 C   0  0  0  0  0  0  0  0  0  0  0  0
  191.3780  173.4200  135.2940 O   0  0  0  0  0  1  0  0  0  0  0  0
  191.3560  175.7920  138.1460 C   0  0  0  0  0  0  0  0  0  0  0  0
  192.8820  175.2050  135.8690 C   0  0  0  0  0  3  0  0  0  0  0  0
  192.5010  176.5420  137.8430 C   0  0  0  0  0  3  0  0  0  0  0  0
  190.9690  174.7420  137.2880 C   0  0  0  0  0  0  0  0  0  0  0  0
  189.7430  173.9350  137.5730 C   0  0  0  0  0  1  0  0  0  0  0  0
  193.2690  176.2550  136.7130 C   0  0  0  0  0  0  0  0  0  0  0  0
  195.1140  176.9560  135.2230 C   0  0  0  0  0  1  0  0  0  0  0  0
  194.4050  177.0260  136.4520 O   0  0  0  0  0  0  0  0  0  0  0  0
  189.2440  179.0980  138.0420 N   0  0  0  0  0  2  0  0  0  0  0  0
  189.1570  177.6680  137.7640 C   0  0  2  0  0  3  0  0  0  0  0  0
  187.9460  177.3940  136.9960 N   0  0  0  0  0  0  0  0  0  0  0  0
  187.5010  178.6800  136.4900 C   0  0  0  0  0  2  0  0  0  0  0  0
  188.4700  179.7230  136.9910 C   0  0  0  0  0  2  0  0  0  0  0  0
  188.3390  176.5980  135.8420 C   0  0  0  0  0  2  0  0  0  0  0  0
  187.2180  175.6500  135.4610 C   0  0  0  0  0  2  0  0  0  0  0  0
  186.4660  175.2330  136.7060 C   0  0  0  0  0  2  0  0  0  0  0  0
  185.3420  174.4900  136.3430 O   0  0  0  0  0  1  0  0  0  0  0  0
  189.4400  176.4520  143.9220 C   0  0  0  0  0  2  0  0  0  0  0  0
  188.8400  177.2760  146.1430 C   0  0  0  0  0  2  0  0  0  0  0  0
  189.7520  176.7150  145.3570 C   0  0  0  0  0  3  0  0  0  0  0  0
  1 22  1  6  0  0  0
  1  8  1  0  0  0  0
  1  4  1  0  0  0  0
  2  7  1  1  0  0  0
  2  9  1  0  0  0  0
  3  6  1  0  0  0  0
  4  2  1  0  0  0  0
  4  3  1  1  0  0  0
  5 30  1  6  0  0  0
  6  5  1  0  0  0  0
  8 13  1  6  0  0  0
  8  7  1  0  0  0  0
  9 10  2  0  0  0  0
  9  5  1  0  0  0  0
 11 16  1  0  0  0  0
 12 11  1  0  0  0  0
 14 11  2  0  0  0  0
 14 18  1  0  0  0  0
 15 13  1  0  0  0  0
 16 17  1  0  0  0  0
 16 13  2  0  0  0  0
 18 15  2  0  0  0  0
 19 20  1  0  0  0  0
 20 18  1  0  0  0  0
 22 21  1  1  0  0  0
 23 22  1  0  0  0  0
 24 25  1  0  0  0  0
 24 23  1  0  0  0  0
 25 21  1  0  0  0  0
 26 23  1  0  0  0  0
 27 26  1  0  0  0  0
 27 28  1  0  0  0  0
 29 28  1  0  0  0  0
 30 32  1  0  0  0  0
 32 31  2  0  0  0  0
M  END
>  <MODEL>
4

>  <REMARK>
 VINA RESULT:      -5.9      3.064      8.556
  Name = 
  8 active torsions:
  status: ('A' for Active; 'I' for Inactive)
    1  A    between atoms: C_1  and  C_5
    2  A    between atoms: C_11  and  C_12
    3  A    between atoms: C_11  and  C_31
    4  A    between atoms: C_13  and  C_18
    5  A    between atoms: N_14  and  C_29
    6  A    between atoms: O_15  and  C_26
    7  A    between atoms: C_16  and  C_27
    8  A    between atoms: C_18  and  C_29
                            x       y       z     vdW  Elec       q    Type
                         _______ _______ _______ _____ _____    ______ ____

>  <TORSDO>
F 8

$$$$
=
 OpenBabel10272413113D

 32 35  0  0  1  0  0  0  0  0999 V2000
  190.4650  176.9490  138.4790 C   0  0  2  0  0  3  0  0  0  0  0  0
  189.7510  176.2910  140.6300 C   0  0  2  0  0  3  0  0  0  0  0  0
  191.6570  177.7710  140.3440 O   0  0  0  0  0  0  0  0  0  0  0  0
  191.0180  176.6260  139.8350 C   0  0  2  0  0  3  0  0  0  0  0  0
  191.0540  177.3880  142.6340 C   0  0  2  0  0  3  0  0  0  0  0  0
  192.1730  177.4050  141.5950 C   0  0  0  0  0  2  0  0  0  0  0  0
  188.6310  176.9140  140.0450 O   0  0  0  0  0  0  0  0  0  0  0  0
  189.0530  177.4290  138.8030 C   0  0  2  0  0  3  0  0  0  0  0  0
  189.8610  176.6340  142.0960 C   0  0  0  0  0  0  0  0  0  0  0  0
  188.9610  176.1360  142.9430 C   0  0  0  0  0  2  0  0  0  0  0  0
  186.9530  177.9450  135.6510 C   0  0  0  0  0  0  0  0  0  0  0  0
  186.7860  178.8680  134.6260 O   0  0  0  0  0  1  0  0  0  0  0  0
  188.0320  177.2280  137.7110 C   0  0  0  0  0  0  0  0  0  0  0  0
  186.1840  176.7790  135.6510 C   0  0  0  0  0  3  0  0  0  0  0  0
  187.2580  176.0590  137.6900 C   0  0  0  0  0  3  0  0  0  0  0  0
  187.8820  178.1760  136.6780 C   0  0  0  0  0  0  0  0  0  0  0  0
  188.7050  179.4240  136.6610 C   0  0  0  0  0  1  0  0  0  0  0  0
  186.3330  175.8280  136.6710 C   0  0  0  0  0  0  0  0  0  0  0  0
  185.2190  173.9490  135.5110 C   0  0  0  0  0  1  0  0  0  0  0  0
  185.5800  174.6510  136.6920 O   0  0  0  0  0  0  0  0  0  0  0  0
  191.1930  174.5940  138.1170 N   0  0  0  0  0  2  0  0  0  0  0  0
  190.5390  175.7510  137.5150 C   0  0  2  0  0  3  0  0  0  0  0  0
  191.2390  176.1230  136.2900 N   0  0  0  0  0  0  0  0  0  0  0  0
  192.0730  174.9840  135.9510 C   0  0  0  0  0  2  0  0  0  0  0  0
  191.8600  173.9350  137.0150 C   0  0  0  0  0  2  0  0  0  0  0  0
  190.2370  176.2410  135.2400 C   0  0  0  0  0  2  0  0  0  0  0  0
  190.2640  175.0090  134.3560 C   0  0  0  0  0  2  0  0  0  0  0  0
  188.8940  174.3660  134.3460 C   0  0  0  0  0  2  0  0  0  0  0  0
  188.7510  173.5610  135.4760 O   0  0  0  0  0  1  0  0  0  0  0  0
  190.6770  178.8190  142.9970 C   0  0  0  0  0  2  0  0  0  0  0  0
  191.1480  178.0450  145.2670 C   0  0  0  0  0  2  0  0  0  0  0  0
  190.8720  179.0610  144.4560 C   0  0  0  0  0  3  0  0  0  0  0  0
  1 22  1  6  0  0  0
  1  8  1  0  0  0  0
  1  4  1  0  0  0  0
  2  7  1  6  0  0  0
  2  9  1  0  0  0  0
  3  6  1  0  0  0  0
  4  3  1  1  0  0  0
  4  2  1  0  0  0  0
  5 30  1  6  0  0  0
  6  5  1  0  0  0  0
  8 13  1  6  0  0  0
  8  7  1  0  0  0  0
  9  5  1  0  0  0  0
  9 10  2  0  0  0  0
 11 16  1  0  0  0  0
 12 11  1  0  0  0  0
 14 11  2  0  0  0  0
 14 18  1  0  0  0  0
 15 13  1  0  0  0  0
 16 13  2  0  0  0  0
 17 16  1  0  0  0  0
 18 20  1  0  0  0  0
 18 15  2  0  0  0  0
 19 20  1  0  0  0  0
 22 21  1  1  0  0  0
 23 22  1  0  0  0  0
 24 23  1  0  0  0  0
 24 25  1  0  0  0  0
 25 21  1  0  0  0  0
 26 23  1  0  0  0  0
 27 26  1  0  0  0  0
 28 27  1  0  0  0  0
 28 29  1  0  0  0  0
 30 32  1  0  0  0  0
 32 31  2  0  0  0  0
M  END
>  <MODEL>
5

>  <REMARK>
 VINA RESULT:      -5.9      3.602      7.912
  Name = 
  8 active torsions:
  status: ('A' for Active; 'I' for Inactive)
    1  A    between atoms: C_1  and  C_5
    2  A    between atoms: C_11  and  C_12
    3  A    between atoms: C_11  and  C_31
    4  A    between atoms: C_13  and  C_18
    5  A    between atoms: N_14  and  C_29
    6  A    between atoms: O_15  and  C_26
    7  A    between atoms: C_16  and  C_27
    8  A    between atoms: C_18  and  C_29
                            x       y       z     vdW  Elec       q    Type
                         _______ _______ _______ _____ _____    ______ ____

>  <TORSDO>
F 8

$$$$
=
 OpenBabel10272413113D

 32 35  0  0  1  0  0  0  0  0999 V2000
  182.5520  178.5690  140.2520 C   0  0  2  0  0  3  0  0  0  0  0  0
  184.8450  178.8850  140.7080 C   0  0  2  0  0  3  0  0  0  0  0  0
  183.2090  178.8350  142.5030 O   0  0  0  0  0  0  0  0  0  0  0  0
  183.4540  179.3010  141.1990 C   0  0  2  0  0  3  0  0  0  0  0  0
  185.4790  179.0150  143.2570 C   0  0  2  0  0  3  0  0  0  0  0  0
  184.0580  179.5670  143.3450 C   0  0  0  0  0  2  0  0  0  0  0  0
  184.7720  177.6550  140.0240 O   0  0  0  0  0  0  0  0  0  0  0  0
  183.4030  177.3720  139.8400 C   0  0  2  0  0  3  0  0  0  0  0  0
  185.8750  178.8340  141.8100 C   0  0  0  0  0  0  0  0  0  0  0  0
  187.1650  178.7740  141.4840 C   0  0  0  0  0  2  0  0  0  0  0  0
  181.7690  175.3940  137.0070 C   0  0  0  0  0  0  0  0  0  0  0  0
  180.7390  174.4840  136.8040 O   0  0  0  0  0  1  0  0  0  0  0  0
  183.1050  176.8000  138.4760 C   0  0  0  0  0  0  0  0  0  0  0  0
  182.5250  175.8240  135.9130 C   0  0  0  0  0  3  0  0  0  0  0  0
  183.8480  177.2270  137.3660 C   0  0  0  0  0  3  0  0  0  0  0  0
  182.0520  175.8800  138.2930 C   0  0  0  0  0  0  0  0  0  0  0  0
  181.2300  175.4190  139.4530 C   0  0  0  0  0  1  0  0  0  0  0  0
  183.5680  176.7440  136.0860 C   0  0  0  0  0  0  0  0  0  0  0  0
  185.7510  177.0660  134.9690 C   0  0  0  0  0  1  0  0  0  0  0  0
  184.3360  177.1940  135.0100 O   0  0  0  0  0  0  0  0  0  0  0  0
  182.7980  180.7270  139.0310 N   0  0  0  0  0  2  0  0  0  0  0  0
  182.0770  179.4600  139.0880 C   0  0  2  0  0  3  0  0  0  0  0  0
  180.6450  179.7170  139.1930 N   0  0  0  0  0  0  0  0  0  0  0  0
  180.4680  181.1110  138.8240 C   0  0  0  0  0  2  0  0  0  0  0  0
  181.8330  181.6730  138.5140 C   0  0  0  0  0  2  0  0  0  0  0  0
  179.9870  178.9220  138.1670 C   0  0  0  0  0  2  0  0  0  0  0  0
  180.1780  179.5670  136.8080 C   0  0  0  0  0  2  0  0  0  0  0  0
  180.1140  178.5050  135.7320 C   0  0  0  0  0  2  0  0  0  0  0  0
  180.9580  178.8580  134.6800 O   0  0  0  0  0  1  0  0  0  0  0  0
  185.5580  177.6940  144.0130 C   0  0  0  0  0  2  0  0  0  0  0  0
  186.0780  178.3860  146.2980 C   0  0  0  0  0  2  0  0  0  0  0  0
  186.4870  177.8070  145.1750 C   0  0  0  0  0  3  0  0  0  0  0  0
  1 22  1  6  0  0  0
  1  4  1  0  0  0  0
  2  7  1  1  0  0  0
  2  4  1  0  0  0  0
  2  9  1  0  0  0  0
  3  6  1  0  0  0  0
  4  3  1  1  0  0  0
  5  6  1  0  0  0  0
  5 30  1  1  0  0  0
  8 13  1  6  0  0  0
  8  7  1  0  0  0  0
  8  1  1  0  0  0  0
  9  5  1  0  0  0  0
 10  9  2  0  0  0  0
 11 16  1  0  0  0  0
 12 11  1  0  0  0  0
 14 18  1  0  0  0  0
 14 11  2  0  0  0  0
 15 13  1  0  0  0  0
 16 13  2  0  0  0  0
 16 17  1  0  0  0  0
 18 15  2  0  0  0  0
 19 20  1  0  0  0  0
 20 18  1  0  0  0  0
 22 21  1  1  0  0  0
 22 23  1  0  0  0  0
 24 23  1  0  0  0  0
 25 24  1  0  0  0  0
 25 21  1  0  0  0  0
 26 23  1  0  0  0  0
 27 26  1  0  0  0  0
 28 27  1  0  0  0  0
 29 28  1  0  0  0  0
 30 32  1  0  0  0  0
 32 31  2  0  0  0  0
M  END
>  <MODEL>
6

>  <REMARK>
 VINA RESULT:      -5.7      5.434      9.802
  Name = 
  8 active torsions:
  status: ('A' for Active; 'I' for Inactive)
    1  A    between atoms: C_1  and  C_5
    2  A    between atoms: C_11  and  C_12
    3  A    between atoms: C_11  and  C_31
    4  A    between atoms: C_13  and  C_18
    5  A    between atoms: N_14  and  C_29
    6  A    between atoms: O_15  and  C_26
    7  A    between atoms: C_16  and  C_27
    8  A    between atoms: C_18  and  C_29
                            x       y       z     vdW  Elec       q    Type
                         _______ _______ _______ _____ _____    ______ ____

>  <TORSDO>
F 8

$$$$
=
 OpenBabel10272413113D

 32 35  0  0  1  0  0  0  0  0999 V2000
  190.2550  176.1090  136.6760 C   0  0  2  0  0  3  0  0  0  0  0  0
  192.3390  175.3000  137.4330 C   0  0  2  0  0  3  0  0  0  0  0  0
  192.0470  176.0540  135.1410 O   0  0  0  0  0  0  0  0  0  0  0  0
  191.4430  175.3360  136.1890 C   0  0  2  0  0  3  0  0  0  0  0  0
  194.2990  175.4300  135.6840 C   0  0  2  0  0  3  0  0  0  0  0  0
  193.1320  175.2770  134.7110 C   0  0  0  0  0  2  0  0  0  0  0  0
  192.0320  176.3810  138.2840 O   0  0  0  0  0  0  0  0  0  0  0  0
  190.8500  176.9680  137.7880 C   0  0  2  0  0  3  0  0  0  0  0  0
  193.8120  175.2670  137.1050 C   0  0  0  0  0  0  0  0  0  0  0  0
  194.6780  174.9440  138.0640 C   0  0  0  0  0  2  0  0  0  0  0  0
  189.3980  177.7620  141.2330 C   0  0  0  0  0  0  0  0  0  0  0  0
  189.7710  177.7460  142.5720 O   0  0  0  0  0  1  0  0  0  0  0  0
  189.8940  177.3670  138.8830 C   0  0  0  0  0  0  0  0  0  0  0  0
  188.1170  178.1970  140.8870 C   0  0  0  0  0  3  0  0  0  0  0  0
  188.6070  177.8150  138.5530 C   0  0  0  0  0  3  0  0  0  0  0  0
  190.2950  177.3460  140.2350 C   0  0  0  0  0  0  0  0  0  0  0  0
  191.6660  176.8910  140.6190 C   0  0  0  0  0  1  0  0  0  0  0  0
  187.7140  178.2280  139.5440 C   0  0  0  0  0  0  0  0  0  0  0  0
  185.3690  178.7860  140.0940 C   0  0  0  0  0  1  0  0  0  0  0  0
  186.4410  178.6630  139.1700 O   0  0  0  0  0  0  0  0  0  0  0  0
  189.5390  173.8210  137.3570 N   0  0  0  0  0  2  0  0  0  0  0  0
  189.0980  175.1910  137.1140 C   0  0  2  0  0  3  0  0  0  0  0  0
  188.0380  175.1910  136.1100 N   0  0  0  0  0  0  0  0  0  0  0  0
  187.5800  173.8160  136.0220 C   0  0  0  0  0  2  0  0  0  0  0  0
  188.4060  173.0010  136.9870 C   0  0  0  0  0  2  0  0  0  0  0  0
  186.9340  175.9710  136.6500 C   0  0  0  0  0  2  0  0  0  0  0  0
  186.1880  176.6610  135.5230 C   0  0  0  0  0  2  0  0  0  0  0  0
  187.0890  177.6930  134.8810 C   0  0  0  0  0  2  0  0  0  0  0  0
  186.3120  178.7240  134.3530 O   0  0  0  0  0  1  0  0  0  0  0  0
  194.9520  176.7920  135.4840 C   0  0  0  0  0  2  0  0  0  0  0  0
  197.1780  175.7880  135.3810 C   0  0  0  0  0  2  0  0  0  0  0  0
  196.3020  176.6440  134.8660 C   0  0  0  0  0  3  0  0  0  0  0  0
  1 22  1  1  0  0  0
  1  8  1  0  0  0  0
  2  9  1  6  0  0  0
  2  7  1  0  0  0  0
  4  3  1  6  0  0  0
  4  1  1  0  0  0  0
  4  2  1  0  0  0  0
  5 30  1  1  0  0  0
  5  9  1  0  0  0  0
  6  3  1  0  0  0  0
  6  5  1  0  0  0  0
  8  7  1  0  0  0  0
  8 13  1  1  0  0  0
  9 10  2  0  0  0  0
 11 12  1  0  0  0  0
 13 16  1  0  0  0  0
 14 11  1  0  0  0  0
 15 13  2  0  0  0  0
 15 18  1  0  0  0  0
 16 17  1  0  0  0  0
 16 11  2  0  0  0  0
 18 14  2  0  0  0  0
 20 18  1  0  0  0  0
 20 19  1  0  0  0  0
 22 21  1  6  0  0  0
 23 26  1  0  0  0  0
 23 22  1  0  0  0  0
 24 23  1  0  0  0  0
 24 25  1  0  0  0  0
 25 21  1  0  0  0  0
 27 26  1  0  0  0  0
 28 27  1  0  0  0  0
 29 28  1  0  0  0  0
 32 31  2  0  0  0  0
 32 30  1  0  0  0  0
M  END
>  <MODEL>
7

>  <REMARK>
 VINA RESULT:      -5.5      4.003      7.686
  Name = 
  8 active torsions:
  status: ('A' for Active; 'I' for Inactive)
    1  A    between atoms: C_1  and  C_5
    2  A    between atoms: C_11  and  C_12
    3  A    between atoms: C_11  and  C_31
    4  A    between atoms: C_13  and  C_18
    5  A    between atoms: N_14  and  C_29
    6  A    between atoms: O_15  and  C_26
    7  A    between atoms: C_16  and  C_27
    8  A    between atoms: C_18  and  C_29
                            x       y       z     vdW  Elec       q    Type
                         _______ _______ _______ _____ _____    ______ ____

>  <TORSDO>
F 8

$$$$
=
 OpenBabel10272413113D

 32 35  0  0  1  0  0  0  0  0999 V2000
  190.8130  177.2460  138.6750 C   0  0  2  0  0  3  0  0  0  0  0  0
  190.1530  176.2700  140.7190 C   0  0  2  0  0  3  0  0  0  0  0  0
  191.8180  178.0380  140.6580 O   0  0  0  0  0  0  0  0  0  0  0  0
  191.3740  176.8700  140.0130 C   0  0  2  0  0  3  0  0  0  0  0  0
  191.2220  177.3350  142.8740 C   0  0  2  0  0  3  0  0  0  0  0  0
  192.3520  177.6260  141.8880 C   0  0  0  0  0  2  0  0  0  0  0  0
  188.9660  176.7770  140.1540 O   0  0  0  0  0  0  0  0  0  0  0  0
  189.3360  177.4750  138.9860 C   0  0  2  0  0  3  0  0  0  0  0  0
  190.1720  176.4720  142.2150 C   0  0  0  0  0  0  0  0  0  0  0  0
  189.3370  175.7610  142.9720 C   0  0  0  0  0  2  0  0  0  0  0  0
  187.3330  177.9590  135.7670 C   0  0  0  0  0  0  0  0  0  0  0  0
  187.1250  178.9150  134.7800 O   0  0  0  0  0  1  0  0  0  0  0  0
  188.3860  177.2380  137.8390 C   0  0  0  0  0  0  0  0  0  0  0  0
  186.6770  176.7300  135.6750 C   0  0  0  0  0  3  0  0  0  0  0  0
  187.7260  176.0060  137.7270 C   0  0  0  0  0  3  0  0  0  0  0  0
  188.1930  178.2210  136.8470 C   0  0  0  0  0  0  0  0  0  0  0  0
  188.8950  179.5380  136.9270 C   0  0  0  0  0  1  0  0  0  0  0  0
  186.8700  175.7450  136.6550 C   0  0  0  0  0  0  0  0  0  0  0  0
  184.8830  174.3120  136.9910 C   0  0  0  0  0  1  0  0  0  0  0  0
  186.2310  174.5050  136.5850 O   0  0  0  0  0  0  0  0  0  0  0  0
  190.3960  174.9250  137.8710 N   0  0  0  0  0  2  0  0  0  0  0  0
  191.0920  176.1780  137.6010 C   0  0  2  0  0  3  0  0  0  0  0  0
  192.5260  175.9260  137.4920 N   0  0  0  0  0  0  0  0  0  0  0  0
  192.6600  174.4900  137.3220 C   0  0  0  0  0  2  0  0  0  0  0  0
  191.2730  173.8990  137.3480 C   0  0  0  0  0  2  0  0  0  0  0  0
  192.9790  176.5430  136.2540 C   0  0  0  0  0  2  0  0  0  0  0  0
  194.3050  175.9410  135.8300 C   0  0  0  0  0  2  0  0  0  0  0  0
  194.9790  176.8580  134.8330 C   0  0  0  0  0  2  0  0  0  0  0  0
  195.3580  178.0380  135.4710 O   0  0  0  0  0  1  0  0  0  0  0  0
  190.6230  178.6490  143.3600 C   0  0  0  0  0  2  0  0  0  0  0  0
  191.0200  177.6650  145.5610 C   0  0  0  0  0  2  0  0  0  0  0  0
  190.4810  178.6450  144.8450 C   0  0  0  0  0  3  0  0  0  0  0  0
  1 22  1  6  0  0  0
  1  8  1  0  0  0  0
  1  4  1  0  0  0  0
  2  7  1  6  0  0  0
  2  9  1  0  0  0  0
  3  6  1  0  0  0  0
  4  3  1  1  0  0  0
  4  2  1  0  0  0  0
  5 30  1  6  0  0  0
  6  5  1  0  0  0  0
  8 13  1  6  0  0  0
  8  7  1  0  0  0  0
  9  5  1  0  0  0  0
  9 10  2  0  0  0  0
 11 16  1  0  0  0  0
 12 11  1  0  0  0  0
 14 11  2  0  0  0  0
 14 18  1  0  0  0  0
 15 13  1  0  0  0  0
 16 17  1  0  0  0  0
 16 13  2  0  0  0  0
 18 15  2  0  0  0  0
 20 18  1  0  0  0  0
 20 19  1  0  0  0  0
 22 21  1  1  0  0  0
 23 22  1  0  0  0  0
 24 25  1  0  0  0  0
 24 23  1  0  0  0  0
 25 21  1  0  0  0  0
 26 23  1  0  0  0  0
 27 26  1  0  0  0  0
 28 29  1  0  0  0  0
 28 27  1  0  0  0  0
 30 32  1  0  0  0  0
 32 31  2  0  0  0  0
M  END
>  <MODEL>
8

>  <REMARK>
 VINA RESULT:      -5.4      3.669      7.660
  Name = 
  8 active torsions:
  status: ('A' for Active; 'I' for Inactive)
    1  A    between atoms: C_1  and  C_5
    2  A    between atoms: C_11  and  C_12
    3  A    between atoms: C_11  and  C_31
    4  A    between atoms: C_13  and  C_18
    5  A    between atoms: N_14  and  C_29
    6  A    between atoms: O_15  and  C_26
    7  A    between atoms: C_16  and  C_27
    8  A    between atoms: C_18  and  C_29
                            x       y       z     vdW  Elec       q    Type
                         _______ _______ _______ _____ _____    ______ ____

>  <TORSDO>
F 8

$$$$
=
 OpenBabel10272413113D

 32 35  0  0  1  0  0  0  0  0999 V2000
  185.7210  175.8140  136.9750 C   0  0  2  0  0  3  0  0  0  0  0  0
  184.0630  174.8570  135.5960 C   0  0  2  0  0  3  0  0  0  0  0  0
  185.8020  173.4860  136.5960 O   0  0  0  0  0  0  0  0  0  0  0  0
  185.5430  174.7180  135.9680 C   0  0  2  0  0  3  0  0  0  0  0  0
  184.1610  172.2380  135.3700 C   0  0  2  0  0  3  0  0  0  0  0  0
  185.6450  172.5050  135.6060 C   0  0  0  0  0  2  0  0  0  0  0  0
  183.3550  175.4840  136.6420 O   0  0  0  0  0  0  0  0  0  0  0  0
  184.3170  175.9660  137.5530 C   0  0  2  0  0  3  0  0  0  0  0  0
  183.4200  173.5460  135.2150 C   0  0  0  0  0  0  0  0  0  0  0  0
  182.2380  173.5630  134.5990 C   0  0  0  0  0  2  0  0  0  0  0  0
  182.5450  179.3000  138.1450 C   0  0  0  0  0  0  0  0  0  0  0  0
  181.4510  180.0190  137.6780 O   0  0  0  0  0  1  0  0  0  0  0  0
  183.9790  177.3350  138.0880 C   0  0  0  0  0  0  0  0  0  0  0  0
  183.3300  179.8410  139.1650 C   0  0  0  0  0  3  0  0  0  0  0  0
  184.7520  177.8890  139.1180 C   0  0  0  0  0  3  0  0  0  0  0  0
  182.8620  178.0450  137.6010 C   0  0  0  0  0  0  0  0  0  0  0  0
  182.0070  177.4740  136.5160 C   0  0  0  0  0  1  0  0  0  0  0  0
  184.4380  179.1370  139.6590 C   0  0  0  0  0  0  0  0  0  0  0  0
  185.4170  178.9880  141.9250 C   0  0  0  0  0  1  0  0  0  0  0  0
  185.2380  179.6520  140.6820 O   0  0  0  0  0  0  0  0  0  0  0  0
  185.9710  177.2260  134.9370 N   0  0  0  0  0  2  0  0  0  0  0  0
  186.3080  177.0940  136.3500 C   0  0  2  0  0  3  0  0  0  0  0  0
  187.7580  177.1220  136.5100 N   0  0  0  0  0  0  0  0  0  0  0  0
  188.2820  177.6420  135.2590 C   0  0  0  0  0  2  0  0  0  0  0  0
  187.1060  177.9060  134.3520 C   0  0  0  0  0  2  0  0  0  0  0  0
  188.0600  178.1080  137.5370 C   0  0  0  0  0  2  0  0  0  0  0  0
  188.5410  177.4140  138.7970 C   0  0  0  0  0  2  0  0  0  0  0  0
  188.5530  178.4020  139.9430 C   0  0  0  0  0  2  0  0  0  0  0  0
  188.5520  177.7080  141.1530 O   0  0  0  0  0  1  0  0  0  0  0  0
  183.5990  171.4270  136.5310 C   0  0  0  0  0  2  0  0  0  0  0  0
  182.4410  169.7800  135.1450 C   0  0  0  0  0  2  0  0  0  0  0  0
  183.3240  170.0230  136.1080 C   0  0  0  0  0  3  0  0  0  0  0  0
  1 22  1  6  0  0  0
  1  8  1  0  0  0  0
  2  9  1  1  0  0  0
  2  4  1  0  0  0  0
  2  7  1  0  0  0  0
  4  3  1  1  0  0  0
  4  1  1  0  0  0  0
  5  6  1  0  0  0  0
  5 30  1  1  0  0  0
  6  3  1  0  0  0  0
  7  8  1  0  0  0  0
  8 13  1  6  0  0  0
  9  5  1  0  0  0  0
 10  9  2  0  0  0  0
 11 14  1  0  0  0  0
 12 11  1  0  0  0  0
 13 15  2  0  0  0  0
 14 18  2  0  0  0  0
 15 18  1  0  0  0  0
 16 13  1  0  0  0  0
 16 11  2  0  0  0  0
 17 16  1  0  0  0  0
 18 20  1  0  0  0  0
 20 19  1  0  0  0  0
 22 21  1  6  0  0  0
 22 23  1  0  0  0  0
 23 26  1  0  0  0  0
 24 23  1  0  0  0  0
 25 21  1  0  0  0  0
 25 24  1  0  0  0  0
 26 27  1  0  0  0  0
 27 28  1  0  0  0  0
 28 29  1  0  0  0  0
 31 32  2  0  0  0  0
 32 30  1  0  0  0  0
M  END
>  <MODEL>
9

>  <REMARK>
 VINA RESULT:      -5.3      5.163      7.641
  Name = 
  8 active torsions:
  status: ('A' for Active; 'I' for Inactive)
    1  A    between atoms: C_1  and  C_5
    2  A    between atoms: C_11  and  C_12
    3  A    between atoms: C_11  and  C_31
    4  A    between atoms: C_13  and  C_18
    5  A    between atoms: N_14  and  C_29
    6  A    between atoms: O_15  and  C_26
    7  A    between atoms: C_16  and  C_27
    8  A    between atoms: C_18  and  C_29
                            x       y       z     vdW  Elec       q    Type
                         _______ _______ _______ _____ _____    ______ ____

>  <TORSDO>
F 8

$$$$
