=
 OpenBabel10272401553D

 28 30  0  0  1  0  0  0  0  0999 V2000
  189.4590  176.3990  144.0290 C   0  0  1  0  0  3  0  0  0  0  0  0
  184.9600  179.1070  143.0240 C   0  0  0  0  0  3  0  0  0  0  0  0
  188.5320  178.5460  148.0970 O   0  0  0  0  0  1  0  0  0  0  0  0
  184.1720  178.5260  145.2520 C   0  0  0  0  0  0  0  0  0  0  0  0
  186.6570  178.3720  144.7100 C   0  0  2  0  0  3  0  0  0  0  0  0
  182.5970  179.1910  143.5310 C   0  0  0  0  0  0  0  0  0  0  0  0
  185.2370  178.7020  144.3360 C   0  0  0  0  0  0  0  0  0  0  0  0
  185.8130  177.6350  146.9670 C   0  0  0  0  0  2  0  0  0  0  0  0
  182.8600  178.7860  144.8420 C   0  0  0  0  0  3  0  0  0  0  0  0
  189.1740  177.7720  146.0020 C   0  0  0  0  0  0  0  0  0  0  0  0
  187.0000  176.9790  144.1700 C   0  0  0  0  0  2  0  0  0  0  0  0
  184.4130  178.1890  146.7000 C   0  0  0  0  0  2  0  0  0  0  0  0
  188.2380  178.2480  146.7720 C   0  0  0  0  0  0  0  0  0  0  0  0
  190.0110  177.2740  145.1370 C   0  0  0  0  0  0  0  0  0  0  0  0
  180.9490  179.5050  143.0290 Cl  0  0  0  0  0  0  0  0  0  0  0  0
  183.6450  179.3540  142.6230 C   0  0  0  0  0  3  0  0  0  0  0  0
  186.8460  178.4890  146.2440 C   0  0  1  0  0  3  0  0  0  0  0  0
  188.2580  177.0340  143.3080 C   0  0  0  0  0  2  0  0  0  0  0  0
  190.5220  175.9100  143.0360 C   0  0  1  0  0  3  0  0  0  0  0  0
  190.7680  174.5500  143.2340 O   0  0  0  0  0  1  0  0  0  0  0  0
  190.1220  176.1650  141.5860 C   0  0  0  0  0  2  0  0  0  0  0  0
  191.7090  177.9320  141.7350 O   0  0  0  0  0  1  0  0  0  0  0  0
  191.1890  176.9740  140.8620 C   0  0  2  0  0  3  0  0  0  0  0  0
  190.5950  177.6590  139.6350 C   0  0  2  0  0  3  0  0  0  0  0  0
  189.0860  177.7700  139.7670 C   0  0  0  0  0  1  0  0  0  0  0  0
  190.8950  176.9250  138.4860 O   0  0  0  0  0  1  0  0  0  0  0  0
  191.4650  177.5920  145.2840 C   0  0  0  0  0  2  0  0  0  0  0  0
  192.0240  176.8140  146.2980 O   0  0  0  0  0  1  0  0  0  0  0  0
  1 19  1  6  0  0  0
  1 14  1  0  0  0  0
  2  7  1  0  0  0  0
  4 12  1  0  0  0  0
  5 11  1  1  0  0  0
  5 17  1  0  0  0  0
  6  9  2  0  0  0  0
  7  5  1  0  0  0  0
  7  4  2  0  0  0  0
  9  4  1  0  0  0  0
 10 13  2  0  0  0  0
 12  8  1  0  0  0  0
 13  3  1  0  0  0  0
 14 27  1  0  0  0  0
 14 10  2  0  0  0  0
 15  6  1  0  0  0  0
 16  2  2  0  0  0  0
 16  6  1  0  0  0  0
 17 13  1  0  0  0  0
 17  8  1  1  0  0  0
 18  1  1  0  0  0  0
 18 11  1  0  0  0  0
 19 20  1  6  0  0  0
 21 19  1  0  0  0  0
 23 21  1  0  0  0  0
 23 22  1  1  0  0  0
 24 25  1  1  0  0  0
 24 23  1  0  0  0  0
 26 24  1  0  0  0  0
 27 28  1  0  0  0  0
M  END
>  <MODEL>
1

>  <REMARK>
 VINA RESULT:      -8.2      0.000      0.000
  Name = 
  5 active torsions:
  status: ('A' for Active; 'I' for Inactive)
    1  A    between atoms: C_1  and  C_2
    2  A    between atoms: C_2  and  C_3
    3  A    between atoms: C_3  and  C_11
    4  A    between atoms: C_6  and  C_11
    5  A    between atoms: C_19  and  C_21
                            x       y       z     vdW  Elec       q    Type
                         _______ _______ _______ _____ _____    ______ ____

>  <TORSDO>
F 5

$$$$
=
 OpenBabel10272401553D

 28 30  0  0  1  0  0  0  0  0999 V2000
  184.6420  179.1690  140.7790 C   0  0  1  0  0  3  0  0  0  0  0  0
  188.4110  176.6340  143.5990 C   0  0  0  0  0  3  0  0  0  0  0  0
  182.6420  178.5380  144.9770 O   0  0  0  0  0  1  0  0  0  0  0  0
  187.7860  177.9660  145.5380 C   0  0  0  0  0  0  0  0  0  0  0  0
  186.1690  177.7450  143.5820 C   0  0  2  0  0  3  0  0  0  0  0  0
  189.9630  176.9000  145.4350 C   0  0  0  0  0  0  0  0  0  0  0  0
  187.4670  177.4210  144.2700 C   0  0  0  0  0  0  0  0  0  0  0  0
  185.5920  179.2370  145.5280 C   0  0  0  0  0  2  0  0  0  0  0  0
  189.0290  177.6880  146.1140 C   0  0  0  0  0  3  0  0  0  0  0  0
  183.4950  178.5380  142.8150 C   0  0  0  0  0  0  0  0  0  0  0  0
  186.4180  178.8560  142.5550 C   0  0  0  0  0  2  0  0  0  0  0  0
  186.7790  178.7360  146.3510 C   0  0  0  0  0  2  0  0  0  0  0  0
  183.7070  178.4110  144.0930 C   0  0  0  0  0  0  0  0  0  0  0  0
  183.4200  178.6620  141.5210 C   0  0  0  0  0  0  0  0  0  0  0  0
  191.5190  176.5670  146.1650 Cl  0  0  0  0  0  0  0  0  0  0  0  0
  189.6540  176.3720  144.1810 C   0  0  0  0  0  3  0  0  0  0  0  0
  185.0870  178.1180  144.6260 C   0  0  1  0  0  3  0  0  0  0  0  0
  185.9310  178.4280  141.1740 C   0  0  0  0  0  2  0  0  0  0  0  0
  184.4640  179.2260  139.2570 C   0  0  1  0  0  3  0  0  0  0  0  0
  184.2920  180.5500  138.8470 O   0  0  0  0  0  1  0  0  0  0  0  0
  185.6370  178.5950  138.5120 C   0  0  0  0  0  2  0  0  0  0  0  0
  184.0990  176.8360  138.0560 O   0  0  0  0  0  1  0  0  0  0  0  0
  185.1490  177.5700  137.4980 C   0  0  2  0  0  3  0  0  0  0  0  0
  186.2850  176.6300  137.1030 C   0  0  2  0  0  3  0  0  0  0  0  0
  187.5970  177.1010  137.7050 C   0  0  0  0  0  1  0  0  0  0  0  0
  186.4140  176.5930  135.7140 O   0  0  0  0  0  1  0  0  0  0  0  0
  182.1390  178.2990  140.8400 C   0  0  0  0  0  2  0  0  0  0  0  0
  181.0540  178.7590  141.5860 O   0  0  0  0  0  1  0  0  0  0  0  0
  1 19  1  6  0  0  0
  1 18  1  0  0  0  0
  1 14  1  0  0  0  0
  2 16  2  0  0  0  0
  2  7  1  0  0  0  0
  4  9  1  0  0  0  0
  4 12  1  0  0  0  0
  5 11  1  6  0  0  0
  5  7  1  0  0  0  0
  5 17  1  0  0  0  0
  6  9  2  0  0  0  0
  6 15  1  0  0  0  0
  7  4  2  0  0  0  0
  8 12  1  0  0  0  0
 10 13  2  0  0  0  0
 13 17  1  0  0  0  0
 13  3  1  0  0  0  0
 14 10  2  0  0  0  0
 16  6  1  0  0  0  0
 17  8  1  6  0  0  0
 18 11  1  0  0  0  0
 19 20  1  6  0  0  0
 21 19  1  0  0  0  0
 23 22  1  1  0  0  0
 23 21  1  0  0  0  0
 24 23  1  0  0  0  0
 24 25  1  1  0  0  0
 26 24  1  0  0  0  0
 27 14  1  0  0  0  0
 27 28  1  0  0  0  0
M  END
>  <MODEL>
2

>  <REMARK>
 VINA RESULT:      -8.2      4.238      6.551
  Name = 
  5 active torsions:
  status: ('A' for Active; 'I' for Inactive)
    1  A    between atoms: C_1  and  C_2
    2  A    between atoms: C_2  and  C_3
    3  A    between atoms: C_3  and  C_11
    4  A    between atoms: C_6  and  C_11
    5  A    between atoms: C_19  and  C_21
                            x       y       z     vdW  Elec       q    Type
                         _______ _______ _______ _____ _____    ______ ____

>  <TORSDO>
F 5

$$$$
=
 OpenBabel10272401553D

 28 30  0  0  1  0  0  0  0  0999 V2000
  190.6290  176.5500  139.8720 C   0  0  1  0  0  3  0  0  0  0  0  0
  186.2720  178.8120  141.9900 C   0  0  0  0  0  3  0  0  0  0  0  0
  192.1120  178.1090  144.0410 O   0  0  0  0  0  1  0  0  0  0  0  0
  186.9120  177.9000  144.1540 C   0  0  0  0  0  0  0  0  0  0  0  0
  188.6500  178.0960  142.3020 C   0  0  2  0  0  3  0  0  0  0  0  0
  184.6160  178.5640  143.7360 C   0  0  0  0  0  0  0  0  0  0  0  0
  187.2600  178.2980  142.8400 C   0  0  0  0  0  0  0  0  0  0  0  0
  189.2650  177.0200  144.4950 C   0  0  0  0  0  2  0  0  0  0  0  0
  185.5920  178.0500  144.5930 C   0  0  0  0  0  3  0  0  0  0  0  0
  191.4730  177.6520  141.8540 C   0  0  0  0  0  0  0  0  0  0  0  0
  188.6690  176.8210  141.4500 C   0  0  0  0  0  2  0  0  0  0  0  0
  187.9450  177.4340  145.1460 C   0  0  0  0  0  2  0  0  0  0  0  0
  191.1270  177.9280  143.0790 C   0  0  0  0  0  0  0  0  0  0  0  0
  191.6850  177.3550  140.6040 C   0  0  0  0  0  0  0  0  0  0  0  0
  182.9670  178.7390  144.2960 Cl  0  0  0  0  0  0  0  0  0  0  0  0
  184.9560  178.9470  142.4370 C   0  0  0  0  0  3  0  0  0  0  0  0
  189.6750  178.0640  143.4630 C   0  0  1  0  0  3  0  0  0  0  0  0
  189.2110  177.1180  140.0550 C   0  0  0  0  0  2  0  0  0  0  0  0
  190.9530  176.3010  138.3930 C   0  0  1  0  0  3  0  0  0  0  0  0
  190.6740  174.9730  138.0620 O   0  0  0  0  0  1  0  0  0  0  0  0
  190.1900  177.2430  137.4660 C   0  0  0  0  0  2  0  0  0  0  0  0
  190.0260  176.8430  135.1250 O   0  0  0  0  0  1  0  0  0  0  0  0
  189.4900  176.4670  136.3590 C   0  0  2  0  0  3  0  0  0  0  0  0
  187.9910  176.7490  136.3790 C   0  0  2  0  0  3  0  0  0  0  0  0
  187.7260  178.1900  136.7790 C   0  0  0  0  0  1  0  0  0  0  0  0
  187.3580  175.9040  137.2920 O   0  0  0  0  0  1  0  0  0  0  0  0
  192.9520  177.8210  139.9620 C   0  0  0  0  0  2  0  0  0  0  0  0
  193.9820  176.9190  140.2290 O   0  0  0  0  0  1  0  0  0  0  0  0
  1 19  1  6  0  0  0
  1 18  1  0  0  0  0
  1 14  1  0  0  0  0
  2 16  2  0  0  0  0
  2  7  1  0  0  0  0
  4  9  1  0  0  0  0
  4 12  1  0  0  0  0
  5 11  1  1  0  0  0
  5  7  1  0  0  0  0
  5 17  1  0  0  0  0
  6 15  1  0  0  0  0
  6  9  2  0  0  0  0
  7  4  2  0  0  0  0
  8 12  1  0  0  0  0
 10 13  2  0  0  0  0
 13 17  1  0  0  0  0
 13  3  1  0  0  0  0
 14 10  2  0  0  0  0
 16  6  1  0  0  0  0
 17  8  1  1  0  0  0
 18 11  1  0  0  0  0
 19 20  1  6  0  0  0
 21 19  1  0  0  0  0
 23 22  1  6  0  0  0
 23 24  1  0  0  0  0
 23 21  1  0  0  0  0
 24 25  1  1  0  0  0
 24 26  1  0  0  0  0
 27 28  1  0  0  0  0
 27 14  1  0  0  0  0
M  END
>  <MODEL>
3

>  <REMARK>
 VINA RESULT:      -8.0      2.150      4.184
  Name = 
  5 active torsions:
  status: ('A' for Active; 'I' for Inactive)
    1  A    between atoms: C_1  and  C_2
    2  A    between atoms: C_2  and  C_3
    3  A    between atoms: C_3  and  C_11
    4  A    between atoms: C_6  and  C_11
    5  A    between atoms: C_19  and  C_21
                            x       y       z     vdW  Elec       q    Type
                         _______ _______ _______ _____ _____    ______ ____

>  <TORSDO>
F 5

$$$$
=
 OpenBabel10272401553D

 28 30  0  0  1  0  0  0  0  0999 V2000
  185.4000  177.9200  143.5080 C   0  0  1  0  0  3  0  0  0  0  0  0
  189.8060  177.7650  146.5320 C   0  0  0  0  0  3  0  0  0  0  0  0
  188.8920  178.0810  140.3780 O   0  0  0  0  0  1  0  0  0  0  0  0
  190.8340  176.3120  144.8730 C   0  0  0  0  0  0  0  0  0  0  0  0
  188.8130  177.7260  144.2360 C   0  0  2  0  0  3  0  0  0  0  0  0
  191.6880  176.3740  147.1430 C   0  0  0  0  0  0  0  0  0  0  0  0
  189.8590  177.2780  145.2200 C   0  0  0  0  0  0  0  0  0  0  0  0
  189.7940  176.1110  142.5690 C   0  0  0  0  0  2  0  0  0  0  0  0
  191.7500  175.8790  145.8370 C   0  0  0  0  0  3  0  0  0  0  0  0
  187.1830  178.3520  141.9290 C   0  0  0  0  0  0  0  0  0  0  0  0
  187.5150  176.9560  144.5090 C   0  0  0  0  0  2  0  0  0  0  0  0
  191.0040  175.8240  143.4580 C   0  0  0  0  0  2  0  0  0  0  0  0
  188.4140  178.0090  141.6810 C   0  0  0  0  0  0  0  0  0  0  0  0
  185.9720  178.6460  142.3060 C   0  0  0  0  0  0  0  0  0  0  0  0
  192.8350  175.8170  148.3420 Cl  0  0  0  0  0  0  0  0  0  0  0  0
  190.7200  177.3180  147.4890 C   0  0  0  0  0  3  0  0  0  0  0  0
  189.3300  177.5460  142.7860 C   0  0  1  0  0  3  0  0  0  0  0  0
  186.3530  177.9210  144.7160 C   0  0  0  0  0  2  0  0  0  0  0  0
  183.9900  178.3800  143.8980 C   0  0  1  0  0  3  0  0  0  0  0  0
  184.0390  179.6720  144.4250 O   0  0  0  0  0  1  0  0  0  0  0  0
  183.0180  178.3300  142.7230 C   0  0  0  0  0  2  0  0  0  0  0  0
  181.0560  178.4470  144.0670 O   0  0  0  0  0  1  0  0  0  0  0  0
  181.7420  179.0990  143.0390 C   0  0  2  0  0  3  0  0  0  0  0  0
  180.8560  179.1900  141.8010 C   0  0  2  0  0  3  0  0  0  0  0  0
  181.6680  178.9240  140.5460 C   0  0  0  0  0  1  0  0  0  0  0  0
  180.2910  180.4630  141.7110 O   0  0  0  0  0  1  0  0  0  0  0  0
  185.2140  179.6800  141.5360 C   0  0  0  0  0  2  0  0  0  0  0  0
  185.3210  179.4300  140.1680 O   0  0  0  0  0  1  0  0  0  0  0  0
  1 19  1  1  0  0  0
  1 18  1  0  0  0  0
  2 16  1  0  0  0  0
  3 13  1  0  0  0  0
  4  7  1  0  0  0  0
  4  9  2  0  0  0  0
  5 11  1  6  0  0  0
  5  7  1  0  0  0  0
  6 16  2  0  0  0  0
  6 15  1  0  0  0  0
  7  2  2  0  0  0  0
  8 12  1  0  0  0  0
  9  6  1  0  0  0  0
 10 14  2  0  0  0  0
 11 18  1  0  0  0  0
 12  4  1  0  0  0  0
 13 10  2  0  0  0  0
 13 17  1  0  0  0  0
 14  1  1  0  0  0  0
 17  8  1  6  0  0  0
 17  5  1  0  0  0  0
 19 20  1  6  0  0  0
 21 23  1  0  0  0  0
 21 19  1  0  0  0  0
 23 22  1  1  0  0  0
 24 25  1  6  0  0  0
 24 23  1  0  0  0  0
 26 24  1  0  0  0  0
 27 14  1  0  0  0  0
 28 27  1  0  0  0  0
M  END
>  <MODEL>
4

>  <REMARK>
 VINA RESULT:      -8.0      4.248      7.751
  Name = 
  5 active torsions:
  status: ('A' for Active; 'I' for Inactive)
    1  A    between atoms: C_1  and  C_2
    2  A    between atoms: C_2  and  C_3
    3  A    between atoms: C_3  and  C_11
    4  A    between atoms: C_6  and  C_11
    5  A    between atoms: C_19  and  C_21
                            x       y       z     vdW  Elec       q    Type
                         _______ _______ _______ _____ _____    ______ ____

>  <TORSDO>
F 5

$$$$
=
 OpenBabel10272401553D

 28 30  0  0  1  0  0  0  0  0999 V2000
  187.1480  178.5950  139.4400 C   0  0  1  0  0  3  0  0  0  0  0  0
  187.7050  176.9510  144.4960 C   0  0  0  0  0  3  0  0  0  0  0  0
  182.7480  178.5270  141.0680 O   0  0  0  0  0  1  0  0  0  0  0  0
  185.9800  178.5380  145.1500 C   0  0  0  0  0  0  0  0  0  0  0  0
  186.1870  177.8300  142.7110 C   0  0  2  0  0  3  0  0  0  0  0  0
  187.5380  177.6760  146.7980 C   0  0  0  0  0  0  0  0  0  0  0  0
  186.6090  177.7530  144.1530 C   0  0  0  0  0  0  0  0  0  0  0  0
  184.5000  179.5810  143.3740 C   0  0  0  0  0  2  0  0  0  0  0  0
  186.4440  178.4810  146.4680 C   0  0  0  0  0  3  0  0  0  0  0  0
  184.8690  178.2280  140.1670 C   0  0  0  0  0  0  0  0  0  0  0  0
  187.1490  178.7630  141.9650 C   0  0  0  0  0  2  0  0  0  0  0  0
  184.7380  179.3430  144.8650 C   0  0  0  0  0  2  0  0  0  0  0  0
  184.1160  178.3460  141.2230 C   0  0  0  0  0  0  0  0  0  0  0  0
  185.7300  178.1160  139.1970 C   0  0  0  0  0  0  0  0  0  0  0  0
  188.1140  177.6200  148.4500 Cl  0  0  0  0  0  0  0  0  0  0  0  0
  188.1660  176.9100  145.8140 C   0  0  0  0  0  3  0  0  0  0  0  0
  184.7080  178.2790  142.6090 C   0  0  1  0  0  3  0  0  0  0  0  0
  187.7450  178.0570  140.7510 C   0  0  0  0  0  2  0  0  0  0  0  0
  188.0920  178.3690  138.2520 C   0  0  1  0  0  3  0  0  0  0  0  0
  188.9840  179.4370  138.1430 O   0  0  0  0  0  1  0  0  0  0  0  0
  188.8590  177.0540  138.3630 C   0  0  0  0  0  2  0  0  0  0  0  0
  190.1570  176.8680  136.3760 O   0  0  0  0  0  1  0  0  0  0  0  0
  190.2410  177.1770  137.7360 C   0  0  2  0  0  3  0  0  0  0  0  0
  191.2220  176.2310  138.4220 C   0  0  2  0  0  3  0  0  0  0  0  0
  192.6450  176.5330  137.9850 C   0  0  0  0  0  1  0  0  0  0  0  0
  190.9200  174.9090  138.0940 O   0  0  0  0  0  1  0  0  0  0  0  0
  185.2750  177.5230  137.9010 C   0  0  0  0  0  2  0  0  0  0  0  0
  183.9250  177.8050  137.6950 O   0  0  0  0  0  1  0  0  0  0  0  0
  1 19  1  6  0  0  0
  1 18  1  0  0  0  0
  2 16  1  0  0  0  0
  3 13  1  0  0  0  0
  4  9  2  0  0  0  0
  5 11  1  6  0  0  0
  5  7  1  0  0  0  0
  6 15  1  0  0  0  0
  7  2  2  0  0  0  0
  7  4  1  0  0  0  0
  8 12  1  0  0  0  0
  9  6  1  0  0  0  0
 10 13  2  0  0  0  0
 12  4  1  0  0  0  0
 13 17  1  0  0  0  0
 14  1  1  0  0  0  0
 14 10  2  0  0  0  0
 16  6  2  0  0  0  0
 17  5  1  0  0  0  0
 17  8  1  6  0  0  0
 18 11  1  0  0  0  0
 19 20  1  1  0  0  0
 19 21  1  0  0  0  0
 23 22  1  6  0  0  0
 23 21  1  0  0  0  0
 23 24  1  0  0  0  0
 24 25  1  6  0  0  0
 26 24  1  0  0  0  0
 27 14  1  0  0  0  0
 28 27  1  0  0  0  0
M  END
>  <MODEL>
5

>  <REMARK>
 VINA RESULT:      -7.7      3.630      5.755
  Name = 
  5 active torsions:
  status: ('A' for Active; 'I' for Inactive)
    1  A    between atoms: C_1  and  C_2
    2  A    between atoms: C_2  and  C_3
    3  A    between atoms: C_3  and  C_11
    4  A    between atoms: C_6  and  C_11
    5  A    between atoms: C_19  and  C_21
                            x       y       z     vdW  Elec       q    Type
                         _______ _______ _______ _____ _____    ______ ____

>  <TORSDO>
F 5

$$$$
=
 OpenBabel10272401553D

 28 30  0  0  1  0  0  0  0  0999 V2000
  185.9870  178.5740  143.8640 C   0  0  1  0  0  3  0  0  0  0  0  0
  189.7420  176.5390  140.6480 C   0  0  0  0  0  3  0  0  0  0  0  0
  189.5440  177.6380  146.7760 O   0  0  0  0  0  1  0  0  0  0  0  0
  191.4210  177.7550  141.9220 C   0  0  0  0  0  0  0  0  0  0  0  0
  189.1210  177.3390  142.9360 C   0  0  2  0  0  3  0  0  0  0  0  0
  191.9070  176.9920  139.6710 C   0  0  0  0  0  0  0  0  0  0  0  0
  190.1280  177.1850  141.8290 C   0  0  0  0  0  0  0  0  0  0  0  0
  190.8170  178.7210  144.1870 C   0  0  0  0  0  2  0  0  0  0  0  0
  192.3040  177.6400  140.8440 C   0  0  0  0  0  3  0  0  0  0  0  0
  187.6750  177.7740  145.4030 C   0  0  0  0  0  0  0  0  0  0  0  0
  188.1660  178.4840  142.5800 C   0  0  0  0  0  2  0  0  0  0  0  0
  191.9300  178.3750  143.1970 C   0  0  0  0  0  2  0  0  0  0  0  0
  188.9680  177.6640  145.5130 C   0  0  0  0  0  0  0  0  0  0  0  0
  186.4020  177.9000  145.1570 C   0  0  0  0  0  0  0  0  0  0  0  0
  193.0200  176.8630  138.3250 Cl  0  0  0  0  0  0  0  0  0  0  0  0
  190.6290  176.4400  139.5740 C   0  0  0  0  0  3  0  0  0  0  0  0
  189.8440  177.5530  144.2900 C   0  0  1  0  0  3  0  0  0  0  0  0
  186.7170  178.0090  142.6340 C   0  0  0  0  0  2  0  0  0  0  0  0
  184.4690  178.6220  143.6490 C   0  0  1  0  0  3  0  0  0  0  0  0
  184.0140  179.9380  143.7600 O   0  0  0  0  0  1  0  0  0  0  0  0
  184.0550  178.0380  142.3020 C   0  0  0  0  0  2  0  0  0  0  0  0
  181.8260  178.5590  141.6480 O   0  0  0  0  0  1  0  0  0  0  0  0
  183.1480  179.0000  141.5470 C   0  0  2  0  0  3  0  0  0  0  0  0
  183.5580  179.0760  140.0790 C   0  0  2  0  0  3  0  0  0  0  0  0
  183.4700  177.7050  139.4310 C   0  0  0  0  0  1  0  0  0  0  0  0
  184.8700  179.5410  139.9730 O   0  0  0  0  0  1  0  0  0  0  0  0
  185.4240  177.3760  146.1600 C   0  0  0  0  0  2  0  0  0  0  0  0
  184.9750  178.4130  146.9770 O   0  0  0  0  0  1  0  0  0  0  0  0
  1 19  1  6  0  0  0
  1 14  1  0  0  0  0
  2  7  1  0  0  0  0
  4 12  1  0  0  0  0
  5 11  1  6  0  0  0
  5 17  1  0  0  0  0
  6  9  2  0  0  0  0
  7  4  2  0  0  0  0
  7  5  1  0  0  0  0
  9  4  1  0  0  0  0
 10 13  2  0  0  0  0
 11 18  1  0  0  0  0
 12  8  1  0  0  0  0
 13  3  1  0  0  0  0
 14 10  2  0  0  0  0
 14 27  1  0  0  0  0
 15  6  1  0  0  0  0
 16  6  1  0  0  0  0
 16  2  2  0  0  0  0
 17  8  1  6  0  0  0
 17 13  1  0  0  0  0
 18  1  1  0  0  0  0
 19 20  1  6  0  0  0
 21 19  1  0  0  0  0
 23 22  1  6  0  0  0
 23 21  1  0  0  0  0
 24 25  1  1  0  0  0
 24 23  1  0  0  0  0
 26 24  1  0  0  0  0
 27 28  1  0  0  0  0
M  END
>  <MODEL>
6

>  <REMARK>
 VINA RESULT:      -7.6      3.867      6.834
  Name = 
  5 active torsions:
  status: ('A' for Active; 'I' for Inactive)
    1  A    between atoms: C_1  and  C_2
    2  A    between atoms: C_2  and  C_3
    3  A    between atoms: C_3  and  C_11
    4  A    between atoms: C_6  and  C_11
    5  A    between atoms: C_19  and  C_21
                            x       y       z     vdW  Elec       q    Type
                         _______ _______ _______ _____ _____    ______ ____

>  <TORSDO>
F 5

$$$$
=
 OpenBabel10272401553D

 28 30  0  0  1  0  0  0  0  0999 V2000
  186.9900  178.5720  142.6550 C   0  0  1  0  0  3  0  0  0  0  0  0
  190.4590  176.0110  145.8150 C   0  0  0  0  0  3  0  0  0  0  0  0
  184.7470  178.3070  146.7670 O   0  0  0  0  0  1  0  0  0  0  0  0
  189.8150  177.4900  147.6370 C   0  0  0  0  0  0  0  0  0  0  0  0
  188.2880  177.2400  145.6120 C   0  0  2  0  0  3  0  0  0  0  0  0
  191.9290  176.3030  147.7140 C   0  0  0  0  0  0  0  0  0  0  0  0
  189.5290  176.8880  146.3870 C   0  0  0  0  0  0  0  0  0  0  0  0
  187.7010  178.8760  147.4360 C   0  0  0  0  0  2  0  0  0  0  0  0
  191.0090  177.1800  148.2950 C   0  0  0  0  0  3  0  0  0  0  0  0
  185.7070  178.1300  144.6580 C   0  0  0  0  0  0  0  0  0  0  0  0
  188.6530  178.2710  144.5380 C   0  0  0  0  0  2  0  0  0  0  0  0
  188.8140  178.3620  148.3490 C   0  0  0  0  0  2  0  0  0  0  0  0
  185.8460  178.0690  145.9510 C   0  0  0  0  0  0  0  0  0  0  0  0
  185.7050  178.1790  143.3570 C   0  0  0  0  0  0  0  0  0  0  0  0
  193.4240  175.9290  148.5440 Cl  0  0  0  0  0  0  0  0  0  0  0  0
  191.6530  175.7170  146.4770 C   0  0  0  0  0  3  0  0  0  0  0  0
  187.1780  177.7340  146.5740 C   0  0  1  0  0  3  0  0  0  0  0  0
  188.2120  177.7880  143.1600 C   0  0  0  0  0  2  0  0  0  0  0  0
  186.8940  178.5470  141.1230 C   0  0  1  0  0  3  0  0  0  0  0  0
  186.0040  179.5310  140.6860 O   0  0  0  0  0  1  0  0  0  0  0  0
  188.2520  178.7340  140.4540 C   0  0  0  0  0  2  0  0  0  0  0  0
  189.8110  177.7490  138.9480 O   0  0  0  0  0  1  0  0  0  0  0  0
  188.4950  177.6550  139.4070 C   0  0  2  0  0  3  0  0  0  0  0  0
  187.5260  177.8200  138.2400 C   0  0  2  0  0  3  0  0  0  0  0  0
  187.5470  176.5860  137.3540 C   0  0  0  0  0  1  0  0  0  0  0  0
  187.8850  178.9310  137.4740 O   0  0  0  0  0  1  0  0  0  0  0  0
  184.4420  177.8460  142.6300 C   0  0  0  0  0  2  0  0  0  0  0  0
  183.4000  178.6510  143.0880 O   0  0  0  0  0  1  0  0  0  0  0  0
  1 19  1  6  0  0  0
  1 18  1  0  0  0  0
  1 14  1  0  0  0  0
  2  7  2  0  0  0  0
  2 16  1  0  0  0  0
  4  9  2  0  0  0  0
  4 12  1  0  0  0  0
  5 11  1  6  0  0  0
  5  7  1  0  0  0  0
  5 17  1  0  0  0  0
  6  9  1  0  0  0  0
  6 15  1  0  0  0  0
  7  4  1  0  0  0  0
  8 12  1  0  0  0  0
 10 13  2  0  0  0  0
 13 17  1  0  0  0  0
 13  3  1  0  0  0  0
 14 10  2  0  0  0  0
 16  6  2  0  0  0  0
 17  8  1  6  0  0  0
 18 11  1  0  0  0  0
 19 20  1  6  0  0  0
 21 19  1  0  0  0  0
 23 22  1  6  0  0  0
 23 21  1  0  0  0  0
 24 25  1  6  0  0  0
 24 23  1  0  0  0  0
 26 24  1  0  0  0  0
 27 28  1  0  0  0  0
 27 14  1  0  0  0  0
M  END
>  <MODEL>
7

>  <REMARK>
 VINA RESULT:      -7.1      3.730      5.967
  Name = 
  5 active torsions:
  status: ('A' for Active; 'I' for Inactive)
    1  A    between atoms: C_1  and  C_2
    2  A    between atoms: C_2  and  C_3
    3  A    between atoms: C_3  and  C_11
    4  A    between atoms: C_6  and  C_11
    5  A    between atoms: C_19  and  C_21
                            x       y       z     vdW  Elec       q    Type
                         _______ _______ _______ _____ _____    ______ ____

>  <TORSDO>
F 5

$$$$
=
 OpenBabel10272401553D

 28 30  0  0  1  0  0  0  0  0999 V2000
  188.2660  176.9330  144.0310 C   0  0  1  0  0  3  0  0  0  0  0  0
  184.5480  179.2260  140.9490 C   0  0  0  0  0  3  0  0  0  0  0  0
  185.6200  179.3190  147.0850 O   0  0  0  0  0  1  0  0  0  0  0  0
  182.9010  178.7670  142.6800 C   0  0  0  0  0  0  0  0  0  0  0  0
  185.3820  178.7480  143.2600 C   0  0  2  0  0  3  0  0  0  0  0  0
  182.1940  179.1810  140.3960 C   0  0  0  0  0  0  0  0  0  0  0  0
  184.2500  178.9460  142.2880 C   0  0  0  0  0  0  0  0  0  0  0  0
  183.6760  178.1310  145.0090 C   0  0  0  0  0  2  0  0  0  0  0  0
  181.8830  178.9000  141.7300 C   0  0  0  0  0  3  0  0  0  0  0  0
  187.1210  178.4310  145.5490 C   0  0  0  0  0  0  0  0  0  0  0  0
  185.9670  177.3460  143.0580 C   0  0  0  0  0  2  0  0  0  0  0  0
  182.5090  178.5610  144.1200 C   0  0  0  0  0  2  0  0  0  0  0  0
  185.9320  178.8980  145.7980 C   0  0  0  0  0  0  0  0  0  0  0  0
  188.2630  177.9290  145.1750 C   0  0  0  0  0  0  0  0  0  0  0  0
  180.9110  179.3380  139.2150 Cl  0  0  0  0  0  0  0  0  0  0  0  0
  183.5240  179.3470  140.0070 C   0  0  0  0  0  3  0  0  0  0  0  0
  184.8930  178.9980  144.7080 C   0  0  1  0  0  3  0  0  0  0  0  0
  187.4700  177.4230  142.8100 C   0  0  0  0  0  2  0  0  0  0  0  0
  189.6660  176.4460  143.6370 C   0  0  1  0  0  3  0  0  0  0  0  0
  189.5790  175.1950  143.0210 O   0  0  0  0  0  1  0  0  0  0  0  0
  190.3870  177.4300  142.7200 C   0  0  0  0  0  2  0  0  0  0  0  0
  192.2430  177.2940  141.2360 O   0  0  0  0  0  1  0  0  0  0  0  0
  191.0070  176.7110  141.5300 C   0  0  2  0  0  3  0  0  0  0  0  0
  190.0890  176.8030  140.3160 C   0  0  2  0  0  3  0  0  0  0  0  0
  190.8400  176.4240  139.0520 C   0  0  0  0  0  1  0  0  0  0  0  0
  189.6060  178.1060  140.1790 O   0  0  0  0  0  1  0  0  0  0  0  0
  189.5030  178.3600  145.8900 C   0  0  0  0  0  2  0  0  0  0  0  0
  189.6300  177.6620  147.0900 O   0  0  0  0  0  1  0  0  0  0  0  0
  1 19  1  6  0  0  0
  1 14  1  0  0  0  0
  2  7  1  0  0  0  0
  4 12  1  0  0  0  0
  5 11  1  1  0  0  0
  5 17  1  0  0  0  0
  6  9  2  0  0  0  0
  7  4  2  0  0  0  0
  7  5  1  0  0  0  0
  9  4  1  0  0  0  0
 10 13  2  0  0  0  0
 12  8  1  0  0  0  0
 13  3  1  0  0  0  0
 14 10  2  0  0  0  0
 14 27  1  0  0  0  0
 15  6  1  0  0  0  0
 16  6  1  0  0  0  0
 16  2  2  0  0  0  0
 17  8  1  1  0  0  0
 17 13  1  0  0  0  0
 18 11  1  0  0  0  0
 18  1  1  0  0  0  0
 19 20  1  6  0  0  0
 21 19  1  0  0  0  0
 23 22  1  6  0  0  0
 23 21  1  0  0  0  0
 24 25  1  6  0  0  0
 24 23  1  0  0  0  0
 26 24  1  0  0  0  0
 27 28  1  0  0  0  0
M  END
>  <MODEL>
8

>  <REMARK>
 VINA RESULT:      -7.0      1.643      2.331
  Name = 
  5 active torsions:
  status: ('A' for Active; 'I' for Inactive)
    1  A    between atoms: C_1  and  C_2
    2  A    between atoms: C_2  and  C_3
    3  A    between atoms: C_3  and  C_11
    4  A    between atoms: C_6  and  C_11
    5  A    between atoms: C_19  and  C_21
                            x       y       z     vdW  Elec       q    Type
                         _______ _______ _______ _____ _____    ______ ____

>  <TORSDO>
F 5

$$$$
=
 OpenBabel10272401553D

 28 30  0  0  1  0  0  0  0  0999 V2000
  187.5760  177.4160  146.0900 C   0  0  1  0  0  3  0  0  0  0  0  0
  187.9920  178.7890  140.9390 C   0  0  0  0  0  3  0  0  0  0  0  0
  183.4910  179.5380  145.1810 O   0  0  0  0  0  1  0  0  0  0  0  0
  185.6530  178.1870  140.6420 C   0  0  0  0  0  0  0  0  0  0  0  0
  186.5530  178.6410  142.9810 C   0  0  2  0  0  3  0  0  0  0  0  0
  187.1420  178.2960  138.7290 C   0  0  0  0  0  0  0  0  0  0  0  0
  186.7230  178.5650  141.4880 C   0  0  0  0  0  0  0  0  0  0  0  0
  184.1710  177.8770  142.6760 C   0  0  0  0  0  2  0  0  0  0  0  0
  185.8710  178.0690  139.2650 C   0  0  0  0  0  3  0  0  0  0  0  0
  185.6310  178.8070  145.7180 C   0  0  0  0  0  0  0  0  0  0  0  0
  187.0910  177.3490  143.6070 C   0  0  0  0  0  2  0  0  0  0  0  0
  184.2460  178.0290  141.1570 C   0  0  0  0  0  2  0  0  0  0  0  0
  184.7470  179.0790  144.8020 C   0  0  0  0  0  0  0  0  0  0  0  0
  186.5930  178.4820  146.5330 C   0  0  0  0  0  0  0  0  0  0  0  0
  187.4030  178.1370  137.0060 Cl  0  0  0  0  0  0  0  0  0  0  0  0
  188.2000  178.6580  139.5640 C   0  0  0  0  0  3  0  0  0  0  0  0
  185.0700  178.9140  143.3380 C   0  0  1  0  0  3  0  0  0  0  0  0
  188.1310  177.6650  144.6770 C   0  0  0  0  0  2  0  0  0  0  0  0
  188.6990  177.1480  147.1000 C   0  0  1  0  0  3  0  0  0  0  0  0
  188.7790  175.7800  147.3710 O   0  0  0  0  0  1  0  0  0  0  0  0
  190.0510  177.6660  146.6170 C   0  0  0  0  0  2  0  0  0  0  0  0
  192.0080  176.5570  147.3940 O   0  0  0  0  0  1  0  0  0  0  0  0
  191.0270  176.5180  146.4000 C   0  0  2  0  0  3  0  0  0  0  0  0
  191.6780  176.6260  145.0250 C   0  0  2  0  0  3  0  0  0  0  0  0
  191.6070  178.0540  144.5140 C   0  0  0  0  0  1  0  0  0  0  0  0
  191.0220  175.7900  144.1190 O   0  0  0  0  0  1  0  0  0  0  0  0
  186.6750  179.1740  147.8560 C   0  0  0  0  0  2  0  0  0  0  0  0
  185.9820  180.3830  147.8060 O   0  0  0  0  0  1  0  0  0  0  0  0
  1 14  1  0  0  0  0
  1 19  1  1  0  0  0
  2  7  1  0  0  0  0
  4 12  1  0  0  0  0
  4  7  2  0  0  0  0
  5 17  1  0  0  0  0
  5 11  1  1  0  0  0
  6  9  2  0  0  0  0
  6 16  1  0  0  0  0
  7  5  1  0  0  0  0
  9  4  1  0  0  0  0
 10 14  2  0  0  0  0
 11 18  1  0  0  0  0
 12  8  1  0  0  0  0
 13  3  1  0  0  0  0
 13 10  2  0  0  0  0
 14 27  1  0  0  0  0
 15  6  1  0  0  0  0
 16  2  2  0  0  0  0
 17  8  1  1  0  0  0
 17 13  1  0  0  0  0
 18  1  1  0  0  0  0
 19 20  1  6  0  0  0
 21 19  1  0  0  0  0
 23 21  1  0  0  0  0
 23 22  1  1  0  0  0
 24 25  1  6  0  0  0
 24 23  1  0  0  0  0
 26 24  1  0  0  0  0
 28 27  1  0  0  0  0
M  END
>  <MODEL>
9

>  <REMARK>
 VINA RESULT:      -6.8      2.712      5.054
  Name = 
  5 active torsions:
  status: ('A' for Active; 'I' for Inactive)
    1  A    between atoms: C_1  and  C_2
    2  A    between atoms: C_2  and  C_3
    3  A    between atoms: C_3  and  C_11
    4  A    between atoms: C_6  and  C_11
    5  A    between atoms: C_19  and  C_21
                            x       y       z     vdW  Elec       q    Type
                         _______ _______ _______ _____ _____    ______ ____

>  <TORSDO>
F 5

$$$$
