=
 OpenBabel10272401013D

 27 31  0  0  1  0  0  0  0  0999 V2000
  188.9360  176.8470  140.9380 C   0  0  2  0  0  3  0  0  0  0  0  0
  188.0140  178.5880  142.9720 C   0  0  2  0  0  3  0  0  0  0  0  0
  188.1480  178.0700  140.4300 C   0  0  1  0  0  3  0  0  0  0  0  0
  183.8090  178.0370  142.3590 C   0  0  0  0  0  3  0  0  0  0  0  0
  181.7620  178.3940  141.0770 N   0  0  0  0  0  1  0  0  0  0  0  0
  187.3040  177.4000  143.6240 C   0  0  0  0  0  2  0  0  0  0  0  0
  191.6800  176.7040  144.6370 O   0  0  0  0  0  0  0  0  0  0  0  0
  185.3060  179.2260  140.3220 C   0  0  0  0  0  3  0  0  0  0  0  0
  189.9660  177.1810  142.0360 C   0  0  1  0  0  3  0  0  0  0  0  0
  189.1280  179.5150  137.2560 O   0  0  0  0  0  1  0  0  0  0  0  0
  190.1510  178.5010  144.3230 C   0  0  0  0  0  2  0  0  0  0  0  0
  183.9210  179.1090  140.1920 C   0  0  0  0  0  3  0  0  0  0  0  0
  190.1340  176.7770  136.8410 F   0  0  0  0  0  0  0  0  0  0  0  0
  187.4600  178.8620  141.5570 C   0  0  1  0  0  3  0  0  0  0  0  0
  189.5310  178.3820  142.9240 C   0  0  2  0  0  3  0  0  0  0  0  0
  183.1730  178.5100  141.2080 C   0  0  0  0  0  0  0  0  0  0  0  0
  185.1970  178.1410  142.4930 C   0  0  0  0  0  0  0  0  0  0  0  0
  189.5320  176.0000  139.8070 C   0  0  0  0  0  2  0  0  0  0  0  0
  185.9570  178.7470  141.4670 C   0  0  0  0  0  0  0  0  0  0  0  0
  189.0960  178.4610  138.1670 C   0  0  1  0  0  3  0  0  0  0  0  0
  185.8230  177.7080  143.7860 C   0  0  0  0  0  2  0  0  0  0  0  0
  190.3250  177.5700  137.9560 C   0  0  1  0  0  3  0  0  0  0  0  0
  191.6110  178.0740  144.3570 C   0  0  0  0  0  2  0  0  0  0  0  0
  190.7210  176.6970  139.1490 C   0  0  0  0  0  2  0  0  0  0  0  0
  191.7230  176.0510  143.3990 C   0  0  0  0  0  2  0  0  0  0  0  0
  188.9900  179.0150  139.5800 C   0  0  0  0  0  2  0  0  0  0  0  0
  190.3200  175.9180  142.8180 C   0  0  0  0  0  2  0  0  0  0  0  0
  1 18  1  6  0  0  0
  1  9  1  0  0  0  0
  2  6  1  6  0  0  0
  3 26  1  1  0  0  0
  3  1  1  0  0  0  0
  3 14  1  0  0  0  0
  4 17  1  0  0  0  0
  5 16  1  0  0  0  0
  6 21  1  0  0  0  0
  8 19  1  0  0  0  0
  9 27  1  1  0  0  0
  9 15  1  0  0  0  0
 11 23  1  0  0  0  0
 12  8  2  0  0  0  0
 12 16  1  0  0  0  0
 14 19  1  1  0  0  0
 14  2  1  0  0  0  0
 15  2  1  0  0  0  0
 15 11  1  1  0  0  0
 16  4  2  0  0  0  0
 17 21  1  0  0  0  0
 19 17  2  0  0  0  0
 20 10  1  6  0  0  0
 20 26  1  0  0  0  0
 22 13  1  6  0  0  0
 22 20  1  0  0  0  0
 22 24  1  0  0  0  0
 23  7  1  0  0  0  0
 24 18  1  0  0  0  0
 25  7  1  0  0  0  0
 27 25  1  0  0  0  0
M  END
>  <MODEL>
1

>  <REMARK>
 VINA RESULT:      -7.4      0.000      0.000
  Name = 
  0 active torsions:
  status: ('A' for Active; 'I' for Inactive)
                            x       y       z     vdW  Elec       q    Type
                         _______ _______ _______ _____ _____    ______ ____

>  <TORSDO>
F 0

$$$$
=
 OpenBabel10272401013D

 27 31  0  0  1  0  0  0  0  0999 V2000
  189.1400  176.2760  138.2570 C   0  0  2  0  0  3  0  0  0  0  0  0
  190.5900  177.4760  140.3730 C   0  0  2  0  0  3  0  0  0  0  0  0
  188.5500  177.6060  138.7680 C   0  0  1  0  0  3  0  0  0  0  0  0
  187.5660  177.1920  143.3960 C   0  0  0  0  0  3  0  0  0  0  0  0
  185.4540  177.9040  144.3920 N   0  0  0  0  0  1  0  0  0  0  0  0
  190.4380  176.1800  141.1700 C   0  0  0  0  0  2  0  0  0  0  0  0
  193.6050  175.1540  138.0760 O   0  0  0  0  0  0  0  0  0  0  0  0
  187.0800  178.8170  141.1750 C   0  0  0  0  0  3  0  0  0  0  0  0
  190.6710  176.3030  138.0740 C   0  0  1  0  0  3  0  0  0  0  0  0
  186.9260  179.7740  136.3640 O   0  0  0  0  0  1  0  0  0  0  0  0
  192.8670  177.0060  139.3750 C   0  0  0  0  0  2  0  0  0  0  0  0
  186.1540  178.7670  142.2200 C   0  0  0  0  0  3  0  0  0  0  0  0
  186.5850  177.2030  134.9640 F   0  0  0  0  0  0  0  0  0  0  0  0
  189.2140  178.1070  140.0640 C   0  0  1  0  0  3  0  0  0  0  0  0
  191.3810  177.2540  139.0810 C   0  0  2  0  0  3  0  0  0  0  0  0
  186.3950  177.9510  143.3270 C   0  0  0  0  0  0  0  0  0  0  0  0
  188.4930  177.2270  142.3490 C   0  0  0  0  0  0  0  0  0  0  0  0
  188.4080  175.7250  137.0270 C   0  0  0  0  0  2  0  0  0  0  0  0
  188.2530  178.0530  141.2280 C   0  0  0  0  0  0  0  0  0  0  0  0
  187.3970  178.5260  136.7700 C   0  0  1  0  0  3  0  0  0  0  0  0
  189.7790  176.4720  142.5100 C   0  0  0  0  0  2  0  0  0  0  0  0
  187.7460  177.6890  135.5350 C   0  0  1  0  0  3  0  0  0  0  0  0
  193.6420  176.5510  138.1470 C   0  0  0  0  0  2  0  0  0  0  0  0
  188.7250  176.5370  135.7730 C   0  0  0  0  0  2  0  0  0  0  0  0
  192.5130  174.8290  137.2630 C   0  0  0  0  0  2  0  0  0  0  0  0
  188.5710  178.7130  137.7210 C   0  0  0  0  0  2  0  0  0  0  0  0
  191.2180  174.8770  138.0650 C   0  0  0  0  0  2  0  0  0  0  0  0
  1 18  1  6  0  0  0
  1  3  1  0  0  0  0
  2  6  1  6  0  0  0
  3 26  1  6  0  0  0
  3 14  1  0  0  0  0
  6 21  1  0  0  0  0
  7 23  1  0  0  0  0
  8 19  2  0  0  0  0
  8 12  1  0  0  0  0
  9 27  1  1  0  0  0
  9  1  1  0  0  0  0
  9 15  1  0  0  0  0
 12 16  2  0  0  0  0
 14  2  1  0  0  0  0
 14 19  1  1  0  0  0
 15 11  1  1  0  0  0
 15  2  1  0  0  0  0
 16  4  1  0  0  0  0
 16  5  1  0  0  0  0
 17 21  1  0  0  0  0
 17  4  2  0  0  0  0
 19 17  1  0  0  0  0
 20 10  1  6  0  0  0
 20 26  1  0  0  0  0
 22 13  1  1  0  0  0
 22 24  1  0  0  0  0
 22 20  1  0  0  0  0
 23 11  1  0  0  0  0
 24 18  1  0  0  0  0
 25 27  1  0  0  0  0
 25  7  1  0  0  0  0
M  END
>  <MODEL>
2

>  <REMARK>
 VINA RESULT:      -7.1      2.479      4.085
  Name = 
  0 active torsions:
  status: ('A' for Active; 'I' for Inactive)
                            x       y       z     vdW  Elec       q    Type
                         _______ _______ _______ _____ _____    ______ ____

>  <TORSDO>
F 0

$$$$
=
 OpenBabel10272401013D

 27 31  0  0  1  0  0  0  0  0999 V2000
  186.6340  177.2290  143.7160 C   0  0  2  0  0  3  0  0  0  0  0  0
  184.9240  179.3780  144.4040 C   0  0  2  0  0  3  0  0  0  0  0  0
  186.3550  178.2220  142.5700 C   0  0  1  0  0  3  0  0  0  0  0  0
  181.6770  178.4130  141.7790 C   0  0  0  0  0  3  0  0  0  0  0  0
  180.6810  178.2880  139.5540 N   0  0  0  0  0  1  0  0  0  0  0  0
  183.8720  178.3590  144.8460 C   0  0  0  0  0  2  0  0  0  0  0  0
  186.9360  178.2380  148.2010 O   0  0  0  0  0  0  0  0  0  0  0  0
  184.1340  179.1230  140.6530 C   0  0  0  0  0  3  0  0  0  0  0  0
  186.9380  177.9050  145.0670 C   0  0  1  0  0  3  0  0  0  0  0  0
  189.0120  178.8470  140.1880 O   0  0  0  0  0  1  0  0  0  0  0  0
  185.9820  179.7860  146.6660 C   0  0  0  0  0  2  0  0  0  0  0  0
  183.0310  178.8850  139.8300 C   0  0  0  0  0  3  0  0  0  0  0  0
  189.8340  176.1670  141.0960 F   0  0  0  0  0  0  0  0  0  0  0  0
  185.2440  179.2350  142.9000 C   0  0  1  0  0  3  0  0  0  0  0  0
  186.2030  179.2660  145.2390 C   0  0  2  0  0  3  0  0  0  0  0  0
  181.8050  178.5260  140.3920 C   0  0  0  0  0  0  0  0  0  0  0  0
  182.7790  178.6390  142.6110 C   0  0  0  0  0  0  0  0  0  0  0  0
  187.6660  176.1560  143.3460 C   0  0  0  0  0  2  0  0  0  0  0  0
  184.0210  179.0040  142.0450 C   0  0  0  0  0  0  0  0  0  0  0  0
  188.4010  178.0680  141.1700 C   0  0  1  0  0  3  0  0  0  0  0  0
  182.5700  178.6010  144.0960 C   0  0  0  0  0  2  0  0  0  0  0  0
  189.4660  177.2360  141.8920 C   0  0  1  0  0  3  0  0  0  0  0  0
  187.1500  179.4800  147.5910 C   0  0  0  0  0  2  0  0  0  0  0  0
  189.0790  176.7330  143.2840 C   0  0  0  0  0  2  0  0  0  0  0  0
  187.5780  177.2880  147.3980 C   0  0  0  0  0  2  0  0  0  0  0  0
  187.6030  178.9650  142.1040 C   0  0  0  0  0  2  0  0  0  0  0  0
  186.7020  176.9160  146.2070 C   0  0  0  0  0  2  0  0  0  0  0  0
  1 18  1  6  0  0  0
  1  9  1  0  0  0  0
  2  6  1  1  0  0  0
  2 15  1  0  0  0  0
  3 26  1  1  0  0  0
  3 14  1  0  0  0  0
  3  1  1  0  0  0  0
  4 17  1  0  0  0  0
  5 16  1  0  0  0  0
  8 19  1  0  0  0  0
  9 15  1  0  0  0  0
  9 27  1  1  0  0  0
 11 23  1  0  0  0  0
 12 16  1  0  0  0  0
 12  8  2  0  0  0  0
 14 19  1  6  0  0  0
 14  2  1  0  0  0  0
 15 11  1  1  0  0  0
 16  4  2  0  0  0  0
 17 21  1  0  0  0  0
 19 17  2  0  0  0  0
 20 10  1  6  0  0  0
 20 22  1  0  0  0  0
 20 26  1  0  0  0  0
 21  6  1  0  0  0  0
 22 13  1  6  0  0  0
 22 24  1  0  0  0  0
 23  7  1  0  0  0  0
 24 18  1  0  0  0  0
 25  7  1  0  0  0  0
 27 25  1  0  0  0  0
M  END
>  <MODEL>
3

>  <REMARK>
 VINA RESULT:      -7.0      2.443      3.742
  Name = 
  0 active torsions:
  status: ('A' for Active; 'I' for Inactive)
                            x       y       z     vdW  Elec       q    Type
                         _______ _______ _______ _____ _____    ______ ____

>  <TORSDO>
F 0

$$$$
=
 OpenBabel10272401013D

 27 31  0  0  1  0  0  0  0  0999 V2000
  187.6120  178.5710  142.6200 C   0  0  2  0  0  3  0  0  0  0  0  0
  185.4600  177.6660  144.2230 C   0  0  2  0  0  3  0  0  0  0  0  0
  187.9760  177.4480  143.6120 C   0  0  1  0  0  3  0  0  0  0  0  0
  187.0010  178.8970  148.0280 C   0  0  0  0  0  3  0  0  0  0  0  0
  188.5470  178.6470  149.9010 N   0  0  0  0  0  1  0  0  0  0  0  0
  185.2470  179.1060  144.6950 C   0  0  0  0  0  2  0  0  0  0  0  0
  183.5740  179.1190  140.4700 O   0  0  0  0  0  0  0  0  0  0  0  0
  188.3790  176.9230  146.6090 C   0  0  0  0  0  3  0  0  0  0  0  0
  186.2850  178.3340  141.8700 C   0  0  1  0  0  3  0  0  0  0  0  0
  190.4820  175.0380  142.5960 O   0  0  0  0  0  1  0  0  0  0  0  0
  183.7690  177.6630  142.3420 C   0  0  0  0  0  2  0  0  0  0  0  0
  188.8030  177.2880  147.8890 C   0  0  0  0  0  3  0  0  0  0  0  0
  191.2990  177.2950  140.8860 F   0  0  0  0  0  0  0  0  0  0  0  0
  186.8580  177.1470  144.6270 C   0  0  1  0  0  3  0  0  0  0  0  0
  185.2520  177.5310  142.7120 C   0  0  2  0  0  3  0  0  0  0  0  0
  188.1170  178.2780  148.5960 C   0  0  0  0  0  0  0  0  0  0  0  0
  186.5750  178.5460  146.7430 C   0  0  0  0  0  0  0  0  0  0  0  0
  188.7650  178.9420  141.6790 C   0  0  0  0  0  2  0  0  0  0  0  0
  187.2660  177.5440  146.0250 C   0  0  0  0  0  0  0  0  0  0  0  0
  189.8580  176.2800  142.4880 C   0  0  1  0  0  3  0  0  0  0  0  0
  185.3160  179.1670  146.2140 C   0  0  0  0  0  2  0  0  0  0  0  0
  190.0180  176.8060  141.0570 C   0  0  1  0  0  3  0  0  0  0  0  0
  183.5440  177.7690  140.8410 C   0  0  0  0  0  2  0  0  0  0  0  0
  188.9990  177.8630  140.6240 C   0  0  0  0  0  2  0  0  0  0  0  0
  184.8940  179.3940  140.0930 C   0  0  0  0  0  2  0  0  0  0  0  0
  188.4060  176.1570  142.9250 C   0  0  0  0  0  2  0  0  0  0  0  0
  185.7560  179.6570  141.3220 C   0  0  0  0  0  2  0  0  0  0  0  0
  1 18  1  6  0  0  0
  1  3  1  0  0  0  0
  2 14  1  0  0  0  0
  2  6  1  6  0  0  0
  3 26  1  6  0  0  0
  3 14  1  0  0  0  0
  4 16  1  0  0  0  0
  6 21  1  0  0  0  0
  7 23  1  0  0  0  0
  8 12  1  0  0  0  0
  9 27  1  1  0  0  0
  9  1  1  0  0  0  0
  9 15  1  0  0  0  0
 12 16  2  0  0  0  0
 14 19  1  1  0  0  0
 15 11  1  1  0  0  0
 15  2  1  0  0  0  0
 16  5  1  0  0  0  0
 17  4  2  0  0  0  0
 19  8  2  0  0  0  0
 19 17  1  0  0  0  0
 20 10  1  6  0  0  0
 20 26  1  0  0  0  0
 21 17  1  0  0  0  0
 22 13  1  1  0  0  0
 22 20  1  0  0  0  0
 23 11  1  0  0  0  0
 24 22  1  0  0  0  0
 24 18  1  0  0  0  0
 25  7  1  0  0  0  0
 25 27  1  0  0  0  0
M  END
>  <MODEL>
4

>  <REMARK>
 VINA RESULT:      -6.7      3.339      6.026
  Name = 
  0 active torsions:
  status: ('A' for Active; 'I' for Inactive)
                            x       y       z     vdW  Elec       q    Type
                         _______ _______ _______ _____ _____    ______ ____

>  <TORSDO>
F 0

$$$$
=
 OpenBabel10272401013D

 27 31  0  0  1  0  0  0  0  0999 V2000
  186.9130  177.0660  143.1250 C   0  0  2  0  0  3  0  0  0  0  0  0
  185.0850  179.2200  142.9340 C   0  0  2  0  0  3  0  0  0  0  0  0
  187.0660  177.9290  141.8560 C   0  0  1  0  0  3  0  0  0  0  0  0
  182.9730  177.8960  139.4480 C   0  0  0  0  0  3  0  0  0  0  0  0
  182.8290  177.5160  137.0410 N   0  0  0  0  0  1  0  0  0  0  0  0
  183.9380  178.2190  143.0800 C   0  0  0  0  0  2  0  0  0  0  0  0
  185.6120  178.5330  147.2940 O   0  0  0  0  0  0  0  0  0  0  0  0
  185.6750  178.5620  139.1950 C   0  0  0  0  0  3  0  0  0  0  0  0
  186.7220  177.8850  144.4170 C   0  0  1  0  0  3  0  0  0  0  0  0
  190.3980  178.3900  140.5150 O   0  0  0  0  0  1  0  0  0  0  0  0
  185.2760  179.8880  145.3660 C   0  0  0  0  0  2  0  0  0  0  0  0
  184.9330  178.2090  138.0650 C   0  0  0  0  0  3  0  0  0  0  0  0
  190.8260  175.8430  141.9320 F   0  0  0  0  0  0  0  0  0  0  0  0
  185.9170  178.9360  141.6640 C   0  0  1  0  0  3  0  0  0  0  0  0
  185.9840  179.2330  144.1730 C   0  0  2  0  0  3  0  0  0  0  0  0
  183.5850  177.8710  138.1930 C   0  0  0  0  0  0  0  0  0  0  0  0
  183.7100  178.2380  140.5870 C   0  0  0  0  0  0  0  0  0  0  0  0
  188.0010  175.9930  143.2590 C   0  0  0  0  0  2  0  0  0  0  0  0
  185.0750  178.5820  140.4610 C   0  0  0  0  0  0  0  0  0  0  0  0
  189.4740  177.6960  141.2940 C   0  0  1  0  0  3  0  0  0  0  0  0
  182.9880  178.3450  141.8980 C   0  0  0  0  0  2  0  0  0  0  0  0
  190.2070  176.9740  142.4290 C   0  0  1  0  0  3  0  0  0  0  0  0
  186.0380  179.7120  146.6720 C   0  0  0  0  0  2  0  0  0  0  0  0
  189.3480  176.6040  143.6400 C   0  0  0  0  0  2  0  0  0  0  0  0
  186.4900  177.5270  146.8750 C   0  0  0  0  0  2  0  0  0  0  0  0
  188.4030  178.6590  141.7860 C   0  0  0  0  0  2  0  0  0  0  0  0
  186.0910  177.0100  145.4980 C   0  0  0  0  0  2  0  0  0  0  0  0
  1 18  1  1  0  0  0
  1  9  1  0  0  0  0
  2  6  1  1  0  0  0
  2 15  1  0  0  0  0
  3 26  1  1  0  0  0
  3  1  1  0  0  0  0
  4 17  1  0  0  0  0
  5 16  1  0  0  0  0
  8 19  1  0  0  0  0
  9 27  1  1  0  0  0
 11 23  1  0  0  0  0
 12 16  1  0  0  0  0
 12  8  2  0  0  0  0
 14 19  1  6  0  0  0
 14  3  1  0  0  0  0
 14  2  1  0  0  0  0
 15  9  1  0  0  0  0
 15 11  1  1  0  0  0
 16  4  2  0  0  0  0
 17 21  1  0  0  0  0
 18 24  1  0  0  0  0
 19 17  2  0  0  0  0
 20 10  1  1  0  0  0
 20 26  1  0  0  0  0
 20 22  1  0  0  0  0
 21  6  1  0  0  0  0
 22 13  1  6  0  0  0
 22 24  1  0  0  0  0
 23  7  1  0  0  0  0
 25  7  1  0  0  0  0
 27 25  1  0  0  0  0
M  END
>  <MODEL>
5

>  <REMARK>
 VINA RESULT:      -6.4      2.527      3.975
  Name = 
  0 active torsions:
  status: ('A' for Active; 'I' for Inactive)
                            x       y       z     vdW  Elec       q    Type
                         _______ _______ _______ _____ _____    ______ ____

>  <TORSDO>
F 0

$$$$
=
 OpenBabel10272401013D

 27 31  0  0  1  0  0  0  0  0999 V2000
  186.3650  175.5690  137.0700 C   0  0  2  0  0  3  0  0  0  0  0  0
  187.6930  178.0470  137.4040 C   0  0  2  0  0  3  0  0  0  0  0  0
  185.4320  176.7710  137.3160 C   0  0  1  0  0  3  0  0  0  0  0  0
  186.5510  178.7850  141.4680 C   0  0  0  0  0  3  0  0  0  0  0  0
  184.8980  179.4040  143.1540 N   0  0  0  0  0  1  0  0  0  0  0  0
  188.5040  177.4240  138.5420 C   0  0  0  0  0  2  0  0  0  0  0  0
  190.3780  175.6380  134.8070 O   0  0  0  0  0  0  0  0  0  0  0  0
  184.5550  178.7260  139.5140 C   0  0  0  0  0  3  0  0  0  0  0  0
  187.4940  175.8530  136.0590 C   0  0  1  0  0  3  0  0  0  0  0  0
  182.2020  176.7710  135.6770 O   0  0  0  0  0  1  0  0  0  0  0  0
  189.3580  177.6590  135.5400 C   0  0  0  0  0  2  0  0  0  0  0  0
  184.2310  179.0480  140.8340 C   0  0  0  0  0  3  0  0  0  0  0  0
  182.6860  173.8650  135.7330 F   0  0  0  0  0  0  0  0  0  0  0  0
  186.1830  178.0500  137.7290 C   0  0  1  0  0  3  0  0  0  0  0  0
  187.9550  177.3390  136.0720 C   0  0  2  0  0  3  0  0  0  0  0  0
  185.2280  179.0720  141.8110 C   0  0  0  0  0  0  0  0  0  0  0  0
  186.8840  178.4510  140.1510 C   0  0  0  0  0  0  0  0  0  0  0  0
  185.6080  174.2710  136.7610 C   0  0  0  0  0  2  0  0  0  0  0  0
  185.8770  178.4260  139.1590 C   0  0  0  0  0  0  0  0  0  0  0  0
  183.3370  176.1160  136.1530 C   0  0  1  0  0  3  0  0  0  0  0  0
  188.3300  178.2460  139.8110 C   0  0  0  0  0  2  0  0  0  0  0  0
  183.5720  174.8450  135.3300 C   0  0  1  0  0  3  0  0  0  0  0  0
  189.7450  176.7980  134.3460 C   0  0  0  0  0  2  0  0  0  0  0  0
  185.0000  174.2940  135.3610 C   0  0  0  0  0  2  0  0  0  0  0  0
  189.3770  174.6670  134.9330 C   0  0  0  0  0  2  0  0  0  0  0  0
  184.5190  177.0740  136.1320 C   0  0  0  0  0  2  0  0  0  0  0  0
  188.6250  174.8430  136.2460 C   0  0  0  0  0  2  0  0  0  0  0  0
  1 18  1  6  0  0  0
  1  3  1  0  0  0  0
  2 14  1  0  0  0  0
  2  6  1  1  0  0  0
  3 26  1  6  0  0  0
  3 14  1  0  0  0  0
  4 16  1  0  0  0  0
  6 21  1  0  0  0  0
  7 25  1  0  0  0  0
  8 12  1  0  0  0  0
  9 15  1  0  0  0  0
  9 27  1  1  0  0  0
  9  1  1  0  0  0  0
 12 16  2  0  0  0  0
 14 19  1  1  0  0  0
 15 11  1  1  0  0  0
 15  2  1  0  0  0  0
 16  5  1  0  0  0  0
 17  4  2  0  0  0  0
 19  8  2  0  0  0  0
 19 17  1  0  0  0  0
 20 10  1  6  0  0  0
 21 17  1  0  0  0  0
 22 24  1  0  0  0  0
 22 13  1  1  0  0  0
 22 20  1  0  0  0  0
 23  7  1  0  0  0  0
 23 11  1  0  0  0  0
 24 18  1  0  0  0  0
 25 27  1  0  0  0  0
 26 20  1  0  0  0  0
M  END
>  <MODEL>
6

>  <REMARK>
 VINA RESULT:      -6.0      4.059      6.178
  Name = 
  0 active torsions:
  status: ('A' for Active; 'I' for Inactive)
                            x       y       z     vdW  Elec       q    Type
                         _______ _______ _______ _____ _____    ______ ____

>  <TORSDO>
F 0

$$$$
=
 OpenBabel10272401013D

 27 31  0  0  1  0  0  0  0  0999 V2000
  188.3020  174.8250  137.1410 C   0  0  2  0  0  3  0  0  0  0  0  0
  189.6910  177.2320  137.6830 C   0  0  2  0  0  3  0  0  0  0  0  0
  187.4640  176.1070  136.9580 C   0  0  1  0  0  3  0  0  0  0  0  0
  187.3760  178.5040  141.0570 C   0  0  0  0  0  3  0  0  0  0  0  0
  185.3370  179.4200  142.0380 N   0  0  0  0  0  1  0  0  0  0  0  0
  190.0230  176.6900  139.0740 C   0  0  0  0  0  2  0  0  0  0  0  0
  192.8160  174.3690  136.3420 O   0  0  0  0  0  0  0  0  0  0  0  0
  186.1240  178.3540  138.5640 C   0  0  0  0  0  3  0  0  0  0  0  0
  189.7190  174.9160  136.5420 C   0  0  1  0  0  3  0  0  0  0  0  0
  184.9560  176.1330  134.3460 O   0  0  0  0  0  1  0  0  0  0  0  0
  191.8220  176.5240  136.5180 C   0  0  0  0  0  2  0  0  0  0  0  0
  185.4240  178.8450  139.6680 C   0  0  0  0  0  3  0  0  0  0  0  0
  185.1010  173.2270  134.8100 F   0  0  0  0  0  0  0  0  0  0  0  0
  188.1660  177.3720  137.4860 C   0  0  1  0  0  3  0  0  0  0  0  0
  190.2970  176.3600  136.5790 C   0  0  2  0  0  3  0  0  0  0  0  0
  186.0480  178.9150  140.9150 C   0  0  0  0  0  0  0  0  0  0  0  0
  188.0810  178.0000  139.9590 C   0  0  0  0  0  0  0  0  0  0  0  0
  187.5590  173.5540  136.7110 C   0  0  0  0  0  2  0  0  0  0  0  0
  187.4530  177.9290  138.6950 C   0  0  0  0  0  0  0  0  0  0  0  0
  185.8040  175.4640  135.2270 C   0  0  1  0  0  3  0  0  0  0  0  0
  189.5320  177.6620  140.1380 C   0  0  0  0  0  2  0  0  0  0  0  0
  186.1640  174.0940  134.6420 C   0  0  1  0  0  3  0  0  0  0  0  0
  192.4860  175.5080  135.5990 C   0  0  0  0  0  2  0  0  0  0  0  0
  187.4430  173.4570  135.1920 C   0  0  0  0  0  2  0  0  0  0  0  0
  191.7370  173.4870  136.2120 C   0  0  0  0  0  2  0  0  0  0  0  0
  187.0190  176.3320  135.5180 C   0  0  0  0  0  2  0  0  0  0  0  0
  190.6210  173.8620  137.1800 C   0  0  0  0  0  2  0  0  0  0  0  0
  1 18  1  6  0  0  0
  2  6  1  1  0  0  0
  3 26  1  6  0  0  0
  3  1  1  0  0  0  0
  3 14  1  0  0  0  0
  6 21  1  0  0  0  0
  8 19  2  0  0  0  0
  8 12  1  0  0  0  0
  9 15  1  0  0  0  0
  9  1  1  0  0  0  0
  9 27  1  1  0  0  0
 12 16  2  0  0  0  0
 14  2  1  0  0  0  0
 14 19  1  1  0  0  0
 15 11  1  1  0  0  0
 15  2  1  0  0  0  0
 16  4  1  0  0  0  0
 16  5  1  0  0  0  0
 17 21  1  0  0  0  0
 17  4  2  0  0  0  0
 19 17  1  0  0  0  0
 20 10  1  6  0  0  0
 20 26  1  0  0  0  0
 22 13  1  1  0  0  0
 22 24  1  0  0  0  0
 22 20  1  0  0  0  0
 23  7  1  0  0  0  0
 23 11  1  0  0  0  0
 24 18  1  0  0  0  0
 25  7  1  0  0  0  0
 25 27  1  0  0  0  0
M  END
>  <MODEL>
7

>  <REMARK>
 VINA RESULT:      -6.0      3.701      5.602
  Name = 
  0 active torsions:
  status: ('A' for Active; 'I' for Inactive)
                            x       y       z     vdW  Elec       q    Type
                         _______ _______ _______ _____ _____    ______ ____

>  <TORSDO>
F 0

$$$$
=
 OpenBabel10272401013D

 27 31  0  0  1  0  0  0  0  0999 V2000
  189.4810  174.5440  137.0600 C   0  0  2  0  0  3  0  0  0  0  0  0
  190.8700  176.9170  137.7360 C   0  0  2  0  0  3  0  0  0  0  0  0
  188.6430  175.8340  136.9510 C   0  0  1  0  0  3  0  0  0  0  0  0
  188.5570  177.9950  141.1780 C   0  0  0  0  0  3  0  0  0  0  0  0
  186.5180  178.8540  142.2110 N   0  0  0  0  0  1  0  0  0  0  0  0
  191.2040  176.2980  139.0940 C   0  0  0  0  0  2  0  0  0  0  0  0
  193.9950  174.1350  136.2330 O   0  0  0  0  0  0  0  0  0  0  0  0
  187.3030  177.9860  138.6810 C   0  0  0  0  0  3  0  0  0  0  0  0
  190.8980  174.6700  136.4660 C   0  0  1  0  0  3  0  0  0  0  0  0
  186.1320  176.0060  134.3460 O   0  0  0  0  0  1  0  0  0  0  0  0
  193.0010  176.2770  136.5310 C   0  0  0  0  0  2  0  0  0  0  0  0
  186.6040  178.4140  139.8120 C   0  0  0  0  0  3  0  0  0  0  0  0
  186.2800  173.0780  134.6450 F   0  0  0  0  0  0  0  0  0  0  0  0
  189.3450  177.0670  137.5490 C   0  0  1  0  0  3  0  0  0  0  0  0
  191.4760  176.1090  136.5840 C   0  0  2  0  0  3  0  0  0  0  0  0
  187.2290  178.4130  141.0600 C   0  0  0  0  0  0  0  0  0  0  0  0
  189.2620  177.5550  140.0530 C   0  0  0  0  0  0  0  0  0  0  0  0
  188.7390  173.2990  136.5600 C   0  0  0  0  0  2  0  0  0  0  0  0
  188.6320  177.5550  138.7880 C   0  0  0  0  0  0  0  0  0  0  0  0
  186.9820  175.2880  135.1870 C   0  0  1  0  0  3  0  0  0  0  0  0
  190.7130  177.2080  140.2110 C   0  0  0  0  0  2  0  0  0  0  0  0
  187.3420  173.9540  134.5250 C   0  0  1  0  0  3  0  0  0  0  0  0
  193.6640  175.3150  135.5560 C   0  0  0  0  0  2  0  0  0  0  0  0
  188.6210  173.2870  135.0380 C   0  0  0  0  0  2  0  0  0  0  0  0
  192.9160  173.2620  136.0550 C   0  0  0  0  0  2  0  0  0  0  0  0
  188.1970  176.1390  135.5250 C   0  0  0  0  0  2  0  0  0  0  0  0
  191.8010  173.5810  137.0430 C   0  0  0  0  0  2  0  0  0  0  0  0
  1 18  1  6  0  0  0
  2  6  1  1  0  0  0
  3 26  1  6  0  0  0
  3  1  1  0  0  0  0
  3 14  1  0  0  0  0
  6 21  1  0  0  0  0
  8 19  2  0  0  0  0
  8 12  1  0  0  0  0
  9 15  1  0  0  0  0
  9 27  1  1  0  0  0
  9  1  1  0  0  0  0
 12 16  2  0  0  0  0
 14  2  1  0  0  0  0
 14 19  1  1  0  0  0
 15 11  1  1  0  0  0
 15  2  1  0  0  0  0
 16  4  1  0  0  0  0
 16  5  1  0  0  0  0
 17 21  1  0  0  0  0
 17  4  2  0  0  0  0
 19 17  1  0  0  0  0
 20 10  1  6  0  0  0
 20 26  1  0  0  0  0
 22 13  1  1  0  0  0
 22 24  1  0  0  0  0
 22 20  1  0  0  0  0
 23  7  1  0  0  0  0
 23 11  1  0  0  0  0
 24 18  1  0  0  0  0
 25  7  1  0  0  0  0
 25 27  1  0  0  0  0
M  END
>  <MODEL>
8

>  <REMARK>
 VINA RESULT:      -5.8      3.753      5.858
  Name = 
  0 active torsions:
  status: ('A' for Active; 'I' for Inactive)
                            x       y       z     vdW  Elec       q    Type
                         _______ _______ _______ _____ _____    ______ ____

>  <TORSDO>
F 0

$$$$
=
 OpenBabel10272401013D

 27 31  0  0  1  0  0  0  0  0999 V2000
  185.4210  177.2110  138.7870 C   0  0  2  0  0  3  0  0  0  0  0  0
  187.6590  178.5640  139.8720 C   0  0  2  0  0  3  0  0  0  0  0  0
  185.0720  178.3760  139.7350 C   0  0  1  0  0  3  0  0  0  0  0  0
  187.0190  177.5550  143.9880 C   0  0  0  0  0  3  0  0  0  0  0  0
  185.8080  177.7980  146.0940 N   0  0  0  0  0  1  0  0  0  0  0  0
  188.1680  177.2250  140.4100 C   0  0  0  0  0  2  0  0  0  0  0  0
  189.0510  176.9810  135.9590 O   0  0  0  0  0  0  0  0  0  0  0  0
  185.1300  179.1620  142.7020 C   0  0  0  0  0  3  0  0  0  0  0  0
  186.5430  177.5420  137.7820 C   0  0  1  0  0  3  0  0  0  0  0  0
  182.0900  180.3040  139.0220 O   0  0  0  0  0  1  0  0  0  0  0  0
  188.9720  178.5900  137.7100 C   0  0  0  0  0  2  0  0  0  0  0  0
  184.9980  178.8840  144.0640 C   0  0  0  0  0  3  0  0  0  0  0  0
  181.3360  177.7870  137.6880 F   0  0  0  0  0  0  0  0  0  0  0  0
  186.2930  178.9320  140.4900 C   0  0  1  0  0  3  0  0  0  0  0  0
  187.5740  178.5620  138.3440 C   0  0  2  0  0  3  0  0  0  0  0  0
  185.9400  178.0770  144.7050 C   0  0  0  0  0  0  0  0  0  0  0  0
  187.1530  177.8200  142.6210 C   0  0  0  0  0  0  0  0  0  0  0  0
  184.1900  176.5900  138.1160 C   0  0  0  0  0  2  0  0  0  0  0  0
  186.2030  178.6370  141.9690 C   0  0  0  0  0  0  0  0  0  0  0  0
  182.8660  179.1530  138.8980 C   0  0  1  0  0  3  0  0  0  0  0  0
  188.3790  177.3190  141.9150 C   0  0  0  0  0  2  0  0  0  0  0  0
  182.5380  178.4590  137.5720 C   0  0  1  0  0  3  0  0  0  0  0  0
  188.9420  178.3540  136.2070 C   0  0  0  0  0  2  0  0  0  0  0  0
  183.6120  177.5070  137.0410 C   0  0  0  0  0  2  0  0  0  0  0  0
  187.7430  176.4910  135.8640 C   0  0  0  0  0  2  0  0  0  0  0  0
  184.3370  179.5160  139.0390 C   0  0  0  0  0  2  0  0  0  0  0  0
  187.1620  176.2500  137.2510 C   0  0  0  0  0  2  0  0  0  0  0  0
  1 18  1  6  0  0  0
  1  3  1  0  0  0  0
  2  6  1  1  0  0  0
  2 14  1  0  0  0  0
  3 26  1  6  0  0  0
  3 14  1  0  0  0  0
  4 16  1  0  0  0  0
  6 21  1  0  0  0  0
  7 23  1  0  0  0  0
  8 12  1  0  0  0  0
  9 27  1  1  0  0  0
  9 15  1  0  0  0  0
  9  1  1  0  0  0  0
 12 16  2  0  0  0  0
 14 19  1  1  0  0  0
 15 11  1  6  0  0  0
 15  2  1  0  0  0  0
 16  5  1  0  0  0  0
 17  4  2  0  0  0  0
 19 17  1  0  0  0  0
 19  8  2  0  0  0  0
 20 10  1  6  0  0  0
 20 26  1  0  0  0  0
 21 17  1  0  0  0  0
 22 13  1  1  0  0  0
 22 20  1  0  0  0  0
 23 11  1  0  0  0  0
 24 22  1  0  0  0  0
 24 18  1  0  0  0  0
 25  7  1  0  0  0  0
 25 27  1  0  0  0  0
M  END
>  <MODEL>
9

>  <REMARK>
 VINA RESULT:      -5.8      3.350      5.693
  Name = 
  0 active torsions:
  status: ('A' for Active; 'I' for Inactive)
                            x       y       z     vdW  Elec       q    Type
                         _______ _______ _______ _____ _____    ______ ____

>  <TORSDO>
F 0

$$$$
