=
 OpenBabel10272413123D

 32 37  0  0  1  0  0  0  0  0999 V2000
  186.4470  178.1170  143.3510 C   0  0  0  0  0  0  0  0  0  0  0  0
  186.6600  178.8290  141.0850 N   0  0  0  0  0  0  0  0  0  0  0  0
  185.5290  177.7930  144.5080 C   0  0  0  0  0  2  0  0  0  0  0  0
  185.9390  178.7370  142.2810 C   0  0  0  0  0  0  0  0  0  0  0  0
  185.6890  178.9430  140.0670 C   0  0  0  0  0  0  0  0  0  0  0  0
  189.4630  176.3510  138.1310 C   0  0  0  0  0  3  0  0  0  0  0  0
  187.8410  178.0690  140.9060 C   0  0  0  0  0  0  0  0  0  0  0  0
  187.5060  177.5420  137.2390 C   0  0  0  0  0  3  0  0  0  0  0  0
  187.4040  178.3660  138.4920 C   0  0  1  0  0  3  0  0  0  0  0  0
  184.5490  178.9670  142.0940 N   0  0  0  0  0  0  0  0  0  0  0  0
  185.9940  178.6250  138.8430 N   0  0  0  0  0  0  0  0  0  0  0  0
  183.5740  178.6240  143.1270 C   0  0  0  0  0  2  0  0  0  0  0  0
  188.4420  177.4870  142.0760 N   0  0  0  0  0  0  0  0  0  0  0  0
  187.8300  177.5310  143.2360 C   0  0  0  0  0  0  0  0  0  0  0  0
  188.2020  177.7620  139.6520 C   0  0  0  0  0  0  0  0  0  0  0  0
  184.2930  179.0530  140.6440 C   0  0  2  0  0  3  0  0  0  0  0  0
  184.2500  178.6500  144.5030 C   0  0  0  0  0  2  0  0  0  0  0  0
  188.4830  176.6450  137.0650 C   0  0  0  0  0  3  0  0  0  0  0  0
  189.3290  176.8620  139.3580 C   0  0  0  0  0  3  0  0  0  0  0  0
  190.9490  176.5920  145.0480 C   0  0  0  0  0  0  0  0  0  0  0  0
  192.0860  176.1090  144.7980 O   0  0  0  0  0  0  0  0  0  0  0  0
  188.4320  177.8300  145.6210 C   0  0  0  0  0  2  0  0  0  0  0  0
  190.7540  177.3490  146.3220 C   0  0  0  0  0  2  0  0  0  0  0  0
  188.5040  176.8900  144.4150 C   0  0  2  0  0  3  0  0  0  0  0  0
  189.8770  176.4620  144.0940 N   0  0  0  0  0  0  0  0  0  0  0  0
  190.0870  175.6280  142.9170 C   0  0  0  0  0  1  0  0  0  0  0  0
  189.2940  177.3040  146.7540 C   0  0  1  0  0  3  0  0  0  0  0  0
  187.9820  178.0330  148.7000 C   0  0  0  0  0  2  0  0  0  0  0  0
  189.0880  178.1500  147.9660 C   0  0  0  0  0  3  0  0  0  0  0  0
  183.4360  177.8720  140.1950 C   0  0  0  0  0  2  0  0  0  0  0  0
  182.0930  178.3600  139.6880 C   0  0  0  0  0  2  0  0  0  0  0  0
  182.2870  179.6340  138.8950 C   0  0  0  0  0  1  0  0  0  0  0  0
  1  3  1  0  0  0  0
  2  4  1  0  0  0  0
  4  1  2  0  0  0  0
  5 16  1  0  0  0  0
  5  2  1  0  0  0  0
  6 19  2  0  0  0  0
  7  2  1  0  0  0  0
  7 13  1  0  0  0  0
  9  8  1  6  0  0  0
  9 11  1  0  0  0  0
  9 15  1  0  0  0  0
 10  4  1  0  0  0  0
 10 12  1  0  0  0  0
 11  5  2  0  0  0  0
 12 17  1  0  0  0  0
 13 14  2  0  0  0  0
 14  1  1  0  0  0  0
 15  7  2  0  0  0  0
 16 30  1  6  0  0  0
 16 10  1  0  0  0  0
 17  3  1  0  0  0  0
 18  8  2  0  0  0  0
 18  6  1  0  0  0  0
 19 15  1  0  0  0  0
 20 23  1  0  0  0  0
 21 20  2  0  0  0  0
 22 27  1  0  0  0  0
 23 27  1  0  0  0  0
 24 14  1  6  0  0  0
 24 22  1  0  0  0  0
 25 24  1  0  0  0  0
 25 20  1  0  0  0  0
 26 25  1  0  0  0  0
 27 29  1  1  0  0  0
 29 28  2  0  0  0  0
 31 30  1  0  0  0  0
 32 31  1  0  0  0  0
M  END
>  <MODEL>
1

>  <REMARK>
 VINA RESULT:      -9.9      0.000      0.000
  Name = 
  4 active torsions:
  status: ('A' for Active; 'I' for Inactive)
    1  A    between atoms: C_13  and  C_18
    2  A    between atoms: C_15  and  C_26
    3  A    between atoms: C_18  and  C_29
    4  A    between atoms: C_20  and  C_27
                            x       y       z     vdW  Elec       q    Type
                         _______ _______ _______ _____ _____    ______ ____

>  <TORSDO>
F 4

$$$$
=
 OpenBabel10272413123D

 32 37  0  0  1  0  0  0  0  0999 V2000
  186.5310  178.0460  142.5790 C   0  0  0  0  0  0  0  0  0  0  0  0
  187.1770  178.6400  140.3620 N   0  0  0  0  0  0  0  0  0  0  0  0
  185.4080  177.7910  143.5580 C   0  0  0  0  0  2  0  0  0  0  0  0
  186.2440  178.6170  141.4040 C   0  0  0  0  0  0  0  0  0  0  0  0
  186.4150  178.7130  139.1760 C   0  0  0  0  0  0  0  0  0  0  0  0
  190.4310  175.9850  138.1070 C   0  0  0  0  0  3  0  0  0  0  0  0
  188.3550  177.8590  140.4430 C   0  0  0  0  0  0  0  0  0  0  0  0
  188.6980  177.1500  136.8080 C   0  0  0  0  0  3  0  0  0  0  0  0
  188.3810  178.0380  137.9790 C   0  0  1  0  0  3  0  0  0  0  0  0
  184.9180  178.8520  140.9500 N   0  0  0  0  0  0  0  0  0  0  0  0
  186.9360  178.3300  138.0470 N   0  0  0  0  0  0  0  0  0  0  0  0
  183.7610  178.5720  141.7970 C   0  0  0  0  0  2  0  0  0  0  0  0
  188.7160  177.3320  141.7310 N   0  0  0  0  0  0  0  0  0  0  0  0
  187.9000  177.4400  142.7530 C   0  0  0  0  0  0  0  0  0  0  0  0
  188.9380  177.4850  139.2950 C   0  0  0  0  0  0  0  0  0  0  0  0
  184.9380  178.8660  139.4760 C   0  0  2  0  0  3  0  0  0  0  0  0
  184.1690  178.6600  143.2730 C   0  0  0  0  0  2  0  0  0  0  0  0
  189.6730  176.2350  136.8630 C   0  0  0  0  0  3  0  0  0  0  0  0
  190.0810  176.5600  139.2610 C   0  0  0  0  0  3  0  0  0  0  0  0
  190.5390  176.8830  145.3250 C   0  0  0  0  0  0  0  0  0  0  0  0
  191.7620  176.5810  145.3840 O   0  0  0  0  0  0  0  0  0  0  0  0
  187.8040  177.7210  145.2130 C   0  0  0  0  0  2  0  0  0  0  0  0
  189.9060  177.5490  146.5040 C   0  0  0  0  0  2  0  0  0  0  0  0
  188.3300  176.8540  144.0670 C   0  0  2  0  0  3  0  0  0  0  0  0
  189.7870  176.6420  144.1210 N   0  0  0  0  0  0  0  0  0  0  0  0
  190.4210  175.8970  143.0390 C   0  0  0  0  0  1  0  0  0  0  0  0
  188.4080  177.2760  146.5330 C   0  0  1  0  0  3  0  0  0  0  0  0
  186.5740  178.6030  147.4910 C   0  0  0  0  0  2  0  0  0  0  0  0
  187.7670  178.0310  147.6490 C   0  0  0  0  0  3  0  0  0  0  0  0
  184.1570  177.6730  138.9310 C   0  0  0  0  0  2  0  0  0  0  0  0
  183.0170  178.1480  138.0510 C   0  0  0  0  0  2  0  0  0  0  0  0
  183.0250  177.3690  136.7540 C   0  0  0  0  0  1  0  0  0  0  0  0
  1 14  1  0  0  0  0
  1  3  1  0  0  0  0
  2  7  1  0  0  0  0
  2  4  1  0  0  0  0
  4  1  2  0  0  0  0
  5 16  1  0  0  0  0
  5  2  1  0  0  0  0
  6 19  2  0  0  0  0
  7 13  1  0  0  0  0
  8 18  2  0  0  0  0
  9  8  1  6  0  0  0
  9 11  1  0  0  0  0
  9 15  1  0  0  0  0
 10  4  1  0  0  0  0
 10 12  1  0  0  0  0
 11  5  2  0  0  0  0
 12 17  1  0  0  0  0
 13 14  2  0  0  0  0
 15  7  2  0  0  0  0
 16 30  1  6  0  0  0
 16 10  1  0  0  0  0
 17  3  1  0  0  0  0
 18  6  1  0  0  0  0
 19 15  1  0  0  0  0
 20 21  2  0  0  0  0
 20 23  1  0  0  0  0
 22 27  1  0  0  0  0
 23 27  1  0  0  0  0
 24 14  1  6  0  0  0
 24 25  1  0  0  0  0
 24 22  1  0  0  0  0
 25 20  1  0  0  0  0
 26 25  1  0  0  0  0
 27 29  1  1  0  0  0
 28 29  2  0  0  0  0
 31 30  1  0  0  0  0
 32 31  1  0  0  0  0
M  END
>  <MODEL>
2

>  <REMARK>
 VINA RESULT:      -9.3      1.138      1.202
  Name = 
  4 active torsions:
  status: ('A' for Active; 'I' for Inactive)
    1  A    between atoms: C_13  and  C_18
    2  A    between atoms: C_15  and  C_26
    3  A    between atoms: C_18  and  C_29
    4  A    between atoms: C_20  and  C_27
                            x       y       z     vdW  Elec       q    Type
                         _______ _______ _______ _____ _____    ______ ____

>  <TORSDO>
F 4

$$$$
=
 OpenBabel10272413123D

 32 37  0  0  1  0  0  0  0  0999 V2000
  185.6970  178.0960  144.6000 C   0  0  0  0  0  0  0  0  0  0  0  0
  187.6110  176.8090  143.9940 N   0  0  0  0  0  0  0  0  0  0  0  0
  184.9740  178.8880  145.6660 C   0  0  0  0  0  2  0  0  0  0  0  0
  186.7480  177.3490  144.9530 C   0  0  0  0  0  0  0  0  0  0  0  0
  188.8520  176.6510  144.6480 C   0  0  0  0  0  0  0  0  0  0  0  0
  189.8840  177.8100  139.9250 C   0  0  0  0  0  3  0  0  0  0  0  0
  187.5280  177.2310  142.6450 C   0  0  0  0  0  0  0  0  0  0  0  0
  191.1390  176.8780  141.8220 C   0  0  0  0  0  3  0  0  0  0  0  0
  189.8620  176.4360  142.4830 C   0  0  0  0  0  0  0  0  0  0  0  0
  187.3310  177.3800  146.2500 N   0  0  0  0  0  0  0  0  0  0  0  0
  189.9470  176.5790  143.9490 N   0  0  0  0  0  0  0  0  0  0  0  0
  186.7470  178.1710  147.3300 C   0  0  0  0  0  2  0  0  0  0  0  0
  186.3480  177.9460  142.2420 N   0  0  0  0  0  0  0  0  0  0  0  0
  185.4590  178.3260  143.1300 C   0  0  0  0  0  0  0  0  0  0  0  0
  188.6310  177.1280  141.8890 C   0  0  0  0  0  0  0  0  0  0  0  0
  188.7470  176.9900  146.1200 C   0  0  2  0  0  3  0  0  0  0  0  0
  185.2430  178.3490  147.0830 C   0  0  0  0  0  2  0  0  0  0  0  0
  191.1410  177.4730  140.6250 C   0  0  0  0  0  3  0  0  0  0  0  0
  188.6970  177.6650  140.5200 C   0  0  0  0  0  2  0  0  0  0  0  0
  182.6710  178.7300  140.6890 C   0  0  0  0  0  0  0  0  0  0  0  0
  182.4760  178.6580  139.4460 O   0  0  0  0  0  0  0  0  0  0  0  0
  183.0500  178.7510  143.5270 C   0  0  0  0  0  2  0  0  0  0  0  0
  181.4960  178.6220  141.6080 C   0  0  0  0  0  2  0  0  0  0  0  0
  184.2560  179.0840  142.6460 C   0  0  2  0  0  3  0  0  0  0  0  0
  184.0070  178.8570  141.2110 N   0  0  0  0  0  0  0  0  0  0  0  0
  185.1060  179.0630  140.2750 C   0  0  0  0  0  1  0  0  0  0  0  0
  181.7810  179.3280  142.9270 C   0  0  1  0  0  3  0  0  0  0  0  0
  179.9840  177.9690  143.9100 C   0  0  0  0  0  2  0  0  0  0  0  0
  180.6480  179.1230  143.8770 C   0  0  0  0  0  3  0  0  0  0  0  0
  189.6480  178.1740  146.4600 C   0  0  0  0  0  2  0  0  0  0  0  0
  190.4790  177.8670  147.6920 C   0  0  0  0  0  2  0  0  0  0  0  0
  191.3270  176.6410  147.4330 C   0  0  0  0  0  1  0  0  0  0  0  0
  1  4  2  0  0  0  0
  1  3  1  0  0  0  0
  2  5  1  0  0  0  0
  2  4  1  0  0  0  0
  3 17  1  0  0  0  0
  4 10  1  0  0  0  0
  5 16  1  0  0  0  0
  6 19  1  0  0  0  0
  6 18  2  0  0  0  0
  7  2  1  0  0  0  0
  8  9  2  0  0  0  0
  9 11  1  0  0  0  0
 10 12  1  0  0  0  0
 11  5  2  0  0  0  0
 13  7  1  0  0  0  0
 13 14  2  0  0  0  0
 14  1  1  0  0  0  0
 15  9  1  0  0  0  0
 15  7  2  0  0  0  0
 16 10  1  0  0  0  0
 16 30  1  6  0  0  0
 17 12  1  0  0  0  0
 18  8  1  0  0  0  0
 19 15  1  0  0  0  0
 20 25  1  0  0  0  0
 20 23  1  0  0  0  0
 21 20  2  0  0  0  0
 23 27  1  0  0  0  0
 24 14  1  1  0  0  0
 24 22  1  0  0  0  0
 25 24  1  0  0  0  0
 26 25  1  0  0  0  0
 27 22  1  0  0  0  0
 27 29  1  1  0  0  0
 29 28  2  0  0  0  0
 30 31  1  0  0  0  0
 32 31  1  0  0  0  0
M  END
>  <MODEL>
3

>  <REMARK>
 VINA RESULT:      -9.3      2.617      6.720
  Name = 
  4 active torsions:
  status: ('A' for Active; 'I' for Inactive)
    1  A    between atoms: C_13  and  C_18
    2  A    between atoms: C_15  and  C_26
    3  A    between atoms: C_18  and  C_29
    4  A    between atoms: C_20  and  C_27
                            x       y       z     vdW  Elec       q    Type
                         _______ _______ _______ _____ _____    ______ ____

>  <TORSDO>
F 4

$$$$
=
 OpenBabel10272413123D

 32 37  0  0  1  0  0  0  0  0999 V2000
  185.2820  178.3210  143.1710 C   0  0  0  0  0  0  0  0  0  0  0  0
  187.1130  177.0380  144.0010 N   0  0  0  0  0  0  0  0  0  0  0  0
  184.1060  179.2190  143.4810 C   0  0  0  0  0  2  0  0  0  0  0  0
  185.8750  177.6660  144.1750 C   0  0  0  0  0  0  0  0  0  0  0  0
  187.7060  177.0120  145.2810 C   0  0  0  0  0  0  0  0  0  0  0  0
  191.4140  177.5820  142.0190 C   0  0  0  0  0  3  0  0  0  0  0  0
  187.8740  177.2760  142.8310 C   0  0  0  0  0  0  0  0  0  0  0  0
  191.2370  176.9520  144.3890 C   0  0  0  0  0  3  0  0  0  0  0  0
  189.7990  176.5530  144.2020 C   0  0  0  0  0  0  0  0  0  0  0  0
  185.5680  177.8880  145.5450 N   0  0  0  0  0  0  0  0  0  0  0  0
  188.9960  176.8890  145.3940 N   0  0  0  0  0  0  0  0  0  0  0  0
  184.4930  178.7910  145.9490 C   0  0  0  0  0  2  0  0  0  0  0  0
  187.2060  177.8890  141.7150 N   0  0  0  0  0  0  0  0  0  0  0  0
  185.9830  178.3490  141.8370 C   0  0  0  0  0  0  0  0  0  0  0  0
  189.2030  177.1160  142.9070 C   0  0  0  0  0  0  0  0  0  0  0  0
  186.7590  177.5360  146.3400 C   0  0  2  0  0  3  0  0  0  0  0  0
  183.4470  178.8800  144.8310 C   0  0  0  0  0  2  0  0  0  0  0  0
  191.9840  177.3850  143.3680 C   0  0  0  0  0  3  0  0  0  0  0  0
  190.1010  177.4720  141.7970 C   0  0  0  0  0  2  0  0  0  0  0  0
  185.0170  178.2170  138.2390 C   0  0  0  0  0  0  0  0  0  0  0  0
  185.5080  177.8570  137.1350 O   0  0  0  0  0  0  0  0  0  0  0  0
  183.8240  178.8980  140.7500 C   0  0  0  0  0  2  0  0  0  0  0  0
  183.5330  178.3480  138.3580 C   0  0  0  0  0  2  0  0  0  0  0  0
  185.3480  178.9930  140.6380 C   0  0  2  0  0  3  0  0  0  0  0  0
  185.8720  178.4390  139.3780 N   0  0  0  0  0  0  0  0  0  0  0  0
  187.3170  178.3990  139.1850 C   0  0  0  0  0  1  0  0  0  0  0  0
  183.1690  179.3400  139.4550 C   0  0  1  0  0  3  0  0  0  0  0  0
  181.1280  178.9530  140.7680 C   0  0  0  0  0  2  0  0  0  0  0  0
  181.6890  179.3850  139.6400 C   0  0  0  0  0  3  0  0  0  0  0  0
  187.3340  178.7860  146.9990 C   0  0  0  0  0  2  0  0  0  0  0  0
  187.7460  178.4860  148.4280 C   0  0  0  0  0  2  0  0  0  0  0  0
  189.2480  178.3100  148.4920 C   0  0  0  0  0  1  0  0  0  0  0  0
  1  3  1  0  0  0  0
  1  4  2  0  0  0  0
  2  4  1  0  0  0  0
  2  5  1  0  0  0  0
  3 17  1  0  0  0  0
  4 10  1  0  0  0  0
  5 11  2  0  0  0  0
  5 16  1  0  0  0  0
  6 18  2  0  0  0  0
  7 15  2  0  0  0  0
  7  2  1  0  0  0  0
  9  8  2  0  0  0  0
  9 11  1  0  0  0  0
 10 12  1  0  0  0  0
 10 16  1  0  0  0  0
 13 14  2  0  0  0  0
 13  7  1  0  0  0  0
 14  1  1  0  0  0  0
 15  9  1  0  0  0  0
 16 30  1  6  0  0  0
 17 12  1  0  0  0  0
 18  8  1  0  0  0  0
 19  6  1  0  0  0  0
 19 15  1  0  0  0  0
 20 23  1  0  0  0  0
 20 25  1  0  0  0  0
 21 20  2  0  0  0  0
 23 27  1  0  0  0  0
 24 22  1  0  0  0  0
 24 14  1  1  0  0  0
 25 24  1  0  0  0  0
 26 25  1  0  0  0  0
 27 29  1  1  0  0  0
 27 22  1  0  0  0  0
 29 28  2  0  0  0  0
 30 31  1  0  0  0  0
 31 32  1  0  0  0  0
M  END
>  <MODEL>
4

>  <REMARK>
 VINA RESULT:      -8.7      2.361      6.812
  Name = 
  4 active torsions:
  status: ('A' for Active; 'I' for Inactive)
    1  A    between atoms: C_13  and  C_18
    2  A    between atoms: C_15  and  C_26
    3  A    between atoms: C_18  and  C_29
    4  A    between atoms: C_20  and  C_27
                            x       y       z     vdW  Elec       q    Type
                         _______ _______ _______ _____ _____    ______ ____

>  <TORSDO>
F 4

$$$$
=
 OpenBabel10272413123D

 32 37  0  0  1  0  0  0  0  0999 V2000
  186.7530  178.2050  137.6070 C   0  0  0  0  0  0  0  0  0  0  0  0
  188.3250  178.4660  139.3810 N   0  0  0  0  0  0  0  0  0  0  0  0
  186.4660  177.6720  136.2210 C   0  0  0  0  0  2  0  0  0  0  0  0
  188.0190  178.2380  138.0350 C   0  0  0  0  0  0  0  0  0  0  0  0
  189.5740  177.8450  139.5940 C   0  0  0  0  0  0  0  0  0  0  0  0
  187.0120  177.3490  143.8250 C   0  0  0  0  0  3  0  0  0  0  0  0
  187.3010  178.4350  140.3580 C   0  0  0  0  0  0  0  0  0  0  0  0
  189.3660  177.1130  143.1560 C   0  0  0  0  0  3  0  0  0  0  0  0
  189.1360  177.9800  141.9490 C   0  0  1  0  0  3  0  0  0  0  0  0
  189.1020  177.6490  137.3250 N   0  0  0  0  0  0  0  0  0  0  0  0
  189.9330  177.5100  140.7990 N   0  0  0  0  0  0  0  0  0  0  0  0
  188.9130  177.0460  136.0080 C   0  0  0  0  0  2  0  0  0  0  0  0
  185.9400  178.5040  139.8990 N   0  0  0  0  0  0  0  0  0  0  0  0
  185.6610  178.4370  138.6190 C   0  0  0  0  0  0  0  0  0  0  0  0
  187.6480  178.1330  141.6170 C   0  0  0  0  0  0  0  0  0  0  0  0
  190.1500  177.3020  138.3030 C   0  0  2  0  0  3  0  0  0  0  0  0
  187.7090  177.6950  135.3130 C   0  0  0  0  0  2  0  0  0  0  0  0
  188.3910  176.8620  144.0360 C   0  0  0  0  0  3  0  0  0  0  0  0
  186.6500  177.9360  142.6810 C   0  0  0  0  0  3  0  0  0  0  0  0
  182.1400  177.2820  139.0250 C   0  0  0  0  0  0  0  0  0  0  0  0
  181.5050  176.2060  139.1940 O   0  0  0  0  0  0  0  0  0  0  0  0
  183.5680  179.7530  138.7950 C   0  0  0  0  0  2  0  0  0  0  0  0
  181.4770  178.5720  139.3860 C   0  0  0  0  0  2  0  0  0  0  0  0
  184.2180  178.4980  138.2060 C   0  0  2  0  0  3  0  0  0  0  0  0
  183.4990  177.2580  138.5470 N   0  0  0  0  0  0  0  0  0  0  0  0
  184.0640  175.9860  138.1100 C   0  0  0  0  0  1  0  0  0  0  0  0
  182.0660  179.7210  138.5780 C   0  0  1  0  0  3  0  0  0  0  0  0
  181.3920  182.0520  138.1830 C   0  0  0  0  0  2  0  0  0  0  0  0
  181.4760  181.0190  139.0200 C   0  0  0  0  0  3  0  0  0  0  0  0
  190.3070  175.7870  138.3850 C   0  0  0  0  0  2  0  0  0  0  0  0
  191.6710  175.3700  137.8700 C   0  0  0  0  0  2  0  0  0  0  0  0
  192.6550  176.5000  138.0820 C   0  0  0  0  0  1  0  0  0  0  0  0
  1  4  2  0  0  0  0
  1 14  1  0  0  0  0
  2  5  1  0  0  0  0
  2  7  1  0  0  0  0
  3  1  1  0  0  0  0
  4  2  1  0  0  0  0
  5 11  2  0  0  0  0
  6 18  1  0  0  0  0
  7 15  2  0  0  0  0
  8 18  2  0  0  0  0
  9  8  1  1  0  0  0
 10  4  1  0  0  0  0
 10 16  1  0  0  0  0
 11  9  1  0  0  0  0
 12 10  1  0  0  0  0
 13  7  1  0  0  0  0
 14 13  2  0  0  0  0
 15  9  1  0  0  0  0
 15 19  1  0  0  0  0
 16 30  1  1  0  0  0
 16  5  1  0  0  0  0
 17 12  1  0  0  0  0
 17  3  1  0  0  0  0
 19  6  2  0  0  0  0
 20 21  2  0  0  0  0
 20 23  1  0  0  0  0
 24 25  1  0  0  0  0
 24 14  1  1  0  0  0
 24 22  1  0  0  0  0
 25 20  1  0  0  0  0
 26 25  1  0  0  0  0
 27 22  1  0  0  0  0
 27 29  1  1  0  0  0
 27 23  1  0  0  0  0
 28 29  2  0  0  0  0
 31 32  1  0  0  0  0
 31 30  1  0  0  0  0
M  END
>  <MODEL>
5

>  <REMARK>
 VINA RESULT:      -8.6      2.992      7.939
  Name = 
  4 active torsions:
  status: ('A' for Active; 'I' for Inactive)
    1  A    between atoms: C_13  and  C_18
    2  A    between atoms: C_15  and  C_26
    3  A    between atoms: C_18  and  C_29
    4  A    between atoms: C_20  and  C_27
                            x       y       z     vdW  Elec       q    Type
                         _______ _______ _______ _____ _____    ______ ____

>  <TORSDO>
F 4

$$$$
=
 OpenBabel10272413123D

 32 37  0  0  1  0  0  0  0  0999 V2000
  188.5980  177.1620  138.7370 C   0  0  0  0  0  0  0  0  0  0  0  0
  187.1400  178.5210  140.0460 N   0  0  0  0  0  0  0  0  0  0  0  0
  189.8020  176.2480  138.6980 C   0  0  0  0  0  2  0  0  0  0  0  0
  188.3610  177.8690  139.8470 C   0  0  0  0  0  0  0  0  0  0  0  0
  186.9830  178.6090  141.4460 C   0  0  0  0  0  0  0  0  0  0  0  0
  182.4260  178.0090  139.5490 C   0  0  0  0  0  3  0  0  0  0  0  0
  186.0440  178.2580  139.1880 C   0  0  0  0  0  0  0  0  0  0  0  0
  183.3520  178.7230  141.7130 C   0  0  0  0  0  3  0  0  0  0  0  0
  184.6610  179.0790  141.0640 C   0  0  0  0  0  0  0  0  0  0  0  0
  189.0840  177.6910  141.0580 N   0  0  0  0  0  0  0  0  0  0  0  0
  185.7960  178.7680  141.9550 N   0  0  0  0  0  0  0  0  0  0  0  0
  190.2210  176.7770  141.1410 C   0  0  0  0  0  2  0  0  0  0  0  0
  186.3180  177.5880  137.9460 N   0  0  0  0  0  0  0  0  0  0  0  0
  187.5110  177.1020  137.6950 C   0  0  0  0  0  0  0  0  0  0  0  0
  184.8100  178.4530  139.6730 C   0  0  0  0  0  0  0  0  0  0  0  0
  188.2100  178.1020  142.1730 C   0  0  2  0  0  3  0  0  0  0  0  0
  190.8580  176.6210  139.7540 C   0  0  0  0  0  2  0  0  0  0  0  0
  182.3150  178.2700  141.0000 C   0  0  0  0  0  3  0  0  0  0  0  0
  183.6020  178.0790  138.9200 C   0  0  0  0  0  2  0  0  0  0  0  0
  189.8180  175.8620  135.0430 C   0  0  0  0  0  0  0  0  0  0  0  0
  190.8300  176.2550  134.4020 O   0  0  0  0  0  0  0  0  0  0  0  0
  187.6170  174.8860  136.5910 C   0  0  0  0  0  2  0  0  0  0  0  0
  189.5320  174.3960  135.1060 C   0  0  0  0  0  2  0  0  0  0  0  0
  187.7260  176.3990  136.3860 C   0  0  2  0  0  3  0  0  0  0  0  0
  188.9900  176.8070  135.7470 N   0  0  0  0  0  0  0  0  0  0  0  0
  189.2480  178.2310  135.5680 C   0  0  0  0  0  1  0  0  0  0  0  0
  188.0470  174.1500  135.3360 C   0  0  1  0  0  3  0  0  0  0  0  0
  187.8680  172.1160  136.7050 C   0  0  0  0  0  2  0  0  0  0  0  0
  187.7870  172.6900  135.5050 C   0  0  0  0  0  3  0  0  0  0  0  0
  187.8590  176.8920  143.0340 C   0  0  0  0  0  2  0  0  0  0  0  0
  188.2150  177.1550  144.4840 C   0  0  0  0  0  2  0  0  0  0  0  0
  187.0050  177.7060  145.2070 C   0  0  0  0  0  1  0  0  0  0  0  0
  1  4  2  0  0  0  0
  2  5  1  0  0  0  0
  3  1  1  0  0  0  0
  3 17  1  0  0  0  0
  4  2  1  0  0  0  0
  4 10  1  0  0  0  0
  5 11  2  0  0  0  0
  5 16  1  0  0  0  0
  6 18  2  0  0  0  0
  7 15  2  0  0  0  0
  7  2  1  0  0  0  0
  9  8  2  0  0  0  0
  9 11  1  0  0  0  0
 10 12  1  0  0  0  0
 10 16  1  0  0  0  0
 13  7  1  0  0  0  0
 14 13  2  0  0  0  0
 14  1  1  0  0  0  0
 15  9  1  0  0  0  0
 16 30  1  1  0  0  0
 17 12  1  0  0  0  0
 18  8  1  0  0  0  0
 19  6  1  0  0  0  0
 19 15  1  0  0  0  0
 20 23  1  0  0  0  0
 20 25  1  0  0  0  0
 21 20  2  0  0  0  0
 23 27  1  0  0  0  0
 24 22  1  0  0  0  0
 24 14  1  1  0  0  0
 25 24  1  0  0  0  0
 26 25  1  0  0  0  0
 27 29  1  1  0  0  0
 27 22  1  0  0  0  0
 29 28  2  0  0  0  0
 30 31  1  0  0  0  0
 31 32  1  0  0  0  0
M  END
>  <MODEL>
6

>  <REMARK>
 VINA RESULT:      -7.9      2.720      7.585
  Name = 
  4 active torsions:
  status: ('A' for Active; 'I' for Inactive)
    1  A    between atoms: C_13  and  C_18
    2  A    between atoms: C_15  and  C_26
    3  A    between atoms: C_18  and  C_29
    4  A    between atoms: C_20  and  C_27
                            x       y       z     vdW  Elec       q    Type
                         _______ _______ _______ _____ _____    ______ ____

>  <TORSDO>
F 4

$$$$
=
 OpenBabel10272413123D

 32 37  0  0  1  0  0  0  0  0999 V2000
  185.9930  178.5880  139.6340 C   0  0  0  0  0  0  0  0  0  0  0  0
  186.5950  179.1260  141.8770 N   0  0  0  0  0  0  0  0  0  0  0  0
  186.3480  177.8680  138.3520 C   0  0  0  0  0  2  0  0  0  0  0  0
  186.9270  178.7130  140.5830 C   0  0  0  0  0  0  0  0  0  0  0  0
  187.5890  178.5750  142.7150 C   0  0  0  0  0  0  0  0  0  0  0  0
  183.3680  178.5740  145.3410 C   0  0  0  0  0  3  0  0  0  0  0  0
  185.2390  179.1970  142.2760 C   0  0  0  0  0  0  0  0  0  0  0  0
  185.7590  178.3170  145.8530 C   0  0  0  0  0  3  0  0  0  0  0  0
  186.1340  179.0090  144.5720 C   0  0  0  0  0  0  0  0  0  0  0  0
  188.1920  178.0660  140.5270 N   0  0  0  0  0  0  0  0  0  0  0  0
  187.3480  178.4130  143.9830 N   0  0  0  0  0  0  0  0  0  0  0  0
  188.6010  177.2890  139.3600 C   0  0  0  0  0  2  0  0  0  0  0  0
  184.2390  179.1660  141.2440 N   0  0  0  0  0  0  0  0  0  0  0  0
  184.5700  178.9220  139.9980 C   0  0  0  0  0  0  0  0  0  0  0  0
  184.9650  179.0750  143.5830 C   0  0  0  0  0  0  0  0  0  0  0  0
  188.6680  177.8820  141.9110 C   0  0  2  0  0  3  0  0  0  0  0  0
  187.8680  177.8050  138.1150 C   0  0  0  0  0  2  0  0  0  0  0  0
  184.4820  178.1580  146.2180 C   0  0  0  0  0  3  0  0  0  0  0  0
  183.5870  178.9930  144.0920 C   0  0  0  0  0  2  0  0  0  0  0  0
  181.0840  178.0230  139.0300 C   0  0  0  0  0  0  0  0  0  0  0  0
  180.2770  177.0630  139.1630 O   0  0  0  0  0  0  0  0  0  0  0  0
  182.8420  180.2750  138.8460 C   0  0  0  0  0  2  0  0  0  0  0  0
  180.5430  179.3760  138.6970 C   0  0  0  0  0  2  0  0  0  0  0  0
  183.4750  178.8870  138.9700 C   0  0  2  0  0  3  0  0  0  0  0  0
  182.4930  177.8250  139.2530 N   0  0  0  0  0  0  0  0  0  0  0  0
  182.9820  176.4680  139.4720 C   0  0  0  0  0  1  0  0  0  0  0  0
  181.5960  180.2120  137.9820 C   0  0  1  0  0  3  0  0  0  0  0  0
  180.4890  181.9200  136.6040 C   0  0  0  0  0  2  0  0  0  0  0  0
  181.0860  181.5960  137.7490 C   0  0  0  0  0  3  0  0  0  0  0  0
  188.7170  176.3960  142.2520 C   0  0  0  0  0  2  0  0  0  0  0  0
  190.1310  175.9850  142.6180 C   0  0  0  0  0  2  0  0  0  0  0  0
  190.4770  176.5400  143.9830 C   0  0  0  0  0  1  0  0  0  0  0  0
  1 14  1  0  0  0  0
  1  4  2  0  0  0  0
  2  7  1  0  0  0  0
  2  5  1  0  0  0  0
  3  1  1  0  0  0  0
  4  2  1  0  0  0  0
  5 11  2  0  0  0  0
  6 18  2  0  0  0  0
  7 15  2  0  0  0  0
  8 18  1  0  0  0  0
  9  8  2  0  0  0  0
 10  4  1  0  0  0  0
 10 16  1  0  0  0  0
 11  9  1  0  0  0  0
 12 10  1  0  0  0  0
 13  7  1  0  0  0  0
 14 13  2  0  0  0  0
 15 19  1  0  0  0  0
 15  9  1  0  0  0  0
 16 30  1  1  0  0  0
 16  5  1  0  0  0  0
 17  3  1  0  0  0  0
 17 12  1  0  0  0  0
 19  6  1  0  0  0  0
 20 21  2  0  0  0  0
 20 25  1  0  0  0  0
 22 24  1  0  0  0  0
 23 20  1  0  0  0  0
 24 25  1  0  0  0  0
 24 14  1  1  0  0  0
 25 26  1  0  0  0  0
 27 29  1  1  0  0  0
 27 23  1  0  0  0  0
 27 22  1  0  0  0  0
 28 29  2  0  0  0  0
 30 31  1  0  0  0  0
 31 32  1  0  0  0  0
M  END
>  <MODEL>
7

>  <REMARK>
 VINA RESULT:      -7.9      2.936      8.297
  Name = 
  4 active torsions:
  status: ('A' for Active; 'I' for Inactive)
    1  A    between atoms: C_13  and  C_18
    2  A    between atoms: C_15  and  C_26
    3  A    between atoms: C_18  and  C_29
    4  A    between atoms: C_20  and  C_27
                            x       y       z     vdW  Elec       q    Type
                         _______ _______ _______ _____ _____    ______ ____

>  <TORSDO>
F 4

$$$$
=
 OpenBabel10272413123D

 32 37  0  0  1  0  0  0  0  0999 V2000
  187.1780  178.0810  141.7760 C   0  0  0  0  0  0  0  0  0  0  0  0
  187.3950  176.9890  143.8850 N   0  0  0  0  0  0  0  0  0  0  0  0
  186.3900  179.0320  140.9040 C   0  0  0  0  0  2  0  0  0  0  0  0
  186.6310  177.6490  142.9180 C   0  0  0  0  0  0  0  0  0  0  0  0
  186.7410  177.2320  145.1120 C   0  0  0  0  0  0  0  0  0  0  0  0
  191.6080  177.0680  146.1140 C   0  0  0  0  0  3  0  0  0  0  0  0
  188.8070  176.9680  143.7840 C   0  0  0  0  0  0  0  0  0  0  0  0
  189.5360  176.9570  147.4320 C   0  0  0  0  0  3  0  0  0  0  0  0
  188.7550  176.5380  146.2170 C   0  0  0  0  0  0  0  0  0  0  0  0
  185.4130  178.1600  143.4440 N   0  0  0  0  0  0  0  0  0  0  0  0
  187.4010  177.1270  146.2290 N   0  0  0  0  0  0  0  0  0  0  0  0
  184.6130  179.1360  142.7080 C   0  0  0  0  0  2  0  0  0  0  0  0
  189.3900  177.3340  142.5220 N   0  0  0  0  0  0  0  0  0  0  0  0
  188.6450  177.8190  141.5560 C   0  0  0  0  0  0  0  0  0  0  0  0
  189.5120  176.8180  144.9150 C   0  0  0  0  0  0  0  0  0  0  0  0
  185.4390  177.9760  144.9070 C   0  0  2  0  0  3  0  0  0  0  0  0
  184.8810  178.9930  141.2050 C   0  0  0  0  0  2  0  0  0  0  0  0
  190.8570  177.1580  147.3830 C   0  0  0  0  0  3  0  0  0  0  0  0
  190.9800  176.9220  144.9440 C   0  0  0  0  0  2  0  0  0  0  0  0
  190.8610  176.9300  138.6930 C   0  0  0  0  0  0  0  0  0  0  0  0
  191.9540  176.3380  138.4840 O   0  0  0  0  0  0  0  0  0  0  0  0
  188.3040  178.1430  139.1230 C   0  0  0  0  0  2  0  0  0  0  0  0
  189.9060  177.0980  137.5560 C   0  0  0  0  0  2  0  0  0  0  0  0
  189.3180  178.1970  140.2680 C   0  0  2  0  0  3  0  0  0  0  0  0
  190.5200  177.3820  140.0180 N   0  0  0  0  0  0  0  0  0  0  0  0
  191.5260  177.2880  141.0690 C   0  0  0  0  0  1  0  0  0  0  0  0
  189.0060  178.3040  137.7870 C   0  0  1  0  0  3  0  0  0  0  0  0
  186.7220  178.0370  136.9170 C   0  0  0  0  0  2  0  0  0  0  0  0
  187.9850  178.4020  136.7020 C   0  0  0  0  0  3  0  0  0  0  0  0
  185.4840  179.3340  145.6030 C   0  0  0  0  0  2  0  0  0  0  0  0
  185.2650  179.1690  147.0950 C   0  0  0  0  0  2  0  0  0  0  0  0
  186.3570  179.8980  147.8470 C   0  0  0  0  0  1  0  0  0  0  0  0
  1  4  2  0  0  0  0
  2  5  1  0  0  0  0
  3 17  1  0  0  0  0
  3  1  1  0  0  0  0
  4 10  1  0  0  0  0
  4  2  1  0  0  0  0
  5 11  2  0  0  0  0
  6 18  2  0  0  0  0
  7  2  1  0  0  0  0
  7 15  2  0  0  0  0
  9 11  1  0  0  0  0
  9  8  2  0  0  0  0
 10 16  1  0  0  0  0
 12 10  1  0  0  0  0
 13  7  1  0  0  0  0
 14  1  1  0  0  0  0
 14 13  2  0  0  0  0
 15 19  1  0  0  0  0
 15  9  1  0  0  0  0
 16  5  1  0  0  0  0
 16 30  1  1  0  0  0
 17 12  1  0  0  0  0
 18  8  1  0  0  0  0
 19  6  1  0  0  0  0
 20 25  1  0  0  0  0
 21 20  2  0  0  0  0
 22 24  1  0  0  0  0
 23 27  1  0  0  0  0
 23 20  1  0  0  0  0
 24 14  1  1  0  0  0
 25 24  1  0  0  0  0
 25 26  1  0  0  0  0
 27 29  1  6  0  0  0
 27 22  1  0  0  0  0
 29 28  2  0  0  0  0
 30 31  1  0  0  0  0
 31 32  1  0  0  0  0
M  END
>  <MODEL>
8

>  <REMARK>
 VINA RESULT:      -7.9      2.088      6.579
  Name = 
  4 active torsions:
  status: ('A' for Active; 'I' for Inactive)
    1  A    between atoms: C_13  and  C_18
    2  A    between atoms: C_15  and  C_26
    3  A    between atoms: C_18  and  C_29
    4  A    between atoms: C_20  and  C_27
                            x       y       z     vdW  Elec       q    Type
                         _______ _______ _______ _____ _____    ______ ____

>  <TORSDO>
F 4

$$$$
=
 OpenBabel10272413123D

 32 37  0  0  1  0  0  0  0  0999 V2000
  185.6090  178.0800  137.8400 C   0  0  0  0  0  0  0  0  0  0  0  0
  187.2980  178.6020  139.4400 N   0  0  0  0  0  0  0  0  0  0  0  0
  185.2550  177.4390  136.5170 C   0  0  0  0  0  2  0  0  0  0  0  0
  186.8980  178.2630  138.1430 C   0  0  0  0  0  0  0  0  0  0  0  0
  188.6200  178.1220  139.5640 C   0  0  0  0  0  0  0  0  0  0  0  0
  186.5130  177.6340  144.0410 C   0  0  0  0  0  3  0  0  0  0  0  0
  186.3750  178.5300  140.5110 C   0  0  0  0  0  0  0  0  0  0  0  0
  188.8090  177.5900  143.1630 C   0  0  0  0  0  3  0  0  0  0  0  0
  188.3830  178.3560  141.9400 C   0  0  1  0  0  3  0  0  0  0  0  0
  187.9670  177.7430  137.3640 N   0  0  0  0  0  0  0  0  0  0  0  0
  189.1170  177.8960  140.7450 N   0  0  0  0  0  0  0  0  0  0  0  0
  187.7240  177.0450  136.1040 C   0  0  0  0  0  2  0  0  0  0  0  0
  184.9790  178.4360  140.1810 N   0  0  0  0  0  0  0  0  0  0  0  0
  184.5940  178.2650  138.9380 C   0  0  0  0  0  0  0  0  0  0  0  0
  186.8640  178.3410  141.7450 C   0  0  0  0  0  0  0  0  0  0  0  0
  189.1300  177.5600  138.2540 C   0  0  2  0  0  3  0  0  0  0  0  0
  186.4020  177.5280  135.4940 C   0  0  0  0  0  2  0  0  0  0  0  0
  187.9480  177.2980  144.1440 C   0  0  0  0  0  3  0  0  0  0  0  0
  185.9910  178.1120  142.9080 C   0  0  0  0  0  3  0  0  0  0  0  0
  181.2630  176.7940  139.7370 C   0  0  0  0  0  0  0  0  0  0  0  0
  180.7610  175.6730  140.0200 O   0  0  0  0  0  0  0  0  0  0  0  0
  182.4000  179.3750  139.2470 C   0  0  0  0  0  2  0  0  0  0  0  0
  180.5050  178.0320  140.0940 C   0  0  0  0  0  2  0  0  0  0  0  0
  183.1210  178.1580  138.6630 C   0  0  2  0  0  3  0  0  0  0  0  0
  182.5680  176.8760  139.1330 N   0  0  0  0  0  0  0  0  0  0  0  0
  183.2210  175.6420  138.7090 C   0  0  0  0  0  1  0  0  0  0  0  0
  180.8960  179.1830  139.1770 C   0  0  1  0  0  3  0  0  0  0  0  0
  179.9840  180.6840  140.8960 C   0  0  0  0  0  2  0  0  0  0  0  0
  180.2160  180.4400  139.6070 C   0  0  0  0  0  3  0  0  0  0  0  0
  189.4490  176.0750  138.3980 C   0  0  0  0  0  2  0  0  0  0  0  0
  190.9330  175.8340  138.1960 C   0  0  0  0  0  2  0  0  0  0  0  0
  191.2320  175.7470  136.7150 C   0  0  0  0  0  1  0  0  0  0  0  0
  1  4  2  0  0  0  0
  1 14  1  0  0  0  0
  2  5  1  0  0  0  0
  2  7  1  0  0  0  0
  3  1  1  0  0  0  0
  4  2  1  0  0  0  0
  5 11  2  0  0  0  0
  6 18  1  0  0  0  0
  7 15  2  0  0  0  0
  8 18  2  0  0  0  0
  9  8  1  1  0  0  0
 10  4  1  0  0  0  0
 10 16  1  0  0  0  0
 11  9  1  0  0  0  0
 12 10  1  0  0  0  0
 13  7  1  0  0  0  0
 14 13  2  0  0  0  0
 15  9  1  0  0  0  0
 15 19  1  0  0  0  0
 16 30  1  1  0  0  0
 16  5  1  0  0  0  0
 17 12  1  0  0  0  0
 17  3  1  0  0  0  0
 19  6  2  0  0  0  0
 20 21  2  0  0  0  0
 20 23  1  0  0  0  0
 24 14  1  1  0  0  0
 24 25  1  0  0  0  0
 24 22  1  0  0  0  0
 25 20  1  0  0  0  0
 26 25  1  0  0  0  0
 27 22  1  0  0  0  0
 27 29  1  1  0  0  0
 27 23  1  0  0  0  0
 29 28  2  0  0  0  0
 31 30  1  0  0  0  0
 32 31  1  0  0  0  0
M  END
>  <MODEL>
9

>  <REMARK>
 VINA RESULT:      -7.8      2.984      7.785
  Name = 
  4 active torsions:
  status: ('A' for Active; 'I' for Inactive)
    1  A    between atoms: C_13  and  C_18
    2  A    between atoms: C_15  and  C_26
    3  A    between atoms: C_18  and  C_29
    4  A    between atoms: C_20  and  C_27
                            x       y       z     vdW  Elec       q    Type
                         _______ _______ _______ _____ _____    ______ ____

>  <TORSDO>
F 4

$$$$
