=
 OpenBabel10272413393D

 32 31  0  0  1  0  0  0  0  0999 V2000
  188.5250  177.8000  140.4460 C   0  0  2  0  0  3  0  0  0  0  0  0
  189.6200  176.9460  140.9420 N   0  0  0  0  0  0  0  0  0  0  0  0
  190.7770  175.8250  139.2470 O   0  0  0  0  0  1  0  0  0  0  0  0
  190.7470  176.9930  140.0100 C   0  0  0  0  0  2  0  0  0  0  0  0
  190.0920  177.3980  142.2620 C   0  0  0  0  0  2  0  0  0  0  0  0
  191.5630  177.0640  142.5260 C   0  0  0  0  0  2  0  0  0  0  0  0
  191.6700  176.2100  143.6950 N   0  0  0  0  0  2  0  0  0  0  0  0
  191.0570  176.9260  144.8000 C   0  0  0  0  0  2  0  0  0  0  0  0
  191.7090  176.5010  146.0990 C   0  0  0  0  0  1  0  0  0  0  0  0
  188.9280  178.5570  139.1710 C   0  0  0  0  0  2  0  0  0  0  0  0
  187.7750  178.7900  138.3120 N   0  0  0  0  0  0  0  0  0  0  0  0
  188.2470  179.3340  137.1620 O   0  0  0  0  0  0  0  0  0  0  0  0
  189.2440  178.4560  136.7310 C   0  0  0  0  0  1  0  0  0  0  0  0
  187.2400  177.4810  137.9730 C   0  0  0  0  0  2  0  0  0  0  0  0
  185.9190  177.6100  137.5450 O   0  0  0  0  0  0  0  0  0  0  0  0
  185.2390  178.1140  138.6550 C   0  0  0  0  0  2  0  0  0  0  0  0
  183.9620  178.6790  138.2360 N   0  0  0  0  0  0  0  0  0  0  0  0
  183.4610  179.5160  139.3160 C   0  0  0  0  0  1  0  0  0  0  0  0
  182.9920  177.6120  137.9410 C   0  0  0  0  0  2  0  0  0  0  0  0
  183.0540  175.3710  138.8070 O   0  0  0  0  0  1  0  0  0  0  0  0
  182.7000  176.6830  139.1240 C   0  0  0  0  0  2  0  0  0  0  0  0
  188.0720  178.7990  141.5130 C   0  0  0  0  0  2  0  0  0  0  0  0
  186.6870  178.9530  141.4630 O   0  0  0  0  0  0  0  0  0  0  0  0
  186.2020  178.1010  142.4550 C   0  0  0  0  0  2  0  0  0  0  0  0
  184.7910  178.5120  142.8490 C   0  0  0  0  0  2  0  0  0  0  0  0
  184.6810  178.7170  144.3510 C   0  0  0  0  0  2  0  0  0  0  0  0
  185.8070  178.0900  145.0240 N   0  0  0  0  0  2  0  0  0  0  0  0
  186.1740  178.4290  146.3610 C   0  0  0  0  0  0  0  0  0  0  0  0
  187.2850  177.7720  146.9690 N   0  0  0  0  0  2  0  0  0  0  0  0
  185.5200  179.2980  147.0000 O   0  0  0  0  0  0  0  0  0  0  0  0
  187.7080  178.0700  148.3270 C   0  0  0  0  0  2  0  0  0  0  0  0
  189.2180  178.1640  148.3770 C   0  0  0  0  0  1  0  0  0  0  0  0
  1 10  1  6  0  0  0
  1  2  1  0  0  0  0
  1 22  1  0  0  0  0
  2  5  1  0  0  0  0
  3  4  1  0  0  0  0
  4  2  1  0  0  0  0
  5  6  1  0  0  0  0
  6  7  1  0  0  0  0
  7  8  1  0  0  0  0
  8  9  1  0  0  0  0
 11 10  1  0  0  0  0
 12 11  1  0  0  0  0
 13 12  1  0  0  0  0
 14 11  1  0  0  0  0
 15 14  1  0  0  0  0
 15 16  1  0  0  0  0
 17 16  1  0  0  0  0
 17 18  1  0  0  0  0
 19 17  1  0  0  0  0
 19 21  1  0  0  0  0
 20 21  1  0  0  0  0
 23 22  1  0  0  0  0
 23 24  1  0  0  0  0
 24 25  1  0  0  0  0
 25 26  1  0  0  0  0
 26 27  1  0  0  0  0
 27 28  1  0  0  0  0
 28 29  1  0  0  0  0
 28 30  2  0  0  0  0
 29 31  1  0  0  0  0
 31 32  1  0  0  0  0
M  END
>  <MODEL>
1

>  <REMARK>
 VINA RESULT:      -5.6      0.000      0.000
  Name = 
  22 active torsions:
  status: ('A' for Active; 'I' for Inactive)
    1  A    between atoms: C_1  and  N_20
    2  A    between atoms: C_2  and  C_12
    3  A    between atoms: C_2  and  O_23
    4  A    between atoms: N_4  and  C_5
    5  A    between atoms: N_4  and  C_15
    6  A    between atoms: O_6  and  N_31
    7  A    between atoms: C_8  and  O_23
    8  A    between atoms: C_8  and  C_28
    9  A    between atoms: C_9  and  N_10
   10  A    between atoms: C_9  and  C_12
   11  A    between atoms: N_11  and  C_18
   12  A    between atoms: N_11  and  C_32
   13  A    between atoms: C_13  and  C_28
   14  A    between atoms: C_13  and  N_31
   15  A    between atoms: N_14  and  C_21
   16  A    between atoms: N_14  and  C_26
   17  A    between atoms: N_14  and  C_28
   18  A    between atoms: C_15  and  C_26
   19  A    between atoms: C_16  and  O_27
   20  A    between atoms: C_16  and  N_31
   21  A    between atoms: C_18  and  C_22
   22  A    between atoms: O_27  and  C_32
                            x       y       z     vdW  Elec       q    Type
                         _______ _______ _______ _____ _____    ______ ____

>  <TORSDO>
F 22

$$$$
=
 OpenBabel10272413393D

 32 31  0  0  1  0  0  0  0  0999 V2000
  189.0330  177.3810  140.8130 C   0  0  2  0  0  3  0  0  0  0  0  0
  190.3030  176.8090  141.2960 N   0  0  0  0  0  0  0  0  0  0  0  0
  192.3480  177.1520  140.2130 O   0  0  0  0  0  1  0  0  0  0  0  0
  191.3970  177.7470  141.0440 C   0  0  0  0  0  2  0  0  0  0  0  0
  190.2510  176.5370  142.7420 C   0  0  0  0  0  2  0  0  0  0  0  0
  191.5630  176.8510  143.4650 C   0  0  0  0  0  2  0  0  0  0  0  0
  191.8000  175.8620  144.5010 N   0  0  0  0  0  2  0  0  0  0  0  0
  191.5540  176.5150  145.7750 C   0  0  0  0  0  2  0  0  0  0  0  0
  192.2020  175.7160  146.8860 C   0  0  0  0  0  1  0  0  0  0  0  0
  189.2040  178.0820  139.4570 C   0  0  0  0  0  2  0  0  0  0  0  0
  188.2870  177.5370  138.4650 N   0  0  0  0  0  0  0  0  0  0  0  0
  187.4450  178.5410  138.1160 O   0  0  0  0  0  0  0  0  0  0  0  0
  186.2130  177.9200  137.9020 C   0  0  0  0  0  1  0  0  0  0  0  0
  189.0860  177.2260  137.2900 C   0  0  0  0  0  2  0  0  0  0  0  0
  190.4270  177.1060  137.6530 O   0  0  0  0  0  0  0  0  0  0  0  0
  190.7560  175.7850  137.3450 C   0  0  0  0  0  2  0  0  0  0  0  0
  191.7060  175.7580  136.2400 N   0  0  0  0  0  0  0  0  0  0  0  0
  191.8460  174.3780  135.7960 C   0  0  0  0  0  1  0  0  0  0  0  0
  193.0140  176.2800  136.6640 C   0  0  0  0  0  2  0  0  0  0  0  0
  194.5600  175.5630  138.3590 O   0  0  0  0  0  1  0  0  0  0  0  0
  193.9980  175.2030  137.1330 C   0  0  0  0  0  2  0  0  0  0  0  0
  188.4460  178.3640  141.8280 C   0  0  0  0  0  2  0  0  0  0  0  0
  187.1920  178.8000  141.4000 O   0  0  0  0  0  0  0  0  0  0  0  0
  186.2850  178.0280  142.1250 C   0  0  0  0  0  2  0  0  0  0  0  0
  185.1260  178.8940  142.5960 C   0  0  0  0  0  2  0  0  0  0  0  0
  184.7350  178.5530  144.0250 C   0  0  0  0  0  2  0  0  0  0  0  0
  185.8940  178.0670  144.7570 N   0  0  0  0  0  2  0  0  0  0  0  0
  186.1430  178.4420  146.1110 C   0  0  0  0  0  0  0  0  0  0  0  0
  187.2950  177.9260  146.7780 N   0  0  0  0  0  2  0  0  0  0  0  0
  185.3530  179.2180  146.7140 O   0  0  0  0  0  0  0  0  0  0  0  0
  187.6050  178.2650  148.1560 C   0  0  0  0  0  2  0  0  0  0  0  0
  189.0860  178.0780  148.4020 C   0  0  0  0  0  1  0  0  0  0  0  0
  1 10  1  6  0  0  0
  1  2  1  0  0  0  0
  1 22  1  0  0  0  0
  2  5  1  0  0  0  0
  3  4  1  0  0  0  0
  4  2  1  0  0  0  0
  5  6  1  0  0  0  0
  6  7  1  0  0  0  0
  7  8  1  0  0  0  0
  8  9  1  0  0  0  0
 11 10  1  0  0  0  0
 12 11  1  0  0  0  0
 13 12  1  0  0  0  0
 14 15  1  0  0  0  0
 14 11  1  0  0  0  0
 16 15  1  0  0  0  0
 17 19  1  0  0  0  0
 17 16  1  0  0  0  0
 18 17  1  0  0  0  0
 19 21  1  0  0  0  0
 21 20  1  0  0  0  0
 23 22  1  0  0  0  0
 23 24  1  0  0  0  0
 24 25  1  0  0  0  0
 25 26  1  0  0  0  0
 26 27  1  0  0  0  0
 27 28  1  0  0  0  0
 28 30  2  0  0  0  0
 28 29  1  0  0  0  0
 29 31  1  0  0  0  0
 31 32  1  0  0  0  0
M  END
>  <MODEL>
2

>  <REMARK>
 VINA RESULT:      -5.2      2.099      4.489
  Name = 
  22 active torsions:
  status: ('A' for Active; 'I' for Inactive)
    1  A    between atoms: C_1  and  N_20
    2  A    between atoms: C_2  and  C_12
    3  A    between atoms: C_2  and  O_23
    4  A    between atoms: N_4  and  C_5
    5  A    between atoms: N_4  and  C_15
    6  A    between atoms: O_6  and  N_31
    7  A    between atoms: C_8  and  O_23
    8  A    between atoms: C_8  and  C_28
    9  A    between atoms: C_9  and  N_10
   10  A    between atoms: C_9  and  C_12
   11  A    between atoms: N_11  and  C_18
   12  A    between atoms: N_11  and  C_32
   13  A    between atoms: C_13  and  C_28
   14  A    between atoms: C_13  and  N_31
   15  A    between atoms: N_14  and  C_21
   16  A    between atoms: N_14  and  C_26
   17  A    between atoms: N_14  and  C_28
   18  A    between atoms: C_15  and  C_26
   19  A    between atoms: C_16  and  O_27
   20  A    between atoms: C_16  and  N_31
   21  A    between atoms: C_18  and  C_22
   22  A    between atoms: O_27  and  C_32
                            x       y       z     vdW  Elec       q    Type
                         _______ _______ _______ _____ _____    ______ ____

>  <TORSDO>
F 22

$$$$
=
 OpenBabel10272413393D

 32 31  0  0  1  0  0  0  0  0999 V2000
  189.9850  176.7570  139.0380 C   0  0  2  0  0  3  0  0  0  0  0  0
  190.8480  175.6610  138.5610 N   0  0  0  0  0  0  0  0  0  0  0  0
  190.0740  173.7240  137.5040 O   0  0  0  0  0  1  0  0  0  0  0  0
  190.2940  175.0910  137.3330 C   0  0  0  0  0  2  0  0  0  0  0  0
  192.2110  176.1410  138.2750 C   0  0  0  0  0  2  0  0  0  0  0  0
  193.0600  175.1280  137.5020 C   0  0  0  0  0  2  0  0  0  0  0  0
  194.4590  175.5080  137.5700 N   0  0  0  0  0  2  0  0  0  0  0  0
  195.0250  175.2790  136.2530 C   0  0  0  0  0  2  0  0  0  0  0  0
  194.3630  176.2020  135.2520 C   0  0  0  0  0  1  0  0  0  0  0  0
  189.5830  177.7020  137.8950 C   0  0  0  0  0  2  0  0  0  0  0  0
  188.6130  178.6910  138.3470 N   0  0  0  0  0  0  0  0  0  0  0  0
  188.3100  179.4620  137.2740 O   0  0  0  0  0  0  0  0  0  0  0  0
  187.8320  178.5680  136.3130 C   0  0  0  0  0  1  0  0  0  0  0  0
  187.4070  177.9580  138.6980 C   0  0  0  0  0  2  0  0  0  0  0  0
  186.6740  178.6830  139.6370 O   0  0  0  0  0  0  0  0  0  0  0  0
  185.3500  178.5760  139.2070 C   0  0  0  0  0  2  0  0  0  0  0  0
  184.4710  178.4010  140.3560 N   0  0  0  0  0  0  0  0  0  0  0  0
  183.2210  179.0950  140.0800 C   0  0  0  0  0  1  0  0  0  0  0  0
  185.0890  178.9510  141.5730 C   0  0  0  0  0  2  0  0  0  0  0  0
  184.6770  179.7880  143.7880 O   0  0  0  0  0  1  0  0  0  0  0  0
  184.1740  178.9380  142.8020 C   0  0  0  0  0  2  0  0  0  0  0  0
  190.6670  177.5580  140.1490 C   0  0  0  0  0  2  0  0  0  0  0  0
  189.8530  177.5900  141.2820 O   0  0  0  0  0  0  0  0  0  0  0  0
  190.3130  176.5390  142.0750 C   0  0  0  0  0  2  0  0  0  0  0  0
  191.6080  176.9380  142.7660 C   0  0  0  0  0  2  0  0  0  0  0  0
  191.3750  178.0740  143.7480 C   0  0  0  0  0  2  0  0  0  0  0  0
  191.1740  177.5430  145.0870 N   0  0  0  0  0  2  0  0  0  0  0  0
  189.8940  177.5460  145.7170 C   0  0  0  0  0  0  0  0  0  0  0  0
  189.7610  177.0040  147.0310 N   0  0  0  0  0  2  0  0  0  0  0  0
  188.8900  178.0200  145.1190 O   0  0  0  0  0  0  0  0  0  0  0  0
  188.4850  176.9750  147.7270 C   0  0  0  0  0  2  0  0  0  0  0  0
  188.4140  178.1320  148.7000 C   0  0  0  0  0  1  0  0  0  0  0  0
  1 10  1  6  0  0  0
  1 22  1  0  0  0  0
  2  1  1  0  0  0  0
  4  3  1  0  0  0  0
  4  2  1  0  0  0  0
  5  2  1  0  0  0  0
  6  7  1  0  0  0  0
  6  5  1  0  0  0  0
  8  7  1  0  0  0  0
  9  8  1  0  0  0  0
 10 11  1  0  0  0  0
 11 14  1  0  0  0  0
 12 11  1  0  0  0  0
 13 12  1  0  0  0  0
 14 15  1  0  0  0  0
 16 15  1  0  0  0  0
 16 17  1  0  0  0  0
 17 19  1  0  0  0  0
 18 17  1  0  0  0  0
 19 21  1  0  0  0  0
 21 20  1  0  0  0  0
 22 23  1  0  0  0  0
 23 24  1  0  0  0  0
 24 25  1  0  0  0  0
 25 26  1  0  0  0  0
 26 27  1  0  0  0  0
 27 28  1  0  0  0  0
 28 29  1  0  0  0  0
 29 31  1  0  0  0  0
 30 28  2  0  0  0  0
 31 32  1  0  0  0  0
M  END
>  <MODEL>
3

>  <REMARK>
 VINA RESULT:      -5.2      2.672      4.543
  Name = 
  22 active torsions:
  status: ('A' for Active; 'I' for Inactive)
    1  A    between atoms: C_1  and  N_20
    2  A    between atoms: C_2  and  C_12
    3  A    between atoms: C_2  and  O_23
    4  A    between atoms: N_4  and  C_5
    5  A    between atoms: N_4  and  C_15
    6  A    between atoms: O_6  and  N_31
    7  A    between atoms: C_8  and  O_23
    8  A    between atoms: C_8  and  C_28
    9  A    between atoms: C_9  and  N_10
   10  A    between atoms: C_9  and  C_12
   11  A    between atoms: N_11  and  C_18
   12  A    between atoms: N_11  and  C_32
   13  A    between atoms: C_13  and  C_28
   14  A    between atoms: C_13  and  N_31
   15  A    between atoms: N_14  and  C_21
   16  A    between atoms: N_14  and  C_26
   17  A    between atoms: N_14  and  C_28
   18  A    between atoms: C_15  and  C_26
   19  A    between atoms: C_16  and  O_27
   20  A    between atoms: C_16  and  N_31
   21  A    between atoms: C_18  and  C_22
   22  A    between atoms: O_27  and  C_32
                            x       y       z     vdW  Elec       q    Type
                         _______ _______ _______ _____ _____    ______ ____

>  <TORSDO>
F 22

$$$$
=
 OpenBabel10272413393D

 32 31  0  0  1  0  0  0  0  0999 V2000
  188.5290  177.3140  140.9880 C   0  0  2  0  0  3  0  0  0  0  0  0
  189.7880  177.1950  141.7480 N   0  0  0  0  0  0  0  0  0  0  0  0
  192.1010  177.4710  141.5370 O   0  0  0  0  0  1  0  0  0  0  0  0
  190.9250  177.2170  140.8280 C   0  0  0  0  0  2  0  0  0  0  0  0
  189.9420  178.3060  142.7020 C   0  0  0  0  0  2  0  0  0  0  0  0
  189.7930  177.8730  144.1630 C   0  0  0  0  0  2  0  0  0  0  0  0
  191.0460  177.3130  144.6380 N   0  0  0  0  0  2  0  0  0  0  0  0
  190.8230  176.8730  146.0040 C   0  0  0  0  0  2  0  0  0  0  0  0
  192.0270  176.0930  146.4860 C   0  0  0  0  0  1  0  0  0  0  0  0
  188.7830  177.3930  139.4760 C   0  0  0  0  0  2  0  0  0  0  0  0
  188.0540  178.5040  138.8780 N   0  0  0  0  0  0  0  0  0  0  0  0
  188.9820  179.3840  138.4270 O   0  0  0  0  0  0  0  0  0  0  0  0
  189.1480  179.0720  137.0760 C   0  0  0  0  0  1  0  0  0  0  0  0
  187.3720  177.9710  137.7100 C   0  0  0  0  0  2  0  0  0  0  0  0
  187.0950  176.6180  137.9050 O   0  0  0  0  0  0  0  0  0  0  0  0
  186.8460  176.1230  136.6250 C   0  0  0  0  0  2  0  0  0  0  0  0
  188.0970  175.7030  136.0060 N   0  0  0  0  0  0  0  0  0  0  0  0
  187.8380  175.4330  134.5980 C   0  0  0  0  0  1  0  0  0  0  0  0
  188.6190  174.4920  136.6580 C   0  0  0  0  0  2  0  0  0  0  0  0
  190.9690  174.6960  136.1920 O   0  0  0  0  0  1  0  0  0  0  0  0
  190.0340  174.6460  137.2270 C   0  0  0  0  0  2  0  0  0  0  0  0
  187.7230  178.5340  141.4380 C   0  0  0  0  0  2  0  0  0  0  0  0
  186.6210  178.1270  142.1900 O   0  0  0  0  0  0  0  0  0  0  0  0
  185.6100  179.0240  141.8470 C   0  0  0  0  0  2  0  0  0  0  0  0
  185.0400  179.6690  143.1020 C   0  0  0  0  0  2  0  0  0  0  0  0
  184.4770  178.6190  144.0470 C   0  0  0  0  0  2  0  0  0  0  0  0
  185.0400  178.7910  145.3770 N   0  0  0  0  0  2  0  0  0  0  0  0
  186.1160  177.9830  145.8520 C   0  0  0  0  0  0  0  0  0  0  0  0
  186.6290  178.2050  147.1650 N   0  0  0  0  0  2  0  0  0  0  0  0
  186.6100  177.0830  145.1190 O   0  0  0  0  0  0  0  0  0  0  0  0
  187.7240  177.4190  147.7080 C   0  0  0  0  0  2  0  0  0  0  0  0
  188.5560  178.2810  148.6330 C   0  0  0  0  0  1  0  0  0  0  0  0
  1 10  1  6  0  0  0
  1 22  1  0  0  0  0
  1  2  1  0  0  0  0
  2  5  1  0  0  0  0
  4  3  1  0  0  0  0
  4  2  1  0  0  0  0
  5  6  1  0  0  0  0
  6  7  1  0  0  0  0
  7  8  1  0  0  0  0
  8  9  1  0  0  0  0
 11 10  1  0  0  0  0
 12 11  1  0  0  0  0
 13 12  1  0  0  0  0
 14 15  1  0  0  0  0
 14 11  1  0  0  0  0
 16 15  1  0  0  0  0
 17 16  1  0  0  0  0
 17 19  1  0  0  0  0
 18 17  1  0  0  0  0
 19 21  1  0  0  0  0
 20 21  1  0  0  0  0
 22 23  1  0  0  0  0
 24 23  1  0  0  0  0
 24 25  1  0  0  0  0
 25 26  1  0  0  0  0
 26 27  1  0  0  0  0
 27 28  1  0  0  0  0
 28 29  1  0  0  0  0
 29 31  1  0  0  0  0
 30 28  2  0  0  0  0
 31 32  1  0  0  0  0
M  END
>  <MODEL>
4

>  <REMARK>
 VINA RESULT:      -5.0      2.081      3.178
  Name = 
  22 active torsions:
  status: ('A' for Active; 'I' for Inactive)
    1  A    between atoms: C_1  and  N_20
    2  A    between atoms: C_2  and  C_12
    3  A    between atoms: C_2  and  O_23
    4  A    between atoms: N_4  and  C_5
    5  A    between atoms: N_4  and  C_15
    6  A    between atoms: O_6  and  N_31
    7  A    between atoms: C_8  and  O_23
    8  A    between atoms: C_8  and  C_28
    9  A    between atoms: C_9  and  N_10
   10  A    between atoms: C_9  and  C_12
   11  A    between atoms: N_11  and  C_18
   12  A    between atoms: N_11  and  C_32
   13  A    between atoms: C_13  and  C_28
   14  A    between atoms: C_13  and  N_31
   15  A    between atoms: N_14  and  C_21
   16  A    between atoms: N_14  and  C_26
   17  A    between atoms: N_14  and  C_28
   18  A    between atoms: C_15  and  C_26
   19  A    between atoms: C_16  and  O_27
   20  A    between atoms: C_16  and  N_31
   21  A    between atoms: C_18  and  C_22
   22  A    between atoms: O_27  and  C_32
                            x       y       z     vdW  Elec       q    Type
                         _______ _______ _______ _____ _____    ______ ____

>  <TORSDO>
F 22

$$$$
=
 OpenBabel10272413393D

 32 31  0  0  1  0  0  0  0  0999 V2000
  187.2690  178.3530  140.6980 C   0  0  2  0  0  3  0  0  0  0  0  0
  186.1230  179.2800  140.7500 N   0  0  0  0  0  0  0  0  0  0  0  0
  184.5470  179.9430  139.1550 O   0  0  0  0  0  1  0  0  0  0  0  0
  185.0870  178.8390  139.8160 C   0  0  0  0  0  2  0  0  0  0  0  0
  185.5380  179.3300  142.1000 C   0  0  0  0  0  2  0  0  0  0  0  0
  184.3910  178.3350  142.3010 C   0  0  0  0  0  2  0  0  0  0  0  0
  184.0150  178.2970  143.7020 N   0  0  0  0  0  2  0  0  0  0  0  0
  184.8940  179.2190  144.4020 C   0  0  0  0  0  2  0  0  0  0  0  0
  185.0440  178.7770  145.8420 C   0  0  0  0  0  1  0  0  0  0  0  0
  188.4630  178.8810  141.5080 C   0  0  0  0  0  2  0  0  0  0  0  0
  188.7070  178.0550  142.6830 N   0  0  0  0  0  0  0  0  0  0  0  0
  188.0740  176.8750  142.4710 O   0  0  0  0  0  0  0  0  0  0  0  0
  187.4890  176.5540  143.6970 C   0  0  0  0  0  1  0  0  0  0  0  0
  190.1330  177.7740  142.7040 C   0  0  0  0  0  2  0  0  0  0  0  0
  190.6780  178.2060  143.9130 O   0  0  0  0  0  0  0  0  0  0  0  0
  191.1190  177.0380  144.5360 C   0  0  0  0  0  2  0  0  0  0  0  0
  191.0600  177.1980  145.9840 N   0  0  0  0  0  0  0  0  0  0  0  0
  191.8970  176.1720  146.5880 C   0  0  0  0  0  1  0  0  0  0  0  0
  189.6760  177.0610  146.4660 C   0  0  0  0  0  2  0  0  0  0  0  0
  188.0870  177.5690  148.1960 O   0  0  0  0  0  1  0  0  0  0  0  0
  189.4440  177.6170  147.8750 C   0  0  0  0  0  2  0  0  0  0  0  0
  187.7040  178.0890  139.2550 C   0  0  0  0  0  2  0  0  0  0  0  0
  188.5250  176.9620  139.2040 O   0  0  0  0  0  0  0  0  0  0  0  0
  189.3720  177.1930  138.1200 C   0  0  0  0  0  2  0  0  0  0  0  0
  190.2180  175.9580  137.8490 C   0  0  0  0  0  2  0  0  0  0  0  0
  191.2380  176.2250  136.7550 C   0  0  0  0  0  2  0  0  0  0  0  0
  192.2310  175.1620  136.7280 N   0  0  0  0  0  2  0  0  0  0  0  0
  193.6100  175.4100  136.9960 C   0  0  0  0  0  0  0  0  0  0  0  0
  194.5350  174.3230  136.9610 N   0  0  0  0  0  2  0  0  0  0  0  0
  194.0090  176.5770  137.2630 O   0  0  0  0  0  0  0  0  0  0  0  0
  195.9520  174.5070  137.2260 C   0  0  0  0  0  2  0  0  0  0  0  0
  196.3600  173.6520  138.4060 C   0  0  0  0  0  1  0  0  0  0  0  0
  1 22  1  6  0  0  0
  1  2  1  0  0  0  0
  1 10  1  0  0  0  0
  2  5  1  0  0  0  0
  3  4  1  0  0  0  0
  4  2  1  0  0  0  0
  5  6  1  0  0  0  0
  6  7  1  0  0  0  0
  7  8  1  0  0  0  0
  8  9  1  0  0  0  0
 10 11  1  0  0  0  0
 11 14  1  0  0  0  0
 12 11  1  0  0  0  0
 12 13  1  0  0  0  0
 14 15  1  0  0  0  0
 15 16  1  0  0  0  0
 16 17  1  0  0  0  0
 17 19  1  0  0  0  0
 17 18  1  0  0  0  0
 19 21  1  0  0  0  0
 21 20  1  0  0  0  0
 23 22  1  0  0  0  0
 24 23  1  0  0  0  0
 25 24  1  0  0  0  0
 26 25  1  0  0  0  0
 27 26  1  0  0  0  0
 27 28  1  0  0  0  0
 28 30  2  0  0  0  0
 29 28  1  0  0  0  0
 29 31  1  0  0  0  0
 31 32  1  0  0  0  0
M  END
>  <MODEL>
5

>  <REMARK>
 VINA RESULT:      -4.9      3.150      8.718
  Name = 
  22 active torsions:
  status: ('A' for Active; 'I' for Inactive)
    1  A    between atoms: C_1  and  N_20
    2  A    between atoms: C_2  and  C_12
    3  A    between atoms: C_2  and  O_23
    4  A    between atoms: N_4  and  C_5
    5  A    between atoms: N_4  and  C_15
    6  A    between atoms: O_6  and  N_31
    7  A    between atoms: C_8  and  O_23
    8  A    between atoms: C_8  and  C_28
    9  A    between atoms: C_9  and  N_10
   10  A    between atoms: C_9  and  C_12
   11  A    between atoms: N_11  and  C_18
   12  A    between atoms: N_11  and  C_32
   13  A    between atoms: C_13  and  C_28
   14  A    between atoms: C_13  and  N_31
   15  A    between atoms: N_14  and  C_21
   16  A    between atoms: N_14  and  C_26
   17  A    between atoms: N_14  and  C_28
   18  A    between atoms: C_15  and  C_26
   19  A    between atoms: C_16  and  O_27
   20  A    between atoms: C_16  and  N_31
   21  A    between atoms: C_18  and  C_22
   22  A    between atoms: O_27  and  C_32
                            x       y       z     vdW  Elec       q    Type
                         _______ _______ _______ _____ _____    ______ ____

>  <TORSDO>
F 22

$$$$
=
 OpenBabel10272413393D

 32 31  0  0  1  0  0  0  0  0999 V2000
  189.4550  177.3330  140.4940 C   0  0  2  0  0  3  0  0  0  0  0  0
  188.6350  178.4790  140.0610 N   0  0  0  0  0  0  0  0  0  0  0  0
  187.8780  178.7840  137.8700 O   0  0  0  0  0  1  0  0  0  0  0  0
  188.9990  178.8620  138.6970 C   0  0  0  0  0  2  0  0  0  0  0  0
  187.2010  178.1470  140.0820 C   0  0  0  0  0  2  0  0  0  0  0  0
  186.4280  178.8700  141.1880 C   0  0  0  0  0  2  0  0  0  0  0  0
  185.2090  179.4390  140.6420 N   0  0  0  0  0  2  0  0  0  0  0  0
  184.1060  178.6360  141.1400 C   0  0  0  0  0  2  0  0  0  0  0  0
  184.2190  178.5010  142.6440 C   0  0  0  0  0  1  0  0  0  0  0  0
  189.8880  177.4660  141.9620 C   0  0  0  0  0  2  0  0  0  0  0  0
  189.7040  176.2110  142.6800 N   0  0  0  0  0  0  0  0  0  0  0  0
  190.5580  176.2330  143.7330 O   0  0  0  0  0  0  0  0  0  0  0  0
  191.6380  177.0070  143.3040 C   0  0  0  0  0  1  0  0  0  0  0  0
  188.3570  176.2410  143.2260 C   0  0  0  0  0  2  0  0  0  0  0  0
  188.3030  177.1330  144.2960 O   0  0  0  0  0  0  0  0  0  0  0  0
  186.9450  177.2360  144.6000 C   0  0  0  0  0  2  0  0  0  0  0  0
  186.7760  177.4950  146.0240 N   0  0  0  0  0  0  0  0  0  0  0  0
  185.7500  178.5160  146.1810 C   0  0  0  0  0  1  0  0  0  0  0  0
  188.0380  177.9590  146.6220 C   0  0  0  0  0  2  0  0  0  0  0  0
  189.8570  176.5170  147.2450 O   0  0  0  0  0  1  0  0  0  0  0  0
  188.6230  177.0080  147.6720 C   0  0  0  0  0  2  0  0  0  0  0  0
  190.6920  177.1690  139.6080 C   0  0  0  0  0  2  0  0  0  0  0  0
  190.7690  175.8580  139.1350 O   0  0  0  0  0  0  0  0  0  0  0  0
  191.3290  175.9760  137.8630 C   0  0  0  0  0  2  0  0  0  0  0  0
  192.8450  175.9060  137.9550 C   0  0  0  0  0  2  0  0  0  0  0  0
  193.3490  174.5130  137.6110 C   0  0  0  0  0  2  0  0  0  0  0  0
  194.7960  174.5260  137.4720 N   0  0  0  0  0  2  0  0  0  0  0  0
  195.4330  174.6820  136.2050 C   0  0  0  0  0  0  0  0  0  0  0  0
  196.8590  174.6930  136.1350 N   0  0  0  0  0  2  0  0  0  0  0  0
  194.7430  174.8130  135.1570 O   0  0  0  0  0  0  0  0  0  0  0  0
  197.5680  174.8510  134.8770 C   0  0  0  0  0  2  0  0  0  0  0  0
  199.0490  174.9990  135.1470 C   0  0  0  0  0  1  0  0  0  0  0  0
  1 22  1  6  0  0  0
  1 10  1  0  0  0  0
  2  5  1  0  0  0  0
  2  1  1  0  0  0  0
  3  4  1  0  0  0  0
  4  2  1  0  0  0  0
  5  6  1  0  0  0  0
  7  8  1  0  0  0  0
  7  6  1  0  0  0  0
  8  9  1  0  0  0  0
 10 11  1  0  0  0  0
 11 14  1  0  0  0  0
 11 12  1  0  0  0  0
 13 12  1  0  0  0  0
 14 15  1  0  0  0  0
 15 16  1  0  0  0  0
 16 17  1  0  0  0  0
 17 18  1  0  0  0  0
 17 19  1  0  0  0  0
 19 21  1  0  0  0  0
 20 21  1  0  0  0  0
 23 22  1  0  0  0  0
 24 25  1  0  0  0  0
 24 23  1  0  0  0  0
 26 25  1  0  0  0  0
 27 26  1  0  0  0  0
 28 27  1  0  0  0  0
 29 28  1  0  0  0  0
 30 28  2  0  0  0  0
 31 32  1  0  0  0  0
 31 29  1  0  0  0  0
M  END
>  <MODEL>
6

>  <REMARK>
 VINA RESULT:      -4.9      4.007      9.210
  Name = 
  22 active torsions:
  status: ('A' for Active; 'I' for Inactive)
    1  A    between atoms: C_1  and  N_20
    2  A    between atoms: C_2  and  C_12
    3  A    between atoms: C_2  and  O_23
    4  A    between atoms: N_4  and  C_5
    5  A    between atoms: N_4  and  C_15
    6  A    between atoms: O_6  and  N_31
    7  A    between atoms: C_8  and  O_23
    8  A    between atoms: C_8  and  C_28
    9  A    between atoms: C_9  and  N_10
   10  A    between atoms: C_9  and  C_12
   11  A    between atoms: N_11  and  C_18
   12  A    between atoms: N_11  and  C_32
   13  A    between atoms: C_13  and  C_28
   14  A    between atoms: C_13  and  N_31
   15  A    between atoms: N_14  and  C_21
   16  A    between atoms: N_14  and  C_26
   17  A    between atoms: N_14  and  C_28
   18  A    between atoms: C_15  and  C_26
   19  A    between atoms: C_16  and  O_27
   20  A    between atoms: C_16  and  N_31
   21  A    between atoms: C_18  and  C_22
   22  A    between atoms: O_27  and  C_32
                            x       y       z     vdW  Elec       q    Type
                         _______ _______ _______ _____ _____    ______ ____

>  <TORSDO>
F 22

$$$$
=
 OpenBabel10272413393D

 32 31  0  0  1  0  0  0  0  0999 V2000
  188.8490  176.8750  138.9210 C   0  0  2  0  0  3  0  0  0  0  0  0
  188.0440  177.8860  138.2120 N   0  0  0  0  0  0  0  0  0  0  0  0
  188.9280  179.9310  137.5000 O   0  0  0  0  0  1  0  0  0  0  0  0
  188.8690  178.5660  137.2140 C   0  0  0  0  0  2  0  0  0  0  0  0
  186.8990  177.2680  137.5220 C   0  0  0  0  0  2  0  0  0  0  0  0
  185.5520  177.8770  137.9190 C   0  0  0  0  0  2  0  0  0  0  0  0
  185.7590  178.9230  138.9050 N   0  0  0  0  0  2  0  0  0  0  0  0
  184.5120  179.0720  139.6340 C   0  0  0  0  0  2  0  0  0  0  0  0
  183.3610  178.6110  138.7640 C   0  0  0  0  0  1  0  0  0  0  0  0
  189.6690  177.4990  140.0600 C   0  0  0  0  0  2  0  0  0  0  0  0
  189.2520  176.9760  141.3550 N   0  0  0  0  0  0  0  0  0  0  0  0
  190.3370  176.3750  141.9030 O   0  0  0  0  0  0  0  0  0  0  0  0
  191.2880  177.3900  142.0240 C   0  0  0  0  0  1  0  0  0  0  0  0
  188.9410  178.1280  142.1860 C   0  0  0  0  0  2  0  0  0  0  0  0
  187.6060  178.0710  142.5860 O   0  0  0  0  0  0  0  0  0  0  0  0
  187.5830  177.1100  143.5970 C   0  0  0  0  0  2  0  0  0  0  0  0
  187.6930  177.7590  144.8980 N   0  0  0  0  0  0  0  0  0  0  0  0
  188.7920  177.1380  145.6230 C   0  0  0  0  0  1  0  0  0  0  0  0
  186.4440  177.6090  145.6610 C   0  0  0  0  0  2  0  0  0  0  0  0
  185.6080  179.4630  146.9430 O   0  0  0  0  0  1  0  0  0  0  0  0
  185.5660  178.8650  145.6820 C   0  0  0  0  0  2  0  0  0  0  0  0
  189.7840  176.1370  137.9610 C   0  0  0  0  0  2  0  0  0  0  0  0
  190.7770  175.4710  138.6810 O   0  0  0  0  0  0  0  0  0  0  0  0
  191.6890  175.0500  137.7140 C   0  0  0  0  0  2  0  0  0  0  0  0
  192.7580  176.1130  137.5100 C   0  0  0  0  0  2  0  0  0  0  0  0
  193.6510  175.7700  136.3290 C   0  0  0  0  0  2  0  0  0  0  0  0
  195.0460  175.9980  136.6750 N   0  0  0  0  0  2  0  0  0  0  0  0
  196.0810  175.1040  136.2690 C   0  0  0  0  0  0  0  0  0  0  0  0
  197.4320  175.3870  136.6340 N   0  0  0  0  0  2  0  0  0  0  0  0
  195.8070  174.0770  135.5910 O   0  0  0  0  0  0  0  0  0  0  0  0
  198.5320  174.5190  136.2500 C   0  0  0  0  0  2  0  0  0  0  0  0
  199.3270  174.1380  137.4790 C   0  0  0  0  0  1  0  0  0  0  0  0
  1 22  1  6  0  0  0
  1 10  1  0  0  0  0
  2  1  1  0  0  0  0
  4  3  1  0  0  0  0
  4  2  1  0  0  0  0
  5  6  1  0  0  0  0
  5  2  1  0  0  0  0
  6  7  1  0  0  0  0
  7  8  1  0  0  0  0
  9  8  1  0  0  0  0
 10 11  1  0  0  0  0
 11 12  1  0  0  0  0
 11 14  1  0  0  0  0
 12 13  1  0  0  0  0
 14 15  1  0  0  0  0
 15 16  1  0  0  0  0
 16 17  1  0  0  0  0
 17 18  1  0  0  0  0
 17 19  1  0  0  0  0
 19 21  1  0  0  0  0
 21 20  1  0  0  0  0
 22 23  1  0  0  0  0
 24 23  1  0  0  0  0
 25 24  1  0  0  0  0
 26 27  1  0  0  0  0
 26 25  1  0  0  0  0
 28 29  1  0  0  0  0
 28 27  1  0  0  0  0
 30 28  2  0  0  0  0
 31 29  1  0  0  0  0
 31 32  1  0  0  0  0
M  END
>  <MODEL>
7

>  <REMARK>
 VINA RESULT:      -4.9      3.877      9.118
  Name = 
  22 active torsions:
  status: ('A' for Active; 'I' for Inactive)
    1  A    between atoms: C_1  and  N_20
    2  A    between atoms: C_2  and  C_12
    3  A    between atoms: C_2  and  O_23
    4  A    between atoms: N_4  and  C_5
    5  A    between atoms: N_4  and  C_15
    6  A    between atoms: O_6  and  N_31
    7  A    between atoms: C_8  and  O_23
    8  A    between atoms: C_8  and  C_28
    9  A    between atoms: C_9  and  N_10
   10  A    between atoms: C_9  and  C_12
   11  A    between atoms: N_11  and  C_18
   12  A    between atoms: N_11  and  C_32
   13  A    between atoms: C_13  and  C_28
   14  A    between atoms: C_13  and  N_31
   15  A    between atoms: N_14  and  C_21
   16  A    between atoms: N_14  and  C_26
   17  A    between atoms: N_14  and  C_28
   18  A    between atoms: C_15  and  C_26
   19  A    between atoms: C_16  and  O_27
   20  A    between atoms: C_16  and  N_31
   21  A    between atoms: C_18  and  C_22
   22  A    between atoms: O_27  and  C_32
                            x       y       z     vdW  Elec       q    Type
                         _______ _______ _______ _____ _____    ______ ____

>  <TORSDO>
F 22

$$$$
=
 OpenBabel10272413393D

 32 31  0  0  1  0  0  0  0  0999 V2000
  188.4810  177.6960  141.2630 C   0  0  2  0  0  3  0  0  0  0  0  0
  189.4580  177.6990  142.3680 N   0  0  0  0  0  0  0  0  0  0  0  0
  189.0170  178.5670  144.4940 O   0  0  0  0  0  1  0  0  0  0  0  0
  188.7680  177.4910  143.6400 C   0  0  0  0  0  2  0  0  0  0  0  0
  190.4550  176.6290  142.2010 C   0  0  0  0  0  2  0  0  0  0  0  0
  190.5770  175.7190  143.4260 C   0  0  0  0  0  2  0  0  0  0  0  0
  191.8830  175.8910  144.0360 N   0  0  0  0  0  2  0  0  0  0  0  0
  191.6670  176.4960  145.3380 C   0  0  0  0  0  2  0  0  0  0  0  0
  192.0740  175.5210  146.4220 C   0  0  0  0  0  1  0  0  0  0  0  0
  189.1600  177.9130  139.9030 C   0  0  0  0  0  2  0  0  0  0  0  0
  188.3090  178.6870  139.0080 N   0  0  0  0  0  0  0  0  0  0  0  0
  189.1110  179.1720  138.0280 O   0  0  0  0  0  0  0  0  0  0  0  0
  189.6530  178.0410  137.4130 C   0  0  0  0  0  1  0  0  0  0  0  0
  187.3980  177.7420  138.3820 C   0  0  0  0  0  2  0  0  0  0  0  0
  186.1390  178.3250  138.2450 O   0  0  0  0  0  0  0  0  0  0  0  0
  185.5050  177.5640  137.2630 C   0  0  0  0  0  2  0  0  0  0  0  0
  184.1410  177.2600  137.6780 N   0  0  0  0  0  0  0  0  0  0  0  0
  184.0140  175.8140  137.7940 C   0  0  0  0  0  1  0  0  0  0  0  0
  183.1720  177.7680  136.6940 C   0  0  0  0  0  2  0  0  0  0  0  0
  181.2500  178.4510  137.9660 O   0  0  0  0  0  1  0  0  0  0  0  0
  181.7080  177.4970  137.0560 C   0  0  0  0  0  2  0  0  0  0  0  0
  187.4020  178.7610  141.4730 C   0  0  0  0  0  2  0  0  0  0  0  0
  186.1660  178.1510  141.6860 O   0  0  0  0  0  0  0  0  0  0  0  0
  185.4020  179.1220  142.3340 C   0  0  0  0  0  2  0  0  0  0  0  0
  184.2310  178.4680  143.0510 C   0  0  0  0  0  2  0  0  0  0  0  0
  184.2970  178.7220  144.5490 C   0  0  0  0  0  2  0  0  0  0  0  0
  185.5310  178.1780  145.0930 N   0  0  0  0  0  2  0  0  0  0  0  0
  185.9740  178.4850  146.4140 C   0  0  0  0  0  0  0  0  0  0  0  0
  187.1910  177.9140  146.8940 N   0  0  0  0  0  2  0  0  0  0  0  0
  185.2950  179.2500  147.1530 O   0  0  0  0  0  0  0  0  0  0  0  0
  187.6960  178.1840  148.2290 C   0  0  0  0  0  2  0  0  0  0  0  0
  189.1990  178.0090  148.2460 C   0  0  0  0  0  1  0  0  0  0  0  0
  1 10  1  6  0  0  0
  1 22  1  0  0  0  0
  1  2  1  0  0  0  0
  2  4  1  0  0  0  0
  4  3  1  0  0  0  0
  5  2  1  0  0  0  0
  5  6  1  0  0  0  0
  6  7  1  0  0  0  0
  7  8  1  0  0  0  0
  8  9  1  0  0  0  0
 11 10  1  0  0  0  0
 12 11  1  0  0  0  0
 13 12  1  0  0  0  0
 14 11  1  0  0  0  0
 15 14  1  0  0  0  0
 16 17  1  0  0  0  0
 16 15  1  0  0  0  0
 17 18  1  0  0  0  0
 19 21  1  0  0  0  0
 19 17  1  0  0  0  0
 21 20  1  0  0  0  0
 22 23  1  0  0  0  0
 23 24  1  0  0  0  0
 24 25  1  0  0  0  0
 25 26  1  0  0  0  0
 26 27  1  0  0  0  0
 27 28  1  0  0  0  0
 28 29  1  0  0  0  0
 28 30  2  0  0  0  0
 29 31  1  0  0  0  0
 31 32  1  0  0  0  0
M  END
>  <MODEL>
8

>  <REMARK>
 VINA RESULT:      -4.9      1.473      1.910
  Name = 
  22 active torsions:
  status: ('A' for Active; 'I' for Inactive)
    1  A    between atoms: C_1  and  N_20
    2  A    between atoms: C_2  and  C_12
    3  A    between atoms: C_2  and  O_23
    4  A    between atoms: N_4  and  C_5
    5  A    between atoms: N_4  and  C_15
    6  A    between atoms: O_6  and  N_31
    7  A    between atoms: C_8  and  O_23
    8  A    between atoms: C_8  and  C_28
    9  A    between atoms: C_9  and  N_10
   10  A    between atoms: C_9  and  C_12
   11  A    between atoms: N_11  and  C_18
   12  A    between atoms: N_11  and  C_32
   13  A    between atoms: C_13  and  C_28
   14  A    between atoms: C_13  and  N_31
   15  A    between atoms: N_14  and  C_21
   16  A    between atoms: N_14  and  C_26
   17  A    between atoms: N_14  and  C_28
   18  A    between atoms: C_15  and  C_26
   19  A    between atoms: C_16  and  O_27
   20  A    between atoms: C_16  and  N_31
   21  A    between atoms: C_18  and  C_22
   22  A    between atoms: O_27  and  C_32
                            x       y       z     vdW  Elec       q    Type
                         _______ _______ _______ _____ _____    ______ ____

>  <TORSDO>
F 22

$$$$
=
 OpenBabel10272413393D

 32 31  0  0  1  0  0  0  0  0999 V2000
  189.6930  177.8910  141.7570 C   0  0  2  0  0  3  0  0  0  0  0  0
  189.8390  177.7210  143.2140 N   0  0  0  0  0  0  0  0  0  0  0  0
  191.7700  178.0270  144.4970 O   0  0  0  0  0  1  0  0  0  0  0  0
  190.8090  178.6870  143.7310 C   0  0  0  0  0  2  0  0  0  0  0  0
  188.5580  177.9360  143.9080 C   0  0  0  0  0  2  0  0  0  0  0  0
  188.2840  176.9050  145.0060 C   0  0  0  0  0  2  0  0  0  0  0  0
  187.9250  177.5850  146.2370 N   0  0  0  0  0  2  0  0  0  0  0  0
  189.1140  177.6060  147.0710 C   0  0  0  0  0  2  0  0  0  0  0  0
  188.7280  177.9600  148.4920 C   0  0  0  0  0  1  0  0  0  0  0  0
  188.2530  177.6230  141.2950 C   0  0  0  0  0  2  0  0  0  0  0  0
  187.6950  178.7830  140.6120 N   0  0  0  0  0  0  0  0  0  0  0  0
  188.3400  178.8850  139.4230 O   0  0  0  0  0  0  0  0  0  0  0  0
  187.6640  178.0110  138.5700 C   0  0  0  0  0  1  0  0  0  0  0  0
  186.3090  178.4610  140.3150 C   0  0  0  0  0  2  0  0  0  0  0  0
  185.4860  179.5120  140.7220 O   0  0  0  0  0  0  0  0  0  0  0  0
  185.5590  179.4950  142.1150 C   0  0  0  0  0  2  0  0  0  0  0  0
  184.6990  178.4420  142.6420 N   0  0  0  0  0  0  0  0  0  0  0  0
  183.3160  178.8050  142.3660 C   0  0  0  0  0  1  0  0  0  0  0  0
  184.8950  178.2870  144.0920 C   0  0  0  0  0  2  0  0  0  0  0  0
  184.1500  178.9630  146.2750 O   0  0  0  0  0  1  0  0  0  0  0  0
  183.7500  178.8480  144.9430 C   0  0  0  0  0  2  0  0  0  0  0  0
  190.6550  176.9800  140.9930 C   0  0  0  0  0  2  0  0  0  0  0  0
  191.1600  177.6490  139.8770 O   0  0  0  0  0  0  0  0  0  0  0  0
  191.8970  176.6820  139.1920 C   0  0  0  0  0  2  0  0  0  0  0  0
  191.0190  175.9990  138.1540 C   0  0  0  0  0  2  0  0  0  0  0  0
  191.6060  176.1480  136.7600 C   0  0  0  0  0  2  0  0  0  0  0  0
  192.7240  175.2350  136.5890 N   0  0  0  0  0  2  0  0  0  0  0  0
  194.0710  175.6970  136.5020 C   0  0  0  0  0  0  0  0  0  0  0  0
  195.1270  174.7500  136.3410 N   0  0  0  0  0  2  0  0  0  0  0  0
  194.3280  176.9310  136.5700 O   0  0  0  0  0  0  0  0  0  0  0  0
  196.5190  175.1550  136.2480 C   0  0  0  0  0  2  0  0  0  0  0  0
  197.3540  173.9880  135.7670 C   0  0  0  0  0  1  0  0  0  0  0  0
  1 22  1  6  0  0  0
  1  2  1  0  0  0  0
  2  4  1  0  0  0  0
  2  5  1  0  0  0  0
  4  3  1  0  0  0  0
  5  6  1  0  0  0  0
  6  7  1  0  0  0  0
  7  8  1  0  0  0  0
  8  9  1  0  0  0  0
 10  1  1  0  0  0  0
 11 10  1  0  0  0  0
 12 11  1  0  0  0  0
 13 12  1  0  0  0  0
 14 11  1  0  0  0  0
 14 15  1  0  0  0  0
 15 16  1  0  0  0  0
 16 17  1  0  0  0  0
 17 19  1  0  0  0  0
 18 17  1  0  0  0  0
 19 21  1  0  0  0  0
 21 20  1  0  0  0  0
 23 22  1  0  0  0  0
 24 23  1  0  0  0  0
 25 24  1  0  0  0  0
 26 25  1  0  0  0  0
 27 26  1  0  0  0  0
 28 30  2  0  0  0  0
 28 27  1  0  0  0  0
 29 28  1  0  0  0  0
 31 29  1  0  0  0  0
 32 31  1  0  0  0  0
M  END
>  <MODEL>
9

>  <REMARK>
 VINA RESULT:      -4.8      3.412      7.442
  Name = 
  22 active torsions:
  status: ('A' for Active; 'I' for Inactive)
    1  A    between atoms: C_1  and  N_20
    2  A    between atoms: C_2  and  C_12
    3  A    between atoms: C_2  and  O_23
    4  A    between atoms: N_4  and  C_5
    5  A    between atoms: N_4  and  C_15
    6  A    between atoms: O_6  and  N_31
    7  A    between atoms: C_8  and  O_23
    8  A    between atoms: C_8  and  C_28
    9  A    between atoms: C_9  and  N_10
   10  A    between atoms: C_9  and  C_12
   11  A    between atoms: N_11  and  C_18
   12  A    between atoms: N_11  and  C_32
   13  A    between atoms: C_13  and  C_28
   14  A    between atoms: C_13  and  N_31
   15  A    between atoms: N_14  and  C_21
   16  A    between atoms: N_14  and  C_26
   17  A    between atoms: N_14  and  C_28
   18  A    between atoms: C_15  and  C_26
   19  A    between atoms: C_16  and  O_27
   20  A    between atoms: C_16  and  N_31
   21  A    between atoms: C_18  and  C_22
   22  A    between atoms: O_27  and  C_32
                            x       y       z     vdW  Elec       q    Type
                         _______ _______ _______ _____ _____    ______ ____

>  <TORSDO>
F 22

$$$$
