=
 OpenBabel10272400243D

 31 35  0  0  1  0  0  0  0  0999 V2000
  184.9780  178.6790  144.3670 C   0  0  0  0  0  0  0  0  0  0  0  0
  188.7080  178.0900  143.7520 C   0  0  2  0  0  3  0  0  0  0  0  0
  189.2370  177.6910  145.1090 C   0  0  0  0  0  0  0  0  0  0  0  0
  188.0410  177.5280  138.5060 O   0  0  0  0  0  0  0  0  0  0  0  0
  189.2000  177.1220  138.7920 C   0  0  0  0  0  0  0  0  0  0  0  0
  189.0440  176.5920  147.2670 C   0  0  0  0  0  0  0  0  0  0  0  0
  187.2070  178.1330  143.5670 C   0  0  0  0  0  0  0  0  0  0  0  0
  184.4570  178.4440  143.0920 C   0  0  0  0  0  3  0  0  0  0  0  0
  188.4540  177.0660  146.0910 C   0  0  0  0  0  3  0  0  0  0  0  0
  188.8160  177.3690  141.3110 C   0  0  0  0  0  0  0  0  0  0  0  0
  184.0750  179.0870  145.4750 C   0  0  0  0  0  1  0  0  0  0  0  0
  191.6340  178.4800  143.9820 S   0  0  0  0  0  0  0  0  0  0  0  0
  188.2810  176.0070  148.2200 F   0  0  0  0  0  0  0  0  0  0  0  0
  187.5490  177.6380  141.1740 N   0  0  0  0  0  0  0  0  0  0  0  0
  189.4130  177.2220  142.6900 C   0  0  1  0  0  3  0  0  0  0  0  0
  189.6160  177.0490  140.1640 N   0  0  0  0  0  2  0  0  0  0  0  0
  186.3490  178.5450  144.5980 C   0  0  0  0  0  3  0  0  0  0  0  0
  190.4270  176.6990  147.4480 C   0  0  0  0  0  3  0  0  0  0  0  0
  186.6810  177.9360  142.2750 C   0  0  0  0  0  0  0  0  0  0  0  0
  185.3100  178.0830  142.0460 C   0  0  0  0  0  3  0  0  0  0  0  0
  190.9560  177.3520  142.6960 C   0  0  0  0  0  2  0  0  0  0  0  0
  190.6240  177.7890  145.2960 C   0  0  0  0  0  0  0  0  0  0  0  0
  191.2190  177.2880  146.4570 C   0  0  0  0  0  3  0  0  0  0  0  0
  192.0620  175.9710  135.7950 C   0  0  0  0  0  0  0  0  0  0  0  0
  191.4990  176.5500  138.0710 C   0  0  0  0  0  3  0  0  0  0  0  0
  188.3620  176.6660  135.8920 C   0  0  0  0  0  1  0  0  0  0  0  0
  193.2500  175.5040  134.5980 Cl  0  0  0  0  0  0  0  0  0  0  0  0
  192.4480  176.1770  137.1180 C   0  0  0  0  0  3  0  0  0  0  0  0
  189.7660  176.5110  136.3710 C   0  0  0  0  0  0  0  0  0  0  0  0
  190.1500  176.7230  137.7210 C   0  0  0  0  0  0  0  0  0  0  0  0
  190.7270  176.1370  135.4250 C   0  0  0  0  0  3  0  0  0  0  0  0
  1 17  1  0  0  0  0
  1 11  1  0  0  0  0
  2  7  1  1  0  0  0
  2  3  1  0  0  0  0
  3 22  2  0  0  0  0
  3  9  1  0  0  0  0
  4  5  2  0  0  0  0
  5 16  1  0  0  0  0
  6 18  1  0  0  0  0
  6 13  1  0  0  0  0
  7 17  2  0  0  0  0
  8  1  2  0  0  0  0
  9  6  2  0  0  0  0
 10 15  1  0  0  0  0
 12 22  1  0  0  0  0
 14 10  2  0  0  0  0
 14 19  1  0  0  0  0
 15 21  1  6  0  0  0
 15  2  1  0  0  0  0
 16 10  1  0  0  0  0
 19  7  1  0  0  0  0
 20 19  2  0  0  0  0
 20  8  1  0  0  0  0
 21 12  1  0  0  0  0
 22 23  1  0  0  0  0
 23 18  2  0  0  0  0
 24 28  1  0  0  0  0
 26 29  1  0  0  0  0
 27 24  1  0  0  0  0
 28 25  2  0  0  0  0
 29 30  2  0  0  0  0
 30 25  1  0  0  0  0
 30  5  1  0  0  0  0
 31 24  2  0  0  0  0
 31 29  1  0  0  0  0
M  END
>  <MODEL>
1

>  <REMARK>
 VINA RESULT:     -10.0      0.000      0.000
  Name = 
  1 active torsions:
  status: ('A' for Active; 'I' for Inactive)
    1  A    between atoms: C_9  and  C_22
                            x       y       z     vdW  Elec       q    Type
                         _______ _______ _______ _____ _____    ______ ____

>  <TORSDO>
F 1

$$$$
=
 OpenBabel10272400243D

 31 35  0  0  1  0  0  0  0  0999 V2000
  185.7110  178.7470  140.0410 C   0  0  0  0  0  0  0  0  0  0  0  0
  189.1460  178.0580  141.5800 C   0  0  2  0  0  3  0  0  0  0  0  0
  188.8540  177.8990  143.0530 C   0  0  0  0  0  0  0  0  0  0  0  0
  191.2500  176.5980  136.9190 O   0  0  0  0  0  0  0  0  0  0  0  0
  192.0490  176.2470  137.8290 C   0  0  0  0  0  0  0  0  0  0  0  0
  187.4690  177.1900  144.9190 C   0  0  0  0  0  0  0  0  0  0  0  0
  187.9710  178.0700  140.6270 C   0  0  0  0  0  0  0  0  0  0  0  0
  185.9080  178.2960  138.7350 C   0  0  0  0  0  3  0  0  0  0  0  0
  187.6210  177.4540  143.5540 C   0  0  0  0  0  3  0  0  0  0  0  0
  190.4380  176.9260  139.6990 C   0  0  0  0  0  0  0  0  0  0  0  0
  184.4060  179.3410  140.4330 C   0  0  0  0  0  1  0  0  0  0  0  0
  191.5480  178.4800  143.2570 S   0  0  0  0  0  0  0  0  0  0  0  0
  186.2720  176.7790  145.3990 F   0  0  0  0  0  0  0  0  0  0  0  0
  189.4580  177.1680  138.8770 N   0  0  0  0  0  0  0  0  0  0  0  0
  190.2160  177.0190  141.1900 C   0  0  1  0  0  3  0  0  0  0  0  0
  191.6850  176.4120  139.2070 N   0  0  0  0  0  2  0  0  0  0  0  0
  186.7440  178.6540  140.9770 C   0  0  0  0  0  3  0  0  0  0  0  0
  188.5600  177.3260  145.7830 C   0  0  0  0  0  3  0  0  0  0  0  0
  188.1760  177.6530  139.2970 C   0  0  0  0  0  0  0  0  0  0  0  0
  187.1440  177.7590  138.3610 C   0  0  0  0  0  3  0  0  0  0  0  0
  191.5360  177.1470  141.9890 C   0  0  0  0  0  2  0  0  0  0  0  0
  189.9440  178.0270  143.9260 C   0  0  0  0  0  0  0  0  0  0  0  0
  189.8010  177.7340  145.2850 C   0  0  0  0  0  3  0  0  0  0  0  0
  195.9100  174.5410  137.0000 C   0  0  0  0  0  0  0  0  0  0  0  0
  194.1400  175.1230  138.5360 C   0  0  0  0  0  3  0  0  0  0  0  0
  193.1830  176.1920  134.9950 C   0  0  0  0  0  1  0  0  0  0  0  0
  197.4840  173.8400  136.6940 Cl  0  0  0  0  0  0  0  0  0  0  0  0
  195.3950  174.5640  138.2950 C   0  0  0  0  0  3  0  0  0  0  0  0
  193.9080  175.6410  136.1760 C   0  0  0  0  0  0  0  0  0  0  0  0
  193.3760  175.6690  137.4920 C   0  0  0  0  0  0  0  0  0  0  0  0
  195.1680  175.0780  135.9470 C   0  0  0  0  0  3  0  0  0  0  0  0
  1 11  1  0  0  0  0
  1 17  1  0  0  0  0
  2  7  1  6  0  0  0
  2  3  1  0  0  0  0
  3  9  2  0  0  0  0
  3 22  1  0  0  0  0
  4  5  2  0  0  0  0
  5 16  1  0  0  0  0
  6 13  1  0  0  0  0
  6 18  2  0  0  0  0
  7 17  2  0  0  0  0
  8  1  2  0  0  0  0
  9  6  1  0  0  0  0
 10 15  1  0  0  0  0
 12 22  1  0  0  0  0
 14 19  1  0  0  0  0
 14 10  2  0  0  0  0
 15  2  1  0  0  0  0
 15 21  1  1  0  0  0
 16 10  1  0  0  0  0
 19  7  1  0  0  0  0
 20  8  1  0  0  0  0
 20 19  2  0  0  0  0
 21 12  1  0  0  0  0
 22 23  2  0  0  0  0
 23 18  1  0  0  0  0
 24 28  1  0  0  0  0
 26 29  1  0  0  0  0
 27 24  1  0  0  0  0
 28 25  2  0  0  0  0
 29 30  2  0  0  0  0
 30  5  1  0  0  0  0
 30 25  1  0  0  0  0
 31 29  1  0  0  0  0
 31 24  2  0  0  0  0
M  END
>  <MODEL>
2

>  <REMARK>
 VINA RESULT:      -9.1      2.217      3.384
  Name = 
  1 active torsions:
  status: ('A' for Active; 'I' for Inactive)
    1  A    between atoms: C_9  and  C_22
                            x       y       z     vdW  Elec       q    Type
                         _______ _______ _______ _____ _____    ______ ____

>  <TORSDO>
F 1

$$$$
=
 OpenBabel10272400243D

 31 35  0  0  1  0  0  0  0  0999 V2000
  188.4190  178.0420  147.8440 C   0  0  0  0  0  0  0  0  0  0  0  0
  188.4320  178.1110  144.0190 C   0  0  2  0  0  3  0  0  0  0  0  0
  189.7530  177.4760  143.6520 C   0  0  0  0  0  0  0  0  0  0  0  0
  183.1570  178.7210  143.7330 O   0  0  0  0  0  0  0  0  0  0  0  0
  183.5710  178.4150  142.5830 C   0  0  0  0  0  0  0  0  0  0  0  0
  191.5550  175.8840  143.9950 C   0  0  0  0  0  0  0  0  0  0  0  0
  187.9720  177.9990  145.4550 C   0  0  0  0  0  0  0  0  0  0  0  0
  187.0480  178.0480  148.1060 C   0  0  0  0  0  3  0  0  0  0  0  0
  190.4110  176.5390  144.4620 C   0  0  0  0  0  3  0  0  0  0  0  0
  185.9630  178.0080  143.4000 C   0  0  0  0  0  0  0  0  0  0  0  0
  189.3910  178.0540  148.9690 C   0  0  0  0  0  1  0  0  0  0  0  0
  189.3020  178.8180  141.2790 S   0  0  0  0  0  0  0  0  0  0  0  0
  192.1970  174.9950  144.7890 F   0  0  0  0  0  0  0  0  0  0  0  0
  185.6410  178.1320  144.6560 N   0  0  0  0  0  0  0  0  0  0  0  0
  187.3700  177.6190  143.0140 C   0  0  1  0  0  3  0  0  0  0  0  0
  184.9520  178.0760  142.3840 N   0  0  0  0  0  2  0  0  0  0  0  0
  188.8790  178.0380  146.5250 C   0  0  0  0  0  3  0  0  0  0  0  0
  192.0190  176.1260  142.6980 C   0  0  0  0  0  3  0  0  0  0  0  0
  186.5900  178.0450  145.7270 C   0  0  0  0  0  0  0  0  0  0  0  0
  186.1350  178.0600  147.0480 C   0  0  0  0  0  3  0  0  0  0  0  0
  187.7030  177.9460  141.5380 C   0  0  0  0  0  2  0  0  0  0  0  0
  190.2220  177.7090  142.3510 C   0  0  0  0  0  0  0  0  0  0  0  0
  191.3460  177.0310  141.8720 C   0  0  0  0  0  3  0  0  0  0  0  0
  181.0040  178.3340  139.1330 C   0  0  0  0  0  0  0  0  0  0  0  0
  183.1100  177.8590  140.2130 C   0  0  0  0  0  3  0  0  0  0  0  0
  180.7340  179.5360  142.6920 C   0  0  0  0  0  1  0  0  0  0  0  0
  179.9830  178.2870  137.7130 Cl  0  0  0  0  0  0  0  0  0  0  0  0
  182.2980  177.8200  139.0790 C   0  0  0  0  0  3  0  0  0  0  0  0
  181.3270  178.9300  141.4640 C   0  0  0  0  0  0  0  0  0  0  0  0
  182.6470  178.4100  141.4190 C   0  0  0  0  0  0  0  0  0  0  0  0
  180.5220  178.8860  140.3200 C   0  0  0  0  0  3  0  0  0  0  0  0
  1  8  1  0  0  0  0
  1 11  1  0  0  0  0
  2  3  1  1  0  0  0
  2  7  1  0  0  0  0
  3  9  1  0  0  0  0
  5  4  2  0  0  0  0
  6  9  2  0  0  0  0
  6 13  1  0  0  0  0
  7 19  2  0  0  0  0
  7 17  1  0  0  0  0
 10 14  2  0  0  0  0
 12 21  1  0  0  0  0
 12 22  1  0  0  0  0
 14 19  1  0  0  0  0
 15 21  1  6  0  0  0
 15 10  1  0  0  0  0
 15  2  1  0  0  0  0
 16  5  1  0  0  0  0
 16 10  1  0  0  0  0
 17  1  2  0  0  0  0
 18  6  1  0  0  0  0
 19 20  1  0  0  0  0
 20  8  2  0  0  0  0
 22  3  2  0  0  0  0
 23 22  1  0  0  0  0
 23 18  2  0  0  0  0
 24 31  1  0  0  0  0
 25 30  2  0  0  0  0
 27 24  1  0  0  0  0
 28 24  2  0  0  0  0
 28 25  1  0  0  0  0
 29 26  1  0  0  0  0
 30 29  1  0  0  0  0
 30  5  1  0  0  0  0
 31 29  2  0  0  0  0
M  END
>  <MODEL>
3

>  <REMARK>
 VINA RESULT:      -8.8      4.319      6.696
  Name = 
  1 active torsions:
  status: ('A' for Active; 'I' for Inactive)
    1  A    between atoms: C_9  and  C_22
                            x       y       z     vdW  Elec       q    Type
                         _______ _______ _______ _____ _____    ______ ____

>  <TORSDO>
F 1

$$$$
=
 OpenBabel10272400243D

 31 35  0  0  1  0  0  0  0  0999 V2000
  189.3640  177.4420  135.8270 C   0  0  0  0  0  0  0  0  0  0  0  0
  186.7110  178.2170  138.4730 C   0  0  2  0  0  3  0  0  0  0  0  0
  185.4050  177.9650  137.7570 C   0  0  0  0  0  0  0  0  0  0  0  0
  190.1620  177.7030  142.4870 O   0  0  0  0  0  0  0  0  0  0  0  0
  189.0000  177.7130  142.9770 C   0  0  0  0  0  0  0  0  0  0  0  0
  184.0040  176.7680  136.1740 C   0  0  0  0  0  0  0  0  0  0  0  0
  187.9830  177.7440  137.8050 C   0  0  0  0  0  0  0  0  0  0  0  0
  190.4520  177.1000  136.6330 C   0  0  0  0  0  3  0  0  0  0  0  0
  185.2690  177.0600  136.6930 C   0  0  0  0  0  3  0  0  0  0  0  0
  187.8780  177.6940  140.6760 C   0  0  0  0  0  0  0  0  0  0  0  0
  189.5100  177.4580  134.3480 C   0  0  0  0  0  1  0  0  0  0  0  0
  184.4300  179.5900  139.7680 S   0  0  0  0  0  0  0  0  0  0  0  0
  183.8800  175.9100  135.1350 F   0  0  0  0  0  0  0  0  0  0  0  0
  188.9990  177.5100  140.0410 N   0  0  0  0  0  0  0  0  0  0  0  0
  186.5710  177.6990  139.9190 C   0  0  1  0  0  3  0  0  0  0  0  0
  187.8560  177.7260  142.1110 N   0  0  0  0  0  2  0  0  0  0  0  0
  188.1410  177.7820  136.4110 C   0  0  0  0  0  3  0  0  0  0  0  0
  182.8630  177.3410  136.7470 C   0  0  0  0  0  3  0  0  0  0  0  0
  189.0950  177.4370  138.6130 C   0  0  0  0  0  0  0  0  0  0  0  0
  190.3190  177.1080  138.0240 C   0  0  0  0  0  3  0  0  0  0  0  0
  185.4170  178.3580  140.7130 C   0  0  0  0  0  2  0  0  0  0  0  0
  184.2560  178.5300  138.3290 C   0  0  0  0  0  0  0  0  0  0  0  0
  182.9880  178.2140  137.8320 C   0  0  0  0  0  3  0  0  0  0  0  0
  188.2650  177.7380  147.2150 C   0  0  0  0  0  0  0  0  0  0  0  0
  187.4790  177.7300  144.9320 C   0  0  0  0  0  3  0  0  0  0  0  0
  191.2990  177.7100  144.9850 C   0  0  0  0  0  1  0  0  0  0  0  0
  187.9340  177.7480  148.9330 Cl  0  0  0  0  0  0  0  0  0  0  0  0
  187.2120  177.7390  146.3010 C   0  0  0  0  0  3  0  0  0  0  0  0
  189.8630  177.7200  145.3870 C   0  0  0  0  0  0  0  0  0  0  0  0
  188.7970  177.7210  144.4490 C   0  0  0  0  0  0  0  0  0  0  0  0
  189.5830  177.7290  146.7580 C   0  0  0  0  0  3  0  0  0  0  0  0
  1 17  2  0  0  0  0
  1  8  1  0  0  0  0
  2  3  1  6  0  0  0
  2 15  1  0  0  0  0
  3 22  1  0  0  0  0
  4  5  2  0  0  0  0
  5 30  1  0  0  0  0
  6  9  1  0  0  0  0
  6 18  2  0  0  0  0
  7  2  1  0  0  0  0
  7 19  2  0  0  0  0
  8 20  2  0  0  0  0
  9  3  2  0  0  0  0
 10 16  1  0  0  0  0
 11  1  1  0  0  0  0
 12 21  1  0  0  0  0
 13  6  1  0  0  0  0
 14 10  2  0  0  0  0
 15 10  1  0  0  0  0
 15 21  1  1  0  0  0
 16  5  1  0  0  0  0
 17  7  1  0  0  0  0
 18 23  1  0  0  0  0
 19 14  1  0  0  0  0
 20 19  1  0  0  0  0
 22 12  1  0  0  0  0
 23 22  2  0  0  0  0
 24 27  1  0  0  0  0
 25 28  1  0  0  0  0
 26 29  1  0  0  0  0
 28 24  2  0  0  0  0
 29 31  2  0  0  0  0
 30 25  2  0  0  0  0
 30 29  1  0  0  0  0
 31 24  1  0  0  0  0
M  END
>  <MODEL>
4

>  <REMARK>
 VINA RESULT:      -8.1      4.659      9.039
  Name = 
  1 active torsions:
  status: ('A' for Active; 'I' for Inactive)
    1  A    between atoms: C_9  and  C_22
                            x       y       z     vdW  Elec       q    Type
                         _______ _______ _______ _____ _____    ______ ____

>  <TORSDO>
F 1

$$$$
=
 OpenBabel10272400243D

 31 35  0  0  1  0  0  0  0  0999 V2000
  192.7720  176.1880  136.0910 C   0  0  0  0  0  0  0  0  0  0  0  0
  189.5430  177.0640  137.9470 C   0  0  2  0  0  3  0  0  0  0  0  0
  188.4530  176.6510  136.9860 C   0  0  0  0  0  0  0  0  0  0  0  0
  191.9700  177.2060  142.6770 O   0  0  0  0  0  0  0  0  0  0  0  0
  190.7260  177.1920  142.8830 C   0  0  0  0  0  0  0  0  0  0  0  0
  187.5110  175.2040  135.2770 C   0  0  0  0  0  0  0  0  0  0  0  0
  190.9530  176.6070  137.6490 C   0  0  0  0  0  0  0  0  0  0  0  0
  193.6520  176.0050  137.1590 C   0  0  0  0  0  3  0  0  0  0  0  0
  188.6060  175.6330  136.0340 C   0  0  0  0  0  3  0  0  0  0  0  0
  190.1780  176.8540  140.4050 C   0  0  0  0  0  0  0  0  0  0  0  0
  193.2610  176.0570  134.6930 C   0  0  0  0  0  1  0  0  0  0  0  0
  186.9690  178.4130  138.5130 S   0  0  0  0  0  0  0  0  0  0  0  0
  187.6690  174.2340  134.3460 F   0  0  0  0  0  0  0  0  0  0  0  0
  191.4240  176.6790  140.0700 N   0  0  0  0  0  0  0  0  0  0  0  0
  189.0870  176.6940  139.3730 C   0  0  1  0  0  3  0  0  0  0  0  0
  189.8180  177.0370  141.7820 N   0  0  0  0  0  2  0  0  0  0  0  0
  191.4340  176.5070  136.3340 C   0  0  0  0  0  3  0  0  0  0  0  0
  186.2460  175.7590  135.5010 C   0  0  0  0  0  3  0  0  0  0  0  0
  191.8560  176.4600  138.7210 C   0  0  0  0  0  0  0  0  0  0  0  0
  193.1960  176.1520  138.4720 C   0  0  0  0  0  3  0  0  0  0  0  0
  187.7540  177.3560  139.7980 C   0  0  0  0  0  2  0  0  0  0  0  0
  187.1800  177.1970  137.2080 C   0  0  0  0  0  0  0  0  0  0  0  0
  186.0790  176.7480  136.4740 C   0  0  0  0  0  3  0  0  0  0  0  0
  189.2930  177.6090  146.9170 C   0  0  0  0  0  0  0  0  0  0  0  0
  191.0830  177.2630  145.3330 C   0  0  0  0  0  3  0  0  0  0  0  0
  187.7690  177.6630  143.4740 C   0  0  0  0  0  1  0  0  0  0  0  0
  188.7400  177.7740  148.5690 Cl  0  0  0  0  0  0  0  0  0  0  0  0
  190.6440  177.3940  146.6510 C   0  0  0  0  0  3  0  0  0  0  0  0
  188.8080  177.5610  144.5380 C   0  0  0  0  0  0  0  0  0  0  0  0
  190.1830  177.3420  144.2580 C   0  0  0  0  0  0  0  0  0  0  0  0
  188.3810  177.6910  145.8640 C   0  0  0  0  0  3  0  0  0  0  0  0
  1 17  2  0  0  0  0
  1  8  1  0  0  0  0
  2  3  1  6  0  0  0
  2 15  1  0  0  0  0
  3 22  1  0  0  0  0
  4  5  2  0  0  0  0
  5 30  1  0  0  0  0
  6 18  2  0  0  0  0
  6  9  1  0  0  0  0
  7  2  1  0  0  0  0
  7 19  2  0  0  0  0
  8 20  2  0  0  0  0
  9  3  2  0  0  0  0
 10 16  1  0  0  0  0
 11  1  1  0  0  0  0
 12 21  1  0  0  0  0
 13  6  1  0  0  0  0
 14 10  2  0  0  0  0
 15 21  1  1  0  0  0
 15 10  1  0  0  0  0
 16  5  1  0  0  0  0
 17  7  1  0  0  0  0
 18 23  1  0  0  0  0
 19 14  1  0  0  0  0
 20 19  1  0  0  0  0
 22 12  1  0  0  0  0
 23 22  2  0  0  0  0
 24 27  1  0  0  0  0
 25 28  2  0  0  0  0
 26 29  1  0  0  0  0
 28 24  1  0  0  0  0
 29 31  1  0  0  0  0
 30 29  2  0  0  0  0
 30 25  1  0  0  0  0
 31 24  2  0  0  0  0
M  END
>  <MODEL>
5

>  <REMARK>
 VINA RESULT:      -8.1      4.342      9.165
  Name = 
  1 active torsions:
  status: ('A' for Active; 'I' for Inactive)
    1  A    between atoms: C_9  and  C_22
                            x       y       z     vdW  Elec       q    Type
                         _______ _______ _______ _____ _____    ______ ____

>  <TORSDO>
F 1

$$$$
=
 OpenBabel10272400243D

 31 35  0  0  1  0  0  0  0  0999 V2000
  187.0140  178.1930  147.1860 C   0  0  0  0  0  0  0  0  0  0  0  0
  187.6340  178.3410  143.4130 C   0  0  2  0  0  3  0  0  0  0  0  0
  189.0110  177.7420  143.2520 C   0  0  0  0  0  0  0  0  0  0  0  0
  182.4580  178.8460  142.3010 O   0  0  0  0  0  0  0  0  0  0  0  0
  183.0580  178.5720  141.2260 C   0  0  0  0  0  0  0  0  0  0  0  0
  190.7730  176.1810  143.8500 C   0  0  0  0  0  0  0  0  0  0  0  0
  186.9540  178.1900  144.7560 C   0  0  0  0  0  0  0  0  0  0  0  0
  185.6190  178.1650  147.2260 C   0  0  0  0  0  3  0  0  0  0  0  0
  189.5550  176.8030  144.1410 C   0  0  0  0  0  3  0  0  0  0  0  0
  185.2980  178.1990  142.4080 C   0  0  0  0  0  0  0  0  0  0  0  0
  187.7940  178.2030  148.4520 C   0  0  0  0  0  1  0  0  0  0  0  0
  188.9120  179.1220  140.8600 S   0  0  0  0  0  0  0  0  0  0  0  0
  191.3020  175.2900  144.7210 F   0  0  0  0  0  0  0  0  0  0  0  0
  184.7780  178.2900  143.5970 N   0  0  0  0  0  0  0  0  0  0  0  0
  186.7580  177.8480  142.2440 C   0  0  1  0  0  3  0  0  0  0  0  0
  184.4600  178.2670  141.2440 N   0  0  0  0  0  2  0  0  0  0  0  0
  187.6780  178.2270  145.9570 C   0  0  0  0  0  3  0  0  0  0  0  0
  191.4320  176.4590  142.6480 C   0  0  0  0  0  3  0  0  0  0  0  0
  185.5460  178.2010  144.8040 C   0  0  0  0  0  0  0  0  0  0  0  0
  184.8860  178.1800  146.0360 C   0  0  0  0  0  3  0  0  0  0  0  0
  187.3130  178.2120  140.8460 C   0  0  0  0  0  2  0  0  0  0  0  0
  189.6750  178.0110  142.0460 C   0  0  0  0  0  0  0  0  0  0  0  0
  190.8770  177.3670  141.7410 C   0  0  0  0  0  3  0  0  0  0  0  0
  180.8820  178.6950  137.5180 C   0  0  0  0  0  0  0  0  0  0  0  0
  181.4220  179.6140  139.6840 C   0  0  0  0  0  3  0  0  0  0  0  0
  183.4450  176.4270  139.0890 C   0  0  0  0  0  1  0  0  0  0  0  0
  179.9820  178.7730  136.0190 Cl  0  0  0  0  0  0  0  0  0  0  0  0
  180.7030  179.6770  138.4910 C   0  0  0  0  0  3  0  0  0  0  0  0
  182.5060  177.5760  138.9330 C   0  0  0  0  0  0  0  0  0  0  0  0
  182.3300  178.5710  139.9300 C   0  0  0  0  0  0  0  0  0  0  0  0
  181.7790  177.6510  137.7390 C   0  0  0  0  0  3  0  0  0  0  0  0
  1  8  1  0  0  0  0
  1 11  1  0  0  0  0
  2  3  1  1  0  0  0
  2  7  1  0  0  0  0
  3  9  1  0  0  0  0
  5 16  1  0  0  0  0
  5  4  2  0  0  0  0
  6  9  2  0  0  0  0
  6 13  1  0  0  0  0
  7 19  2  0  0  0  0
  7 17  1  0  0  0  0
 10 14  2  0  0  0  0
 12 22  1  0  0  0  0
 14 19  1  0  0  0  0
 15 21  1  6  0  0  0
 15 10  1  0  0  0  0
 15  2  1  0  0  0  0
 16 10  1  0  0  0  0
 17  1  2  0  0  0  0
 18  6  1  0  0  0  0
 19 20  1  0  0  0  0
 20  8  2  0  0  0  0
 21 12  1  0  0  0  0
 22  3  2  0  0  0  0
 23 22  1  0  0  0  0
 23 18  2  0  0  0  0
 24 31  2  0  0  0  0
 24 28  1  0  0  0  0
 25 30  1  0  0  0  0
 27 24  1  0  0  0  0
 28 25  2  0  0  0  0
 29 26  1  0  0  0  0
 29 30  2  0  0  0  0
 30  5  1  0  0  0  0
 31 29  1  0  0  0  0
M  END
>  <MODEL>
6

>  <REMARK>
 VINA RESULT:      -7.9      4.240      6.281
  Name = 
  1 active torsions:
  status: ('A' for Active; 'I' for Inactive)
    1  A    between atoms: C_9  and  C_22
                            x       y       z     vdW  Elec       q    Type
                         _______ _______ _______ _____ _____    ______ ____

>  <TORSDO>
F 1

$$$$
=
 OpenBabel10272400243D

 31 35  0  0  1  0  0  0  0  0999 V2000
  192.7060  177.2880  140.3350 C   0  0  0  0  0  0  0  0  0  0  0  0
  189.3430  177.8630  138.6020 C   0  0  2  0  0  3  0  0  0  0  0  0
  189.5370  177.2580  137.2320 C   0  0  0  0  0  0  0  0  0  0  0  0
  186.7830  178.6040  143.2040 O   0  0  0  0  0  0  0  0  0  0  0  0
  185.9160  178.4460  142.3020 C   0  0  0  0  0  0  0  0  0  0  0  0
  190.4530  175.6000  135.7110 C   0  0  0  0  0  0  0  0  0  0  0  0
  190.3890  177.5700  139.6550 C   0  0  0  0  0  0  0  0  0  0  0  0
  192.3180  177.2850  141.6760 C   0  0  0  0  0  3  0  0  0  0  0  0
  190.4320  176.2090  136.9700 C   0  0  0  0  0  3  0  0  0  0  0  0
  187.6680  177.8890  140.5210 C   0  0  0  0  0  0  0  0  0  0  0  0
  194.1400  177.1330  139.9760 C   0  0  0  0  0  1  0  0  0  0  0  0
  187.4080  178.9100  136.6220 S   0  0  0  0  0  0  0  0  0  0  0  0
  191.3320  174.6020  135.4570 F   0  0  0  0  0  0  0  0  0  0  0  0
  188.6460  177.8510  141.3790 N   0  0  0  0  0  0  0  0  0  0  0  0
  187.9140  177.5280  139.0750 C   0  0  1  0  0  3  0  0  0  0  0  0
  186.3220  178.1100  140.9670 N   0  0  0  0  0  2  0  0  0  0  0  0
  191.7490  177.4510  139.3300 C   0  0  0  0  0  3  0  0  0  0  0  0
  189.5480  176.0040  134.7230 C   0  0  0  0  0  3  0  0  0  0  0  0
  190.0100  177.6060  141.0120 C   0  0  0  0  0  0  0  0  0  0  0  0
  190.9720  177.4540  142.0130 C   0  0  0  0  0  3  0  0  0  0  0  0
  186.8030  178.0420  138.1280 C   0  0  0  0  0  2  0  0  0  0  0  0
  188.6300  177.6520  136.2380 C   0  0  0  0  0  0  0  0  0  0  0  0
  188.6290  177.0220  134.9900 C   0  0  0  0  0  3  0  0  0  0  0  0
  181.7020  178.9190  143.0230 C   0  0  0  0  0  0  0  0  0  0  0  0
  183.5700  178.6130  141.5240 C   0  0  0  0  0  3  0  0  0  0  0  0
  184.8190  178.7820  145.1310 C   0  0  0  0  0  1  0  0  0  0  0  0
  179.9820  179.1100  143.2830 Cl  0  0  0  0  0  0  0  0  0  0  0  0
  182.1990  178.7650  141.7290 C   0  0  0  0  0  3  0  0  0  0  0  0
  183.9540  178.7690  143.9160 C   0  0  0  0  0  0  0  0  0  0  0  0
  184.4700  178.6120  142.6020 C   0  0  0  0  0  0  0  0  0  0  0  0
  182.5770  178.9210  144.1090 C   0  0  0  0  0  3  0  0  0  0  0  0
  1  8  1  0  0  0  0
  2  3  1  6  0  0  0
  2 15  1  0  0  0  0
  2  7  1  0  0  0  0
  5 30  1  0  0  0  0
  5  4  2  0  0  0  0
  6  9  2  0  0  0  0
  7 19  2  0  0  0  0
  8 20  2  0  0  0  0
  9  3  1  0  0  0  0
 10 16  1  0  0  0  0
 10 14  2  0  0  0  0
 11  1  1  0  0  0  0
 12 21  1  0  0  0  0
 13  6  1  0  0  0  0
 15 21  1  6  0  0  0
 15 10  1  0  0  0  0
 16  5  1  0  0  0  0
 17  7  1  0  0  0  0
 17  1  2  0  0  0  0
 18 23  2  0  0  0  0
 18  6  1  0  0  0  0
 19 14  1  0  0  0  0
 19 20  1  0  0  0  0
 22 12  1  0  0  0  0
 22  3  2  0  0  0  0
 23 22  1  0  0  0  0
 24 27  1  0  0  0  0
 24 31  1  0  0  0  0
 25 28  1  0  0  0  0
 25 30  2  0  0  0  0
 28 24  2  0  0  0  0
 29 31  2  0  0  0  0
 29 26  1  0  0  0  0
 30 29  1  0  0  0  0
M  END
>  <MODEL>
7

>  <REMARK>
 VINA RESULT:      -7.5      4.732      9.029
  Name = 
  1 active torsions:
  status: ('A' for Active; 'I' for Inactive)
    1  A    between atoms: C_9  and  C_22
                            x       y       z     vdW  Elec       q    Type
                         _______ _______ _______ _____ _____    ______ ____

>  <TORSDO>
F 1

$$$$
=
 OpenBabel10272400243D

 31 35  0  0  1  0  0  0  0  0999 V2000
  193.7960  176.1220  136.9730 C   0  0  0  0  0  0  0  0  0  0  0  0
  189.9730  175.9660  136.9780 C   0  0  2  0  0  3  0  0  0  0  0  0
  189.6560  174.8820  135.9750 C   0  0  0  0  0  0  0  0  0  0  0  0
  189.6010  178.3980  141.6930 O   0  0  0  0  0  0  0  0  0  0  0  0
  188.4740  177.9000  141.4270 C   0  0  0  0  0  0  0  0  0  0  0  0
  190.1060  172.7740  134.8550 C   0  0  0  0  0  0  0  0  0  0  0  0
  191.4090  176.1060  137.4320 C   0  0  0  0  0  0  0  0  0  0  0  0
  194.0430  176.6320  138.2490 C   0  0  0  0  0  3  0  0  0  0  0  0
  190.5250  173.8190  135.6850 C   0  0  0  0  0  3  0  0  0  0  0  0
  189.3370  176.7140  139.3290 C   0  0  0  0  0  0  0  0  0  0  0  0
  194.9270  175.8510  136.0480 C   0  0  0  0  0  1  0  0  0  0  0  0
  187.2060  176.1590  135.9440 S   0  0  0  0  0  0  0  0  0  0  0  0
  190.9560  171.7610  134.5630 F   0  0  0  0  0  0  0  0  0  0  0  0
  190.5800  177.0160  139.5710 N   0  0  0  0  0  0  0  0  0  0  0  0
  188.9880  175.8280  138.1570 C   0  0  1  0  0  3  0  0  0  0  0  0
  188.3090  177.0810  140.2600 N   0  0  0  0  0  2  0  0  0  0  0  0
  192.4830  175.8810  136.5590 C   0  0  0  0  0  3  0  0  0  0  0  0
  188.8020  172.7610  134.3500 C   0  0  0  0  0  3  0  0  0  0  0  0
  191.6640  176.6570  138.7040 C   0  0  0  0  0  0  0  0  0  0  0  0
  192.9770  176.9080  139.1090 C   0  0  0  0  0  3  0  0  0  0  0  0
  187.4990  175.9310  137.7460 C   0  0  0  0  0  2  0  0  0  0  0  0
  188.3480  174.8580  135.4680 C   0  0  0  0  0  0  0  0  0  0  0  0
  187.9190  173.7980  134.6650 C   0  0  0  0  0  3  0  0  0  0  0  0
  185.0190  178.7180  143.8550 C   0  0  0  0  0  0  0  0  0  0  0  0
  186.2070  178.8420  141.7560 C   0  0  0  0  0  3  0  0  0  0  0  0
  188.3450  177.0220  144.3480 C   0  0  0  0  0  1  0  0  0  0  0  0
  183.6000  179.0660  144.8170 Cl  0  0  0  0  0  0  0  0  0  0  0  0
  185.0740  179.1200  142.5220 C   0  0  0  0  0  3  0  0  0  0  0  0
  187.2390  177.7530  143.6650 C   0  0  0  0  0  0  0  0  0  0  0  0
  187.3040  178.1590  142.3060 C   0  0  0  0  0  0  0  0  0  0  0  0
  186.0970  178.0380  144.4220 C   0  0  0  0  0  3  0  0  0  0  0  0
  1  8  1  0  0  0  0
  2  3  1  6  0  0  0
  2  7  1  0  0  0  0
  2 15  1  0  0  0  0
  5  4  2  0  0  0  0
  5 30  1  0  0  0  0
  6  9  2  0  0  0  0
  7 19  2  0  0  0  0
  8 20  2  0  0  0  0
  9  3  1  0  0  0  0
 10 14  2  0  0  0  0
 10 16  1  0  0  0  0
 11  1  1  0  0  0  0
 12 21  1  0  0  0  0
 13  6  1  0  0  0  0
 15 21  1  6  0  0  0
 15 10  1  0  0  0  0
 16  5  1  0  0  0  0
 17  1  2  0  0  0  0
 17  7  1  0  0  0  0
 18 23  2  0  0  0  0
 18  6  1  0  0  0  0
 19 20  1  0  0  0  0
 19 14  1  0  0  0  0
 22 12  1  0  0  0  0
 22  3  2  0  0  0  0
 23 22  1  0  0  0  0
 24 31  1  0  0  0  0
 24 27  1  0  0  0  0
 25 30  2  0  0  0  0
 25 28  1  0  0  0  0
 28 24  2  0  0  0  0
 29 26  1  0  0  0  0
 29 31  2  0  0  0  0
 30 29  1  0  0  0  0
M  END
>  <MODEL>
8

>  <REMARK>
 VINA RESULT:      -7.3      4.435      9.493
  Name = 
  1 active torsions:
  status: ('A' for Active; 'I' for Inactive)
    1  A    between atoms: C_9  and  C_22
                            x       y       z     vdW  Elec       q    Type
                         _______ _______ _______ _____ _____    ______ ____

>  <TORSDO>
F 1

$$$$
=
 OpenBabel10272400243D

 31 35  0  0  1  0  0  0  0  0999 V2000
  195.7340  174.0780  135.4780 C   0  0  0  0  0  0  0  0  0  0  0  0
  191.9450  173.7390  135.8910 C   0  0  2  0  0  3  0  0  0  0  0  0
  191.6320  172.4080  135.2510 C   0  0  0  0  0  0  0  0  0  0  0  0
  191.7660  177.3510  139.7900 O   0  0  0  0  0  0  0  0  0  0  0  0
  190.6610  176.7440  139.7770 C   0  0  0  0  0  0  0  0  0  0  0  0
  192.1480  170.0980  134.7020 C   0  0  0  0  0  0  0  0  0  0  0  0
  193.3980  174.0700  136.1510 C   0  0  0  0  0  0  0  0  0  0  0  0
  196.0430  174.9300  136.5410 C   0  0  0  0  0  3  0  0  0  0  0  0
  192.5510  171.3500  135.1760 C   0  0  0  0  0  3  0  0  0  0  0  0
  191.4420  175.0720  138.0030 C   0  0  0  0  0  0  0  0  0  0  0  0
  196.8070  173.6200  134.5570 C   0  0  0  0  0  1  0  0  0  0  0  0
  189.0990  173.5030  135.1120 S   0  0  0  0  0  0  0  0  0  0  0  0
  193.0440  169.0870  134.6140 F   0  0  0  0  0  0  0  0  0  0  0  0
  192.6750  175.4890  138.0360 N   0  0  0  0  0  0  0  0  0  0  0  0
  191.0680  173.8820  137.1520 C   0  0  1  0  0  3  0  0  0  0  0  0
  190.4660  175.6280  138.8950 N   0  0  0  0  0  2  0  0  0  0  0  0
  194.4150  173.6670  135.2720 C   0  0  0  0  0  3  0  0  0  0  0  0
  190.8120  169.8820  134.3460 C   0  0  0  0  0  3  0  0  0  0  0  0
  193.7110  174.9610  137.1980 C   0  0  0  0  0  0  0  0  0  0  0  0
  195.0300  175.3780  137.3930 C   0  0  0  0  0  3  0  0  0  0  0  0
  189.5480  173.7940  136.8730 C   0  0  0  0  0  2  0  0  0  0  0  0
  190.2940  172.1800  134.8970 C   0  0  0  0  0  0  0  0  0  0  0  0
  189.8830  170.9200  134.4540 C   0  0  0  0  0  3  0  0  0  0  0  0
  187.3780  178.0680  142.2210 C   0  0  0  0  0  0  0  0  0  0  0  0
  188.5450  177.9890  140.1080 C   0  0  0  0  0  3  0  0  0  0  0  0
  190.4510  175.9490  142.7170 C   0  0  0  0  0  1  0  0  0  0  0  0
  186.0310  178.6230  143.1890 Cl  0  0  0  0  0  0  0  0  0  0  0  0
  187.4700  178.4330  140.8790 C   0  0  0  0  0  3  0  0  0  0  0  0
  189.4450  176.8090  142.0300 C   0  0  0  0  0  0  0  0  0  0  0  0
  189.5470  177.1750  140.6620 C   0  0  0  0  0  0  0  0  0  0  0  0
  188.3620  177.2600  142.7920 C   0  0  0  0  0  3  0  0  0  0  0  0
  1  8  1  0  0  0  0
  2  3  1  1  0  0  0
  2  7  1  0  0  0  0
  2 15  1  0  0  0  0
  5  4  2  0  0  0  0
  5 30  1  0  0  0  0
  6  9  2  0  0  0  0
  7 19  2  0  0  0  0
  8 20  2  0  0  0  0
  9  3  1  0  0  0  0
 10 14  2  0  0  0  0
 10 16  1  0  0  0  0
 11  1  1  0  0  0  0
 12 21  1  0  0  0  0
 13  6  1  0  0  0  0
 15 21  1  6  0  0  0
 15 10  1  0  0  0  0
 16  5  1  0  0  0  0
 17  1  2  0  0  0  0
 17  7  1  0  0  0  0
 18 23  2  0  0  0  0
 18  6  1  0  0  0  0
 19 20  1  0  0  0  0
 19 14  1  0  0  0  0
 22 12  1  0  0  0  0
 22  3  2  0  0  0  0
 23 22  1  0  0  0  0
 24 31  1  0  0  0  0
 24 27  1  0  0  0  0
 25 30  2  0  0  0  0
 25 28  1  0  0  0  0
 28 24  2  0  0  0  0
 29 26  1  0  0  0  0
 29 31  2  0  0  0  0
 30 29  1  0  0  0  0
M  END
>  <MODEL>
9

>  <REMARK>
 VINA RESULT:      -7.2      5.136     10.343
  Name = 
  1 active torsions:
  status: ('A' for Active; 'I' for Inactive)
    1  A    between atoms: C_9  and  C_22
                            x       y       z     vdW  Elec       q    Type
                         _______ _______ _______ _____ _____    ______ ____

>  <TORSDO>
F 1

$$$$
