=
 OpenBabel10272401203D

 55 61  0  0  1  0  0  0  0  0999 V2000
  182.8070  174.0390  138.4190 C   0  0  0  0  0  2  0  0  0  0  0  0
  187.0740  177.8020  138.5110 C   0  0  0  0  0  3  0  0  0  0  0  0
  186.2450  179.1210  141.8950 C   0  0  0  0  0  1  0  0  0  0  0  0
  188.4670  176.1290  136.4400 C   0  0  0  0  0  2  0  0  0  0  0  0
  188.5420  178.3460  135.1100 C   0  0  0  0  0  2  0  0  0  0  0  0
  184.6530  180.4330  139.4680 C   0  0  0  0  0  3  0  0  0  0  0  0
  192.8120  176.8960  134.5850 O   0  0  0  0  0  0  0  0  0  0  0  0
  192.8040  176.4790  137.0920 C   0  0  2  0  0  3  0  0  0  0  0  0
  192.2350  175.0520  137.0190 C   0  0  0  0  0  2  0  0  0  0  0  0
  184.1820  181.4430  138.6330 C   0  0  0  0  0  3  0  0  0  0  0  0
  183.0820  178.8800  138.4960 C   0  0  0  0  0  0  0  0  0  0  0  0
  182.5790  179.9090  137.6850 C   0  0  0  0  0  3  0  0  0  0  0  0
  184.4960  176.7100  139.7400 O   0  0  0  0  0  0  0  0  0  0  0  0
  190.4470  176.7290  135.0710 C   0  0  0  0  0  0  0  0  0  0  0  0
  189.7420  177.6900  134.4640 C   0  0  0  0  0  3  0  0  0  0  0  0
  183.1480  181.1820  137.7360 C   0  0  0  0  0  3  0  0  0  0  0  0
  185.8040  172.7100  136.6360 C   0  0  0  0  0  2  0  0  0  0  0  0
  191.6240  176.1460  134.3460 C   0  0  0  0  0  2  0  0  0  0  0  0
  184.1360  179.1260  139.3760 C   0  0  0  0  0  0  0  0  0  0  0  0
  185.4660  175.0950  135.9220 C   0  0  2  0  0  3  0  0  0  0  0  0
  182.6490  175.1400  139.4490 C   0  0  2  0  0  3  0  0  0  0  0  0
  193.4820  176.9170  135.8130 C   0  0  0  0  0  0  0  0  0  0  0  0
  184.5630  175.7970  134.9310 C   0  0  0  0  0  2  0  0  0  0  0  0
  181.1340  177.6610  139.4500 C   0  0  2  0  0  3  0  0  0  0  0  0
  181.1710  175.3840  139.7090 C   0  0  0  0  0  2  0  0  0  0  0  0
  187.8040  178.2420  137.3950 O   0  0  0  0  0  0  0  0  0  0  0  0
  182.3880  177.5670  138.5520 C   0  0  2  0  0  3  0  0  0  0  0  0
  186.9950  178.5460  139.6010 C   0  0  0  0  0  3  0  0  0  0  0  0
  186.0950  178.1550  140.7340 C   0  0  2  0  0  3  0  0  0  0  0  0
  184.4340  172.5440  137.2860 C   0  0  0  0  0  2  0  0  0  0  0  0
  189.9970  176.2440  136.4360 C   0  0  2  0  0  3  0  0  0  0  0  0
  187.8000  177.5030  136.1740 C   0  0  2  0  0  0  0  0  0  0  0  0
  184.2530  173.5770  138.3880 C   0  0  0  0  0  2  0  0  0  0  0  0
  184.6140  178.0120  140.2980 C   0  0  2  0  0  3  0  0  0  0  0  0
  183.3400  176.4280  138.9710 C   0  0  1  0  0  3  0  0  0  0  0  0
  194.6760  177.3150  135.8340 O   0  0  0  0  0  0  0  0  0  0  0  0
  186.3390  177.3610  135.7000 C   0  0  0  0  0  2  0  0  0  0  0  0
  181.0200  176.6030  140.3920 O   0  0  0  0  0  0  0  0  0  0  0  0
  190.6910  174.9660  137.0060 C   0  0  1  0  0  0  0  0  0  0  0  0
  186.0470  176.0810  134.9280 C   0  0  1  0  0  3  0  0  0  0  0  0
  185.7450  173.6710  135.4550 C   0  0  0  0  0  2  0  0  0  0  0  0
  190.2930  173.7510  136.1810 C   0  0  0  0  0  0  0  0  0  0  0  0
  191.1950  173.1660  135.3000 O   0  0  0  0  0  0  0  0  0  0  0  0
  189.1160  173.2900  136.2350 O   0  0  0  0  0  1  0  0  0  0  0  0
  192.6640  177.2770  139.2410 C   0  0  0  0  0  1  0  0  0  0  0  0
  193.5390  176.7710  138.2650 O   0  0  0  0  0  0  0  0  0  0  0  0
  190.2200  174.7360  138.4560 C   0  0  0  0  0  2  0  0  0  0  0  0
  189.9030  176.0250  139.1910 C   0  0  0  0  0  1  0  0  0  0  0  0
  179.9820  177.7540  138.6470 O   0  0  0  0  0  0  0  0  0  0  0  0
  180.1100  176.7810  137.6460 C   0  0  0  0  0  2  0  0  0  0  0  0
  179.9910  178.9690  136.4570 C   0  0  0  0  0  1  0  0  0  0  0  0
  180.1350  177.4680  136.2870 C   0  0  1  0  0  3  0  0  0  0  0  0
  181.4510  177.1480  135.5830 C   0  0  0  0  0  2  0  0  0  0  0  0
  181.4660  175.7260  135.0560 C   0  0  0  0  0  2  0  0  0  0  0  0
  180.1810  175.3610  134.6510 O   0  0  0  0  0  1  0  0  0  0  0  0
  2 28  2  0  0  0  0
  7 22  1  0  0  0  0
  8 46  1  1  0  0  0
  9  8  1  0  0  0  0
 10  6  2  0  0  0  0
 11 19  2  0  0  0  0
 12 16  2  0  0  0  0
 12 11  1  0  0  0  0
 13 34  1  0  0  0  0
 14 31  1  0  0  0  0
 15 14  2  0  0  0  0
 15  5  1  0  0  0  0
 16 10  1  0  0  0  0
 17 30  1  0  0  0  0
 18  7  1  0  0  0  0
 18 14  1  0  0  0  0
 19  6  1  0  0  0  0
 20 23  1  6  0  0  0
 21  1  1  6  0  0  0
 21 25  1  0  0  0  0
 22 36  2  0  0  0  0
 22  8  1  0  0  0  0
 24 49  1  6  0  0  0
 24 38  1  0  0  0  0
 25 38  1  0  0  0  0
 26  2  1  0  0  0  0
 27 11  1  1  0  0  0
 27 35  1  0  0  0  0
 27 24  1  0  0  0  0
 28 29  1  0  0  0  0
 29  3  1  1  0  0  0
 30 33  1  0  0  0  0
 31  4  1  6  0  0  0
 31 39  1  0  0  0  0
 32  5  1  6  0  0  0
 32  4  1  0  0  0  0
 32 26  1  0  0  0  0
 33  1  1  0  0  0  0
 34 19  1  6  0  0  0
 34 29  1  0  0  0  0
 35 21  1  0  0  0  0
 35 13  1  1  0  0  0
 37 32  1  0  0  0  0
 39  9  1  0  0  0  0
 39 47  1  1  0  0  0
 40 23  1  6  0  0  0
 40 37  1  0  0  0  0
 40 20  1  0  0  0  0
 41 20  1  0  0  0  0
 41 17  1  0  0  0  0
 42 44  1  0  0  0  0
 42 39  1  0  0  0  0
 43 42  2  0  0  0  0
 46 45  1  0  0  0  0
 47 48  1  0  0  0  0
 50 49  1  0  0  0  0
 52 51  1  1  0  0  0
 52 50  1  0  0  0  0
 53 52  1  0  0  0  0
 54 53  1  0  0  0  0
 55 54  1  0  0  0  0
M  END
>  <MODEL>
1

>  <REMARK>
 VINA RESULT:       4.9      0.000      0.000
  Name = 
  8 active torsions:
  status: ('A' for Active; 'I' for Inactive)
    1  A    between atoms: C_1  and  C_53
    2  A    between atoms: C_6  and  C_53
    3  A    between atoms: C_12  and  O_38
    4  A    between atoms: O_13  and  C_33
    5  A    between atoms: O_13  and  C_48
    6  A    between atoms: C_18  and  C_39
    7  A    between atoms: C_32  and  C_39
    8  A    between atoms: C_32  and  C_48
                            x       y       z     vdW  Elec       q    Type
                         _______ _______ _______ _____ _____    ______ ____

>  <TORSDO>
F 8

$$$$
=
 OpenBabel10272401203D

 55 61  0  0  1  0  0  0  0  0999 V2000
  185.4590  174.9510  136.2210 C   0  0  0  0  0  2  0  0  0  0  0  0
  185.0040  177.8510  141.0940 C   0  0  0  0  0  3  0  0  0  0  0  0
  181.4150  177.0000  141.6220 C   0  0  0  0  0  1  0  0  0  0  0  0
  187.9870  177.6400  141.3880 C   0  0  0  0  0  2  0  0  0  0  0  0
  187.8630  180.2150  141.5970 C   0  0  0  0  0  2  0  0  0  0  0  0
  181.9830  179.5150  139.7520 C   0  0  0  0  0  3  0  0  0  0  0  0
  190.6240  179.2130  145.0590 O   0  0  0  0  0  0  0  0  0  0  0  0
  188.9260  177.4270  145.6810 C   0  0  2  0  0  3  0  0  0  0  0  0
  189.5200  176.3200  144.7930 C   0  0  0  0  0  2  0  0  0  0  0  0
  181.9130  180.8340  139.3120 C   0  0  0  0  0  3  0  0  0  0  0  0
  182.9550  178.8510  137.6450 C   0  0  0  0  0  0  0  0  0  0  0  0
  182.8450  180.1740  137.1870 C   0  0  0  0  0  3  0  0  0  0  0  0
  183.6760  176.3230  138.8030 O   0  0  0  0  0  0  0  0  0  0  0  0
  189.4570  178.8630  142.9680 C   0  0  0  0  0  0  0  0  0  0  0  0
  189.1500  180.0170  142.3650 C   0  0  0  0  0  3  0  0  0  0  0  0
  182.3490  181.1680  138.0310 C   0  0  0  0  0  3  0  0  0  0  0  0
  188.6400  174.8090  138.1650 C   0  0  0  0  0  2  0  0  0  0  0  0
  190.7570  178.7720  143.7100 C   0  0  0  0  0  2  0  0  0  0  0  0
  182.5480  178.5160  138.9360 C   0  0  0  0  0  0  0  0  0  0  0  0
  187.8040  177.1780  138.2100 C   0  0  2  0  0  3  0  0  0  0  0  0
  184.0340  175.2600  136.6340 C   0  0  2  0  0  3  0  0  0  0  0  0
  189.9260  178.5030  146.0420 C   0  0  0  0  0  0  0  0  0  0  0  0
  187.8530  178.3480  137.2510 C   0  0  0  0  0  2  0  0  0  0  0  0
  182.1390  177.3610  135.8280 C   0  0  2  0  0  3  0  0  0  0  0  0
  183.1540  175.3510  135.3970 C   0  0  0  0  0  2  0  0  0  0  0  0
  185.8970  178.8320  141.5510 O   0  0  0  0  0  0  0  0  0  0  0  0
  183.3440  177.7670  136.7070 C   0  0  2  0  0  3  0  0  0  0  0  0
  183.7500  177.8310  141.5140 C   0  0  0  0  0  3  0  0  0  0  0  0
  182.7550  176.8850  140.9160 C   0  0  2  0  0  3  0  0  0  0  0  0
  187.7190  174.3370  137.0450 C   0  0  0  0  0  2  0  0  0  0  0  0
  188.5020  177.6930  142.8320 C   0  0  2  0  0  3  0  0  0  0  0  0
  187.2170  178.9330  141.0180 C   0  0  2  0  0  0  0  0  0  0  0  0
  186.2670  174.5510  137.4420 C   0  0  0  0  0  2  0  0  0  0  0  0
  182.6080  177.0610  139.3830 C   0  0  2  0  0  3  0  0  0  0  0  0
  183.9790  176.5690  137.4400 C   0  0  1  0  0  3  0  0  0  0  0  0
  190.1470  178.7820  147.2490 O   0  0  0  0  0  0  0  0  0  0  0  0
  187.1070  179.1320  139.4920 C   0  0  0  0  0  2  0  0  0  0  0  0
  181.9350  175.9570  135.7440 O   0  0  0  0  0  0  0  0  0  0  0  0
  188.9980  176.3010  143.3370 C   0  0  1  0  0  0  0  0  0  0  0  0
  188.2610  178.5400  138.6930 C   0  0  1  0  0  3  0  0  0  0  0  0
  189.0140  176.2770  137.9950 C   0  0  0  0  0  2  0  0  0  0  0  0
  190.1190  175.7950  142.4410 C   0  0  0  0  0  0  0  0  0  0  0  0
  191.3250  175.3700  142.9860 O   0  0  0  0  0  1  0  0  0  0  0  0
  189.9960  175.8120  141.1820 O   0  0  0  0  0  0  0  0  0  0  0  0
  187.1170  177.8860  147.0190 C   0  0  0  0  0  1  0  0  0  0  0  0
  188.1510  176.9680  146.7720 O   0  0  0  0  0  0  0  0  0  0  0  0
  187.8360  175.2900  143.2680 C   0  0  0  0  0  2  0  0  0  0  0  0
  186.6070  175.7420  144.0360 C   0  0  0  0  0  1  0  0  0  0  0  0
  182.2730  177.9320  134.5480 O   0  0  0  0  0  0  0  0  0  0  0  0
  181.9390  179.2880  134.6760 C   0  0  0  0  0  2  0  0  0  0  0  0
  179.9820  179.1600  136.2160 C   0  0  0  0  0  1  0  0  0  0  0  0
  180.4250  179.4170  134.7870 C   0  0  1  0  0  3  0  0  0  0  0  0
  180.0050  180.8190  134.3560 C   0  0  0  0  0  2  0  0  0  0  0  0
  180.9680  181.8700  134.8750 C   0  0  0  0  0  2  0  0  0  0  0  0
  180.2500  182.9450  135.4020 O   0  0  0  0  0  1  0  0  0  0  0  0
  1 21  1  0  0  0  0
  1 33  1  0  0  0  0
  2 28  2  0  0  0  0
  2 26  1  0  0  0  0
  5 15  1  0  0  0  0
  7 22  1  0  0  0  0
  8 22  1  0  0  0  0
  8 46  1  1  0  0  0
  9  8  1  0  0  0  0
 10  6  1  0  0  0  0
 11 19  1  0  0  0  0
 12 11  2  0  0  0  0
 12 16  1  0  0  0  0
 14 18  1  0  0  0  0
 15 14  2  0  0  0  0
 16 10  2  0  0  0  0
 18  7  1  0  0  0  0
 19 34  1  0  0  0  0
 19  6  2  0  0  0  0
 20 23  1  6  0  0  0
 20 40  1  0  0  0  0
 21 25  1  6  0  0  0
 21 35  1  0  0  0  0
 22 36  2  0  0  0  0
 24 49  1  6  0  0  0
 24 27  1  0  0  0  0
 25 38  1  0  0  0  0
 27 35  1  0  0  0  0
 27 11  1  1  0  0  0
 29 28  1  0  0  0  0
 29  3  1  1  0  0  0
 30 33  1  0  0  0  0
 30 17  1  0  0  0  0
 31  4  1  6  0  0  0
 31 14  1  0  0  0  0
 31 39  1  0  0  0  0
 32 37  1  6  0  0  0
 32  4  1  0  0  0  0
 32 26  1  0  0  0  0
 32  5  1  0  0  0  0
 34 13  1  6  0  0  0
 34 29  1  0  0  0  0
 35 13  1  1  0  0  0
 38 24  1  0  0  0  0
 39 47  1  6  0  0  0
 39  9  1  0  0  0  0
 40 23  1  6  0  0  0
 40 37  1  0  0  0  0
 41 17  1  0  0  0  0
 41 20  1  0  0  0  0
 42 43  1  0  0  0  0
 42 39  1  0  0  0  0
 44 42  2  0  0  0  0
 46 45  1  0  0  0  0
 47 48  1  0  0  0  0
 49 50  1  0  0  0  0
 50 52  1  0  0  0  0
 52 51  1  1  0  0  0
 53 52  1  0  0  0  0
 53 54  1  0  0  0  0
 54 55  1  0  0  0  0
M  END
>  <MODEL>
2

>  <REMARK>
 VINA RESULT:       7.2      3.437      5.832
  Name = 
  8 active torsions:
  status: ('A' for Active; 'I' for Inactive)
    1  A    between atoms: C_1  and  C_53
    2  A    between atoms: C_6  and  C_53
    3  A    between atoms: C_12  and  O_38
    4  A    between atoms: O_13  and  C_33
    5  A    between atoms: O_13  and  C_48
    6  A    between atoms: C_18  and  C_39
    7  A    between atoms: C_32  and  C_39
    8  A    between atoms: C_32  and  C_48
                            x       y       z     vdW  Elec       q    Type
                         _______ _______ _______ _____ _____    ______ ____

>  <TORSDO>
F 8

$$$$
=
 OpenBabel10272401203D

 55 61  0  0  1  0  0  0  0  0999 V2000
  187.1530  173.2990  136.9750 C   0  0  0  0  0  2  0  0  0  0  0  0
  191.7200  176.2180  138.7030 C   0  0  0  0  0  3  0  0  0  0  0  0
  190.2270  177.2160  141.9680 C   0  0  0  0  0  1  0  0  0  0  0  0
  193.3630  174.6080  136.7700 C   0  0  0  0  0  2  0  0  0  0  0  0
  194.0830  176.9310  135.8880 C   0  0  0  0  0  2  0  0  0  0  0  0
  189.5160  179.0850  139.4890 C   0  0  0  0  0  3  0  0  0  0  0  0
  198.1040  174.8390  136.1510 O   0  0  0  0  0  0  0  0  0  0  0  0
  197.3870  174.1110  138.4780 C   0  0  2  0  0  3  0  0  0  0  0  0
  196.6670  172.8260  138.0340 C   0  0  0  0  0  2  0  0  0  0  0  0
  189.4200  180.2600  138.7490 C   0  0  0  0  0  3  0  0  0  0  0  0
  188.0560  177.9670  137.9260 C   0  0  0  0  0  0  0  0  0  0  0  0
  187.9260  179.1630  137.2040 C   0  0  0  0  0  3  0  0  0  0  0  0
  188.7880  175.4430  139.0860 O   0  0  0  0  0  0  0  0  0  0  0  0
  195.6940  175.0250  136.0290 C   0  0  0  0  0  0  0  0  0  0  0  0
  195.3080  176.1640  135.4430 C   0  0  0  0  0  3  0  0  0  0  0  0
  188.6300  180.3010  137.6010 C   0  0  0  0  0  3  0  0  0  0  0  0
  190.3000  171.7090  135.7530 C   0  0  0  0  0  2  0  0  0  0  0  0
  196.9280  174.3440  135.5160 C   0  0  0  0  0  2  0  0  0  0  0  0
  188.8670  177.9110  139.0590 C   0  0  0  0  0  0  0  0  0  0  0  0
  190.4890  174.1880  135.3910 C   0  0  2  0  0  3  0  0  0  0  0  0
  186.8840  174.2690  138.1080 C   0  0  2  0  0  3  0  0  0  0  0  0
  198.4280  174.5850  137.4890 C   0  0  0  0  0  0  0  0  0  0  0  0
  189.9780  175.1580  134.3470 C   0  0  0  0  0  2  0  0  0  0  0  0
  185.7790  176.9940  138.1740 C   0  0  2  0  0  3  0  0  0  0  0  0
  185.4370  174.7310  138.0480 C   0  0  0  0  0  2  0  0  0  0  0  0
  192.7680  176.6630  137.8830 O   0  0  0  0  0  0  0  0  0  0  0  0
  187.1990  176.7990  137.5960 C   0  0  2  0  0  3  0  0  0  0  0  0
  191.4630  176.8180  139.8530 C   0  0  0  0  0  3  0  0  0  0  0  0
  190.2550  176.4470  140.6590 C   0  0  2  0  0  3  0  0  0  0  0  0
  188.8000  171.7010  136.0240 C   0  0  0  0  0  2  0  0  0  0  0  0
  194.8420  174.4550  137.1470 C   0  0  2  0  0  3  0  0  0  0  0  0
  192.9820  176.1000  136.5890 C   0  0  2  0  0  0  0  0  0  0  0  0
  188.4800  172.6000  137.2080 C   0  0  0  0  0  2  0  0  0  0  0  0
  188.9330  176.6220  139.8680 C   0  0  2  0  0  3  0  0  0  0  0  0
  187.8440  175.4680  138.0290 C   0  0  1  0  0  3  0  0  0  0  0  0
  199.6170  174.7620  137.8580 O   0  0  0  0  0  0  0  0  0  0  0  0
  191.6890  176.2770  135.7660 C   0  0  0  0  0  2  0  0  0  0  0  0
  185.2800  175.8600  138.8700 O   0  0  0  0  0  0  0  0  0  0  0  0
  195.1830  173.0130  137.6420 C   0  0  1  0  0  0  0  0  0  0  0  0
  191.4360  175.1770  134.7430 C   0  0  1  0  0  3  0  0  0  0  0  0
  190.6820  172.8090  134.7700 C   0  0  0  0  0  2  0  0  0  0  0  0
  194.8510  172.0020  136.5540 C   0  0  0  0  0  0  0  0  0  0  0  0
  193.5400  171.5910  136.3450 O   0  0  0  0  0  1  0  0  0  0  0  0
  195.7690  171.4700  135.8650 O   0  0  0  0  0  0  0  0  0  0  0  0
  198.2430  175.4140  140.1650 C   0  0  0  0  0  1  0  0  0  0  0  0
  197.8240  174.1170  139.8240 O   0  0  0  0  0  0  0  0  0  0  0  0
  194.3240  172.6840  138.8790 C   0  0  0  0  0  2  0  0  0  0  0  0
  194.3140  171.2050  139.2210 C   0  0  0  0  0  1  0  0  0  0  0  0
  184.8990  177.3890  137.1480 O   0  0  0  0  0  0  0  0  0  0  0  0
  183.6560  177.6230  137.7530 C   0  0  0  0  0  2  0  0  0  0  0  0
  182.0290  178.2460  135.9690 C   0  0  0  0  0  1  0  0  0  0  0  0
  182.5540  177.1130  136.8340 C   0  0  1  0  0  3  0  0  0  0  0  0
  183.1060  175.9980  135.9520 C   0  0  0  0  0  2  0  0  0  0  0  0
  182.3800  174.6880  136.1940 C   0  0  0  0  0  2  0  0  0  0  0  0
  181.9300  174.6370  137.5140 O   0  0  0  0  0  1  0  0  0  0  0  0
  1 33  1  0  0  0  0
  2 28  2  0  0  0  0
  5 32  1  0  0  0  0
  7 22  1  0  0  0  0
  8 46  1  1  0  0  0
  9  8  1  0  0  0  0
 10  6  2  0  0  0  0
 11 19  2  0  0  0  0
 12 16  2  0  0  0  0
 12 11  1  0  0  0  0
 13 34  1  0  0  0  0
 14 31  1  0  0  0  0
 15  5  1  0  0  0  0
 15 14  2  0  0  0  0
 16 10  1  0  0  0  0
 17 30  1  0  0  0  0
 18 14  1  0  0  0  0
 18  7  1  0  0  0  0
 19  6  1  0  0  0  0
 20 23  1  6  0  0  0
 21  1  1  6  0  0  0
 22 36  2  0  0  0  0
 22  8  1  0  0  0  0
 24 49  1  6  0  0  0
 24 38  1  0  0  0  0
 25 21  1  0  0  0  0
 25 38  1  0  0  0  0
 26  2  1  0  0  0  0
 27 11  1  1  0  0  0
 27 35  1  0  0  0  0
 27 24  1  0  0  0  0
 28 29  1  0  0  0  0
 29  3  1  1  0  0  0
 30 33  1  0  0  0  0
 31  4  1  6  0  0  0
 31 39  1  0  0  0  0
 32 37  1  6  0  0  0
 32  4  1  0  0  0  0
 32 26  1  0  0  0  0
 34 19  1  6  0  0  0
 34 29  1  0  0  0  0
 35 21  1  0  0  0  0
 35 13  1  1  0  0  0
 39  9  1  0  0  0  0
 39 47  1  1  0  0  0
 40 23  1  6  0  0  0
 40 20  1  0  0  0  0
 40 37  1  0  0  0  0
 41 20  1  0  0  0  0
 41 17  1  0  0  0  0
 42 39  1  0  0  0  0
 43 42  1  0  0  0  0
 44 42  2  0  0  0  0
 46 45  1  0  0  0  0
 47 48  1  0  0  0  0
 49 50  1  0  0  0  0
 52 51  1  6  0  0  0
 52 50  1  0  0  0  0
 53 54  1  0  0  0  0
 53 52  1  0  0  0  0
 54 55  1  0  0  0  0
M  END
>  <MODEL>
3

>  <REMARK>
 VINA RESULT:       7.5      2.979      4.960
  Name = 
  8 active torsions:
  status: ('A' for Active; 'I' for Inactive)
    1  A    between atoms: C_1  and  C_53
    2  A    between atoms: C_6  and  C_53
    3  A    between atoms: C_12  and  O_38
    4  A    between atoms: O_13  and  C_33
    5  A    between atoms: O_13  and  C_48
    6  A    between atoms: C_18  and  C_39
    7  A    between atoms: C_32  and  C_39
    8  A    between atoms: C_32  and  C_48
                            x       y       z     vdW  Elec       q    Type
                         _______ _______ _______ _____ _____    ______ ____

>  <TORSDO>
F 8

$$$$
