=
 OpenBabel10272400003D

 34 38  0  0  1  0  0  0  0  0999 V2000
  190.3430  177.1120  146.1600 C   0  0  0  0  0  0  0  0  0  0  0  0
  188.2750  177.6620  146.3960 C   0  0  0  0  0  0  0  0  0  0  0  0
  189.0560  177.2980  144.1870 C   0  0  0  0  0  0  0  0  0  0  0  0
  187.2440  177.6770  142.3270 C   0  0  2  0  0  3  0  0  0  0  0  0
  188.8860  177.6020  147.6400 C   0  0  0  0  0  0  0  0  0  0  0  0
  188.2340  177.8760  148.9490 C   0  0  0  0  0  1  0  0  0  0  0  0
  186.7080  177.9360  144.5990 C   0  0  0  0  0  0  0  0  0  0  0  0
  189.2140  177.3520  145.5140 N   0  0  0  0  0  0  0  0  0  0  0  0
  185.7530  178.0840  142.4830 C   0  0  0  0  0  2  0  0  0  0  0  0
  190.2020  177.2540  147.5000 N   0  0  0  0  0  0  0  0  0  0  0  0
  191.3370  176.7030  144.0250 C   0  0  0  0  0  3  0  0  0  0  0  0
  191.4840  176.7680  145.4360 C   0  0  0  0  0  3  0  0  0  0  0  0
  186.9020  177.9840  145.9400 C   0  0  0  0  0  3  0  0  0  0  0  0
  185.5020  178.2040  143.9210 N   0  0  0  0  0  0  0  0  0  0  0  0
  187.7500  177.6080  143.6890 N   0  0  0  0  0  0  0  0  0  0  0  0
  190.1300  176.9690  143.4170 N   0  0  0  0  0  0  0  0  0  0  0  0
  184.3240  178.8370  144.5000 C   0  0  0  0  0  2  0  0  0  0  0  0
  183.3490  179.2180  143.4310 C   0  0  0  0  0  3  0  0  0  0  0  0
  182.0830  178.8100  143.4900 C   0  0  0  0  0  3  0  0  0  0  0  0
  181.1200  179.1960  142.4180 C   0  0  0  0  0  2  0  0  0  0  0  0
  181.1790  178.2600  141.3480 O   0  0  0  0  0  0  0  0  0  0  0  0
  182.2210  178.2340  140.4150 C   0  0  0  0  0  0  0  0  0  0  0  0
  182.9070  177.1860  140.2910 O   0  0  0  0  0  0  0  0  0  0  0  0
  183.9930  179.4320  139.1920 C   0  0  0  0  0  1  0  0  0  0  0  0
  182.5170  179.4050  139.5360 C   0  0  0  0  0  2  0  0  0  0  0  0
  187.9870  178.7520  141.5540 C   0  0  0  0  0  2  0  0  0  0  0  0
  187.8090  178.5560  140.1570 O   0  0  0  0  0  0  0  0  0  0  0  0
  191.1250  176.6490  137.8380 C   0  0  0  0  0  3  0  0  0  0  0  0
  191.0190  176.8980  139.1430 C   0  0  0  0  0  3  0  0  0  0  0  0
  188.8570  178.1930  139.3060 C   0  0  0  0  0  0  0  0  0  0  0  0
  189.8070  177.4010  139.8210 C   0  0  0  0  0  3  0  0  0  0  0  0
  189.4340  178.1540  136.8640 C   0  0  0  0  0  3  0  0  0  0  0  0
  188.9090  178.7540  137.9320 C   0  0  0  0  0  3  0  0  0  0  0  0
  189.9780  176.7670  136.8910 C   0  0  0  0  0  2  0  0  0  0  0  0
  1 10  2  0  0  0  0
  2  5  2  0  0  0  0
  3  8  1  0  0  0  0
  4 26  1  6  0  0  0
  4  9  1  0  0  0  0
  4 15  1  0  0  0  0
  5  6  1  0  0  0  0
  7 13  2  0  0  0  0
  8  1  1  0  0  0  0
  8  2  1  0  0  0  0
  9 14  1  0  0  0  0
 10  5  1  0  0  0  0
 11 12  2  0  0  0  0
 12  1  1  0  0  0  0
 13  2  1  0  0  0  0
 14 17  1  0  0  0  0
 14  7  1  0  0  0  0
 15  3  1  0  0  0  0
 15  7  1  0  0  0  0
 16 11  1  0  0  0  0
 16  3  2  0  0  0  0
 18 19  2  0  0  0  0
 18 17  1  0  0  0  0
 20 19  1  0  0  0  0
 21 20  1  0  0  0  0
 22 21  1  0  0  0  0
 23 22  2  0  0  0  0
 24 25  1  0  0  0  0
 25 22  1  0  0  0  0
 27 26  1  0  0  0  0
 28 29  2  0  0  0  0
 29 31  1  0  0  0  0
 30 31  2  0  0  0  0
 30 27  1  0  0  0  0
 32 34  1  0  0  0  0
 32 33  2  0  0  0  0
 33 30  1  0  0  0  0
 34 28  1  0  0  0  0
M  END
>  <MODEL>
1

>  <REMARK>
 VINA RESULT:      -8.8      0.000      0.000
  Name = 
  9 active torsions:
  status: ('A' for Active; 'I' for Inactive)
    1  A    between atoms: C_3  and  C_17
    2  A    between atoms: C_5  and  C_26
    3  A    between atoms: C_12  and  O_28
    4  A    between atoms: C_13  and  C_33
    5  A    between atoms: C_14  and  C_20
    6  A    between atoms: C_17  and  N_29
    7  A    between atoms: C_20  and  O_34
    8  A    between atoms: C_26  and  O_28
    9  A    between atoms: C_33  and  O_34
                            x       y       z     vdW  Elec       q    Type
                         _______ _______ _______ _____ _____    ______ ____

>  <TORSDO>
F 9

$$$$
=
 OpenBabel10272400003D

 34 38  0  0  1  0  0  0  0  0999 V2000
  189.7290  177.1130  137.0380 C   0  0  0  0  0  0  0  0  0  0  0  0
  190.8780  176.7860  138.8280 C   0  0  0  0  0  0  0  0  0  0  0  0
  188.6150  177.4390  139.0950 C   0  0  0  0  0  0  0  0  0  0  0  0
  187.8580  177.7120  141.5940 C   0  0  2  0  0  3  0  0  0  0  0  0
  191.6750  176.5590  137.7160 C   0  0  0  0  0  0  0  0  0  0  0  0
  193.1070  176.1560  137.7340 C   0  0  0  0  0  1  0  0  0  0  0  0
  190.0440  177.0340  141.0650 C   0  0  0  0  0  0  0  0  0  0  0  0
  189.6860  177.1250  138.3600 N   0  0  0  0  0  0  0  0  0  0  0  0
  188.6800  177.4900  142.8940 C   0  0  0  0  0  2  0  0  0  0  0  0
  190.9530  176.7650  136.5720 N   0  0  0  0  0  0  0  0  0  0  0  0
  187.4340  177.7790  137.0770 C   0  0  0  0  0  3  0  0  0  0  0  0
  188.5840  177.4450  136.3140 C   0  0  0  0  0  3  0  0  0  0  0  0
  191.1130  176.7230  140.2910 C   0  0  0  0  0  3  0  0  0  0  0  0
  190.0130  177.0530  142.4750 N   0  0  0  0  0  0  0  0  0  0  0  0
  188.7860  177.4030  140.5170 N   0  0  0  0  0  0  0  0  0  0  0  0
  187.4610  177.7740  138.4540 N   0  0  0  0  0  0  0  0  0  0  0  0
  191.1770  177.0090  143.3510 C   0  0  0  0  0  2  0  0  0  0  0  0
  190.7600  177.0500  144.7870 C   0  0  0  0  0  3  0  0  0  0  0  0
  191.5880  176.6470  145.7470 C   0  0  0  0  0  3  0  0  0  0  0  0
  191.1610  176.6930  147.1760 C   0  0  0  0  0  2  0  0  0  0  0  0
  189.7410  176.7220  147.2600 O   0  0  0  0  0  0  0  0  0  0  0  0
  189.0370  177.7270  147.9330 C   0  0  0  0  0  0  0  0  0  0  0  0
  189.6310  178.4120  148.8060 O   0  0  0  0  0  0  0  0  0  0  0  0
  187.3110  177.6610  146.1760 C   0  0  0  0  0  1  0  0  0  0  0  0
  187.6100  178.0330  147.6140 C   0  0  0  0  0  2  0  0  0  0  0  0
  187.4300  179.1660  141.5050 C   0  0  0  0  0  2  0  0  0  0  0  0
  186.0570  179.2460  141.1460 O   0  0  0  0  0  0  0  0  0  0  0  0
  182.9870  178.7950  144.3690 C   0  0  0  0  0  3  0  0  0  0  0  0
  184.3180  178.8080  144.4420 C   0  0  0  0  0  3  0  0  0  0  0  0
  185.0260  178.8880  142.0190 C   0  0  0  0  0  0  0  0  0  0  0  0
  185.2330  179.1140  143.3240 C   0  0  0  0  0  3  0  0  0  0  0  0
  182.5850  178.3050  141.9870 C   0  0  0  0  0  3  0  0  0  0  0  0
  183.8150  178.2150  141.4830 C   0  0  0  0  0  3  0  0  0  0  0  0
  182.2370  179.1830  143.1400 C   0  0  0  0  0  2  0  0  0  0  0  0
  1  8  1  0  0  0  0
  2 13  1  0  0  0  0
  3 15  1  0  0  0  0
  4 26  1  6  0  0  0
  4  9  1  0  0  0  0
  5  6  1  0  0  0  0
  5  2  2  0  0  0  0
  7 14  1  0  0  0  0
  8  2  1  0  0  0  0
  8  3  1  0  0  0  0
 10  1  2  0  0  0  0
 10  5  1  0  0  0  0
 11 16  1  0  0  0  0
 12  1  1  0  0  0  0
 12 11  2  0  0  0  0
 13  7  2  0  0  0  0
 14  9  1  0  0  0  0
 14 17  1  0  0  0  0
 15  7  1  0  0  0  0
 15  4  1  0  0  0  0
 16  3  2  0  0  0  0
 17 18  1  0  0  0  0
 18 19  2  0  0  0  0
 19 20  1  0  0  0  0
 20 21  1  0  0  0  0
 21 22  1  0  0  0  0
 22 23  2  0  0  0  0
 24 25  1  0  0  0  0
 25 22  1  0  0  0  0
 27 26  1  0  0  0  0
 27 30  1  0  0  0  0
 28 29  2  0  0  0  0
 30 31  2  0  0  0  0
 31 29  1  0  0  0  0
 32 34  1  0  0  0  0
 33 32  2  0  0  0  0
 33 30  1  0  0  0  0
 34 28  1  0  0  0  0
M  END
>  <MODEL>
2

>  <REMARK>
 VINA RESULT:      -8.6      2.904      8.078
  Name = 
  9 active torsions:
  status: ('A' for Active; 'I' for Inactive)
    1  A    between atoms: C_3  and  C_17
    2  A    between atoms: C_5  and  C_26
    3  A    between atoms: C_12  and  O_28
    4  A    between atoms: C_13  and  C_33
    5  A    between atoms: C_14  and  C_20
    6  A    between atoms: C_17  and  N_29
    7  A    between atoms: C_20  and  O_34
    8  A    between atoms: C_26  and  O_28
    9  A    between atoms: C_33  and  O_34
                            x       y       z     vdW  Elec       q    Type
                         _______ _______ _______ _____ _____    ______ ____

>  <TORSDO>
F 9

$$$$
=
 OpenBabel10272400003D

 34 38  0  0  1  0  0  0  0  0999 V2000
  190.7480  177.2800  139.8120 C   0  0  0  0  0  0  0  0  0  0  0  0
  188.8540  177.6470  138.8570 C   0  0  0  0  0  0  0  0  0  0  0  0
  188.9710  177.9860  141.2010 C   0  0  0  0  0  0  0  0  0  0  0  0
  186.7060  178.7300  142.2980 C   0  0  2  0  0  3  0  0  0  0  0  0
  189.7810  177.2380  137.9100 C   0  0  0  0  0  0  0  0  0  0  0  0
  189.5280  177.0670  136.4550 C   0  0  0  0  0  1  0  0  0  0  0  0
  186.8600  178.3680  139.9820 C   0  0  0  0  0  0  0  0  0  0  0  0
  189.4960  177.6580  140.0160 N   0  0  0  0  0  0  0  0  0  0  0  0
  185.3300  178.9870  141.6220 C   0  0  0  0  0  2  0  0  0  0  0  0
  190.9890  177.0010  138.5090 N   0  0  0  0  0  0  0  0  0  0  0  0
  191.0860  177.5550  142.1630 C   0  0  0  0  0  3  0  0  0  0  0  0
  191.6240  177.2090  140.8950 C   0  0  0  0  0  3  0  0  0  0  0  0
  187.4220  178.0270  138.7960 C   0  0  0  0  0  3  0  0  0  0  0  0
  185.5210  178.7600  140.1880 N   0  0  0  0  0  0  0  0  0  0  0  0
  187.5870  178.3550  141.2030 N   0  0  0  0  0  0  0  0  0  0  0  0
  189.7710  177.9380  142.3020 N   0  0  0  0  0  0  0  0  0  0  0  0
  184.4360  178.6130  139.2270 C   0  0  0  0  0  2  0  0  0  0  0  0
  183.1090  178.7800  139.8980 C   0  0  0  0  0  3  0  0  0  0  0  0
  182.3100  177.7330  140.0940 C   0  0  0  0  0  3  0  0  0  0  0  0
  180.9900  177.9120  140.7640 C   0  0  0  0  0  2  0  0  0  0  0  0
  180.8540  179.2490  141.2290 O   0  0  0  0  0  0  0  0  0  0  0  0
  180.7030  179.5750  142.5810 C   0  0  0  0  0  0  0  0  0  0  0  0
  180.1760  180.6750  142.8910 O   0  0  0  0  0  0  0  0  0  0  0  0
  182.5660  178.8820  144.0350 C   0  0  0  0  0  1  0  0  0  0  0  0
  181.1180  178.6360  143.6660 C   0  0  0  0  0  2  0  0  0  0  0  0
  186.5830  177.5780  143.2790 C   0  0  0  0  0  2  0  0  0  0  0  0
  186.2400  178.0730  144.5670 O   0  0  0  0  0  0  0  0  0  0  0  0
  188.5030  177.6880  148.4070 C   0  0  0  0  0  3  0  0  0  0  0  0
  187.3520  178.3060  148.1430 C   0  0  0  0  0  3  0  0  0  0  0  0
  187.1390  178.0810  145.6370 C   0  0  0  0  0  0  0  0  0  0  0  0
  186.6200  178.2410  146.8620 C   0  0  0  0  0  3  0  0  0  0  0  0
  189.5100  177.4520  146.1690 C   0  0  0  0  0  3  0  0  0  0  0  0
  188.5970  177.9960  145.3660 C   0  0  0  0  0  3  0  0  0  0  0  0
  189.1670  176.7610  147.4450 C   0  0  0  0  0  2  0  0  0  0  0  0
  1  8  1  0  0  0  0
  1 12  1  0  0  0  0
  2  8  1  0  0  0  0
  3 15  1  0  0  0  0
  3 16  2  0  0  0  0
  4 26  1  1  0  0  0
  5 10  1  0  0  0  0
  5  2  2  0  0  0  0
  6  5  1  0  0  0  0
  7 14  1  0  0  0  0
  7 15  1  0  0  0  0
  8  3  1  0  0  0  0
  9  4  1  0  0  0  0
 10  1  2  0  0  0  0
 11 16  1  0  0  0  0
 12 11  2  0  0  0  0
 13  2  1  0  0  0  0
 13  7  2  0  0  0  0
 14  9  1  0  0  0  0
 15  4  1  0  0  0  0
 17 18  1  0  0  0  0
 17 14  1  0  0  0  0
 18 19  2  0  0  0  0
 19 20  1  0  0  0  0
 20 21  1  0  0  0  0
 21 22  1  0  0  0  0
 22 23  2  0  0  0  0
 22 25  1  0  0  0  0
 25 24  1  0  0  0  0
 26 27  1  0  0  0  0
 27 30  1  0  0  0  0
 29 28  2  0  0  0  0
 30 31  2  0  0  0  0
 31 29  1  0  0  0  0
 32 34  1  0  0  0  0
 33 30  1  0  0  0  0
 33 32  2  0  0  0  0
 34 28  1  0  0  0  0
M  END
>  <MODEL>
3

>  <REMARK>
 VINA RESULT:      -8.6      1.940      6.278
  Name = 
  9 active torsions:
  status: ('A' for Active; 'I' for Inactive)
    1  A    between atoms: C_3  and  C_17
    2  A    between atoms: C_5  and  C_26
    3  A    between atoms: C_12  and  O_28
    4  A    between atoms: C_13  and  C_33
    5  A    between atoms: C_14  and  C_20
    6  A    between atoms: C_17  and  N_29
    7  A    between atoms: C_20  and  O_34
    8  A    between atoms: C_26  and  O_28
    9  A    between atoms: C_33  and  O_34
                            x       y       z     vdW  Elec       q    Type
                         _______ _______ _______ _____ _____    ______ ____

>  <TORSDO>
F 9

$$$$
=
 OpenBabel10272400003D

 34 38  0  0  1  0  0  0  0  0999 V2000
  190.6870  176.7180  137.2840 C   0  0  0  0  0  0  0  0  0  0  0  0
  188.6230  177.3220  137.3830 C   0  0  0  0  0  0  0  0  0  0  0  0
  189.8810  177.4190  139.3910 C   0  0  0  0  0  0  0  0  0  0  0  0
  188.5130  178.2230  141.4820 C   0  0  2  0  0  3  0  0  0  0  0  0
  188.9340  176.9390  136.0880 C   0  0  0  0  0  0  0  0  0  0  0  0
  188.0000  176.9330  134.9300 C   0  0  0  0  0  1  0  0  0  0  0  0
  187.5040  178.0800  139.3660 C   0  0  0  0  0  0  0  0  0  0  0  0
  189.7360  177.1700  138.0850 N   0  0  0  0  0  0  0  0  0  0  0  0
  187.0220  178.6510  141.5700 C   0  0  0  0  0  2  0  0  0  0  0  0
  190.2450  176.5520  136.0140 N   0  0  0  0  0  0  0  0  0  0  0  0
  192.1330  176.7330  139.1880 C   0  0  0  0  0  3  0  0  0  0  0  0
  191.9580  176.4730  137.8020 C   0  0  0  0  0  3  0  0  0  0  0  0
  187.3900  177.8160  138.0420 C   0  0  0  0  0  3  0  0  0  0  0  0
  186.4800  178.5520  140.2130 N   0  0  0  0  0  0  0  0  0  0  0  0
  188.7180  177.8910  140.0810 N   0  0  0  0  0  0  0  0  0  0  0  0
  191.0970  177.2000  139.9650 N   0  0  0  0  0  0  0  0  0  0  0  0
  185.0590  178.5850  139.8920 C   0  0  0  0  0  2  0  0  0  0  0  0
  184.2660  179.0960  141.0530 C   0  0  0  0  0  3  0  0  0  0  0  0
  183.3530  178.3280  141.6420 C   0  0  0  0  0  3  0  0  0  0  0  0
  182.5680  178.8470  142.7990 C   0  0  0  0  0  2  0  0  0  0  0  0
  183.2210  178.5200  144.0200 O   0  0  0  0  0  0  0  0  0  0  0  0
  184.3920  179.1530  144.4510 C   0  0  0  0  0  0  0  0  0  0  0  0
  184.5500  180.3790  144.2160 O   0  0  0  0  0  0  0  0  0  0  0  0
  185.0960  178.4100  146.6920 C   0  0  0  0  0  1  0  0  0  0  0  0
  185.4440  178.4180  145.2170 C   0  0  0  0  0  2  0  0  0  0  0  0
  188.7410  176.9930  142.3430 C   0  0  0  0  0  2  0  0  0  0  0  0
  189.9840  177.1010  143.0240 O   0  0  0  0  0  0  0  0  0  0  0  0
  189.5290  177.1920  147.4740 C   0  0  0  0  0  3  0  0  0  0  0  0
  188.7610  177.7140  146.5180 C   0  0  0  0  0  3  0  0  0  0  0  0
  190.0750  177.2570  144.4100 C   0  0  0  0  0  0  0  0  0  0  0  0
  188.9310  177.4930  145.0680 C   0  0  0  0  0  3  0  0  0  0  0  0
  191.6660  176.8190  146.3020 C   0  0  0  0  0  3  0  0  0  0  0  0
  191.4090  177.2360  145.0620 C   0  0  0  0  0  3  0  0  0  0  0  0
  190.6300  176.2250  147.1940 C   0  0  0  0  0  2  0  0  0  0  0  0
  1 12  1  0  0  0  0
  1  8  1  0  0  0  0
  2 13  1  0  0  0  0
  2  8  1  0  0  0  0
  3 16  2  0  0  0  0
  3 15  1  0  0  0  0
  4  9  1  0  0  0  0
  4 26  1  1  0  0  0
  5  2  2  0  0  0  0
  6  5  1  0  0  0  0
  7 15  1  0  0  0  0
  7 14  1  0  0  0  0
  8  3  1  0  0  0  0
 10  5  1  0  0  0  0
 10  1  2  0  0  0  0
 11 16  1  0  0  0  0
 12 11  2  0  0  0  0
 13  7  2  0  0  0  0
 14  9  1  0  0  0  0
 15  4  1  0  0  0  0
 17 14  1  0  0  0  0
 17 18  1  0  0  0  0
 18 19  2  0  0  0  0
 19 20  1  0  0  0  0
 20 21  1  0  0  0  0
 21 22  1  0  0  0  0
 22 25  1  0  0  0  0
 23 22  2  0  0  0  0
 25 24  1  0  0  0  0
 26 27  1  0  0  0  0
 27 30  1  0  0  0  0
 29 28  2  0  0  0  0
 30 33  1  0  0  0  0
 30 31  2  0  0  0  0
 31 29  1  0  0  0  0
 32 34  1  0  0  0  0
 33 32  2  0  0  0  0
 34 28  1  0  0  0  0
M  END
>  <MODEL>
4

>  <REMARK>
 VINA RESULT:      -8.5      2.542      6.894
  Name = 
  9 active torsions:
  status: ('A' for Active; 'I' for Inactive)
    1  A    between atoms: C_3  and  C_17
    2  A    between atoms: C_5  and  C_26
    3  A    between atoms: C_12  and  O_28
    4  A    between atoms: C_13  and  C_33
    5  A    between atoms: C_14  and  C_20
    6  A    between atoms: C_17  and  N_29
    7  A    between atoms: C_20  and  O_34
    8  A    between atoms: C_26  and  O_28
    9  A    between atoms: C_33  and  O_34
                            x       y       z     vdW  Elec       q    Type
                         _______ _______ _______ _____ _____    ______ ____

>  <TORSDO>
F 9

$$$$
=
 OpenBabel10272400003D

 34 38  0  0  1  0  0  0  0  0999 V2000
  189.1110  177.2680  147.3220 C   0  0  0  0  0  0  0  0  0  0  0  0
  190.3470  176.8970  145.5990 C   0  0  0  0  0  0  0  0  0  0  0  0
  188.2580  177.9560  145.2290 C   0  0  0  0  0  0  0  0  0  0  0  0
  187.7480  178.4810  142.7080 C   0  0  2  0  0  3  0  0  0  0  0  0
  190.9860  176.4330  146.7390 C   0  0  0  0  0  0  0  0  0  0  0  0
  192.3180  175.7730  146.7880 C   0  0  0  0  0  1  0  0  0  0  0  0
  189.7710  177.4700  143.3410 C   0  0  0  0  0  0  0  0  0  0  0  0
  189.1940  177.4040  146.0090 N   0  0  0  0  0  0  0  0  0  0  0  0
  188.6260  178.2100  141.4550 C   0  0  0  0  0  2  0  0  0  0  0  0
  190.2070  176.6630  147.8410 N   0  0  0  0  0  0  0  0  0  0  0  0
  186.9680  178.3170  147.1740 C   0  0  0  0  0  3  0  0  0  0  0  0
  187.9730  177.7260  147.9850 C   0  0  0  0  0  3  0  0  0  0  0  0
  190.6990  176.9160  144.1590 C   0  0  0  0  0  3  0  0  0  0  0  0
  189.8670  177.6020  141.9400 N   0  0  0  0  0  0  0  0  0  0  0  0
  188.5410  177.9930  143.8250 N   0  0  0  0  0  0  0  0  0  0  0  0
  187.1190  178.4240  145.8100 N   0  0  0  0  0  0  0  0  0  0  0  0
  190.8420  176.9330  141.0890 C   0  0  0  0  0  2  0  0  0  0  0  0
  190.7380  177.4230  139.6790 C   0  0  0  0  0  3  0  0  0  0  0  0
  190.6040  176.5670  138.6700 C   0  0  0  0  0  3  0  0  0  0  0  0
  190.5020  177.0690  137.2680 C   0  0  0  0  0  2  0  0  0  0  0  0
  189.1370  177.1500  136.8770 O   0  0  0  0  0  0  0  0  0  0  0  0
  188.3530  178.2910  137.0760 C   0  0  0  0  0  0  0  0  0  0  0  0
  188.9190  179.3930  137.2980 O   0  0  0  0  0  0  0  0  0  0  0  0
  186.2750  178.0620  138.3800 C   0  0  0  0  0  1  0  0  0  0  0  0
  186.8620  178.2430  136.9940 C   0  0  0  0  0  2  0  0  0  0  0  0
  186.4570  177.6880  142.6060 C   0  0  0  0  0  2  0  0  0  0  0  0
  185.4740  178.4480  141.9140 O   0  0  0  0  0  0  0  0  0  0  0  0
  181.2960  178.9990  143.4140 C   0  0  0  0  0  3  0  0  0  0  0  0
  182.4300  178.7890  144.0810 C   0  0  0  0  0  3  0  0  0  0  0  0
  184.1160  178.4020  142.2420 C   0  0  0  0  0  0  0  0  0  0  0  0
  183.7810  178.7690  143.4860 C   0  0  0  0  0  3  0  0  0  0  0  0
  181.8680  178.2570  141.1350 C   0  0  0  0  0  3  0  0  0  0  0  0
  183.1430  177.8830  141.2480 C   0  0  0  0  0  3  0  0  0  0  0  0
  181.2570  179.3360  141.9620 C   0  0  0  0  0  2  0  0  0  0  0  0
  1 10  2  0  0  0  0
  1 12  1  0  0  0  0
  2  8  1  0  0  0  0
  2  5  2  0  0  0  0
  3 16  2  0  0  0  0
  3  8  1  0  0  0  0
  4 26  1  6  0  0  0
  4 15  1  0  0  0  0
  5  6  1  0  0  0  0
  5 10  1  0  0  0  0
  7 15  1  0  0  0  0
  7 13  2  0  0  0  0
  8  1  1  0  0  0  0
  9 14  1  0  0  0  0
  9  4  1  0  0  0  0
 11 12  2  0  0  0  0
 13  2  1  0  0  0  0
 14  7  1  0  0  0  0
 15  3  1  0  0  0  0
 16 11  1  0  0  0  0
 17 14  1  0  0  0  0
 18 17  1  0  0  0  0
 19 18  2  0  0  0  0
 20 19  1  0  0  0  0
 21 22  1  0  0  0  0
 21 20  1  0  0  0  0
 22 23  2  0  0  0  0
 25 22  1  0  0  0  0
 25 24  1  0  0  0  0
 27 30  1  0  0  0  0
 27 26  1  0  0  0  0
 28 29  2  0  0  0  0
 30 31  2  0  0  0  0
 31 29  1  0  0  0  0
 32 33  2  0  0  0  0
 32 34  1  0  0  0  0
 33 30  1  0  0  0  0
 34 28  1  0  0  0  0
M  END
>  <MODEL>
5

>  <REMARK>
 VINA RESULT:      -8.1      1.586      6.191
  Name = 
  9 active torsions:
  status: ('A' for Active; 'I' for Inactive)
    1  A    between atoms: C_3  and  C_17
    2  A    between atoms: C_5  and  C_26
    3  A    between atoms: C_12  and  O_28
    4  A    between atoms: C_13  and  C_33
    5  A    between atoms: C_14  and  C_20
    6  A    between atoms: C_17  and  N_29
    7  A    between atoms: C_20  and  O_34
    8  A    between atoms: C_26  and  O_28
    9  A    between atoms: C_33  and  O_34
                            x       y       z     vdW  Elec       q    Type
                         _______ _______ _______ _____ _____    ______ ____

>  <TORSDO>
F 9

$$$$
=
 OpenBabel10272400003D

 34 38  0  0  1  0  0  0  0  0999 V2000
  190.0590  177.4000  139.0700 C   0  0  0  0  0  0  0  0  0  0  0  0
  188.0350  177.9610  138.5980 C   0  0  0  0  0  0  0  0  0  0  0  0
  188.6490  177.9360  140.8880 C   0  0  0  0  0  0  0  0  0  0  0  0
  186.7040  178.5680  142.5340 C   0  0  2  0  0  3  0  0  0  0  0  0
  188.7230  177.6750  137.4290 C   0  0  0  0  0  0  0  0  0  0  0  0
  188.1670  177.7350  136.0500 C   0  0  0  0  0  1  0  0  0  0  0  0
  186.3590  178.5580  140.2100 C   0  0  0  0  0  0  0  0  0  0  0  0
  188.9000  177.7770  139.5850 N   0  0  0  0  0  0  0  0  0  0  0  0
  185.2370  178.9640  142.2080 C   0  0  0  0  0  2  0  0  0  0  0  0
  190.0110  177.3160  137.7180 N   0  0  0  0  0  0  0  0  0  0  0  0
  190.8860  177.3040  141.3110 C   0  0  0  0  0  3  0  0  0  0  0  0
  191.1320  177.1400  139.9210 C   0  0  0  0  0  3  0  0  0  0  0  0
  186.6460  178.3860  138.8960 C   0  0  0  0  0  3  0  0  0  0  0  0
  185.1170  178.9520  140.7480 N   0  0  0  0  0  0  0  0  0  0  0  0
  187.3190  178.3390  141.2360 N   0  0  0  0  0  0  0  0  0  0  0  0
  189.6520  177.6980  141.7780 N   0  0  0  0  0  0  0  0  0  0  0  0
  183.8510  178.9840  140.0270 C   0  0  0  0  0  2  0  0  0  0  0  0
  183.2980  177.6040  139.8680 C   0  0  0  0  0  3  0  0  0  0  0  0
  182.8390  177.1870  138.6900 C   0  0  0  0  0  3  0  0  0  0  0  0
  182.2900  175.8080  138.5430 C   0  0  0  0  0  2  0  0  0  0  0  0
  182.9080  175.1510  137.4430 O   0  0  0  0  0  0  0  0  0  0  0  0
  184.2240  174.6770  137.4800 C   0  0  0  0  0  0  0  0  0  0  0  0
  184.4750  173.6080  138.0960 O   0  0  0  0  0  0  0  0  0  0  0  0
  184.7700  176.2550  135.6690 C   0  0  0  0  0  1  0  0  0  0  0  0
  185.3340  175.3870  136.7750 C   0  0  0  0  0  2  0  0  0  0  0  0
  186.7160  177.2830  143.3440 C   0  0  0  0  0  2  0  0  0  0  0  0
  186.3960  177.5630  144.7010 O   0  0  0  0  0  0  0  0  0  0  0  0
  188.9730  177.9180  148.3410 C   0  0  0  0  0  3  0  0  0  0  0  0
  187.7600  178.4110  148.0920 C   0  0  0  0  0  3  0  0  0  0  0  0
  187.3720  177.7930  145.6740 C   0  0  0  0  0  0  0  0  0  0  0  0
  186.9390  178.1040  146.9040 C   0  0  0  0  0  3  0  0  0  0  0  0
  189.8190  177.4100  146.0820 C   0  0  0  0  0  3  0  0  0  0  0  0
  188.8070  177.7650  145.2910 C   0  0  0  0  0  3  0  0  0  0  0  0
  189.6310  176.9010  147.4700 C   0  0  0  0  0  2  0  0  0  0  0  0
  1  8  1  0  0  0  0
  1 12  1  0  0  0  0
  2 13  1  0  0  0  0
  2  8  1  0  0  0  0
  3 15  1  0  0  0  0
  3 16  2  0  0  0  0
  4 26  1  1  0  0  0
  5 10  1  0  0  0  0
  5  2  2  0  0  0  0
  6  5  1  0  0  0  0
  7 14  1  0  0  0  0
  7 15  1  0  0  0  0
  8  3  1  0  0  0  0
  9  4  1  0  0  0  0
 10  1  2  0  0  0  0
 11 16  1  0  0  0  0
 12 11  2  0  0  0  0
 13  7  2  0  0  0  0
 14  9  1  0  0  0  0
 15  4  1  0  0  0  0
 17 14  1  0  0  0  0
 18 17  1  0  0  0  0
 19 18  2  0  0  0  0
 20 19  1  0  0  0  0
 21 22  1  0  0  0  0
 21 20  1  0  0  0  0
 22 23  2  0  0  0  0
 24 25  1  0  0  0  0
 25 22  1  0  0  0  0
 26 27  1  0  0  0  0
 27 30  1  0  0  0  0
 29 28  2  0  0  0  0
 30 31  2  0  0  0  0
 31 29  1  0  0  0  0
 32 34  1  0  0  0  0
 33 30  1  0  0  0  0
 33 32  2  0  0  0  0
 34 28  1  0  0  0  0
M  END
>  <MODEL>
6

>  <REMARK>
 VINA RESULT:      -8.0      2.686      6.572
  Name = 
  9 active torsions:
  status: ('A' for Active; 'I' for Inactive)
    1  A    between atoms: C_3  and  C_17
    2  A    between atoms: C_5  and  C_26
    3  A    between atoms: C_12  and  O_28
    4  A    between atoms: C_13  and  C_33
    5  A    between atoms: C_14  and  C_20
    6  A    between atoms: C_17  and  N_29
    7  A    between atoms: C_20  and  O_34
    8  A    between atoms: C_26  and  O_28
    9  A    between atoms: C_33  and  O_34
                            x       y       z     vdW  Elec       q    Type
                         _______ _______ _______ _____ _____    ______ ____

>  <TORSDO>
F 9

$$$$
=
 OpenBabel10272400003D

 34 38  0  0  1  0  0  0  0  0999 V2000
  192.4180  176.5480  138.0620 C   0  0  0  0  0  0  0  0  0  0  0  0
  190.4160  176.7090  137.2860 C   0  0  0  0  0  0  0  0  0  0  0  0
  190.7810  177.4460  139.5100 C   0  0  0  0  0  0  0  0  0  0  0  0
  188.6240  178.3210  140.7230 C   0  0  2  0  0  3  0  0  0  0  0  0
  191.2480  176.1620  136.3200 C   0  0  0  0  0  0  0  0  0  0  0  0
  190.8410  175.7410  134.9530 C   0  0  0  0  0  1  0  0  0  0  0  0
  188.5330  177.5710  138.4990 C   0  0  0  0  0  0  0  0  0  0  0  0
  191.1830  176.9300  138.3430 N   0  0  0  0  0  0  0  0  0  0  0  0
  187.1720  178.4320  140.1790 C   0  0  0  0  0  2  0  0  0  0  0  0
  192.5230  176.0550  136.8040 N   0  0  0  0  0  0  0  0  0  0  0  0
  193.0040  177.2270  140.2780 C   0  0  0  0  0  3  0  0  0  0  0  0
  193.4110  176.6800  139.0320 C   0  0  0  0  0  3  0  0  0  0  0  0
  188.9730  177.0450  137.3300 C   0  0  0  0  0  3  0  0  0  0  0  0
  187.2110  177.9670  138.7900 N   0  0  0  0  0  0  0  0  0  0  0  0
  189.3920  177.7820  139.6120 N   0  0  0  0  0  0  0  0  0  0  0  0
  191.6990  177.6020  140.5040 N   0  0  0  0  0  0  0  0  0  0  0  0
  186.0320  177.6370  138.0010 C   0  0  0  0  0  2  0  0  0  0  0  0
  184.8030  178.2310  138.6120 C   0  0  0  0  0  3  0  0  0  0  0  0
  183.7400  177.4750  138.8720 C   0  0  0  0  0  3  0  0  0  0  0  0
  182.5190  178.0790  139.4810 C   0  0  0  0  0  2  0  0  0  0  0  0
  182.8880  179.0330  140.4700 O   0  0  0  0  0  0  0  0  0  0  0  0
  182.7750  178.7900  141.8440 C   0  0  0  0  0  0  0  0  0  0  0  0
  181.6310  178.7420  142.3660 O   0  0  0  0  0  0  0  0  0  0  0  0
  183.7170  179.0560  144.1040 C   0  0  0  0  0  1  0  0  0  0  0  0
  183.9760  178.5510  142.6990 C   0  0  0  0  0  2  0  0  0  0  0  0
  188.6560  177.3510  141.8910 C   0  0  0  0  0  2  0  0  0  0  0  0
  189.0260  178.0370  143.0800 O   0  0  0  0  0  0  0  0  0  0  0  0
  188.3700  177.1760  147.4210 C   0  0  0  0  0  3  0  0  0  0  0  0
  189.4240  176.9300  146.6430 C   0  0  0  0  0  3  0  0  0  0  0  0
  188.6200  177.6180  144.3500 C   0  0  0  0  0  0  0  0  0  0  0  0
  189.5870  177.3950  145.2510 C   0  0  0  0  0  3  0  0  0  0  0  0
  186.5610  177.5160  145.7820 C   0  0  0  0  0  3  0  0  0  0  0  0
  187.1800  177.3670  144.6110 C   0  0  0  0  0  3  0  0  0  0  0  0
  187.2350  178.0480  147.0000 C   0  0  0  0  0  2  0  0  0  0  0  0
  1  8  1  0  0  0  0
  1 12  1  0  0  0  0
  2 13  1  0  0  0  0
  2  8  1  0  0  0  0
  3 15  1  0  0  0  0
  3 16  2  0  0  0  0
  4 26  1  1  0  0  0
  5 10  1  0  0  0  0
  5  2  2  0  0  0  0
  6  5  1  0  0  0  0
  7 14  1  0  0  0  0
  7 15  1  0  0  0  0
  8  3  1  0  0  0  0
  9  4  1  0  0  0  0
 10  1  2  0  0  0  0
 11 16  1  0  0  0  0
 12 11  2  0  0  0  0
 13  7  2  0  0  0  0
 14  9  1  0  0  0  0
 15  4  1  0  0  0  0
 17 18  1  0  0  0  0
 17 14  1  0  0  0  0
 18 19  2  0  0  0  0
 19 20  1  0  0  0  0
 20 21  1  0  0  0  0
 21 22  1  0  0  0  0
 22 23  2  0  0  0  0
 22 25  1  0  0  0  0
 25 24  1  0  0  0  0
 26 27  1  0  0  0  0
 27 30  1  0  0  0  0
 29 28  2  0  0  0  0
 30 33  1  0  0  0  0
 30 31  2  0  0  0  0
 31 29  1  0  0  0  0
 32 34  1  0  0  0  0
 33 32  2  0  0  0  0
 34 28  1  0  0  0  0
M  END
>  <MODEL>
7

>  <REMARK>
 VINA RESULT:      -8.0      2.431      6.852
  Name = 
  9 active torsions:
  status: ('A' for Active; 'I' for Inactive)
    1  A    between atoms: C_3  and  C_17
    2  A    between atoms: C_5  and  C_26
    3  A    between atoms: C_12  and  O_28
    4  A    between atoms: C_13  and  C_33
    5  A    between atoms: C_14  and  C_20
    6  A    between atoms: C_17  and  N_29
    7  A    between atoms: C_20  and  O_34
    8  A    between atoms: C_26  and  O_28
    9  A    between atoms: C_33  and  O_34
                            x       y       z     vdW  Elec       q    Type
                         _______ _______ _______ _____ _____    ______ ____

>  <TORSDO>
F 9

$$$$
=
 OpenBabel10272400003D

 34 38  0  0  1  0  0  0  0  0999 V2000
  189.0080  177.2800  147.1890 C   0  0  0  0  0  0  0  0  0  0  0  0
  190.3260  176.9160  145.5260 C   0  0  0  0  0  0  0  0  0  0  0  0
  188.2430  177.9460  145.0560 C   0  0  0  0  0  0  0  0  0  0  0  0
  187.8410  178.4520  142.5120 C   0  0  2  0  0  3  0  0  0  0  0  0
  190.9180  176.4650  146.6970 C   0  0  0  0  0  0  0  0  0  0  0  0
  192.2540  175.8220  146.8090 C   0  0  0  0  0  1  0  0  0  0  0  0
  189.8460  177.4700  143.2410 C   0  0  0  0  0  0  0  0  0  0  0  0
  189.1490  177.4110  145.8800 N   0  0  0  0  0  0  0  0  0  0  0  0
  188.7780  178.1850  141.3010 C   0  0  0  0  0  2  0  0  0  0  0  0
  190.0870  176.6920  147.7610 N   0  0  0  0  0  0  0  0  0  0  0  0
  186.8620  178.3030  146.9390 C   0  0  0  0  0  3  0  0  0  0  0  0
  187.8370  177.7280  147.7980 C   0  0  0  0  0  3  0  0  0  0  0  0
  190.7420  176.9310  144.1030 C   0  0  0  0  0  3  0  0  0  0  0  0
  190.0030  177.5950  141.8450 N   0  0  0  0  0  0  0  0  0  0  0  0
  188.5890  177.9790  143.6660 N   0  0  0  0  0  0  0  0  0  0  0  0
  187.0740  178.4040  145.5830 N   0  0  0  0  0  0  0  0  0  0  0  0
  191.0230  176.9330  141.0430 C   0  0  0  0  0  2  0  0  0  0  0  0
  190.6580  176.9650  139.5920 C   0  0  0  0  0  3  0  0  0  0  0  0
  191.0520  175.9950  138.7710 C   0  0  0  0  0  3  0  0  0  0  0  0
  190.6820  176.0380  137.3260 C   0  0  0  0  0  2  0  0  0  0  0  0
  191.7700  176.5380  136.5580 O   0  0  0  0  0  0  0  0  0  0  0  0
  193.0970  176.1530  136.7740 C   0  0  0  0  0  0  0  0  0  0  0  0
  193.8580  176.9130  137.4270 O   0  0  0  0  0  0  0  0  0  0  0  0
  193.8630  173.9110  137.4500 C   0  0  0  0  0  1  0  0  0  0  0  0
  193.6250  174.8450  136.2810 C   0  0  0  0  0  2  0  0  0  0  0  0
  186.5660  177.6430  142.3560 C   0  0  0  0  0  2  0  0  0  0  0  0
  185.5890  178.4060  141.6600 O   0  0  0  0  0  0  0  0  0  0  0  0
  181.4010  178.8700  143.1660 C   0  0  0  0  0  3  0  0  0  0  0  0
  181.8650  178.7890  141.9190 C   0  0  0  0  0  3  0  0  0  0  0  0
  184.3700  178.7770  142.2360 C   0  0  0  0  0  0  0  0  0  0  0  0
  183.2600  178.4860  141.5430 C   0  0  0  0  0  3  0  0  0  0  0  0
  183.4160  179.4800  144.4490 C   0  0  0  0  0  3  0  0  0  0  0  0
  184.3670  179.5300  143.5160 C   0  0  0  0  0  3  0  0  0  0  0  0
  182.2370  178.5710  144.3650 C   0  0  0  0  0  2  0  0  0  0  0  0
  1 10  2  0  0  0  0
  1 12  1  0  0  0  0
  2  8  1  0  0  0  0
  2  5  2  0  0  0  0
  3 16  2  0  0  0  0
  3  8  1  0  0  0  0
  4 26  1  6  0  0  0
  4 15  1  0  0  0  0
  5  6  1  0  0  0  0
  5 10  1  0  0  0  0
  7 15  1  0  0  0  0
  7 13  2  0  0  0  0
  8  1  1  0  0  0  0
  9 14  1  0  0  0  0
  9  4  1  0  0  0  0
 11 12  2  0  0  0  0
 13  2  1  0  0  0  0
 14  7  1  0  0  0  0
 15  3  1  0  0  0  0
 16 11  1  0  0  0  0
 17 14  1  0  0  0  0
 18 17  1  0  0  0  0
 19 18  2  0  0  0  0
 20 19  1  0  0  0  0
 21 22  1  0  0  0  0
 21 20  1  0  0  0  0
 22 23  2  0  0  0  0
 25 22  1  0  0  0  0
 25 24  1  0  0  0  0
 27 30  1  0  0  0  0
 27 26  1  0  0  0  0
 28 34  1  0  0  0  0
 29 28  2  0  0  0  0
 30 33  1  0  0  0  0
 31 29  1  0  0  0  0
 31 30  2  0  0  0  0
 33 32  2  0  0  0  0
 34 32  1  0  0  0  0
M  END
>  <MODEL>
8

>  <REMARK>
 VINA RESULT:      -7.7      2.145      7.304
  Name = 
  9 active torsions:
  status: ('A' for Active; 'I' for Inactive)
    1  A    between atoms: C_3  and  C_17
    2  A    between atoms: C_5  and  C_26
    3  A    between atoms: C_12  and  O_28
    4  A    between atoms: C_13  and  C_33
    5  A    between atoms: C_14  and  C_20
    6  A    between atoms: C_17  and  N_29
    7  A    between atoms: C_20  and  O_34
    8  A    between atoms: C_26  and  O_28
    9  A    between atoms: C_33  and  O_34
                            x       y       z     vdW  Elec       q    Type
                         _______ _______ _______ _____ _____    ______ ____

>  <TORSDO>
F 9

$$$$
=
 OpenBabel10272400003D

 34 38  0  0  1  0  0  0  0  0999 V2000
  184.6570  178.5770  145.7570 C   0  0  0  0  0  0  0  0  0  0  0  0
  184.7720  178.5820  143.6080 C   0  0  0  0  0  0  0  0  0  0  0  0
  186.7420  178.0140  144.7990 C   0  0  0  0  0  0  0  0  0  0  0  0
  188.8180  177.5110  143.2730 C   0  0  2  0  0  3  0  0  0  0  0  0
  183.4920  178.9360  144.0060 C   0  0  0  0  0  0  0  0  0  0  0  0
  182.3580  179.2760  143.1050 C   0  0  0  0  0  1  0  0  0  0  0  0
  186.7370  178.0600  142.3320 C   0  0  0  0  0  0  0  0  0  0  0  0
  185.4550  178.3700  144.7230 N   0  0  0  0  0  0  0  0  0  0  0  0
  188.9170  177.5220  141.7220 C   0  0  0  0  0  2  0  0  0  0  0  0
  183.4090  178.9370  145.3720 N   0  0  0  0  0  0  0  0  0  0  0  0
  186.5230  178.0390  147.1510 C   0  0  0  0  0  3  0  0  0  0  0  0
  185.1580  178.4190  147.0490 C   0  0  0  0  0  3  0  0  0  0  0  0
  185.4310  178.4230  142.2890 C   0  0  0  0  0  3  0  0  0  0  0  0
  187.5800  177.8500  141.2220 N   0  0  0  0  0  0  0  0  0  0  0  0
  187.4320  177.8530  143.5540 N   0  0  0  0  0  0  0  0  0  0  0  0
  187.2980  177.8420  146.0310 N   0  0  0  0  0  0  0  0  0  0  0  0
  187.2910  178.2430  139.8490 C   0  0  0  0  0  2  0  0  0  0  0  0
  188.4790  178.0110  138.9700 C   0  0  0  0  0  3  0  0  0  0  0  0
  188.3260  177.6120  137.7100 C   0  0  0  0  0  3  0  0  0  0  0  0
  189.5190  177.3840  136.8440 C   0  0  0  0  0  2  0  0  0  0  0  0
  190.6090  176.9120  137.6270 O   0  0  0  0  0  0  0  0  0  0  0  0
  190.9510  175.5590  137.7230 C   0  0  0  0  0  0  0  0  0  0  0  0
  190.0370  174.6940  137.7210 O   0  0  0  0  0  0  0  0  0  0  0  0
  193.2720  176.2940  138.0950 C   0  0  0  0  0  1  0  0  0  0  0  0
  192.3750  175.1120  137.7880 C   0  0  0  0  0  2  0  0  0  0  0  0
  189.7380  178.5730  143.8490 C   0  0  0  0  0  2  0  0  0  0  0  0
  190.9800  177.9890  144.2210 O   0  0  0  0  0  0  0  0  0  0  0  0
  192.2760  175.4140  147.6420 C   0  0  0  0  0  3  0  0  0  0  0  0
  192.3000  175.1810  146.3300 C   0  0  0  0  0  3  0  0  0  0  0  0
  191.1310  177.2000  145.3640 C   0  0  0  0  0  0  0  0  0  0  0  0
  191.9820  176.1690  145.2790 C   0  0  0  0  0  3  0  0  0  0  0  0
  190.6550  177.2620  147.8280 C   0  0  0  0  0  3  0  0  0  0  0  0
  190.3010  177.4840  146.5620 C   0  0  0  0  0  3  0  0  0  0  0  0
  192.0020  176.7610  148.2230 C   0  0  0  0  0  2  0  0  0  0  0  0
  1 12  1  0  0  0  0
  2  5  2  0  0  0  0
  2  8  1  0  0  0  0
  3 16  2  0  0  0  0
  4 15  1  0  0  0  0
  4 26  1  1  0  0  0
  5 10  1  0  0  0  0
  6  5  1  0  0  0  0
  7 15  1  0  0  0  0
  8  3  1  0  0  0  0
  8  1  1  0  0  0  0
  9  4  1  0  0  0  0
 10  1  2  0  0  0  0
 12 11  2  0  0  0  0
 13  7  2  0  0  0  0
 13  2  1  0  0  0  0
 14  9  1  0  0  0  0
 14  7  1  0  0  0  0
 15  3  1  0  0  0  0
 16 11  1  0  0  0  0
 17 14  1  0  0  0  0
 18 17  1  0  0  0  0
 19 18  2  0  0  0  0
 20 21  1  0  0  0  0
 20 19  1  0  0  0  0
 21 22  1  0  0  0  0
 22 25  1  0  0  0  0
 23 22  2  0  0  0  0
 25 24  1  0  0  0  0
 26 27  1  0  0  0  0
 27 30  1  0  0  0  0
 28 34  1  0  0  0  0
 29 28  2  0  0  0  0
 30 33  1  0  0  0  0
 31 30  2  0  0  0  0
 31 29  1  0  0  0  0
 32 34  1  0  0  0  0
 33 32  2  0  0  0  0
M  END
>  <MODEL>
9

>  <REMARK>
 VINA RESULT:      -7.7      2.864      7.118
  Name = 
  9 active torsions:
  status: ('A' for Active; 'I' for Inactive)
    1  A    between atoms: C_3  and  C_17
    2  A    between atoms: C_5  and  C_26
    3  A    between atoms: C_12  and  O_28
    4  A    between atoms: C_13  and  C_33
    5  A    between atoms: C_14  and  C_20
    6  A    between atoms: C_17  and  N_29
    7  A    between atoms: C_20  and  O_34
    8  A    between atoms: C_26  and  O_28
    9  A    between atoms: C_33  and  O_34
                            x       y       z     vdW  Elec       q    Type
                         _______ _______ _______ _____ _____    ______ ____

>  <TORSDO>
F 9

$$$$
