=
 OpenBabel10272414033D

 43 48  0  0  1  0  0  0  0  0999 V2000
  185.2460  178.7880  145.4360 C   0  0  0  0  0  0  0  0  0  0  0  0
  182.3280  178.7110  141.3320 C   0  0  0  0  0  0  0  0  0  0  0  0
  183.9490  178.5940  139.0870 C   0  0  2  0  0  3  0  0  0  0  0  0
  183.3560  178.7460  143.9310 C   0  0  0  0  0  0  0  0  0  0  0  0
  186.1180  178.7080  144.3500 C   0  0  0  0  0  3  0  0  0  0  0  0
  185.7880  178.8800  146.8170 C   0  0  0  0  0  1  0  0  0  0  0  0
  184.2380  178.6320  142.8250 C   0  0  0  0  0  0  0  0  0  0  0  0
  183.8660  178.8120  145.2280 C   0  0  0  0  0  3  0  0  0  0  0  0
  185.6140  178.6340  143.0480 C   0  0  0  0  0  3  0  0  0  0  0  0
  184.5340  178.4560  140.3890 O   0  0  0  0  0  0  0  0  0  0  0  0
  183.7150  178.5960  141.5260 C   0  0  0  0  0  0  0  0  0  0  0  0
  181.4630  178.8450  142.4280 C   0  0  0  0  0  3  0  0  0  0  0  0
  181.8930  178.8660  139.8950 C   0  0  1  0  0  3  0  0  0  0  0  0
  182.6620  178.0260  139.0610 O   0  0  0  0  0  0  0  0  0  0  0  0
  181.9790  178.8360  143.7250 C   0  0  0  0  0  3  0  0  0  0  0  0
  184.8010  178.0010  138.0210 C   0  0  0  0  0  0  0  0  0  0  0  0
  188.3090  176.6540  137.5990 N   0  0  0  0  0  2  0  0  0  0  0  0
  186.1870  177.7400  138.2530 N   0  0  0  0  0  2  0  0  0  0  0  0
  184.2640  177.6560  136.9330 O   0  0  0  0  0  0  0  0  0  0  0  0
  186.8880  176.6690  137.6150 C   0  0  0  0  0  0  0  0  0  0  0  0
  186.2470  175.7160  137.0860 O   0  0  0  0  0  0  0  0  0  0  0  0
  189.7370  176.8810  137.6960 C   0  0  2  0  0  3  0  0  0  0  0  0
  191.1560  175.6000  138.9710 O   0  0  0  0  0  0  0  0  0  0  0  0
  189.7390  177.1540  140.2630 C   0  0  0  0  0  0  0  0  0  0  0  0
  190.4880  175.8800  136.8650 C   0  0  0  0  0  3  0  0  0  0  0  0
  190.1940  176.5710  139.0410 N   0  0  0  0  0  0  0  0  0  0  0  0
  188.8340  178.0370  140.2480 O   0  0  0  0  0  0  0  0  0  0  0  0
  191.3070  175.1850  137.6600 C   0  0  0  0  0  3  0  0  0  0  0  0
  190.3060  176.6780  141.5650 C   0  0  2  0  0  3  0  0  0  0  0  0
  191.7610  178.6940  144.0190 O   0  0  0  0  0  0  0  0  0  0  0  0
  189.7020  177.4500  143.8240 C   0  0  0  0  0  3  0  0  0  0  0  0
  191.0000  177.9570  143.3420 C   0  0  0  0  0  0  0  0  0  0  0  0
  189.2180  176.5970  142.6500 C   0  0  0  0  0  3  0  0  0  0  0  0
  191.2850  177.5800  142.0500 O   0  0  0  0  0  0  0  0  0  0  0  0
  180.3800  178.8020  139.6080 C   0  0  0  0  0  2  0  0  0  0  0  0
  179.9820  179.6170  138.5220 O   0  0  0  0  0  0  0  0  0  0  0  0
  181.0800  181.1790  137.2720 O   0  0  0  0  0  0  0  0  0  0  0  0
  181.1370  182.5720  137.3660 C   0  0  2  0  0  3  0  0  0  0  0  0
  179.9820  181.9280  139.1550 C   0  0  0  0  0  2  0  0  0  0  0  0
  180.7530  180.7910  138.5660 C   0  0  1  0  0  3  0  0  0  0  0  0
  180.2380  183.0370  138.3460 O   0  0  0  0  0  0  0  0  0  0  0  0
  180.9590  184.5800  136.0830 O   0  0  0  0  0  1  0  0  0  0  0  0
  180.8070  183.1920  136.0210 C   0  0  0  0  0  2  0  0  0  0  0  0
  1  6  1  0  0  0  0
  2 11  2  0  0  0  0
  2 12  1  0  0  0  0
  3 16  1  6  0  0  0
  3 10  1  0  0  0  0
  4  8  2  0  0  0  0
  5  1  2  0  0  0  0
  7  9  2  0  0  0  0
  7  4  1  0  0  0  0
  8  1  1  0  0  0  0
  9  5  1  0  0  0  0
 10 11  1  0  0  0  0
 11  7  1  0  0  0  0
 12 15  2  0  0  0  0
 13 35  1  1  0  0  0
 13  2  1  0  0  0  0
 14  3  1  0  0  0  0
 14 13  1  0  0  0  0
 15  4  1  0  0  0  0
 16 18  1  0  0  0  0
 17 20  1  0  0  0  0
 19 16  2  0  0  0  0
 20 18  1  0  0  0  0
 21 20  2  0  0  0  0
 22 17  1  1  0  0  0
 22 26  1  0  0  0  0
 23 26  1  0  0  0  0
 25 28  2  0  0  0  0
 25 22  1  0  0  0  0
 26 24  1  0  0  0  0
 27 24  2  0  0  0  0
 28 23  1  0  0  0  0
 29 24  1  6  0  0  0
 29 34  1  0  0  0  0
 29 33  1  0  0  0  0
 32 31  1  0  0  0  0
 32 30  2  0  0  0  0
 33 31  2  0  0  0  0
 34 32  1  0  0  0  0
 36 35  1  0  0  0  0
 37 38  1  0  0  0  0
 37 40  1  0  0  0  0
 38 43  1  6  0  0  0
 38 41  1  0  0  0  0
 40 36  1  6  0  0  0
 40 39  1  0  0  0  0
 41 39  1  0  0  0  0
 43 42  1  0  0  0  0
M  END
>  <MODEL>
1

>  <REMARK>
 VINA RESULT:     -10.1      0.000      0.000
  Name = 
  7 active torsions:
  status: ('A' for Active; 'I' for Inactive)
    1  A    between atoms: C_1  and  O_32
    2  A    between atoms: C_1  and  C_34
    3  A    between atoms: C_2  and  C_13
    4  A    between atoms: N_3  and  C_4
    5  A    between atoms: C_11  and  C_14
    6  A    between atoms: C_19  and  C_37
    7  A    between atoms: O_32  and  C_35
                            x       y       z     vdW  Elec       q    Type
                         _______ _______ _______ _____ _____    ______ ____

>  <TORSDO>
F 7

$$$$
=
 OpenBabel10272414033D

 43 48  0  0  1  0  0  0  0  0999 V2000
  190.2070  177.2610  144.8040 C   0  0  0  0  0  0  0  0  0  0  0  0
  185.4100  178.3950  143.7730 C   0  0  0  0  0  0  0  0  0  0  0  0
  185.2240  179.1570  141.1150 C   0  0  2  0  0  3  0  0  0  0  0  0
  187.8200  177.6100  144.9500 C   0  0  0  0  0  0  0  0  0  0  0  0
  190.1810  177.6130  143.4550 C   0  0  0  0  0  3  0  0  0  0  0  0
  191.4970  176.9120  145.4540 C   0  0  0  0  0  1  0  0  0  0  0  0
  187.7830  177.9380  143.5700 C   0  0  0  0  0  0  0  0  0  0  0  0
  189.0300  177.2640  145.5550 C   0  0  0  0  0  3  0  0  0  0  0  0
  188.9700  177.9540  142.8410 C   0  0  0  0  0  3  0  0  0  0  0  0
  186.4580  178.6220  141.6130 O   0  0  0  0  0  0  0  0  0  0  0  0
  186.5680  178.3120  142.9830 C   0  0  0  0  0  0  0  0  0  0  0  0
  185.4570  178.0920  145.1430 C   0  0  0  0  0  3  0  0  0  0  0  0
  184.2090  179.0010  143.0900 C   0  0  1  0  0  3  0  0  0  0  0  0
  184.1280  178.5480  141.7560 O   0  0  0  0  0  0  0  0  0  0  0  0
  186.6580  177.6750  145.7200 C   0  0  0  0  0  3  0  0  0  0  0  0
  185.1060  179.0190  139.6390 C   0  0  0  0  0  0  0  0  0  0  0  0
  187.0400  177.5250  136.7530 N   0  0  0  0  0  2  0  0  0  0  0  0
  186.1780  178.4760  138.8660 N   0  0  0  0  0  2  0  0  0  0  0  0
  184.0120  179.3160  139.0840 O   0  0  0  0  0  0  0  0  0  0  0  0
  185.9650  177.7430  137.6570 C   0  0  0  0  0  0  0  0  0  0  0  0
  184.8240  177.2620  137.3980 O   0  0  0  0  0  0  0  0  0  0  0  0
  188.2750  177.4630  135.9980 C   0  0  2  0  0  3  0  0  0  0  0  0
  189.7630  175.7150  136.1150 O   0  0  0  0  0  0  0  0  0  0  0  0
  189.7870  177.2150  138.0750 C   0  0  0  0  0  0  0  0  0  0  0  0
  188.1330  176.5260  134.8320 C   0  0  0  0  0  3  0  0  0  0  0  0
  189.3050  176.8130  136.7920 N   0  0  0  0  0  0  0  0  0  0  0  0
  189.3030  178.2330  138.6460 O   0  0  0  0  0  0  0  0  0  0  0  0
  189.0360  175.5490  134.9490 C   0  0  0  0  0  3  0  0  0  0  0  0
  190.8360  176.3930  138.7610 C   0  0  2  0  0  3  0  0  0  0  0  0
  194.2080  176.2250  137.8650 O   0  0  0  0  0  0  0  0  0  0  0  0
  192.9690  177.1860  139.7010 C   0  0  0  0  0  3  0  0  0  0  0  0
  193.1070  176.4580  138.4250 C   0  0  0  0  0  0  0  0  0  0  0  0
  191.4580  177.1580  139.9410 C   0  0  0  0  0  3  0  0  0  0  0  0
  191.9000  176.0910  137.8760 O   0  0  0  0  0  0  0  0  0  0  0  0
  182.8650  178.9400  143.8440 C   0  0  0  0  0  2  0  0  0  0  0  0
  182.0010  180.0170  143.5340 O   0  0  0  0  0  0  0  0  0  0  0  0
  180.8410  179.1110  141.7900 O   0  0  0  0  0  0  0  0  0  0  0  0
  179.9860  178.0080  141.7160 C   0  0  2  0  0  3  0  0  0  0  0  0
  180.4580  178.2180  143.8790 C   0  0  0  0  0  2  0  0  0  0  0  0
  180.7710  179.4730  143.1300 C   0  0  1  0  0  3  0  0  0  0  0  0
  179.9820  177.3040  142.9360 O   0  0  0  0  0  0  0  0  0  0  0  0
  181.6090  177.5680  140.0180 O   0  0  0  0  0  1  0  0  0  0  0  0
  180.4260  177.0920  140.5880 C   0  0  0  0  0  2  0  0  0  0  0  0
  1  6  1  0  0  0  0
  1  8  1  0  0  0  0
  2 12  1  0  0  0  0
  3 16  1  6  0  0  0
  3 10  1  0  0  0  0
  3 14  1  0  0  0  0
  4  8  2  0  0  0  0
  4 15  1  0  0  0  0
  5  1  2  0  0  0  0
  7  4  1  0  0  0  0
  9  5  1  0  0  0  0
  9  7  2  0  0  0  0
 10 11  1  0  0  0  0
 11  7  1  0  0  0  0
 11  2  2  0  0  0  0
 12 15  2  0  0  0  0
 13  2  1  0  0  0  0
 13 35  1  1  0  0  0
 14 13  1  0  0  0  0
 17 20  1  0  0  0  0
 18 16  1  0  0  0  0
 19 16  2  0  0  0  0
 20 18  1  0  0  0  0
 21 20  2  0  0  0  0
 22 17  1  1  0  0  0
 22 26  1  0  0  0  0
 23 26  1  0  0  0  0
 24 27  2  0  0  0  0
 25 28  2  0  0  0  0
 25 22  1  0  0  0  0
 26 24  1  0  0  0  0
 28 23  1  0  0  0  0
 29 24  1  6  0  0  0
 29 33  1  0  0  0  0
 30 32  2  0  0  0  0
 31 33  2  0  0  0  0
 32 31  1  0  0  0  0
 34 32  1  0  0  0  0
 34 29  1  0  0  0  0
 36 35  1  0  0  0  0
 37 40  1  0  0  0  0
 38 43  1  6  0  0  0
 38 37  1  0  0  0  0
 38 41  1  0  0  0  0
 40 36  1  1  0  0  0
 40 39  1  0  0  0  0
 41 39  1  0  0  0  0
 42 43  1  0  0  0  0
M  END
>  <MODEL>
2

>  <REMARK>
 VINA RESULT:      -9.9      2.835      4.454
  Name = 
  7 active torsions:
  status: ('A' for Active; 'I' for Inactive)
    1  A    between atoms: C_1  and  O_32
    2  A    between atoms: C_1  and  C_34
    3  A    between atoms: C_2  and  C_13
    4  A    between atoms: N_3  and  C_4
    5  A    between atoms: C_11  and  C_14
    6  A    between atoms: C_19  and  C_37
    7  A    between atoms: O_32  and  C_35
                            x       y       z     vdW  Elec       q    Type
                         _______ _______ _______ _____ _____    ______ ____

>  <TORSDO>
F 7

$$$$
=
 OpenBabel10272414033D

 43 48  0  0  1  0  0  0  0  0999 V2000
  191.5100  176.3300  147.1210 C   0  0  0  0  0  0  0  0  0  0  0  0
  187.3210  177.8120  144.7500 C   0  0  0  0  0  0  0  0  0  0  0  0
  187.9170  178.2610  142.0810 C   0  0  2  0  0  3  0  0  0  0  0  0
  189.2310  176.9350  146.5930 C   0  0  0  0  0  0  0  0  0  0  0  0
  191.8730  176.5170  145.7870 C   0  0  0  0  0  3  0  0  0  0  0  0
  192.5360  175.9330  148.1200 C   0  0  0  0  0  1  0  0  0  0  0  0
  189.5880  177.0950  145.2290 C   0  0  0  0  0  0  0  0  0  0  0  0
  190.1910  176.5440  147.5270 C   0  0  0  0  0  3  0  0  0  0  0  0
  190.9130  176.9020  144.8450 C   0  0  0  0  0  3  0  0  0  0  0  0
  188.9040  177.6680  142.9360 O   0  0  0  0  0  0  0  0  0  0  0  0
  188.6210  177.5170  144.3080 C   0  0  0  0  0  0  0  0  0  0  0  0
  186.9790  177.6740  146.1040 C   0  0  0  0  0  3  0  0  0  0  0  0
  186.4230  178.4500  143.7200 C   0  0  1  0  0  3  0  0  0  0  0  0
  186.6250  177.8490  142.4590 O   0  0  0  0  0  0  0  0  0  0  0  0
  187.9290  177.2110  147.0160 C   0  0  0  0  0  3  0  0  0  0  0  0
  188.1610  177.9580  140.6460 C   0  0  0  0  0  0  0  0  0  0  0  0
  186.2450  177.8760  137.3860 N   0  0  0  0  0  2  0  0  0  0  0  0
  187.0790  177.9120  139.7140 N   0  0  0  0  0  2  0  0  0  0  0  0
  189.3490  177.8190  140.2450 O   0  0  0  0  0  0  0  0  0  0  0  0
  187.2330  178.2590  138.3340 C   0  0  0  0  0  0  0  0  0  0  0  0
  188.2350  178.9320  137.9560 O   0  0  0  0  0  0  0  0  0  0  0  0
  185.1280  177.3540  136.6260 C   0  0  2  0  0  3  0  0  0  0  0  0
  184.1730  175.2970  136.9990 O   0  0  0  0  0  0  0  0  0  0  0  0
  186.3630  175.2190  135.8640 C   0  0  0  0  0  0  0  0  0  0  0  0
  183.8550  177.4610  137.4170 C   0  0  0  0  0  3  0  0  0  0  0  0
  185.2720  175.9160  136.4660 N   0  0  0  0  0  0  0  0  0  0  0  0
  187.3520  175.8600  135.4080 O   0  0  0  0  0  0  0  0  0  0  0  0
  183.3420  176.2390  137.5800 C   0  0  0  0  0  3  0  0  0  0  0  0
  186.3510  173.7220  135.8220 C   0  0  2  0  0  3  0  0  0  0  0  0
  189.0550  171.6800  134.9730 O   0  0  0  0  0  0  0  0  0  0  0  0
  187.8650  172.1850  137.0100 C   0  0  0  0  0  3  0  0  0  0  0  0
  188.1470  172.3130  135.5680 C   0  0  0  0  0  0  0  0  0  0  0  0
  186.6700  173.1220  137.2020 C   0  0  0  0  0  3  0  0  0  0  0  0
  187.3430  173.2330  134.9360 O   0  0  0  0  0  0  0  0  0  0  0  0
  184.9360  178.6180  144.0900 C   0  0  0  0  0  2  0  0  0  0  0  0
  184.2240  179.4440  143.1880 O   0  0  0  0  0  0  0  0  0  0  0  0
  182.0480  178.9230  142.7360 O   0  0  0  0  0  0  0  0  0  0  0  0
  181.3860  178.6630  141.5340 C   0  0  2  0  0  3  0  0  0  0  0  0
  183.5290  178.8610  140.9710 C   0  0  0  0  0  2  0  0  0  0  0  0
  183.3710  178.6180  142.4370 C   0  0  1  0  0  3  0  0  0  0  0  0
  182.2380  178.9050  140.4380 O   0  0  0  0  0  0  0  0  0  0  0  0
  180.1980  180.5540  142.3850 O   0  0  0  0  0  1  0  0  0  0  0  0
  180.1470  179.5340  141.4310 C   0  0  0  0  0  2  0  0  0  0  0  0
  1  8  1  0  0  0  0
  1  6  1  0  0  0  0
  2 12  1  0  0  0  0
  3 16  1  6  0  0  0
  3 14  1  0  0  0  0
  3 10  1  0  0  0  0
  4 15  1  0  0  0  0
  4  8  2  0  0  0  0
  5  1  2  0  0  0  0
  7  4  1  0  0  0  0
  9  7  2  0  0  0  0
  9  5  1  0  0  0  0
 10 11  1  0  0  0  0
 11  2  2  0  0  0  0
 11  7  1  0  0  0  0
 12 15  2  0  0  0  0
 13 35  1  1  0  0  0
 13  2  1  0  0  0  0
 14 13  1  0  0  0  0
 17 20  1  0  0  0  0
 18 16  1  0  0  0  0
 19 16  2  0  0  0  0
 20 18  1  0  0  0  0
 21 20  2  0  0  0  0
 22 17  1  1  0  0  0
 22 25  1  0  0  0  0
 23 28  1  0  0  0  0
 24 26  1  0  0  0  0
 25 28  2  0  0  0  0
 26 22  1  0  0  0  0
 26 23  1  0  0  0  0
 27 24  2  0  0  0  0
 29 24  1  1  0  0  0
 29 33  1  0  0  0  0
 30 32  2  0  0  0  0
 31 33  2  0  0  0  0
 32 31  1  0  0  0  0
 34 32  1  0  0  0  0
 34 29  1  0  0  0  0
 36 35  1  0  0  0  0
 38 43  1  6  0  0  0
 38 37  1  0  0  0  0
 39 40  1  0  0  0  0
 40 37  1  0  0  0  0
 40 36  1  1  0  0  0
 41 39  1  0  0  0  0
 41 38  1  0  0  0  0
 43 42  1  0  0  0  0
M  END
>  <MODEL>
3

>  <REMARK>
 VINA RESULT:      -9.7      2.880      6.446
  Name = 
  7 active torsions:
  status: ('A' for Active; 'I' for Inactive)
    1  A    between atoms: C_1  and  O_32
    2  A    between atoms: C_1  and  C_34
    3  A    between atoms: C_2  and  C_13
    4  A    between atoms: N_3  and  C_4
    5  A    between atoms: C_11  and  C_14
    6  A    between atoms: C_19  and  C_37
    7  A    between atoms: O_32  and  C_35
                            x       y       z     vdW  Elec       q    Type
                         _______ _______ _______ _____ _____    ______ ____

>  <TORSDO>
F 7

$$$$
=
 OpenBabel10272414033D

 43 48  0  0  1  0  0  0  0  0999 V2000
  182.1400  178.7260  141.0590 C   0  0  0  0  0  0  0  0  0  0  0  0
  185.7030  178.2900  144.5910 C   0  0  0  0  0  0  0  0  0  0  0  0
  187.8210  176.8390  143.5470 C   0  0  2  0  0  3  0  0  0  0  0  0
  183.4180  178.9020  143.1020 C   0  0  0  0  0  0  0  0  0  0  0  0
  183.1780  178.0100  140.4660 C   0  0  0  0  0  3  0  0  0  0  0  0
  180.8920  178.9930  140.2970 C   0  0  0  0  0  1  0  0  0  0  0  0
  184.4910  178.2010  142.4920 C   0  0  0  0  0  0  0  0  0  0  0  0
  182.2550  179.1690  142.3790 C   0  0  0  0  0  3  0  0  0  0  0  0
  184.3500  177.7450  141.1830 C   0  0  0  0  0  3  0  0  0  0  0  0
  186.7510  177.2470  142.6850 O   0  0  0  0  0  0  0  0  0  0  0  0
  185.6410  177.9140  143.2390 C   0  0  0  0  0  0  0  0  0  0  0  0
  184.6300  178.9630  145.1950 C   0  0  0  0  0  3  0  0  0  0  0  0
  186.8920  177.7540  145.3510 C   0  0  1  0  0  3  0  0  0  0  0  0
  188.0490  177.8070  144.5440 O   0  0  0  0  0  0  0  0  0  0  0  0
  183.5020  179.2890  144.4410 C   0  0  0  0  0  3  0  0  0  0  0  0
  189.0750  176.5620  142.7960 C   0  0  0  0  0  0  0  0  0  0  0  0
  190.5780  177.2800  139.4010 N   0  0  0  0  0  2  0  0  0  0  0  0
  189.1930  176.9130  141.4150 N   0  0  0  0  0  2  0  0  0  0  0  0
  190.0640  176.0840  143.4150 O   0  0  0  0  0  0  0  0  0  0  0  0
  190.4390  177.2770  140.8150 C   0  0  0  0  0  0  0  0  0  0  0  0
  191.4160  177.6250  141.5400 O   0  0  0  0  0  0  0  0  0  0  0  0
  190.4710  177.1790  137.9590 C   0  0  2  0  0  3  0  0  0  0  0  0
  190.6550  175.2080  136.7940 O   0  0  0  0  0  0  0  0  0  0  0  0
  192.7940  176.0980  137.6450 C   0  0  0  0  0  0  0  0  0  0  0  0
  189.1280  176.6330  137.5660 C   0  0  0  0  0  3  0  0  0  0  0  0
  191.3780  176.1530  137.4690 N   0  0  0  0  0  0  0  0  0  0  0  0
  193.3900  177.0030  138.2960 O   0  0  0  0  0  0  0  0  0  0  0  0
  189.3060  175.5020  136.8770 C   0  0  0  0  0  3  0  0  0  0  0  0
  193.5620  174.9350  137.0950 C   0  0  2  0  0  3  0  0  0  0  0  0
  196.4620  175.1360  135.1570 O   0  0  0  0  0  0  0  0  0  0  0  0
  195.9540  174.4450  137.4140 C   0  0  0  0  0  3  0  0  0  0  0  0
  195.6210  174.9720  136.0770 C   0  0  0  0  0  0  0  0  0  0  0  0
  194.5930  174.4170  138.1120 C   0  0  0  0  0  3  0  0  0  0  0  0
  194.2940  175.3130  135.9420 O   0  0  0  0  0  0  0  0  0  0  0  0
  187.1130  178.2900  146.7790 C   0  0  0  0  0  2  0  0  0  0  0  0
  187.0040  177.2900  147.7750 O   0  0  0  0  0  0  0  0  0  0  0  0
  189.0750  176.4180  147.3770 O   0  0  0  0  0  0  0  0  0  0  0  0
  190.3560  176.9080  147.6440 C   0  0  2  0  0  3  0  0  0  0  0  0
  188.9770  178.3760  148.5890 C   0  0  0  0  0  2  0  0  0  0  0  0
  188.2860  177.0810  148.3100 C   0  0  1  0  0  3  0  0  0  0  0  0
  190.2880  178.2290  148.1290 O   0  0  0  0  0  0  0  0  0  0  0  0
  192.2410  175.9430  146.5360 O   0  0  0  0  0  1  0  0  0  0  0  0
  191.1980  176.8610  146.3820 C   0  0  0  0  0  2  0  0  0  0  0  0
  1  8  1  0  0  0  0
  2 12  1  0  0  0  0
  2 13  1  0  0  0  0
  3 16  1  6  0  0  0
  3 14  1  0  0  0  0
  4 15  1  0  0  0  0
  5  1  2  0  0  0  0
  5  9  1  0  0  0  0
  6  1  1  0  0  0  0
  7  4  1  0  0  0  0
  7 11  1  0  0  0  0
  8  4  2  0  0  0  0
  9  7  2  0  0  0  0
 10 11  1  0  0  0  0
 10  3  1  0  0  0  0
 11  2  2  0  0  0  0
 13 35  1  1  0  0  0
 14 13  1  0  0  0  0
 15 12  2  0  0  0  0
 16 19  2  0  0  0  0
 17 20  1  0  0  0  0
 18 16  1  0  0  0  0
 20 18  1  0  0  0  0
 20 21  2  0  0  0  0
 22 17  1  1  0  0  0
 23 28  1  0  0  0  0
 23 26  1  0  0  0  0
 24 27  2  0  0  0  0
 25 22  1  0  0  0  0
 26 24  1  0  0  0  0
 26 22  1  0  0  0  0
 28 25  2  0  0  0  0
 29 24  1  1  0  0  0
 29 33  1  0  0  0  0
 30 32  2  0  0  0  0
 31 33  2  0  0  0  0
 32 31  1  0  0  0  0
 34 32  1  0  0  0  0
 34 29  1  0  0  0  0
 35 36  1  0  0  0  0
 37 38  1  0  0  0  0
 37 40  1  0  0  0  0
 38 43  1  6  0  0  0
 38 41  1  0  0  0  0
 40 36  1  6  0  0  0
 40 39  1  0  0  0  0
 41 39  1  0  0  0  0
 43 42  1  0  0  0  0
M  END
>  <MODEL>
4

>  <REMARK>
 VINA RESULT:      -9.6      3.859      8.132
  Name = 
  7 active torsions:
  status: ('A' for Active; 'I' for Inactive)
    1  A    between atoms: C_1  and  O_32
    2  A    between atoms: C_1  and  C_34
    3  A    between atoms: C_2  and  C_13
    4  A    between atoms: N_3  and  C_4
    5  A    between atoms: C_11  and  C_14
    6  A    between atoms: C_19  and  C_37
    7  A    between atoms: O_32  and  C_35
                            x       y       z     vdW  Elec       q    Type
                         _______ _______ _______ _____ _____    ______ ____

>  <TORSDO>
F 7

$$$$
=
 OpenBabel10272414033D

 43 48  0  0  1  0  0  0  0  0999 V2000
  188.3430  177.4510  146.0320 C   0  0  0  0  0  0  0  0  0  0  0  0
  191.0420  177.5500  141.7820 C   0  0  0  0  0  0  0  0  0  0  0  0
  189.3580  177.0280  139.6430 C   0  0  2  0  0  3  0  0  0  0  0  0
  190.1320  177.6660  144.4220 C   0  0  0  0  0  0  0  0  0  0  0  0
  187.4380  177.2040  145.0010 C   0  0  0  0  0  3  0  0  0  0  0  0
  187.8800  177.4420  147.4440 C   0  0  0  0  0  1  0  0  0  0  0  0
  189.2090  177.4470  143.3660 C   0  0  0  0  0  0  0  0  0  0  0  0
  189.6910  177.6760  145.7460 C   0  0  0  0  0  3  0  0  0  0  0  0
  187.8720  177.1990  143.6710 C   0  0  0  0  0  3  0  0  0  0  0  0
  188.8020  177.2230  140.9500 O   0  0  0  0  0  0  0  0  0  0  0  0
  189.6690  177.4090  142.0440 C   0  0  0  0  0  0  0  0  0  0  0  0
  191.9530  177.7440  142.8310 C   0  0  0  0  0  3  0  0  0  0  0  0
  191.4510  177.2890  140.3530 C   0  0  1  0  0  3  0  0  0  0  0  0
  190.4980  177.8350  139.4660 O   0  0  0  0  0  0  0  0  0  0  0  0
  191.4910  177.8270  144.1450 C   0  0  0  0  0  3  0  0  0  0  0  0
  188.3660  177.2860  138.5650 C   0  0  0  0  0  0  0  0  0  0  0  0
  184.7110  178.1870  138.2130 N   0  0  0  0  0  2  0  0  0  0  0  0
  186.9830  177.4690  138.8720 N   0  0  0  0  0  2  0  0  0  0  0  0
  188.7760  177.4190  137.3790 O   0  0  0  0  0  0  0  0  0  0  0  0
  186.1220  178.3010  138.0890 C   0  0  0  0  0  0  0  0  0  0  0  0
  186.6130  179.1620  137.3030 O   0  0  0  0  0  0  0  0  0  0  0  0
  183.3280  177.8630  138.5010 C   0  0  2  0  0  3  0  0  0  0  0  0
  181.8130  179.3600  139.3630 O   0  0  0  0  0  0  0  0  0  0  0  0
  183.4650  178.5210  140.9920 C   0  0  0  0  0  0  0  0  0  0  0  0
  182.4240  178.4210  137.4380 C   0  0  0  0  0  3  0  0  0  0  0  0
  182.8910  178.5820  139.6860 N   0  0  0  0  0  0  0  0  0  0  0  0
  184.4720  177.7890  141.2110 O   0  0  0  0  0  0  0  0  0  0  0  0
  181.5580  179.2650  138.0060 C   0  0  0  0  0  3  0  0  0  0  0  0
  182.8960  179.3680  142.0900 C   0  0  2  0  0  3  0  0  0  0  0  0
  180.3270  178.4350  144.2660 O   0  0  0  0  0  0  0  0  0  0  0  0
  182.7060  178.7840  144.4750 C   0  0  0  0  0  3  0  0  0  0  0  0
  181.4310  178.7250  143.7380 C   0  0  0  0  0  0  0  0  0  0  0  0
  183.7010  179.2070  143.3910 C   0  0  0  0  0  3  0  0  0  0  0  0
  181.5680  178.9780  142.3920 O   0  0  0  0  0  0  0  0  0  0  0  0
  192.9080  177.6170  139.9680 C   0  0  0  0  0  2  0  0  0  0  0  0
  193.5580  176.5590  139.2900 O   0  0  0  0  0  0  0  0  0  0  0  0
  194.1040  176.8730  137.0960 O   0  0  0  0  0  0  0  0  0  0  0  0
  193.7900  176.1430  135.9470 C   0  0  2  0  0  3  0  0  0  0  0  0
  192.6290  175.1690  137.5750 C   0  0  0  0  0  2  0  0  0  0  0  0
  193.0770  176.5390  137.9710 C   0  0  1  0  0  3  0  0  0  0  0  0
  193.1240  174.9490  136.2880 O   0  0  0  0  0  0  0  0  0  0  0  0
  196.0820  176.6990  135.5610 O   0  0  0  0  0  1  0  0  0  0  0  0
  195.0590  175.8290  135.1750 C   0  0  0  0  0  2  0  0  0  0  0  0
  1  6  1  0  0  0  0
  2 11  2  0  0  0  0
  2 12  1  0  0  0  0
  3 16  1  6  0  0  0
  3 10  1  0  0  0  0
  4  8  2  0  0  0  0
  5  1  2  0  0  0  0
  7  9  2  0  0  0  0
  7  4  1  0  0  0  0
  8  1  1  0  0  0  0
  9  5  1  0  0  0  0
 10 11  1  0  0  0  0
 11  7  1  0  0  0  0
 12 15  2  0  0  0  0
 13 35  1  6  0  0  0
 13  2  1  0  0  0  0
 14  3  1  0  0  0  0
 14 13  1  0  0  0  0
 15  4  1  0  0  0  0
 16 18  1  0  0  0  0
 19 16  2  0  0  0  0
 20 17  1  0  0  0  0
 20 18  1  0  0  0  0
 21 20  2  0  0  0  0
 22 17  1  6  0  0  0
 22 26  1  0  0  0  0
 23 26  1  0  0  0  0
 24 27  2  0  0  0  0
 25 28  2  0  0  0  0
 25 22  1  0  0  0  0
 26 24  1  0  0  0  0
 28 23  1  0  0  0  0
 29 24  1  6  0  0  0
 29 34  1  0  0  0  0
 29 33  1  0  0  0  0
 32 30  2  0  0  0  0
 32 31  1  0  0  0  0
 33 31  2  0  0  0  0
 34 32  1  0  0  0  0
 36 35  1  0  0  0  0
 37 40  1  0  0  0  0
 38 43  1  1  0  0  0
 38 41  1  0  0  0  0
 38 37  1  0  0  0  0
 39 40  1  0  0  0  0
 40 36  1  1  0  0  0
 41 39  1  0  0  0  0
 43 42  1  0  0  0  0
M  END
>  <MODEL>
5

>  <REMARK>
 VINA RESULT:      -9.6      2.442      9.096
  Name = 
  7 active torsions:
  status: ('A' for Active; 'I' for Inactive)
    1  A    between atoms: C_1  and  O_32
    2  A    between atoms: C_1  and  C_34
    3  A    between atoms: C_2  and  C_13
    4  A    between atoms: N_3  and  C_4
    5  A    between atoms: C_11  and  C_14
    6  A    between atoms: C_19  and  C_37
    7  A    between atoms: O_32  and  C_35
                            x       y       z     vdW  Elec       q    Type
                         _______ _______ _______ _____ _____    ______ ____

>  <TORSDO>
F 7

$$$$
=
 OpenBabel10272414033D

 43 48  0  0  1  0  0  0  0  0999 V2000
  188.1440  177.6440  145.8550 C   0  0  0  0  0  0  0  0  0  0  0  0
  191.1330  177.5660  141.8020 C   0  0  0  0  0  0  0  0  0  0  0  0
  189.5950  176.9900  139.5700 C   0  0  2  0  0  3  0  0  0  0  0  0
  190.0430  177.7830  144.3670 C   0  0  0  0  0  0  0  0  0  0  0  0
  187.3100  177.3720  144.7710 C   0  0  0  0  0  3  0  0  0  0  0  0
  187.5830  177.6890  147.2300 C   0  0  0  0  0  1  0  0  0  0  0  0
  189.1930  177.5380  143.2570 C   0  0  0  0  0  0  0  0  0  0  0  0
  189.5120  177.8440  145.6560 C   0  0  0  0  0  3  0  0  0  0  0  0
  187.8350  177.3160  143.4760 C   0  0  0  0  0  3  0  0  0  0  0  0
  188.9520  177.2370  140.8270 O   0  0  0  0  0  0  0  0  0  0  0  0
  189.7440  177.4490  141.9720 C   0  0  0  0  0  0  0  0  0  0  0  0
  191.9720  177.7850  142.9060 C   0  0  0  0  0  3  0  0  0  0  0  0
  191.6370  177.2520  140.4150 C   0  0  1  0  0  3  0  0  0  0  0  0
  190.7550  177.7770  139.4460 O   0  0  0  0  0  0  0  0  0  0  0  0
  191.4200  177.9180  144.1810 C   0  0  0  0  0  3  0  0  0  0  0  0
  188.6840  177.2230  138.4170 C   0  0  0  0  0  0  0  0  0  0  0  0
  185.0800  178.1730  137.7800 N   0  0  0  0  0  2  0  0  0  0  0  0
  187.2870  177.4420  138.6200 N   0  0  0  0  0  2  0  0  0  0  0  0
  189.1760  177.3020  137.2570 O   0  0  0  0  0  0  0  0  0  0  0  0
  186.4980  178.2570  137.7490 C   0  0  0  0  0  0  0  0  0  0  0  0
  187.0590  179.0770  136.9660 O   0  0  0  0  0  0  0  0  0  0  0  0
  183.6750  177.8850  137.9840 C   0  0  2  0  0  3  0  0  0  0  0  0
  182.8910  176.2740  139.4230 O   0  0  0  0  0  0  0  0  0  0  0  0
  183.8670  175.3940  137.3330 C   0  0  0  0  0  0  0  0  0  0  0  0
  183.1980  178.4750  139.2810 C   0  0  0  0  0  3  0  0  0  0  0  0
  183.4920  176.4600  138.2070 N   0  0  0  0  0  0  0  0  0  0  0  0
  184.4340  175.6450  136.2320 O   0  0  0  0  0  0  0  0  0  0  0  0
  182.7380  177.4920  140.0610 C   0  0  0  0  0  3  0  0  0  0  0  0
  183.6290  173.9760  137.7530 C   0  0  2  0  0  3  0  0  0  0  0  0
  182.4460  171.4100  135.7000 O   0  0  0  0  0  0  0  0  0  0  0  0
  184.5640  171.9420  136.7260 C   0  0  0  0  0  3  0  0  0  0  0  0
  183.1440  172.1800  136.4070 C   0  0  0  0  0  0  0  0  0  0  0  0
  184.9100  173.1340  137.6220 C   0  0  0  0  0  3  0  0  0  0  0  0
  182.6600  173.3590  136.9240 O   0  0  0  0  0  0  0  0  0  0  0  0
  193.1220  177.5490  140.1220 C   0  0  0  0  0  2  0  0  0  0  0  0
  193.8000  176.4640  139.5170 O   0  0  0  0  0  0  0  0  0  0  0  0
  193.9030  177.0880  137.3240 O   0  0  0  0  0  0  0  0  0  0  0  0
  193.8440  176.3440  136.1430 C   0  0  2  0  0  3  0  0  0  0  0  0
  193.4450  174.8730  137.7620 C   0  0  0  0  0  2  0  0  0  0  0  0
  193.2460  176.2750  138.2400 C   0  0  1  0  0  3  0  0  0  0  0  0
  193.8470  174.9650  136.4280 O   0  0  0  0  0  0  0  0  0  0  0  0
  195.3890  178.0290  135.4490 O   0  0  0  0  0  1  0  0  0  0  0  0
  195.0240  176.6950  135.2550 C   0  0  0  0  0  2  0  0  0  0  0  0
  1  6  1  0  0  0  0
  2 11  2  0  0  0  0
  2 12  1  0  0  0  0
  3 16  1  6  0  0  0
  3 10  1  0  0  0  0
  4  8  2  0  0  0  0
  5  1  2  0  0  0  0
  7  9  2  0  0  0  0
  7  4  1  0  0  0  0
  8  1  1  0  0  0  0
  9  5  1  0  0  0  0
 10 11  1  0  0  0  0
 11  7  1  0  0  0  0
 12 15  2  0  0  0  0
 13 35  1  6  0  0  0
 13  2  1  0  0  0  0
 14  3  1  0  0  0  0
 14 13  1  0  0  0  0
 15  4  1  0  0  0  0
 16 18  1  0  0  0  0
 19 16  2  0  0  0  0
 20 17  1  0  0  0  0
 20 18  1  0  0  0  0
 21 20  2  0  0  0  0
 22 17  1  1  0  0  0
 22 26  1  0  0  0  0
 22 25  1  0  0  0  0
 23 28  1  0  0  0  0
 24 26  1  0  0  0  0
 25 28  2  0  0  0  0
 26 23  1  0  0  0  0
 27 24  2  0  0  0  0
 29 24  1  6  0  0  0
 30 32  2  0  0  0  0
 31 33  2  0  0  0  0
 32 31  1  0  0  0  0
 32 34  1  0  0  0  0
 33 29  1  0  0  0  0
 34 29  1  0  0  0  0
 36 35  1  0  0  0  0
 37 40  1  0  0  0  0
 38 43  1  6  0  0  0
 38 41  1  0  0  0  0
 38 37  1  0  0  0  0
 39 40  1  0  0  0  0
 40 36  1  1  0  0  0
 41 39  1  0  0  0  0
 43 42  1  0  0  0  0
M  END
>  <MODEL>
6

>  <REMARK>
 VINA RESULT:      -9.5      3.300      9.321
  Name = 
  7 active torsions:
  status: ('A' for Active; 'I' for Inactive)
    1  A    between atoms: C_1  and  O_32
    2  A    between atoms: C_1  and  C_34
    3  A    between atoms: C_2  and  C_13
    4  A    between atoms: N_3  and  C_4
    5  A    between atoms: C_11  and  C_14
    6  A    between atoms: C_19  and  C_37
    7  A    between atoms: O_32  and  C_35
                            x       y       z     vdW  Elec       q    Type
                         _______ _______ _______ _____ _____    ______ ____

>  <TORSDO>
F 7

$$$$
=
 OpenBabel10272414033D

 43 48  0  0  1  0  0  0  0  0999 V2000
  182.6020  179.0390  143.2230 C   0  0  0  0  0  0  0  0  0  0  0  0
  187.0990  177.9240  145.1970 C   0  0  0  0  0  0  0  0  0  0  0  0
  188.6080  176.5990  143.2870 C   0  0  2  0  0  3  0  0  0  0  0  0
  184.5060  178.8410  144.6970 C   0  0  0  0  0  0  0  0  0  0  0  0
  183.3140  178.3980  142.2100 C   0  0  0  0  0  3  0  0  0  0  0  0
  181.1980  179.4650  142.9870 C   0  0  0  0  0  1  0  0  0  0  0  0
  185.2460  178.2160  143.6590 C   0  0  0  0  0  0  0  0  0  0  0  0
  183.1940  179.2570  144.4680 C   0  0  0  0  0  3  0  0  0  0  0  0
  184.6320  177.9840  142.4300 C   0  0  0  0  0  3  0  0  0  0  0  0
  187.3480  177.1740  142.9180 O   0  0  0  0  0  0  0  0  0  0  0  0
  186.5510  177.7760  143.9120 C   0  0  0  0  0  0  0  0  0  0  0  0
  186.3550  178.5230  146.2250 C   0  0  0  0  0  3  0  0  0  0  0  0
  188.4240  177.2360  145.4120 C   0  0  1  0  0  3  0  0  0  0  0  0
  189.2410  177.3840  144.2700 O   0  0  0  0  0  0  0  0  0  0  0  0
  185.0710  179.0020  145.9640 C   0  0  0  0  0  3  0  0  0  0  0  0
  189.5050  176.4100  142.1160 C   0  0  0  0  0  0  0  0  0  0  0  0
  189.8670  177.6760  138.5710 N   0  0  0  0  0  2  0  0  0  0  0  0
  189.1970  177.0050  140.8540 N   0  0  0  0  0  2  0  0  0  0  0  0
  190.5870  175.7790  142.2720 O   0  0  0  0  0  0  0  0  0  0  0  0
  190.2050  177.4170  139.9270 C   0  0  0  0  0  0  0  0  0  0  0  0
  191.3980  177.5800  140.3170 O   0  0  0  0  0  0  0  0  0  0  0  0
  189.2800  177.8510  137.2580 C   0  0  2  0  0  3  0  0  0  0  0  0
  187.3240  176.8510  136.5860 O   0  0  0  0  0  0  0  0  0  0  0  0
  189.2670  175.3330  136.6910 C   0  0  0  0  0  0  0  0  0  0  0  0
  188.1150  178.7970  137.3240 C   0  0  0  0  0  3  0  0  0  0  0  0
  188.6480  176.6120  136.8340 N   0  0  0  0  0  0  0  0  0  0  0  0
  190.4950  175.1870  136.9540 O   0  0  0  0  0  0  0  0  0  0  0  0
  187.0170  178.1630  136.9020 C   0  0  0  0  0  3  0  0  0  0  0  0
  188.4410  174.1550  136.2730 C   0  0  2  0  0  3  0  0  0  0  0  0
  185.4560  173.1220  137.7640 O   0  0  0  0  0  0  0  0  0  0  0  0
  186.0550  174.1500  135.6650 C   0  0  0  0  0  3  0  0  0  0  0  0
  186.3360  173.5920  137.0000 C   0  0  0  0  0  0  0  0  0  0  0  0
  187.4470  174.5370  135.1630 C   0  0  0  0  0  3  0  0  0  0  0  0
  187.6630  173.6740  137.3550 O   0  0  0  0  0  0  0  0  0  0  0  0
  189.1600  177.5250  146.7360 C   0  0  0  0  0  2  0  0  0  0  0  0
  189.8350  176.3960  147.2580 O   0  0  0  0  0  0  0  0  0  0  0  0
  191.7090  177.1050  148.3520 O   0  0  0  0  0  0  0  0  0  0  0  0
  193.0150  176.6100  148.3730 C   0  0  2  0  0  3  0  0  0  0  0  0
  191.9630  175.3720  146.8550 C   0  0  0  0  0  2  0  0  0  0  0  0
  191.2150  176.6340  147.1410 C   0  0  1  0  0  3  0  0  0  0  0  0
  193.0910  175.3870  147.6780 O   0  0  0  0  0  0  0  0  0  0  0  0
  194.5340  177.2810  150.0920 O   0  0  0  0  0  1  0  0  0  0  0  0
  193.4700  176.4210  149.8090 C   0  0  0  0  0  2  0  0  0  0  0  0
  1  8  1  0  0  0  0
  2 13  1  0  0  0  0
  2 12  1  0  0  0  0
  3 16  1  6  0  0  0
  3 14  1  0  0  0  0
  4 15  1  0  0  0  0
  5  9  1  0  0  0  0
  5  1  2  0  0  0  0
  6  1  1  0  0  0  0
  7 11  1  0  0  0  0
  7  4  1  0  0  0  0
  8  4  2  0  0  0  0
  9  7  2  0  0  0  0
 10  3  1  0  0  0  0
 10 11  1  0  0  0  0
 11  2  2  0  0  0  0
 13 35  1  1  0  0  0
 14 13  1  0  0  0  0
 15 12  2  0  0  0  0
 16 19  2  0  0  0  0
 17 20  1  0  0  0  0
 18 16  1  0  0  0  0
 20 21  2  0  0  0  0
 20 18  1  0  0  0  0
 22 25  1  0  0  0  0
 22 17  1  1  0  0  0
 23 26  1  0  0  0  0
 23 28  1  0  0  0  0
 24 26  1  0  0  0  0
 24 27  2  0  0  0  0
 26 22  1  0  0  0  0
 28 25  2  0  0  0  0
 29 24  1  1  0  0  0
 29 34  1  0  0  0  0
 31 32  1  0  0  0  0
 32 34  1  0  0  0  0
 32 30  2  0  0  0  0
 33 31  2  0  0  0  0
 33 29  1  0  0  0  0
 35 36  1  0  0  0  0
 37 38  1  0  0  0  0
 38 43  1  1  0  0  0
 39 40  1  0  0  0  0
 39 41  1  0  0  0  0
 40 36  1  1  0  0  0
 40 37  1  0  0  0  0
 41 38  1  0  0  0  0
 43 42  1  0  0  0  0
M  END
>  <MODEL>
7

>  <REMARK>
 VINA RESULT:      -9.5      3.804      9.105
  Name = 
  7 active torsions:
  status: ('A' for Active; 'I' for Inactive)
    1  A    between atoms: C_1  and  O_32
    2  A    between atoms: C_1  and  C_34
    3  A    between atoms: C_2  and  C_13
    4  A    between atoms: N_3  and  C_4
    5  A    between atoms: C_11  and  C_14
    6  A    between atoms: C_19  and  C_37
    7  A    between atoms: O_32  and  C_35
                            x       y       z     vdW  Elec       q    Type
                         _______ _______ _______ _____ _____    ______ ____

>  <TORSDO>
F 7

$$$$
=
 OpenBabel10272414033D

 43 48  0  0  1  0  0  0  0  0999 V2000
  187.8990  177.6200  147.5250 C   0  0  0  0  0  0  0  0  0  0  0  0
  187.5370  178.0380  142.5190 C   0  0  0  0  0  0  0  0  0  0  0  0
  190.0760  177.8540  141.4230 C   0  0  2  0  0  3  0  0  0  0  0  0
  187.0660  177.8460  145.2670 C   0  0  0  0  0  0  0  0  0  0  0  0
  189.1990  177.4980  147.0380 C   0  0  0  0  0  3  0  0  0  0  0  0
  187.6490  177.5910  148.9890 C   0  0  0  0  0  1  0  0  0  0  0  0
  188.3850  177.6900  144.7650 C   0  0  0  0  0  0  0  0  0  0  0  0
  186.8310  177.8000  146.6420 C   0  0  0  0  0  3  0  0  0  0  0  0
  189.4410  177.5370  145.6600 C   0  0  0  0  0  3  0  0  0  0  0  0
  189.8890  177.5960  142.8210 O   0  0  0  0  0  0  0  0  0  0  0  0
  188.6100  177.7690  143.3850 C   0  0  0  0  0  0  0  0  0  0  0  0
  186.2400  178.2140  143.0230 C   0  0  0  0  0  3  0  0  0  0  0  0
  187.9230  178.3040  141.0850 C   0  0  1  0  0  3  0  0  0  0  0  0
  188.9540  177.4260  140.6870 O   0  0  0  0  0  0  0  0  0  0  0  0
  186.0050  178.0910  144.3940 C   0  0  0  0  0  3  0  0  0  0  0  0
  191.3150  177.2220  140.8940 C   0  0  0  0  0  0  0  0  0  0  0  0
  192.8280  176.2680  137.5630 N   0  0  0  0  0  2  0  0  0  0  0  0
  191.4400  176.9040  139.5070 N   0  0  0  0  0  2  0  0  0  0  0  0
  192.2890  177.0430  141.6760 O   0  0  0  0  0  0  0  0  0  0  0  0
  192.6960  176.9120  138.8230 C   0  0  0  0  0  0  0  0  0  0  0  0
  193.6880  177.5170  139.3230 O   0  0  0  0  0  0  0  0  0  0  0  0
  192.7120  175.5280  136.3230 C   0  0  2  0  0  3  0  0  0  0  0  0
  193.5710  173.4210  136.0010 O   0  0  0  0  0  0  0  0  0  0  0  0
  195.2560  175.2240  136.0120 C   0  0  0  0  0  0  0  0  0  0  0  0
  191.6540  174.4680  136.4390 C   0  0  0  0  0  3  0  0  0  0  0  0
  193.9150  174.7420  136.1050 N   0  0  0  0  0  0  0  0  0  0  0  0
  195.4980  176.4590  136.1340 O   0  0  0  0  0  0  0  0  0  0  0  0
  192.2120  173.2730  136.2210 C   0  0  0  0  0  3  0  0  0  0  0  0
  196.3800  174.2520  135.8190 C   0  0  2  0  0  3  0  0  0  0  0  0
  199.7830  175.0370  135.8220 O   0  0  0  0  0  0  0  0  0  0  0  0
  198.2940  173.8700  137.3200 C   0  0  0  0  0  3  0  0  0  0  0  0
  198.6260  174.6330  136.1030 C   0  0  0  0  0  0  0  0  0  0  0  0
  196.7950  173.6090  137.1530 C   0  0  0  0  0  3  0  0  0  0  0  0
  197.5320  174.9050  135.3150 O   0  0  0  0  0  0  0  0  0  0  0  0
  186.7780  178.4140  140.0580 C   0  0  0  0  0  2  0  0  0  0  0  0
  187.2280  178.4110  138.7160 O   0  0  0  0  0  0  0  0  0  0  0  0
  186.0790  176.9740  137.3660 O   0  0  0  0  0  0  0  0  0  0  0  0
  184.7130  176.7100  137.2400 C   0  0  2  0  0  3  0  0  0  0  0  0
  184.8330  178.4130  138.6650 C   0  0  0  0  0  2  0  0  0  0  0  0
  186.1020  178.2610  137.8900 C   0  0  1  0  0  3  0  0  0  0  0  0
  183.9850  177.3910  138.2350 O   0  0  0  0  0  0  0  0  0  0  0  0
  185.3050  174.5280  136.4650 O   0  0  0  0  0  1  0  0  0  0  0  0
  184.4660  175.2160  137.3450 C   0  0  0  0  0  2  0  0  0  0  0  0
  1  6  1  0  0  0  0
  2 12  2  0  0  0  0
  2 11  1  0  0  0  0
  3 16  1  6  0  0  0
  3 10  1  0  0  0  0
  4  8  1  0  0  0  0
  5  1  1  0  0  0  0
  7  4  1  0  0  0  0
  7  9  1  0  0  0  0
  8  1  2  0  0  0  0
  9  5  2  0  0  0  0
 10 11  1  0  0  0  0
 11  7  2  0  0  0  0
 12 15  1  0  0  0  0
 13 35  1  6  0  0  0
 13  2  1  0  0  0  0
 14 13  1  0  0  0  0
 14  3  1  0  0  0  0
 15  4  2  0  0  0  0
 16 19  2  0  0  0  0
 17 20  1  0  0  0  0
 18 16  1  0  0  0  0
 20 21  2  0  0  0  0
 20 18  1  0  0  0  0
 22 25  1  0  0  0  0
 22 17  1  1  0  0  0
 23 26  1  0  0  0  0
 23 28  1  0  0  0  0
 24 26  1  0  0  0  0
 24 27  2  0  0  0  0
 26 22  1  0  0  0  0
 28 25  2  0  0  0  0
 29 24  1  1  0  0  0
 29 33  1  0  0  0  0
 30 32  2  0  0  0  0
 32 31  1  0  0  0  0
 33 31  2  0  0  0  0
 34 29  1  0  0  0  0
 34 32  1  0  0  0  0
 36 35  1  0  0  0  0
 37 40  1  0  0  0  0
 38 43  1  1  0  0  0
 38 37  1  0  0  0  0
 38 41  1  0  0  0  0
 40 39  1  0  0  0  0
 40 36  1  1  0  0  0
 41 39  1  0  0  0  0
 42 43  1  0  0  0  0
M  END
>  <MODEL>
8

>  <REMARK>
 VINA RESULT:      -9.4      3.512      6.826
  Name = 
  7 active torsions:
  status: ('A' for Active; 'I' for Inactive)
    1  A    between atoms: C_1  and  O_32
    2  A    between atoms: C_1  and  C_34
    3  A    between atoms: C_2  and  C_13
    4  A    between atoms: N_3  and  C_4
    5  A    between atoms: C_11  and  C_14
    6  A    between atoms: C_19  and  C_37
    7  A    between atoms: O_32  and  C_35
                            x       y       z     vdW  Elec       q    Type
                         _______ _______ _______ _____ _____    ______ ____

>  <TORSDO>
F 7

$$$$
=
 OpenBabel10272414033D

 43 48  0  0  1  0  0  0  0  0999 V2000
  187.2500  177.9140  146.5880 C   0  0  0  0  0  0  0  0  0  0  0  0
  183.5980  178.8510  143.2500 C   0  0  0  0  0  0  0  0  0  0  0  0
  184.7390  179.1630  140.7440 C   0  0  2  0  0  3  0  0  0  0  0  0
  185.1080  178.2760  145.5310 C   0  0  0  0  0  0  0  0  0  0  0  0
  187.8860  178.0380  145.3540 C   0  0  0  0  0  3  0  0  0  0  0  0
  188.0540  177.6800  147.8160 C   0  0  0  0  0  1  0  0  0  0  0  0
  185.7470  178.3720  144.2670 C   0  0  0  0  0  0  0  0  0  0  0  0
  185.8620  178.0380  146.6800 C   0  0  0  0  0  3  0  0  0  0  0  0
  187.1350  178.2710  144.1960 C   0  0  0  0  0  3  0  0  0  0  0  0
  185.5500  178.7210  141.8400 O   0  0  0  0  0  0  0  0  0  0  0  0
  184.9810  178.6410  143.1260 C   0  0  0  0  0  0  0  0  0  0  0  0
  182.9750  178.7770  144.5050 C   0  0  0  0  0  3  0  0  0  0  0  0
  182.9080  179.3330  141.9980 C   0  0  1  0  0  3  0  0  0  0  0  0
  183.4280  178.6660  140.8680 O   0  0  0  0  0  0  0  0  0  0  0  0
  183.7290  178.4640  145.6370 C   0  0  0  0  0  3  0  0  0  0  0  0
  185.3160  178.7830  139.4270 C   0  0  0  0  0  0  0  0  0  0  0  0
  188.4900  177.2680  138.0380 N   0  0  0  0  0  2  0  0  0  0  0  0
  186.6720  178.3450  139.3210 N   0  0  0  0  0  2  0  0  0  0  0  0
  184.5670  178.7780  138.4110 O   0  0  0  0  0  0  0  0  0  0  0  0
  187.1070  177.4110  138.3290 C   0  0  0  0  0  0  0  0  0  0  0  0
  186.2630  176.6870  137.7250 O   0  0  0  0  0  0  0  0  0  0  0  0
  189.9320  177.3300  137.9100 C   0  0  2  0  0  3  0  0  0  0  0  0
  191.3670  175.7760  138.8090 O   0  0  0  0  0  0  0  0  0  0  0  0
  190.3750  177.3270  140.4530 C   0  0  0  0  0  0  0  0  0  0  0  0
  190.4130  176.3480  136.8800 C   0  0  0  0  0  3  0  0  0  0  0  0
  190.5550  176.8310  139.1260 N   0  0  0  0  0  0  0  0  0  0  0  0
  189.5950  178.2980  140.6690 O   0  0  0  0  0  0  0  0  0  0  0  0
  191.2550  175.4880  137.4600 C   0  0  0  0  0  3  0  0  0  0  0  0
  191.0790  176.6570  141.5930 C   0  0  2  0  0  3  0  0  0  0  0  0
  191.9820  178.1720  144.6090 O   0  0  0  0  0  0  0  0  0  0  0  0
  190.3370  176.5380  143.9380 C   0  0  0  0  0  3  0  0  0  0  0  0
  191.4370  177.4920  143.7030 C   0  0  0  0  0  0  0  0  0  0  0  0
  190.0790  175.9720  142.5400 C   0  0  0  0  0  3  0  0  0  0  0  0
  191.7860  177.6030  142.3770 O   0  0  0  0  0  0  0  0  0  0  0  0
  181.3670  179.3930  142.0230 C   0  0  0  0  0  2  0  0  0  0  0  0
  180.7540  178.2590  141.4400 O   0  0  0  0  0  0  0  0  0  0  0  0
  180.5010  179.9870  139.9710 O   0  0  0  0  0  0  0  0  0  0  0  0
  180.5050  180.0280  138.5750 C   0  0  2  0  0  3  0  0  0  0  0  0
  180.6160  177.8650  139.0820 C   0  0  0  0  0  2  0  0  0  0  0  0
  180.1410  178.6730  140.2460 C   0  0  1  0  0  3  0  0  0  0  0  0
  180.8570  178.7700  138.0460 O   0  0  0  0  0  0  0  0  0  0  0  0
  180.9440  182.3600  138.2960 O   0  0  0  0  0  1  0  0  0  0  0  0
  181.4810  181.0860  138.0940 C   0  0  0  0  0  2  0  0  0  0  0  0
  1  8  1  0  0  0  0
  1  6  1  0  0  0  0
  2 12  1  0  0  0  0
  3 16  1  6  0  0  0
  3 14  1  0  0  0  0
  3 10  1  0  0  0  0
  4 15  1  0  0  0  0
  4  8  2  0  0  0  0
  5  1  2  0  0  0  0
  7  4  1  0  0  0  0
  9  7  2  0  0  0  0
  9  5  1  0  0  0  0
 10 11  1  0  0  0  0
 11  2  2  0  0  0  0
 11  7  1  0  0  0  0
 12 15  2  0  0  0  0
 13 35  1  1  0  0  0
 13  2  1  0  0  0  0
 14 13  1  0  0  0  0
 17 20  1  0  0  0  0
 18 16  1  0  0  0  0
 19 16  2  0  0  0  0
 20 18  1  0  0  0  0
 21 20  2  0  0  0  0
 22 17  1  1  0  0  0
 22 26  1  0  0  0  0
 23 26  1  0  0  0  0
 24 27  2  0  0  0  0
 25 28  2  0  0  0  0
 25 22  1  0  0  0  0
 26 24  1  0  0  0  0
 28 23  1  0  0  0  0
 29 24  1  6  0  0  0
 29 34  1  0  0  0  0
 29 33  1  0  0  0  0
 32 31  1  0  0  0  0
 32 30  2  0  0  0  0
 33 31  2  0  0  0  0
 34 32  1  0  0  0  0
 36 35  1  0  0  0  0
 37 40  1  0  0  0  0
 38 43  1  1  0  0  0
 38 37  1  0  0  0  0
 39 40  1  0  0  0  0
 40 36  1  1  0  0  0
 41 38  1  0  0  0  0
 41 39  1  0  0  0  0
 43 42  1  0  0  0  0
M  END
>  <MODEL>
9

>  <REMARK>
 VINA RESULT:      -9.4      1.267      2.127
  Name = 
  7 active torsions:
  status: ('A' for Active; 'I' for Inactive)
    1  A    between atoms: C_1  and  O_32
    2  A    between atoms: C_1  and  C_34
    3  A    between atoms: C_2  and  C_13
    4  A    between atoms: N_3  and  C_4
    5  A    between atoms: C_11  and  C_14
    6  A    between atoms: C_19  and  C_37
    7  A    between atoms: O_32  and  C_35
                            x       y       z     vdW  Elec       q    Type
                         _______ _______ _______ _____ _____    ______ ____

>  <TORSDO>
F 7

$$$$
