=
 OpenBabel10272400373D

 31 33  0  0  1  0  0  0  0  0999 V2000
  191.5700  176.4070  144.6700 C   0  0  0  0  0  0  0  0  0  0  0  0
  188.6900  176.1110  142.2120 C   0  0  0  0  0  2  0  0  0  0  0  0
  189.6260  176.6670  143.2480 C   0  0  0  0  0  0  0  0  0  0  0  0
  191.3940  177.7080  145.1520 C   0  0  0  0  0  3  0  0  0  0  0  0
  187.3360  178.1690  142.4890 N   0  0  0  0  0  0  0  0  0  0  0  0
  192.5990  175.6520  145.1210 F   0  0  0  0  0  0  0  0  0  0  0  0
  188.3620  178.7590  143.2530 N   0  0  0  0  0  2  0  0  0  0  0  0
  187.8850  177.2150  141.5040 C   0  0  1  0  0  3  0  0  0  0  0  0
  190.6870  175.8870  143.7170 C   0  0  0  0  0  3  0  0  0  0  0  0
  189.4390  177.9650  143.7510 C   0  0  0  0  0  0  0  0  0  0  0  0
  190.3300  178.4890  144.6910 C   0  0  0  0  0  3  0  0  0  0  0  0
  188.6400  177.8640  140.3250 C   0  0  1  0  0  3  0  0  0  0  0  0
  190.4550  176.6320  139.5780 C   0  0  0  0  0  2  0  0  0  0  0  0
  190.0510  177.7100  140.3930 O   0  0  0  0  0  0  0  0  0  0  0  0
  190.2230  176.9530  138.0910 C   0  0  0  0  0  2  0  0  0  0  0  0
  189.3530  179.1070  137.7060 C   0  0  0  0  0  1  0  0  0  0  0  0
  188.0280  177.5100  138.9490 C   0  0  2  0  0  3  0  0  0  0  0  0
  188.9810  177.7020  137.8420 N   0  0  0  0  0  0  0  0  0  0  0  0
  186.6360  178.0950  138.6810 C   0  0  0  0  0  2  0  0  0  0  0  0
  185.9860  177.5360  137.4260 C   0  0  0  0  0  1  0  0  0  0  0  0
  186.4400  179.1800  141.9000 C   0  0  0  0  0  2  0  0  0  0  0  0
  184.1430  178.4360  141.6570 C   0  0  0  0  0  0  0  0  0  0  0  0
  185.0090  179.1160  142.3600 C   0  0  0  0  0  0  0  0  0  0  0  0
  183.3200  177.7910  140.9940 O   0  0  0  0  0  0  0  0  0  0  0  0
  184.6150  179.6640  143.6930 C   0  0  0  0  0  2  0  0  0  0  0  0
  184.6150  178.5750  144.7520 C   0  0  0  0  0  2  0  0  0  0  0  0
  185.6850  178.8720  145.7790 C   0  0  0  0  0  2  0  0  0  0  0  0
  186.5070  177.6220  146.0280 C   0  0  0  0  0  2  0  0  0  0  0  0
  187.4170  177.8240  147.1940 C   0  0  0  0  0  0  0  0  0  0  0  0
  188.5540  176.8880  147.4170 C   0  0  0  0  0  1  0  0  0  0  0  0
  187.2210  178.7390  147.9780 O   0  0  0  0  0  0  0  0  0  0  0  0
  1  6  1  0  0  0  0
  1  4  1  0  0  0  0
  2  3  1  0  0  0  0
  3  9  1  0  0  0  0
  3 10  2  0  0  0  0
  5  7  1  0  0  0  0
  7 10  1  0  0  0  0
  8  2  1  1  0  0  0
  8  5  1  0  0  0  0
  9  1  2  0  0  0  0
 10 11  1  0  0  0  0
 11  4  2  0  0  0  0
 12 14  1  6  0  0  0
 12  8  1  0  0  0  0
 13 14  1  0  0  0  0
 15 13  1  0  0  0  0
 16 18  1  0  0  0  0
 17 19  1  6  0  0  0
 17 12  1  0  0  0  0
 18 15  1  0  0  0  0
 18 17  1  0  0  0  0
 20 19  1  0  0  0  0
 21 23  1  0  0  0  0
 21  5  1  0  0  0  0
 22 23  2  0  0  0  0
 23 25  1  0  0  0  0
 24 22  2  0  0  0  0
 25 26  1  0  0  0  0
 26 27  1  0  0  0  0
 27 28  1  0  0  0  0
 28 29  1  0  0  0  0
 29 30  1  0  0  0  0
 29 31  2  0  0  0  0
M  END
>  <MODEL>
1

>  <REMARK>
 VINA RESULT:      -6.4      0.000      0.000
  Name = 
  9 active torsions:
  status: ('A' for Active; 'I' for Inactive)
    1  A    between atoms: C_1  and  C_24
    2  A    between atoms: C_5  and  C_21
    3  A    between atoms: C_6  and  C_7
    4  A    between atoms: C_6  and  C_19
    5  A    between atoms: C_7  and  C_9
    6  A    between atoms: C_9  and  C_23
    7  A    between atoms: N_15  and  C_23
    8  A    between atoms: C_17  and  C_30
    9  A    between atoms: C_19  and  C_24
                            x       y       z     vdW  Elec       q    Type
                         _______ _______ _______ _____ _____    ______ ____

>  <TORSDO>
F 9

$$$$
=
 OpenBabel10272400373D

 31 33  0  0  1  0  0  0  0  0999 V2000
  191.8540  177.4450  140.4560 C   0  0  0  0  0  0  0  0  0  0  0  0
  190.2210  178.7310  143.6350 C   0  0  0  0  0  2  0  0  0  0  0  0
  190.4460  177.9760  142.3550 C   0  0  0  0  0  0  0  0  0  0  0  0
  190.8890  176.5470  139.9890 C   0  0  0  0  0  3  0  0  0  0  0  0
  187.9310  177.7810  143.6640 N   0  0  0  0  0  0  0  0  0  0  0  0
  193.0050  177.6210  139.7660 F   0  0  0  0  0  0  0  0  0  0  0  0
  188.2680  176.8990  142.6180 N   0  0  0  0  0  2  0  0  0  0  0  0
  189.1100  178.1000  144.4940 C   0  0  1  0  0  3  0  0  0  0  0  0
  191.6330  178.1580  141.6390 C   0  0  0  0  0  3  0  0  0  0  0  0
  189.4700  177.0900  141.8710 C   0  0  0  0  0  0  0  0  0  0  0  0
  189.6970  176.3660  140.6980 C   0  0  0  0  0  3  0  0  0  0  0  0
  189.6080  176.9420  145.3850 C   0  0  1  0  0  3  0  0  0  0  0  0
  191.9170  176.7870  145.5230 C   0  0  0  0  0  2  0  0  0  0  0  0
  190.7640  176.2870  144.8820 O   0  0  0  0  0  0  0  0  0  0  0  0
  191.9280  176.3950  147.0110 C   0  0  0  0  0  2  0  0  0  0  0  0
  190.0910  175.0740  147.6630 C   0  0  0  0  0  1  0  0  0  0  0  0
  189.6980  177.3290  146.8800 C   0  0  2  0  0  3  0  0  0  0  0  0
  190.5980  176.4430  147.6390 N   0  0  0  0  0  0  0  0  0  0  0  0
  188.3540  177.5900  147.5710 C   0  0  0  0  0  2  0  0  0  0  0  0
  188.5020  178.2540  148.9300 C   0  0  0  0  0  1  0  0  0  0  0  0
  186.7740  177.2970  144.4380 C   0  0  0  0  0  2  0  0  0  0  0  0
  185.2570  178.5770  145.8330 C   0  0  0  0  0  0  0  0  0  0  0  0
  185.6630  178.2940  144.6250 C   0  0  0  0  0  0  0  0  0  0  0  0
  184.8700  178.8490  146.9770 O   0  0  0  0  0  0  0  0  0  0  0  0
  185.1550  179.0890  143.4660 C   0  0  0  0  0  2  0  0  0  0  0  0
  183.6380  179.0620  143.4100 C   0  0  0  0  0  2  0  0  0  0  0  0
  183.1930  178.5510  142.0570 C   0  0  0  0  0  2  0  0  0  0  0  0
  184.3660  178.5800  141.0960 C   0  0  0  0  0  2  0  0  0  0  0  0
  183.9550  179.1880  139.7960 C   0  0  0  0  0  0  0  0  0  0  0  0
  182.7110  178.7220  139.1220 C   0  0  0  0  0  1  0  0  0  0  0  0
  184.6440  180.0480  139.2720 O   0  0  0  0  0  0  0  0  0  0  0  0
  1  9  1  0  0  0  0
  3  2  1  0  0  0  0
  4  1  2  0  0  0  0
  4 11  1  0  0  0  0
  5 21  1  0  0  0  0
  5  8  1  0  0  0  0
  6  1  1  0  0  0  0
  7  5  1  0  0  0  0
  8  2  1  6  0  0  0
  8 12  1  0  0  0  0
  9  3  2  0  0  0  0
 10  3  1  0  0  0  0
 10  7  1  0  0  0  0
 11 10  2  0  0  0  0
 12 14  1  6  0  0  0
 12 17  1  0  0  0  0
 13 15  1  0  0  0  0
 14 13  1  0  0  0  0
 15 18  1  0  0  0  0
 17 19  1  1  0  0  0
 17 18  1  0  0  0  0
 18 16  1  0  0  0  0
 19 20  1  0  0  0  0
 21 23  1  0  0  0  0
 22 24  2  0  0  0  0
 23 22  2  0  0  0  0
 25 23  1  0  0  0  0
 26 25  1  0  0  0  0
 27 26  1  0  0  0  0
 28 27  1  0  0  0  0
 29 28  1  0  0  0  0
 30 29  1  0  0  0  0
 31 29  2  0  0  0  0
M  END
>  <MODEL>
2

>  <REMARK>
 VINA RESULT:      -6.3      2.396      6.241
  Name = 
  9 active torsions:
  status: ('A' for Active; 'I' for Inactive)
    1  A    between atoms: C_1  and  C_24
    2  A    between atoms: C_5  and  C_21
    3  A    between atoms: C_6  and  C_7
    4  A    between atoms: C_6  and  C_19
    5  A    between atoms: C_7  and  C_9
    6  A    between atoms: C_9  and  C_23
    7  A    between atoms: N_15  and  C_23
    8  A    between atoms: C_17  and  C_30
    9  A    between atoms: C_19  and  C_24
                            x       y       z     vdW  Elec       q    Type
                         _______ _______ _______ _____ _____    ______ ____

>  <TORSDO>
F 9

$$$$
=
 OpenBabel10272400373D

 31 33  0  0  1  0  0  0  0  0999 V2000
  185.3970  178.2880  146.3060 C   0  0  0  0  0  0  0  0  0  0  0  0
  185.1500  179.7490  142.8080 C   0  0  0  0  0  2  0  0  0  0  0  0
  185.5820  178.8950  143.9670 C   0  0  0  0  0  0  0  0  0  0  0  0
  186.3560  177.2870  146.1240 C   0  0  0  0  0  3  0  0  0  0  0  0
  186.9310  178.6520  141.4780 N   0  0  0  0  0  0  0  0  0  0  0  0
  184.8390  178.4770  147.5240 F   0  0  0  0  0  0  0  0  0  0  0  0
  187.1290  177.7010  142.4990 N   0  0  0  0  0  2  0  0  0  0  0  0
  185.5330  179.1260  141.4540 C   0  0  1  0  0  3  0  0  0  0  0  0
  185.0090  179.0910  145.2280 C   0  0  0  0  0  3  0  0  0  0  0  0
  186.5620  177.9040  143.7940 C   0  0  0  0  0  0  0  0  0  0  0  0
  186.9370  177.0920  144.8670 C   0  0  0  0  0  3  0  0  0  0  0  0
  184.5070  178.0930  140.9430 C   0  0  1  0  0  3  0  0  0  0  0  0
  182.3190  178.5610  141.5470 C   0  0  0  0  0  2  0  0  0  0  0  0
  183.4680  177.8090  141.8700 O   0  0  0  0  0  0  0  0  0  0  0  0
  181.7150  178.0930  140.2120 C   0  0  0  0  0  2  0  0  0  0  0  0
  182.8610  176.2840  139.2300 C   0  0  0  0  0  1  0  0  0  0  0  0
  184.0130  178.3930  139.5080 C   0  0  2  0  0  3  0  0  0  0  0  0
  182.7280  177.7380  139.2050 N   0  0  0  0  0  0  0  0  0  0  0  0
  185.0680  178.2350  138.4050 C   0  0  0  0  0  2  0  0  0  0  0  0
  184.5010  177.6570  137.1180 C   0  0  0  0  0  1  0  0  0  0  0  0
  187.4150  178.1640  140.1740 C   0  0  0  0  0  2  0  0  0  0  0  0
  189.4650  177.7610  138.9390 C   0  0  0  0  0  0  0  0  0  0  0  0
  188.8890  177.8670  140.1060 C   0  0  0  0  0  0  0  0  0  0  0  0
  190.0150  177.6620  137.8340 O   0  0  0  0  0  0  0  0  0  0  0  0
  189.7220  177.8740  141.3470 C   0  0  0  0  0  2  0  0  0  0  0  0
  190.4010  176.5320  141.5560 C   0  0  0  0  0  2  0  0  0  0  0  0
  190.1940  176.0800  142.9850 C   0  0  0  0  0  2  0  0  0  0  0  0
  191.4880  176.2440  143.7580 C   0  0  0  0  0  2  0  0  0  0  0  0
  191.2810  177.1450  144.9300 C   0  0  0  0  0  0  0  0  0  0  0  0
  190.3380  178.2930  144.8230 C   0  0  0  0  0  1  0  0  0  0  0  0
  191.8960  176.9600  145.9670 O   0  0  0  0  0  0  0  0  0  0  0  0
  1  6  1  0  0  0  0
  2  3  1  0  0  0  0
  3  9  1  0  0  0  0
  4  1  1  0  0  0  0
  5  7  1  0  0  0  0
  7 10  1  0  0  0  0
  8  5  1  0  0  0  0
  8  2  1  1  0  0  0
  9  1  2  0  0  0  0
 10  3  2  0  0  0  0
 10 11  1  0  0  0  0
 11  4  2  0  0  0  0
 12  8  1  0  0  0  0
 12 14  1  1  0  0  0
 13 14  1  0  0  0  0
 15 13  1  0  0  0  0
 17 19  1  6  0  0  0
 17 12  1  0  0  0  0
 18 16  1  0  0  0  0
 18 17  1  0  0  0  0
 18 15  1  0  0  0  0
 20 19  1  0  0  0  0
 21  5  1  0  0  0  0
 22 23  2  0  0  0  0
 23 21  1  0  0  0  0
 23 25  1  0  0  0  0
 24 22  2  0  0  0  0
 25 26  1  0  0  0  0
 26 27  1  0  0  0  0
 27 28  1  0  0  0  0
 28 29  1  0  0  0  0
 29 31  2  0  0  0  0
 30 29  1  0  0  0  0
M  END
>  <MODEL>
3

>  <REMARK>
 VINA RESULT:      -6.2      2.545      5.486
  Name = 
  9 active torsions:
  status: ('A' for Active; 'I' for Inactive)
    1  A    between atoms: C_1  and  C_24
    2  A    between atoms: C_5  and  C_21
    3  A    between atoms: C_6  and  C_7
    4  A    between atoms: C_6  and  C_19
    5  A    between atoms: C_7  and  C_9
    6  A    between atoms: C_9  and  C_23
    7  A    between atoms: N_15  and  C_23
    8  A    between atoms: C_17  and  C_30
    9  A    between atoms: C_19  and  C_24
                            x       y       z     vdW  Elec       q    Type
                         _______ _______ _______ _____ _____    ______ ____

>  <TORSDO>
F 9

$$$$
=
 OpenBabel10272400373D

 31 33  0  0  1  0  0  0  0  0999 V2000
  183.5020  178.7320  143.5980 C   0  0  0  0  0  0  0  0  0  0  0  0
  182.9650  179.0050  139.8480 C   0  0  0  0  0  2  0  0  0  0  0  0
  183.6380  178.8430  141.1820 C   0  0  0  0  0  0  0  0  0  0  0  0
  184.8800  178.5070  143.6680 C   0  0  0  0  0  3  0  0  0  0  0  0
  185.2230  178.9750  138.8270 N   0  0  0  0  0  0  0  0  0  0  0  0
  182.7660  178.7820  144.7340 F   0  0  0  0  0  0  0  0  0  0  0  0
  185.7880  178.5690  140.0520 N   0  0  0  0  0  2  0  0  0  0  0  0
  183.8360  178.4860  138.6900 C   0  0  1  0  0  3  0  0  0  0  0  0
  182.8810  178.8970  142.3560 C   0  0  0  0  0  3  0  0  0  0  0  0
  185.0260  178.6400  141.2580 C   0  0  0  0  0  0  0  0  0  0  0  0
  185.6430  178.4580  142.4980 C   0  0  0  0  0  3  0  0  0  0  0  0
  183.7050  176.9670  138.4570 C   0  0  1  0  0  3  0  0  0  0  0  0
  181.7460  176.0520  139.2930 C   0  0  0  0  0  2  0  0  0  0  0  0
  183.1170  176.2680  139.5450 O   0  0  0  0  0  0  0  0  0  0  0  0
  181.5530  175.0740  138.1210 C   0  0  0  0  0  2  0  0  0  0  0  0
  183.5690  174.2510  137.2240 C   0  0  0  0  0  1  0  0  0  0  0  0
  183.0980  176.6200  137.0770 C   0  0  2  0  0  3  0  0  0  0  0  0
  182.5300  175.2600  137.0370 N   0  0  0  0  0  0  0  0  0  0  0  0
  183.9780  176.9630  135.8690 C   0  0  0  0  0  2  0  0  0  0  0  0
  183.2420  176.8490  134.5440 C   0  0  0  0  0  1  0  0  0  0  0  0
  186.0880  178.6320  137.6840 C   0  0  0  0  0  2  0  0  0  0  0  0
  187.3110  176.5360  137.6440 C   0  0  0  0  0  0  0  0  0  0  0  0
  187.2880  177.7870  138.0180 C   0  0  0  0  0  0  0  0  0  0  0  0
  187.3370  175.3500  137.2900 O   0  0  0  0  0  0  0  0  0  0  0  0
  188.5140  178.4090  138.6040 C   0  0  0  0  0  2  0  0  0  0  0  0
  189.3030  177.3970  139.4160 C   0  0  0  0  0  2  0  0  0  0  0  0
  189.1030  177.6700  140.8910 C   0  0  0  0  0  2  0  0  0  0  0  0
  190.2720  177.1040  141.6730 C   0  0  0  0  0  2  0  0  0  0  0  0
  189.7870  176.1440  142.7080 C   0  0  0  0  0  0  0  0  0  0  0  0
  188.5540  176.4540  143.4850 C   0  0  0  0  0  1  0  0  0  0  0  0
  190.4060  175.1170  142.9360 O   0  0  0  0  0  0  0  0  0  0  0  0
  1  4  1  0  0  0  0
  1  6  1  0  0  0  0
  2  3  1  0  0  0  0
  3 10  2  0  0  0  0
  3  9  1  0  0  0  0
  5  7  1  0  0  0  0
  7 10  1  0  0  0  0
  8  5  1  0  0  0  0
  8  2  1  1  0  0  0
  9  1  2  0  0  0  0
 10 11  1  0  0  0  0
 11  4  2  0  0  0  0
 12  8  1  0  0  0  0
 12 14  1  1  0  0  0
 13 14  1  0  0  0  0
 15 13  1  0  0  0  0
 17 19  1  6  0  0  0
 17 12  1  0  0  0  0
 18 17  1  0  0  0  0
 18 16  1  0  0  0  0
 18 15  1  0  0  0  0
 20 19  1  0  0  0  0
 21 23  1  0  0  0  0
 21  5  1  0  0  0  0
 22 23  2  0  0  0  0
 23 25  1  0  0  0  0
 24 22  2  0  0  0  0
 25 26  1  0  0  0  0
 26 27  1  0  0  0  0
 27 28  1  0  0  0  0
 28 29  1  0  0  0  0
 29 31  2  0  0  0  0
 29 30  1  0  0  0  0
M  END
>  <MODEL>
4

>  <REMARK>
 VINA RESULT:      -6.0      3.373      6.400
  Name = 
  9 active torsions:
  status: ('A' for Active; 'I' for Inactive)
    1  A    between atoms: C_1  and  C_24
    2  A    between atoms: C_5  and  C_21
    3  A    between atoms: C_6  and  C_7
    4  A    between atoms: C_6  and  C_19
    5  A    between atoms: C_7  and  C_9
    6  A    between atoms: C_9  and  C_23
    7  A    between atoms: N_15  and  C_23
    8  A    between atoms: C_17  and  C_30
    9  A    between atoms: C_19  and  C_24
                            x       y       z     vdW  Elec       q    Type
                         _______ _______ _______ _____ _____    ______ ____

>  <TORSDO>
F 9

$$$$
=
 OpenBabel10272400373D

 31 33  0  0  1  0  0  0  0  0999 V2000
  184.3190  178.7490  145.0240 C   0  0  0  0  0  0  0  0  0  0  0  0
  187.1390  176.6620  143.5680 C   0  0  0  0  0  2  0  0  0  0  0  0
  186.1210  177.7530  143.7460 C   0  0  0  0  0  0  0  0  0  0  0  0
  184.2440  179.7990  144.1040 C   0  0  0  0  0  3  0  0  0  0  0  0
  187.6950  177.6890  141.3810 N   0  0  0  0  0  0  0  0  0  0  0  0
  183.4870  178.7230  146.0910 F   0  0  0  0  0  0  0  0  0  0  0  0
  186.9240  178.8240  141.7010 N   0  0  0  0  0  2  0  0  0  0  0  0
  188.2610  177.0690  142.5960 C   0  0  1  0  0  3  0  0  0  0  0  0
  185.2580  177.7270  144.8460 C   0  0  0  0  0  3  0  0  0  0  0  0
  186.0270  178.7980  142.8130 C   0  0  0  0  0  0  0  0  0  0  0  0
  185.1000  179.8270  142.9990 C   0  0  0  0  0  3  0  0  0  0  0  0
  189.3930  177.8750  143.2680 C   0  0  1  0  0  3  0  0  0  0  0  0
  189.9620  177.1140  145.3820 C   0  0  0  0  0  2  0  0  0  0  0  0
  189.2090  178.0660  144.6640 O   0  0  0  0  0  0  0  0  0  0  0  0
  191.4700  177.3610  145.2030 C   0  0  0  0  0  2  0  0  0  0  0  0
  191.9780  179.2380  143.8760 C   0  0  0  0  0  1  0  0  0  0  0  0
  190.8030  177.3750  142.8750 C   0  0  2  0  0  3  0  0  0  0  0  0
  191.8360  177.7850  143.8430 N   0  0  0  0  0  0  0  0  0  0  0  0
  191.1960  177.6050  141.4110 C   0  0  0  0  0  2  0  0  0  0  0  0
  192.6560  177.2890  141.1290 C   0  0  0  0  0  1  0  0  0  0  0  0
  188.6980  177.9840  140.3420 C   0  0  0  0  0  2  0  0  0  0  0  0
  187.0390  178.2780  138.5960 C   0  0  0  0  0  0  0  0  0  0  0  0
  188.2200  177.8280  138.9240 C   0  0  0  0  0  0  0  0  0  0  0  0
  185.9200  178.7050  138.2810 O   0  0  0  0  0  0  0  0  0  0  0  0
  189.1470  177.3330  137.8610 C   0  0  0  0  0  2  0  0  0  0  0  0
  189.1760  175.8150  137.8280 C   0  0  0  0  0  2  0  0  0  0  0  0
  190.6080  175.3420  137.7120 C   0  0  0  0  0  2  0  0  0  0  0  0
  191.5320  176.5420  137.6320 C   0  0  0  0  0  2  0  0  0  0  0  0
  192.9570  176.0990  137.6150 C   0  0  0  0  0  0  0  0  0  0  0  0
  193.2810  174.6520  137.4700 C   0  0  0  0  0  1  0  0  0  0  0  0
  193.8580  176.9130  137.7400 O   0  0  0  0  0  0  0  0  0  0  0  0
  1  6  1  0  0  0  0
  2  3  1  0  0  0  0
  3  9  2  0  0  0  0
  4  1  2  0  0  0  0
  5  7  1  0  0  0  0
  5  8  1  0  0  0  0
  7 10  1  0  0  0  0
  8 12  1  0  0  0  0
  8  2  1  1  0  0  0
  9  1  1  0  0  0  0
 10 11  2  0  0  0  0
 10  3  1  0  0  0  0
 11  4  1  0  0  0  0
 12 14  1  1  0  0  0
 14 13  1  0  0  0  0
 15 13  1  0  0  0  0
 17 19  1  6  0  0  0
 17 12  1  0  0  0  0
 17 18  1  0  0  0  0
 18 16  1  0  0  0  0
 18 15  1  0  0  0  0
 20 19  1  0  0  0  0
 21  5  1  0  0  0  0
 22 23  2  0  0  0  0
 23 21  1  0  0  0  0
 24 22  2  0  0  0  0
 25 23  1  0  0  0  0
 26 25  1  0  0  0  0
 27 26  1  0  0  0  0
 28 27  1  0  0  0  0
 29 28  1  0  0  0  0
 29 31  2  0  0  0  0
 30 29  1  0  0  0  0
M  END
>  <MODEL>
5

>  <REMARK>
 VINA RESULT:      -5.6      2.720      6.795
  Name = 
  9 active torsions:
  status: ('A' for Active; 'I' for Inactive)
    1  A    between atoms: C_1  and  C_24
    2  A    between atoms: C_5  and  C_21
    3  A    between atoms: C_6  and  C_7
    4  A    between atoms: C_6  and  C_19
    5  A    between atoms: C_7  and  C_9
    6  A    between atoms: C_9  and  C_23
    7  A    between atoms: N_15  and  C_23
    8  A    between atoms: C_17  and  C_30
    9  A    between atoms: C_19  and  C_24
                            x       y       z     vdW  Elec       q    Type
                         _______ _______ _______ _____ _____    ______ ____

>  <TORSDO>
F 9

$$$$
=
 OpenBabel10272400373D

 31 33  0  0  1  0  0  0  0  0999 V2000
  193.4070  174.4730  136.0000 C   0  0  0  0  0  0  0  0  0  0  0  0
  189.9810  174.8810  137.5870 C   0  0  0  0  0  2  0  0  0  0  0  0
  191.4410  175.0660  137.2860 C   0  0  0  0  0  0  0  0  0  0  0  0
  194.1540  175.4290  136.6960 C   0  0  0  0  0  3  0  0  0  0  0  0
  190.2790  176.4660  139.4690 N   0  0  0  0  0  0  0  0  0  0  0  0
  193.9950  173.7260  135.0360 F   0  0  0  0  0  0  0  0  0  0  0  0
  191.5640  176.8050  138.9990 N   0  0  0  0  0  2  0  0  0  0  0  0
  189.3900  176.0760  138.3560 C   0  0  1  0  0  3  0  0  0  0  0  0
  192.0510  174.2930  136.2940 C   0  0  0  0  0  3  0  0  0  0  0  0
  192.2000  176.0090  137.9990 C   0  0  0  0  0  0  0  0  0  0  0  0
  193.5500  176.2000  137.6940 C   0  0  0  0  0  3  0  0  0  0  0  0
  188.9490  177.2380  137.4410 C   0  0  1  0  0  3  0  0  0  0  0  0
  188.6720  176.6320  135.2210 C   0  0  0  0  0  2  0  0  0  0  0  0
  189.5540  177.2160  136.1550 O   0  0  0  0  0  0  0  0  0  0  0  0
  187.4400  177.5270  134.9980 C   0  0  0  0  0  2  0  0  0  0  0  0
  187.4900  179.5390  136.2210 C   0  0  0  0  0  1  0  0  0  0  0  0
  187.4150  177.4380  137.4180 C   0  0  2  0  0  3  0  0  0  0  0  0
  186.9610  178.1780  136.2280 N   0  0  0  0  0  0  0  0  0  0  0  0
  186.8000  177.9350  138.7330 C   0  0  0  0  0  2  0  0  0  0  0  0
  185.3020  178.1740  138.6360 C   0  0  0  0  0  1  0  0  0  0  0  0
  189.7180  177.5180  140.3360 C   0  0  0  0  0  2  0  0  0  0  0  0
  190.5340  176.7230  142.4790 C   0  0  0  0  0  0  0  0  0  0  0  0
  189.5110  177.1220  141.7730 C   0  0  0  0  0  0  0  0  0  0  0  0
  191.5020  176.3450  143.1520 O   0  0  0  0  0  0  0  0  0  0  0  0
  188.1940  177.3550  142.4410 C   0  0  0  0  0  2  0  0  0  0  0  0
  188.0810  176.5440  143.7200 C   0  0  0  0  0  2  0  0  0  0  0  0
  187.8810  177.4780  144.8920 C   0  0  0  0  0  2  0  0  0  0  0  0
  186.4070  177.8030  145.0340 C   0  0  0  0  0  2  0  0  0  0  0  0
  186.1080  178.2580  146.4240 C   0  0  0  0  0  0  0  0  0  0  0  0
  187.1090  178.0400  147.5060 C   0  0  0  0  0  1  0  0  0  0  0  0
  185.0390  178.7870  146.6840 O   0  0  0  0  0  0  0  0  0  0  0  0
  1  9  2  0  0  0  0
  1  4  1  0  0  0  0
  3  2  1  0  0  0  0
  3 10  2  0  0  0  0
  4 11  2  0  0  0  0
  5 21  1  0  0  0  0
  6  1  1  0  0  0  0
  7  5  1  0  0  0  0
  8  2  1  6  0  0  0
  8  5  1  0  0  0  0
  9  3  1  0  0  0  0
 10  7  1  0  0  0  0
 11 10  1  0  0  0  0
 12 14  1  6  0  0  0
 12  8  1  0  0  0  0
 13 14  1  0  0  0  0
 15 13  1  0  0  0  0
 15 18  1  0  0  0  0
 16 18  1  0  0  0  0
 17 12  1  0  0  0  0
 17 19  1  1  0  0  0
 18 17  1  0  0  0  0
 20 19  1  0  0  0  0
 21 23  1  0  0  0  0
 22 24  2  0  0  0  0
 23 25  1  0  0  0  0
 23 22  2  0  0  0  0
 25 26  1  0  0  0  0
 26 27  1  0  0  0  0
 27 28  1  0  0  0  0
 28 29  1  0  0  0  0
 29 31  2  0  0  0  0
 29 30  1  0  0  0  0
M  END
>  <MODEL>
6

>  <REMARK>
 VINA RESULT:      -5.6      3.119      5.317
  Name = 
  9 active torsions:
  status: ('A' for Active; 'I' for Inactive)
    1  A    between atoms: C_1  and  C_24
    2  A    between atoms: C_5  and  C_21
    3  A    between atoms: C_6  and  C_7
    4  A    between atoms: C_6  and  C_19
    5  A    between atoms: C_7  and  C_9
    6  A    between atoms: C_9  and  C_23
    7  A    between atoms: N_15  and  C_23
    8  A    between atoms: C_17  and  C_30
    9  A    between atoms: C_19  and  C_24
                            x       y       z     vdW  Elec       q    Type
                         _______ _______ _______ _____ _____    ______ ____

>  <TORSDO>
F 9

$$$$
=
 OpenBabel10272400373D

 31 33  0  0  1  0  0  0  0  0999 V2000
  193.4260  174.0220  135.6000 C   0  0  0  0  0  0  0  0  0  0  0  0
  190.0510  174.4960  137.2760 C   0  0  0  0  0  2  0  0  0  0  0  0
  191.4620  174.7430  136.8220 C   0  0  0  0  0  0  0  0  0  0  0  0
  194.0800  175.2090  135.9460 C   0  0  0  0  0  3  0  0  0  0  0  0
  190.2360  176.5720  138.6190 N   0  0  0  0  0  0  0  0  0  0  0  0
  194.0580  173.0990  134.8370 F   0  0  0  0  0  0  0  0  0  0  0  0
  191.4460  176.8980  137.9750 N   0  0  0  0  0  2  0  0  0  0  0  0
  189.3520  175.7910  137.7300 C   0  0  1  0  0  3  0  0  0  0  0  0
  192.1170  173.7900  136.0370 C   0  0  0  0  0  3  0  0  0  0  0  0
  192.1300  175.9230  137.1860 C   0  0  0  0  0  0  0  0  0  0  0  0
  193.4310  176.1620  136.7370 C   0  0  0  0  0  3  0  0  0  0  0  0
  188.7300  176.5930  136.5670 C   0  0  1  0  0  3  0  0  0  0  0  0
  188.2890  175.3220  134.6790 C   0  0  0  0  0  2  0  0  0  0  0  0
  189.2060  176.2060  135.2850 O   0  0  0  0  0  0  0  0  0  0  0  0
  186.9720  176.0450  134.3460 C   0  0  0  0  0  2  0  0  0  0  0  0
  186.9760  178.3350  134.8950 C   0  0  0  0  0  1  0  0  0  0  0  0
  187.1910  176.7020  136.6670 C   0  0  2  0  0  3  0  0  0  0  0  0
  186.5630  177.0180  135.3710 N   0  0  0  0  0  0  0  0  0  0  0  0
  186.6680  177.5480  137.8340 C   0  0  0  0  0  2  0  0  0  0  0  0
  185.1520  177.6610  137.8560 C   0  0  0  0  0  1  0  0  0  0  0  0
  189.5890  177.7600  139.2040 C   0  0  0  0  0  2  0  0  0  0  0  0
  188.2550  178.2860  141.1610 C   0  0  0  0  0  0  0  0  0  0  0  0
  189.3030  177.6750  140.6790 C   0  0  0  0  0  0  0  0  0  0  0  0
  187.2610  178.8630  141.6220 O   0  0  0  0  0  0  0  0  0  0  0  0
  190.0940  176.7560  141.5530 C   0  0  0  0  0  2  0  0  0  0  0  0
  191.1870  177.5120  142.2880 C   0  0  0  0  0  2  0  0  0  0  0  0
  191.0670  177.2510  143.7730 C   0  0  0  0  0  2  0  0  0  0  0  0
  190.3290  178.4020  144.4300 C   0  0  0  0  0  2  0  0  0  0  0  0
  189.2660  177.8830  145.3400 C   0  0  0  0  0  0  0  0  0  0  0  0
  188.0700  177.2040  144.7700 C   0  0  0  0  0  1  0  0  0  0  0  0
  189.3610  178.0310  146.5480 O   0  0  0  0  0  0  0  0  0  0  0  0
  1  4  2  0  0  0  0
  1  9  1  0  0  0  0
  3 10  1  0  0  0  0
  3  2  1  0  0  0  0
  4 11  1  0  0  0  0
  5 21  1  0  0  0  0
  6  1  1  0  0  0  0
  7  5  1  0  0  0  0
  8  2  1  6  0  0  0
  8  5  1  0  0  0  0
  9  3  2  0  0  0  0
 10  7  1  0  0  0  0
 11 10  2  0  0  0  0
 12 14  1  6  0  0  0
 12 17  1  0  0  0  0
 12  8  1  0  0  0  0
 13 14  1  0  0  0  0
 15 13  1  0  0  0  0
 15 18  1  0  0  0  0
 16 18  1  0  0  0  0
 17 19  1  1  0  0  0
 18 17  1  0  0  0  0
 19 20  1  0  0  0  0
 21 23  1  0  0  0  0
 22 24  2  0  0  0  0
 23 22  2  0  0  0  0
 23 25  1  0  0  0  0
 25 26  1  0  0  0  0
 26 27  1  0  0  0  0
 27 28  1  0  0  0  0
 28 29  1  0  0  0  0
 29 31  2  0  0  0  0
 30 29  1  0  0  0  0
M  END
>  <MODEL>
7

>  <REMARK>
 VINA RESULT:      -5.5      3.359      5.807
  Name = 
  9 active torsions:
  status: ('A' for Active; 'I' for Inactive)
    1  A    between atoms: C_1  and  C_24
    2  A    between atoms: C_5  and  C_21
    3  A    between atoms: C_6  and  C_7
    4  A    between atoms: C_6  and  C_19
    5  A    between atoms: C_7  and  C_9
    6  A    between atoms: C_9  and  C_23
    7  A    between atoms: N_15  and  C_23
    8  A    between atoms: C_17  and  C_30
    9  A    between atoms: C_19  and  C_24
                            x       y       z     vdW  Elec       q    Type
                         _______ _______ _______ _____ _____    ______ ____

>  <TORSDO>
F 9

$$$$
=
 OpenBabel10272400373D

 31 33  0  0  1  0  0  0  0  0999 V2000
  184.5210  178.6610  144.9910 C   0  0  0  0  0  0  0  0  0  0  0  0
  187.3330  176.5750  143.5190 C   0  0  0  0  0  2  0  0  0  0  0  0
  186.3190  177.6680  143.7050 C   0  0  0  0  0  0  0  0  0  0  0  0
  184.4490  179.7170  144.0790 C   0  0  0  0  0  3  0  0  0  0  0  0
  187.8910  177.6150  141.3380 N   0  0  0  0  0  0  0  0  0  0  0  0
  183.6900  178.6310  146.0590 F   0  0  0  0  0  0  0  0  0  0  0  0
  187.1240  178.7500  141.6670 N   0  0  0  0  0  2  0  0  0  0  0  0
  188.4560  176.9840  142.5480 C   0  0  1  0  0  3  0  0  0  0  0  0
  185.4570  177.6370  144.8060 C   0  0  0  0  0  3  0  0  0  0  0  0
  186.2270  178.7190  142.7790 C   0  0  0  0  0  0  0  0  0  0  0  0
  185.3040  179.7490  142.9730 C   0  0  0  0  0  3  0  0  0  0  0  0
  189.5910  177.7820  143.2250 C   0  0  1  0  0  3  0  0  0  0  0  0
  189.4960  177.7730  145.5410 C   0  0  0  0  0  2  0  0  0  0  0  0
  189.1770  178.5030  144.3770 O   0  0  0  0  0  0  0  0  0  0  0  0
  191.0200  177.6830  145.7300 C   0  0  0  0  0  2  0  0  0  0  0  0
  192.2540  178.8250  144.0810 C   0  0  0  0  0  1  0  0  0  0  0  0
  190.8770  176.9460  143.4270 C   0  0  2  0  0  3  0  0  0  0  0  0
  191.7560  177.5080  144.4680 N   0  0  0  0  0  0  0  0  0  0  0  0
  191.6100  176.5500  142.1390 C   0  0  0  0  0  2  0  0  0  0  0  0
  191.6490  177.6670  141.1090 C   0  0  0  0  0  1  0  0  0  0  0  0
  188.8940  177.9130  140.3010 C   0  0  0  0  0  2  0  0  0  0  0  0
  188.6820  178.9780  138.1310 C   0  0  0  0  0  0  0  0  0  0  0  0
  188.3660  177.9660  138.8930 C   0  0  0  0  0  0  0  0  0  0  0  0
  188.9800  179.9360  137.4050 O   0  0  0  0  0  0  0  0  0  0  0  0
  187.6430  176.7950  138.3090 C   0  0  0  0  0  2  0  0  0  0  0  0
  186.6180  177.2440  137.2820 C   0  0  0  0  0  2  0  0  0  0  0  0
  185.2420  176.7870  137.7120 C   0  0  0  0  0  2  0  0  0  0  0  0
  184.2990  177.9740  137.7320 C   0  0  0  0  0  2  0  0  0  0  0  0
  184.2480  178.5730  139.0980 C   0  0  0  0  0  0  0  0  0  0  0  0
  183.3820  177.9620  140.1430 C   0  0  0  0  0  1  0  0  0  0  0  0
  184.8970  179.5750  139.3560 O   0  0  0  0  0  0  0  0  0  0  0  0
  1  6  1  0  0  0  0
  2  3  1  0  0  0  0
  3  9  2  0  0  0  0
  4  1  2  0  0  0  0
  5  7  1  0  0  0  0
  5  8  1  0  0  0  0
  7 10  1  0  0  0  0
  8 12  1  0  0  0  0
  8  2  1  1  0  0  0
  9  1  1  0  0  0  0
 10 11  2  0  0  0  0
 10  3  1  0  0  0  0
 11  4  1  0  0  0  0
 12 17  1  0  0  0  0
 12 14  1  1  0  0  0
 13 15  1  0  0  0  0
 14 13  1  0  0  0  0
 16 18  1  0  0  0  0
 17 19  1  6  0  0  0
 17 18  1  0  0  0  0
 18 15  1  0  0  0  0
 20 19  1  0  0  0  0
 21  5  1  0  0  0  0
 22 23  2  0  0  0  0
 23 21  1  0  0  0  0
 24 22  2  0  0  0  0
 25 23  1  0  0  0  0
 26 27  1  0  0  0  0
 26 25  1  0  0  0  0
 27 28  1  0  0  0  0
 28 29  1  0  0  0  0
 29 31  2  0  0  0  0
 29 30  1  0  0  0  0
M  END
>  <MODEL>
8

>  <REMARK>
 VINA RESULT:      -5.4      2.501      6.320
  Name = 
  9 active torsions:
  status: ('A' for Active; 'I' for Inactive)
    1  A    between atoms: C_1  and  C_24
    2  A    between atoms: C_5  and  C_21
    3  A    between atoms: C_6  and  C_7
    4  A    between atoms: C_6  and  C_19
    5  A    between atoms: C_7  and  C_9
    6  A    between atoms: C_9  and  C_23
    7  A    between atoms: N_15  and  C_23
    8  A    between atoms: C_17  and  C_30
    9  A    between atoms: C_19  and  C_24
                            x       y       z     vdW  Elec       q    Type
                         _______ _______ _______ _____ _____    ______ ____

>  <TORSDO>
F 9

$$$$
=
 OpenBabel10272400373D

 31 33  0  0  1  0  0  0  0  0999 V2000
  183.7550  178.7430  143.6900 C   0  0  0  0  0  0  0  0  0  0  0  0
  183.0290  179.0620  139.9760 C   0  0  0  0  0  2  0  0  0  0  0  0
  183.7680  178.8730  141.2710 C   0  0  0  0  0  0  0  0  0  0  0  0
  185.1300  178.4900  143.6860 C   0  0  0  0  0  3  0  0  0  0  0  0
  185.2300  178.9960  138.8370 N   0  0  0  0  0  0  0  0  0  0  0  0
  183.0800  178.7980  144.8630 F   0  0  0  0  0  0  0  0  0  0  0  0
  185.8490  178.5660  140.0280 N   0  0  0  0  0  2  0  0  0  0  0  0
  183.8280  178.5360  138.7700 C   0  0  1  0  0  3  0  0  0  0  0  0
  183.0730  178.9330  142.4830 C   0  0  0  0  0  3  0  0  0  0  0  0
  185.1530  178.6420  141.2720 C   0  0  0  0  0  0  0  0  0  0  0  0
  185.8300  178.4360  142.4770 C   0  0  0  0  0  3  0  0  0  0  0  0
  183.6530  177.0220  138.5310 C   0  0  1  0  0  3  0  0  0  0  0  0
  181.7710  176.1220  139.5400 C   0  0  0  0  0  2  0  0  0  0  0  0
  183.1620  176.3160  139.6620 O   0  0  0  0  0  0  0  0  0  0  0  0
  181.4520  175.1620  138.3790 C   0  0  0  0  0  2  0  0  0  0  0  0
  183.3600  174.3260  137.2830 C   0  0  0  0  0  1  0  0  0  0  0  0
  182.9120  176.7020  137.2110 C   0  0  2  0  0  3  0  0  0  0  0  0
  182.3230  175.3500  137.2090 N   0  0  0  0  0  0  0  0  0  0  0  0
  183.6770  177.0500  135.9290 C   0  0  0  0  0  2  0  0  0  0  0  0
  182.7620  177.3850  134.7620 C   0  0  0  0  0  1  0  0  0  0  0  0
  186.0270  178.6460  137.6480 C   0  0  0  0  0  2  0  0  0  0  0  0
  187.2170  176.5340  137.5320 C   0  0  0  0  0  0  0  0  0  0  0  0
  187.2310  177.7820  137.9130 C   0  0  0  0  0  0  0  0  0  0  0  0
  187.2080  175.3500  137.1700 O   0  0  0  0  0  0  0  0  0  0  0  0
  188.4950  178.3840  138.4380 C   0  0  0  0  0  2  0  0  0  0  0  0
  189.7100  177.7680  137.7670 C   0  0  0  0  0  2  0  0  0  0  0  0
  190.6650  177.2600  138.8250 C   0  0  0  0  0  2  0  0  0  0  0  0
  191.3500  176.0030  138.3260 C   0  0  0  0  0  2  0  0  0  0  0  0
  192.7760  176.2890  137.9890 C   0  0  0  0  0  0  0  0  0  0  0  0
  193.2850  176.0020  136.6190 C   0  0  0  0  0  1  0  0  0  0  0  0
  193.5320  176.7350  138.8370 O   0  0  0  0  0  0  0  0  0  0  0  0
  1  6  1  0  0  0  0
  2  3  1  0  0  0  0
  3 10  2  0  0  0  0
  3  9  1  0  0  0  0
  4  1  1  0  0  0  0
  5  7  1  0  0  0  0
  7 10  1  0  0  0  0
  8  5  1  0  0  0  0
  8  2  1  1  0  0  0
  9  1  2  0  0  0  0
 10 11  1  0  0  0  0
 11  4  2  0  0  0  0
 12  8  1  0  0  0  0
 12 14  1  1  0  0  0
 13 14  1  0  0  0  0
 15 13  1  0  0  0  0
 17 19  1  6  0  0  0
 17 12  1  0  0  0  0
 18 17  1  0  0  0  0
 18 16  1  0  0  0  0
 18 15  1  0  0  0  0
 20 19  1  0  0  0  0
 21 23  1  0  0  0  0
 21  5  1  0  0  0  0
 22 23  2  0  0  0  0
 23 25  1  0  0  0  0
 24 22  2  0  0  0  0
 26 25  1  0  0  0  0
 26 27  1  0  0  0  0
 28 27  1  0  0  0  0
 29 28  1  0  0  0  0
 29 31  2  0  0  0  0
 30 29  1  0  0  0  0
M  END
>  <MODEL>
9

>  <REMARK>
 VINA RESULT:      -5.2      4.043      7.322
  Name = 
  9 active torsions:
  status: ('A' for Active; 'I' for Inactive)
    1  A    between atoms: C_1  and  C_24
    2  A    between atoms: C_5  and  C_21
    3  A    between atoms: C_6  and  C_7
    4  A    between atoms: C_6  and  C_19
    5  A    between atoms: C_7  and  C_9
    6  A    between atoms: C_9  and  C_23
    7  A    between atoms: N_15  and  C_23
    8  A    between atoms: C_17  and  C_30
    9  A    between atoms: C_19  and  C_24
                            x       y       z     vdW  Elec       q    Type
                         _______ _______ _______ _____ _____    ______ ____

>  <TORSDO>
F 9

$$$$
