=
 OpenBabel10272400313D

 31 34  0  0  1  0  0  0  0  0999 V2000
  186.1320  178.1560  146.4750 C   0  0  0  0  0  0  0  0  0  0  0  0
  187.0410  178.0910  142.8530 C   0  0  0  0  0  0  0  0  0  0  0  0
  188.4880  177.6160  142.8840 C   0  0  1  0  0  3  0  0  0  0  0  0
  189.6720  175.4260  143.4110 C   0  0  0  0  0  3  0  0  0  0  0  0
  186.3080  178.2480  144.0500 C   0  0  0  0  0  0  0  0  0  0  0  0
  184.7990  178.5670  146.4000 C   0  0  0  0  0  3  0  0  0  0  0  0
  188.5750  176.2050  143.4220 C   0  0  0  0  0  3  0  0  0  0  0  0
  185.0740  178.8380  141.6190 C   0  0  0  0  0  0  0  0  0  0  0  0
  186.6970  177.9070  147.6800 F   0  0  0  0  0  0  0  0  0  0  0  0
  188.6430  178.7400  140.5900 C   0  0  0  0  0  2  0  0  0  0  0  0
  190.9970  175.7640  142.7720 C   0  0  0  0  0  2  0  0  0  0  0  0
  184.3880  178.9410  142.7870 N   0  0  0  0  0  0  0  0  0  0  0  0
  186.4210  178.4290  141.6280 C   0  0  0  0  0  0  0  0  0  0  0  0
  186.8830  177.9970  145.3070 C   0  0  0  0  0  3  0  0  0  0  0  0
  191.3620  177.2370  142.9100 C   0  0  0  0  0  2  0  0  0  0  0  0
  184.9620  178.6740  143.9860 C   0  0  0  0  0  0  0  0  0  0  0  0
  184.2150  178.8260  145.1580 C   0  0  0  0  0  3  0  0  0  0  0  0
  187.1960  178.3550  140.3440 C   0  0  0  0  0  2  0  0  0  0  0  0
  189.2550  177.7360  141.5520 C   0  0  1  0  0  3  0  0  0  0  0  0
  190.7260  178.0740  141.7970 C   0  0  0  0  0  2  0  0  0  0  0  0
  184.3600  179.1360  140.3390 C   0  0  0  0  0  2  0  0  0  0  0  0
  183.0930  177.1560  140.4040 O   0  0  0  0  0  0  0  0  0  0  0  0
  183.0800  178.3700  140.2680 C   0  0  0  0  0  0  0  0  0  0  0  0
  181.7350  179.5490  138.5420 C   0  0  0  0  0  1  0  0  0  0  0  0
  181.7980  179.0960  139.9900 C   0  0  1  0  0  3  0  0  0  0  0  0
  180.1320  177.3290  139.4280 O   0  0  0  0  0  1  0  0  0  0  0  0
  180.6050  178.2590  140.3480 C   0  0  0  0  0  0  0  0  0  0  0  0
  179.9820  178.3560  141.5270 C   0  0  0  0  0  3  0  0  0  0  0  0
  180.3280  179.2660  142.6350 C   0  0  0  0  0  0  0  0  0  0  0  0
  180.9070  178.6940  143.8770 C   0  0  0  0  0  1  0  0  0  0  0  0
  180.1450  180.5100  142.5570 O   0  0  0  0  0  0  0  0  0  0  0  0
  1  9  1  0  0  0  0
  2  3  1  0  0  0  0
  2  5  1  0  0  0  0
  3  7  1  6  0  0  0
  4  7  2  0  0  0  0
  5 14  1  0  0  0  0
  6  1  1  0  0  0  0
  8 13  1  0  0  0  0
  8 12  2  0  0  0  0
 11 15  1  0  0  0  0
 11  4  1  0  0  0  0
 12 16  1  0  0  0  0
 13  2  2  0  0  0  0
 14  1  2  0  0  0  0
 16  5  2  0  0  0  0
 16 17  1  0  0  0  0
 17  6  2  0  0  0  0
 18 10  1  0  0  0  0
 18 13  1  0  0  0  0
 19 10  1  6  0  0  0
 19 20  1  0  0  0  0
 19  3  1  0  0  0  0
 20 15  1  0  0  0  0
 21  8  1  0  0  0  0
 23 21  1  0  0  0  0
 23 22  2  0  0  0  0
 25 24  1  6  0  0  0
 25 23  1  0  0  0  0
 25 27  1  0  0  0  0
 26 27  1  0  0  0  0
 27 28  2  0  0  0  0
 28 29  1  0  0  0  0
 29 30  1  0  0  0  0
 31 29  2  0  0  0  0
M  END
>  <MODEL>
1

>  <REMARK>
 VINA RESULT:      -8.4      0.000      0.000
  Name = 
  5 active torsions:
  status: ('A' for Active; 'I' for Inactive)
    1  A    between atoms: C_1  and  C_24
    2  A    between atoms: C_9  and  C_22
    3  A    between atoms: C_9  and  C_23
    4  A    between atoms: C_15  and  C_23
    5  A    between atoms: C_19  and  C_22
                            x       y       z     vdW  Elec       q    Type
                         _______ _______ _______ _____ _____    ______ ____

>  <TORSDO>
F 5

$$$$
=
 OpenBabel10272400313D

 31 34  0  0  1  0  0  0  0  0999 V2000
  190.4930  177.2420  138.8330 C   0  0  0  0  0  0  0  0  0  0  0  0
  188.3170  177.9870  141.7760 C   0  0  0  0  0  0  0  0  0  0  0  0
  189.2520  177.7310  142.9510 C   0  0  1  0  0  3  0  0  0  0  0  0
  191.2950  178.8860  143.9360 C   0  0  0  0  0  3  0  0  0  0  0  0
  188.7670  177.8210  140.4480 C   0  0  0  0  0  0  0  0  0  0  0  0
  189.6110  177.5150  137.7840 C   0  0  0  0  0  3  0  0  0  0  0  0
  190.3980  178.7170  142.9450 C   0  0  0  0  0  3  0  0  0  0  0  0
  186.1300  178.6120  140.8950 C   0  0  0  0  0  0  0  0  0  0  0  0
  191.7560  176.8350  138.5670 F   0  0  0  0  0  0  0  0  0  0  0  0
  187.0870  177.4100  144.2790 C   0  0  0  0  0  2  0  0  0  0  0  0
  191.2740  178.2020  145.2810 C   0  0  0  0  0  2  0  0  0  0  0  0
  186.6070  178.4780  139.6310 N   0  0  0  0  0  0  0  0  0  0  0  0
  186.9680  178.3510  141.9960 C   0  0  0  0  0  0  0  0  0  0  0  0
  190.0730  177.3940  140.1570 C   0  0  0  0  0  3  0  0  0  0  0  0
  190.7960  176.7580  145.2030 C   0  0  0  0  0  2  0  0  0  0  0  0
  187.8790  178.0830  139.3790 C   0  0  0  0  0  0  0  0  0  0  0  0
  188.3070  177.9340  138.0560 C   0  0  0  0  0  3  0  0  0  0  0  0
  186.4330  178.4560  143.3950 C   0  0  0  0  0  2  0  0  0  0  0  0
  188.5790  177.6900  144.3370 C   0  0  1  0  0  3  0  0  0  0  0  0
  189.2670  176.6740  145.2500 C   0  0  0  0  0  2  0  0  0  0  0  0
  184.7180  179.0670  141.0840 C   0  0  0  0  0  2  0  0  0  0  0  0
  184.5310  180.2770  139.0760 O   0  0  0  0  0  0  0  0  0  0  0  0
  184.0890  179.3700  139.7640 C   0  0  0  0  0  0  0  0  0  0  0  0
  183.1250  177.0920  139.5110 C   0  0  0  0  0  1  0  0  0  0  0  0
  182.8950  178.5810  139.3160 C   0  0  1  0  0  3  0  0  0  0  0  0
  181.2510  178.3810  141.1790 O   0  0  0  0  0  1  0  0  0  0  0  0
  181.6460  179.0310  140.0150 C   0  0  0  0  0  0  0  0  0  0  0  0
  180.8990  180.0490  139.5740 C   0  0  0  0  0  3  0  0  0  0  0  0
  181.1460  180.8700  138.3750 C   0  0  0  0  0  0  0  0  0  0  0  0
  180.6760  180.3720  137.0570 C   0  0  0  0  0  1  0  0  0  0  0  0
  181.7440  181.9770  138.4370 O   0  0  0  0  0  0  0  0  0  0  0  0
  1 14  1  0  0  0  0
  2 13  2  0  0  0  0
  2  3  1  0  0  0  0
  3  7  1  1  0  0  0
  3 19  1  0  0  0  0
  4 11  1  0  0  0  0
  5  2  1  0  0  0  0
  6 17  1  0  0  0  0
  6  1  2  0  0  0  0
  7  4  2  0  0  0  0
  8 21  1  0  0  0  0
  8 13  1  0  0  0  0
  9  1  1  0  0  0  0
 12  8  2  0  0  0  0
 13 18  1  0  0  0  0
 14  5  2  0  0  0  0
 15 20  1  0  0  0  0
 15 11  1  0  0  0  0
 16 12  1  0  0  0  0
 16  5  1  0  0  0  0
 17 16  2  0  0  0  0
 18 10  1  0  0  0  0
 19 10  1  6  0  0  0
 19 20  1  0  0  0  0
 22 23  2  0  0  0  0
 23 21  1  0  0  0  0
 25 24  1  1  0  0  0
 25 23  1  0  0  0  0
 25 27  1  0  0  0  0
 27 26  1  0  0  0  0
 28 27  2  0  0  0  0
 29 31  2  0  0  0  0
 29 28  1  0  0  0  0
 30 29  1  0  0  0  0
M  END
>  <MODEL>
2

>  <REMARK>
 VINA RESULT:      -8.3      2.766      4.721
  Name = 
  5 active torsions:
  status: ('A' for Active; 'I' for Inactive)
    1  A    between atoms: C_1  and  C_24
    2  A    between atoms: C_9  and  C_22
    3  A    between atoms: C_9  and  C_23
    4  A    between atoms: C_15  and  C_23
    5  A    between atoms: C_19  and  C_22
                            x       y       z     vdW  Elec       q    Type
                         _______ _______ _______ _____ _____    ______ ____

>  <TORSDO>
F 5

$$$$
=
 OpenBabel10272400313D

 31 34  0  0  1  0  0  0  0  0999 V2000
  190.7670  177.0390  138.9940 C   0  0  0  0  0  0  0  0  0  0  0  0
  188.5440  177.9260  141.8610 C   0  0  0  0  0  0  0  0  0  0  0  0
  189.4360  177.6540  143.0670 C   0  0  1  0  0  3  0  0  0  0  0  0
  191.4970  178.7430  144.0880 C   0  0  0  0  0  3  0  0  0  0  0  0
  189.0230  177.7170  140.5490 C   0  0  0  0  0  0  0  0  0  0  0  0
  189.9270  177.3270  137.9170 C   0  0  0  0  0  3  0  0  0  0  0  0
  190.6210  178.5920  143.0760 C   0  0  0  0  0  3  0  0  0  0  0  0
  186.4100  178.6220  140.9090 C   0  0  0  0  0  0  0  0  0  0  0  0
  192.0200  176.5750  138.7710 F   0  0  0  0  0  0  0  0  0  0  0  0
  187.2240  177.4460  144.3390 C   0  0  0  0  0  2  0  0  0  0  0  0
  191.4110  178.0860  145.4440 C   0  0  0  0  0  2  0  0  0  0  0  0
  186.9150  178.4460  139.6610 N   0  0  0  0  0  0  0  0  0  0  0  0
  187.2060  178.3480  142.0370 C   0  0  0  0  0  0  0  0  0  0  0  0
  190.3180  177.2320  140.3040 C   0  0  0  0  0  3  0  0  0  0  0  0
  190.8760  176.6610  145.3780 C   0  0  0  0  0  2  0  0  0  0  0  0
  188.1770  177.9950  139.4520 C   0  0  0  0  0  0  0  0  0  0  0  0
  188.6350  177.8040  138.1450 C   0  0  0  0  0  3  0  0  0  0  0  0
  186.6380  178.5010  143.4180 C   0  0  0  0  0  2  0  0  0  0  0  0
  188.7240  177.6660  144.4340 C   0  0  1  0  0  3  0  0  0  0  0  0
  189.3450  176.6400  145.3830 C   0  0  0  0  0  2  0  0  0  0  0  0
  185.0130  179.1380  141.0510 C   0  0  0  0  0  2  0  0  0  0  0  0
  184.3330  180.0900  139.0100 O   0  0  0  0  0  0  0  0  0  0  0  0
  184.3110  179.1050  139.7330 C   0  0  0  0  0  0  0  0  0  0  0  0
  182.5780  177.4590  140.4160 C   0  0  0  0  0  1  0  0  0  0  0  0
  183.5540  177.8760  139.3290 C   0  0  1  0  0  3  0  0  0  0  0  0
  181.6330  178.7390  137.9960 O   0  0  0  0  0  1  0  0  0  0  0  0
  182.8520  178.0700  138.0170 C   0  0  0  0  0  0  0  0  0  0  0  0
  183.3590  177.6400  136.8560 C   0  0  0  0  0  3  0  0  0  0  0  0
  184.6320  176.9230  136.6620 C   0  0  0  0  0  0  0  0  0  0  0  0
  184.6470  175.4430  136.7860 C   0  0  0  0  0  1  0  0  0  0  0  0
  185.7040  177.5290  136.3950 O   0  0  0  0  0  0  0  0  0  0  0  0
  1 14  1  0  0  0  0
  2 13  2  0  0  0  0
  2  3  1  0  0  0  0
  3  7  1  1  0  0  0
  3 19  1  0  0  0  0
  4 11  1  0  0  0  0
  5  2  1  0  0  0  0
  6 17  1  0  0  0  0
  6  1  2  0  0  0  0
  7  4  2  0  0  0  0
  8 21  1  0  0  0  0
  8 13  1  0  0  0  0
  9  1  1  0  0  0  0
 12  8  2  0  0  0  0
 13 18  1  0  0  0  0
 14  5  2  0  0  0  0
 15 20  1  0  0  0  0
 15 11  1  0  0  0  0
 16 12  1  0  0  0  0
 16  5  1  0  0  0  0
 17 16  2  0  0  0  0
 18 10  1  0  0  0  0
 19 10  1  6  0  0  0
 19 20  1  0  0  0  0
 22 23  2  0  0  0  0
 23 21  1  0  0  0  0
 25 23  1  0  0  0  0
 25 24  1  1  0  0  0
 26 27  1  0  0  0  0
 27 25  1  0  0  0  0
 28 27  2  0  0  0  0
 29 30  1  0  0  0  0
 29 28  1  0  0  0  0
 31 29  2  0  0  0  0
M  END
>  <MODEL>
3

>  <REMARK>
 VINA RESULT:      -8.2      3.047      5.264
  Name = 
  5 active torsions:
  status: ('A' for Active; 'I' for Inactive)
    1  A    between atoms: C_1  and  C_24
    2  A    between atoms: C_9  and  C_22
    3  A    between atoms: C_9  and  C_23
    4  A    between atoms: C_15  and  C_23
    5  A    between atoms: C_19  and  C_22
                            x       y       z     vdW  Elec       q    Type
                         _______ _______ _______ _____ _____    ______ ____

>  <TORSDO>
F 5

$$$$
=
 OpenBabel10272400313D

 31 34  0  0  1  0  0  0  0  0999 V2000
  185.9100  178.1120  146.4980 C   0  0  0  0  0  0  0  0  0  0  0  0
  186.7330  178.0970  142.8550 C   0  0  0  0  0  0  0  0  0  0  0  0
  188.1830  177.6280  142.8460 C   0  0  1  0  0  3  0  0  0  0  0  0
  189.3880  175.4360  143.3160 C   0  0  0  0  0  3  0  0  0  0  0  0
  186.0280  178.2350  144.0710 C   0  0  0  0  0  0  0  0  0  0  0  0
  184.5740  178.5180  146.4600 C   0  0  0  0  0  3  0  0  0  0  0  0
  188.2880  176.2110  143.3630 C   0  0  0  0  0  3  0  0  0  0  0  0
  184.7340  178.8500  141.6780 C   0  0  0  0  0  0  0  0  0  0  0  0
  186.5040  177.8500  147.6870 F   0  0  0  0  0  0  0  0  0  0  0  0
  188.2780  178.7820  140.5630 C   0  0  0  0  0  2  0  0  0  0  0  0
  190.6960  175.7890  142.6510 C   0  0  0  0  0  2  0  0  0  0  0  0
  184.0750  178.9360  142.8630 N   0  0  0  0  0  0  0  0  0  0  0  0
  186.0830  178.4480  141.6500 C   0  0  0  0  0  0  0  0  0  0  0  0
  186.6330  177.9710  145.3110 C   0  0  0  0  0  3  0  0  0  0  0  0
  191.0570  177.2610  142.7990 C   0  0  0  0  0  2  0  0  0  0  0  0
  184.6790  178.6560  144.0440 C   0  0  0  0  0  0  0  0  0  0  0  0
  183.9600  178.7900  145.2360 C   0  0  0  0  0  3  0  0  0  0  0  0
  186.8270  178.3930  140.3470 C   0  0  0  0  0  2  0  0  0  0  0  0
  188.9170  177.7690  141.4980 C   0  0  1  0  0  3  0  0  0  0  0  0
  190.3920  178.1100  141.7120 C   0  0  0  0  0  2  0  0  0  0  0  0
  183.9890  179.1610  140.4190 C   0  0  0  0  0  2  0  0  0  0  0  0
  181.9410  178.0380  140.7000 O   0  0  0  0  0  0  0  0  0  0  0  0
  183.0120  178.0740  140.1120 C   0  0  0  0  0  0  0  0  0  0  0  0
  182.4890  175.7920  139.2770 C   0  0  0  0  0  1  0  0  0  0  0  0
  183.3740  177.0160  139.1140 C   0  0  1  0  0  3  0  0  0  0  0  0
  182.2820  178.4060  137.3560 O   0  0  0  0  0  1  0  0  0  0  0  0
  183.3140  177.5430  137.7100 C   0  0  0  0  0  0  0  0  0  0  0  0
  184.2250  177.2310  136.7820 C   0  0  0  0  0  3  0  0  0  0  0  0
  185.3920  176.3470  136.9540 C   0  0  0  0  0  0  0  0  0  0  0  0
  186.7370  176.9590  137.1090 C   0  0  0  0  0  1  0  0  0  0  0  0
  185.2810  175.0920  136.9730 O   0  0  0  0  0  0  0  0  0  0  0  0
  1  9  1  0  0  0  0
  2  5  1  0  0  0  0
  3  2  1  0  0  0  0
  3  7  1  6  0  0  0
  4  7  2  0  0  0  0
  5 14  1  0  0  0  0
  6  1  1  0  0  0  0
  8 12  2  0  0  0  0
 11 15  1  0  0  0  0
 11  4  1  0  0  0  0
 12 16  1  0  0  0  0
 13  8  1  0  0  0  0
 13  2  2  0  0  0  0
 14  1  2  0  0  0  0
 16  5  2  0  0  0  0
 16 17  1  0  0  0  0
 17  6  2  0  0  0  0
 18 10  1  0  0  0  0
 18 13  1  0  0  0  0
 19 10  1  6  0  0  0
 19 20  1  0  0  0  0
 19  3  1  0  0  0  0
 20 15  1  0  0  0  0
 21  8  1  0  0  0  0
 23 21  1  0  0  0  0
 23 22  2  0  0  0  0
 25 24  1  6  0  0  0
 25 23  1  0  0  0  0
 26 27  1  0  0  0  0
 27 25  1  0  0  0  0
 28 29  1  0  0  0  0
 28 27  2  0  0  0  0
 29 31  2  0  0  0  0
 29 30  1  0  0  0  0
M  END
>  <MODEL>
4

>  <REMARK>
 VINA RESULT:      -8.2      1.794      3.262
  Name = 
  5 active torsions:
  status: ('A' for Active; 'I' for Inactive)
    1  A    between atoms: C_1  and  C_24
    2  A    between atoms: C_9  and  C_22
    3  A    between atoms: C_9  and  C_23
    4  A    between atoms: C_15  and  C_23
    5  A    between atoms: C_19  and  C_22
                            x       y       z     vdW  Elec       q    Type
                         _______ _______ _______ _____ _____    ______ ____

>  <TORSDO>
F 5

$$$$
=
 OpenBabel10272400313D

 31 34  0  0  1  0  0  0  0  0999 V2000
  182.1810  178.7550  143.6660 C   0  0  0  0  0  0  0  0  0  0  0  0
  184.3390  178.6660  140.6200 C   0  0  0  0  0  0  0  0  0  0  0  0
  183.3180  178.5590  139.4940 C   0  0  1  0  0  3  0  0  0  0  0  0
  181.5920  180.1120  138.4520 C   0  0  0  0  0  3  0  0  0  0  0  0
  183.9220  178.7330  141.9680 C   0  0  0  0  0  0  0  0  0  0  0  0
  183.1480  178.8800  144.6660 C   0  0  0  0  0  3  0  0  0  0  0  0
  182.4600  179.8030  139.4330 C   0  0  0  0  0  3  0  0  0  0  0  0
  186.6500  178.7810  141.3900 C   0  0  0  0  0  0  0  0  0  0  0  0
  180.8680  178.7080  143.9970 F   0  0  0  0  0  0  0  0  0  0  0  0
  185.2690  177.5830  138.1550 C   0  0  0  0  0  2  0  0  0  0  0  0
  181.3790  179.3340  137.1760 C   0  0  0  0  0  2  0  0  0  0  0  0
  186.2130  178.8810  142.6720 N   0  0  0  0  0  0  0  0  0  0  0  0
  185.7250  178.6510  140.3370 C   0  0  0  0  0  0  0  0  0  0  0  0
  182.5650  178.6810  142.3250 C   0  0  0  0  0  3  0  0  0  0  0  0
  181.4780  177.8270  137.3780 C   0  0  0  0  0  2  0  0  0  0  0  0
  184.8940  178.8490  142.9870 C   0  0  0  0  0  0  0  0  0  0  0  0
  184.5020  178.9260  144.3270 C   0  0  0  0  0  3  0  0  0  0  0  0
  186.2060  178.4970  138.9240 C   0  0  0  0  0  2  0  0  0  0  0  0
  183.8950  178.2300  138.1040 C   0  0  1  0  0  3  0  0  0  0  0  0
  182.9320  177.3510  137.3050 C   0  0  0  0  0  2  0  0  0  0  0  0
  188.1220  178.8420  141.1290 C   0  0  0  0  0  2  0  0  0  0  0  0
  189.1210  176.7930  140.5470 O   0  0  0  0  0  0  0  0  0  0  0  0
  188.7610  177.5310  141.4520 C   0  0  0  0  0  0  0  0  0  0  0  0
  189.2370  175.6380  142.9910 C   0  0  0  0  0  1  0  0  0  0  0  0
  188.9180  177.1190  142.8850 C   0  0  1  0  0  3  0  0  0  0  0  0
  191.0190  178.4600  142.8470 O   0  0  0  0  0  1  0  0  0  0  0  0
  189.9570  177.9470  143.5830 C   0  0  0  0  0  0  0  0  0  0  0  0
  189.8960  178.2310  144.8890 C   0  0  0  0  0  3  0  0  0  0  0  0
  188.8560  177.7950  145.8390 C   0  0  0  0  0  0  0  0  0  0  0  0
  189.2580  176.9940  147.0230 C   0  0  0  0  0  1  0  0  0  0  0  0
  187.6410  178.0830  145.6730 O   0  0  0  0  0  0  0  0  0  0  0  0
  1  9  1  0  0  0  0
  1  6  1  0  0  0  0
  2  5  1  0  0  0  0
  3  7  1  6  0  0  0
  3  2  1  0  0  0  0
  4  7  2  0  0  0  0
  5 14  1  0  0  0  0
  5 16  2  0  0  0  0
  8 12  2  0  0  0  0
 10 18  1  0  0  0  0
 11 15  1  0  0  0  0
 11  4  1  0  0  0  0
 12 16  1  0  0  0  0
 13  2  2  0  0  0  0
 13  8  1  0  0  0  0
 14  1  2  0  0  0  0
 16 17  1  0  0  0  0
 17  6  2  0  0  0  0
 18 13  1  0  0  0  0
 19 20  1  1  0  0  0
 19 10  1  0  0  0  0
 19  3  1  0  0  0  0
 20 15  1  0  0  0  0
 21  8  1  0  0  0  0
 21 23  1  0  0  0  0
 22 23  2  0  0  0  0
 23 25  1  0  0  0  0
 25 24  1  6  0  0  0
 25 27  1  0  0  0  0
 26 27  1  0  0  0  0
 27 28  2  0  0  0  0
 28 29  1  0  0  0  0
 29 30  1  0  0  0  0
 31 29  2  0  0  0  0
M  END
>  <MODEL>
5

>  <REMARK>
 VINA RESULT:      -8.1      3.137      7.148
  Name = 
  5 active torsions:
  status: ('A' for Active; 'I' for Inactive)
    1  A    between atoms: C_1  and  C_24
    2  A    between atoms: C_9  and  C_22
    3  A    between atoms: C_9  and  C_23
    4  A    between atoms: C_15  and  C_23
    5  A    between atoms: C_19  and  C_22
                            x       y       z     vdW  Elec       q    Type
                         _______ _______ _______ _____ _____    ______ ____

>  <TORSDO>
F 5

$$$$
=
 OpenBabel10272400313D

 31 34  0  0  1  0  0  0  0  0999 V2000
  186.6380  178.4890  138.4760 C   0  0  0  0  0  0  0  0  0  0  0  0
  184.7600  178.3470  141.7010 C   0  0  0  0  0  0  0  0  0  0  0  0
  183.3090  178.4370  141.2420 C   0  0  1  0  0  3  0  0  0  0  0  0
  181.6900  176.9030  140.0180 C   0  0  0  0  0  3  0  0  0  0  0  0
  185.8140  178.3610  140.7620 C   0  0  0  0  0  0  0  0  0  0  0  0
  187.9520  178.3750  138.9370 C   0  0  0  0  0  3  0  0  0  0  0  0
  182.9340  177.2260  140.4200 C   0  0  0  0  0  3  0  0  0  0  0  0
  186.4210  178.1810  143.4780 C   0  0  0  0  0  0  0  0  0  0  0  0
  186.3930  178.6010  137.1490 F   0  0  0  0  0  0  0  0  0  0  0  0
  182.8720  179.2720  143.6230 C   0  0  0  0  0  2  0  0  0  0  0  0
  180.4190  177.6250  140.3930 C   0  0  0  0  0  2  0  0  0  0  0  0
  187.4090  178.1600  142.5460 N   0  0  0  0  0  0  0  0  0  0  0  0
  185.0760  178.2940  143.0780 C   0  0  0  0  0  0  0  0  0  0  0  0
  185.5750  178.4820  139.3830 C   0  0  0  0  0  3  0  0  0  0  0  0
  180.6000  179.1350  140.4830 C   0  0  0  0  0  2  0  0  0  0  0  0
  187.1480  178.2580  141.2190 C   0  0  0  0  0  0  0  0  0  0  0  0
  188.2070  178.2610  140.3050 C   0  0  0  0  0  3  0  0  0  0  0  0
  183.9850  178.3610  144.1070 C   0  0  0  0  0  2  0  0  0  0  0  0
  182.2740  178.6760  142.3600 C   0  0  1  0  0  3  0  0  0  0  0  0
  181.1230  179.5510  141.8610 C   0  0  0  0  0  2  0  0  0  0  0  0
  186.7950  178.0520  144.9210 C   0  0  0  0  0  2  0  0  0  0  0  0
  188.3900  176.4040  144.3970 O   0  0  0  0  0  0  0  0  0  0  0  0
  188.1330  177.4020  145.0540 C   0  0  0  0  0  0  0  0  0  0  0  0
  188.5650  177.9850  147.4320 C   0  0  0  0  0  1  0  0  0  0  0  0
  189.1320  177.9590  146.0230 C   0  0  1  0  0  3  0  0  0  0  0  0
  190.6790  176.2350  146.9460 O   0  0  0  0  0  1  0  0  0  0  0  0
  190.4250  177.1980  145.9750 C   0  0  0  0  0  0  0  0  0  0  0  0
  191.3440  177.3960  145.0240 C   0  0  0  0  0  3  0  0  0  0  0  0
  191.2660  178.3550  143.9070 C   0  0  0  0  0  0  0  0  0  0  0  0
  191.1090  177.8350  142.5250 C   0  0  0  0  0  1  0  0  0  0  0  0
  191.3290  179.6000  144.0930 O   0  0  0  0  0  0  0  0  0  0  0  0
  1  6  2  0  0  0  0
  1 14  1  0  0  0  0
  2 13  2  0  0  0  0
  3  7  1  1  0  0  0
  3  2  1  0  0  0  0
  3 19  1  0  0  0  0
  4 11  1  0  0  0  0
  4  7  2  0  0  0  0
  5 16  1  0  0  0  0
  5  2  1  0  0  0  0
  6 17  1  0  0  0  0
  8 21  1  0  0  0  0
  9  1  1  0  0  0  0
 10 18  1  0  0  0  0
 11 15  1  0  0  0  0
 12  8  2  0  0  0  0
 13  8  1  0  0  0  0
 13 18  1  0  0  0  0
 14  5  2  0  0  0  0
 15 20  1  0  0  0  0
 16 12  1  0  0  0  0
 17 16  2  0  0  0  0
 19 20  1  6  0  0  0
 19 10  1  0  0  0  0
 21 23  1  0  0  0  0
 22 23  2  0  0  0  0
 23 25  1  0  0  0  0
 25 24  1  1  0  0  0
 27 25  1  0  0  0  0
 27 26  1  0  0  0  0
 28 27  2  0  0  0  0
 29 31  2  0  0  0  0
 29 28  1  0  0  0  0
 30 29  1  0  0  0  0
M  END
>  <MODEL>
6

>  <REMARK>
 VINA RESULT:      -8.1      3.669      8.260
  Name = 
  5 active torsions:
  status: ('A' for Active; 'I' for Inactive)
    1  A    between atoms: C_1  and  C_24
    2  A    between atoms: C_9  and  C_22
    3  A    between atoms: C_9  and  C_23
    4  A    between atoms: C_15  and  C_23
    5  A    between atoms: C_19  and  C_22
                            x       y       z     vdW  Elec       q    Type
                         _______ _______ _______ _____ _____    ______ ____

>  <TORSDO>
F 5

$$$$
=
 OpenBabel10272400313D

 31 34  0  0  1  0  0  0  0  0999 V2000
  190.1760  176.9030  138.8470 C   0  0  0  0  0  0  0  0  0  0  0  0
  187.7540  178.0660  141.4410 C   0  0  0  0  0  0  0  0  0  0  0  0
  188.5090  177.8040  142.7390 C   0  0  1  0  0  3  0  0  0  0  0  0
  190.5300  178.8200  143.9050 C   0  0  0  0  0  3  0  0  0  0  0  0
  188.3400  177.7620  140.1930 C   0  0  0  0  0  0  0  0  0  0  0  0
  189.4610  177.1860  137.6800 C   0  0  0  0  0  3  0  0  0  0  0  0
  189.7460  178.6690  142.8200 C   0  0  0  0  0  3  0  0  0  0  0  0
  185.7680  178.8380  140.2550 C   0  0  0  0  0  0  0  0  0  0  0  0
  191.4120  176.3550  138.7670 F   0  0  0  0  0  0  0  0  0  0  0  0
  186.1780  177.7920  143.7980 C   0  0  0  0  0  2  0  0  0  0  0  0
  190.2750  178.2390  145.2740 C   0  0  0  0  0  2  0  0  0  0  0  0
  186.3760  178.5680  139.0710 N   0  0  0  0  0  0  0  0  0  0  0  0
  186.4350  178.5750  141.4670 C   0  0  0  0  0  0  0  0  0  0  0  0
  189.6190  177.1900  140.0960 C   0  0  0  0  0  3  0  0  0  0  0  0
  189.6590  176.8460  145.2210 C   0  0  0  0  0  2  0  0  0  0  0  0
  187.6210  178.0340  139.0070 C   0  0  0  0  0  0  0  0  0  0  0  0
  188.1860  177.7490  137.7600 C   0  0  0  0  0  3  0  0  0  0  0  0
  185.7500  178.8320  142.7780 C   0  0  0  0  0  2  0  0  0  0  0  0
  187.6740  177.9280  144.0280 C   0  0  1  0  0  3  0  0  0  0  0  0
  188.1360  176.9170  145.0780 C   0  0  0  0  0  2  0  0  0  0  0  0
  184.4000  179.4420  140.2370 C   0  0  0  0  0  2  0  0  0  0  0  0
  183.6680  177.2080  140.3120 O   0  0  0  0  0  0  0  0  0  0  0  0
  183.3620  178.3750  140.1190 C   0  0  0  0  0  0  0  0  0  0  0  0
  181.7960  178.7020  138.2160 C   0  0  0  0  0  1  0  0  0  0  0  0
  181.9630  178.7440  139.7250 C   0  0  1  0  0  3  0  0  0  0  0  0
  180.4840  176.7380  139.7450 O   0  0  0  0  0  1  0  0  0  0  0  0
  180.9530  177.8680  140.4060 C   0  0  0  0  0  0  0  0  0  0  0  0
  180.4920  178.1190  141.6360 C   0  0  0  0  0  3  0  0  0  0  0  0
  180.8650  179.2510  142.5040 C   0  0  0  0  0  0  0  0  0  0  0  0
  181.9740  179.0740  143.4760 C   0  0  0  0  0  1  0  0  0  0  0  0
  180.2700  180.3610  142.4440 O   0  0  0  0  0  0  0  0  0  0  0  0
  1 14  1  0  0  0  0
  2 13  2  0  0  0  0
  2  3  1  0  0  0  0
  3  7  1  1  0  0  0
  3 19  1  0  0  0  0
  4 11  1  0  0  0  0
  5  2  1  0  0  0  0
  6 17  1  0  0  0  0
  6  1  2  0  0  0  0
  7  4  2  0  0  0  0
  8 13  1  0  0  0  0
  9  1  1  0  0  0  0
 12  8  2  0  0  0  0
 13 18  1  0  0  0  0
 14  5  2  0  0  0  0
 15 11  1  0  0  0  0
 16 12  1  0  0  0  0
 16  5  1  0  0  0  0
 17 16  2  0  0  0  0
 18 10  1  0  0  0  0
 19 10  1  6  0  0  0
 19 20  1  0  0  0  0
 20 15  1  0  0  0  0
 21  8  1  0  0  0  0
 23 21  1  0  0  0  0
 23 22  2  0  0  0  0
 25 24  1  6  0  0  0
 25 23  1  0  0  0  0
 25 27  1  0  0  0  0
 26 27  1  0  0  0  0
 27 28  2  0  0  0  0
 28 29  1  0  0  0  0
 29 30  1  0  0  0  0
 31 29  2  0  0  0  0
M  END
>  <MODEL>
7

>  <REMARK>
 VINA RESULT:      -8.1      2.478      4.252
  Name = 
  5 active torsions:
  status: ('A' for Active; 'I' for Inactive)
    1  A    between atoms: C_1  and  C_24
    2  A    between atoms: C_9  and  C_22
    3  A    between atoms: C_9  and  C_23
    4  A    between atoms: C_15  and  C_23
    5  A    between atoms: C_19  and  C_22
                            x       y       z     vdW  Elec       q    Type
                         _______ _______ _______ _____ _____    ______ ____

>  <TORSDO>
F 5

$$$$
=
 OpenBabel10272400313D

 31 34  0  0  1  0  0  0  0  0999 V2000
  186.1670  178.0840  146.6910 C   0  0  0  0  0  0  0  0  0  0  0  0
  186.8220  178.0900  143.0140 C   0  0  0  0  0  0  0  0  0  0  0  0
  188.2700  177.6220  142.9360 C   0  0  1  0  0  3  0  0  0  0  0  0
  189.4970  175.4300  143.3380 C   0  0  0  0  0  3  0  0  0  0  0  0
  186.1730  178.2210  144.2620 C   0  0  0  0  0  0  0  0  0  0  0  0
  184.8300  178.4880  146.7160 C   0  0  0  0  0  3  0  0  0  0  0  0
  188.4000  176.2030  143.4400 C   0  0  0  0  0  3  0  0  0  0  0  0
  184.7710  178.8480  141.9340 C   0  0  0  0  0  0  0  0  0  0  0  0
  186.8150  177.8160  147.8490 F   0  0  0  0  0  0  0  0  0  0  0  0
  188.2610  178.7900  140.6570 C   0  0  0  0  0  2  0  0  0  0  0  0
  190.7730  175.7870  142.6150 C   0  0  0  0  0  2  0  0  0  0  0  0
  184.1670  178.9270  143.1480 N   0  0  0  0  0  0  0  0  0  0  0  0
  186.1170  178.4470  141.8410 C   0  0  0  0  0  0  0  0  0  0  0  0
  186.8350  177.9500  145.4710 C   0  0  0  0  0  3  0  0  0  0  0  0
  191.1400  177.2600  142.7560 C   0  0  0  0  0  2  0  0  0  0  0  0
  184.8240  178.6400  144.2990 C   0  0  0  0  0  0  0  0  0  0  0  0
  184.1600  178.7660  145.5230 C   0  0  0  0  0  3  0  0  0  0  0  0
  186.8010  178.4010  140.5050 C   0  0  0  0  0  2  0  0  0  0  0  0
  188.9420  177.7720  141.5570 C   0  0  1  0  0  3  0  0  0  0  0  0
  190.4250  178.1140  141.7050 C   0  0  0  0  0  2  0  0  0  0  0  0
  183.9690  179.1660  140.7120 C   0  0  0  0  0  2  0  0  0  0  0  0
  183.3650  176.9220  140.3500 O   0  0  0  0  0  0  0  0  0  0  0  0
  182.9820  178.0780  140.4420 C   0  0  0  0  0  0  0  0  0  0  0  0
  180.9030  178.8660  141.5550 C   0  0  0  0  0  1  0  0  0  0  0  0
  181.5360  178.4240  140.2470 C   0  0  1  0  0  3  0  0  0  0  0  0
  181.1230  180.7840  139.5580 O   0  0  0  0  0  1  0  0  0  0  0  0
  181.3600  179.4660  139.1820 C   0  0  0  0  0  0  0  0  0  0  0  0
  181.4400  179.1860  137.8760 C   0  0  0  0  0  3  0  0  0  0  0  0
  181.6920  177.8650  137.2720 C   0  0  0  0  0  0  0  0  0  0  0  0
  180.5330  177.0050  136.9210 C   0  0  0  0  0  1  0  0  0  0  0  0
  182.8590  177.4470  137.0470 O   0  0  0  0  0  0  0  0  0  0  0  0
  1  6  1  0  0  0  0
  1  9  1  0  0  0  0
  2  5  1  0  0  0  0
  3  2  1  0  0  0  0
  3  7  1  6  0  0  0
  4  7  2  0  0  0  0
  5 16  2  0  0  0  0
  5 14  1  0  0  0  0
  8 12  2  0  0  0  0
 11 15  1  0  0  0  0
 11  4  1  0  0  0  0
 12 16  1  0  0  0  0
 13  8  1  0  0  0  0
 13  2  2  0  0  0  0
 14  1  2  0  0  0  0
 16 17  1  0  0  0  0
 17  6  2  0  0  0  0
 18 10  1  0  0  0  0
 18 13  1  0  0  0  0
 19 10  1  6  0  0  0
 19 20  1  0  0  0  0
 19  3  1  0  0  0  0
 20 15  1  0  0  0  0
 21  8  1  0  0  0  0
 22 23  2  0  0  0  0
 23 21  1  0  0  0  0
 25 23  1  0  0  0  0
 25 24  1  1  0  0  0
 27 26  1  0  0  0  0
 27 25  1  0  0  0  0
 28 27  2  0  0  0  0
 29 28  1  0  0  0  0
 30 29  1  0  0  0  0
 31 29  2  0  0  0  0
M  END
>  <MODEL>
8

>  <REMARK>
 VINA RESULT:      -7.7      1.162      2.389
  Name = 
  5 active torsions:
  status: ('A' for Active; 'I' for Inactive)
    1  A    between atoms: C_1  and  C_24
    2  A    between atoms: C_9  and  C_22
    3  A    between atoms: C_9  and  C_23
    4  A    between atoms: C_15  and  C_23
    5  A    between atoms: C_19  and  C_22
                            x       y       z     vdW  Elec       q    Type
                         _______ _______ _______ _____ _____    ______ ____

>  <TORSDO>
F 5

$$$$
=
 OpenBabel10272400313D

 31 34  0  0  1  0  0  0  0  0999 V2000
  188.0720  178.0330  147.4170 C   0  0  0  0  0  0  0  0  0  0  0  0
  187.1680  178.0170  143.7930 C   0  0  0  0  0  0  0  0  0  0  0  0
  188.4870  177.6480  143.1250 C   0  0  1  0  0  3  0  0  0  0  0  0
  189.9210  175.5530  142.9660 C   0  0  0  0  0  3  0  0  0  0  0  0
  187.0770  178.1260  145.1980 C   0  0  0  0  0  0  0  0  0  0  0  0
  186.8370  178.3450  147.9900 C   0  0  0  0  0  3  0  0  0  0  0  0
  188.9100  176.2510  143.5160 C   0  0  0  0  0  3  0  0  0  0  0  0
  184.8070  178.6130  143.6530 C   0  0  0  0  0  0  0  0  0  0  0  0
  189.1540  177.8310  148.2060 F   0  0  0  0  0  0  0  0  0  0  0  0
  187.4660  178.7710  141.0620 C   0  0  0  0  0  2  0  0  0  0  0  0
  190.7630  175.9840  141.7890 C   0  0  0  0  0  2  0  0  0  0  0  0
  184.7470  178.6720  145.0090 N   0  0  0  0  0  0  0  0  0  0  0  0
  186.0230  178.3030  143.0140 C   0  0  0  0  0  0  0  0  0  0  0  0
  188.1920  177.9240  146.0280 C   0  0  0  0  0  3  0  0  0  0  0  0
  191.0510  177.4800  141.7840 C   0  0  0  0  0  2  0  0  0  0  0  0
  185.8350  178.4520  145.7880 C   0  0  0  0  0  0  0  0  0  0  0  0
  185.7210  178.5550  147.1780 C   0  0  0  0  0  3  0  0  0  0  0  0
  186.1030  178.2800  141.5150 C   0  0  0  0  0  2  0  0  0  0  0  0
  188.5250  177.8190  141.5930 C   0  0  1  0  0  3  0  0  0  0  0  0
  189.9110  178.2640  141.1270 C   0  0  0  0  0  2  0  0  0  0  0  0
  183.5560  178.8520  142.8690 C   0  0  0  0  0  2  0  0  0  0  0  0
  182.5080  179.1900  144.9480 O   0  0  0  0  0  0  0  0  0  0  0  0
  182.3700  178.8700  143.7770 C   0  0  0  0  0  0  0  0  0  0  0  0
  179.9970  178.4150  144.3630 C   0  0  0  0  0  1  0  0  0  0  0  0
  181.0290  178.4570  143.2490 C   0  0  1  0  0  3  0  0  0  0  0  0
  180.2200  180.6650  142.4190 O   0  0  0  0  0  1  0  0  0  0  0  0
  180.5800  179.3520  142.1310 C   0  0  0  0  0  0  0  0  0  0  0  0
  180.5270  178.9460  140.8580 C   0  0  0  0  0  3  0  0  0  0  0  0
  180.8730  177.6090  140.3440 C   0  0  0  0  0  0  0  0  0  0  0  0
  182.2560  177.3620  139.8600 C   0  0  0  0  0  1  0  0  0  0  0  0
  180.0310  176.6730  140.3030 O   0  0  0  0  0  0  0  0  0  0  0  0
  1  6  1  0  0  0  0
  1  9  1  0  0  0  0
  2  5  1  0  0  0  0
  3  7  1  6  0  0  0
  3  2  1  0  0  0  0
  4  7  2  0  0  0  0
  5 16  2  0  0  0  0
  5 14  1  0  0  0  0
  8 12  2  0  0  0  0
 10 18  1  0  0  0  0
 11  4  1  0  0  0  0
 12 16  1  0  0  0  0
 13  8  1  0  0  0  0
 13  2  2  0  0  0  0
 14  1  2  0  0  0  0
 15 11  1  0  0  0  0
 16 17  1  0  0  0  0
 17  6  2  0  0  0  0
 18 13  1  0  0  0  0
 19 10  1  1  0  0  0
 19  3  1  0  0  0  0
 20 19  1  0  0  0  0
 20 15  1  0  0  0  0
 21  8  1  0  0  0  0
 21 23  1  0  0  0  0
 23 22  2  0  0  0  0
 25 23  1  0  0  0  0
 25 24  1  1  0  0  0
 27 26  1  0  0  0  0
 27 25  1  0  0  0  0
 28 27  2  0  0  0  0
 29 28  1  0  0  0  0
 30 29  1  0  0  0  0
 31 29  2  0  0  0  0
M  END
>  <MODEL>
9

>  <REMARK>
 VINA RESULT:      -7.5      1.338      2.677
  Name = 
  5 active torsions:
  status: ('A' for Active; 'I' for Inactive)
    1  A    between atoms: C_1  and  C_24
    2  A    between atoms: C_9  and  C_22
    3  A    between atoms: C_9  and  C_23
    4  A    between atoms: C_15  and  C_23
    5  A    between atoms: C_19  and  C_22
                            x       y       z     vdW  Elec       q    Type
                         _______ _______ _______ _____ _____    ______ ____

>  <TORSDO>
F 5

$$$$
