=
 OpenBabel10272413303D

 32 35  0  0  1  0  0  0  0  0999 V2000
  188.1300  178.1630  142.1540 C   0  0  1  0  0  3  0  0  0  0  0  0
  184.6980  178.1930  145.7550 C   0  0  0  0  0  3  0  0  0  0  0  0
  185.6790  177.9640  146.7200 C   0  0  0  0  0  3  0  0  0  0  0  0
  190.5230  177.5680  142.7810 C   0  0  1  0  0  3  0  0  0  0  0  0
  191.4530  176.9030  143.8080 C   0  0  1  0  0  3  0  0  0  0  0  0
  185.0620  178.3660  144.4190 C   0  0  0  0  0  3  0  0  0  0  0  0
  186.7850  178.5030  142.6520 N   0  0  0  0  0  0  0  0  0  0  0  0
  187.3990  178.0510  145.0000 C   0  0  0  0  0  0  0  0  0  0  0  0
  188.8510  178.0780  144.5970 C   0  0  1  0  0  3  0  0  0  0  0  0
  187.0230  177.9050  146.3460 C   0  0  0  0  0  3  0  0  0  0  0  0
  186.4120  178.3020  144.0300 C   0  0  0  0  0  0  0  0  0  0  0  0
  189.7500  177.3640  145.6130 C   0  0  0  0  0  2  0  0  0  0  0  0
  190.7360  177.0190  141.5130 O   0  0  0  0  0  1  0  0  0  0  0  0
  192.0330  176.8760  146.1520 O   0  0  0  0  0  1  0  0  0  0  0  0
  189.0430  177.4710  143.1960 C   0  0  1  0  0  3  0  0  0  0  0  0
  191.2140  177.4910  145.2050 C   0  0  1  0  0  3  0  0  0  0  0  0
  192.3720  174.6580  144.4120 O   0  0  0  0  0  1  0  0  0  0  0  0
  190.4390  174.8050  143.1940 O   0  0  0  0  0  0  0  0  0  0  0  0
  191.3840  175.3990  143.7790 C   0  0  0  0  0  0  0  0  0  0  0  0
  185.8920  179.2280  141.7520 C   0  0  0  0  0  2  0  0  0  0  0  0
  183.7680  178.8620  140.5950 C   0  0  0  0  0  3  0  0  0  0  0  0
  184.7050  178.3910  141.4140 C   0  0  0  0  0  3  0  0  0  0  0  0
  182.5740  178.0320  140.2410 C   0  0  0  0  0  2  0  0  0  0  0  0
  181.2840  178.8250  140.3910 C   0  0  0  0  0  2  0  0  0  0  0  0
  180.5240  178.3740  141.6260 C   0  0  0  0  0  2  0  0  0  0  0  0
  180.8230  179.2850  142.7640 C   0  0  0  0  0  0  0  0  0  0  0  0
  181.5760  178.9000  143.6960 O   0  0  0  0  0  1  0  0  0  0  0  0
  180.2440  180.5450  142.8160 O   0  0  0  0  0  0  0  0  0  0  0  0
  188.0670  177.4530  140.9310 O   0  0  0  0  0  0  0  0  0  0  0  0
  188.3350  178.3430  139.8770 C   0  0  0  0  0  3  0  0  0  0  0  0
  188.9270  177.5740  138.7150 C   0  0  0  0  0  2  0  0  0  0  0  0
  187.4710  177.9810  138.6860 C   0  0  0  0  0  2  0  0  0  0  0  0
  1 29  1  6  0  0  0
  1  7  1  0  0  0  0
  1 15  1  0  0  0  0
  2  3  1  0  0  0  0
  4 13  1  6  0  0  0
  4 15  1  0  0  0  0
  4  5  1  0  0  0  0
  5 19  1  1  0  0  0
  5 16  1  0  0  0  0
  6  2  2  0  0  0  0
  7 11  1  0  0  0  0
  8 10  1  0  0  0  0
  9  8  1  0  0  0  0
  9 12  1  1  0  0  0
 10  3  2  0  0  0  0
 11  6  1  0  0  0  0
 11  8  2  0  0  0  0
 15  9  1  0  0  0  0
 16 12  1  0  0  0  0
 16 14  1  0  0  0  0
 18 19  2  0  0  0  0
 19 17  1  0  0  0  0
 20  7  1  0  0  0  0
 21 22  2  0  0  0  0
 22 20  1  0  0  0  0
 23 24  1  0  0  0  0
 23 21  1  0  0  0  0
 24 25  1  0  0  0  0
 25 26  1  0  0  0  0
 26 28  2  0  0  0  0
 26 27  1  0  0  0  0
 30 29  1  0  0  0  0
 31 30  1  0  0  0  0
 32 31  1  0  0  0  0
 32 30  1  0  0  0  0
M  END
>  <MODEL>
1

>  <REMARK>
 VINA RESULT:      -8.2      0.000      0.000
  Name = 
  9 active torsions:
  status: ('A' for Active; 'I' for Inactive)
    1  A    between atoms: C_1  and  C_24
    2  A    between atoms: C_2  and  C_10
    3  A    between atoms: C_2  and  C_12
    4  A    between atoms: C_3  and  O_28
    5  A    between atoms: C_7  and  C_22
    6  A    between atoms: C_8  and  O_28
    7  A    between atoms: C_9  and  N_14
    8  A    between atoms: C_9  and  C_21
    9  A    between atoms: C_10  and  C_24
                            x       y       z     vdW  Elec       q    Type
                         _______ _______ _______ _____ _____    ______ ____

>  <TORSDO>
F 9

$$$$
=
 OpenBabel10272413303D

 32 35  0  0  1  0  0  0  0  0999 V2000
  188.1050  178.1870  142.0740 C   0  0  1  0  0  3  0  0  0  0  0  0
  184.6390  178.2210  145.6430 C   0  0  0  0  0  3  0  0  0  0  0  0
  185.6110  177.9970  146.6170 C   0  0  0  0  0  3  0  0  0  0  0  0
  190.4930  177.5990  142.7260 C   0  0  1  0  0  3  0  0  0  0  0  0
  191.4150  176.9390  143.7640 C   0  0  1  0  0  3  0  0  0  0  0  0
  185.0160  178.3910  144.3100 C   0  0  0  0  0  3  0  0  0  0  0  0
  186.7550  178.5260  142.5590 N   0  0  0  0  0  0  0  0  0  0  0  0
  187.3470  178.0820  144.9140 C   0  0  0  0  0  0  0  0  0  0  0  0
  188.8030  178.1110  144.5240 C   0  0  1  0  0  3  0  0  0  0  0  0
  186.9580  177.9390  146.2570 C   0  0  0  0  0  3  0  0  0  0  0  0
  186.3690  178.3290  143.9330 C   0  0  0  0  0  0  0  0  0  0  0  0
  189.6940  177.4020  145.5510 C   0  0  0  0  0  2  0  0  0  0  0  0
  190.7190  177.0460  141.4620 O   0  0  0  0  0  1  0  0  0  0  0  0
  191.9720  176.9200  146.1130 O   0  0  0  0  0  1  0  0  0  0  0  0
  189.0090  177.5000  143.1270 C   0  0  1  0  0  3  0  0  0  0  0  0
  191.1610  177.5310  145.1560 C   0  0  1  0  0  3  0  0  0  0  0  0
  192.3440  174.6980  144.3650 O   0  0  0  0  0  1  0  0  0  0  0  0
  190.4000  174.8370  143.1640 O   0  0  0  0  0  0  0  0  0  0  0  0
  191.3490  175.4350  143.7390 C   0  0  0  0  0  0  0  0  0  0  0  0
  185.8690  179.2460  141.6480 C   0  0  0  0  0  2  0  0  0  0  0  0
  183.5540  178.8360  140.9720 C   0  0  0  0  0  3  0  0  0  0  0  0
  184.7760  178.3500  141.1700 C   0  0  0  0  0  3  0  0  0  0  0  0
  182.4480  177.9510  140.4880 C   0  0  0  0  0  2  0  0  0  0  0  0
  182.8100  177.2830  139.1690 C   0  0  0  0  0  2  0  0  0  0  0  0
  182.5970  175.7830  139.2560 C   0  0  0  0  0  2  0  0  0  0  0  0
  181.1570  175.4650  139.0580 C   0  0  0  0  0  0  0  0  0  0  0  0
  180.6130  175.6780  137.9440 O   0  0  0  0  0  0  0  0  0  0  0  0
  180.4040  174.9670  140.1130 O   0  0  0  0  0  1  0  0  0  0  0  0
  188.0550  177.4730  140.8530 O   0  0  0  0  0  0  0  0  0  0  0  0
  188.3300  178.3610  139.7980 C   0  0  0  0  0  3  0  0  0  0  0  0
  188.9620  177.5940  138.6560 C   0  0  0  0  0  2  0  0  0  0  0  0
  187.5000  177.9740  138.5920 C   0  0  0  0  0  2  0  0  0  0  0  0
  1 29  1  6  0  0  0
  1  7  1  0  0  0  0
  1 15  1  0  0  0  0
  2  3  1  0  0  0  0
  4 13  1  6  0  0  0
  4 15  1  0  0  0  0
  4  5  1  0  0  0  0
  5 19  1  1  0  0  0
  5 16  1  0  0  0  0
  6  2  2  0  0  0  0
  7 11  1  0  0  0  0
  8 10  1  0  0  0  0
  9  8  1  0  0  0  0
  9 12  1  1  0  0  0
 10  3  2  0  0  0  0
 11  6  1  0  0  0  0
 11  8  2  0  0  0  0
 15  9  1  0  0  0  0
 16 12  1  0  0  0  0
 16 14  1  0  0  0  0
 18 19  2  0  0  0  0
 19 17  1  0  0  0  0
 20  7  1  0  0  0  0
 21 22  2  0  0  0  0
 22 20  1  0  0  0  0
 23 21  1  0  0  0  0
 24 25  1  0  0  0  0
 24 23  1  0  0  0  0
 26 25  1  0  0  0  0
 26 28  1  0  0  0  0
 27 26  2  0  0  0  0
 30 29  1  0  0  0  0
 31 30  1  0  0  0  0
 32 31  1  0  0  0  0
 32 30  1  0  0  0  0
M  END
>  <MODEL>
2

>  <REMARK>
 VINA RESULT:      -7.8      1.699      2.051
  Name = 
  9 active torsions:
  status: ('A' for Active; 'I' for Inactive)
    1  A    between atoms: C_1  and  C_24
    2  A    between atoms: C_2  and  C_10
    3  A    between atoms: C_2  and  C_12
    4  A    between atoms: C_3  and  O_28
    5  A    between atoms: C_7  and  C_22
    6  A    between atoms: C_8  and  O_28
    7  A    between atoms: C_9  and  N_14
    8  A    between atoms: C_9  and  C_21
    9  A    between atoms: C_10  and  C_24
                            x       y       z     vdW  Elec       q    Type
                         _______ _______ _______ _____ _____    ______ ____

>  <TORSDO>
F 9

$$$$
=
 OpenBabel10272413303D

 32 35  0  0  1  0  0  0  0  0999 V2000
  186.1220  178.0870  140.9390 C   0  0  1  0  0  3  0  0  0  0  0  0
  184.9670  178.7300  145.7350 C   0  0  0  0  0  3  0  0  0  0  0  0
  183.6210  178.8890  145.4110 C   0  0  0  0  0  3  0  0  0  0  0  0
  184.2840  178.4040  139.2090 C   0  0  1  0  0  3  0  0  0  0  0  0
  182.9040  179.0060  138.8980 C   0  0  1  0  0  3  0  0  0  0  0  0
  185.8930  178.4270  144.7360 C   0  0  0  0  0  3  0  0  0  0  0  0
  186.4420  177.9570  142.3720 N   0  0  0  0  0  0  0  0  0  0  0  0
  184.1290  178.4720  143.0680 C   0  0  0  0  0  0  0  0  0  0  0  0
  183.6780  178.2300  141.6500 C   0  0  1  0  0  3  0  0  0  0  0  0
  183.2020  178.7500  144.0860 C   0  0  0  0  0  3  0  0  0  0  0  0
  185.4850  178.2900  143.3980 C   0  0  0  0  0  0  0  0  0  0  0  0
  182.3240  178.8840  141.3510 C   0  0  0  0  0  2  0  0  0  0  0  0
  185.2210  178.8400  138.2690 O   0  0  0  0  0  1  0  0  0  0  0  0
  180.6220  179.1040  139.6800 O   0  0  0  0  0  1  0  0  0  0  0  0
  184.7390  178.7190  140.6470 C   0  0  1  0  0  3  0  0  0  0  0  0
  181.8730  178.5430  139.9360 C   0  0  1  0  0  3  0  0  0  0  0  0
  181.7570  181.1870  138.4810 O   0  0  0  0  0  0  0  0  0  0  0  0
  184.0230  181.1370  138.8030 O   0  0  0  0  0  1  0  0  0  0  0  0
  182.9380  180.5010  138.7240 C   0  0  0  0  0  0  0  0  0  0  0  0
  187.6960  177.2990  142.7300 C   0  0  0  0  0  2  0  0  0  0  0  0
  189.9830  178.0530  143.1550 C   0  0  0  0  0  3  0  0  0  0  0  0
  188.6780  178.2980  143.2400 C   0  0  0  0  0  3  0  0  0  0  0  0
  190.9820  179.0490  143.6560 C   0  0  0  0  0  2  0  0  0  0  0  0
  191.9350  178.4180  144.6620 C   0  0  0  0  0  2  0  0  0  0  0  0
  191.5260  176.9860  144.9560 C   0  0  0  0  0  2  0  0  0  0  0  0
  191.1180  176.8600  146.3820 C   0  0  0  0  0  0  0  0  0  0  0  0
  191.9910  176.7250  147.2770 O   0  0  0  0  0  1  0  0  0  0  0  0
  189.7710  176.8550  146.7210 O   0  0  0  0  0  0  0  0  0  0  0  0
  187.1690  178.7210  140.2290 O   0  0  0  0  0  0  0  0  0  0  0  0
  187.9250  177.7390  139.5660 C   0  0  0  0  0  3  0  0  0  0  0  0
  188.4900  178.3250  138.2890 C   0  0  0  0  0  2  0  0  0  0  0  0
  189.3730  178.1790  139.5070 C   0  0  0  0  0  2  0  0  0  0  0  0
  1 29  1  6  0  0  0
  1  7  1  0  0  0  0
  3  2  1  0  0  0  0
  4 13  1  6  0  0  0
  4 15  1  0  0  0  0
  5 19  1  1  0  0  0
  5  4  1  0  0  0  0
  5 16  1  0  0  0  0
  6  2  2  0  0  0  0
  7 20  1  0  0  0  0
  7 11  1  0  0  0  0
  8 11  2  0  0  0  0
  8 10  1  0  0  0  0
  9 12  1  6  0  0  0
  9  8  1  0  0  0  0
 10  3  2  0  0  0  0
 11  6  1  0  0  0  0
 14 16  1  0  0  0  0
 15  1  1  0  0  0  0
 15  9  1  0  0  0  0
 16 12  1  0  0  0  0
 17 19  2  0  0  0  0
 19 18  1  0  0  0  0
 20 22  1  0  0  0  0
 21 22  2  0  0  0  0
 21 23  1  0  0  0  0
 23 24  1  0  0  0  0
 24 25  1  0  0  0  0
 25 26  1  0  0  0  0
 26 28  2  0  0  0  0
 26 27  1  0  0  0  0
 30 29  1  0  0  0  0
 31 32  1  0  0  0  0
 31 30  1  0  0  0  0
 32 30  1  0  0  0  0
M  END
>  <MODEL>
3

>  <REMARK>
 VINA RESULT:      -7.6      2.041      7.695
  Name = 
  9 active torsions:
  status: ('A' for Active; 'I' for Inactive)
    1  A    between atoms: C_1  and  C_24
    2  A    between atoms: C_2  and  C_10
    3  A    between atoms: C_2  and  C_12
    4  A    between atoms: C_3  and  O_28
    5  A    between atoms: C_7  and  C_22
    6  A    between atoms: C_8  and  O_28
    7  A    between atoms: C_9  and  N_14
    8  A    between atoms: C_9  and  C_21
    9  A    between atoms: C_10  and  C_24
                            x       y       z     vdW  Elec       q    Type
                         _______ _______ _______ _____ _____    ______ ____

>  <TORSDO>
F 9

$$$$
=
 OpenBabel10272413303D

 32 35  0  0  1  0  0  0  0  0999 V2000
  188.6490  177.8270  139.1420 C   0  0  1  0  0  3  0  0  0  0  0  0
  190.1820  177.5090  143.8640 C   0  0  0  0  0  3  0  0  0  0  0  0
  191.4610  177.1450  143.4460 C   0  0  0  0  0  3  0  0  0  0  0  0
  190.2570  177.1080  137.3070 C   0  0  1  0  0  3  0  0  0  0  0  0
  191.5170  176.3040  136.9470 C   0  0  1  0  0  3  0  0  0  0  0  0
  189.2060  177.8310  142.9200 C   0  0  0  0  0  3  0  0  0  0  0  0
  188.4900  178.1370  140.5750 N   0  0  0  0  0  0  0  0  0  0  0  0
  190.7800  177.3950  141.1230 C   0  0  0  0  0  0  0  0  0  0  0  0
  191.1150  177.4370  139.6540 C   0  0  1  0  0  3  0  0  0  0  0  0
  191.7620  177.1000  142.0830 C   0  0  0  0  0  3  0  0  0  0  0  0
  189.4950  177.7830  141.5450 C   0  0  0  0  0  0  0  0  0  0  0  0
  192.3450  176.5870  139.3140 C   0  0  0  0  0  2  0  0  0  0  0  0
  189.1870  176.7080  136.5030 O   0  0  0  0  0  1  0  0  0  0  0  0
  193.8360  175.9860  137.5390 O   0  0  0  0  0  1  0  0  0  0  0  0
  189.9110  176.9960  138.8040 C   0  0  1  0  0  3  0  0  0  0  0  0
  192.6930  176.7280  137.8370 C   0  0  1  0  0  3  0  0  0  0  0  0
  191.5480  174.0910  135.7870 O   0  0  0  0  0  0  0  0  0  0  0  0
  190.8640  174.2220  137.9680 O   0  0  0  0  0  1  0  0  0  0  0  0
  191.2860  174.8160  136.9400 C   0  0  0  0  0  0  0  0  0  0  0  0
  187.3650  178.9840  140.9640 C   0  0  0  0  0  2  0  0  0  0  0  0
  185.5160  178.9180  142.5630 C   0  0  0  0  0  3  0  0  0  0  0  0
  186.4810  178.2630  141.9250 C   0  0  0  0  0  3  0  0  0  0  0  0
  184.6170  178.2080  143.5270 C   0  0  0  0  0  2  0  0  0  0  0  0
  184.8360  178.6950  144.9520 C   0  0  0  0  0  2  0  0  0  0  0  0
  186.0250  177.9880  145.5780 C   0  0  0  0  0  2  0  0  0  0  0  0
  186.2970  178.5560  146.9260 C   0  0  0  0  0  0  0  0  0  0  0  0
  185.6760  179.5780  147.3160 O   0  0  0  0  0  0  0  0  0  0  0  0
  187.2620  177.9790  147.7410 O   0  0  0  0  0  1  0  0  0  0  0  0
  187.4690  177.2690  138.5970 O   0  0  0  0  0  0  0  0  0  0  0  0
  186.7940  178.2630  137.8660 C   0  0  0  0  0  3  0  0  0  0  0  0
  185.8890  177.6020  136.8480 C   0  0  0  0  0  2  0  0  0  0  0  0
  185.3060  178.1530  138.1300 C   0  0  0  0  0  2  0  0  0  0  0  0
  1 29  1  1  0  0  0
  1  7  1  0  0  0  0
  3  2  1  0  0  0  0
  4 13  1  6  0  0  0
  4 15  1  0  0  0  0
  5 19  1  1  0  0  0
  5  4  1  0  0  0  0
  5 16  1  0  0  0  0
  6  2  2  0  0  0  0
  7 20  1  0  0  0  0
  7 11  1  0  0  0  0
  8 11  2  0  0  0  0
  8 10  1  0  0  0  0
  9 12  1  1  0  0  0
  9  8  1  0  0  0  0
 10  3  2  0  0  0  0
 11  6  1  0  0  0  0
 14 16  1  0  0  0  0
 15  1  1  0  0  0  0
 15  9  1  0  0  0  0
 16 12  1  0  0  0  0
 17 19  2  0  0  0  0
 19 18  1  0  0  0  0
 20 22  1  0  0  0  0
 21 23  1  0  0  0  0
 22 21  2  0  0  0  0
 23 24  1  0  0  0  0
 24 25  1  0  0  0  0
 25 26  1  0  0  0  0
 26 27  2  0  0  0  0
 26 28  1  0  0  0  0
 30 32  1  0  0  0  0
 30 29  1  0  0  0  0
 31 30  1  0  0  0  0
 31 32  1  0  0  0  0
M  END
>  <MODEL>
4

>  <REMARK>
 VINA RESULT:      -7.6      3.152      5.544
  Name = 
  9 active torsions:
  status: ('A' for Active; 'I' for Inactive)
    1  A    between atoms: C_1  and  C_24
    2  A    between atoms: C_2  and  C_10
    3  A    between atoms: C_2  and  C_12
    4  A    between atoms: C_3  and  O_28
    5  A    between atoms: C_7  and  C_22
    6  A    between atoms: C_8  and  O_28
    7  A    between atoms: C_9  and  N_14
    8  A    between atoms: C_9  and  C_21
    9  A    between atoms: C_10  and  C_24
                            x       y       z     vdW  Elec       q    Type
                         _______ _______ _______ _____ _____    ______ ____

>  <TORSDO>
F 9

$$$$
=
 OpenBabel10272413303D

 32 35  0  0  1  0  0  0  0  0999 V2000
  185.6630  178.1090  139.5320 C   0  0  1  0  0  3  0  0  0  0  0  0
  184.5290  179.8200  144.0640 C   0  0  0  0  0  3  0  0  0  0  0  0
  183.2040  179.4170  143.9060 C   0  0  0  0  0  3  0  0  0  0  0  0
  183.7720  177.2410  138.0690 C   0  0  1  0  0  3  0  0  0  0  0  0
  182.2580  177.2250  137.8030 C   0  0  1  0  0  3  0  0  0  0  0  0
  185.4660  179.5380  143.0680 C   0  0  0  0  0  3  0  0  0  0  0  0
  186.0600  178.5520  140.8810 N   0  0  0  0  0  0  0  0  0  0  0  0
  183.7430  178.4710  141.7300 C   0  0  0  0  0  0  0  0  0  0  0  0
  183.3570  177.6600  140.5190 C   0  0  1  0  0  3  0  0  0  0  0  0
  182.8150  178.7370  142.7510 C   0  0  0  0  0  3  0  0  0  0  0  0
  185.0850  178.8590  141.8970 C   0  0  0  0  0  0  0  0  0  0  0  0
  181.8490  177.7030  140.2470 C   0  0  0  0  0  2  0  0  0  0  0  0
  184.4570  177.6390  136.9170 O   0  0  0  0  0  1  0  0  0  0  0  0
  180.1210  176.8120  138.8480 O   0  0  0  0  0  1  0  0  0  0  0  0
  184.1360  178.1250  139.2760 C   0  0  1  0  0  3  0  0  0  0  0  0
  181.4990  176.8030  139.0670 C   0  0  1  0  0  3  0  0  0  0  0  0
  181.7940  179.6760  137.9650 O   0  0  0  0  0  1  0  0  0  0  0  0
  181.2930  178.5490  136.0360 O   0  0  0  0  0  0  0  0  0  0  0  0
  181.7500  178.5130  137.2100 C   0  0  0  0  0  0  0  0  0  0  0  0
  187.4780  178.4910  141.2250 C   0  0  0  0  0  2  0  0  0  0  0  0
  188.6510  177.8260  143.2650 C   0  0  0  0  0  3  0  0  0  0  0  0
  187.6920  177.5710  142.3790 C   0  0  0  0  0  3  0  0  0  0  0  0
  188.8760  176.9160  144.4330 C   0  0  0  0  0  2  0  0  0  0  0  0
  188.5530  177.6120  145.7470 C   0  0  0  0  0  2  0  0  0  0  0  0
  187.0570  177.5870  146.0090 C   0  0  0  0  0  2  0  0  0  0  0  0
  186.7390  178.4130  147.2050 C   0  0  0  0  0  0  0  0  0  0  0  0
  187.4780  178.3590  148.2210 O   0  0  0  0  0  1  0  0  0  0  0  0
  185.6080  179.2170  147.2130 O   0  0  0  0  0  0  0  0  0  0  0  0
  186.3890  178.7930  138.5270 O   0  0  0  0  0  0  0  0  0  0  0  0
  187.4090  177.9500  138.0540 C   0  0  0  0  0  3  0  0  0  0  0  0
  187.7380  178.3230  136.6240 C   0  0  0  0  0  2  0  0  0  0  0  0
  188.6400  178.7780  137.7480 C   0  0  0  0  0  2  0  0  0  0  0  0
  1 29  1  6  0  0  0
  1  7  1  0  0  0  0
  3  2  1  0  0  0  0
  4 13  1  6  0  0  0
  4 15  1  0  0  0  0
  5 19  1  1  0  0  0
  5  4  1  0  0  0  0
  5 16  1  0  0  0  0
  6  2  2  0  0  0  0
  7 20  1  0  0  0  0
  7 11  1  0  0  0  0
  8 11  2  0  0  0  0
  8 10  1  0  0  0  0
  9 12  1  6  0  0  0
  9  8  1  0  0  0  0
 10  3  2  0  0  0  0
 11  6  1  0  0  0  0
 14 16  1  0  0  0  0
 15  1  1  0  0  0  0
 15  9  1  0  0  0  0
 16 12  1  0  0  0  0
 18 19  2  0  0  0  0
 19 17  1  0  0  0  0
 20 22  1  0  0  0  0
 21 23  1  0  0  0  0
 22 21  2  0  0  0  0
 23 24  1  0  0  0  0
 24 25  1  0  0  0  0
 25 26  1  0  0  0  0
 26 28  2  0  0  0  0
 26 27  1  0  0  0  0
 30 29  1  0  0  0  0
 31 32  1  0  0  0  0
 31 30  1  0  0  0  0
 32 30  1  0  0  0  0
M  END
>  <MODEL>
5

>  <REMARK>
 VINA RESULT:      -7.4      3.010      7.432
  Name = 
  9 active torsions:
  status: ('A' for Active; 'I' for Inactive)
    1  A    between atoms: C_1  and  C_24
    2  A    between atoms: C_2  and  C_10
    3  A    between atoms: C_2  and  C_12
    4  A    between atoms: C_3  and  O_28
    5  A    between atoms: C_7  and  C_22
    6  A    between atoms: C_8  and  O_28
    7  A    between atoms: C_9  and  N_14
    8  A    between atoms: C_9  and  C_21
    9  A    between atoms: C_10  and  C_24
                            x       y       z     vdW  Elec       q    Type
                         _______ _______ _______ _____ _____    ______ ____

>  <TORSDO>
F 9

$$$$
=
 OpenBabel10272413303D

 32 35  0  0  1  0  0  0  0  0999 V2000
  186.1170  178.6590  139.7340 C   0  0  1  0  0  3  0  0  0  0  0  0
  189.1470  177.4540  143.4910 C   0  0  0  0  0  3  0  0  0  0  0  0
  190.1610  177.1230  142.5930 C   0  0  0  0  0  3  0  0  0  0  0  0
  186.9140  178.2150  137.3590 C   0  0  1  0  0  3  0  0  0  0  0  0
  187.8880  177.4420  136.4550 C   0  0  1  0  0  3  0  0  0  0  0  0
  187.9410  177.9750  143.0180 C   0  0  0  0  0  3  0  0  0  0  0  0
  186.4920  178.7160  141.1580 N   0  0  0  0  0  0  0  0  0  0  0  0
  188.7470  177.8050  140.7340 C   0  0  0  0  0  0  0  0  0  0  0  0
  188.5570  178.0930  139.2660 C   0  0  1  0  0  3  0  0  0  0  0  0
  189.9670  177.3080  141.2230 C   0  0  0  0  0  3  0  0  0  0  0  0
  187.7310  178.1590  141.6400 C   0  0  0  0  0  0  0  0  0  0  0  0
  189.5060  177.2710  138.3850 C   0  0  0  0  0  2  0  0  0  0  0  0
  185.5980  178.0040  136.9390 O   0  0  0  0  0  1  0  0  0  0  0  0
  190.2260  176.9380  136.1250 O   0  0  0  0  0  1  0  0  0  0  0  0
  187.0970  177.8540  138.8450 C   0  0  1  0  0  3  0  0  0  0  0  0
  189.3340  177.6580  136.9200 C   0  0  1  0  0  3  0  0  0  0  0  0
  187.2500  175.4800  135.0440 O   0  0  0  0  0  0  0  0  0  0  0  0
  187.4740  175.2270  137.3080 O   0  0  0  0  0  1  0  0  0  0  0  0
  187.5250  175.9880  136.3060 C   0  0  0  0  0  0  0  0  0  0  0  0
  185.6600  179.5220  142.0470 C   0  0  0  0  0  2  0  0  0  0  0  0
  184.9640  179.3080  144.3820 C   0  0  0  0  0  3  0  0  0  0  0  0
  185.2200  178.7130  143.2200 C   0  0  0  0  0  3  0  0  0  0  0  0
  184.5160  178.5110  145.5670 C   0  0  0  0  0  2  0  0  0  0  0  0
  185.5730  178.5040  146.6620 C   0  0  0  0  0  2  0  0  0  0  0  0
  186.6780  177.5180  146.3270 C   0  0  0  0  0  2  0  0  0  0  0  0
  187.7950  177.6620  147.2990 C   0  0  0  0  0  0  0  0  0  0  0  0
  187.6830  178.4490  148.2740 O   0  0  0  0  0  1  0  0  0  0  0  0
  188.9750  176.9550  147.1120 O   0  0  0  0  0  0  0  0  0  0  0  0
  184.7720  178.2500  139.5670 O   0  0  0  0  0  0  0  0  0  0  0  0
  183.9730  179.3900  139.3730 C   0  0  0  0  0  3  0  0  0  0  0  0
  182.7910  179.0250  138.5010 C   0  0  0  0  0  2  0  0  0  0  0  0
  182.6120  179.1580  139.9960 C   0  0  0  0  0  2  0  0  0  0  0  0
  1 29  1  1  0  0  0
  1  7  1  0  0  0  0
  3  2  2  0  0  0  0
  4 13  1  6  0  0  0
  4 15  1  0  0  0  0
  5 19  1  1  0  0  0
  5 16  1  0  0  0  0
  5  4  1  0  0  0  0
  6  2  1  0  0  0  0
  7 11  1  0  0  0  0
  7 20  1  0  0  0  0
  8 10  2  0  0  0  0
  8 11  1  0  0  0  0
  9 12  1  6  0  0  0
  9  8  1  0  0  0  0
 10  3  1  0  0  0  0
 11  6  2  0  0  0  0
 14 16  1  0  0  0  0
 15  9  1  0  0  0  0
 15  1  1  0  0  0  0
 16 12  1  0  0  0  0
 17 19  2  0  0  0  0
 19 18  1  0  0  0  0
 20 22  1  0  0  0  0
 21 23  1  0  0  0  0
 22 21  2  0  0  0  0
 23 24  1  0  0  0  0
 25 24  1  0  0  0  0
 25 26  1  0  0  0  0
 26 27  1  0  0  0  0
 28 26  2  0  0  0  0
 30 29  1  0  0  0  0
 30 32  1  0  0  0  0
 31 30  1  0  0  0  0
 31 32  1  0  0  0  0
M  END
>  <MODEL>
6

>  <REMARK>
 VINA RESULT:      -7.4      2.642      6.435
  Name = 
  9 active torsions:
  status: ('A' for Active; 'I' for Inactive)
    1  A    between atoms: C_1  and  C_24
    2  A    between atoms: C_2  and  C_10
    3  A    between atoms: C_2  and  C_12
    4  A    between atoms: C_3  and  O_28
    5  A    between atoms: C_7  and  C_22
    6  A    between atoms: C_8  and  O_28
    7  A    between atoms: C_9  and  N_14
    8  A    between atoms: C_9  and  C_21
    9  A    between atoms: C_10  and  C_24
                            x       y       z     vdW  Elec       q    Type
                         _______ _______ _______ _____ _____    ______ ____

>  <TORSDO>
F 9

$$$$
=
 OpenBabel10272413303D

 32 35  0  0  1  0  0  0  0  0999 V2000
  185.4470  178.6990  141.6550 C   0  0  1  0  0  3  0  0  0  0  0  0
  188.2590  177.4310  137.7520 C   0  0  0  0  0  3  0  0  0  0  0  0
  187.1950  177.6700  136.8830 C   0  0  0  0  0  3  0  0  0  0  0  0
  182.9820  179.1820  141.2520 C   0  0  1  0  0  3  0  0  0  0  0  0
  181.7750  179.0060  140.3160 C   0  0  1  0  0  3  0  0  0  0  0  0
  188.1140  177.6900  139.1160 C   0  0  0  0  0  3  0  0  0  0  0  0
  186.7630  178.4660  141.0350 N   0  0  0  0  0  0  0  0  0  0  0  0
  185.8210  178.4010  138.7530 C   0  0  0  0  0  0  0  0  0  0  0  0
  184.5540  179.0170  139.2890 C   0  0  1  0  0  3  0  0  0  0  0  0
  185.9870  178.1630  137.3790 C   0  0  0  0  0  3  0  0  0  0  0  0
  186.9010  178.1800  139.6280 C   0  0  0  0  0  0  0  0  0  0  0  0
  183.3560  178.7830  138.3610 C   0  0  0  0  0  2  0  0  0  0  0  0
  182.6650  178.7240  142.5340 O   0  0  0  0  0  1  0  0  0  0  0  0
  181.0430  179.3130  138.0350 O   0  0  0  0  0  1  0  0  0  0  0  0
  184.2440  178.4920  140.7020 C   0  0  1  0  0  3  0  0  0  0  0  0
  182.1210  179.4930  138.9020 C   0  0  1  0  0  3  0  0  0  0  0  0
  179.9930  177.3790  140.9630 O   0  0  0  0  0  1  0  0  0  0  0  0
  181.8230  176.6540  139.7950 O   0  0  0  0  0  0  0  0  0  0  0  0
  181.2100  177.6110  140.3390 C   0  0  0  0  0  0  0  0  0  0  0  0
  187.9500  178.7170  141.8480 C   0  0  0  0  0  2  0  0  0  0  0  0
  189.8290  177.2720  142.4530 C   0  0  0  0  0  3  0  0  0  0  0  0
  188.5120  177.4320  142.3560 C   0  0  0  0  0  3  0  0  0  0  0  0
  190.4080  175.9910  142.9660 C   0  0  0  0  0  2  0  0  0  0  0  0
  191.6010  176.2470  143.8760 C   0  0  0  0  0  2  0  0  0  0  0  0
  191.2910  177.3660  144.8550 C   0  0  0  0  0  2  0  0  0  0  0  0
  191.2180  176.8210  146.2380 C   0  0  0  0  0  0  0  0  0  0  0  0
  190.1450  176.9030  146.8900 O   0  0  0  0  0  1  0  0  0  0  0  0
  192.3430  176.2560  146.8230 O   0  0  0  0  0  0  0  0  0  0  0  0
  185.3090  177.9820  142.8670 O   0  0  0  0  0  0  0  0  0  0  0  0
  185.5930  178.8460  143.9390 C   0  0  0  0  0  3  0  0  0  0  0  0
  184.6860  178.5070  145.1030 C   0  0  0  0  0  2  0  0  0  0  0  0
  186.1230  178.0370  145.1050 C   0  0  0  0  0  2  0  0  0  0  0  0
  1 29  1  1  0  0  0
  2  6  1  0  0  0  0
  3 10  1  0  0  0  0
  3  2  2  0  0  0  0
  4 13  1  1  0  0  0
  5 19  1  6  0  0  0
  5  4  1  0  0  0  0
  6 11  2  0  0  0  0
  7  1  1  0  0  0  0
  7 20  1  0  0  0  0
  8  9  1  0  0  0  0
  8 11  1  0  0  0  0
  9 12  1  6  0  0  0
  9 15  1  0  0  0  0
 10  8  2  0  0  0  0
 11  7  1  0  0  0  0
 12 16  1  0  0  0  0
 14 16  1  0  0  0  0
 15  4  1  0  0  0  0
 15  1  1  0  0  0  0
 16  5  1  0  0  0  0
 18 19  2  0  0  0  0
 19 17  1  0  0  0  0
 20 22  1  0  0  0  0
 21 23  1  0  0  0  0
 22 21  2  0  0  0  0
 23 24  1  0  0  0  0
 24 25  1  0  0  0  0
 25 26  1  0  0  0  0
 26 28  2  0  0  0  0
 26 27  1  0  0  0  0
 29 30  1  0  0  0  0
 30 31  1  0  0  0  0
 30 32  1  0  0  0  0
 31 32  1  0  0  0  0
M  END
>  <MODEL>
7

>  <REMARK>
 VINA RESULT:      -7.1      1.931      8.670
  Name = 
  9 active torsions:
  status: ('A' for Active; 'I' for Inactive)
    1  A    between atoms: C_1  and  C_24
    2  A    between atoms: C_2  and  C_10
    3  A    between atoms: C_2  and  C_12
    4  A    between atoms: C_3  and  O_28
    5  A    between atoms: C_7  and  C_22
    6  A    between atoms: C_8  and  O_28
    7  A    between atoms: C_9  and  N_14
    8  A    between atoms: C_9  and  C_21
    9  A    between atoms: C_10  and  C_24
                            x       y       z     vdW  Elec       q    Type
                         _______ _______ _______ _____ _____    ______ ____

>  <TORSDO>
F 9

$$$$
=
 OpenBabel10272413303D

 32 35  0  0  1  0  0  0  0  0999 V2000
  183.9380  178.5860  140.6440 C   0  0  1  0  0  3  0  0  0  0  0  0
  188.7870  178.0870  141.6410 C   0  0  0  0  0  3  0  0  0  0  0  0
  189.0520  177.7940  140.3040 C   0  0  0  0  0  3  0  0  0  0  0  0
  183.1310  178.0220  138.2990 C   0  0  1  0  0  3  0  0  0  0  0  0
  183.4260  177.2860  136.9820 C   0  0  1  0  0  3  0  0  0  0  0  0
  187.4900  178.4200  142.0370 C   0  0  0  0  0  3  0  0  0  0  0  0
  185.1080  178.8160  141.5110 N   0  0  0  0  0  0  0  0  0  0  0  0
  186.7060  178.1360  139.7570 C   0  0  0  0  0  0  0  0  0  0  0  0
  185.6010  178.2650  138.7390 C   0  0  1  0  0  3  0  0  0  0  0  0
  188.0200  177.8290  139.3650 C   0  0  0  0  0  3  0  0  0  0  0  0
  186.4420  178.4520  141.1020 C   0  0  0  0  0  0  0  0  0  0  0  0
  185.8980  177.4800  137.4560 C   0  0  0  0  0  2  0  0  0  0  0  0
  181.8900  177.6230  138.8040 O   0  0  0  0  0  1  0  0  0  0  0  0
  185.0870  177.0270  135.2480 O   0  0  0  0  0  1  0  0  0  0  0  0
  184.2530  177.8210  139.3350 C   0  0  1  0  0  3  0  0  0  0  0  0
  184.7940  177.7090  136.4300 C   0  0  1  0  0  3  0  0  0  0  0  0
  182.2080  175.1700  136.4490 O   0  0  0  0  0  0  0  0  0  0  0  0
  184.0880  175.1020  137.7550 O   0  0  0  0  0  1  0  0  0  0  0  0
  183.2680  175.7930  137.0920 C   0  0  0  0  0  0  0  0  0  0  0  0
  184.9070  179.5990  142.7280 C   0  0  0  0  0  2  0  0  0  0  0  0
  185.3550  179.1630  145.0930 C   0  0  0  0  0  3  0  0  0  0  0  0
  184.9100  178.7080  143.9240 C   0  0  0  0  0  3  0  0  0  0  0  0
  185.3600  178.2830  146.3040 C   0  0  0  0  0  2  0  0  0  0  0  0
  186.7690  178.1010  146.8500 C   0  0  0  0  0  2  0  0  0  0  0  0
  187.6970  177.5830  145.7660 C   0  0  0  0  0  2  0  0  0  0  0  0
  189.0410  177.3040  146.3410 C   0  0  0  0  0  0  0  0  0  0  0  0
  189.1410  176.7450  147.4640 O   0  0  0  0  0  1  0  0  0  0  0  0
  190.1840  177.6940  145.6570 O   0  0  0  0  0  0  0  0  0  0  0  0
  182.8640  178.0110  141.3640 O   0  0  0  0  0  0  0  0  0  0  0  0
  181.9180  179.0130  141.6410 C   0  0  0  0  0  3  0  0  0  0  0  0
  180.5510  178.3790  141.7900 C   0  0  0  0  0  2  0  0  0  0  0  0
  181.3340  178.7820  143.0190 C   0  0  0  0  0  2  0  0  0  0  0  0
  1 29  1  1  0  0  0
  1  7  1  0  0  0  0
  2  6  1  0  0  0  0
  3  2  2  0  0  0  0
  4 13  1  1  0  0  0
  4 15  1  0  0  0  0
  5 19  1  1  0  0  0
  5  4  1  0  0  0  0
  7 20  1  0  0  0  0
  8 11  1  0  0  0  0
  9 12  1  6  0  0  0
  9 15  1  0  0  0  0
  9  8  1  0  0  0  0
 10  8  2  0  0  0  0
 10  3  1  0  0  0  0
 11  7  1  0  0  0  0
 11  6  2  0  0  0  0
 14 16  1  0  0  0  0
 15  1  1  0  0  0  0
 16  5  1  0  0  0  0
 16 12  1  0  0  0  0
 17 19  2  0  0  0  0
 19 18  1  0  0  0  0
 20 22  1  0  0  0  0
 21 23  1  0  0  0  0
 22 21  2  0  0  0  0
 23 24  1  0  0  0  0
 25 26  1  0  0  0  0
 25 24  1  0  0  0  0
 26 27  1  0  0  0  0
 28 26  2  0  0  0  0
 29 30  1  0  0  0  0
 30 31  1  0  0  0  0
 30 32  1  0  0  0  0
 31 32  1  0  0  0  0
M  END
>  <MODEL>
8

>  <REMARK>
 VINA RESULT:      -6.6      2.817      7.867
  Name = 
  9 active torsions:
  status: ('A' for Active; 'I' for Inactive)
    1  A    between atoms: C_1  and  C_24
    2  A    between atoms: C_2  and  C_10
    3  A    between atoms: C_2  and  C_12
    4  A    between atoms: C_3  and  O_28
    5  A    between atoms: C_7  and  C_22
    6  A    between atoms: C_8  and  O_28
    7  A    between atoms: C_9  and  N_14
    8  A    between atoms: C_9  and  C_21
    9  A    between atoms: C_10  and  C_24
                            x       y       z     vdW  Elec       q    Type
                         _______ _______ _______ _____ _____    ______ ____

>  <TORSDO>
F 9

$$$$
=
 OpenBabel10272413303D

 32 35  0  0  1  0  0  0  0  0999 V2000
  188.3430  177.3800  137.2690 C   0  0  1  0  0  3  0  0  0  0  0  0
  188.2880  178.1630  142.1820 C   0  0  0  0  0  3  0  0  0  0  0  0
  189.6440  177.8490  142.2680 C   0  0  0  0  0  3  0  0  0  0  0  0
  190.4740  176.4670  136.2230 C   0  0  1  0  0  3  0  0  0  0  0  0
  191.8060  175.7340  136.4540 C   0  0  1  0  0  3  0  0  0  0  0  0
  187.6570  178.1940  140.9370 C   0  0  0  0  0  3  0  0  0  0  0  0
  187.7230  177.9520  138.4780 N   0  0  0  0  0  0  0  0  0  0  0  0
  189.7360  177.5620  139.8530 C   0  0  0  0  0  0  0  0  0  0  0  0
  190.5240  177.3420  138.5860 C   0  0  1  0  0  3  0  0  0  0  0  0
  190.3670  177.5620  141.1090 C   0  0  0  0  0  3  0  0  0  0  0  0
  188.3730  177.9000  139.7640 C   0  0  0  0  0  0  0  0  0  0  0  0
  191.8220  176.5650  138.8380 C   0  0  0  0  0  2  0  0  0  0  0  0
  189.7310  175.8120  135.2380 O   0  0  0  0  0  1  0  0  0  0  0  0
  193.8210  175.7680  137.7840 O   0  0  0  0  0  1  0  0  0  0  0  0
  189.6690  176.6240  137.5270 C   0  0  1  0  0  3  0  0  0  0  0  0
  192.6210  176.4400  137.5460 C   0  0  1  0  0  3  0  0  0  0  0  0
  192.4110  173.3510  136.0030 O   0  0  0  0  0  0  0  0  0  0  0  0
  190.7930  173.8410  137.5480 O   0  0  0  0  0  1  0  0  0  0  0  0
  191.6320  174.2600  136.7060 C   0  0  0  0  0  0  0  0  0  0  0  0
  186.5100  178.7470  138.3060 C   0  0  0  0  0  2  0  0  0  0  0  0
  184.6120  179.1360  139.7990 C   0  0  0  0  0  3  0  0  0  0  0  0
  185.4400  178.2660  139.2280 C   0  0  0  0  0  3  0  0  0  0  0  0
  183.5300  178.6690  140.7230 C   0  0  0  0  0  2  0  0  0  0  0  0
  184.1090  178.0730  141.9980 C   0  0  0  0  0  2  0  0  0  0  0  0
  184.3480  179.1600  143.0310 C   0  0  0  0  0  2  0  0  0  0  0  0
  183.4100  178.9870  144.1730 C   0  0  0  0  0  0  0  0  0  0  0  0
  182.1870  178.7840  143.9570 O   0  0  0  0  0  0  0  0  0  0  0  0
  183.8760  179.0860  145.4770 O   0  0  0  0  0  1  0  0  0  0  0  0
  187.4160  176.6110  136.5250 O   0  0  0  0  0  0  0  0  0  0  0  0
  187.0960  175.4540  137.2570 C   0  0  0  0  0  3  0  0  0  0  0  0
  185.6480  175.0920  137.0050 C   0  0  0  0  0  2  0  0  0  0  0  0
  186.7500  174.3360  136.2970 C   0  0  0  0  0  2  0  0  0  0  0  0
  1 29  1  1  0  0  0
  1 15  1  0  0  0  0
  1  7  1  0  0  0  0
  2  3  1  0  0  0  0
  4 13  1  6  0  0  0
  4  5  1  0  0  0  0
  4 15  1  0  0  0  0
  5 19  1  1  0  0  0
  5 16  1  0  0  0  0
  6  2  2  0  0  0  0
  7 11  1  0  0  0  0
  8 10  1  0  0  0  0
  9 12  1  1  0  0  0
  9  8  1  0  0  0  0
 10  3  2  0  0  0  0
 11  8  2  0  0  0  0
 11  6  1  0  0  0  0
 15  9  1  0  0  0  0
 16 14  1  0  0  0  0
 16 12  1  0  0  0  0
 17 19  2  0  0  0  0
 19 18  1  0  0  0  0
 20  7  1  0  0  0  0
 20 22  1  0  0  0  0
 21 23  1  0  0  0  0
 22 21  2  0  0  0  0
 23 24  1  0  0  0  0
 24 25  1  0  0  0  0
 25 26  1  0  0  0  0
 26 28  1  0  0  0  0
 27 26  2  0  0  0  0
 29 30  1  0  0  0  0
 31 30  1  0  0  0  0
 32 31  1  0  0  0  0
 32 30  1  0  0  0  0
M  END
>  <MODEL>
9

>  <REMARK>
 VINA RESULT:      -6.6      3.363      5.396
  Name = 
  9 active torsions:
  status: ('A' for Active; 'I' for Inactive)
    1  A    between atoms: C_1  and  C_24
    2  A    between atoms: C_2  and  C_10
    3  A    between atoms: C_2  and  C_12
    4  A    between atoms: C_3  and  O_28
    5  A    between atoms: C_7  and  C_22
    6  A    between atoms: C_8  and  O_28
    7  A    between atoms: C_9  and  N_14
    8  A    between atoms: C_9  and  C_21
    9  A    between atoms: C_10  and  C_24
                            x       y       z     vdW  Elec       q    Type
                         _______ _______ _______ _____ _____    ______ ____

>  <TORSDO>
F 9

$$$$
