=
 OpenBabel10272413473D

 30 32  0  0  1  0  0  0  0  0999 V2000
  190.9210  176.6760  144.0650 C   0  0  0  0  0  0  0  0  0  0  0  0
  191.5600  176.3460  145.3010 N   0  0  0  0  0  0  0  0  0  0  0  0
  191.5440  176.5070  142.9830 O   0  0  0  0  0  0  0  0  0  0  0  0
  189.1280  177.8280  145.3920 C   0  0  2  0  0  3  0  0  0  0  0  0
  190.8760  176.5090  146.5480 C   0  0  0  0  0  3  0  0  0  0  0  0
  189.4780  177.1220  144.0690 C   0  0  1  0  0  3  0  0  0  0  0  0
  189.7160  177.1590  146.6070 C   0  0  0  0  0  2  0  0  0  0  0  0
  185.7060  178.4810  146.9410 C   0  0  0  0  0  3  0  0  0  0  0  0
  184.8790  178.3930  145.8190 C   0  0  0  0  0  3  0  0  0  0  0  0
  187.0850  178.2950  146.8170 C   0  0  0  0  0  0  0  0  0  0  0  0
  186.8020  177.9290  144.4340 C   0  0  0  0  0  3  0  0  0  0  0  0
  187.9340  178.4020  148.0380 C   0  0  0  0  0  1  0  0  0  0  0  0
  185.4230  178.1170  144.5570 C   0  0  0  0  0  0  0  0  0  0  0  0
  187.6440  178.0140  145.5540 C   0  0  0  0  0  0  0  0  0  0  0  0
  185.5190  179.7990  142.1400 O   0  0  0  0  0  0  0  0  0  0  0  0
  184.6770  178.8670  142.2230 C   0  0  0  0  0  0  0  0  0  0  0  0
  184.6060  178.0260  143.3820 N   0  0  0  0  0  2  0  0  0  0  0  0
  183.7390  178.6300  141.0960 C   0  0  0  0  0  1  0  0  0  0  0  0
  188.5830  177.5860  141.8250 C   0  0  0  0  0  3  0  0  0  0  0  0
  189.1850  178.0400  142.9200 C   0  0  0  0  0  3  0  0  0  0  0  0
  188.2990  178.5120  140.6930 C   0  0  0  0  0  2  0  0  0  0  0  0
  189.2960  178.2980  139.5600 C   0  0  2  0  0  3  0  0  0  0  0  0
  189.0230  179.1910  138.5240 O   0  0  0  0  0  1  0  0  0  0  0  0
  190.0690  175.0560  137.5120 C   0  0  0  0  0  2  0  0  0  0  0  0
  189.2900  176.8640  139.0190 C   0  0  1  0  0  3  0  0  0  0  0  0
  188.7540  175.6480  137.0410 C   0  0  2  0  0  0  0  0  0  0  0  0
  188.3200  176.7170  137.9390 N   0  0  0  0  0  2  0  0  0  0  0  0
  190.9270  176.3230  138.4580 S   0  0  0  0  0  0  0  0  0  0  0  0
  187.7830  174.6480  137.0090 O   0  0  0  0  0  1  0  0  0  0  0  0
  188.9300  176.2120  135.6460 C   0  0  0  0  0  1  0  0  0  0  0  0
  1  6  1  0  0  0  0
  1  2  1  0  0  0  0
  2  5  2  0  0  0  0
  3  1  2  0  0  0  0
  4 14  1  1  0  0  0
  4  7  1  0  0  0  0
  5  7  1  0  0  0  0
  6 20  1  6  0  0  0
  6  4  1  0  0  0  0
  9  8  2  0  0  0  0
 10  8  1  0  0  0  0
 10 12  1  0  0  0  0
 11 13  2  0  0  0  0
 11 14  1  0  0  0  0
 13  9  1  0  0  0  0
 14 10  2  0  0  0  0
 15 16  2  0  0  0  0
 16 17  1  0  0  0  0
 17 13  1  0  0  0  0
 18 16  1  0  0  0  0
 19 20  2  0  0  0  0
 21 19  1  0  0  0  0
 22 23  1  6  0  0  0
 22 21  1  0  0  0  0
 24 28  1  0  0  0  0
 25 22  1  6  0  0  0
 26 30  1  6  0  0  0
 26 24  1  0  0  0  0
 26 27  1  0  0  0  0
 27 25  1  0  0  0  0
 28 25  1  0  0  0  0
 29 26  1  0  0  0  0
M  END
>  <MODEL>
1

>  <REMARK>
 VINA RESULT:      -9.7      0.000      0.000
  Name = 
  6 active torsions:
  status: ('A' for Active; 'I' for Inactive)
    1  A    between atoms: C_1  and  C_4
    2  A    between atoms: C_4  and  C_27
    3  A    between atoms: C_5  and  C_22
    4  A    between atoms: C_8  and  C_27
    5  A    between atoms: N_16  and  C_25
    6  A    between atoms: C_19  and  C_29
                            x       y       z     vdW  Elec       q    Type
                         _______ _______ _______ _____ _____    ______ ____

>  <TORSDO>
F 6

$$$$
=
 OpenBabel10272413473D

 30 32  0  0  1  0  0  0  0  0999 V2000
  185.6000  178.7400  140.6390 C   0  0  0  0  0  0  0  0  0  0  0  0
  184.1820  178.9250  140.6250 N   0  0  0  0  0  0  0  0  0  0  0  0
  186.2430  178.8140  139.5570 O   0  0  0  0  0  0  0  0  0  0  0  0
  185.3890  177.9090  142.9980 C   0  0  2  0  0  3  0  0  0  0  0  0
  183.4220  178.8650  141.8370 C   0  0  0  0  0  3  0  0  0  0  0  0
  186.3150  178.5640  141.9580 C   0  0  1  0  0  3  0  0  0  0  0  0
  183.9780  178.4360  142.9680 C   0  0  0  0  0  2  0  0  0  0  0  0
  185.7500  178.6030  146.7290 C   0  0  0  0  0  3  0  0  0  0  0  0
  187.0290  178.0990  146.9760 C   0  0  0  0  0  3  0  0  0  0  0  0
  185.2090  178.5520  145.4420 C   0  0  0  0  0  0  0  0  0  0  0  0
  187.2420  177.4880  144.6500 C   0  0  0  0  0  3  0  0  0  0  0  0
  183.8380  179.0960  145.2210 C   0  0  0  0  0  1  0  0  0  0  0  0
  187.7830  177.5380  145.9380 C   0  0  0  0  0  0  0  0  0  0  0  0
  185.9580  177.9920  144.3890 C   0  0  0  0  0  0  0  0  0  0  0  0
  190.3360  178.4640  144.7950 O   0  0  0  0  0  0  0  0  0  0  0  0
  190.3200  177.4760  145.5770 C   0  0  0  0  0  0  0  0  0  0  0  0
  189.0960  177.0040  146.1550 N   0  0  0  0  0  2  0  0  0  0  0  0
  191.5930  176.7890  145.9110 C   0  0  0  0  0  1  0  0  0  0  0  0
  188.7050  178.2990  141.4370 C   0  0  0  0  0  3  0  0  0  0  0  0
  187.5570  177.7370  141.8010 C   0  0  0  0  0  3  0  0  0  0  0  0
  189.9290  177.4620  141.2870 C   0  0  0  0  0  2  0  0  0  0  0  0
  190.5310  177.6340  139.8980 C   0  0  2  0  0  3  0  0  0  0  0  0
  189.6020  178.2510  139.0610 O   0  0  0  0  0  1  0  0  0  0  0  0
  192.0840  174.9450  137.5190 C   0  0  0  0  0  2  0  0  0  0  0  0
  190.9890  176.3110  139.2740 C   0  0  1  0  0  3  0  0  0  0  0  0
  190.5740  174.9340  137.3750 C   0  0  2  0  0  0  0  0  0  0  0  0
  189.9520  175.7530  138.4140 N   0  0  0  0  0  2  0  0  0  0  0  0
  192.5390  176.4760  138.3470 S   0  0  0  0  0  0  0  0  0  0  0  0
  190.1110  173.6230  137.4790 O   0  0  0  0  0  1  0  0  0  0  0  0
  190.1970  175.4860  136.0150 C   0  0  0  0  0  1  0  0  0  0  0  0
  1  6  1  0  0  0  0
  2  1  1  0  0  0  0
  2  5  2  0  0  0  0
  3  1  2  0  0  0  0
  4 14  1  1  0  0  0
  5  7  1  0  0  0  0
  6 20  1  6  0  0  0
  6  4  1  0  0  0  0
  7  4  1  0  0  0  0
  8  9  1  0  0  0  0
 10  8  2  0  0  0  0
 11 13  1  0  0  0  0
 12 10  1  0  0  0  0
 13 17  1  0  0  0  0
 13  9  2  0  0  0  0
 14 11  2  0  0  0  0
 14 10  1  0  0  0  0
 15 16  2  0  0  0  0
 16 18  1  0  0  0  0
 16 17  1  0  0  0  0
 19 20  2  0  0  0  0
 21 19  1  0  0  0  0
 22 23  1  6  0  0  0
 22 21  1  0  0  0  0
 24 28  1  0  0  0  0
 25 22  1  6  0  0  0
 26 30  1  6  0  0  0
 26 29  1  0  0  0  0
 26 24  1  0  0  0  0
 26 27  1  0  0  0  0
 27 25  1  0  0  0  0
 28 25  1  0  0  0  0
M  END
>  <MODEL>
2

>  <REMARK>
 VINA RESULT:      -9.3      1.625      4.554
  Name = 
  6 active torsions:
  status: ('A' for Active; 'I' for Inactive)
    1  A    between atoms: C_1  and  C_4
    2  A    between atoms: C_4  and  C_27
    3  A    between atoms: C_5  and  C_22
    4  A    between atoms: C_8  and  C_27
    5  A    between atoms: N_16  and  C_25
    6  A    between atoms: C_19  and  C_29
                            x       y       z     vdW  Elec       q    Type
                         _______ _______ _______ _____ _____    ______ ____

>  <TORSDO>
F 6

$$$$
=
 OpenBabel10272413473D

 30 32  0  0  1  0  0  0  0  0999 V2000
  185.0620  178.7900  144.5330 C   0  0  0  0  0  0  0  0  0  0  0  0
  184.4390  178.9540  145.8090 N   0  0  0  0  0  0  0  0  0  0  0  0
  184.4020  179.0340  143.4870 O   0  0  0  0  0  0  0  0  0  0  0  0
  186.9490  177.6110  145.6950 C   0  0  2  0  0  3  0  0  0  0  0  0
  185.1630  178.7030  147.0180 C   0  0  0  0  0  3  0  0  0  0  0  0
  186.5270  178.4290  144.4610 C   0  0  1  0  0  3  0  0  0  0  0  0
  186.3580  178.1170  146.9850 C   0  0  0  0  0  2  0  0  0  0  0  0
  190.4390  176.9560  147.0840 C   0  0  0  0  0  3  0  0  0  0  0  0
  191.2320  177.2470  145.9730 C   0  0  0  0  0  3  0  0  0  0  0  0
  189.0480  177.0750  147.0090 C   0  0  0  0  0  0  0  0  0  0  0  0
  189.2540  177.7820  144.6960 C   0  0  0  0  0  3  0  0  0  0  0  0
  188.2360  176.7490  148.2160 C   0  0  0  0  0  1  0  0  0  0  0  0
  190.6440  177.6620  144.7710 C   0  0  0  0  0  0  0  0  0  0  0  0
  188.4450  177.4930  145.8070 C   0  0  0  0  0  0  0  0  0  0  0  0
  190.8030  176.1520  142.2460 O   0  0  0  0  0  0  0  0  0  0  0  0
  191.4840  177.2020  142.3940 C   0  0  0  0  0  0  0  0  0  0  0  0
  191.4250  177.9630  143.6060 N   0  0  0  0  0  2  0  0  0  0  0  0
  192.3620  177.6630  141.2880 C   0  0  0  0  0  1  0  0  0  0  0  0
  187.5570  178.1960  142.2390 C   0  0  0  0  0  3  0  0  0  0  0  0
  186.8380  177.6520  143.2160 C   0  0  0  0  0  3  0  0  0  0  0  0
  187.8590  177.4090  141.0090 C   0  0  0  0  0  2  0  0  0  0  0  0
  188.2450  178.3340  139.8610 C   0  0  2  0  0  3  0  0  0  0  0  0
  187.1440  178.5260  139.0270 O   0  0  0  0  0  1  0  0  0  0  0  0
  190.4810  176.9220  136.9790 C   0  0  0  0  0  2  0  0  0  0  0  0
  189.4280  177.8100  139.0410 C   0  0  1  0  0  3  0  0  0  0  0  0
  190.1880  175.8170  137.9770 C   0  0  2  0  0  0  0  0  0  0  0  0
  189.5590  176.3640  139.1790 N   0  0  0  0  0  2  0  0  0  0  0  0
  189.3140  178.2550  137.2870 S   0  0  0  0  0  0  0  0  0  0  0  0
  191.3790  175.1830  138.3260 O   0  0  0  0  0  1  0  0  0  0  0  0
  189.2540  174.8060  137.3450 C   0  0  0  0  0  1  0  0  0  0  0  0
  1  2  1  0  0  0  0
  2  5  2  0  0  0  0
  3  1  2  0  0  0  0
  4 14  1  1  0  0  0
  4  7  1  0  0  0  0
  6 20  1  6  0  0  0
  6  1  1  0  0  0  0
  6  4  1  0  0  0  0
  7  5  1  0  0  0  0
  9  8  2  0  0  0  0
 10  8  1  0  0  0  0
 10 12  1  0  0  0  0
 11 13  2  0  0  0  0
 11 14  1  0  0  0  0
 13  9  1  0  0  0  0
 14 10  2  0  0  0  0
 15 16  2  0  0  0  0
 16 17  1  0  0  0  0
 17 13  1  0  0  0  0
 18 16  1  0  0  0  0
 19 20  2  0  0  0  0
 21 19  1  0  0  0  0
 22 23  1  6  0  0  0
 22 21  1  0  0  0  0
 24 28  1  0  0  0  0
 24 26  1  0  0  0  0
 25 27  1  0  0  0  0
 25 22  1  1  0  0  0
 26 30  1  6  0  0  0
 26 29  1  0  0  0  0
 26 27  1  0  0  0  0
 28 25  1  0  0  0  0
M  END
>  <MODEL>
3

>  <REMARK>
 VINA RESULT:      -9.1      1.737      4.451
  Name = 
  6 active torsions:
  status: ('A' for Active; 'I' for Inactive)
    1  A    between atoms: C_1  and  C_4
    2  A    between atoms: C_4  and  C_27
    3  A    between atoms: C_5  and  C_22
    4  A    between atoms: C_8  and  C_27
    5  A    between atoms: N_16  and  C_25
    6  A    between atoms: C_19  and  C_29
                            x       y       z     vdW  Elec       q    Type
                         _______ _______ _______ _____ _____    ______ ____

>  <TORSDO>
F 6

$$$$
=
 OpenBabel10272413473D

 30 32  0  0  1  0  0  0  0  0999 V2000
  184.1080  178.8440  144.9070 C   0  0  0  0  0  0  0  0  0  0  0  0
  184.2510  178.8110  146.3290 N   0  0  0  0  0  2  0  0  0  0  0  0
  182.9960  179.1590  144.4050 O   0  0  0  0  0  0  0  0  0  0  0  0
  186.3260  177.6810  144.7370 C   0  0  2  0  0  3  0  0  0  0  0  0
  185.5040  178.4750  146.9340 C   0  0  0  0  0  3  0  0  0  0  0  0
  185.3150  178.6040  144.0320 C   0  0  1  0  0  3  0  0  0  0  0  0
  186.5030  177.9870  146.2010 C   0  0  0  0  0  3  0  0  0  0  0  0
  190.0690  177.3920  144.0710 C   0  0  0  0  0  3  0  0  0  0  0  0
  190.1150  177.5970  142.6910 C   0  0  0  0  0  3  0  0  0  0  0  0
  188.8470  177.4220  144.7480 C   0  0  0  0  0  0  0  0  0  0  0  0
  187.7160  177.8660  142.6460 C   0  0  0  0  0  3  0  0  0  0  0  0
  188.8390  177.1930  146.2210 C   0  0  0  0  0  1  0  0  0  0  0  0
  188.9380  177.8360  141.9690 C   0  0  0  0  0  0  0  0  0  0  0  0
  187.6560  177.6630  144.0340 C   0  0  0  0  0  0  0  0  0  0  0  0
  190.3300  176.2580  139.9060 O   0  0  0  0  0  0  0  0  0  0  0  0
  189.6400  177.2570  139.5730 C   0  0  0  0  0  0  0  0  0  0  0  0
  188.9460  178.0430  140.5500 N   0  0  0  0  0  2  0  0  0  0  0  0
  189.5390  177.6280  138.1380 C   0  0  0  0  0  1  0  0  0  0  0  0
  184.3880  178.7560  141.7580 C   0  0  0  0  0  3  0  0  0  0  0  0
  184.9250  178.0040  142.7140 C   0  0  0  0  0  3  0  0  0  0  0  0
  184.0070  178.1430  140.4540 C   0  0  0  0  0  2  0  0  0  0  0  0
  184.8140  178.7570  139.3160 C   0  0  2  0  0  3  0  0  0  0  0  0
  184.4580  180.0970  139.1640 O   0  0  0  0  0  1  0  0  0  0  0  0
  184.2880  175.9940  136.5980 C   0  0  0  0  0  2  0  0  0  0  0  0
  184.6300  178.0210  137.9850 C   0  0  1  0  0  3  0  0  0  0  0  0
  185.7390  176.4370  136.5930 C   0  0  2  0  0  0  0  0  0  0  0  0
  185.9170  177.6260  137.4240 N   0  0  0  0  0  2  0  0  0  0  0  0
  183.5500  176.5710  138.1330 S   0  0  0  0  0  0  0  0  0  0  0  0
  186.1290  176.7230  135.2850 O   0  0  0  0  0  1  0  0  0  0  0  0
  186.6050  175.3180  137.1340 C   0  0  0  0  0  1  0  0  0  0  0  0
  1  2  1  0  0  0  0
  2  5  1  0  0  0  0
  3  1  2  0  0  0  0
  4 14  1  6  0  0  0
  4  7  1  0  0  0  0
  6 20  1  6  0  0  0
  6  4  1  0  0  0  0
  6  1  1  0  0  0  0
  7  5  2  0  0  0  0
  8 10  1  0  0  0  0
  9  8  2  0  0  0  0
 10 12  1  0  0  0  0
 11 14  1  0  0  0  0
 13 11  2  0  0  0  0
 13  9  1  0  0  0  0
 14 10  2  0  0  0  0
 16 15  2  0  0  0  0
 16 17  1  0  0  0  0
 17 13  1  0  0  0  0
 18 16  1  0  0  0  0
 19 20  2  0  0  0  0
 21 19  1  0  0  0  0
 22 23  1  6  0  0  0
 22 21  1  0  0  0  0
 24 28  1  0  0  0  0
 25 28  1  0  0  0  0
 25 22  1  1  0  0  0
 26 24  1  0  0  0  0
 26 30  1  1  0  0  0
 26 27  1  0  0  0  0
 27 25  1  0  0  0  0
 29 26  1  0  0  0  0
M  END
>  <MODEL>
4

>  <REMARK>
 VINA RESULT:      -9.1      2.531      5.048
  Name = 
  6 active torsions:
  status: ('A' for Active; 'I' for Inactive)
    1  A    between atoms: C_1  and  C_4
    2  A    between atoms: C_4  and  C_27
    3  A    between atoms: C_5  and  C_22
    4  A    between atoms: C_8  and  C_27
    5  A    between atoms: N_16  and  C_25
    6  A    between atoms: C_19  and  C_29
                            x       y       z     vdW  Elec       q    Type
                         _______ _______ _______ _____ _____    ______ ____

>  <TORSDO>
F 6

$$$$
=
 OpenBabel10272413473D

 30 32  0  0  1  0  0  0  0  0999 V2000
  189.7020  176.7810  144.9680 C   0  0  0  0  0  0  0  0  0  0  0  0
  189.7870  176.6590  146.3890 N   0  0  0  0  0  0  0  0  0  0  0  0
  190.6870  176.4420  144.2580 O   0  0  0  0  0  0  0  0  0  0  0  0
  187.6040  178.1220  145.2890 C   0  0  2  0  0  3  0  0  0  0  0  0
  188.6830  177.0170  147.2250 C   0  0  0  0  0  3  0  0  0  0  0  0
  188.4000  177.2130  144.3350 C   0  0  1  0  0  3  0  0  0  0  0  0
  187.6310  177.6620  146.7230 C   0  0  0  0  0  2  0  0  0  0  0  0
  183.8980  179.0130  145.2410 C   0  0  0  0  0  3  0  0  0  0  0  0
  183.5670  178.7260  143.9150 C   0  0  0  0  0  3  0  0  0  0  0  0
  185.2020  178.8170  145.7010 C   0  0  0  0  0  0  0  0  0  0  0  0
  185.8430  178.0410  143.4910 C   0  0  0  0  0  3  0  0  0  0  0  0
  185.5160  179.1400  147.1220 C   0  0  0  0  0  1  0  0  0  0  0  0
  184.5390  178.2380  143.0310 C   0  0  0  0  0  0  0  0  0  0  0  0
  186.1880  178.3250  144.8230 C   0  0  0  0  0  0  0  0  0  0  0  0
  185.6020  179.5380  140.6100 O   0  0  0  0  0  0  0  0  0  0  0  0
  184.7710  178.5980  140.5040 C   0  0  0  0  0  0  0  0  0  0  0  0
  184.2390  177.9400  141.6610 N   0  0  0  0  0  2  0  0  0  0  0  0
  184.3370  178.1570  139.1540 C   0  0  0  0  0  1  0  0  0  0  0  0
  188.7480  177.2560  141.9000 C   0  0  0  0  0  3  0  0  0  0  0  0
  188.6340  177.9320  143.0390 C   0  0  0  0  0  3  0  0  0  0  0  0
  188.9780  177.9860  140.6210 C   0  0  0  0  0  2  0  0  0  0  0  0
  189.9150  177.1970  139.7130 C   0  0  2  0  0  3  0  0  0  0  0  0
  191.2200  177.6610  139.8740 O   0  0  0  0  0  1  0  0  0  0  0  0
  187.8860  177.4690  136.3800 C   0  0  0  0  0  2  0  0  0  0  0  0
  189.5200  177.2710  138.2340 C   0  0  1  0  0  3  0  0  0  0  0  0
  188.3230  176.0310  136.5880 C   0  0  2  0  0  0  0  0  0  0  0  0
  189.2780  175.9380  137.6910 N   0  0  0  0  0  2  0  0  0  0  0  0
  188.0720  178.3260  137.9510 S   0  0  0  0  0  0  0  0  0  0  0  0
  188.9180  175.5570  135.4200 O   0  0  0  0  0  1  0  0  0  0  0  0
  187.1110  175.1800  136.9070 C   0  0  0  0  0  1  0  0  0  0  0  0
  1  2  1  0  0  0  0
  2  5  2  0  0  0  0
  3  1  2  0  0  0  0
  4 14  1  6  0  0  0
  4  7  1  0  0  0  0
  6 20  1  6  0  0  0
  6  1  1  0  0  0  0
  6  4  1  0  0  0  0
  7  5  1  0  0  0  0
  8 10  1  0  0  0  0
  9  8  2  0  0  0  0
 10 12  1  0  0  0  0
 11 14  1  0  0  0  0
 13 11  2  0  0  0  0
 13  9  1  0  0  0  0
 14 10  2  0  0  0  0
 16 15  2  0  0  0  0
 16 17  1  0  0  0  0
 17 13  1  0  0  0  0
 18 16  1  0  0  0  0
 19 20  2  0  0  0  0
 21 19  1  0  0  0  0
 22 23  1  6  0  0  0
 22 21  1  0  0  0  0
 24 26  1  0  0  0  0
 24 28  1  0  0  0  0
 25 22  1  1  0  0  0
 26 30  1  1  0  0  0
 26 27  1  0  0  0  0
 27 25  1  0  0  0  0
 28 25  1  0  0  0  0
 29 26  1  0  0  0  0
M  END
>  <MODEL>
5

>  <REMARK>
 VINA RESULT:      -9.1      1.523      1.978
  Name = 
  6 active torsions:
  status: ('A' for Active; 'I' for Inactive)
    1  A    between atoms: C_1  and  C_4
    2  A    between atoms: C_4  and  C_27
    3  A    between atoms: C_5  and  C_22
    4  A    between atoms: C_8  and  C_27
    5  A    between atoms: N_16  and  C_25
    6  A    between atoms: C_19  and  C_29
                            x       y       z     vdW  Elec       q    Type
                         _______ _______ _______ _____ _____    ______ ____

>  <TORSDO>
F 6

$$$$
=
 OpenBabel10272413473D

 30 32  0  0  1  0  0  0  0  0999 V2000
  186.4420  178.4560  147.1120 C   0  0  0  0  0  0  0  0  0  0  0  0
  187.1100  178.3840  148.3730 N   0  0  0  0  0  2  0  0  0  0  0  0
  185.2240  178.7780  147.0750 O   0  0  0  0  0  0  0  0  0  0  0  0
  188.4260  177.3100  146.0850 C   0  0  2  0  0  3  0  0  0  0  0  0
  188.4970  178.0390  148.4510 C   0  0  0  0  0  3  0  0  0  0  0  0
  187.2290  178.2460  145.8390 C   0  0  1  0  0  3  0  0  0  0  0  0
  189.1440  177.5770  147.3830 C   0  0  0  0  0  3  0  0  0  0  0  0
  191.6180  176.9600  144.0310 C   0  0  0  0  0  3  0  0  0  0  0  0
  191.1600  177.3060  142.7580 C   0  0  0  0  0  3  0  0  0  0  0  0
  190.7420  176.9620  145.1200 C   0  0  0  0  0  0  0  0  0  0  0  0
  188.9440  177.6620  143.6470 C   0  0  0  0  0  3  0  0  0  0  0  0
  191.2690  176.5810  146.4620 C   0  0  0  0  0  1  0  0  0  0  0  0
  189.8200  177.6590  142.5580 C   0  0  0  0  0  0  0  0  0  0  0  0
  189.3920  177.3180  144.9320 C   0  0  0  0  0  0  0  0  0  0  0  0
  190.2930  176.3060  139.9840 O   0  0  0  0  0  0  0  0  0  0  0  0
  189.5670  177.3340  140.0280 C   0  0  0  0  0  0  0  0  0  0  0  0
  189.3120  178.0130  141.2640 N   0  0  0  0  0  2  0  0  0  0  0  0
  188.9590  177.8520  138.7760 C   0  0  0  0  0  1  0  0  0  0  0  0
  185.6170  178.4760  143.9950 C   0  0  0  0  0  3  0  0  0  0  0  0
  186.3670  177.6790  144.7500 C   0  0  0  0  0  3  0  0  0  0  0  0
  184.7680  177.8970  142.9160 C   0  0  0  0  0  2  0  0  0  0  0  0
  185.0720  178.5600  141.5770 C   0  0  2  0  0  3  0  0  0  0  0  0
  185.6680  179.8010  141.7980 O   0  0  0  0  0  1  0  0  0  0  0  0
  181.4620  178.3140  140.0920 C   0  0  0  0  0  2  0  0  0  0  0  0
  183.8300  178.7330  140.6980 C   0  0  1  0  0  3  0  0  0  0  0  0
  182.4100  177.4760  139.2540 C   0  0  2  0  0  0  0  0  0  0  0  0
  183.7980  177.7330  139.6360 N   0  0  0  0  0  2  0  0  0  0  0  0
  182.2870  178.6730  141.6500 S   0  0  0  0  0  0  0  0  0  0  0  0
  182.2350  177.7900  137.9070 O   0  0  0  0  0  1  0  0  0  0  0  0
  182.1010  176.0080  139.4660 C   0  0  0  0  0  1  0  0  0  0  0  0
  1  2  1  0  0  0  0
  2  5  1  0  0  0  0
  3  1  2  0  0  0  0
  4 14  1  6  0  0  0
  4  7  1  0  0  0  0
  6 20  1  6  0  0  0
  6  4  1  0  0  0  0
  6  1  1  0  0  0  0
  7  5  2  0  0  0  0
  8 10  1  0  0  0  0
  9  8  2  0  0  0  0
 10 12  1  0  0  0  0
 11 14  1  0  0  0  0
 13  9  1  0  0  0  0
 13 11  2  0  0  0  0
 14 10  2  0  0  0  0
 15 16  2  0  0  0  0
 16 17  1  0  0  0  0
 17 13  1  0  0  0  0
 18 16  1  0  0  0  0
 19 20  2  0  0  0  0
 21 19  1  0  0  0  0
 22 23  1  1  0  0  0
 22 21  1  0  0  0  0
 24 28  1  0  0  0  0
 25 22  1  1  0  0  0
 25 28  1  0  0  0  0
 26 30  1  1  0  0  0
 26 27  1  0  0  0  0
 26 24  1  0  0  0  0
 27 25  1  0  0  0  0
 29 26  1  0  0  0  0
M  END
>  <MODEL>
6

>  <REMARK>
 VINA RESULT:      -9.1      2.940      5.557
  Name = 
  6 active torsions:
  status: ('A' for Active; 'I' for Inactive)
    1  A    between atoms: C_1  and  C_4
    2  A    between atoms: C_4  and  C_27
    3  A    between atoms: C_5  and  C_22
    4  A    between atoms: C_8  and  C_27
    5  A    between atoms: N_16  and  C_25
    6  A    between atoms: C_19  and  C_29
                            x       y       z     vdW  Elec       q    Type
                         _______ _______ _______ _____ _____    ______ ____

>  <TORSDO>
F 6

$$$$
=
 OpenBabel10272413473D

 30 32  0  0  1  0  0  0  0  0999 V2000
  184.4130  178.9120  144.4270 C   0  0  0  0  0  0  0  0  0  0  0  0
  184.0900  178.8000  145.8150 N   0  0  0  0  0  0  0  0  0  0  0  0
  183.5630  179.3950  143.6310 O   0  0  0  0  0  0  0  0  0  0  0  0
  186.4210  177.4700  144.8610 C   0  0  2  0  0  3  0  0  0  0  0  0
  185.0370  178.2740  146.7500 C   0  0  0  0  0  3  0  0  0  0  0  0
  185.8010  178.5490  143.9550 C   0  0  1  0  0  3  0  0  0  0  0  0
  186.1550  177.6870  146.3280 C   0  0  0  0  0  2  0  0  0  0  0  0
  190.1990  177.3880  145.3700 C   0  0  0  0  0  3  0  0  0  0  0  0
  190.6310  176.9440  144.1180 C   0  0  0  0  0  3  0  0  0  0  0  0
  188.8360  177.5670  145.6220 C   0  0  0  0  0  0  0  0  0  0  0  0
  188.3430  176.8550  143.3540 C   0  0  0  0  0  3  0  0  0  0  0  0
  188.4150  178.0370  146.9730 C   0  0  0  0  0  1  0  0  0  0  0  0
  189.7050  176.6750  143.1020 C   0  0  0  0  0  0  0  0  0  0  0  0
  187.8950  177.3020  144.6080 C   0  0  0  0  0  0  0  0  0  0  0  0
  189.4800  178.0680  140.5150 O   0  0  0  0  0  0  0  0  0  0  0  0
  189.9810  176.9140  140.5650 C   0  0  0  0  0  0  0  0  0  0  0  0
  190.1110  176.2100  141.8070 N   0  0  0  0  0  2  0  0  0  0  0  0
  190.4520  176.2690  139.3130 C   0  0  0  0  0  1  0  0  0  0  0  0
  185.9170  178.9140  141.5240 C   0  0  0  0  0  3  0  0  0  0  0  0
  185.7860  178.0610  142.5360 C   0  0  0  0  0  3  0  0  0  0  0  0
  185.9010  178.4140  140.1210 C   0  0  0  0  0  2  0  0  0  0  0  0
  184.5820  178.7600  139.4420 C   0  0  2  0  0  3  0  0  0  0  0  0
  184.4820  180.1430  139.2950 O   0  0  0  0  0  1  0  0  0  0  0  0
  181.1110  177.1970  140.3460 C   0  0  0  0  0  2  0  0  0  0  0  0
  183.3600  178.2320  140.2020 C   0  0  1  0  0  3  0  0  0  0  0  0
  181.0450  178.7030  140.5140 C   0  0  2  0  0  0  0  0  0  0  0  0
  182.3800  179.2910  140.4160 N   0  0  0  0  0  2  0  0  0  0  0  0
  182.5760  176.8240  139.3700 S   0  0  0  0  0  0  0  0  0  0  0  0
  180.4970  179.0040  141.7600 O   0  0  0  0  0  1  0  0  0  0  0  0
  180.1640  179.2900  139.4310 C   0  0  0  0  0  1  0  0  0  0  0  0
  1  2  1  0  0  0  0
  2  5  2  0  0  0  0
  3  1  2  0  0  0  0
  4 14  1  1  0  0  0
  4  7  1  0  0  0  0
  6 20  1  6  0  0  0
  6  1  1  0  0  0  0
  6  4  1  0  0  0  0
  7  5  1  0  0  0  0
  8 10  1  0  0  0  0
  9  8  2  0  0  0  0
 10 12  1  0  0  0  0
 11 14  1  0  0  0  0
 13 11  2  0  0  0  0
 13  9  1  0  0  0  0
 14 10  2  0  0  0  0
 15 16  2  0  0  0  0
 16 17  1  0  0  0  0
 17 13  1  0  0  0  0
 18 16  1  0  0  0  0
 19 20  2  0  0  0  0
 21 19  1  0  0  0  0
 22 23  1  1  0  0  0
 22 21  1  0  0  0  0
 24 26  1  0  0  0  0
 25 22  1  6  0  0  0
 25 27  1  0  0  0  0
 26 30  1  6  0  0  0
 26 29  1  0  0  0  0
 27 26  1  0  0  0  0
 28 25  1  0  0  0  0
 28 24  1  0  0  0  0
M  END
>  <MODEL>
7

>  <REMARK>
 VINA RESULT:      -9.0      2.724      6.045
  Name = 
  6 active torsions:
  status: ('A' for Active; 'I' for Inactive)
    1  A    between atoms: C_1  and  C_4
    2  A    between atoms: C_4  and  C_27
    3  A    between atoms: C_5  and  C_22
    4  A    between atoms: C_8  and  C_27
    5  A    between atoms: N_16  and  C_25
    6  A    between atoms: C_19  and  C_29
                            x       y       z     vdW  Elec       q    Type
                         _______ _______ _______ _____ _____    ______ ____

>  <TORSDO>
F 6

$$$$
=
 OpenBabel10272413473D

 30 32  0  0  1  0  0  0  0  0999 V2000
  182.3120  179.0320  143.3190 C   0  0  0  0  0  0  0  0  0  0  0  0
  181.0000  179.4710  142.9600 N   0  0  0  0  0  2  0  0  0  0  0  0
  182.6670  179.0670  144.5280 O   0  0  0  0  0  0  0  0  0  0  0  0
  182.8910  179.0240  140.8760 C   0  0  2  0  0  3  0  0  0  0  0  0
  180.5570  179.4280  141.6000 C   0  0  0  0  0  3  0  0  0  0  0  0
  183.2130  178.4370  142.2620 C   0  0  1  0  0  3  0  0  0  0  0  0
  181.4160  179.1770  140.6130 C   0  0  0  0  0  3  0  0  0  0  0  0
  183.6210  176.3370  138.2720 C   0  0  0  0  0  3  0  0  0  0  0  0
  184.7800  176.8420  137.6790 C   0  0  0  0  0  3  0  0  0  0  0  0
  183.0010  177.0330  139.3140 C   0  0  0  0  0  0  0  0  0  0  0  0
  184.7150  178.7450  139.1640 C   0  0  0  0  0  3  0  0  0  0  0  0
  181.7620  176.4630  139.9170 C   0  0  0  0  0  1  0  0  0  0  0  0
  185.3350  178.0500  138.1220 C   0  0  0  0  0  0  0  0  0  0  0  0
  183.5500  178.2480  139.7690 C   0  0  0  0  0  0  0  0  0  0  0  0
  188.1420  177.3430  138.6690 O   0  0  0  0  0  0  0  0  0  0  0  0
  187.8740  178.2400  137.8270 C   0  0  0  0  0  0  0  0  0  0  0  0
  186.5190  178.6040  137.5320 N   0  0  0  0  0  2  0  0  0  0  0  0
  188.9820  178.9310  137.1200 C   0  0  0  0  0  1  0  0  0  0  0  0
  185.4470  177.6630  142.9450 C   0  0  0  0  0  3  0  0  0  0  0  0
  184.6600  178.6720  142.5810 C   0  0  0  0  0  3  0  0  0  0  0  0
  186.8820  177.9140  143.2560 C   0  0  0  0  0  2  0  0  0  0  0  0
  187.2540  177.3040  144.6030 C   0  0  2  0  0  3  0  0  0  0  0  0
  186.9350  178.1980  145.6240 O   0  0  0  0  0  1  0  0  0  0  0  0
  191.0560  177.2100  145.5200 C   0  0  0  0  0  2  0  0  0  0  0  0
  188.7350  176.9190  144.6980 C   0  0  1  0  0  3  0  0  0  0  0  0
  190.8900  177.7490  144.1120 C   0  0  2  0  0  0  0  0  0  0  0  0
  189.5130  177.5750  143.6530 N   0  0  0  0  0  2  0  0  0  0  0  0
  189.4480  177.2890  146.3240 S   0  0  0  0  0  0  0  0  0  0  0  0
  191.7530  177.0690  143.2530 O   0  0  0  0  0  1  0  0  0  0  0  0
  191.2360  179.2240  144.0960 C   0  0  0  0  0  1  0  0  0  0  0  0
  1  3  2  0  0  0  0
  2  1  1  0  0  0  0
  4 14  1  6  0  0  0
  4  6  1  0  0  0  0
  5  2  1  0  0  0  0
  6 20  1  1  0  0  0
  6  1  1  0  0  0  0
  7  4  1  0  0  0  0
  7  5  2  0  0  0  0
  8 10  1  0  0  0  0
  9 13  1  0  0  0  0
  9  8  2  0  0  0  0
 10 14  2  0  0  0  0
 10 12  1  0  0  0  0
 11 14  1  0  0  0  0
 13 11  2  0  0  0  0
 16 15  2  0  0  0  0
 17 16  1  0  0  0  0
 17 13  1  0  0  0  0
 18 16  1  0  0  0  0
 19 21  1  0  0  0  0
 20 19  2  0  0  0  0
 21 22  1  0  0  0  0
 22 23  1  1  0  0  0
 24 28  1  0  0  0  0
 25 22  1  1  0  0  0
 25 28  1  0  0  0  0
 26 30  1  6  0  0  0
 26 24  1  0  0  0  0
 27 26  1  0  0  0  0
 27 25  1  0  0  0  0
 29 26  1  0  0  0  0
M  END
>  <MODEL>
8

>  <REMARK>
 VINA RESULT:      -8.9      2.876      7.701
  Name = 
  6 active torsions:
  status: ('A' for Active; 'I' for Inactive)
    1  A    between atoms: C_1  and  C_4
    2  A    between atoms: C_4  and  C_27
    3  A    between atoms: C_5  and  C_22
    4  A    between atoms: C_8  and  C_27
    5  A    between atoms: N_16  and  C_25
    6  A    between atoms: C_19  and  C_29
                            x       y       z     vdW  Elec       q    Type
                         _______ _______ _______ _____ _____    ______ ____

>  <TORSDO>
F 6

$$$$
=
 OpenBabel10272413473D

 30 32  0  0  1  0  0  0  0  0999 V2000
  184.7080  178.8260  145.7650 C   0  0  0  0  0  0  0  0  0  0  0  0
  185.2250  178.7610  147.0960 N   0  0  0  0  0  2  0  0  0  0  0  0
  183.5030  179.1460  145.5850 O   0  0  0  0  0  0  0  0  0  0  0  0
  186.8000  177.6790  144.9820 C   0  0  2  0  0  3  0  0  0  0  0  0
  186.5940  178.4190  147.3360 C   0  0  0  0  0  3  0  0  0  0  0  0
  185.6380  178.6120  144.5930 C   0  0  1  0  0  3  0  0  0  0  0  0
  187.3610  177.9530  146.3530 C   0  0  0  0  0  3  0  0  0  0  0  0
  190.2060  177.3050  143.3100 C   0  0  0  0  0  3  0  0  0  0  0  0
  189.9040  177.6660  141.9960 C   0  0  0  0  0  3  0  0  0  0  0  0
  189.2090  177.3100  144.2900 C   0  0  0  0  0  0  0  0  0  0  0  0
  187.6030  178.0430  142.6240 C   0  0  0  0  0  3  0  0  0  0  0  0
  189.5710  176.9120  145.6810 C   0  0  0  0  0  1  0  0  0  0  0  0
  188.5990  178.0370  141.6440 C   0  0  0  0  0  0  0  0  0  0  0  0
  187.8940  177.6830  143.9490 C   0  0  0  0  0  0  0  0  0  0  0  0
  189.5330  176.8340  139.1220 O   0  0  0  0  0  0  0  0  0  0  0  0
  188.7280  177.8020  139.0950 C   0  0  0  0  0  0  0  0  0  0  0  0
  188.2500  178.4070  140.3030 N   0  0  0  0  0  2  0  0  0  0  0  0
  188.2610  178.3250  137.7860 C   0  0  0  0  0  1  0  0  0  0  0  0
  184.4470  178.8310  142.4520 C   0  0  0  0  0  3  0  0  0  0  0  0
  184.9100  178.0380  143.4140 C   0  0  0  0  0  3  0  0  0  0  0  0
  183.7270  178.2450  141.2860 C   0  0  0  0  0  2  0  0  0  0  0  0
  184.4580  178.5640  139.9870 C   0  0  2  0  0  3  0  0  0  0  0  0
  184.8580  179.9000  139.9950 O   0  0  0  0  0  1  0  0  0  0  0  0
  181.4980  178.2880  137.4450 C   0  0  0  0  0  2  0  0  0  0  0  0
  183.6120  178.2860  138.7400 C   0  0  1  0  0  3  0  0  0  0  0  0
  181.8030  176.9160  138.0140 C   0  0  2  0  0  0  0  0  0  0  0  0
  183.0470  176.9420  138.7810 N   0  0  0  0  0  2  0  0  0  0  0  0
  182.2900  179.5050  138.5070 S   0  0  0  0  0  0  0  0  0  0  0  0
  181.9210  175.9990  136.9700 O   0  0  0  0  0  1  0  0  0  0  0  0
  180.6690  176.4880  138.9230 C   0  0  0  0  0  1  0  0  0  0  0  0
  1  2  1  0  0  0  0
  2  5  1  0  0  0  0
  3  1  2  0  0  0  0
  4 14  1  6  0  0  0
  4  7  1  0  0  0  0
  6 20  1  6  0  0  0
  6  4  1  0  0  0  0
  6  1  1  0  0  0  0
  7  5  2  0  0  0  0
  8 10  1  0  0  0  0
  9  8  2  0  0  0  0
 10 12  1  0  0  0  0
 11 14  1  0  0  0  0
 13  9  1  0  0  0  0
 13 11  2  0  0  0  0
 14 10  2  0  0  0  0
 16 15  2  0  0  0  0
 16 17  1  0  0  0  0
 17 13  1  0  0  0  0
 18 16  1  0  0  0  0
 19 20  2  0  0  0  0
 21 19  1  0  0  0  0
 22 23  1  1  0  0  0
 22 21  1  0  0  0  0
 24 26  1  0  0  0  0
 24 28  1  0  0  0  0
 25 27  1  0  0  0  0
 25 22  1  1  0  0  0
 26 27  1  0  0  0  0
 26 30  1  1  0  0  0
 28 25  1  0  0  0  0
 29 26  1  0  0  0  0
M  END
>  <MODEL>
9

>  <REMARK>
 VINA RESULT:      -8.7      3.018      5.669
  Name = 
  6 active torsions:
  status: ('A' for Active; 'I' for Inactive)
    1  A    between atoms: C_1  and  C_4
    2  A    between atoms: C_4  and  C_27
    3  A    between atoms: C_5  and  C_22
    4  A    between atoms: C_8  and  C_27
    5  A    between atoms: N_16  and  C_25
    6  A    between atoms: C_19  and  C_29
                            x       y       z     vdW  Elec       q    Type
                         _______ _______ _______ _____ _____    ______ ____

>  <TORSDO>
F 6

$$$$
