=
 OpenBabel10272413163D

 32 35  0  0  0  0  0  0  0  0999 V2000
  187.3660  178.0590  141.6990 N   0  0  0  0  0  0  0  0  0  0  0  0
  188.5930  177.5870  141.8630 N   0  0  0  0  0  0  0  0  0  0  0  0
  186.6860  177.8870  142.8540 C   0  0  0  0  0  0  0  0  0  0  0  0
  187.5220  177.2710  143.7800 C   0  0  0  0  0  0  0  0  0  0  0  0
  189.9550  176.4880  143.6930 C   0  0  0  0  0  1  0  0  0  0  0  0
  189.5890  177.6200  140.8270 C   0  0  0  0  0  0  0  0  0  0  0  0
  190.7250  177.1070  141.0090 O   0  0  0  0  0  0  0  0  0  0  0  0
  188.7200  177.1030  143.1180 C   0  0  0  0  0  0  0  0  0  0  0  0
  185.2780  178.3000  143.0280 C   0  0  0  0  0  0  0  0  0  0  0  0
  184.8000  178.7710  144.2600 C   0  0  0  0  0  3  0  0  0  0  0  0
  180.6710  178.3930  141.3520 C   0  0  0  0  0  2  0  0  0  0  0  0
  184.3930  178.2100  141.9430 C   0  0  0  0  0  3  0  0  0  0  0  0
  181.2420  179.4170  143.4800 O   0  0  0  0  0  0  0  0  0  0  0  0
  182.5870  179.0580  143.3260 C   0  0  0  0  0  0  0  0  0  0  0  0
  183.4610  179.1480  144.4100 C   0  0  0  0  0  3  0  0  0  0  0  0
  183.0510  178.5770  142.0880 C   0  0  0  0  0  0  0  0  0  0  0  0
  180.3530  179.4950  142.3640 C   0  0  0  0  0  2  0  0  0  0  0  0
  182.1290  178.5150  140.9070 C   0  0  0  0  0  2  0  0  0  0  0  0
  189.2990  178.3060  139.5310 C   0  0  0  0  0  2  0  0  0  0  0  0
  188.8360  177.3400  138.5470 N   0  0  0  0  0  0  0  0  0  0  0  0
  189.7970  176.6520  137.7390 C   0  0  0  0  0  0  0  0  0  0  0  0
  190.4570  176.4850  136.5180 C   0  0  0  0  0  2  0  0  0  0  0  0
  190.8020  175.6270  137.5660 C   0  0  0  0  0  0  0  0  0  0  0  0
  191.5520  174.5750  138.0720 O   0  0  0  0  0  1  0  0  0  0  0  0
  185.2720  178.1380  137.7690 O   0  0  0  0  0  1  0  0  0  0  0  0
  187.4540  177.2120  138.3260 N   0  0  0  0  0  2  0  0  0  0  0  0
  187.1880  179.0830  136.9470 O   0  0  0  0  0  0  0  0  0  0  0  0
  186.6550  178.1990  137.6670 C   0  0  0  0  0  0  0  0  0  0  0  0
  187.2310  176.9000  145.2000 C   0  0  0  0  0  2  0  0  0  0  0  0
  187.8030  177.9290  146.1700 C   0  0  0  0  0  2  0  0  0  0  0  0
  188.4630  178.0200  148.5770 C   0  0  0  0  0  1  0  0  0  0  0  0
  188.6350  177.2760  147.2660 C   0  0  0  0  0  2  0  0  0  0  0  0
  1  2  1  0  0  0  0
  1  3  2  0  0  0  0
  2  8  1  0  0  0  0
  3  9  1  0  0  0  0
  3  4  1  0  0  0  0
  4 29  1  0  0  0  0
  6  7  2  0  0  0  0
  6  2  1  0  0  0  0
  8  5  1  0  0  0  0
  8  4  2  0  0  0  0
  9 10  1  0  0  0  0
 10 15  2  0  0  0  0
 11 17  1  0  0  0  0
 12 16  1  0  0  0  0
 12  9  2  0  0  0  0
 14 13  1  0  0  0  0
 14 15  1  0  0  0  0
 16 14  2  0  0  0  0
 17 13  1  0  0  0  0
 18 11  1  0  0  0  0
 18 16  1  0  0  0  0
 19  6  1  0  0  0  0
 20 19  1  0  0  0  0
 21 20  1  0  0  0  0
 22 23  1  0  0  0  0
 22 21  1  0  0  0  0
 23 21  2  0  0  0  0
 23 24  1  0  0  0  0
 26 20  1  0  0  0  0
 27 28  2  0  0  0  0
 28 25  1  0  0  0  0
 28 26  1  0  0  0  0
 29 30  1  0  0  0  0
 30 32  1  0  0  0  0
 32 31  1  0  0  0  0
M  END
>  <MODEL>
1

>  <REMARK>
 VINA RESULT:      -8.9      0.000      0.000
  Name = 
  8 active torsions:
  status: ('A' for Active; 'I' for Inactive)
    1  A    between atoms: C_2  and  C_5
    2  A    between atoms: C_3  and  N_20
    3  A    between atoms: C_13  and  C_18
    4  A    between atoms: C_13  and  C_29
    5  A    between atoms: C_14  and  C_18
    6  A    between atoms: N_15  and  N_20
    7  A    between atoms: C_16  and  N_20
    8  A    between atoms: C_16  and  C_24
                            x       y       z     vdW  Elec       q    Type
                         _______ _______ _______ _____ _____    ______ ____

>  <TORSDO>
F 8

$$$$
=
 OpenBabel10272413163D

 32 35  0  0  0  0  0  0  0  0999 V2000
  187.3500  178.0720  141.7570 N   0  0  0  0  0  0  0  0  0  0  0  0
  188.5760  177.6160  141.9680 N   0  0  0  0  0  0  0  0  0  0  0  0
  186.6370  177.9140  142.8930 C   0  0  0  0  0  0  0  0  0  0  0  0
  187.4490  177.3240  143.8550 C   0  0  0  0  0  0  0  0  0  0  0  0
  189.8910  176.5640  143.8580 C   0  0  0  0  0  1  0  0  0  0  0  0
  189.6030  177.6400  140.9610 C   0  0  0  0  0  0  0  0  0  0  0  0
  190.7380  177.1430  141.1880 O   0  0  0  0  0  0  0  0  0  0  0  0
  188.6690  177.1550  143.2340 C   0  0  0  0  0  0  0  0  0  0  0  0
  185.2190  178.3150  143.0160 C   0  0  0  0  0  0  0  0  0  0  0  0
  184.6970  178.7960  144.2270 C   0  0  0  0  0  3  0  0  0  0  0  0
  180.6680  178.3440  141.1910 C   0  0  0  0  0  2  0  0  0  0  0  0
  184.3710  178.2040  141.9050 C   0  0  0  0  0  3  0  0  0  0  0  0
  181.1600  179.3980  143.3240 O   0  0  0  0  0  0  0  0  0  0  0  0
  182.5130  179.0510  143.2170 C   0  0  0  0  0  0  0  0  0  0  0  0
  183.3510  179.1620  144.3280 C   0  0  0  0  0  3  0  0  0  0  0  0
  183.0220  178.5590  142.0020 C   0  0  0  0  0  0  0  0  0  0  0  0
  180.3080  179.4540  142.1790 C   0  0  0  0  0  2  0  0  0  0  0  0
  182.1390  178.4740  140.7920 C   0  0  0  0  0  2  0  0  0  0  0  0
  189.3460  178.3000  139.6450 C   0  0  0  0  0  2  0  0  0  0  0  0
  188.7610  177.3470  138.7150 N   0  0  0  0  0  0  0  0  0  0  0  0
  187.5760  177.7090  137.9990 C   0  0  0  0  0  0  0  0  0  0  0  0
  186.8320  177.7290  136.8150 C   0  0  0  0  0  2  0  0  0  0  0  0
  186.2630  178.3120  137.9500 C   0  0  0  0  0  0  0  0  0  0  0  0
  185.2160  178.9750  138.5740 O   0  0  0  0  0  1  0  0  0  0  0  0
  190.7230  174.3630  137.6210 O   0  0  0  0  0  1  0  0  0  0  0  0
  189.3000  176.0510  138.6500 N   0  0  0  0  0  2  0  0  0  0  0  0
  191.2510  176.5850  137.4750 O   0  0  0  0  0  0  0  0  0  0  0  0
  190.4510  175.7010  137.8750 C   0  0  0  0  0  0  0  0  0  0  0  0
  187.1180  176.9750  145.2720 C   0  0  0  0  0  2  0  0  0  0  0  0
  187.6800  178.0080  146.2440 C   0  0  0  0  0  2  0  0  0  0  0  0
  188.4860  178.0910  148.6060 C   0  0  0  0  0  1  0  0  0  0  0  0
  188.6070  177.3770  147.2730 C   0  0  0  0  0  2  0  0  0  0  0  0
  1  2  1  0  0  0  0
  1  3  2  0  0  0  0
  2  8  1  0  0  0  0
  3  9  1  0  0  0  0
  3  4  1  0  0  0  0
  4 29  1  0  0  0  0
  6  7  2  0  0  0  0
  6  2  1  0  0  0  0
  8  4  2  0  0  0  0
  8  5  1  0  0  0  0
  9 10  1  0  0  0  0
 10 15  2  0  0  0  0
 11 17  1  0  0  0  0
 12 16  1  0  0  0  0
 12  9  2  0  0  0  0
 14 13  1  0  0  0  0
 14 15  1  0  0  0  0
 16 14  2  0  0  0  0
 17 13  1  0  0  0  0
 18 11  1  0  0  0  0
 18 16  1  0  0  0  0
 19  6  1  0  0  0  0
 20 19  1  0  0  0  0
 21 20  1  0  0  0  0
 22 23  1  0  0  0  0
 22 21  1  0  0  0  0
 23 21  2  0  0  0  0
 23 24  1  0  0  0  0
 25 28  1  0  0  0  0
 26 20  1  0  0  0  0
 27 28  2  0  0  0  0
 28 26  1  0  0  0  0
 29 30  1  0  0  0  0
 30 32  1  0  0  0  0
 32 31  1  0  0  0  0
M  END
>  <MODEL>
2

>  <REMARK>
 VINA RESULT:      -8.8      0.694      2.510
  Name = 
  8 active torsions:
  status: ('A' for Active; 'I' for Inactive)
    1  A    between atoms: C_2  and  C_5
    2  A    between atoms: C_3  and  N_20
    3  A    between atoms: C_13  and  C_18
    4  A    between atoms: C_13  and  C_29
    5  A    between atoms: C_14  and  C_18
    6  A    between atoms: N_15  and  N_20
    7  A    between atoms: C_16  and  N_20
    8  A    between atoms: C_16  and  C_24
                            x       y       z     vdW  Elec       q    Type
                         _______ _______ _______ _____ _____    ______ ____

>  <TORSDO>
F 8

$$$$
=
 OpenBabel10272413163D

 32 35  0  0  0  0  0  0  0  0999 V2000
  188.0570  178.0730  140.0080 N   0  0  0  0  0  0  0  0  0  0  0  0
  189.0650  177.7060  139.2300 N   0  0  0  0  0  0  0  0  0  0  0  0
  188.3310  177.6810  141.2710 C   0  0  0  0  0  0  0  0  0  0  0  0
  189.5610  177.0320  141.2850 C   0  0  0  0  0  0  0  0  0  0  0  0
  191.2840  176.5100  139.4690 C   0  0  0  0  0  1  0  0  0  0  0  0
  189.1020  177.9750  137.8180 C   0  0  0  0  0  0  0  0  0  0  0  0
  190.0540  177.5570  137.1070 O   0  0  0  0  0  0  0  0  0  0  0  0
  189.9960  177.0720  139.9760 C   0  0  0  0  0  0  0  0  0  0  0  0
  187.4160  177.9270  142.4060 C   0  0  0  0  0  0  0  0  0  0  0  0
  186.1270  178.4460  142.2080 C   0  0  0  0  0  3  0  0  0  0  0  0
  186.7100  178.3660  147.2380 C   0  0  0  0  0  2  0  0  0  0  0  0
  187.8450  177.6480  143.7120 C   0  0  0  0  0  3  0  0  0  0  0  0
  184.8680  178.6550  145.6800 O   0  0  0  0  0  0  0  0  0  0  0  0
  185.7110  178.4000  144.5910 C   0  0  0  0  0  0  0  0  0  0  0  0
  185.2780  178.6820  143.2940 C   0  0  0  0  0  3  0  0  0  0  0  0
  187.0050  177.8910  144.8030 C   0  0  0  0  0  0  0  0  0  0  0  0
  185.2050  178.2330  147.0030 C   0  0  0  0  0  2  0  0  0  0  0  0
  187.4640  177.5470  146.1890 C   0  0  0  0  0  2  0  0  0  0  0  0
  188.0270  178.7970  137.1840 C   0  0  0  0  0  2  0  0  0  0  0  0
  186.8830  177.9590  136.8610 N   0  0  0  0  0  0  0  0  0  0  0  0
  185.6960  178.0630  137.6530 C   0  0  0  0  0  0  0  0  0  0  0  0
  184.4830  177.5270  138.0970 C   0  0  0  0  0  2  0  0  0  0  0  0
  184.8560  178.7820  138.5850 C   0  0  0  0  0  0  0  0  0  0  0  0
  184.6100  179.8940  139.3780 O   0  0  0  0  0  1  0  0  0  0  0  0
  187.7190  174.7670  135.1120 O   0  0  0  0  0  0  0  0  0  0  0  0
  187.0270  176.9770  135.8670 N   0  0  0  0  0  2  0  0  0  0  0  0
  187.0650  175.1110  137.2780 O   0  0  0  0  0  1  0  0  0  0  0  0
  187.2850  175.5960  136.1370 C   0  0  0  0  0  0  0  0  0  0  0  0
  190.2970  176.4470  142.4480 C   0  0  0  0  0  2  0  0  0  0  0  0
  191.5600  177.2420  142.7620 C   0  0  0  0  0  2  0  0  0  0  0  0
  191.0860  179.3460  144.0220 C   0  0  0  0  0  1  0  0  0  0  0  0
  191.4960  177.8900  144.1390 C   0  0  0  0  0  2  0  0  0  0  0  0
  1  3  2  0  0  0  0
  2  8  1  0  0  0  0
  2  1  1  0  0  0  0
  3  4  1  0  0  0  0
  3  9  1  0  0  0  0
  4 29  1  0  0  0  0
  5  8  1  0  0  0  0
  6  2  1  0  0  0  0
  7  6  2  0  0  0  0
  8  4  2  0  0  0  0
  9 12  1  0  0  0  0
 10  9  2  0  0  0  0
 10 15  1  0  0  0  0
 12 16  2  0  0  0  0
 13 17  1  0  0  0  0
 14 16  1  0  0  0  0
 14 13  1  0  0  0  0
 15 14  2  0  0  0  0
 16 18  1  0  0  0  0
 17 11  1  0  0  0  0
 18 11  1  0  0  0  0
 19  6  1  0  0  0  0
 20 19  1  0  0  0  0
 20 21  1  0  0  0  0
 21 22  1  0  0  0  0
 21 23  2  0  0  0  0
 22 23  1  0  0  0  0
 23 24  1  0  0  0  0
 25 28  2  0  0  0  0
 26 28  1  0  0  0  0
 26 20  1  0  0  0  0
 28 27  1  0  0  0  0
 29 30  1  0  0  0  0
 30 32  1  0  0  0  0
 31 32  1  0  0  0  0
M  END
>  <MODEL>
3

>  <REMARK>
 VINA RESULT:      -8.5      2.437      4.634
  Name = 
  8 active torsions:
  status: ('A' for Active; 'I' for Inactive)
    1  A    between atoms: C_2  and  C_5
    2  A    between atoms: C_3  and  N_20
    3  A    between atoms: C_13  and  C_18
    4  A    between atoms: C_13  and  C_29
    5  A    between atoms: C_14  and  C_18
    6  A    between atoms: N_15  and  N_20
    7  A    between atoms: C_16  and  N_20
    8  A    between atoms: C_16  and  C_24
                            x       y       z     vdW  Elec       q    Type
                         _______ _______ _______ _____ _____    ______ ____

>  <TORSDO>
F 8

$$$$
=
 OpenBabel10272413163D

 32 35  0  0  0  0  0  0  0  0999 V2000
  184.5130  177.8910  141.3350 N   0  0  0  0  0  0  0  0  0  0  0  0
  183.2470  178.1510  141.6280 N   0  0  0  0  0  0  0  0  0  0  0  0
  185.2840  178.3330  142.3530 C   0  0  0  0  0  0  0  0  0  0  0  0
  184.4660  178.9030  143.3220 C   0  0  0  0  0  0  0  0  0  0  0  0
  181.9350  179.2170  143.5130 C   0  0  0  0  0  1  0  0  0  0  0  0
  182.1560  177.8040  140.7580 C   0  0  0  0  0  0  0  0  0  0  0  0
  180.9730  178.1230  141.0510 O   0  0  0  0  0  0  0  0  0  0  0  0
  183.1850  178.7650  142.8300 C   0  0  0  0  0  0  0  0  0  0  0  0
  186.7570  178.2060  142.3600 C   0  0  0  0  0  0  0  0  0  0  0  0
  187.5260  178.5500  141.2380 C   0  0  0  0  0  3  0  0  0  0  0  0
  190.8330  176.4750  144.4650 C   0  0  0  0  0  2  0  0  0  0  0  0
  187.4030  177.7220  143.5070 C   0  0  0  0  0  3  0  0  0  0  0  0
  190.9460  177.7800  142.4180 O   0  0  0  0  0  0  0  0  0  0  0  0
  189.5550  177.9340  142.4050 C   0  0  0  0  0  0  0  0  0  0  0  0
  188.9180  178.4140  141.2590 C   0  0  0  0  0  3  0  0  0  0  0  0
  188.7930  177.5760  143.5320 C   0  0  0  0  0  0  0  0  0  0  0  0
  191.6520  177.4480  143.6160 C   0  0  0  0  0  2  0  0  0  0  0  0
  189.4710  177.0960  144.7810 C   0  0  0  0  0  2  0  0  0  0  0  0
  182.4110  177.0180  139.5130 C   0  0  0  0  0  2  0  0  0  0  0  0
  182.9570  177.8830  138.4800 N   0  0  0  0  0  0  0  0  0  0  0  0
  184.2060  177.5400  137.8700 C   0  0  0  0  0  0  0  0  0  0  0  0
  184.9680  176.6910  137.0610 C   0  0  0  0  0  2  0  0  0  0  0  0
  185.6060  177.8000  137.6220 C   0  0  0  0  0  0  0  0  0  0  0  0
  186.7390  178.5800  137.8060 O   0  0  0  0  0  1  0  0  0  0  0  0
  181.9290  181.4710  138.6210 O   0  0  0  0  0  0  0  0  0  0  0  0
  182.3110  179.1010  138.2090 N   0  0  0  0  0  2  0  0  0  0  0  0
  183.9700  180.5250  139.0410 O   0  0  0  0  0  1  0  0  0  0  0  0
  182.7790  180.3740  138.6630 C   0  0  0  0  0  0  0  0  0  0  0  0
  184.8520  179.5040  144.6370 C   0  0  0  0  0  2  0  0  0  0  0  0
  184.8650  178.4540  145.7430 C   0  0  0  0  0  2  0  0  0  0  0  0
  186.8980  178.0830  147.1450 C   0  0  0  0  0  1  0  0  0  0  0  0
  185.6480  178.9230  146.9630 C   0  0  0  0  0  2  0  0  0  0  0  0
  1  2  1  0  0  0  0
  1  3  2  0  0  0  0
  2  8  1  0  0  0  0
  3  9  1  0  0  0  0
  3  4  1  0  0  0  0
  4 29  1  0  0  0  0
  6  7  2  0  0  0  0
  6  2  1  0  0  0  0
  8  4  2  0  0  0  0
  8  5  1  0  0  0  0
  9 12  1  0  0  0  0
 10 15  1  0  0  0  0
 10  9  2  0  0  0  0
 11 18  1  0  0  0  0
 12 16  2  0  0  0  0
 13 17  1  0  0  0  0
 14 13  1  0  0  0  0
 14 16  1  0  0  0  0
 15 14  2  0  0  0  0
 16 18  1  0  0  0  0
 17 11  1  0  0  0  0
 19  6  1  0  0  0  0
 20 19  1  0  0  0  0
 21 20  1  0  0  0  0
 22 23  1  0  0  0  0
 22 21  1  0  0  0  0
 23 24  1  0  0  0  0
 23 21  2  0  0  0  0
 25 28  2  0  0  0  0
 26 20  1  0  0  0  0
 26 28  1  0  0  0  0
 28 27  1  0  0  0  0
 29 30  1  0  0  0  0
 30 32  1  0  0  0  0
 32 31  1  0  0  0  0
M  END
>  <MODEL>
4

>  <REMARK>
 VINA RESULT:      -8.5      2.595      6.204
  Name = 
  8 active torsions:
  status: ('A' for Active; 'I' for Inactive)
    1  A    between atoms: C_2  and  C_5
    2  A    between atoms: C_3  and  N_20
    3  A    between atoms: C_13  and  C_18
    4  A    between atoms: C_13  and  C_29
    5  A    between atoms: C_14  and  C_18
    6  A    between atoms: N_15  and  N_20
    7  A    between atoms: C_16  and  N_20
    8  A    between atoms: C_16  and  C_24
                            x       y       z     vdW  Elec       q    Type
                         _______ _______ _______ _____ _____    ______ ____

>  <TORSDO>
F 8

$$$$
=
 OpenBabel10272413163D

 32 35  0  0  0  0  0  0  0  0999 V2000
  187.5270  177.5970  144.0720 N   0  0  0  0  0  0  0  0  0  0  0  0
  187.3700  177.6820  145.3850 N   0  0  0  0  0  0  0  0  0  0  0  0
  186.5270  178.2850  143.4790 C   0  0  0  0  0  0  0  0  0  0  0  0
  185.7010  178.8170  144.4640 C   0  0  0  0  0  0  0  0  0  0  0  0
  185.7560  178.7470  147.0200 C   0  0  0  0  0  1  0  0  0  0  0  0
  188.2690  177.0650  146.3220 C   0  0  0  0  0  0  0  0  0  0  0  0
  188.0480  177.1230  147.5600 O   0  0  0  0  0  0  0  0  0  0  0  0
  186.2700  178.4180  145.6560 C   0  0  0  0  0  0  0  0  0  0  0  0
  186.3890  178.4010  142.0120 C   0  0  0  0  0  0  0  0  0  0  0  0
  185.1360  178.5760  141.4060 C   0  0  0  0  0  3  0  0  0  0  0  0
  188.3390  177.9100  137.5400 C   0  0  0  0  0  2  0  0  0  0  0  0
  187.5320  178.3220  141.2020 C   0  0  0  0  0  3  0  0  0  0  0  0
  186.0500  178.6730  137.8220 O   0  0  0  0  0  0  0  0  0  0  0  0
  186.1650  178.5960  139.2160 C   0  0  0  0  0  0  0  0  0  0  0  0
  185.0230  178.6730  140.0150 C   0  0  0  0  0  3  0  0  0  0  0  0
  187.4260  178.4090  139.8110 C   0  0  0  0  0  0  0  0  0  0  0  0
  187.2000  178.7620  136.9790 C   0  0  0  0  0  2  0  0  0  0  0  0
  188.6630  178.3660  138.9640 C   0  0  0  0  0  2  0  0  0  0  0  0
  189.5060  176.3820  145.8340 C   0  0  0  0  0  2  0  0  0  0  0  0
  190.6290  177.3060  145.8600 N   0  0  0  0  0  0  0  0  0  0  0  0
  190.9070  178.1010  144.7030 C   0  0  0  0  0  0  0  0  0  0  0  0
  191.2310  179.3320  144.1260 C   0  0  0  0  0  2  0  0  0  0  0  0
  191.0650  178.2380  143.2720 C   0  0  0  0  0  0  0  0  0  0  0  0
  191.0600  177.6870  141.9990 O   0  0  0  0  0  1  0  0  0  0  0  0
  192.8690  176.1280  148.6070 O   0  0  0  0  0  1  0  0  0  0  0  0
  191.4880  177.2910  146.9720 N   0  0  0  0  0  2  0  0  0  0  0  0
  192.5530  175.2590  146.5130 O   0  0  0  0  0  0  0  0  0  0  0  0
  192.2990  176.1720  147.3410 C   0  0  0  0  0  0  0  0  0  0  0  0
  184.4850  179.6730  144.3030 C   0  0  0  0  0  2  0  0  0  0  0  0
  183.2070  178.8560  144.4670 C   0  0  0  0  0  2  0  0  0  0  0  0
  180.8260  178.6170  143.7520 C   0  0  0  0  0  1  0  0  0  0  0  0
  182.1890  179.1660  143.3770 C   0  0  0  0  0  2  0  0  0  0  0  0
  1  2  1  0  0  0  0
  2  8  1  0  0  0  0
  2  6  1  0  0  0  0
  3  1  2  0  0  0  0
  3  4  1  0  0  0  0
  4  8  2  0  0  0  0
  6  7  2  0  0  0  0
  8  5  1  0  0  0  0
  9  3  1  0  0  0  0
 10  9  1  0  0  0  0
 11 18  1  0  0  0  0
 12  9  2  0  0  0  0
 13 14  1  0  0  0  0
 14 16  2  0  0  0  0
 14 15  1  0  0  0  0
 15 10  2  0  0  0  0
 16 12  1  0  0  0  0
 17 11  1  0  0  0  0
 17 13  1  0  0  0  0
 18 16  1  0  0  0  0
 19 20  1  0  0  0  0
 19  6  1  0  0  0  0
 20 26  1  0  0  0  0
 21 20  1  0  0  0  0
 22 21  1  0  0  0  0
 23 22  1  0  0  0  0
 23 21  2  0  0  0  0
 24 23  1  0  0  0  0
 26 28  1  0  0  0  0
 27 28  2  0  0  0  0
 28 25  1  0  0  0  0
 29  4  1  0  0  0  0
 29 30  1  0  0  0  0
 32 31  1  0  0  0  0
 32 30  1  0  0  0  0
M  END
>  <MODEL>
5

>  <REMARK>
 VINA RESULT:      -8.3      3.064      6.864
  Name = 
  8 active torsions:
  status: ('A' for Active; 'I' for Inactive)
    1  A    between atoms: C_2  and  C_5
    2  A    between atoms: C_3  and  N_20
    3  A    between atoms: C_13  and  C_18
    4  A    between atoms: C_13  and  C_29
    5  A    between atoms: C_14  and  C_18
    6  A    between atoms: N_15  and  N_20
    7  A    between atoms: C_16  and  N_20
    8  A    between atoms: C_16  and  C_24
                            x       y       z     vdW  Elec       q    Type
                         _______ _______ _______ _____ _____    ______ ____

>  <TORSDO>
F 8

$$$$
=
 OpenBabel10272413163D

 32 35  0  0  0  0  0  0  0  0999 V2000
  188.5970  178.4120  142.6840 N   0  0  0  0  0  0  0  0  0  0  0  0
  189.8620  178.1030  142.4400 N   0  0  0  0  0  0  0  0  0  0  0  0
  187.8790  178.1810  141.5620 C   0  0  0  0  0  0  0  0  0  0  0  0
  188.7340  177.7160  140.5690 C   0  0  0  0  0  0  0  0  0  0  0  0
  191.2440  177.2290  140.5060 C   0  0  0  0  0  1  0  0  0  0  0  0
  190.9010  178.2240  143.4260 C   0  0  0  0  0  0  0  0  0  0  0  0
  192.1000  177.9730  143.1330 O   0  0  0  0  0  0  0  0  0  0  0  0
  189.9780  177.6750  141.1630 C   0  0  0  0  0  0  0  0  0  0  0  0
  186.4230  178.4210  141.4760 C   0  0  0  0  0  0  0  0  0  0  0  0
  185.8080  178.7570  140.2600 C   0  0  0  0  0  3  0  0  0  0  0  0
  182.1400  179.2310  143.7200 C   0  0  0  0  0  2  0  0  0  0  0  0
  185.6370  178.3230  142.6330 C   0  0  0  0  0  3  0  0  0  0  0  0
  182.2770  179.1420  141.2960 O   0  0  0  0  0  0  0  0  0  0  0  0
  183.6530  178.8890  141.3540 C   0  0  0  0  0  0  0  0  0  0  0  0
  184.4300  178.9910  140.1980 C   0  0  0  0  0  3  0  0  0  0  0  0
  184.2610  178.5640  142.5800 C   0  0  0  0  0  0  0  0  0  0  0  0
  181.4220  178.8930  142.4120 C   0  0  0  0  0  2  0  0  0  0  0  0
  183.4290  178.4130  143.8190 C   0  0  0  0  0  2  0  0  0  0  0  0
  190.5600  178.6080  144.8290 C   0  0  0  0  0  2  0  0  0  0  0  0
  190.0090  177.4640  145.5390 N   0  0  0  0  0  0  0  0  0  0  0  0
  188.7170  177.5750  146.1440 C   0  0  0  0  0  0  0  0  0  0  0  0
  187.3230  177.5940  146.0330 C   0  0  0  0  0  2  0  0  0  0  0  0
  187.8760  177.7430  147.3080 C   0  0  0  0  0  0  0  0  0  0  0  0
  187.7300  177.9190  148.6770 O   0  0  0  0  0  1  0  0  0  0  0  0
  192.7310  175.1980  146.7230 O   0  0  0  0  0  0  0  0  0  0  0  0
  190.8210  176.3320  145.7270 N   0  0  0  0  0  2  0  0  0  0  0  0
  191.6910  176.9180  147.8180 O   0  0  0  0  0  1  0  0  0  0  0  0
  191.7650  176.1920  146.7930 C   0  0  0  0  0  0  0  0  0  0  0  0
  188.4040  177.3010  139.1700 C   0  0  0  0  0  2  0  0  0  0  0  0
  188.7340  178.4050  138.1710 C   0  0  0  0  0  2  0  0  0  0  0  0
  190.2240  176.7850  136.9930 C   0  0  0  0  0  1  0  0  0  0  0  0
  189.1520  177.8430  136.8190 C   0  0  0  0  0  2  0  0  0  0  0  0
  2  1  1  0  0  0  0
  2  6  1  0  0  0  0
  3  1  2  0  0  0  0
  4  8  2  0  0  0  0
  4  3  1  0  0  0  0
  5  8  1  0  0  0  0
  6 19  1  0  0  0  0
  7  6  2  0  0  0  0
  8  2  1  0  0  0  0
  9  3  1  0  0  0  0
  9 12  1  0  0  0  0
 10  9  2  0  0  0  0
 11 18  1  0  0  0  0
 13 14  1  0  0  0  0
 13 17  1  0  0  0  0
 14 16  1  0  0  0  0
 15 10  1  0  0  0  0
 15 14  2  0  0  0  0
 16 12  2  0  0  0  0
 16 18  1  0  0  0  0
 17 11  1  0  0  0  0
 19 20  1  0  0  0  0
 20 26  1  0  0  0  0
 20 21  1  0  0  0  0
 21 23  2  0  0  0  0
 22 21  1  0  0  0  0
 22 23  1  0  0  0  0
 23 24  1  0  0  0  0
 25 28  2  0  0  0  0
 26 28  1  0  0  0  0
 28 27  1  0  0  0  0
 29  4  1  0  0  0  0
 30 29  1  0  0  0  0
 32 31  1  0  0  0  0
 32 30  1  0  0  0  0
M  END
>  <MODEL>
6

>  <REMARK>
 VINA RESULT:      -8.3      2.868      6.728
  Name = 
  8 active torsions:
  status: ('A' for Active; 'I' for Inactive)
    1  A    between atoms: C_2  and  C_5
    2  A    between atoms: C_3  and  N_20
    3  A    between atoms: C_13  and  C_18
    4  A    between atoms: C_13  and  C_29
    5  A    between atoms: C_14  and  C_18
    6  A    between atoms: N_15  and  N_20
    7  A    between atoms: C_16  and  N_20
    8  A    between atoms: C_16  and  C_24
                            x       y       z     vdW  Elec       q    Type
                         _______ _______ _______ _____ _____    ______ ____

>  <TORSDO>
F 8

$$$$
=
 OpenBabel10272413163D

 32 35  0  0  0  0  0  0  0  0999 V2000
  186.0600  177.6000  142.5830 N   0  0  0  0  0  0  0  0  0  0  0  0
  186.4220  177.7100  143.8530 N   0  0  0  0  0  0  0  0  0  0  0  0
  184.8920  178.2570  142.4160 C   0  0  0  0  0  0  0  0  0  0  0  0
  184.4990  178.7950  143.6370 C   0  0  0  0  0  0  0  0  0  0  0  0
  185.5410  178.7810  145.9720 C   0  0  0  0  0  1  0  0  0  0  0  0
  187.6290  177.1300  144.3760 C   0  0  0  0  0  0  0  0  0  0  0  0
  187.9040  177.2110  145.6030 O   0  0  0  0  0  0  0  0  0  0  0  0
  185.4950  178.4320  144.5200 C   0  0  0  0  0  0  0  0  0  0  0  0
  184.1940  178.3390  141.1150 C   0  0  0  0  0  0  0  0  0  0  0  0
  184.3770  179.4310  140.2540 C   0  0  0  0  0  3  0  0  0  0  0  0
  180.6830  176.7140  138.1020 C   0  0  0  0  0  2  0  0  0  0  0  0
  183.3190  177.3090  140.7350 C   0  0  0  0  0  3  0  0  0  0  0  0
  182.1410  178.5430  137.4430 O   0  0  0  0  0  0  0  0  0  0  0  0
  182.8330  178.4670  138.6580 C   0  0  0  0  0  0  0  0  0  0  0  0
  183.7000  179.4960  139.0310 C   0  0  0  0  0  3  0  0  0  0  0  0
  182.6330  177.3730  139.5190 C   0  0  0  0  0  0  0  0  0  0  0  0
  181.3730  177.4440  136.9490 C   0  0  0  0  0  2  0  0  0  0  0  0
  181.7350  176.2440  139.1100 C   0  0  0  0  0  2  0  0  0  0  0  0
  188.5970  176.4600  143.4560 C   0  0  0  0  0  2  0  0  0  0  0  0
  189.5100  177.4410  142.8910 N   0  0  0  0  0  0  0  0  0  0  0  0
  190.5140  178.0240  143.7290 C   0  0  0  0  0  0  0  0  0  0  0  0
  191.3360  179.1030  144.0650 C   0  0  0  0  0  2  0  0  0  0  0  0
  191.4290  177.9480  144.8460 C   0  0  0  0  0  0  0  0  0  0  0  0
  191.9810  177.2460  145.9080 O   0  0  0  0  0  1  0  0  0  0  0  0
  189.8880  178.0140  139.2200 O   0  0  0  0  0  0  0  0  0  0  0  0
  189.2900  177.8890  141.5770 N   0  0  0  0  0  2  0  0  0  0  0  0
  190.4390  176.1780  140.4710 O   0  0  0  0  0  1  0  0  0  0  0  0
  189.9170  177.3220  140.4230 C   0  0  0  0  0  0  0  0  0  0  0  0
  183.2940  179.6240  143.9490 C   0  0  0  0  0  2  0  0  0  0  0  0
  182.0240  178.7790  143.9530 C   0  0  0  0  0  2  0  0  0  0  0  0
  180.6110  179.2370  141.9450 C   0  0  0  0  0  1  0  0  0  0  0  0
  180.8260  179.5490  143.4140 C   0  0  0  0  0  2  0  0  0  0  0  0
  1  2  1  0  0  0  0
  2  6  1  0  0  0  0
  2  8  1  0  0  0  0
  3  1  2  0  0  0  0
  3  4  1  0  0  0  0
  4 29  1  0  0  0  0
  4  8  2  0  0  0  0
  6  7  2  0  0  0  0
  8  5  1  0  0  0  0
  9  3  1  0  0  0  0
 10  9  2  0  0  0  0
 11 18  1  0  0  0  0
 12  9  1  0  0  0  0
 13 14  1  0  0  0  0
 14 15  2  0  0  0  0
 14 16  1  0  0  0  0
 15 10  1  0  0  0  0
 16 12  2  0  0  0  0
 17 13  1  0  0  0  0
 17 11  1  0  0  0  0
 18 16  1  0  0  0  0
 19  6  1  0  0  0  0
 20 19  1  0  0  0  0
 20 21  1  0  0  0  0
 21 22  1  0  0  0  0
 21 23  2  0  0  0  0
 22 23  1  0  0  0  0
 23 24  1  0  0  0  0
 25 28  2  0  0  0  0
 26 20  1  0  0  0  0
 28 27  1  0  0  0  0
 28 26  1  0  0  0  0
 29 30  1  0  0  0  0
 31 32  1  0  0  0  0
 32 30  1  0  0  0  0
M  END
>  <MODEL>
7

>  <REMARK>
 VINA RESULT:      -8.2      2.476      5.315
  Name = 
  8 active torsions:
  status: ('A' for Active; 'I' for Inactive)
    1  A    between atoms: C_2  and  C_5
    2  A    between atoms: C_3  and  N_20
    3  A    between atoms: C_13  and  C_18
    4  A    between atoms: C_13  and  C_29
    5  A    between atoms: C_14  and  C_18
    6  A    between atoms: N_15  and  N_20
    7  A    between atoms: C_16  and  N_20
    8  A    between atoms: C_16  and  C_24
                            x       y       z     vdW  Elec       q    Type
                         _______ _______ _______ _____ _____    ______ ____

>  <TORSDO>
F 8

$$$$
=
 OpenBabel10272413163D

 32 35  0  0  0  0  0  0  0  0999 V2000
  185.8610  177.6630  142.4310 N   0  0  0  0  0  0  0  0  0  0  0  0
  186.2590  177.7610  143.6910 N   0  0  0  0  0  0  0  0  0  0  0  0
  184.6610  178.2740  142.3150 C   0  0  0  0  0  0  0  0  0  0  0  0
  184.2870  178.7690  143.5600 C   0  0  0  0  0  0  0  0  0  0  0  0
  185.4050  178.7490  145.8600 C   0  0  0  0  0  1  0  0  0  0  0  0
  187.5050  177.2200  144.1610 C   0  0  0  0  0  0  0  0  0  0  0  0
  187.8170  177.2870  145.3800 O   0  0  0  0  0  0  0  0  0  0  0  0
  185.3250  178.4290  144.4030 C   0  0  0  0  0  0  0  0  0  0  0  0
  183.9180  178.3530  141.0400 C   0  0  0  0  0  0  0  0  0  0  0  0
  184.1140  179.4150  140.1440 C   0  0  0  0  0  3  0  0  0  0  0  0
  180.2300  176.8080  138.2020 C   0  0  0  0  0  2  0  0  0  0  0  0
  182.9870  177.3540  140.7190 C   0  0  0  0  0  3  0  0  0  0  0  0
  181.7370  178.5560  137.4430 O   0  0  0  0  0  0  0  0  0  0  0  0
  182.4720  178.4810  138.6320 C   0  0  0  0  0  0  0  0  0  0  0  0
  183.3940  179.4800  138.9460 C   0  0  0  0  0  3  0  0  0  0  0  0
  182.2580  177.4170  139.5280 C   0  0  0  0  0  0  0  0  0  0  0  0
  180.9050  177.4790  137.0060 C   0  0  0  0  0  2  0  0  0  0  0  0
  181.2980  176.3180  139.1820 C   0  0  0  0  0  2  0  0  0  0  0  0
  188.4700  176.6110  143.1960 C   0  0  0  0  0  2  0  0  0  0  0  0
  189.1590  177.6540  142.4530 N   0  0  0  0  0  0  0  0  0  0  0  0
  189.0810  177.6620  141.0240 C   0  0  0  0  0  0  0  0  0  0  0  0
  189.6520  177.3910  139.7770 C   0  0  0  0  0  2  0  0  0  0  0  0
  188.3690  177.9440  139.7980 C   0  0  0  0  0  0  0  0  0  0  0  0
  187.2430  178.4140  139.1370 O   0  0  0  0  0  1  0  0  0  0  0  0
  191.9800  179.0400  144.4700 O   0  0  0  0  0  1  0  0  0  0  0  0
  189.9920  178.5420  143.1550 N   0  0  0  0  0  2  0  0  0  0  0  0
  191.9810  177.3250  142.9540 O   0  0  0  0  0  0  0  0  0  0  0  0
  191.3440  178.2500  143.5230 C   0  0  0  0  0  0  0  0  0  0  0  0
  183.0600  179.5410  143.9290 C   0  0  0  0  0  2  0  0  0  0  0  0
  181.8530  178.6210  144.0890 C   0  0  0  0  0  2  0  0  0  0  0  0
  179.9880  178.2440  142.4730 C   0  0  0  0  0  1  0  0  0  0  0  0
  180.5980  179.2160  143.4650 C   0  0  0  0  0  2  0  0  0  0  0  0
  1  2  1  0  0  0  0
  2  6  1  0  0  0  0
  2  8  1  0  0  0  0
  3  1  2  0  0  0  0
  3  4  1  0  0  0  0
  4 29  1  0  0  0  0
  4  8  2  0  0  0  0
  6  7  2  0  0  0  0
  8  5  1  0  0  0  0
  9  3  1  0  0  0  0
 10  9  2  0  0  0  0
 11 18  1  0  0  0  0
 12  9  1  0  0  0  0
 13 14  1  0  0  0  0
 14 15  2  0  0  0  0
 14 16  1  0  0  0  0
 15 10  1  0  0  0  0
 16 12  2  0  0  0  0
 17 13  1  0  0  0  0
 17 11  1  0  0  0  0
 18 16  1  0  0  0  0
 19  6  1  0  0  0  0
 20 26  1  0  0  0  0
 20 19  1  0  0  0  0
 21 20  1  0  0  0  0
 22 23  1  0  0  0  0
 22 21  1  0  0  0  0
 23 21  2  0  0  0  0
 24 23  1  0  0  0  0
 26 28  1  0  0  0  0
 27 28  2  0  0  0  0
 28 25  1  0  0  0  0
 29 30  1  0  0  0  0
 31 32  1  0  0  0  0
 32 30  1  0  0  0  0
M  END
>  <MODEL>
8

>  <REMARK>
 VINA RESULT:      -8.1      2.556      5.316
  Name = 
  8 active torsions:
  status: ('A' for Active; 'I' for Inactive)
    1  A    between atoms: C_2  and  C_5
    2  A    between atoms: C_3  and  N_20
    3  A    between atoms: C_13  and  C_18
    4  A    between atoms: C_13  and  C_29
    5  A    between atoms: C_14  and  C_18
    6  A    between atoms: N_15  and  N_20
    7  A    between atoms: C_16  and  N_20
    8  A    between atoms: C_16  and  C_24
                            x       y       z     vdW  Elec       q    Type
                         _______ _______ _______ _____ _____    ______ ____

>  <TORSDO>
F 8

$$$$
=
 OpenBabel10272413163D

 32 35  0  0  0  0  0  0  0  0999 V2000
  184.3950  177.9230  141.4970 N   0  0  0  0  0  0  0  0  0  0  0  0
  183.1420  178.2030  141.8270 N   0  0  0  0  0  0  0  0  0  0  0  0
  185.2000  178.3330  142.5020 C   0  0  0  0  0  0  0  0  0  0  0  0
  184.4180  178.9040  143.5000 C   0  0  0  0  0  0  0  0  0  0  0  0
  181.9000  179.2640  143.7610 C   0  0  0  0  0  1  0  0  0  0  0  0
  182.0230  177.8920  140.9800 C   0  0  0  0  0  0  0  0  0  0  0  0
  180.8540  178.2290  141.3080 O   0  0  0  0  0  0  0  0  0  0  0  0
  183.1230  178.7990  143.0390 C   0  0  0  0  0  0  0  0  0  0  0  0
  186.6700  178.1780  142.4690 C   0  0  0  0  0  0  0  0  0  0  0  0
  187.4060  178.4260  141.3010 C   0  0  0  0  0  3  0  0  0  0  0  0
  190.7850  176.5180  144.5560 C   0  0  0  0  0  2  0  0  0  0  0  0
  187.3460  177.7630  143.6260 C   0  0  0  0  0  3  0  0  0  0  0  0
  190.8510  177.6730  142.4190 O   0  0  0  0  0  0  0  0  0  0  0  0
  189.4620  177.8540  142.4400 C   0  0  0  0  0  0  0  0  0  0  0  0
  188.7950  178.2650  141.2850 C   0  0  0  0  0  3  0  0  0  0  0  0
  188.7340  177.5910  143.6150 C   0  0  0  0  0  0  0  0  0  0  0  0
  191.5910  177.4120  143.6130 C   0  0  0  0  0  2  0  0  0  0  0  0
  189.4460  177.1870  144.8720 C   0  0  0  0  0  2  0  0  0  0  0  0
  182.2310  177.1210  139.7170 C   0  0  0  0  0  2  0  0  0  0  0  0
  182.7360  178.0000  138.6740 N   0  0  0  0  0  0  0  0  0  0  0  0
  181.8250  178.8630  137.9860 C   0  0  0  0  0  0  0  0  0  0  0  0
  180.9420  179.1000  136.9290 C   0  0  0  0  0  2  0  0  0  0  0  0
  181.1300  180.1250  137.8600 C   0  0  0  0  0  0  0  0  0  0  0  0
  180.8540  181.4030  138.3250 O   0  0  0  0  0  1  0  0  0  0  0  0
  186.2520  178.8190  137.7170 O   0  0  0  0  0  0  0  0  0  0  0  0
  184.0790  177.8740  138.2790 N   0  0  0  0  0  2  0  0  0  0  0  0
  184.8580  179.8850  139.1870 O   0  0  0  0  0  1  0  0  0  0  0  0
  185.0520  178.9150  138.4080 C   0  0  0  0  0  0  0  0  0  0  0  0
  184.8500  179.4750  144.8140 C   0  0  0  0  0  2  0  0  0  0  0  0
  184.7280  178.4460  145.9340 C   0  0  0  0  0  2  0  0  0  0  0  0
  186.8940  178.0200  147.1010 C   0  0  0  0  0  1  0  0  0  0  0  0
  185.5960  178.8040  147.1330 C   0  0  0  0  0  2  0  0  0  0  0  0
  1  2  1  0  0  0  0
  1  3  2  0  0  0  0
  2  8  1  0  0  0  0
  3  4  1  0  0  0  0
  4 29  1  0  0  0  0
  6  7  2  0  0  0  0
  6  2  1  0  0  0  0
  8  4  2  0  0  0  0
  8  5  1  0  0  0  0
  9  3  1  0  0  0  0
  9 12  1  0  0  0  0
 10  9  2  0  0  0  0
 11 18  1  0  0  0  0
 13 14  1  0  0  0  0
 13 17  1  0  0  0  0
 14 16  1  0  0  0  0
 15 10  1  0  0  0  0
 15 14  2  0  0  0  0
 16 12  2  0  0  0  0
 16 18  1  0  0  0  0
 17 11  1  0  0  0  0
 19  6  1  0  0  0  0
 20 19  1  0  0  0  0
 21 20  1  0  0  0  0
 22 23  1  0  0  0  0
 22 21  1  0  0  0  0
 23 21  2  0  0  0  0
 23 24  1  0  0  0  0
 25 28  2  0  0  0  0
 26 28  1  0  0  0  0
 26 20  1  0  0  0  0
 28 27  1  0  0  0  0
 29 30  1  0  0  0  0
 30 32  1  0  0  0  0
 31 32  1  0  0  0  0
M  END
>  <MODEL>
9

>  <REMARK>
 VINA RESULT:      -8.1      2.549      6.807
  Name = 
  8 active torsions:
  status: ('A' for Active; 'I' for Inactive)
    1  A    between atoms: C_2  and  C_5
    2  A    between atoms: C_3  and  N_20
    3  A    between atoms: C_13  and  C_18
    4  A    between atoms: C_13  and  C_29
    5  A    between atoms: C_14  and  C_18
    6  A    between atoms: N_15  and  N_20
    7  A    between atoms: C_16  and  N_20
    8  A    between atoms: C_16  and  C_24
                            x       y       z     vdW  Elec       q    Type
                         _______ _______ _______ _____ _____    ______ ____

>  <TORSDO>
F 8

$$$$
