=
 OpenBabel10272414073D

 43 48  0  0  1  0  0  0  0  0999 V2000
  183.8610  177.7170  141.8760 N   0  0  0  0  0  0  0  0  0  0  0  0
  184.9440  178.4040  142.1310 C   0  0  0  0  0  0  0  0  0  0  0  0
  188.3690  178.0400  147.7550 C   0  0  0  0  0  0  0  0  0  0  0  0
  185.7860  178.0150  143.2950 C   0  0  0  0  0  0  0  0  0  0  0  0
  187.6350  177.5950  145.4860 C   0  0  0  0  0  0  0  0  0  0  0  0
  187.1550  178.6750  148.0270 C   0  0  0  0  0  3  0  0  0  0  0  0
  189.3130  177.9390  148.7210 F   0  0  0  0  0  0  0  0  0  0  0  0
  186.4100  178.2320  145.7600 C   0  0  0  0  0  0  0  0  0  0  0  0
  188.6050  177.4920  146.4900 C   0  0  0  0  0  3  0  0  0  0  0  0
  186.1780  178.7700  147.0330 C   0  0  0  0  0  3  0  0  0  0  0  0
  184.2360  178.7340  144.9710 O   0  0  0  0  0  0  0  0  0  0  0  0
  185.4040  178.3510  144.6910 C   0  0  0  0  0  0  0  0  0  0  0  0
  186.9530  177.3920  143.0740 C   0  0  0  0  0  3  0  0  0  0  0  0
  187.8730  176.9170  144.1680 C   0  0  0  0  0  2  0  0  0  0  0  0
  181.8040  177.3060  138.6090 C   0  0  0  0  0  2  0  0  0  0  0  0
  181.4720  178.7860  138.4880 C   0  0  2  0  0  3  0  0  0  0  0  0
  182.0910  178.9660  140.9090 C   0  0  0  0  0  3  0  0  0  0  0  0
  183.0150  177.1280  139.5220 C   0  0  0  0  0  2  0  0  0  0  0  0
  182.9180  177.9180  140.8120 C   0  0  0  0  0  0  0  0  0  0  0  0
  181.0610  179.2990  139.8650 C   0  0  0  0  0  2  0  0  0  0  0  0
  180.8850  179.3340  136.1270 C   0  0  0  0  0  1  0  0  0  0  0  0
  180.3390  178.9710  137.4950 C   0  0  0  0  0  2  0  0  0  0  0  0
  185.4330  179.4600  141.1870 C   0  0  0  0  0  2  0  0  0  0  0  0
  186.8490  178.4130  139.3850 C   0  0  0  0  0  0  0  0  0  0  0  0
  186.9490  177.8850  138.0680 N   0  0  0  0  0  0  0  0  0  0  0  0
  187.8720  178.4610  140.1180 O   0  0  0  0  0  0  0  0  0  0  0  0
  187.7070  177.2560  136.9490 C   0  0  2  0  0  3  0  0  0  0  0  0
  185.5910  178.8880  139.8590 N   0  0  0  0  0  2  0  0  0  0  0  0
  186.3680  177.5120  136.7450 C   0  0  0  0  0  2  0  0  0  0  0  0
  187.9270  175.7870  137.2680 C   0  0  0  0  0  2  0  0  0  0  0  0
  188.8700  175.2050  136.3240 N   0  0  0  0  0  0  0  0  0  0  0  0
  190.2990  173.2950  136.4960 C   0  0  0  0  0  2  0  0  0  0  0  0
  188.2140  174.1230  135.7080 N   0  0  0  0  0  2  0  0  0  0  0  0
  189.9740  174.6410  137.0920 C   0  0  1  0  0  3  0  0  0  0  0  0
  189.2220  173.1020  135.4660 C   0  0  0  0  0  2  0  0  0  0  0  0
  191.1700  175.5540  137.0740 C   0  0  0  0  0  0  0  0  0  0  0  0
  191.9910  175.7880  135.6650 S   0  0  0  0  0  0  0  0  0  0  0  0
  191.5740  176.2590  138.3140 C   0  0  0  0  0  0  0  0  0  0  0  0
  191.0440  177.2370  140.4660 C   0  0  0  0  0  3  0  0  0  0  0  0
  193.2840  177.2880  139.6870 C   0  0  0  0  0  3  0  0  0  0  0  0
  192.3500  177.5790  140.6310 N   0  0  0  0  0  0  0  0  0  0  0  0
  192.9140  176.6240  138.5160 C   0  0  0  0  0  3  0  0  0  0  0  0
  190.6340  176.5740  139.3070 C   0  0  0  0  0  3  0  0  0  0  0  0
  1  2  2  0  0  0  0
  2  4  1  0  0  0  0
  3  6  1  0  0  0  0
  3  7  1  0  0  0  0
  4 12  1  0  0  0  0
  5  8  2  0  0  0  0
  5  9  1  0  0  0  0
  8 10  1  0  0  0  0
  9  3  2  0  0  0  0
 10  6  2  0  0  0  0
 12 11  2  0  0  0  0
 12  8  1  0  0  0  0
 13  4  2  0  0  0  0
 13 14  1  0  0  0  0
 14  5  1  0  0  0  0
 15 18  1  0  0  0  0
 16 22  1  6  0  0  0
 16 15  1  0  0  0  0
 16 20  1  0  0  0  0
 18 19  1  0  0  0  0
 19 17  2  0  0  0  0
 19  1  1  0  0  0  0
 20 17  1  0  0  0  0
 21 22  1  0  0  0  0
 23  2  1  0  0  0  0
 24 28  1  0  0  0  0
 24 26  2  0  0  0  0
 25 24  1  0  0  0  0
 27 30  1  1  0  0  0
 27 25  1  0  0  0  0
 28 23  1  0  0  0  0
 29 27  1  0  0  0  0
 29 25  1  0  0  0  0
 31 34  1  0  0  0  0
 31 30  1  0  0  0  0
 32 34  1  0  0  0  0
 33 31  1  0  0  0  0
 34 36  1  6  0  0  0
 35 33  1  0  0  0  0
 35 32  1  0  0  0  0
 36 38  1  0  0  0  0
 37 36  2  0  0  0  0
 38 42  2  0  0  0  0
 38 43  1  0  0  0  0
 39 41  1  0  0  0  0
 40 41  2  0  0  0  0
 42 40  1  0  0  0  0
 43 39  2  0  0  0  0
M  END
>  <MODEL>
1

>  <REMARK>
 VINA RESULT:      -9.2      0.000      0.000
  Name = 
  9 active torsions:
  status: ('A' for Active; 'I' for Inactive)
    1  A    between atoms: N_1  and  C_35
    2  A    between atoms: C_3  and  N_4
    3  A    between atoms: C_3  and  C_12
    4  A    between atoms: C_8  and  C_34
    5  A    between atoms: C_11  and  C_14
    6  A    between atoms: N_13  and  C_38
    7  A    between atoms: C_14  and  C_22
    8  A    between atoms: C_19  and  C_37
    9  A    between atoms: C_34  and  C_38
                            x       y       z     vdW  Elec       q    Type
                         _______ _______ _______ _____ _____    ______ ____

>  <TORSDO>
F 9

$$$$
=
 OpenBabel10272414073D

 43 48  0  0  1  0  0  0  0  0999 V2000
  190.8170  175.4520  136.6170 N   0  0  0  0  0  0  0  0  0  0  0  0
  190.1100  176.3100  137.3050 C   0  0  0  0  0  0  0  0  0  0  0  0
  183.5820  177.0370  137.8900 C   0  0  0  0  0  0  0  0  0  0  0  0
  188.6310  176.3140  137.1480 C   0  0  0  0  0  0  0  0  0  0  0  0
  185.7370  176.1580  137.2100 C   0  0  0  0  0  0  0  0  0  0  0  0
  184.1870  178.2370  138.2720 C   0  0  0  0  0  3  0  0  0  0  0  0
  182.2430  176.8810  138.0270 F   0  0  0  0  0  0  0  0  0  0  0  0
  186.3480  177.3670  137.5910 C   0  0  0  0  0  0  0  0  0  0  0  0
  184.3540  176.0030  137.3500 C   0  0  0  0  0  3  0  0  0  0  0  0
  185.5660  178.4020  138.1220 C   0  0  0  0  0  3  0  0  0  0  0  0
  188.3400  178.6460  137.6010 O   0  0  0  0  0  0  0  0  0  0  0  0
  187.8080  177.5130  137.4560 C   0  0  0  0  0  0  0  0  0  0  0  0
  188.0140  175.1840  136.7690 C   0  0  0  0  0  3  0  0  0  0  0  0
  186.5290  175.0720  136.5400 C   0  0  0  0  0  2  0  0  0  0  0  0
  194.6130  175.8780  135.9200 C   0  0  0  0  0  2  0  0  0  0  0  0
  194.9530  174.4240  136.2130 C   0  0  2  0  0  3  0  0  0  0  0  0
  192.7440  174.3030  137.3890 C   0  0  0  0  0  3  0  0  0  0  0  0
  193.1210  176.0010  135.6200 C   0  0  0  0  0  2  0  0  0  0  0  0
  192.2430  175.2780  136.6210 C   0  0  0  0  0  0  0  0  0  0  0  0
  194.2140  174.0050  137.4820 C   0  0  0  0  0  2  0  0  0  0  0  0
  196.8010  174.2690  137.8800 C   0  0  0  0  0  1  0  0  0  0  0  0
  196.4530  174.2840  136.4040 C   0  0  0  0  0  2  0  0  0  0  0  0
  190.7430  177.1690  138.3580 C   0  0  0  0  0  2  0  0  0  0  0  0
  191.0110  177.0810  140.8620 C   0  0  0  0  0  0  0  0  0  0  0  0
  190.5570  176.5930  142.1180 N   0  0  0  0  0  0  0  0  0  0  0  0
  192.0270  177.8230  140.8100 O   0  0  0  0  0  0  0  0  0  0  0  0
  190.6340  176.4890  143.6040 C   0  0  2  0  0  3  0  0  0  0  0  0
  190.3120  176.7200  139.6720 N   0  0  0  0  0  2  0  0  0  0  0  0
  189.6200  175.8040  142.9700 C   0  0  0  0  0  2  0  0  0  0  0  0
  190.1070  177.7760  144.2140 C   0  0  0  0  0  2  0  0  0  0  0  0
  190.3650  177.7940  145.6470 N   0  0  0  0  0  0  0  0  0  0  0  0
  190.1500  176.0890  147.3100 C   0  0  0  0  0  2  0  0  0  0  0  0
  191.6350  177.2200  145.8390 N   0  0  0  0  0  2  0  0  0  0  0  0
  189.4030  176.8990  146.2810 C   0  0  1  0  0  3  0  0  0  0  0  0
  191.5820  176.4890  147.0950 C   0  0  0  0  0  2  0  0  0  0  0  0
  188.2720  177.6720  146.9040 C   0  0  0  0  0  0  0  0  0  0  0  0
  188.4130  178.2090  148.4550 S   0  0  0  0  0  0  0  0  0  0  0  0
  187.0600  177.9720  146.1040 C   0  0  0  0  0  0  0  0  0  0  0  0
  185.8340  177.9280  144.0150 C   0  0  0  0  0  3  0  0  0  0  0  0
  184.8200  178.8780  145.9380 C   0  0  0  0  0  3  0  0  0  0  0  0
  184.7820  178.5390  144.6220 N   0  0  0  0  0  0  0  0  0  0  0  0
  185.9570  178.6000  146.7000 C   0  0  0  0  0  3  0  0  0  0  0  0
  186.9890  177.6350  144.7430 C   0  0  0  0  0  3  0  0  0  0  0  0
  1 19  1  0  0  0  0
  1  2  2  0  0  0  0
  2 23  1  0  0  0  0
  3  7  1  0  0  0  0
  3  6  1  0  0  0  0
  4  2  1  0  0  0  0
  4 12  1  0  0  0  0
  5  9  1  0  0  0  0
  5  8  2  0  0  0  0
  8 10  1  0  0  0  0
  9  3  2  0  0  0  0
 10  6  2  0  0  0  0
 12  8  1  0  0  0  0
 12 11  2  0  0  0  0
 13  4  2  0  0  0  0
 14 13  1  0  0  0  0
 14  5  1  0  0  0  0
 15 16  1  0  0  0  0
 16 22  1  1  0  0  0
 16 20  1  0  0  0  0
 17 20  1  0  0  0  0
 18 15  1  0  0  0  0
 18 19  1  0  0  0  0
 19 17  2  0  0  0  0
 22 21  1  0  0  0  0
 23 28  1  0  0  0  0
 24 25  1  0  0  0  0
 25 29  1  0  0  0  0
 25 27  1  0  0  0  0
 26 24  2  0  0  0  0
 27 30  1  1  0  0  0
 28 24  1  0  0  0  0
 29 27  1  0  0  0  0
 30 31  1  0  0  0  0
 31 33  1  0  0  0  0
 31 34  1  0  0  0  0
 33 35  1  0  0  0  0
 34 36  1  1  0  0  0
 34 32  1  0  0  0  0
 35 32  1  0  0  0  0
 36 37  2  0  0  0  0
 38 42  1  0  0  0  0
 38 36  1  0  0  0  0
 39 41  2  0  0  0  0
 39 43  1  0  0  0  0
 40 42  2  0  0  0  0
 41 40  1  0  0  0  0
 43 38  2  0  0  0  0
M  END
>  <MODEL>
2

>  <REMARK>
 VINA RESULT:      -9.1      3.846     10.027
  Name = 
  9 active torsions:
  status: ('A' for Active; 'I' for Inactive)
    1  A    between atoms: N_1  and  C_35
    2  A    between atoms: C_3  and  N_4
    3  A    between atoms: C_3  and  C_12
    4  A    between atoms: C_8  and  C_34
    5  A    between atoms: C_11  and  C_14
    6  A    between atoms: N_13  and  C_38
    7  A    between atoms: C_14  and  C_22
    8  A    between atoms: C_19  and  C_37
    9  A    between atoms: C_34  and  C_38
                            x       y       z     vdW  Elec       q    Type
                         _______ _______ _______ _____ _____    ______ ____

>  <TORSDO>
F 9

$$$$
=
 OpenBabel10272414073D

 43 48  0  0  1  0  0  0  0  0999 V2000
  190.0580  176.8200  140.8360 N   0  0  0  0  0  0  0  0  0  0  0  0
  189.3260  177.6350  141.5490 C   0  0  0  0  0  0  0  0  0  0  0  0
  188.2560  177.9450  148.0490 C   0  0  0  0  0  0  0  0  0  0  0  0
  189.3630  177.5280  143.0320 C   0  0  0  0  0  0  0  0  0  0  0  0
  189.4030  177.7220  145.9230 C   0  0  0  0  0  0  0  0  0  0  0  0
  187.0340  177.6920  147.4200 C   0  0  0  0  0  3  0  0  0  0  0  0
  188.2970  178.1700  149.3840 F   0  0  0  0  0  0  0  0  0  0  0  0
  188.1740  177.4630  145.2900 C   0  0  0  0  0  0  0  0  0  0  0  0
  189.4400  177.9490  147.3030 C   0  0  0  0  0  3  0  0  0  0  0  0
  186.9930  177.4500  146.0440 C   0  0  0  0  0  3  0  0  0  0  0  0
  187.0930  176.8150  143.2860 O   0  0  0  0  0  0  0  0  0  0  0  0
  188.1440  177.2420  143.8330 C   0  0  0  0  0  0  0  0  0  0  0  0
  190.5210  177.7510  143.6710 C   0  0  0  0  0  3  0  0  0  0  0  0
  190.6960  177.6370  145.1620 C   0  0  0  0  0  2  0  0  0  0  0  0
  189.2490  176.8790  137.0400 C   0  0  0  0  0  2  0  0  0  0  0  0
  190.4030  175.9640  136.6560 C   0  0  2  0  0  3  0  0  0  0  0  0
  191.3850  176.5190  138.8930 C   0  0  0  0  0  3  0  0  0  0  0  0
  188.9390  176.7130  138.5250 C   0  0  0  0  0  2  0  0  0  0  0  0
  190.1720  176.7550  139.4060 C   0  0  0  0  0  0  0  0  0  0  0  0
  191.6460  176.4180  137.4160 C   0  0  0  0  0  2  0  0  0  0  0  0
  192.1200  175.9600  134.8490 C   0  0  0  0  0  1  0  0  0  0  0  0
  190.6390  176.0480  135.1590 C   0  0  0  0  0  2  0  0  0  0  0  0
  188.5820  178.7690  140.9090 C   0  0  0  0  0  2  0  0  0  0  0  0
  186.1180  178.6850  140.3860 C   0  0  0  0  0  0  0  0  0  0  0  0
  184.7750  178.6750  140.8520 N   0  0  0  0  0  0  0  0  0  0  0  0
  186.3510  178.6590  139.1490 O   0  0  0  0  0  0  0  0  0  0  0  0
  183.3000  178.6210  140.6390 C   0  0  2  0  0  3  0  0  0  0  0  0
  187.1900  178.7310  141.3270 N   0  0  0  0  0  2  0  0  0  0  0  0
  183.7520  178.6870  141.9390 C   0  0  0  0  0  2  0  0  0  0  0  0
  182.9070  177.1980  140.2820 C   0  0  0  0  0  2  0  0  0  0  0  0
  182.1730  177.1810  139.0250 N   0  0  0  0  0  0  0  0  0  0  0  0
  181.0660  175.4040  137.8680 C   0  0  0  0  0  2  0  0  0  0  0  0
  180.8060  177.2430  139.3510 N   0  0  0  0  0  2  0  0  0  0  0  0
  182.3930  175.8810  138.4010 C   0  0  1  0  0  3  0  0  0  0  0  0
  180.0990  176.4420  138.3630 C   0  0  0  0  0  2  0  0  0  0  0  0
  183.4250  175.9710  137.3090 C   0  0  0  0  0  0  0  0  0  0  0  0
  183.3470  177.2050  136.2190 S   0  0  0  0  0  0  0  0  0  0  0  0
  184.5180  174.9720  137.2470 C   0  0  0  0  0  0  0  0  0  0  0  0
  186.7880  174.3440  136.6790 C   0  0  0  0  0  3  0  0  0  0  0  0
  185.3470  172.7330  137.6550 C   0  0  0  0  0  3  0  0  0  0  0  0
  186.5540  173.0870  137.1410 N   0  0  0  0  0  0  0  0  0  0  0  0
  184.3110  173.6670  137.7170 C   0  0  0  0  0  3  0  0  0  0  0  0
  185.7770  175.3060  136.7230 C   0  0  0  0  0  3  0  0  0  0  0  0
  1  2  2  0  0  0  0
  2  4  1  0  0  0  0
  3  7  1  0  0  0  0
  4 13  2  0  0  0  0
  4 12  1  0  0  0  0
  5  9  1  0  0  0  0
  6  3  1  0  0  0  0
  8  5  2  0  0  0  0
  8 10  1  0  0  0  0
  9  3  2  0  0  0  0
 10  6  2  0  0  0  0
 11 12  2  0  0  0  0
 12  8  1  0  0  0  0
 13 14  1  0  0  0  0
 14  5  1  0  0  0  0
 15 18  1  0  0  0  0
 16 22  1  6  0  0  0
 16 15  1  0  0  0  0
 16 20  1  0  0  0  0
 17 19  2  0  0  0  0
 18 19  1  0  0  0  0
 19  1  1  0  0  0  0
 20 17  1  0  0  0  0
 21 22  1  0  0  0  0
 23 28  1  0  0  0  0
 23  2  1  0  0  0  0
 24 25  1  0  0  0  0
 24 28  1  0  0  0  0
 25 29  1  0  0  0  0
 26 24  2  0  0  0  0
 27 30  1  1  0  0  0
 27 25  1  0  0  0  0
 27 29  1  0  0  0  0
 31 33  1  0  0  0  0
 31 30  1  0  0  0  0
 32 35  1  0  0  0  0
 32 34  1  0  0  0  0
 34 36  1  6  0  0  0
 34 31  1  0  0  0  0
 35 33  1  0  0  0  0
 37 36  2  0  0  0  0
 38 36  1  0  0  0  0
 38 42  1  0  0  0  0
 39 43  1  0  0  0  0
 39 41  2  0  0  0  0
 40 42  2  0  0  0  0
 41 40  1  0  0  0  0
 43 38  2  0  0  0  0
M  END
>  <MODEL>
3

>  <REMARK>
 VINA RESULT:      -9.1      2.485      6.625
  Name = 
  9 active torsions:
  status: ('A' for Active; 'I' for Inactive)
    1  A    between atoms: N_1  and  C_35
    2  A    between atoms: C_3  and  N_4
    3  A    between atoms: C_3  and  C_12
    4  A    between atoms: C_8  and  C_34
    5  A    between atoms: C_11  and  C_14
    6  A    between atoms: N_13  and  C_38
    7  A    between atoms: C_14  and  C_22
    8  A    between atoms: C_19  and  C_37
    9  A    between atoms: C_34  and  C_38
                            x       y       z     vdW  Elec       q    Type
                         _______ _______ _______ _____ _____    ______ ____

>  <TORSDO>
F 9

$$$$
=
 OpenBabel10272414073D

 43 48  0  0  1  0  0  0  0  0999 V2000
  188.7080  177.5960  140.6520 N   0  0  0  0  0  0  0  0  0  0  0  0
  189.8140  177.3820  141.3160 C   0  0  0  0  0  0  0  0  0  0  0  0
  188.5070  177.8360  147.7640 C   0  0  0  0  0  0  0  0  0  0  0  0
  189.7510  177.2500  142.7970 C   0  0  0  0  0  0  0  0  0  0  0  0
  189.6850  177.3940  145.6900 C   0  0  0  0  0  0  0  0  0  0  0  0
  187.2930  177.8630  147.0720 C   0  0  0  0  0  3  0  0  0  0  0  0
  188.5270  178.0290  149.1040 F   0  0  0  0  0  0  0  0  0  0  0  0
  188.4630  177.4180  144.9940 C   0  0  0  0  0  0  0  0  0  0  0  0
  189.6990  177.5910  147.0760 C   0  0  0  0  0  3  0  0  0  0  0  0
  187.2700  177.6540  145.6910 C   0  0  0  0  0  3  0  0  0  0  0  0
  187.3710  177.0470  142.9260 O   0  0  0  0  0  0  0  0  0  0  0  0
  188.4600  177.2270  143.5330 C   0  0  0  0  0  0  0  0  0  0  0  0
  190.8970  177.2070  143.4940 C   0  0  0  0  0  3  0  0  0  0  0  0
  190.9650  177.0390  144.9900 C   0  0  0  0  0  2  0  0  0  0  0  0
  188.9620  178.9000  137.0040 C   0  0  0  0  0  2  0  0  0  0  0  0
  187.6260  178.3130  136.5730 C   0  0  2  0  0  3  0  0  0  0  0  0
  187.7910  176.8460  138.5970 C   0  0  0  0  0  3  0  0  0  0  0  0
  189.0030  179.0090  138.5270 C   0  0  0  0  0  2  0  0  0  0  0  0
  188.5460  177.7490  139.2330 C   0  0  0  0  0  0  0  0  0  0  0  0
  187.5300  176.8900  137.1170 C   0  0  0  0  0  2  0  0  0  0  0  0
  187.0810  176.9500  134.5570 C   0  0  0  0  0  1  0  0  0  0  0  0
  187.5430  178.3060  135.0570 C   0  0  0  0  0  2  0  0  0  0  0  0
  191.1050  177.1100  140.6050 C   0  0  0  0  0  2  0  0  0  0  0  0
  191.7280  175.9560  138.4530 C   0  0  0  0  0  0  0  0  0  0  0  0
  191.4640  174.9350  137.4990 N   0  0  0  0  0  0  0  0  0  0  0  0
  192.6870  176.7500  138.2690 O   0  0  0  0  0  0  0  0  0  0  0  0
  191.7620  174.1870  136.2440 C   0  0  2  0  0  3  0  0  0  0  0  0
  190.8990  176.0710  139.6080 N   0  0  0  0  0  2  0  0  0  0  0  0
  190.6840  173.7680  136.9920 C   0  0  0  0  0  2  0  0  0  0  0  0
  192.9610  173.2850  136.4820 C   0  0  0  0  0  2  0  0  0  0  0  0
  194.1870  174.0690  136.4820 N   0  0  0  0  0  0  0  0  0  0  0  0
  196.1100  173.9910  135.0620 C   0  0  0  0  0  2  0  0  0  0  0  0
  194.0340  175.0630  135.4980 N   0  0  0  0  0  2  0  0  0  0  0  0
  195.2690  173.2000  136.0310 C   0  0  1  0  0  3  0  0  0  0  0  0
  195.3450  175.2740  134.9030 C   0  0  0  0  0  2  0  0  0  0  0  0
  196.0860  172.7050  137.1940 C   0  0  0  0  0  0  0  0  0  0  0  0
  196.3680  171.0900  137.3570 S   0  0  0  0  0  0  0  0  0  0  0  0
  196.6560  173.6770  138.1570 C   0  0  0  0  0  0  0  0  0  0  0  0
  198.4960  175.0260  138.9710 C   0  0  0  0  0  3  0  0  0  0  0  0
  196.4120  175.1010  140.1020 C   0  0  0  0  0  3  0  0  0  0  0  0
  197.7060  175.4990  139.9700 N   0  0  0  0  0  0  0  0  0  0  0  0
  195.8660  174.1860  139.1990 C   0  0  0  0  0  3  0  0  0  0  0  0
  197.9870  174.1090  138.0490 C   0  0  0  0  0  3  0  0  0  0  0  0
  1  2  2  0  0  0  0
  2  4  1  0  0  0  0
  3  7  1  0  0  0  0
  4 13  2  0  0  0  0
  4 12  1  0  0  0  0
  5  9  2  0  0  0  0
  6  3  2  0  0  0  0
  8  5  1  0  0  0  0
  8 10  2  0  0  0  0
  9  3  1  0  0  0  0
 10  6  1  0  0  0  0
 11 12  2  0  0  0  0
 12  8  1  0  0  0  0
 13 14  1  0  0  0  0
 14  5  1  0  0  0  0
 15 18  1  0  0  0  0
 16 22  1  6  0  0  0
 16 15  1  0  0  0  0
 16 20  1  0  0  0  0
 17 19  2  0  0  0  0
 18 19  1  0  0  0  0
 19  1  1  0  0  0  0
 20 17  1  0  0  0  0
 21 22  1  0  0  0  0
 23  2  1  0  0  0  0
 24 28  1  0  0  0  0
 25 24  1  0  0  0  0
 26 24  2  0  0  0  0
 27 30  1  1  0  0  0
 27 29  1  0  0  0  0
 27 25  1  0  0  0  0
 28 23  1  0  0  0  0
 29 25  1  0  0  0  0
 31 30  1  0  0  0  0
 32 34  1  0  0  0  0
 33 31  1  0  0  0  0
 34 31  1  0  0  0  0
 34 36  1  1  0  0  0
 35 32  1  0  0  0  0
 35 33  1  0  0  0  0
 36 37  2  0  0  0  0
 36 38  1  0  0  0  0
 38 42  1  0  0  0  0
 39 41  2  0  0  0  0
 41 40  1  0  0  0  0
 42 40  2  0  0  0  0
 43 38  2  0  0  0  0
 43 39  1  0  0  0  0
M  END
>  <MODEL>
4

>  <REMARK>
 VINA RESULT:      -8.9      3.590      5.372
  Name = 
  9 active torsions:
  status: ('A' for Active; 'I' for Inactive)
    1  A    between atoms: N_1  and  C_35
    2  A    between atoms: C_3  and  N_4
    3  A    between atoms: C_3  and  C_12
    4  A    between atoms: C_8  and  C_34
    5  A    between atoms: C_11  and  C_14
    6  A    between atoms: N_13  and  C_38
    7  A    between atoms: C_14  and  C_22
    8  A    between atoms: C_19  and  C_37
    9  A    between atoms: C_34  and  C_38
                            x       y       z     vdW  Elec       q    Type
                         _______ _______ _______ _____ _____    ______ ____

>  <TORSDO>
F 9

$$$$
=
 OpenBabel10272414073D

 43 48  0  0  1  0  0  0  0  0999 V2000
  190.3670  176.3580  139.8550 N   0  0  0  0  0  0  0  0  0  0  0  0
  189.6070  177.3600  140.2100 C   0  0  0  0  0  0  0  0  0  0  0  0
  189.0660  177.0920  146.7770 C   0  0  0  0  0  0  0  0  0  0  0  0
  189.2340  177.5090  141.6420 C   0  0  0  0  0  0  0  0  0  0  0  0
  188.4890  177.3960  144.4410 C   0  0  0  0  0  0  0  0  0  0  0  0
  190.4230  177.1810  146.4570 C   0  0  0  0  0  3  0  0  0  0  0  0
  188.6840  176.9090  148.0630 F   0  0  0  0  0  0  0  0  0  0  0  0
  189.8550  177.4900  144.1180 C   0  0  0  0  0  0  0  0  0  0  0  0
  188.1000  177.2100  145.7720 C   0  0  0  0  0  3  0  0  0  0  0  0
  190.8170  177.3810  145.1320 C   0  0  0  0  0  3  0  0  0  0  0  0
  191.4490  177.9520  142.4300 O   0  0  0  0  0  0  0  0  0  0  0  0
  190.2550  177.6680  142.7110 C   0  0  0  0  0  0  0  0  0  0  0  0
  187.9390  177.4430  141.9870 C   0  0  0  0  0  3  0  0  0  0  0  0
  187.4330  177.6160  143.3950 C   0  0  0  0  0  2  0  0  0  0  0  0
  190.5830  175.0920  136.1910 C   0  0  0  0  0  2  0  0  0  0  0  0
  192.0890  174.8710  136.2280 C   0  0  2  0  0  3  0  0  0  0  0  0
  192.1040  176.3660  138.2390 C   0  0  0  0  0  3  0  0  0  0  0  0
  190.0400  175.1380  137.6170 C   0  0  0  0  0  2  0  0  0  0  0  0
  190.8430  176.0320  138.5390 C   0  0  0  0  0  0  0  0  0  0  0  0
  192.7330  176.0780  136.9040 C   0  0  0  0  0  2  0  0  0  0  0  0
  193.2950  175.9920  134.3560 C   0  0  0  0  0  1  0  0  0  0  0  0
  192.6120  174.7170  134.8120 C   0  0  0  0  0  2  0  0  0  0  0  0
  189.2420  178.4400  139.2360 C   0  0  0  0  0  2  0  0  0  0  0  0
  186.8860  178.0720  138.4230 C   0  0  0  0  0  0  0  0  0  0  0  0
  185.5020  178.3780  138.5250 N   0  0  0  0  0  0  0  0  0  0  0  0
  187.2820  177.2560  137.5490 O   0  0  0  0  0  0  0  0  0  0  0  0
  184.0760  178.2180  138.1160 C   0  0  2  0  0  3  0  0  0  0  0  0
  187.8130  178.6960  139.3090 N   0  0  0  0  0  2  0  0  0  0  0  0
  184.3480  179.0960  139.1430 C   0  0  0  0  0  2  0  0  0  0  0  0
  183.5530  176.9020  138.6630 C   0  0  0  0  0  2  0  0  0  0  0  0
  182.3850  176.4740  137.9070 N   0  0  0  0  0  0  0  0  0  0  0  0
  180.7890  174.7390  138.3140 C   0  0  0  0  0  2  0  0  0  0  0  0
  181.2640  177.0590  138.5230 N   0  0  0  0  0  2  0  0  0  0  0  0
  182.2490  175.0310  138.0790 C   0  0  1  0  0  3  0  0  0  0  0  0
  180.1710  176.1060  138.4050 C   0  0  0  0  0  2  0  0  0  0  0  0
  182.7730  174.2900  136.8790 C   0  0  0  0  0  0  0  0  0  0  0  0
  181.7260  173.8130  135.6990 S   0  0  0  0  0  0  0  0  0  0  0  0
  184.2270  174.0290  136.7540 C   0  0  0  0  0  0  0  0  0  0  0  0
  186.3650  174.4070  135.6800 C   0  0  0  0  0  3  0  0  0  0  0  0
  186.2310  172.8910  137.4990 C   0  0  0  0  0  3  0  0  0  0  0  0
  186.9500  173.5290  136.5370 N   0  0  0  0  0  0  0  0  0  0  0  0
  184.8610  173.1300  137.6240 C   0  0  0  0  0  3  0  0  0  0  0  0
  184.9970  174.6720  135.7720 C   0  0  0  0  0  3  0  0  0  0  0  0
  1  2  2  0  0  0  0
  2  4  1  0  0  0  0
  3  7  1  0  0  0  0
  4 13  2  0  0  0  0
  4 12  1  0  0  0  0
  5  9  1  0  0  0  0
  6  3  1  0  0  0  0
  8  5  2  0  0  0  0
  8 10  1  0  0  0  0
  9  3  2  0  0  0  0
 10  6  2  0  0  0  0
 11 12  2  0  0  0  0
 12  8  1  0  0  0  0
 13 14  1  0  0  0  0
 14  5  1  0  0  0  0
 15 16  1  0  0  0  0
 15 18  1  0  0  0  0
 16 22  1  6  0  0  0
 16 20  1  0  0  0  0
 17 19  2  0  0  0  0
 18 19  1  0  0  0  0
 19  1  1  0  0  0  0
 20 17  1  0  0  0  0
 21 22  1  0  0  0  0
 23 28  1  0  0  0  0
 23  2  1  0  0  0  0
 24 25  1  0  0  0  0
 24 28  1  0  0  0  0
 25 29  1  0  0  0  0
 26 24  2  0  0  0  0
 27 25  1  0  0  0  0
 27 30  1  1  0  0  0
 27 29  1  0  0  0  0
 31 34  1  0  0  0  0
 31 33  1  0  0  0  0
 31 30  1  0  0  0  0
 32 35  1  0  0  0  0
 34 36  1  6  0  0  0
 34 32  1  0  0  0  0
 35 33  1  0  0  0  0
 37 36  2  0  0  0  0
 38 36  1  0  0  0  0
 38 42  1  0  0  0  0
 39 43  1  0  0  0  0
 39 41  2  0  0  0  0
 40 42  2  0  0  0  0
 41 40  1  0  0  0  0
 43 38  2  0  0  0  0
M  END
>  <MODEL>
5

>  <REMARK>
 VINA RESULT:      -8.9      2.888      7.184
  Name = 
  9 active torsions:
  status: ('A' for Active; 'I' for Inactive)
    1  A    between atoms: N_1  and  C_35
    2  A    between atoms: C_3  and  N_4
    3  A    between atoms: C_3  and  C_12
    4  A    between atoms: C_8  and  C_34
    5  A    between atoms: C_11  and  C_14
    6  A    between atoms: N_13  and  C_38
    7  A    between atoms: C_14  and  C_22
    8  A    between atoms: C_19  and  C_37
    9  A    between atoms: C_34  and  C_38
                            x       y       z     vdW  Elec       q    Type
                         _______ _______ _______ _____ _____    ______ ____

>  <TORSDO>
F 9

$$$$
=
 OpenBabel10272414073D

 43 48  0  0  1  0  0  0  0  0999 V2000
  190.2970  176.4710  139.9800 N   0  0  0  0  0  0  0  0  0  0  0  0
  189.4870  177.4250  140.3610 C   0  0  0  0  0  0  0  0  0  0  0  0
  189.2460  177.1580  146.9460 C   0  0  0  0  0  0  0  0  0  0  0  0
  189.1780  177.5710  141.8090 C   0  0  0  0  0  0  0  0  0  0  0  0
  188.5610  177.4520  144.6380 C   0  0  0  0  0  0  0  0  0  0  0  0
  190.5860  177.2620  146.5650 C   0  0  0  0  0  3  0  0  0  0  0  0
  188.9240  176.9710  148.2480 F   0  0  0  0  0  0  0  0  0  0  0  0
  189.9100  177.5610  144.2540 C   0  0  0  0  0  0  0  0  0  0  0  0
  188.2350  177.2630  145.9860 C   0  0  0  0  0  3  0  0  0  0  0  0
  190.9180  177.4650  145.2230 C   0  0  0  0  0  3  0  0  0  0  0  0
  191.4210  178.0410  142.4960 O   0  0  0  0  0  0  0  0  0  0  0  0
  190.2430  177.7430  142.8300 C   0  0  0  0  0  0  0  0  0  0  0  0
  187.9000  177.4890  142.2120 C   0  0  0  0  0  3  0  0  0  0  0  0
  187.4560  177.6580  143.6410 C   0  0  0  0  0  2  0  0  0  0  0  0
  190.3680  175.3070  136.2780 C   0  0  0  0  0  2  0  0  0  0  0  0
  191.8580  174.9960  136.2770 C   0  0  2  0  0  3  0  0  0  0  0  0
  192.0010  176.4260  138.3300 C   0  0  0  0  0  3  0  0  0  0  0  0
  189.8550  175.3410  137.7150 C   0  0  0  0  0  2  0  0  0  0  0  0
  190.7280  176.1580  138.6460 C   0  0  0  0  0  0  0  0  0  0  0  0
  192.5860  176.1420  136.9750 C   0  0  0  0  0  2  0  0  0  0  0  0
  192.9150  176.1670  134.3460 C   0  0  0  0  0  1  0  0  0  0  0  0
  192.3450  174.8540  134.8460 C   0  0  0  0  0  2  0  0  0  0  0  0
  189.0000  178.4600  139.3930 C   0  0  0  0  0  2  0  0  0  0  0  0
  186.4990  178.2240  139.1940 C   0  0  0  0  0  0  0  0  0  0  0  0
  185.3780  177.6920  138.4980 N   0  0  0  0  0  0  0  0  0  0  0  0
  186.3200  178.9130  140.2320 O   0  0  0  0  0  0  0  0  0  0  0  0
  183.9130  177.5050  138.2970 C   0  0  2  0  0  3  0  0  0  0  0  0
  187.8160  177.9650  138.7100 N   0  0  0  0  0  2  0  0  0  0  0  0
  184.7610  176.9090  137.3890 C   0  0  0  0  0  2  0  0  0  0  0  0
  183.3280  178.7830  137.7210 C   0  0  0  0  0  2  0  0  0  0  0  0
  181.8980  178.8450  137.9870 N   0  0  0  0  0  0  0  0  0  0  0  0
  180.5810  180.4510  139.1730 C   0  0  0  0  0  2  0  0  0  0  0  0
  181.3460  179.7280  137.0410 N   0  0  0  0  0  2  0  0  0  0  0  0
  181.7170  179.4670  139.2940 C   0  0  1  0  0  3  0  0  0  0  0  0
  180.2590  180.4320  137.7050 C   0  0  0  0  0  2  0  0  0  0  0  0
  181.4410  178.4340  140.3530 C   0  0  0  0  0  0  0  0  0  0  0  0
  180.4640  177.1540  140.0020 S   0  0  0  0  0  0  0  0  0  0  0  0
  182.0770  178.5610  141.6860 C   0  0  0  0  0  0  0  0  0  0  0  0
  181.9340  178.9150  144.0780 C   0  0  0  0  0  3  0  0  0  0  0  0
  184.0570  178.5620  143.0810 C   0  0  0  0  0  3  0  0  0  0  0  0
  183.2850  178.7950  144.1750 N   0  0  0  0  0  0  0  0  0  0  0  0
  183.4670  178.4400  141.8200 C   0  0  0  0  0  3  0  0  0  0  0  0
  181.3080  178.8020  142.8350 C   0  0  0  0  0  3  0  0  0  0  0  0
  1  2  2  0  0  0  0
  2  4  1  0  0  0  0
  3  7  1  0  0  0  0
  4 13  2  0  0  0  0
  4 12  1  0  0  0  0
  5  9  1  0  0  0  0
  6  3  1  0  0  0  0
  8  5  2  0  0  0  0
  8 10  1  0  0  0  0
  9  3  2  0  0  0  0
 10  6  2  0  0  0  0
 11 12  2  0  0  0  0
 12  8  1  0  0  0  0
 13 14  1  0  0  0  0
 14  5  1  0  0  0  0
 15 18  1  0  0  0  0
 16 22  1  6  0  0  0
 16 15  1  0  0  0  0
 16 20  1  0  0  0  0
 17 19  2  0  0  0  0
 18 19  1  0  0  0  0
 19  1  1  0  0  0  0
 20 17  1  0  0  0  0
 21 22  1  0  0  0  0
 23  2  1  0  0  0  0
 24 26  2  0  0  0  0
 25 24  1  0  0  0  0
 27 30  1  6  0  0  0
 27 25  1  0  0  0  0
 28 24  1  0  0  0  0
 28 23  1  0  0  0  0
 29 27  1  0  0  0  0
 29 25  1  0  0  0  0
 30 31  1  0  0  0  0
 31 34  1  0  0  0  0
 32 34  1  0  0  0  0
 33 35  1  0  0  0  0
 33 31  1  0  0  0  0
 34 36  1  1  0  0  0
 35 32  1  0  0  0  0
 36 38  1  0  0  0  0
 37 36  2  0  0  0  0
 38 42  2  0  0  0  0
 38 43  1  0  0  0  0
 39 41  1  0  0  0  0
 40 41  2  0  0  0  0
 42 40  1  0  0  0  0
 43 39  2  0  0  0  0
M  END
>  <MODEL>
6

>  <REMARK>
 VINA RESULT:      -8.8      2.788      7.844
  Name = 
  9 active torsions:
  status: ('A' for Active; 'I' for Inactive)
    1  A    between atoms: N_1  and  C_35
    2  A    between atoms: C_3  and  N_4
    3  A    between atoms: C_3  and  C_12
    4  A    between atoms: C_8  and  C_34
    5  A    between atoms: C_11  and  C_14
    6  A    between atoms: N_13  and  C_38
    7  A    between atoms: C_14  and  C_22
    8  A    between atoms: C_19  and  C_37
    9  A    between atoms: C_34  and  C_38
                            x       y       z     vdW  Elec       q    Type
                         _______ _______ _______ _____ _____    ______ ____

>  <TORSDO>
F 9

$$$$
=
 OpenBabel10272414073D

 43 48  0  0  1  0  0  0  0  0999 V2000
  190.4290  176.5080  141.0650 N   0  0  0  0  0  0  0  0  0  0  0  0
  190.4710  177.1420  139.9230 C   0  0  0  0  0  0  0  0  0  0  0  0
  192.7980  173.0580  135.2980 C   0  0  0  0  0  0  0  0  0  0  0  0
  191.1400  176.4950  138.7630 C   0  0  0  0  0  0  0  0  0  0  0  0
  192.5970  174.9730  136.7730 C   0  0  0  0  0  0  0  0  0  0  0  0
  191.4550  172.7410  135.5200 C   0  0  0  0  0  3  0  0  0  0  0  0
  193.5470  172.2890  134.4720 F   0  0  0  0  0  0  0  0  0  0  0  0
  191.2430  174.6570  136.9940 C   0  0  0  0  0  0  0  0  0  0  0  0
  193.3650  174.1770  135.9150 C   0  0  0  0  0  3  0  0  0  0  0  0
  190.6790  173.5400  136.3640 C   0  0  0  0  0  3  0  0  0  0  0  0
  189.1980  175.3460  137.9660 O   0  0  0  0  0  0  0  0  0  0  0  0
  190.4480  175.4910  137.9120 C   0  0  0  0  0  0  0  0  0  0  0  0
  192.4260  176.7830  138.5100 C   0  0  0  0  0  3  0  0  0  0  0  0
  193.2010  176.2220  137.3470 C   0  0  0  0  0  2  0  0  0  0  0  0
  189.7550  178.3590  144.4100 C   0  0  0  0  0  2  0  0  0  0  0  0
  188.9000  177.2440  144.9950 C   0  0  2  0  0  3  0  0  0  0  0  0
  188.6650  176.4010  142.6480 C   0  0  0  0  0  3  0  0  0  0  0  0
  190.6130  177.8020  143.2780 C   0  0  0  0  0  2  0  0  0  0  0  0
  189.8360  176.9460  142.2980 C   0  0  0  0  0  0  0  0  0  0  0  0
  187.9380  176.7610  143.9130 C   0  0  0  0  0  2  0  0  0  0  0  0
  188.7550  177.2890  147.4840 C   0  0  0  0  0  1  0  0  0  0  0  0
  188.1280  177.7720  146.1910 C   0  0  0  0  0  2  0  0  0  0  0  0
  189.7230  178.4260  139.7210 C   0  0  0  0  0  2  0  0  0  0  0  0
  187.2190  178.2040  139.5420 C   0  0  0  0  0  0  0  0  0  0  0  0
  186.0770  177.9190  138.7450 N   0  0  0  0  0  0  0  0  0  0  0  0
  187.0770  178.4810  140.7630 O   0  0  0  0  0  0  0  0  0  0  0  0
  184.6060  177.7730  138.5440 C   0  0  2  0  0  3  0  0  0  0  0  0
  188.5170  178.1680  138.9510 N   0  0  0  0  0  2  0  0  0  0  0  0
  185.4220  177.5560  137.4550 C   0  0  0  0  0  2  0  0  0  0  0  0
  183.9800  179.1550  138.4750 C   0  0  0  0  0  2  0  0  0  0  0  0
  182.5290  179.0500  138.5340 N   0  0  0  0  0  0  0  0  0  0  0  0
  180.8720  180.5480  139.3900 C   0  0  0  0  0  2  0  0  0  0  0  0
  182.0240  179.7940  137.4510 N   0  0  0  0  0  2  0  0  0  0  0  0
  182.0840  179.7270  139.7480 C   0  0  1  0  0  3  0  0  0  0  0  0
  180.7760  180.3950  137.8980 C   0  0  0  0  0  2  0  0  0  0  0  0
  181.7770  178.7360  140.8380 C   0  0  0  0  0  0  0  0  0  0  0  0
  180.5880  177.6180  140.6070 S   0  0  0  0  0  0  0  0  0  0  0  0
  182.5680  178.7550  142.0920 C   0  0  0  0  0  0  0  0  0  0  0  0
  184.6430  178.4140  143.2950 C   0  0  0  0  0  3  0  0  0  0  0  0
  182.7250  179.1620  144.4740 C   0  0  0  0  0  3  0  0  0  0  0  0
  184.0350  178.7980  144.4490 N   0  0  0  0  0  0  0  0  0  0  0  0
  181.9710  179.1480  143.2990 C   0  0  0  0  0  3  0  0  0  0  0  0
  183.9220  178.3850  142.0990 C   0  0  0  0  0  3  0  0  0  0  0  0
  1 19  1  0  0  0  0
  2  1  2  0  0  0  0
  3  6  2  0  0  0  0
  3  9  1  0  0  0  0
  4  2  1  0  0  0  0
  5  8  1  0  0  0  0
  5 14  1  0  0  0  0
  6 10  1  0  0  0  0
  7  3  1  0  0  0  0
  8 12  1  0  0  0  0
  9  5  2  0  0  0  0
 10  8  2  0  0  0  0
 12 11  2  0  0  0  0
 12  4  1  0  0  0  0
 13  4  2  0  0  0  0
 14 13  1  0  0  0  0
 15 16  1  0  0  0  0
 16 22  1  1  0  0  0
 17 20  1  0  0  0  0
 18 15  1  0  0  0  0
 19 17  2  0  0  0  0
 19 18  1  0  0  0  0
 20 16  1  0  0  0  0
 22 21  1  0  0  0  0
 23  2  1  0  0  0  0
 24 26  2  0  0  0  0
 25 24  1  0  0  0  0
 27 30  1  6  0  0  0
 27 25  1  0  0  0  0
 28 24  1  0  0  0  0
 28 23  1  0  0  0  0
 29 27  1  0  0  0  0
 29 25  1  0  0  0  0
 30 31  1  0  0  0  0
 31 34  1  0  0  0  0
 32 34  1  0  0  0  0
 33 35  1  0  0  0  0
 33 31  1  0  0  0  0
 34 36  1  1  0  0  0
 35 32  1  0  0  0  0
 36 38  1  0  0  0  0
 37 36  2  0  0  0  0
 38 43  2  0  0  0  0
 38 42  1  0  0  0  0
 39 41  2  0  0  0  0
 41 40  1  0  0  0  0
 42 40  2  0  0  0  0
 43 39  1  0  0  0  0
M  END
>  <MODEL>
7

>  <REMARK>
 VINA RESULT:      -8.8      3.647      9.435
  Name = 
  9 active torsions:
  status: ('A' for Active; 'I' for Inactive)
    1  A    between atoms: N_1  and  C_35
    2  A    between atoms: C_3  and  N_4
    3  A    between atoms: C_3  and  C_12
    4  A    between atoms: C_8  and  C_34
    5  A    between atoms: C_11  and  C_14
    6  A    between atoms: N_13  and  C_38
    7  A    between atoms: C_14  and  C_22
    8  A    between atoms: C_19  and  C_37
    9  A    between atoms: C_34  and  C_38
                            x       y       z     vdW  Elec       q    Type
                         _______ _______ _______ _____ _____    ______ ____

>  <TORSDO>
F 9

$$$$
=
 OpenBabel10272414073D

 43 48  0  0  1  0  0  0  0  0999 V2000
  190.4780  176.5450  140.1760 N   0  0  0  0  0  0  0  0  0  0  0  0
  189.5920  177.4580  140.4800 C   0  0  0  0  0  0  0  0  0  0  0  0
  188.7840  177.1620  147.0180 C   0  0  0  0  0  0  0  0  0  0  0  0
  189.1620  177.6020  141.8960 C   0  0  0  0  0  0  0  0  0  0  0  0
  188.3030  177.4790  144.6610 C   0  0  0  0  0  0  0  0  0  0  0  0
  190.1540  177.2470  146.7540 C   0  0  0  0  0  3  0  0  0  0  0  0
  188.3490  176.9730  148.2870 F   0  0  0  0  0  0  0  0  0  0  0  0
  189.6830  177.5690  144.3950 C   0  0  0  0  0  0  0  0  0  0  0  0
  187.8600  177.2880  145.9750 C   0  0  0  0  0  3  0  0  0  0  0  0
  190.6020  177.4510  145.4460 C   0  0  0  0  0  3  0  0  0  0  0  0
  191.3450  178.0330  142.7760 O   0  0  0  0  0  0  0  0  0  0  0  0
  190.1390  177.7520  143.0060 C   0  0  0  0  0  0  0  0  0  0  0  0
  187.8540  177.5380  142.1880 C   0  0  0  0  0  3  0  0  0  0  0  0
  187.2920  177.7060  143.5750 C   0  0  0  0  0  2  0  0  0  0  0  0
  190.8940  175.3740  136.4980 C   0  0  0  0  0  2  0  0  0  0  0  0
  192.3870  175.1090  136.6240 C   0  0  2  0  0  3  0  0  0  0  0  0
  192.3140  176.5470  138.6740 C   0  0  0  0  0  3  0  0  0  0  0  0
  190.2620  175.3970  137.8880 C   0  0  0  0  0  2  0  0  0  0  0  0
  191.0280  176.2420  138.8850 C   0  0  0  0  0  0  0  0  0  0  0  0
  193.0200  176.2780  137.3750 C   0  0  0  0  0  2  0  0  0  0  0  0
  192.5910  176.1510  134.3680 C   0  0  0  0  0  1  0  0  0  0  0  0
  192.9960  174.9780  135.2400 C   0  0  0  0  0  2  0  0  0  0  0  0
  189.1300  178.4570  139.4620 C   0  0  0  0  0  2  0  0  0  0  0  0
  187.4480  177.9130  137.6670 C   0  0  0  0  0  0  0  0  0  0  0  0
  186.1050  177.6160  137.3070 N   0  0  0  0  0  0  0  0  0  0  0  0
  188.3310  177.9910  136.7730 O   0  0  0  0  0  0  0  0  0  0  0  0
  185.0430  177.2820  136.3150 C   0  0  2  0  0  3  0  0  0  0  0  0
  187.7800  178.1260  139.0380 N   0  0  0  0  0  2  0  0  0  0  0  0
  184.6700  177.3750  137.6380 C   0  0  0  0  0  2  0  0  0  0  0  0
  185.1940  175.8280  135.9040 C   0  0  0  0  0  2  0  0  0  0  0  0
  184.4920  174.9650  136.8440 N   0  0  0  0  0  0  0  0  0  0  0  0
  183.7870  172.6870  136.6700 C   0  0  0  0  0  2  0  0  0  0  0  0
  185.4670  174.1670  137.4690 N   0  0  0  0  0  2  0  0  0  0  0  0
  183.6470  174.0620  136.0700 C   0  0  1  0  0  3  0  0  0  0  0  0
  184.8570  172.8670  137.7090 C   0  0  0  0  0  2  0  0  0  0  0  0
  182.2140  174.5230  136.0760 C   0  0  0  0  0  0  0  0  0  0  0  0
  181.1800  173.9700  134.9190 S   0  0  0  0  0  0  0  0  0  0  0  0
  181.7430  175.4410  137.1400 C   0  0  0  0  0  0  0  0  0  0  0  0
  181.2710  175.9260  139.4660 C   0  0  0  0  0  3  0  0  0  0  0  0
  180.8680  177.5930  137.8280 C   0  0  0  0  0  3  0  0  0  0  0  0
  180.8570  177.1740  139.1210 N   0  0  0  0  0  0  0  0  0  0  0  0
  181.3110  176.7360  136.8170 C   0  0  0  0  0  3  0  0  0  0  0  0
  181.7190  175.0390  138.4850 C   0  0  0  0  0  3  0  0  0  0  0  0
  1  2  2  0  0  0  0
  2  4  1  0  0  0  0
  3  7  1  0  0  0  0
  4 13  2  0  0  0  0
  4 12  1  0  0  0  0
  5  9  1  0  0  0  0
  6  3  1  0  0  0  0
  8  5  2  0  0  0  0
  8 10  1  0  0  0  0
  9  3  2  0  0  0  0
 10  6  2  0  0  0  0
 11 12  2  0  0  0  0
 12  8  1  0  0  0  0
 13 14  1  0  0  0  0
 14  5  1  0  0  0  0
 15 16  1  0  0  0  0
 15 18  1  0  0  0  0
 16 22  1  6  0  0  0
 16 20  1  0  0  0  0
 17 19  2  0  0  0  0
 18 19  1  0  0  0  0
 19  1  1  0  0  0  0
 20 17  1  0  0  0  0
 21 22  1  0  0  0  0
 23  2  1  0  0  0  0
 24 28  1  0  0  0  0
 25 29  1  0  0  0  0
 25 24  1  0  0  0  0
 26 24  2  0  0  0  0
 27 30  1  1  0  0  0
 27 25  1  0  0  0  0
 27 29  1  0  0  0  0
 28 23  1  0  0  0  0
 30 31  1  0  0  0  0
 31 33  1  0  0  0  0
 32 35  1  0  0  0  0
 33 35  1  0  0  0  0
 34 36  1  1  0  0  0
 34 32  1  0  0  0  0
 34 31  1  0  0  0  0
 36 38  1  0  0  0  0
 37 36  2  0  0  0  0
 38 43  1  0  0  0  0
 40 41  2  0  0  0  0
 41 39  1  0  0  0  0
 42 38  2  0  0  0  0
 42 40  1  0  0  0  0
 43 39  2  0  0  0  0
M  END
>  <MODEL>
8

>  <REMARK>
 VINA RESULT:      -8.7      2.945      7.314
  Name = 
  9 active torsions:
  status: ('A' for Active; 'I' for Inactive)
    1  A    between atoms: N_1  and  C_35
    2  A    between atoms: C_3  and  N_4
    3  A    between atoms: C_3  and  C_12
    4  A    between atoms: C_8  and  C_34
    5  A    between atoms: C_11  and  C_14
    6  A    between atoms: N_13  and  C_38
    7  A    between atoms: C_14  and  C_22
    8  A    between atoms: C_19  and  C_37
    9  A    between atoms: C_34  and  C_38
                            x       y       z     vdW  Elec       q    Type
                         _______ _______ _______ _____ _____    ______ ____

>  <TORSDO>
F 9

$$$$
=
 OpenBabel10272414073D

 43 48  0  0  1  0  0  0  0  0999 V2000
  189.9150  175.2890  136.6260 N   0  0  0  0  0  0  0  0  0  0  0  0
  190.8530  175.7190  137.4290 C   0  0  0  0  0  0  0  0  0  0  0  0
  196.0080  171.6060  137.4610 C   0  0  0  0  0  0  0  0  0  0  0  0
  192.1900  175.0680  137.3890 C   0  0  0  0  0  0  0  0  0  0  0  0
  194.6930  173.6340  137.6660 C   0  0  0  0  0  0  0  0  0  0  0  0
  194.9870  171.0160  136.7120 C   0  0  0  0  0  3  0  0  0  0  0  0
  197.1430  170.9150  137.7210 F   0  0  0  0  0  0  0  0  0  0  0  0
  193.6660  173.0420  136.9080 C   0  0  0  0  0  0  0  0  0  0  0  0
  195.8660  172.9170  137.9280 C   0  0  0  0  0  3  0  0  0  0  0  0
  193.8190  171.7310  136.4350 C   0  0  0  0  0  3  0  0  0  0  0  0
  191.5900  173.3660  135.8170 O   0  0  0  0  0  0  0  0  0  0  0  0
  192.4280  173.7990  136.6530 C   0  0  0  0  0  0  0  0  0  0  0  0
  193.1990  175.6130  138.0860 C   0  0  0  0  0  3  0  0  0  0  0  0
  194.6040  175.0700  138.0950 C   0  0  0  0  0  2  0  0  0  0  0  0
  186.0710  175.7060  136.9770 C   0  0  0  0  0  2  0  0  0  0  0  0
  185.9080  176.4390  135.6530 C   0  0  2  0  0  3  0  0  0  0  0  0
  188.3730  176.8720  135.7650 C   0  0  0  0  0  3  0  0  0  0  0  0
  187.3930  174.9420  136.9760 C   0  0  0  0  0  2  0  0  0  0  0  0
  188.5680  175.7720  136.5010 C   0  0  0  0  0  0  0  0  0  0  0  0
  187.0170  177.4820  135.5430 C   0  0  0  0  0  2  0  0  0  0  0  0
  184.0250  177.3420  137.0150 C   0  0  0  0  0  1  0  0  0  0  0  0
  184.5460  177.1080  135.6100 C   0  0  0  0  0  2  0  0  0  0  0  0
  190.6540  176.9470  138.2650 C   0  0  0  0  0  2  0  0  0  0  0  0
  190.9500  176.9460  140.7670 C   0  0  0  0  0  0  0  0  0  0  0  0
  190.4990  176.5180  142.0460 N   0  0  0  0  0  0  0  0  0  0  0  0
  191.9850  177.6580  140.6760 O   0  0  0  0  0  0  0  0  0  0  0  0
  190.5900  176.4690  143.5340 C   0  0  2  0  0  3  0  0  0  0  0  0
  190.2270  176.5600  139.6000 N   0  0  0  0  0  2  0  0  0  0  0  0
  189.5510  175.7880  142.9380 C   0  0  0  0  0  2  0  0  0  0  0  0
  190.1060  177.7920  144.1010 C   0  0  0  0  0  2  0  0  0  0  0  0
  190.3260  177.8320  145.5390 N   0  0  0  0  0  0  0  0  0  0  0  0
  190.1160  176.1390  147.2150 C   0  0  0  0  0  2  0  0  0  0  0  0
  191.6070  177.2960  145.7690 N   0  0  0  0  0  2  0  0  0  0  0  0
  189.3740  176.9170  146.1590 C   0  0  1  0  0  3  0  0  0  0  0  0
  191.5420  176.5770  147.0320 C   0  0  0  0  0  2  0  0  0  0  0  0
  188.2060  177.6640  146.7440 C   0  0  0  0  0  0  0  0  0  0  0  0
  188.2710  178.1760  148.3090 S   0  0  0  0  0  0  0  0  0  0  0  0
  187.0260  177.9620  145.8960 C   0  0  0  0  0  0  0  0  0  0  0  0
  185.8470  177.8370  143.7840 C   0  0  0  0  0  3  0  0  0  0  0  0
  184.8300  178.9440  145.6180 C   0  0  0  0  0  3  0  0  0  0  0  0
  184.8080  178.5260  144.3250 N   0  0  0  0  0  0  0  0  0  0  0  0
  185.9360  178.6680  146.4250 C   0  0  0  0  0  3  0  0  0  0  0  0
  186.9720  177.5440  144.5580 C   0  0  0  0  0  3  0  0  0  0  0  0
  1  2  2  0  0  0  0
  2 23  1  0  0  0  0
  3  7  1  0  0  0  0
  3  9  1  0  0  0  0
  4  2  1  0  0  0  0
  4 13  2  0  0  0  0
  5  9  2  0  0  0  0
  5 14  1  0  0  0  0
  6  3  2  0  0  0  0
  8  5  1  0  0  0  0
 10  6  1  0  0  0  0
 10  8  2  0  0  0  0
 11 12  2  0  0  0  0
 12  8  1  0  0  0  0
 12  4  1  0  0  0  0
 13 14  1  0  0  0  0
 16 22  1  1  0  0  0
 16 15  1  0  0  0  0
 17 19  2  0  0  0  0
 18 15  1  0  0  0  0
 19  1  1  0  0  0  0
 19 18  1  0  0  0  0
 20 16  1  0  0  0  0
 20 17  1  0  0  0  0
 22 21  1  0  0  0  0
 23 28  1  0  0  0  0
 24 25  1  0  0  0  0
 25 29  1  0  0  0  0
 25 27  1  0  0  0  0
 26 24  2  0  0  0  0
 27 30  1  1  0  0  0
 28 24  1  0  0  0  0
 29 27  1  0  0  0  0
 30 31  1  0  0  0  0
 31 33  1  0  0  0  0
 31 34  1  0  0  0  0
 33 35  1  0  0  0  0
 34 36  1  1  0  0  0
 34 32  1  0  0  0  0
 35 32  1  0  0  0  0
 36 37  2  0  0  0  0
 38 42  1  0  0  0  0
 38 36  1  0  0  0  0
 39 41  2  0  0  0  0
 39 43  1  0  0  0  0
 40 42  2  0  0  0  0
 41 40  1  0  0  0  0
 43 38  2  0  0  0  0
M  END
>  <MODEL>
9

>  <REMARK>
 VINA RESULT:      -8.6      4.219      9.571
  Name = 
  9 active torsions:
  status: ('A' for Active; 'I' for Inactive)
    1  A    between atoms: N_1  and  C_35
    2  A    between atoms: C_3  and  N_4
    3  A    between atoms: C_3  and  C_12
    4  A    between atoms: C_8  and  C_34
    5  A    between atoms: C_11  and  C_14
    6  A    between atoms: N_13  and  C_38
    7  A    between atoms: C_14  and  C_22
    8  A    between atoms: C_19  and  C_37
    9  A    between atoms: C_34  and  C_38
                            x       y       z     vdW  Elec       q    Type
                         _______ _______ _______ _____ _____    ______ ____

>  <TORSDO>
F 9

$$$$
