=
 OpenBabel10262423393D

 34 39  0  0  1  0  0  0  0  0999 V2000
  190.2710  176.9720  146.8290 C   0  0  1  0  0  3  0  0  0  0  0  0
  191.3790  175.3890  145.3930 C   0  0  1  0  0  3  0  0  0  0  0  0
  189.6590  177.1010  144.3730 C   0  0  0  0  0  0  0  0  0  0  0  0
  188.9570  177.4890  142.0800 C   0  0  0  0  0  0  0  0  0  0  0  0
  192.4310  175.9950  147.5110 C   0  0  0  0  0  3  0  0  0  0  0  0
  192.4260  175.2790  146.4220 N   0  0  0  0  0  0  0  0  0  0  0  0
  191.1130  177.0510  142.2950 C   0  0  0  0  0  3  0  0  0  0  0  0
  190.7690  176.8130  145.3910 C   0  0  1  0  0  3  0  0  0  0  0  0
  189.5220  177.5250  140.8270 C   0  0  0  0  0  3  0  0  0  0  0  0
  191.3980  176.9590  147.7460 N   0  0  0  0  0  2  0  0  0  0  0  0
  188.3580  177.5360  144.7920 C   0  0  0  0  0  0  0  0  0  0  0  0
  189.3630  178.1590  147.0100 C   0  0  0  0  0  2  0  0  0  0  0  0
  191.9530  174.9290  144.0700 C   0  0  0  0  0  1  0  0  0  0  0  0
  187.6580  177.7850  142.4550 C   0  0  0  0  0  3  0  0  0  0  0  0
  187.3370  177.8020  143.8250 C   0  0  0  0  0  0  0  0  0  0  0  0
  190.8370  177.2500  140.9890 N   0  0  0  0  0  0  0  0  0  0  0  0
  189.9280  177.1750  142.9960 C   0  0  0  0  0  0  0  0  0  0  0  0
  188.0890  177.8170  146.2530 C   0  0  0  0  0  2  0  0  0  0  0  0
  183.6340  178.6150  143.5870 C   0  0  0  0  0  0  0  0  0  0  0  0
  183.3180  178.8450  144.9280 C   0  0  0  0  0  3  0  0  0  0  0  0
  185.9400  178.1380  144.2020 C   0  0  0  0  0  0  0  0  0  0  0  0
  184.3070  178.7320  145.9070 C   0  0  0  0  0  3  0  0  0  0  0  0
  184.9390  178.2690  143.2260 C   0  0  0  0  0  3  0  0  0  0  0  0
  185.6110  178.3840  145.5460 C   0  0  0  0  0  3  0  0  0  0  0  0
  182.6770  178.7320  142.6360 F   0  0  0  0  0  0  0  0  0  0  0  0
  191.6410  176.4690  138.9090 C   0  0  0  0  0  3  0  0  0  0  0  0
  191.8020  177.1930  139.9690 N   0  0  0  0  0  0  0  0  0  0  0  0
  194.3600  175.6530  139.3690 F   0  0  0  0  0  0  0  0  0  0  0  0
  192.6900  176.4370  137.8480 C   0  0  1  0  0  3  0  0  0  0  0  0
  193.7300  175.3610  138.1730 C   0  0  1  0  0  3  0  0  0  0  0  0
  194.1160  174.9970  135.7220 C   0  0  0  0  0  2  0  0  0  0  0  0
  193.1000  176.0880  135.3980 C   0  0  0  0  0  2  0  0  0  0  0  0
  192.0400  176.1550  136.4920 C   0  0  0  0  0  2  0  0  0  0  0  0
  194.7800  175.2840  137.0660 C   0  0  0  0  0  2  0  0  0  0  0  0
  1 12  1  6  0  0  0
  1 10  1  0  0  0  0
  2 13  1  6  0  0  0
  2  6  1  0  0  0  0
  3 11  2  0  0  0  0
  4 14  1  0  0  0  0
  4 17  1  0  0  0  0
  5 10  1  0  0  0  0
  6  5  2  0  0  0  0
  7 17  2  0  0  0  0
  8  3  1  6  0  0  0
  8  2  1  0  0  0  0
  8  1  1  0  0  0  0
  9 16  1  0  0  0  0
  9  4  2  0  0  0  0
 11 18  1  0  0  0  0
 14 15  2  0  0  0  0
 15 21  1  0  0  0  0
 15 11  1  0  0  0  0
 16  7  1  0  0  0  0
 17  3  1  0  0  0  0
 18 12  1  0  0  0  0
 19 20  1  0  0  0  0
 20 22  2  0  0  0  0
 21 24  2  0  0  0  0
 23 19  2  0  0  0  0
 23 21  1  0  0  0  0
 24 22  1  0  0  0  0
 25 19  1  0  0  0  0
 26 27  2  0  0  0  0
 27 16  1  0  0  0  0
 29 30  1  0  0  0  0
 29 26  1  1  0  0  0
 30 28  1  1  0  0  0
 31 34  1  0  0  0  0
 32 31  1  0  0  0  0
 32 33  1  0  0  0  0
 33 29  1  0  0  0  0
 34 30  1  0  0  0  0
M  END
>  <MODEL>
1

>  <REMARK>
 VINA RESULT:     -10.9      0.000      0.000
  Name = 
  3 active torsions:
  status: ('A' for Active; 'I' for Inactive)
    1  A    between atoms: C_3  and  C_13
    2  A    between atoms: C_12  and  C_28
    3  A    between atoms: N_17  and  N_29
                            x       y       z     vdW  Elec       q    Type
                         _______ _______ _______ _____ _____    ______ ____

>  <TORSDO>
F 3

$$$$
=
 OpenBabel10262423393D

 34 39  0  0  1  0  0  0  0  0999 V2000
  191.4000  177.3390  141.2700 C   0  0  1  0  0  3  0  0  0  0  0  0
  189.9560  176.4460  139.5640 C   0  0  1  0  0  3  0  0  0  0  0  0
  188.9190  177.7110  141.6270 C   0  0  0  0  0  0  0  0  0  0  0  0
  186.6180  178.2700  142.1680 C   0  0  0  0  0  0  0  0  0  0  0  0
  192.2750  176.9550  138.9970 C   0  0  0  0  0  3  0  0  0  0  0  0
  191.1120  176.4770  138.6540 N   0  0  0  0  0  0  0  0  0  0  0  0
  187.1080  178.4720  140.0230 C   0  0  0  0  0  3  0  0  0  0  0  0
  190.0500  177.5960  140.5980 C   0  0  1  0  0  3  0  0  0  0  0  0
  185.4850  178.6970  141.5160 C   0  0  0  0  0  3  0  0  0  0  0  0
  192.4730  177.5040  140.3050 N   0  0  0  0  0  2  0  0  0  0  0  0
  189.1830  177.6510  143.0350 C   0  0  0  0  0  0  0  0  0  0  0  0
  191.5950  178.1440  142.5280 C   0  0  0  0  0  2  0  0  0  0  0  0
  188.6900  176.4230  138.7350 C   0  0  0  0  0  1  0  0  0  0  0  0
  186.8200  178.0880  143.5250 C   0  0  0  0  0  3  0  0  0  0  0  0
  188.1120  177.7630  143.9780 C   0  0  0  0  0  0  0  0  0  0  0  0
  185.8130  178.8070  140.2080 N   0  0  0  0  0  0  0  0  0  0  0  0
  187.6240  178.1060  141.2510 C   0  0  0  0  0  0  0  0  0  0  0  0
  190.6080  177.5740  143.5340 C   0  0  0  0  0  2  0  0  0  0  0  0
  189.6830  176.9050  147.3290 C   0  0  0  0  0  0  0  0  0  0  0  0
  188.6360  177.1990  148.2050 C   0  0  0  0  0  3  0  0  0  0  0  0
  188.3080  177.5890  145.4400 C   0  0  0  0  0  0  0  0  0  0  0  0
  187.4230  177.6790  147.7070 C   0  0  0  0  0  3  0  0  0  0  0  0
  189.5180  177.0940  145.9540 C   0  0  0  0  0  3  0  0  0  0  0  0
  187.2580  177.8690  146.3320 C   0  0  0  0  0  3  0  0  0  0  0  0
  190.8570  176.4340  147.8110 F   0  0  0  0  0  0  0  0  0  0  0  0
  183.7000  179.4510  139.3680 C   0  0  0  0  0  3  0  0  0  0  0  0
  184.9600  179.2270  139.1730 N   0  0  0  0  0  0  0  0  0  0  0  0
  182.9460  177.7680  137.1620 F   0  0  0  0  0  0  0  0  0  0  0  0
  182.8280  179.8970  138.2440 C   0  0  1  0  0  3  0  0  0  0  0  0
  182.0610  178.7010  137.6700 C   0  0  1  0  0  3  0  0  0  0  0  0
  180.1540  180.2150  137.0680 C   0  0  0  0  0  2  0  0  0  0  0  0
  180.9280  181.4100  137.6140 C   0  0  0  0  0  2  0  0  0  0  0  0
  181.8500  180.9620  138.7430 C   0  0  0  0  0  2  0  0  0  0  0  0
  181.1250  179.1560  136.5520 C   0  0  0  0  0  2  0  0  0  0  0  0
  1 12  1  1  0  0  0
  2 13  1  6  0  0  0
  2  8  1  0  0  0  0
  3 11  2  0  0  0  0
  4 14  1  0  0  0  0
  5 10  1  0  0  0  0
  6  5  2  0  0  0  0
  6  2  1  0  0  0  0
  7 16  1  0  0  0  0
  7 17  2  0  0  0  0
  8  1  1  0  0  0  0
  8  3  1  1  0  0  0
  9  4  2  0  0  0  0
 10  1  1  0  0  0  0
 11 18  1  0  0  0  0
 11 15  1  0  0  0  0
 12 18  1  0  0  0  0
 14 15  2  0  0  0  0
 15 21  1  0  0  0  0
 16  9  1  0  0  0  0
 17  3  1  0  0  0  0
 17  4  1  0  0  0  0
 19 25  1  0  0  0  0
 19 20  1  0  0  0  0
 21 23  1  0  0  0  0
 21 24  2  0  0  0  0
 22 20  2  0  0  0  0
 23 19  2  0  0  0  0
 24 22  1  0  0  0  0
 27 26  2  0  0  0  0
 27 16  1  0  0  0  0
 29 33  1  0  0  0  0
 29 26  1  1  0  0  0
 30 28  1  6  0  0  0
 30 29  1  0  0  0  0
 31 32  1  0  0  0  0
 32 33  1  0  0  0  0
 34 31  1  0  0  0  0
 34 30  1  0  0  0  0
M  END
>  <MODEL>
2

>  <REMARK>
 VINA RESULT:     -10.1      3.867      7.623
  Name = 
  3 active torsions:
  status: ('A' for Active; 'I' for Inactive)
    1  A    between atoms: C_3  and  C_13
    2  A    between atoms: C_12  and  C_28
    3  A    between atoms: N_17  and  N_29
                            x       y       z     vdW  Elec       q    Type
                         _______ _______ _______ _____ _____    ______ ____

>  <TORSDO>
F 3

$$$$
=
 OpenBabel10262423393D

 34 39  0  0  1  0  0  0  0  0999 V2000
  191.4590  176.8980  139.8170 C   0  0  1  0  0  3  0  0  0  0  0  0
  189.5290  176.2220  138.5480 C   0  0  1  0  0  3  0  0  0  0  0  0
  189.2140  177.4420  140.8600 C   0  0  0  0  0  0  0  0  0  0  0  0
  187.2090  178.1470  142.0350 C   0  0  0  0  0  0  0  0  0  0  0  0
  191.6420  176.5800  137.3780 C   0  0  0  0  0  3  0  0  0  0  0  0
  190.3910  176.2150  137.3550 N   0  0  0  0  0  0  0  0  0  0  0  0
  187.1120  178.4350  139.8460 C   0  0  0  0  0  3  0  0  0  0  0  0
  190.0070  177.2980  139.5540 C   0  0  1  0  0  3  0  0  0  0  0  0
  185.9850  178.7000  141.7370 C   0  0  0  0  0  3  0  0  0  0  0  0
  192.2390  177.0340  138.5990 N   0  0  0  0  0  2  0  0  0  0  0  0
  189.8460  177.2800  142.1360 C   0  0  0  0  0  0  0  0  0  0  0  0
  192.0620  177.6110  140.9990 C   0  0  0  0  0  2  0  0  0  0  0  0
  188.0880  176.3470  138.1020 C   0  0  0  0  0  1  0  0  0  0  0  0
  187.7560  177.8710  143.2760 C   0  0  0  0  0  3  0  0  0  0  0  0
  189.0880  177.4200  143.3430 C   0  0  0  0  0  0  0  0  0  0  0  0
  185.9530  178.8600  140.3940 N   0  0  0  0  0  0  0  0  0  0  0  0
  187.9080  177.9590  140.8710 C   0  0  0  0  0  0  0  0  0  0  0  0
  191.3400  177.0620  142.2190 C   0  0  0  0  0  2  0  0  0  0  0  0
  189.4210  177.0300  147.1070 C   0  0  0  0  0  0  0  0  0  0  0  0
  190.7720  176.6960  147.2290 C   0  0  0  0  0  3  0  0  0  0  0  0
  189.6580  177.1470  144.6870 C   0  0  0  0  0  0  0  0  0  0  0  0
  191.5710  176.5940  146.0880 C   0  0  0  0  0  3  0  0  0  0  0  0
  188.8690  177.2590  145.8430 C   0  0  0  0  0  3  0  0  0  0  0  0
  191.0180  176.8220  144.8250 C   0  0  0  0  0  3  0  0  0  0  0  0
  188.6480  177.1350  148.2130 F   0  0  0  0  0  0  0  0  0  0  0  0
  183.8480  178.7090  139.3310 C   0  0  0  0  0  3  0  0  0  0  0  0
  184.8920  179.4040  139.6510 N   0  0  0  0  0  0  0  0  0  0  0  0
  181.4880  177.2900  138.5030 F   0  0  0  0  0  0  0  0  0  0  0  0
  182.7420  179.3260  138.5420 C   0  0  1  0  0  3  0  0  0  0  0  0
  181.4180  178.6240  138.8610 C   0  0  1  0  0  3  0  0  0  0  0  0
  180.1840  180.7670  138.4430 C   0  0  0  0  0  2  0  0  0  0  0  0
  181.4980  181.4590  138.0980 C   0  0  0  0  0  2  0  0  0  0  0  0
  182.6450  180.8160  138.8720 C   0  0  0  0  0  2  0  0  0  0  0  0
  180.2690  179.2820  138.0990 C   0  0  0  0  0  2  0  0  0  0  0  0
  1 12  1  1  0  0  0
  2 13  1  6  0  0  0
  2  8  1  0  0  0  0
  3 17  1  0  0  0  0
  3 11  2  0  0  0  0
  4 14  1  0  0  0  0
  5 10  1  0  0  0  0
  6  5  2  0  0  0  0
  6  2  1  0  0  0  0
  7 16  1  0  0  0  0
  7 17  2  0  0  0  0
  8  1  1  0  0  0  0
  8  3  1  1  0  0  0
  9  4  2  0  0  0  0
 10  1  1  0  0  0  0
 11 18  1  0  0  0  0
 11 15  1  0  0  0  0
 12 18  1  0  0  0  0
 14 15  2  0  0  0  0
 15 21  1  0  0  0  0
 16  9  1  0  0  0  0
 17  4  1  0  0  0  0
 19 20  1  0  0  0  0
 19 25  1  0  0  0  0
 21 24  2  0  0  0  0
 21 23  1  0  0  0  0
 22 20  2  0  0  0  0
 23 19  2  0  0  0  0
 24 22  1  0  0  0  0
 26 27  2  0  0  0  0
 27 16  1  0  0  0  0
 29 30  1  0  0  0  0
 29 33  1  0  0  0  0
 29 26  1  1  0  0  0
 30 28  1  6  0  0  0
 32 31  1  0  0  0  0
 32 33  1  0  0  0  0
 34 31  1  0  0  0  0
 34 30  1  0  0  0  0
M  END
>  <MODEL>
3

>  <REMARK>
 VINA RESULT:      -9.9      3.595      8.149
  Name = 
  3 active torsions:
  status: ('A' for Active; 'I' for Inactive)
    1  A    between atoms: C_3  and  C_13
    2  A    between atoms: C_12  and  C_28
    3  A    between atoms: N_17  and  N_29
                            x       y       z     vdW  Elec       q    Type
                         _______ _______ _______ _____ _____    ______ ____

>  <TORSDO>
F 3

$$$$
=
 OpenBabel10262423393D

 34 39  0  0  1  0  0  0  0  0999 V2000
  191.8850  175.1030  137.0320 C   0  0  1  0  0  3  0  0  0  0  0  0
  192.9740  176.5900  138.5810 C   0  0  1  0  0  3  0  0  0  0  0  0
  190.3460  176.4350  138.5430 C   0  0  0  0  0  0  0  0  0  0  0  0
  188.6600  177.5210  139.9120 C   0  0  0  0  0  0  0  0  0  0  0  0
  194.2160  174.6730  137.7170 C   0  0  0  0  0  3  0  0  0  0  0  0
  194.1810  175.7600  138.4370 N   0  0  0  0  0  0  0  0  0  0  0  0
  190.4600  176.8990  141.0340 C   0  0  0  0  0  3  0  0  0  0  0  0
  191.7000  175.7240  138.4180 C   0  0  1  0  0  3  0  0  0  0  0  0
  188.4790  177.8740  141.2300 C   0  0  0  0  0  3  0  0  0  0  0  0
  193.0390  174.2200  137.0370 N   0  0  0  0  0  2  0  0  0  0  0  0
  189.3910  176.4120  137.4730 C   0  0  0  0  0  0  0  0  0  0  0  0
  190.6340  174.4530  136.5060 C   0  0  0  0  0  2  0  0  0  0  0  0
  193.0710  177.3590  139.8810 C   0  0  0  0  0  1  0  0  0  0  0  0
  187.7720  177.6280  138.8570 C   0  0  0  0  0  3  0  0  0  0  0  0
  188.1330  177.0800  137.6110 C   0  0  0  0  0  0  0  0  0  0  0  0
  189.5960  177.4860  141.8890 N   0  0  0  0  0  0  0  0  0  0  0  0
  189.8920  176.9360  139.7750 C   0  0  0  0  0  0  0  0  0  0  0  0
  189.6650  175.5930  136.2320 C   0  0  0  0  0  2  0  0  0  0  0  0
  185.0910  176.4980  135.4110 C   0  0  0  0  0  0  0  0  0  0  0  0
  185.3530  177.3650  134.3480 C   0  0  0  0  0  3  0  0  0  0  0  0
  187.1560  177.1920  136.4980 C   0  0  0  0  0  0  0  0  0  0  0  0
  186.5150  178.1400  134.3490 C   0  0  0  0  0  3  0  0  0  0  0  0
  185.9910  176.4080  136.4780 C   0  0  0  0  0  3  0  0  0  0  0  0
  187.4130  178.0510  135.4160 C   0  0  0  0  0  3  0  0  0  0  0  0
  183.9690  175.7410  135.4070 F   0  0  0  0  0  0  0  0  0  0  0  0
  188.8830  177.8220  144.1160 C   0  0  0  0  0  3  0  0  0  0  0  0
  189.8390  177.6380  143.2640 N   0  0  0  0  0  0  0  0  0  0  0  0
  186.9590  178.7010  146.0640 F   0  0  0  0  0  0  0  0  0  0  0  0
  189.1840  177.9780  145.5690 C   0  0  1  0  0  3  0  0  0  0  0  0
  187.9130  177.7550  146.3930 C   0  0  1  0  0  3  0  0  0  0  0  0
  189.2960  176.8510  148.2800 C   0  0  0  0  0  2  0  0  0  0  0  0
  190.5650  177.0990  147.4700 C   0  0  0  0  0  2  0  0  0  0  0  0
  190.2650  176.9760  145.9800 C   0  0  0  0  0  2  0  0  0  0  0  0
  188.2200  177.8590  147.8860 C   0  0  0  0  0  2  0  0  0  0  0  0
  1 12  1  1  0  0  0
  1 10  1  0  0  0  0
  1  8  1  0  0  0  0
  2 13  1  1  0  0  0
  3 17  1  0  0  0  0
  4  9  2  0  0  0  0
  5  6  2  0  0  0  0
  6  2  1  0  0  0  0
  7 16  1  0  0  0  0
  8  3  1  6  0  0  0
  8  2  1  0  0  0  0
  9 16  1  0  0  0  0
 10  5  1  0  0  0  0
 11 15  1  0  0  0  0
 11  3  2  0  0  0  0
 14  4  1  0  0  0  0
 15 14  2  0  0  0  0
 16 27  1  0  0  0  0
 17  4  1  0  0  0  0
 17  7  2  0  0  0  0
 18 12  1  0  0  0  0
 18 11  1  0  0  0  0
 19 23  1  0  0  0  0
 20 22  1  0  0  0  0
 20 19  2  0  0  0  0
 21 15  1  0  0  0  0
 22 24  2  0  0  0  0
 23 21  2  0  0  0  0
 24 21  1  0  0  0  0
 25 19  1  0  0  0  0
 27 26  2  0  0  0  0
 29 26  1  6  0  0  0
 29 33  1  0  0  0  0
 29 30  1  0  0  0  0
 30 28  1  6  0  0  0
 30 34  1  0  0  0  0
 32 31  1  0  0  0  0
 33 32  1  0  0  0  0
 34 31  1  0  0  0  0
M  END
>  <MODEL>
4

>  <REMARK>
 VINA RESULT:      -9.7      3.492      8.523
  Name = 
  3 active torsions:
  status: ('A' for Active; 'I' for Inactive)
    1  A    between atoms: C_3  and  C_13
    2  A    between atoms: C_12  and  C_28
    3  A    between atoms: N_17  and  N_29
                            x       y       z     vdW  Elec       q    Type
                         _______ _______ _______ _____ _____    ______ ____

>  <TORSDO>
F 3

$$$$
=
 OpenBabel10262423393D

 34 39  0  0  1  0  0  0  0  0999 V2000
  186.5750  178.2830  145.8810 C   0  0  1  0  0  3  0  0  0  0  0  0
  188.0560  176.7070  144.8230 C   0  0  1  0  0  3  0  0  0  0  0  0
  186.4490  178.1840  143.3510 C   0  0  0  0  0  0  0  0  0  0  0  0
  186.1840  178.3470  140.9420 C   0  0  0  0  0  0  0  0  0  0  0  0
  188.6250  177.5510  147.0420 C   0  0  0  0  0  3  0  0  0  0  0  0
  188.8860  176.7630  146.0370 N   0  0  0  0  0  0  0  0  0  0  0  0
  188.2810  178.1170  141.5990 C   0  0  0  0  0  3  0  0  0  0  0  0
  187.3560  178.0680  144.5830 C   0  0  1  0  0  3  0  0  0  0  0  0
  186.9790  178.3450  139.8200 C   0  0  0  0  0  3  0  0  0  0  0  0
  187.4980  178.4340  146.9930 N   0  0  0  0  0  2  0  0  0  0  0  0
  185.0630  178.5310  143.4770 C   0  0  0  0  0  0  0  0  0  0  0  0
  185.5640  179.3940  145.7830 C   0  0  0  0  0  2  0  0  0  0  0  0
  188.9110  176.2080  143.6770 C   0  0  0  0  0  1  0  0  0  0  0  0
  184.8190  178.5510  141.0370 C   0  0  0  0  0  3  0  0  0  0  0  0
  184.2340  178.6360  142.3140 C   0  0  0  0  0  0  0  0  0  0  0  0
  188.2530  178.1990  140.2520 N   0  0  0  0  0  0  0  0  0  0  0  0
  186.9770  178.1850  142.0490 C   0  0  0  0  0  0  0  0  0  0  0  0
  184.4930  178.8890  144.8300 C   0  0  0  0  0  2  0  0  0  0  0  0
  180.7000  178.9650  143.6680 C   0  0  0  0  0  0  0  0  0  0  0  0
  179.9870  179.2540  142.5030 C   0  0  0  0  0  3  0  0  0  0  0  0
  182.7700  178.8730  142.3900 C   0  0  0  0  0  0  0  0  0  0  0  0
  180.6550  179.3460  141.2800 C   0  0  0  0  0  3  0  0  0  0  0  0
  182.0830  178.7700  143.6110 C   0  0  0  0  0  3  0  0  0  0  0  0
  182.0380  179.1520  141.2230 C   0  0  0  0  0  3  0  0  0  0  0  0
  180.0510  178.8690  144.8520 F   0  0  0  0  0  0  0  0  0  0  0  0
  189.8050  177.0650  138.8770 C   0  0  0  0  0  3  0  0  0  0  0  0
  189.4010  178.1570  139.4430 N   0  0  0  0  0  0  0  0  0  0  0  0
  192.4670  177.4430  139.8950 F   0  0  0  0  0  0  0  0  0  0  0  0
  191.0280  177.0620  138.0240 C   0  0  1  0  0  3  0  0  0  0  0  0
  192.2330  176.5820  138.8390 C   0  0  1  0  0  3  0  0  0  0  0  0
  193.2480  175.6090  136.7620 C   0  0  0  0  0  2  0  0  0  0  0  0
  192.0610  176.1100  135.9450 C   0  0  0  0  0  2  0  0  0  0  0  0
  190.8090  176.1510  136.8150 C   0  0  0  0  0  2  0  0  0  0  0  0
  193.4820  176.5250  137.9600 C   0  0  0  0  0  2  0  0  0  0  0  0
  1 12  1  6  0  0  0
  1 10  1  0  0  0  0
  2 13  1  6  0  0  0
  2  6  1  0  0  0  0
  3 11  2  0  0  0  0
  4 14  1  0  0  0  0
  4 17  1  0  0  0  0
  6  5  2  0  0  0  0
  7 17  2  0  0  0  0
  8  3  1  6  0  0  0
  8  2  1  0  0  0  0
  8  1  1  0  0  0  0
  9 16  1  0  0  0  0
  9  4  2  0  0  0  0
 10  5  1  0  0  0  0
 11 18  1  0  0  0  0
 14 15  2  0  0  0  0
 15 21  1  0  0  0  0
 15 11  1  0  0  0  0
 16  7  1  0  0  0  0
 17  3  1  0  0  0  0
 18 12  1  0  0  0  0
 19 25  1  0  0  0  0
 20 19  2  0  0  0  0
 21 23  2  0  0  0  0
 22 20  1  0  0  0  0
 23 19  1  0  0  0  0
 24 22  2  0  0  0  0
 24 21  1  0  0  0  0
 26 27  2  0  0  0  0
 27 16  1  0  0  0  0
 29 30  1  0  0  0  0
 29 26  1  1  0  0  0
 30 28  1  1  0  0  0
 31 34  1  0  0  0  0
 32 31  1  0  0  0  0
 32 33  1  0  0  0  0
 33 29  1  0  0  0  0
 34 30  1  0  0  0  0
M  END
>  <MODEL>
5

>  <REMARK>
 VINA RESULT:      -9.6      2.101      3.409
  Name = 
  3 active torsions:
  status: ('A' for Active; 'I' for Inactive)
    1  A    between atoms: C_3  and  C_13
    2  A    between atoms: C_12  and  C_28
    3  A    between atoms: N_17  and  N_29
                            x       y       z     vdW  Elec       q    Type
                         _______ _______ _______ _____ _____    ______ ____

>  <TORSDO>
F 3

$$$$
=
 OpenBabel10262423393D

 34 39  0  0  1  0  0  0  0  0999 V2000
  186.4720  177.3160  136.3810 C   0  0  1  0  0  3  0  0  0  0  0  0
  188.4540  178.3820  137.2360 C   0  0  1  0  0  3  0  0  0  0  0  0
  186.3250  178.1550  138.7690 C   0  0  0  0  0  0  0  0  0  0  0  0
  185.9440  178.7900  141.0820 C   0  0  0  0  0  0  0  0  0  0  0  0
  188.6700  176.8000  135.3890 C   0  0  0  0  0  3  0  0  0  0  0  0
  189.2150  177.6600  136.2040 N   0  0  0  0  0  0  0  0  0  0  0  0
  187.9560  177.9570  140.7010 C   0  0  0  0  0  3  0  0  0  0  0  0
  187.2300  177.5470  137.6900 C   0  0  1  0  0  3  0  0  0  0  0  0
  186.6300  178.7800  142.2740 C   0  0  0  0  0  3  0  0  0  0  0  0
  187.2720  176.5020  135.4830 N   0  0  0  0  0  2  0  0  0  0  0  0
  184.9290  178.3800  138.5290 C   0  0  0  0  0  0  0  0  0  0  0  0
  185.0790  176.7850  136.5930 C   0  0  0  0  0  2  0  0  0  0  0  0
  189.4050  178.7880  138.3420 C   0  0  0  0  0  1  0  0  0  0  0  0
  184.6270  179.1390  140.8420 C   0  0  0  0  0  3  0  0  0  0  0  0
  184.1010  178.9470  139.5510 C   0  0  0  0  0  0  0  0  0  0  0  0
  187.8550  178.2700  142.0100 N   0  0  0  0  0  0  0  0  0  0  0  0
  186.7620  178.3020  140.0960 C   0  0  0  0  0  0  0  0  0  0  0  0
  184.3000  177.9240  137.2320 C   0  0  0  0  0  2  0  0  0  0  0  0
  180.9940  180.9000  138.5690 C   0  0  0  0  0  0  0  0  0  0  0  0
  179.9830  180.0210  138.9630 C   0  0  0  0  0  3  0  0  0  0  0  0
  182.6800  179.3140  139.3220 C   0  0  0  0  0  0  0  0  0  0  0  0
  180.3120  178.7940  139.5430 C   0  0  0  0  0  3  0  0  0  0  0  0
  182.3350  180.5500  138.7530 C   0  0  0  0  0  3  0  0  0  0  0  0
  181.6530  178.4450  139.7260 C   0  0  0  0  0  3  0  0  0  0  0  0
  180.6760  182.0930  138.0130 F   0  0  0  0  0  0  0  0  0  0  0  0
  188.6560  177.9800  144.2140 C   0  0  0  0  0  3  0  0  0  0  0  0
  188.8860  178.0660  142.9430 N   0  0  0  0  0  0  0  0  0  0  0  0
  188.3770  178.1470  147.0710 F   0  0  0  0  0  0  0  0  0  0  0  0
  189.7780  177.7610  145.1720 C   0  0  1  0  0  3  0  0  0  0  0  0
  189.2350  177.2250  146.5000 C   0  0  1  0  0  3  0  0  0  0  0  0
  191.3690  175.9570  146.8590 C   0  0  0  0  0  2  0  0  0  0  0  0
  191.9210  176.5120  145.5500 C   0  0  0  0  0  2  0  0  0  0  0  0
  190.7800  176.7730  144.5720 C   0  0  0  0  0  2  0  0  0  0  0  0
  190.3810  176.9460  147.4710 C   0  0  0  0  0  2  0  0  0  0  0  0
  1 12  1  1  0  0  0
  1  8  1  0  0  0  0
  2  8  1  0  0  0  0
  2 13  1  1  0  0  0
  3 17  1  0  0  0  0
  4  9  2  0  0  0  0
  5 10  1  0  0  0  0
  5  6  2  0  0  0  0
  6  2  1  0  0  0  0
  7 16  1  0  0  0  0
  8  3  1  1  0  0  0
 10  1  1  0  0  0  0
 11  3  2  0  0  0  0
 11 15  1  0  0  0  0
 12 18  1  0  0  0  0
 14  4  1  0  0  0  0
 15 14  2  0  0  0  0
 16  9  1  0  0  0  0
 16 27  1  0  0  0  0
 17  7  2  0  0  0  0
 17  4  1  0  0  0  0
 18 11  1  0  0  0  0
 19 23  2  0  0  0  0
 19 20  1  0  0  0  0
 20 22  2  0  0  0  0
 21 15  1  0  0  0  0
 21 24  2  0  0  0  0
 22 24  1  0  0  0  0
 23 21  1  0  0  0  0
 25 19  1  0  0  0  0
 27 26  2  0  0  0  0
 29 26  1  6  0  0  0
 29 30  1  0  0  0  0
 30 28  1  1  0  0  0
 30 34  1  0  0  0  0
 31 34  1  0  0  0  0
 32 31  1  0  0  0  0
 33 29  1  0  0  0  0
 33 32  1  0  0  0  0
M  END
>  <MODEL>
6

>  <REMARK>
 VINA RESULT:      -9.5      4.116      8.156
  Name = 
  3 active torsions:
  status: ('A' for Active; 'I' for Inactive)
    1  A    between atoms: C_3  and  C_13
    2  A    between atoms: C_12  and  C_28
    3  A    between atoms: N_17  and  N_29
                            x       y       z     vdW  Elec       q    Type
                         _______ _______ _______ _____ _____    ______ ____

>  <TORSDO>
F 3

$$$$
=
 OpenBabel10262423393D

 34 39  0  0  1  0  0  0  0  0999 V2000
  187.1540  177.4960  137.5570 C   0  0  1  0  0  3  0  0  0  0  0  0
  188.5990  178.4500  139.2300 C   0  0  1  0  0  3  0  0  0  0  0  0
  186.0070  178.3080  139.6660 C   0  0  0  0  0  0  0  0  0  0  0  0
  184.6750  178.9280  141.6000 C   0  0  0  0  0  0  0  0  0  0  0  0
  189.5430  176.8850  137.6100 C   0  0  0  0  0  3  0  0  0  0  0  0
  189.7080  177.7050  138.6110 N   0  0  0  0  0  0  0  0  0  0  0  0
  186.6150  178.0020  142.1090 C   0  0  0  0  0  3  0  0  0  0  0  0
  187.2690  177.6710  139.0730 C   0  0  1  0  0  3  0  0  0  0  0  0
  184.7660  178.8680  142.9710 C   0  0  0  0  0  3  0  0  0  0  0  0
  188.2350  176.6560  137.0730 N   0  0  0  0  0  2  0  0  0  0  0  0
  184.8680  178.6060  138.8480 C   0  0  0  0  0  0  0  0  0  0  0  0
  185.7900  177.0320  137.1200 C   0  0  0  0  0  2  0  0  0  0  0  0
  188.9840  178.7930  140.6530 C   0  0  0  0  0  1  0  0  0  0  0  0
  183.6110  179.3460  140.8200 C   0  0  0  0  0  3  0  0  0  0  0  0
  183.6980  179.1990  139.4230 C   0  0  0  0  0  0  0  0  0  0  0  0
  185.9630  178.3020  143.2520 N   0  0  0  0  0  0  0  0  0  0  0  0
  185.8230  178.4140  141.0550 C   0  0  0  0  0  0  0  0  0  0  0  0
  184.8550  178.2000  137.3920 C   0  0  0  0  0  2  0  0  0  0  0  0
  181.1120  181.4050  137.7280 C   0  0  0  0  0  0  0  0  0  0  0  0
  180.2930  180.4500  137.1210 C   0  0  0  0  0  3  0  0  0  0  0  0
  182.5370  179.6390  138.6080 C   0  0  0  0  0  0  0  0  0  0  0  0
  180.5850  179.0910  137.2600 C   0  0  0  0  0  3  0  0  0  0  0  0
  182.2240  181.0010  138.4720 C   0  0  0  0  0  3  0  0  0  0  0  0
  181.6980  178.6880  138.0030 C   0  0  0  0  0  3  0  0  0  0  0  0
  180.8260  182.7220  137.5990 F   0  0  0  0  0  0  0  0  0  0  0  0
  187.6120  177.4510  144.7160 C   0  0  0  0  0  3  0  0  0  0  0  0
  186.4700  178.0330  144.5350 N   0  0  0  0  0  0  0  0  0  0  0  0
  190.3190  176.6870  145.3110 F   0  0  0  0  0  0  0  0  0  0  0  0
  188.1160  177.1860  146.0940 C   0  0  1  0  0  3  0  0  0  0  0  0
  189.6120  177.5040  146.1750 C   0  0  1  0  0  3  0  0  0  0  0  0
  189.3450  178.1470  148.5840 C   0  0  0  0  0  2  0  0  0  0  0  0
  187.8600  177.8040  148.5120 C   0  0  0  0  0  2  0  0  0  0  0  0
  187.3380  178.0390  147.0980 C   0  0  0  0  0  2  0  0  0  0  0  0
  190.1270  177.2860  147.5960 C   0  0  0  0  0  2  0  0  0  0  0  0
  1 12  1  1  0  0  0
  1  8  1  0  0  0  0
  2 13  1  1  0  0  0
  3 17  1  0  0  0  0
  4  9  2  0  0  0  0
  5  6  2  0  0  0  0
  6  2  1  0  0  0  0
  7 16  1  0  0  0  0
  8  2  1  0  0  0  0
  8  3  1  6  0  0  0
  9 16  1  0  0  0  0
 10  1  1  0  0  0  0
 10  5  1  0  0  0  0
 11 15  1  0  0  0  0
 11  3  2  0  0  0  0
 12 18  1  0  0  0  0
 14  4  1  0  0  0  0
 15 14  2  0  0  0  0
 16 27  1  0  0  0  0
 17  4  1  0  0  0  0
 17  7  2  0  0  0  0
 18 11  1  0  0  0  0
 19 23  1  0  0  0  0
 20 22  1  0  0  0  0
 20 19  2  0  0  0  0
 21 15  1  0  0  0  0
 22 24  2  0  0  0  0
 23 21  2  0  0  0  0
 24 21  1  0  0  0  0
 25 19  1  0  0  0  0
 27 26  2  0  0  0  0
 29 26  1  6  0  0  0
 29 30  1  0  0  0  0
 29 33  1  0  0  0  0
 30 28  1  6  0  0  0
 30 34  1  0  0  0  0
 32 31  1  0  0  0  0
 33 32  1  0  0  0  0
 34 31  1  0  0  0  0
M  END
>  <MODEL>
7

>  <REMARK>
 VINA RESULT:      -9.4      4.246      8.443
  Name = 
  3 active torsions:
  status: ('A' for Active; 'I' for Inactive)
    1  A    between atoms: C_3  and  C_13
    2  A    between atoms: C_12  and  C_28
    3  A    between atoms: N_17  and  N_29
                            x       y       z     vdW  Elec       q    Type
                         _______ _______ _______ _____ _____    ______ ____

>  <TORSDO>
F 3

$$$$
=
 OpenBabel10262423393D

 34 39  0  0  1  0  0  0  0  0999 V2000
  188.9900  177.8910  139.5740 C   0  0  1  0  0  3  0  0  0  0  0  0
  187.3770  176.9660  138.0450 C   0  0  1  0  0  3  0  0  0  0  0  0
  186.5580  178.2440  140.1960 C   0  0  0  0  0  0  0  0  0  0  0  0
  184.3250  178.7860  140.9810 C   0  0  0  0  0  0  0  0  0  0  0  0
  189.6150  177.4910  137.2220 C   0  0  0  0  0  3  0  0  0  0  0  0
  188.4260  176.9980  137.0130 N   0  0  0  0  0  0  0  0  0  0  0  0
  184.5740  178.9690  138.7930 C   0  0  0  0  0  3  0  0  0  0  0  0
  187.5720  178.1280  139.0510 C   0  0  1  0  0  3  0  0  0  0  0  0
  183.1230  179.1950  140.4520 C   0  0  0  0  0  3  0  0  0  0  0  0
  189.9490  178.0560  138.4950 N   0  0  0  0  0  2  0  0  0  0  0  0
  186.9760  178.2020  141.5670 C   0  0  0  0  0  0  0  0  0  0  0  0
  189.3120  178.7120  140.7950 C   0  0  0  0  0  2  0  0  0  0  0  0
  186.0280  176.9220  137.3600 C   0  0  0  0  0  1  0  0  0  0  0  0
  184.6760  178.6210  142.3090 C   0  0  0  0  0  3  0  0  0  0  0  0
  186.0130  178.3130  142.6210 C   0  0  0  0  0  0  0  0  0  0  0  0
  183.3040  179.2940  139.1150 N   0  0  0  0  0  0  0  0  0  0  0  0
  185.2260  178.6220  139.9610 C   0  0  0  0  0  0  0  0  0  0  0  0
  188.4470  178.1430  141.9090 C   0  0  0  0  0  2  0  0  0  0  0  0
  187.8420  177.2980  145.7920 C   0  0  0  0  0  0  0  0  0  0  0  0
  186.9910  177.8100  146.7750 C   0  0  0  0  0  3  0  0  0  0  0  0
  186.3690  178.1570  144.0550 C   0  0  0  0  0  0  0  0  0  0  0  0
  185.8270  178.4870  146.4050 C   0  0  0  0  0  3  0  0  0  0  0  0
  187.5300  177.4670  144.4400 C   0  0  0  0  0  3  0  0  0  0  0  0
  185.5160  178.6560  145.0530 C   0  0  0  0  0  3  0  0  0  0  0  0
  188.9670  176.6350  146.1500 F   0  0  0  0  0  0  0  0  0  0  0  0
  181.8630  180.8980  138.1480 C   0  0  0  0  0  3  0  0  0  0  0  0
  182.3390  179.6940  138.1760 N   0  0  0  0  0  0  0  0  0  0  0  0
  180.7830  183.5500  137.8910 F   0  0  0  0  0  0  0  0  0  0  0  0
  180.8390  181.2830  137.1340 C   0  0  1  0  0  3  0  0  0  0  0  0
  180.9910  182.7630  136.7730 C   0  0  1  0  0  3  0  0  0  0  0  0
  180.1600  182.2830  134.4560 C   0  0  0  0  0  2  0  0  0  0  0  0
  179.9820  180.8130  134.8230 C   0  0  0  0  0  2  0  0  0  0  0  0
  181.0010  180.4130  135.8850 C   0  0  0  0  0  2  0  0  0  0  0  0
  179.9820  183.1560  135.6950 C   0  0  0  0  0  2  0  0  0  0  0  0
  1 12  1  1  0  0  0
  2 13  1  6  0  0  0
  2  8  1  0  0  0  0
  3 11  2  0  0  0  0
  4 14  1  0  0  0  0
  5 10  1  0  0  0  0
  6  5  2  0  0  0  0
  6  2  1  0  0  0  0
  7 16  1  0  0  0  0
  7 17  2  0  0  0  0
  8  1  1  0  0  0  0
  8  3  1  1  0  0  0
  9  4  2  0  0  0  0
 10  1  1  0  0  0  0
 11 18  1  0  0  0  0
 11 15  1  0  0  0  0
 12 18  1  0  0  0  0
 14 15  2  0  0  0  0
 15 21  1  0  0  0  0
 16  9  1  0  0  0  0
 17  3  1  0  0  0  0
 17  4  1  0  0  0  0
 19 25  1  0  0  0  0
 19 20  1  0  0  0  0
 21 23  1  0  0  0  0
 21 24  2  0  0  0  0
 22 20  2  0  0  0  0
 23 19  2  0  0  0  0
 24 22  1  0  0  0  0
 26 27  2  0  0  0  0
 27 16  1  0  0  0  0
 29 26  1  1  0  0  0
 30 29  1  0  0  0  0
 30 28  1  1  0  0  0
 31 32  1  0  0  0  0
 31 34  1  0  0  0  0
 32 33  1  0  0  0  0
 33 29  1  0  0  0  0
 34 30  1  0  0  0  0
M  END
>  <MODEL>
8

>  <REMARK>
 VINA RESULT:      -9.1      5.246      8.974
  Name = 
  3 active torsions:
  status: ('A' for Active; 'I' for Inactive)
    1  A    between atoms: C_3  and  C_13
    2  A    between atoms: C_12  and  C_28
    3  A    between atoms: N_17  and  N_29
                            x       y       z     vdW  Elec       q    Type
                         _______ _______ _______ _____ _____    ______ ____

>  <TORSDO>
F 3

$$$$
=
 OpenBabel10262423393D

 34 39  0  0  1  0  0  0  0  0999 V2000
  190.0850  176.8810  138.8290 C   0  0  1  0  0  3  0  0  0  0  0  0
  188.0610  176.1960  137.7210 C   0  0  1  0  0  3  0  0  0  0  0  0
  187.9260  177.6490  139.9130 C   0  0  0  0  0  0  0  0  0  0  0  0
  186.0220  178.5740  141.1030 C   0  0  0  0  0  0  0  0  0  0  0  0
  190.1280  176.3210  136.4270 C   0  0  0  0  0  3  0  0  0  0  0  0
  188.8600  176.0270  136.4960 N   0  0  0  0  0  0  0  0  0  0  0  0
  185.8290  178.6560  138.9030 C   0  0  0  0  0  3  0  0  0  0  0  0
  188.6440  177.3360  138.5940 C   0  0  1  0  0  3  0  0  0  0  0  0
  184.8150  179.1630  140.8070 C   0  0  0  0  0  3  0  0  0  0  0  0
  190.8080  176.8570  137.5690 N   0  0  0  0  0  2  0  0  0  0  0  0
  188.6120  177.5740  141.1690 C   0  0  0  0  0  0  0  0  0  0  0  0
  190.7830  177.6690  139.9060 C   0  0  0  0  0  2  0  0  0  0  0  0
  186.6080  176.3590  137.3300 C   0  0  0  0  0  1  0  0  0  0  0  0
  186.6160  178.3880  142.3390 C   0  0  0  0  0  3  0  0  0  0  0  0
  187.9240  177.8720  142.3890 C   0  0  0  0  0  0  0  0  0  0  0  0
  184.7230  179.1960  139.4570 N   0  0  0  0  0  0  0  0  0  0  0  0
  186.6500  178.2360  139.9320 C   0  0  0  0  0  0  0  0  0  0  0  0
  190.0950  177.2810  141.2060 C   0  0  0  0  0  2  0  0  0  0  0  0
  188.3520  177.2840  146.1180 C   0  0  0  0  0  0  0  0  0  0  0  0
  189.7320  177.4390  146.2620 C   0  0  0  0  0  3  0  0  0  0  0  0
  188.5460  177.6960  143.7260 C   0  0  0  0  0  0  0  0  0  0  0  0
  190.5230  177.7290  145.1480 C   0  0  0  0  0  3  0  0  0  0  0  0
  187.7620  177.4180  144.8580 C   0  0  0  0  0  3  0  0  0  0  0  0
  189.9320  177.8620  143.8880 C   0  0  0  0  0  3  0  0  0  0  0  0
  187.5850  177.0090  147.1990 F   0  0  0  0  0  0  0  0  0  0  0  0
  182.4770  179.1890  138.7220 C   0  0  0  0  0  3  0  0  0  0  0  0
  183.6550  179.7250  138.7130 N   0  0  0  0  0  0  0  0  0  0  0  0
  181.3540  181.7890  139.2210 F   0  0  0  0  0  0  0  0  0  0  0  0
  181.3700  179.7840  137.9190 C   0  0  1  0  0  3  0  0  0  0  0  0
  181.4770  181.3110  137.9290 C   0  0  1  0  0  3  0  0  0  0  0  0
  180.4620  181.3970  135.6370 C   0  0  0  0  0  2  0  0  0  0  0  0
  180.3290  179.8770  135.6380 C   0  0  0  0  0  2  0  0  0  0  0  0
  181.4360  179.2570  136.4840 C   0  0  0  0  0  2  0  0  0  0  0  0
  180.3790  181.9290  137.0650 C   0  0  0  0  0  2  0  0  0  0  0  0
  1 12  1  1  0  0  0
  2 13  1  6  0  0  0
  2  8  1  0  0  0  0
  3 17  1  0  0  0  0
  3 11  2  0  0  0  0
  4 14  1  0  0  0  0
  5  6  2  0  0  0  0
  5 10  1  0  0  0  0
  6  2  1  0  0  0  0
  7 16  1  0  0  0  0
  7 17  2  0  0  0  0
  8  1  1  0  0  0  0
  8  3  1  1  0  0  0
  9  4  2  0  0  0  0
 10  1  1  0  0  0  0
 11 18  1  0  0  0  0
 11 15  1  0  0  0  0
 12 18  1  0  0  0  0
 14 15  2  0  0  0  0
 15 21  1  0  0  0  0
 16  9  1  0  0  0  0
 17  4  1  0  0  0  0
 19 20  1  0  0  0  0
 19 25  1  0  0  0  0
 21 24  2  0  0  0  0
 21 23  1  0  0  0  0
 22 20  2  0  0  0  0
 23 19  2  0  0  0  0
 24 22  1  0  0  0  0
 27 26  2  0  0  0  0
 27 16  1  0  0  0  0
 29 30  1  0  0  0  0
 29 26  1  1  0  0  0
 30 28  1  1  0  0  0
 31 32  1  0  0  0  0
 31 34  1  0  0  0  0
 32 33  1  0  0  0  0
 33 29  1  0  0  0  0
 34 30  1  0  0  0  0
M  END
>  <MODEL>
9

>  <REMARK>
 VINA RESULT:      -9.1      4.497      8.661
  Name = 
  3 active torsions:
  status: ('A' for Active; 'I' for Inactive)
    1  A    between atoms: C_3  and  C_13
    2  A    between atoms: C_12  and  C_28
    3  A    between atoms: N_17  and  N_29
                            x       y       z     vdW  Elec       q    Type
                         _______ _______ _______ _____ _____    ______ ____

>  <TORSDO>
F 3

$$$$
