=
 OpenBabel10272400213D

 31 35  0  0  1  0  0  0  0  0999 V2000
  190.3620  177.3670  147.0940 C   0  0  0  0  0  0  0  0  0  0  0  0
  188.4410  177.6810  143.7940 C   0  0  0  0  0  0  0  0  0  0  0  0
  187.1030  178.0750  144.1070 C   0  0  0  0  0  0  0  0  0  0  0  0
  185.2430  177.5640  145.7520 C   0  0  0  0  0  2  0  0  0  0  0  0
  189.4640  177.2960  144.8280 C   0  0  0  0  0  0  0  0  0  0  0  0
  191.4660  176.6140  146.6910 C   0  0  0  0  0  3  0  0  0  0  0  0
  186.6500  178.1010  145.5500 C   0  0  0  0  0  2  0  0  0  0  0  0
  190.2510  177.2070  142.0660 C   0  0  2  0  0  3  0  0  0  0  0  0
  190.2490  177.7660  148.3830 F   0  0  0  0  0  0  0  0  0  0  0  0
  186.6890  178.4730  141.7370 C   0  0  0  0  0  3  0  0  0  0  0  0
  184.2190  178.6930  145.6560 C   0  0  0  0  0  2  0  0  0  0  0  0
  190.7540  176.1200  143.0120 C   0  0  0  0  0  2  0  0  0  0  0  0
  188.8430  177.6250  142.4330 C   0  0  0  0  0  0  0  0  0  0  0  0
  189.3750  177.7090  146.1680 C   0  0  0  0  0  3  0  0  0  0  0  0
  184.4900  179.6420  144.4890 C   0  0  0  0  0  2  0  0  0  0  0  0
  190.6040  176.5640  144.4300 C   0  0  0  0  0  0  0  0  0  0  0  0
  191.5870  176.2140  145.3600 C   0  0  0  0  0  3  0  0  0  0  0  0
  187.9720  178.0510  141.4300 C   0  0  0  0  0  3  0  0  0  0  0  0
  186.2370  178.4970  143.0540 C   0  0  0  0  0  0  0  0  0  0  0  0
  184.7840  178.8630  143.2180 C   0  0  0  0  0  2  0  0  0  0  0  0
  191.3860  175.3410  135.8410 C   0  0  2  0  0  3  0  0  0  0  0  0
  190.2640  175.7340  138.0180 C   0  0  0  0  0  2  0  0  0  0  0  0
  193.8170  176.5020  138.2440 O   0  0  0  0  0  0  0  0  0  0  0  0
  192.4750  177.5200  140.3130 O   0  0  0  0  0  0  0  0  0  0  0  0
  191.2220  175.3730  134.3990 N   0  0  0  0  0  1  0  0  0  0  0  0
  191.4770  176.8940  139.8650 C   0  0  0  0  0  0  0  0  0  0  0  0
  190.1350  175.8890  136.5060 C   0  0  0  0  0  2  0  0  0  0  0  0
  192.6830  176.3430  137.7190 C   0  0  0  0  0  0  0  0  0  0  0  0
  191.4820  176.3760  138.5210 N   0  0  0  0  0  0  0  0  0  0  0  0
  190.3200  176.7200  140.6910 N   0  0  0  0  0  2  0  0  0  0  0  0
  192.5950  176.1790  136.2320 C   0  0  0  0  0  2  0  0  0  0  0  0
  1  9  1  0  0  0  0
  2  3  1  0  0  0  0
  2  5  1  0  0  0  0
  3  7  1  0  0  0  0
  5 14  1  0  0  0  0
  6  1  1  0  0  0  0
  7  4  1  0  0  0  0
  8 30  1  6  0  0  0
  8 13  1  0  0  0  0
  8 12  1  0  0  0  0
 10 19  1  0  0  0  0
 11  4  1  0  0  0  0
 12 16  1  0  0  0  0
 13  2  2  0  0  0  0
 14  1  2  0  0  0  0
 15 11  1  0  0  0  0
 16  5  2  0  0  0  0
 16 17  1  0  0  0  0
 17  6  2  0  0  0  0
 18 10  2  0  0  0  0
 18 13  1  0  0  0  0
 19 20  1  0  0  0  0
 19  3  2  0  0  0  0
 20 15  1  0  0  0  0
 21 25  1  6  0  0  0
 21 31  1  0  0  0  0
 21 27  1  0  0  0  0
 22 29  1  0  0  0  0
 26 24  2  0  0  0  0
 26 30  1  0  0  0  0
 27 22  1  0  0  0  0
 28 23  2  0  0  0  0
 28 29  1  0  0  0  0
 29 26  1  0  0  0  0
 31 28  1  0  0  0  0
M  END
>  <MODEL>
1

>  <REMARK>
 VINA RESULT:     -11.8      0.000      0.000
  Name = 
  1 active torsions:
  status: ('A' for Active; 'I' for Inactive)
    1  A    between atoms: C_15  and  N_23
                            x       y       z     vdW  Elec       q    Type
                         _______ _______ _______ _____ _____    ______ ____

>  <TORSDO>
F 1

$$$$
=
 OpenBabel10272400213D

 31 35  0  0  1  0  0  0  0  0999 V2000
  184.0090  178.7120  143.5500 C   0  0  0  0  0  0  0  0  0  0  0  0
  187.6670  177.6260  143.8980 C   0  0  0  0  0  0  0  0  0  0  0  0
  187.9790  177.5950  145.2930 C   0  0  0  0  0  0  0  0  0  0  0  0
  187.6250  178.9430  147.4120 C   0  0  0  0  0  2  0  0  0  0  0  0
  186.3760  178.1600  143.3410 C   0  0  0  0  0  0  0  0  0  0  0  0
  183.9670  179.0850  142.2050 C   0  0  0  0  0  3  0  0  0  0  0  0
  186.9830  178.1380  146.2930 C   0  0  0  0  0  2  0  0  0  0  0  0
  188.3300  177.1720  141.4810 C   0  0  2  0  0  3  0  0  0  0  0  0
  182.8930  178.7990  144.3120 F   0  0  0  0  0  0  0  0  0  0  0  0
  190.0920  176.4930  144.7740 C   0  0  0  0  0  3  0  0  0  0  0  0
  187.9660  178.0380  148.5950 C   0  0  0  0  0  2  0  0  0  0  0  0
  187.5220  178.4130  141.1130 C   0  0  0  0  0  2  0  0  0  0  0  0
  188.6260  177.1490  142.9660 C   0  0  0  0  0  0  0  0  0  0  0  0
  185.2020  178.2480  144.1080 C   0  0  0  0  0  3  0  0  0  0  0  0
  188.6070  176.7190  148.1690 C   0  0  0  0  0  2  0  0  0  0  0  0
  186.3070  178.5100  141.9750 C   0  0  0  0  0  0  0  0  0  0  0  0
  185.1150  178.9820  141.4190 C   0  0  0  0  0  3  0  0  0  0  0  0
  189.8080  176.5620  143.4200 C   0  0  0  0  0  3  0  0  0  0  0  0
  189.2010  176.9940  145.7200 C   0  0  0  0  0  0  0  0  0  0  0  0
  189.7020  176.9580  147.1410 C   0  0  0  0  0  2  0  0  0  0  0  0
  193.3760  176.7620  137.2510 C   0  0  2  0  0  3  0  0  0  0  0  0
  192.0570  177.1190  139.3210 C   0  0  0  0  0  2  0  0  0  0  0  0
  189.8560  176.6190  136.4630 O   0  0  0  0  0  0  0  0  0  0  0  0
  188.5300  176.3470  138.7620 O   0  0  0  0  0  0  0  0  0  0  0  0
  194.6070  176.2160  136.7080 N   0  0  0  0  0  1  0  0  0  0  0  0
  189.5910  176.7340  139.3220 C   0  0  0  0  0  0  0  0  0  0  0  0
  193.2860  176.4350  138.7330 C   0  0  0  0  0  2  0  0  0  0  0  0
  190.8940  176.5380  137.1710 C   0  0  0  0  0  0  0  0  0  0  0  0
  190.8370  176.7450  138.6000 N   0  0  0  0  0  0  0  0  0  0  0  0
  189.5590  177.1440  140.6940 N   0  0  0  0  0  2  0  0  0  0  0  0
  192.1870  176.1640  136.5120 C   0  0  0  0  0  2  0  0  0  0  0  0
  1 14  1  0  0  0  0
  1  9  1  0  0  0  0
  2  3  1  0  0  0  0
  3 19  2  0  0  0  0
  3  7  1  0  0  0  0
  4 11  1  0  0  0  0
  5  2  1  0  0  0  0
  5 14  2  0  0  0  0
  6  1  2  0  0  0  0
  7  4  1  0  0  0  0
  8 30  1  6  0  0  0
  8 13  1  0  0  0  0
 10 19  1  0  0  0  0
 12  8  1  0  0  0  0
 12 16  1  0  0  0  0
 13 18  1  0  0  0  0
 13  2  2  0  0  0  0
 15 11  1  0  0  0  0
 16  5  1  0  0  0  0
 17 16  2  0  0  0  0
 17  6  1  0  0  0  0
 18 10  2  0  0  0  0
 19 20  1  0  0  0  0
 20 15  1  0  0  0  0
 21 25  1  6  0  0  0
 21 27  1  0  0  0  0
 23 28  2  0  0  0  0
 24 26  2  0  0  0  0
 26 30  1  0  0  0  0
 27 22  1  0  0  0  0
 28 29  1  0  0  0  0
 29 22  1  0  0  0  0
 29 26  1  0  0  0  0
 31 28  1  0  0  0  0
 31 21  1  0  0  0  0
M  END
>  <MODEL>
2

>  <REMARK>
 VINA RESULT:     -10.9      2.308      4.498
  Name = 
  1 active torsions:
  status: ('A' for Active; 'I' for Inactive)
    1  A    between atoms: C_15  and  N_23
                            x       y       z     vdW  Elec       q    Type
                         _______ _______ _______ _____ _____    ______ ____

>  <TORSDO>
F 1

$$$$
=
 OpenBabel10272400213D

 31 35  0  0  1  0  0  0  0  0999 V2000
  185.7200  178.5970  146.6400 C   0  0  0  0  0  0  0  0  0  0  0  0
  184.6440  178.6300  142.9630 C   0  0  0  0  0  0  0  0  0  0  0  0
  183.2240  178.7990  142.9280 C   0  0  0  0  0  0  0  0  0  0  0  0
  181.1240  177.9760  144.0840 C   0  0  0  0  0  2  0  0  0  0  0  0
  185.4290  178.4050  144.2260 C   0  0  0  0  0  0  0  0  0  0  0  0
  186.9950  178.0370  146.5410 C   0  0  0  0  0  3  0  0  0  0  0  0
  182.4330  178.7360  144.2160 C   0  0  0  0  0  2  0  0  0  0  0  0
  186.8750  178.4730  141.7440 C   0  0  2  0  0  3  0  0  0  0  0  0
  185.2320  178.9600  147.8490 F   0  0  0  0  0  0  0  0  0  0  0  0
  183.3470  179.1490  140.5170 C   0  0  0  0  0  3  0  0  0  0  0  0
  179.9880  178.9260  143.7070 C   0  0  0  0  0  2  0  0  0  0  0  0
  187.2960  177.4730  142.8160 C   0  0  0  0  0  2  0  0  0  0  0  0
  185.3710  178.6540  141.7430 C   0  0  0  0  0  0  0  0  0  0  0  0
  184.9490  178.7840  145.4910 C   0  0  0  0  0  3  0  0  0  0  0  0
  180.3820  179.9180  142.6140 C   0  0  0  0  0  2  0  0  0  0  0  0
  186.7340  177.8710  144.1400 C   0  0  0  0  0  0  0  0  0  0  0  0
  187.5010  177.6750  145.2920 C   0  0  0  0  0  3  0  0  0  0  0  0
  184.7170  178.9440  140.5450 C   0  0  0  0  0  3  0  0  0  0  0  0
  182.5880  179.0860  141.6830 C   0  0  0  0  0  0  0  0  0  0  0  0
  181.1000  179.2100  141.4770 C   0  0  0  0  0  2  0  0  0  0  0  0
  189.8450  176.3480  136.2500 C   0  0  2  0  0  3  0  0  0  0  0  0
  188.1230  177.1840  137.8280 C   0  0  0  0  0  2  0  0  0  0  0  0
  191.1700  176.2810  139.6080 O   0  0  0  0  0  0  0  0  0  0  0  0
  189.5680  177.7740  141.1310 O   0  0  0  0  0  0  0  0  0  0  0  0
  190.3760  176.4610  134.9030 N   0  0  0  0  0  1  0  0  0  0  0  0
  188.7220  177.6640  140.2020 C   0  0  0  0  0  0  0  0  0  0  0  0
  188.7610  177.3920  136.4590 C   0  0  0  0  0  2  0  0  0  0  0  0
  190.4350  176.6490  138.6530 C   0  0  0  0  0  0  0  0  0  0  0  0
  189.1260  177.2090  138.8970 N   0  0  0  0  0  0  0  0  0  0  0  0
  187.3560  178.0190  140.4420 N   0  0  0  0  0  2  0  0  0  0  0  0
  190.9690  176.5540  137.2560 C   0  0  0  0  0  2  0  0  0  0  0  0
  1  9  1  0  0  0  0
  2  5  1  0  0  0  0
  3  2  1  0  0  0  0
  3  7  1  0  0  0  0
  4  7  1  0  0  0  0
  5 14  1  0  0  0  0
  6  1  1  0  0  0  0
  8 30  1  6  0  0  0
  8 12  1  0  0  0  0
 10 18  2  0  0  0  0
 10 19  1  0  0  0  0
 11  4  1  0  0  0  0
 12 16  1  0  0  0  0
 13  8  1  0  0  0  0
 13  2  2  0  0  0  0
 14  1  2  0  0  0  0
 15 11  1  0  0  0  0
 16  5  2  0  0  0  0
 16 17  1  0  0  0  0
 17  6  2  0  0  0  0
 18 13  1  0  0  0  0
 19  3  2  0  0  0  0
 20 19  1  0  0  0  0
 20 15  1  0  0  0  0
 21 25  1  6  0  0  0
 21 27  1  0  0  0  0
 21 31  1  0  0  0  0
 22 29  1  0  0  0  0
 26 30  1  0  0  0  0
 26 24  2  0  0  0  0
 27 22  1  0  0  0  0
 28 29  1  0  0  0  0
 28 23  2  0  0  0  0
 29 26  1  0  0  0  0
 31 28  1  0  0  0  0
M  END
>  <MODEL>
3

>  <REMARK>
 VINA RESULT:     -10.1      2.445      3.723
  Name = 
  1 active torsions:
  status: ('A' for Active; 'I' for Inactive)
    1  A    between atoms: C_15  and  N_23
                            x       y       z     vdW  Elec       q    Type
                         _______ _______ _______ _____ _____    ______ ____

>  <TORSDO>
F 1

$$$$
=
 OpenBabel10272400213D

 31 35  0  0  1  0  0  0  0  0999 V2000
  191.0450  176.9160  146.6810 C   0  0  0  0  0  0  0  0  0  0  0  0
  188.3340  177.4680  144.0310 C   0  0  0  0  0  0  0  0  0  0  0  0
  187.1380  177.8590  144.7100 C   0  0  0  0  0  0  0  0  0  0  0  0
  185.7620  177.2660  146.7550 C   0  0  0  0  0  2  0  0  0  0  0  0
  189.5810  177.0030  144.7330 C   0  0  0  0  0  0  0  0  0  0  0  0
  191.9820  176.1760  145.9570 C   0  0  0  0  0  3  0  0  0  0  0  0
  187.0820  177.7970  146.2200 C   0  0  0  0  0  2  0  0  0  0  0  0
  189.6110  177.0820  141.8610 C   0  0  2  0  0  3  0  0  0  0  0  0
  191.2870  177.2330  147.9750 F   0  0  0  0  0  0  0  0  0  0  0  0
  186.1260  178.4140  142.5610 C   0  0  0  0  0  3  0  0  0  0  0  0
  184.7830  178.4130  146.9990 C   0  0  0  0  0  2  0  0  0  0  0  0
  190.3130  175.9300  142.5750 C   0  0  0  0  0  2  0  0  0  0  0  0
  188.3620  177.4940  142.6110 C   0  0  0  0  0  0  0  0  0  0  0  0
  189.8600  177.3300  146.0700 C   0  0  0  0  0  3  0  0  0  0  0  0
  184.7650  179.4320  145.8610 C   0  0  0  0  0  2  0  0  0  0  0  0
  190.5540  176.2830  144.0050 C   0  0  0  0  0  0  0  0  0  0  0  0
  191.7360  175.8610  144.6200 C   0  0  0  0  0  3  0  0  0  0  0  0
  187.2700  177.9960  141.9010 C   0  0  0  0  0  3  0  0  0  0  0  0
  186.0380  178.3590  143.9490 C   0  0  0  0  0  0  0  0  0  0  0  0
  184.6910  178.7320  144.5130 C   0  0  0  0  0  2  0  0  0  0  0  0
  188.2160  176.1540  135.4800 C   0  0  2  0  0  3  0  0  0  0  0  0
  188.6680  175.7280  137.8820 C   0  0  0  0  0  2  0  0  0  0  0  0
  189.3570  179.2040  137.0390 O   0  0  0  0  0  0  0  0  0  0  0  0
  189.1880  178.8660  139.6800 O   0  0  0  0  0  0  0  0  0  0  0  0
  187.3860  175.7890  134.3460 N   0  0  0  0  0  1  0  0  0  0  0  0
  189.1170  177.6310  139.4320 C   0  0  0  0  0  0  0  0  0  0  0  0
  187.7170  175.4400  136.7250 C   0  0  0  0  0  2  0  0  0  0  0  0
  188.8340  178.0610  136.9620 C   0  0  0  0  0  0  0  0  0  0  0  0
  188.8280  177.1690  138.0990 N   0  0  0  0  0  0  0  0  0  0  0  0
  189.3010  176.6850  140.4900 N   0  0  0  0  0  2  0  0  0  0  0  0
  188.1600  177.6610  135.6850 C   0  0  0  0  0  2  0  0  0  0  0  0
  1  9  1  0  0  0  0
  2  3  1  0  0  0  0
  2  5  1  0  0  0  0
  3  7  1  0  0  0  0
  4 11  1  0  0  0  0
  5 14  2  0  0  0  0
  6  1  2  0  0  0  0
  7  4  1  0  0  0  0
  8 30  1  6  0  0  0
  8 12  1  0  0  0  0
  8 13  1  0  0  0  0
 10 19  1  0  0  0  0
 12 16  1  0  0  0  0
 13  2  2  0  0  0  0
 14  1  1  0  0  0  0
 15 11  1  0  0  0  0
 16 17  2  0  0  0  0
 16  5  1  0  0  0  0
 17  6  1  0  0  0  0
 18 10  2  0  0  0  0
 18 13  1  0  0  0  0
 19 20  1  0  0  0  0
 19  3  2  0  0  0  0
 20 15  1  0  0  0  0
 21 25  1  6  0  0  0
 21 31  1  0  0  0  0
 21 27  1  0  0  0  0
 22 29  1  0  0  0  0
 26 24  2  0  0  0  0
 26 30  1  0  0  0  0
 27 22  1  0  0  0  0
 28 23  2  0  0  0  0
 28 29  1  0  0  0  0
 29 26  1  0  0  0  0
 31 28  1  0  0  0  0
M  END
>  <MODEL>
4

>  <REMARK>
 VINA RESULT:     -10.0      2.100      2.191
  Name = 
  1 active torsions:
  status: ('A' for Active; 'I' for Inactive)
    1  A    between atoms: C_15  and  N_23
                            x       y       z     vdW  Elec       q    Type
                         _______ _______ _______ _____ _____    ______ ____

>  <TORSDO>
F 1

$$$$
=
 OpenBabel10272400213D

 31 35  0  0  1  0  0  0  0  0999 V2000
  192.5730  177.2410  140.7400 C   0  0  0  0  0  0  0  0  0  0  0  0
  189.8470  177.3720  143.4290 C   0  0  0  0  0  0  0  0  0  0  0  0
  190.4260  176.9140  144.6550 C   0  0  0  0  0  0  0  0  0  0  0  0
  191.9550  175.0970  145.5420 C   0  0  0  0  0  2  0  0  0  0  0  0
  190.5500  177.3160  142.1010 C   0  0  0  0  0  0  0  0  0  0  0  0
  191.8050  177.3090  139.5760 C   0  0  0  0  0  3  0  0  0  0  0  0
  191.8150  176.3180  144.6480 C   0  0  0  0  0  2  0  0  0  0  0  0
  187.8830  178.3830  142.1620 C   0  0  2  0  0  3  0  0  0  0  0  0
  193.9220  177.1660  140.6570 F   0  0  0  0  0  0  0  0  0  0  0  0
  188.4280  177.6480  145.8460 C   0  0  0  0  0  3  0  0  0  0  0  0
  192.3920  175.5080  146.9470 C   0  0  0  0  0  2  0  0  0  0  0  0
  188.3030  177.5110  140.9820 C   0  0  0  0  0  2  0  0  0  0  0  0
  188.5270  177.8940  143.4430 C   0  0  0  0  0  0  0  0  0  0  0  0
  191.9490  177.2510  141.9890 C   0  0  0  0  0  3  0  0  0  0  0  0
  191.6360  176.7280  147.4710 C   0  0  0  0  0  2  0  0  0  0  0  0
  189.7910  177.4190  140.9150 C   0  0  0  0  0  0  0  0  0  0  0  0
  190.4150  177.3990  139.6640 C   0  0  0  0  0  3  0  0  0  0  0  0
  187.8510  178.0530  144.6530 C   0  0  0  0  0  3  0  0  0  0  0  0
  189.7010  177.0850  145.8720 C   0  0  0  0  0  0  0  0  0  0  0  0
  190.1430  176.5840  147.2230 C   0  0  0  0  0  2  0  0  0  0  0  0
  181.3020  178.6610  141.7880 C   0  0  2  0  0  3  0  0  0  0  0  0
  183.6050  178.3710  142.6640 C   0  0  0  0  0  2  0  0  0  0  0  0
  183.6470  178.7700  139.0440 O   0  0  0  0  0  0  0  0  0  0  0  0
  186.0800  179.1170  140.0820 O   0  0  0  0  0  0  0  0  0  0  0  0
  179.9820  179.1900  142.0750 N   0  0  0  0  0  1  0  0  0  0  0  0
  185.5730  178.7510  141.1770 C   0  0  0  0  0  0  0  0  0  0  0  0
  182.2560  179.0370  142.9100 C   0  0  0  0  0  2  0  0  0  0  0  0
  183.2380  178.8770  140.2310 C   0  0  0  0  0  0  0  0  0  0  0  0
  184.1430  178.7190  141.3460 N   0  0  0  0  0  0  0  0  0  0  0  0
  186.4270  178.3870  142.2670 N   0  0  0  0  0  2  0  0  0  0  0  0
  181.8010  179.2310  140.4670 C   0  0  0  0  0  2  0  0  0  0  0  0
  1 14  1  0  0  0  0
  2 13  2  0  0  0  0
  2  3  1  0  0  0  0
  3 19  2  0  0  0  0
  4 11  1  0  0  0  0
  5  2  1  0  0  0  0
  6 17  1  0  0  0  0
  6  1  2  0  0  0  0
  7  3  1  0  0  0  0
  7  4  1  0  0  0  0
  8 30  1  1  0  0  0
  8 13  1  0  0  0  0
  9  1  1  0  0  0  0
 10 19  1  0  0  0  0
 11 15  1  0  0  0  0
 12  8  1  0  0  0  0
 13 18  1  0  0  0  0
 14  5  2  0  0  0  0
 16 12  1  0  0  0  0
 16  5  1  0  0  0  0
 17 16  2  0  0  0  0
 18 10  2  0  0  0  0
 19 20  1  0  0  0  0
 20 15  1  0  0  0  0
 21 25  1  1  0  0  0
 21 27  1  0  0  0  0
 22 27  1  0  0  0  0
 23 28  2  0  0  0  0
 24 26  2  0  0  0  0
 26 29  1  0  0  0  0
 26 30  1  0  0  0  0
 28 31  1  0  0  0  0
 28 29  1  0  0  0  0
 29 22  1  0  0  0  0
 31 21  1  0  0  0  0
M  END
>  <MODEL>
5

>  <REMARK>
 VINA RESULT:     -10.0      3.803      7.359
  Name = 
  1 active torsions:
  status: ('A' for Active; 'I' for Inactive)
    1  A    between atoms: C_15  and  N_23
                            x       y       z     vdW  Elec       q    Type
                         _______ _______ _______ _____ _____    ______ ____

>  <TORSDO>
F 1

$$$$
=
 OpenBabel10272400213D

 31 35  0  0  1  0  0  0  0  0999 V2000
  186.8100  177.9020  147.2620 C   0  0  0  0  0  0  0  0  0  0  0  0
  187.2620  178.0940  143.4620 C   0  0  0  0  0  0  0  0  0  0  0  0
  188.6620  177.9880  143.1870 C   0  0  0  0  0  0  0  0  0  0  0  0
  190.8950  178.8440  144.0270 C   0  0  0  0  0  2  0  0  0  0  0  0
  186.6900  178.2230  144.8470 C   0  0  0  0  0  0  0  0  0  0  0  0
  185.5180  178.4100  147.4040 C   0  0  0  0  0  3  0  0  0  0  0  0
  189.6520  178.0230  144.3290 C   0  0  0  0  0  2  0  0  0  0  0  0
  184.8560  178.2140  142.6350 C   0  0  2  0  0  3  0  0  0  0  0  0
  187.5040  177.5020  148.3530 F   0  0  0  0  0  0  0  0  0  0  0  0
  188.1530  177.7520  140.8130 C   0  0  0  0  0  3  0  0  0  0  0  0
  191.9840  177.9640  143.4170 C   0  0  0  0  0  2  0  0  0  0  0  0
  184.5840  179.1410  143.8160 C   0  0  0  0  0  2  0  0  0  0  0  0
  186.3440  178.0980  142.3790 C   0  0  0  0  0  0  0  0  0  0  0  0
  187.3860  177.8040  145.9940 C   0  0  0  0  0  3  0  0  0  0  0  0
  191.4500  177.0100  142.3500 C   0  0  0  0  0  2  0  0  0  0  0  0
  185.3720  178.7030  145.0060 C   0  0  0  0  0  0  0  0  0  0  0  0
  184.8000  178.8100  146.2770 C   0  0  0  0  0  3  0  0  0  0  0  0
  186.8010  177.8960  141.0760 C   0  0  0  0  0  3  0  0  0  0  0  0
  189.0920  177.7900  141.8400 C   0  0  0  0  0  0  0  0  0  0  0  0
  190.5290  177.7420  141.3870 C   0  0  0  0  0  2  0  0  0  0  0  0
  180.9230  180.3270  137.7790 C   0  0  2  0  0  3  0  0  0  0  0  0
  182.9420  179.6690  139.0610 C   0  0  0  0  0  2  0  0  0  0  0  0
  180.0140  179.7580  141.2270 O   0  0  0  0  0  0  0  0  0  0  0  0
  182.0280  178.4420  142.3790 O   0  0  0  0  0  0  0  0  0  0  0  0
  180.2670  180.2650  136.4860 N   0  0  0  0  0  1  0  0  0  0  0  0
  182.7240  178.8180  141.3970 C   0  0  0  0  0  0  0  0  0  0  0  0
  182.1950  179.4960  137.7440 C   0  0  0  0  0  2  0  0  0  0  0  0
  180.6850  179.6480  140.1660 C   0  0  0  0  0  0  0  0  0  0  0  0
  182.0940  179.3300  140.2080 N   0  0  0  0  0  0  0  0  0  0  0  0
  184.1510  178.7100  141.4570 N   0  0  0  0  0  2  0  0  0  0  0  0
  179.9820  179.7960  138.8510 C   0  0  0  0  0  2  0  0  0  0  0  0
  1  6  1  0  0  0  0
  1  9  1  0  0  0  0
  2  5  1  0  0  0  0
  3  2  1  0  0  0  0
  3  7  1  0  0  0  0
  4  7  1  0  0  0  0
  5 16  2  0  0  0  0
  5 14  1  0  0  0  0
  8 30  1  6  0  0  0
  8 12  1  0  0  0  0
 10 18  2  0  0  0  0
 10 19  1  0  0  0  0
 11  4  1  0  0  0  0
 12 16  1  0  0  0  0
 13  8  1  0  0  0  0
 13  2  2  0  0  0  0
 14  1  2  0  0  0  0
 15 11  1  0  0  0  0
 16 17  1  0  0  0  0
 17  6  2  0  0  0  0
 18 13  1  0  0  0  0
 19  3  2  0  0  0  0
 20 19  1  0  0  0  0
 20 15  1  0  0  0  0
 21 25  1  6  0  0  0
 21 31  1  0  0  0  0
 22 29  1  0  0  0  0
 26 30  1  0  0  0  0
 26 24  2  0  0  0  0
 27 21  1  0  0  0  0
 27 22  1  0  0  0  0
 28 29  1  0  0  0  0
 28 23  2  0  0  0  0
 29 26  1  0  0  0  0
 31 28  1  0  0  0  0
M  END
>  <MODEL>
6

>  <REMARK>
 VINA RESULT:      -9.3      4.893      7.613
  Name = 
  1 active torsions:
  status: ('A' for Active; 'I' for Inactive)
    1  A    between atoms: C_15  and  N_23
                            x       y       z     vdW  Elec       q    Type
                         _______ _______ _______ _____ _____    ______ ____

>  <TORSDO>
F 1

$$$$
=
 OpenBabel10272400213D

 31 35  0  0  1  0  0  0  0  0999 V2000
  182.4960  179.1370  140.5450 C   0  0  0  0  0  0  0  0  0  0  0  0
  186.2240  178.3110  140.2290 C   0  0  0  0  0  0  0  0  0  0  0  0
  186.5170  178.1530  138.8380 C   0  0  0  0  0  0  0  0  0  0  0  0
  185.5630  177.0910  136.7430 C   0  0  0  0  0  2  0  0  0  0  0  0
  184.8340  178.4820  140.7780 C   0  0  0  0  0  0  0  0  0  0  0  0
  182.2750  178.8650  141.8960 C   0  0  0  0  0  3  0  0  0  0  0  0
  185.3860  178.1330  137.8350 C   0  0  0  0  0  2  0  0  0  0  0  0
  187.0170  178.4500  142.6460 C   0  0  2  0  0  3  0  0  0  0  0  0
  181.4800  179.5810  139.7680 F   0  0  0  0  0  0  0  0  0  0  0  0
  188.8980  178.1100  139.3670 C   0  0  0  0  0  3  0  0  0  0  0  0
  186.3020  177.6880  135.5470 C   0  0  0  0  0  2  0  0  0  0  0  0
  185.7080  177.7630  143.0270 C   0  0  0  0  0  2  0  0  0  0  0  0
  187.2920  178.2900  141.1650 C   0  0  0  0  0  0  0  0  0  0  0  0
  183.7670  178.9520  139.9950 C   0  0  0  0  0  3  0  0  0  0  0  0
  187.5000  178.5440  135.9550 C   0  0  0  0  0  2  0  0  0  0  0  0
  184.6010  178.2440  142.1500 C   0  0  0  0  0  0  0  0  0  0  0  0
  183.3260  178.4200  142.6970 C   0  0  0  0  0  3  0  0  0  0  0  0
  188.6120  178.2210  140.7180 C   0  0  0  0  0  3  0  0  0  0  0  0
  187.8790  178.0770  138.4180 C   0  0  0  0  0  0  0  0  0  0  0  0
  188.3390  177.8320  137.0040 C   0  0  0  0  0  2  0  0  0  0  0  0
  191.4420  176.1990  146.9900 C   0  0  2  0  0  3  0  0  0  0  0  0
  190.3310  176.8160  144.8600 C   0  0  0  0  0  2  0  0  0  0  0  0
  188.0280  177.1640  147.6590 O   0  0  0  0  0  0  0  0  0  0  0  0
  187.1110  178.4210  145.4930 O   0  0  0  0  0  0  0  0  0  0  0  0
  192.7020  176.1890  147.7120 N   0  0  0  0  0  1  0  0  0  0  0  0
  188.0840  177.9000  144.8830 C   0  0  0  0  0  0  0  0  0  0  0  0
  191.6210  176.9210  145.6650 C   0  0  0  0  0  2  0  0  0  0  0  0
  189.1250  177.1190  147.0430 C   0  0  0  0  0  0  0  0  0  0  0  0
  189.1840  177.3280  145.6150 N   0  0  0  0  0  0  0  0  0  0  0  0
  188.1040  177.9010  143.4510 N   0  0  0  0  0  2  0  0  0  0  0  0
  190.3840  176.9030  147.8280 C   0  0  0  0  0  2  0  0  0  0  0  0
  1  6  1  0  0  0  0
  2  5  1  0  0  0  0
  2 13  1  0  0  0  0
  3  2  2  0  0  0  0
  4  7  1  0  0  0  0
  5 16  2  0  0  0  0
  6 17  2  0  0  0  0
  7  3  1  0  0  0  0
  8 12  1  0  0  0  0
  8 30  1  1  0  0  0
  9  1  1  0  0  0  0
 10 18  1  0  0  0  0
 11 15  1  0  0  0  0
 11  4  1  0  0  0  0
 13  8  1  0  0  0  0
 14  1  2  0  0  0  0
 14  5  1  0  0  0  0
 15 20  1  0  0  0  0
 16 17  1  0  0  0  0
 16 12  1  0  0  0  0
 18 13  2  0  0  0  0
 19  3  1  0  0  0  0
 19 10  2  0  0  0  0
 20 19  1  0  0  0  0
 21 25  1  1  0  0  0
 21 31  1  0  0  0  0
 22 29  1  0  0  0  0
 22 27  1  0  0  0  0
 26 24  2  0  0  0  0
 26 29  1  0  0  0  0
 27 21  1  0  0  0  0
 28 23  2  0  0  0  0
 28 31  1  0  0  0  0
 29 28  1  0  0  0  0
 30 26  1  0  0  0  0
M  END
>  <MODEL>
7

>  <REMARK>
 VINA RESULT:      -9.2      4.380      8.210
  Name = 
  1 active torsions:
  status: ('A' for Active; 'I' for Inactive)
    1  A    between atoms: C_15  and  N_23
                            x       y       z     vdW  Elec       q    Type
                         _______ _______ _______ _____ _____    ______ ____

>  <TORSDO>
F 1

$$$$
=
 OpenBabel10272400213D

 31 35  0  0  1  0  0  0  0  0999 V2000
  185.3830  178.3590  146.2220 C   0  0  0  0  0  0  0  0  0  0  0  0
  188.5730  177.2820  144.3930 C   0  0  0  0  0  0  0  0  0  0  0  0
  189.5830  177.0560  145.3800 C   0  0  0  0  0  0  0  0  0  0  0  0
  190.5140  178.0820  147.5030 C   0  0  0  0  0  2  0  0  0  0  0  0
  187.2240  177.8740  144.6970 C   0  0  0  0  0  0  0  0  0  0  0  0
  184.6500  178.9190  145.1750 C   0  0  0  0  0  3  0  0  0  0  0  0
  189.3190  177.4370  146.8190 C   0  0  0  0  0  2  0  0  0  0  0  0
  187.8010  177.1870  141.9670 C   0  0  2  0  0  3  0  0  0  0  0  0
  184.8610  178.3210  147.4710 F   0  0  0  0  0  0  0  0  0  0  0  0
  191.0060  176.0670  143.6630 C   0  0  0  0  0  3  0  0  0  0  0  0
  191.3760  177.0220  148.1860 C   0  0  0  0  0  2  0  0  0  0  0  0
  187.0060  178.4580  142.2570 C   0  0  0  0  0  2  0  0  0  0  0  0
  188.8460  176.9560  143.0380 C   0  0  0  0  0  0  0  0  0  0  0  0
  186.6550  177.8360  145.9820 C   0  0  0  0  0  3  0  0  0  0  0  0
  191.5980  175.7850  147.3170 C   0  0  0  0  0  2  0  0  0  0  0  0
  186.4540  178.4140  143.6430 C   0  0  0  0  0  0  0  0  0  0  0  0
  185.1850  178.9460  143.8870 C   0  0  0  0  0  3  0  0  0  0  0  0
  190.0450  176.3250  142.7000 C   0  0  0  0  0  3  0  0  0  0  0  0
  190.8000  176.4160  144.9950 C   0  0  0  0  0  0  0  0  0  0  0  0
  191.9820  176.1840  145.9010 C   0  0  0  0  0  2  0  0  0  0  0  0
  189.7530  177.9260  135.7090 C   0  0  2  0  0  3  0  0  0  0  0  0
  189.7500  177.3910  138.1310 C   0  0  0  0  0  2  0  0  0  0  0  0
  186.7070  179.1630  137.2020 O   0  0  0  0  0  0  0  0  0  0  0  0
  186.4580  178.0060  139.5920 O   0  0  0  0  0  0  0  0  0  0  0  0
  190.1860  177.4820  134.3970 N   0  0  0  0  0  1  0  0  0  0  0  0
  187.6830  177.7240  139.4890 C   0  0  0  0  0  0  0  0  0  0  0  0
  190.0910  176.8640  136.7420 C   0  0  0  0  0  2  0  0  0  0  0  0
  187.7270  178.4360  137.0690 C   0  0  0  0  0  0  0  0  0  0  0  0
  188.3490  177.8140  138.2160 N   0  0  0  0  0  0  0  0  0  0  0  0
  188.4090  177.2880  140.6440 N   0  0  0  0  0  2  0  0  0  0  0  0
  188.2510  178.1750  135.6900 C   0  0  0  0  0  2  0  0  0  0  0  0
  1  9  1  0  0  0  0
  2  5  1  0  0  0  0
  2  3  1  0  0  0  0
  3  7  1  0  0  0  0
  4 11  1  0  0  0  0
  5 14  2  0  0  0  0
  6  1  2  0  0  0  0
  7  4  1  0  0  0  0
  8 30  1  6  0  0  0
  8 12  1  0  0  0  0
  8 13  1  0  0  0  0
 10 19  1  0  0  0  0
 12 16  1  0  0  0  0
 13  2  2  0  0  0  0
 14  1  1  0  0  0  0
 15 11  1  0  0  0  0
 16 17  2  0  0  0  0
 16  5  1  0  0  0  0
 17  6  1  0  0  0  0
 18 13  1  0  0  0  0
 18 10  2  0  0  0  0
 19  3  2  0  0  0  0
 19 20  1  0  0  0  0
 20 15  1  0  0  0  0
 21 25  1  6  0  0  0
 21 27  1  0  0  0  0
 22 29  1  0  0  0  0
 26 24  2  0  0  0  0
 26 30  1  0  0  0  0
 27 22  1  0  0  0  0
 28 23  2  0  0  0  0
 28 29  1  0  0  0  0
 29 26  1  0  0  0  0
 31 21  1  0  0  0  0
 31 28  1  0  0  0  0
M  END
>  <MODEL>
8

>  <REMARK>
 VINA RESULT:      -9.1      2.468      4.873
  Name = 
  1 active torsions:
  status: ('A' for Active; 'I' for Inactive)
    1  A    between atoms: C_15  and  N_23
                            x       y       z     vdW  Elec       q    Type
                         _______ _______ _______ _____ _____    ______ ____

>  <TORSDO>
F 1

$$$$
=
 OpenBabel10272400213D

 31 35  0  0  1  0  0  0  0  0999 V2000
  186.0510  178.5100  145.2680 C   0  0  0  0  0  0  0  0  0  0  0  0
  186.2440  178.2420  141.4510 C   0  0  0  0  0  0  0  0  0  0  0  0
  184.9540  178.5700  140.9280 C   0  0  0  0  0  0  0  0  0  0  0  0
  182.4940  178.1380  141.3630 C   0  0  0  0  0  2  0  0  0  0  0  0
  186.5340  178.0750  142.9170 C   0  0  0  0  0  0  0  0  0  0  0  0
  187.1910  177.7970  145.6450 C   0  0  0  0  0  3  0  0  0  0  0  0
  183.7880  178.7500  141.8740 C   0  0  0  0  0  2  0  0  0  0  0  0
  188.7000  177.6850  141.0700 C   0  0  2  0  0  3  0  0  0  0  0  0
  185.2570  179.0650  146.2140 F   0  0  0  0  0  0  0  0  0  0  0  0
  185.9030  178.6210  138.6810 C   0  0  0  0  0  3  0  0  0  0  0  0
  181.6970  179.1630  140.5590 C   0  0  0  0  0  2  0  0  0  0  0  0
  188.5970  176.7730  142.2900 C   0  0  0  0  0  2  0  0  0  0  0  0
  187.3220  178.0380  140.5500 C   0  0  0  0  0  0  0  0  0  0  0  0
  185.7320  178.6510  143.9160 C   0  0  0  0  0  3  0  0  0  0  0  0
  182.5670  179.9690  139.5960 C   0  0  0  0  0  2  0  0  0  0  0  0
  187.7010  177.3860  143.3150 C   0  0  0  0  0  0  0  0  0  0  0  0
  188.0150  177.2360  144.6690 C   0  0  0  0  0  3  0  0  0  0  0  0
  187.1420  178.2620  139.1840 C   0  0  0  0  0  3  0  0  0  0  0  0
  184.8060  178.7830  139.5240 C   0  0  0  0  0  0  0  0  0  0  0  0
  183.5020  179.0550  138.8200 C   0  0  0  0  0  2  0  0  0  0  0  0
  193.0260  175.1480  136.7830 C   0  0  2  0  0  3  0  0  0  0  0  0
  190.9070  175.6910  137.9540 C   0  0  0  0  0  2  0  0  0  0  0  0
  193.7710  176.9140  139.8440 O   0  0  0  0  0  0  0  0  0  0  0  0
  191.5030  178.0290  140.6970 O   0  0  0  0  0  0  0  0  0  0  0  0
  193.6510  174.9640  135.4860 N   0  0  0  0  0  1  0  0  0  0  0  0
  190.9160  177.2300  139.9180 C   0  0  0  0  0  0  0  0  0  0  0  0
  191.5950  175.6240  136.5950 C   0  0  0  0  0  2  0  0  0  0  0  0
  193.0950  176.5470  138.8460 C   0  0  0  0  0  0  0  0  0  0  0  0
  191.6510  176.5400  138.8900 N   0  0  0  0  0  0  0  0  0  0  0  0
  189.5040  177.0290  140.0430 N   0  0  0  0  0  2  0  0  0  0  0  0
  193.8150  176.1730  137.5860 C   0  0  0  0  0  2  0  0  0  0  0  0
  1  6  1  0  0  0  0
  1  9  1  0  0  0  0
  2  5  1  0  0  0  0
  3  2  1  0  0  0  0
  3  7  1  0  0  0  0
  4  7  1  0  0  0  0
  5 16  2  0  0  0  0
  5 14  1  0  0  0  0
  8 30  1  6  0  0  0
  8 12  1  0  0  0  0
 10 18  2  0  0  0  0
 10 19  1  0  0  0  0
 11  4  1  0  0  0  0
 12 16  1  0  0  0  0
 13  8  1  0  0  0  0
 13  2  2  0  0  0  0
 14  1  2  0  0  0  0
 15 11  1  0  0  0  0
 16 17  1  0  0  0  0
 17  6  2  0  0  0  0
 18 13  1  0  0  0  0
 19  3  2  0  0  0  0
 20 19  1  0  0  0  0
 20 15  1  0  0  0  0
 21 25  1  6  0  0  0
 21 31  1  0  0  0  0
 22 29  1  0  0  0  0
 26 30  1  0  0  0  0
 26 24  2  0  0  0  0
 27 21  1  0  0  0  0
 27 22  1  0  0  0  0
 28 29  1  0  0  0  0
 28 23  2  0  0  0  0
 29 26  1  0  0  0  0
 31 28  1  0  0  0  0
M  END
>  <MODEL>
9

>  <REMARK>
 VINA RESULT:      -8.9      2.213      3.398
  Name = 
  1 active torsions:
  status: ('A' for Active; 'I' for Inactive)
    1  A    between atoms: C_15  and  N_23
                            x       y       z     vdW  Elec       q    Type
                         _______ _______ _______ _____ _____    ______ ____

>  <TORSDO>
F 1

$$$$
