=
 OpenBabel10272401433D

 55 58  0  0  1  0  0  0  0  0999 V2000
  190.7780  176.5020  138.8020 C   0  0  0  0  0  2  0  0  0  0  0  0
  188.1750  177.7980  136.7040 C   0  0  2  0  0  3  0  0  0  0  0  0
  188.7510  174.0440  135.1440 O   0  0  0  0  0  1  0  0  0  0  0  0
  189.6870  177.3880  134.7230 C   0  0  0  0  0  1  0  0  0  0  0  0
  189.8890  174.3630  135.8870 C   0  0  2  0  0  0  0  0  0  0  0  0
  189.6730  175.6890  136.6420 C   0  0  2  0  0  3  0  0  0  0  0  0
  192.2350  175.4920  137.0260 C   0  0  1  0  0  3  0  0  0  0  0  0
  188.9910  179.9810  137.2810 O   0  0  0  0  0  1  0  0  0  0  0  0
  188.8720  176.7400  135.8370 C   0  0  1  0  0  3  0  0  0  0  0  0
  191.0820  174.4660  134.9350 C   0  0  0  0  0  2  0  0  0  0  0  0
  189.3900  177.0180  139.1950 C   0  0  0  0  0  2  0  0  0  0  0  0
  190.1150  173.2390  136.8830 C   0  0  0  0  0  1  0  0  0  0  0  0
  190.9500  176.2920  137.2900 C   0  0  2  0  0  3  0  0  0  0  0  0
  189.1890  178.6240  137.5260 C   0  0  1  0  0  3  0  0  0  0  0  0
  192.3770  175.0150  135.5660 C   0  0  2  0  0  3  0  0  0  0  0  0
  189.1840  178.3880  138.9210 O   0  0  0  0  0  0  0  0  0  0  0  0
  194.1910  175.5990  138.6440 C   0  0  0  0  0  1  0  0  0  0  0  0
  193.4780  176.2690  137.4780 C   0  0  0  0  0  2  0  0  0  0  0  0
  193.5420  174.0280  135.4330 C   0  0  1  0  0  3  0  0  0  0  0  0
  194.4640  171.6910  136.8000 O   0  0  0  0  0  0  0  0  0  0  0  0
  193.0750  172.6680  135.1900 N   0  0  0  0  0  2  0  0  0  0  0  0
  193.6020  171.5400  135.8920 C   0  0  0  0  0  0  0  0  0  0  0  0
  193.1180  170.1720  135.5490 C   0  0  0  0  0  2  0  0  0  0  0  0
  193.5340  169.2230  136.5700 N   0  0  0  0  0  0  0  0  0  0  0  0
  192.5450  168.1570  136.5670 C   0  0  0  0  0  1  0  0  0  0  0  0
  194.7870  168.6360  136.1140 C   0  0  0  0  0  2  0  0  0  0  0  0
  196.8240  169.1430  137.4580 C   0  0  0  0  0  1  0  0  0  0  0  0
  195.6330  168.2170  137.3040 C   0  0  0  0  0  2  0  0  0  0  0  0
  194.5180  174.4550  134.3470 C   0  0  0  0  0  2  0  0  0  0  0  0
  196.7220  173.1970  134.7520 C   0  0  0  0  0  3  0  0  0  0  0  0
  198.2830  174.1170  136.3220 N   0  0  0  0  0  0  0  0  0  0  0  0
  196.3630  175.4640  135.5880 C   0  0  0  0  0  3  0  0  0  0  0  0
  197.7550  175.4780  136.1610 C   0  0  0  0  0  2  0  0  0  0  0  0
  197.8470  173.0600  135.4560 C   0  0  0  0  0  3  0  0  0  0  0  0
  195.9120  174.4250  134.8810 C   0  0  0  0  0  0  0  0  0  0  0  0
  199.3990  173.8580  137.2270 C   0  0  2  0  0  3  0  0  0  0  0  0
  199.5860  172.4290  137.4000 N   0  0  0  0  0  1  0  0  0  0  0  0
  199.1650  174.5190  138.5730 C   0  0  0  0  0  1  0  0  0  0  0  0
  187.1970  177.1970  137.5040 O   0  0  0  0  0  0  0  0  0  0  0  0
  186.1230  178.0920  137.5280 C   0  0  0  0  0  2  0  0  0  0  0  0
  185.9610  178.5990  138.8290 O   0  0  0  0  0  0  0  0  0  0  0  0
  184.8520  177.9860  139.4740 C   0  0  2  0  0  3  0  0  0  0  0  0
  184.0470  177.1940  138.6550 F   0  0  0  0  0  0  0  0  0  0  0  0
  184.0000  179.0060  140.2330 C   0  0  1  0  0  3  0  0  0  0  0  0
  182.6820  179.2570  139.5780 C   0  0  0  0  0  0  0  0  0  0  0  0
  181.3750  179.5040  138.9290 C   0  0  0  0  0  0  0  0  0  0  0  0
  182.3470  180.4500  138.9110 C   0  0  0  0  0  2  0  0  0  0  0  0
  180.0080  179.0470  138.5640 C   0  0  0  0  0  2  0  0  0  0  0  0
  179.9830  177.5340  138.4930 C   0  0  0  0  0  1  0  0  0  0  0  0
  183.8570  178.6640  141.7120 C   0  0  0  0  0  2  0  0  0  0  0  0
  184.4330  179.9160  143.6730 O   0  0  0  0  0  1  0  0  0  0  0  0
  184.9560  179.3490  142.5070 C   0  0  1  0  0  3  0  0  0  0  0  0
  185.9580  177.6390  143.8530 O   0  0  0  0  0  1  0  0  0  0  0  0
  186.0430  178.3820  142.8390 C   0  0  0  0  0  0  0  0  0  0  0  0
  187.1500  178.2830  142.0070 O   0  0  0  0  0  0  0  0  0  0  0  0
  1 11  1  0  0  0  0
  2 39  1  1  0  0  0
  2 14  1  0  0  0  0
  3  5  1  0  0  0  0
  4  9  1  0  0  0  0
  5  6  1  0  0  0  0
  5 12  1  1  0  0  0
  6 13  1  0  0  0  0
  7 13  1  0  0  0  0
  7 18  1  0  0  0  0
  8 14  1  0  0  0  0
  9  6  1  0  0  0  0
  9  2  1  0  0  0  0
 10 15  1  0  0  0  0
 10  5  1  0  0  0  0
 13  1  1  0  0  0  0
 14 16  1  0  0  0  0
 15  7  1  0  0  0  0
 16 11  1  0  0  0  0
 18 17  1  0  0  0  0
 19 15  1  0  0  0  0
 21 19  1  0  0  0  0
 21 22  1  0  0  0  0
 22 20  2  0  0  0  0
 23 22  1  0  0  0  0
 23 24  1  0  0  0  0
 25 24  1  0  0  0  0
 26 24  1  0  0  0  0
 26 28  1  0  0  0  0
 28 27  1  0  0  0  0
 29 35  1  0  0  0  0
 29 19  1  0  0  0  0
 30 35  1  0  0  0  0
 30 34  2  0  0  0  0
 31 36  1  0  0  0  0
 32 33  1  0  0  0  0
 33 31  1  0  0  0  0
 34 31  1  0  0  0  0
 35 32  2  0  0  0  0
 36 37  1  0  0  0  0
 36 38  1  0  0  0  0
 39 40  1  0  0  0  0
 40 41  1  0  0  0  0
 41 42  1  0  0  0  0
 42 44  1  0  0  0  0
 43 42  1  0  0  0  0
 44 50  1  0  0  0  0
 45 44  1  0  0  0  0
 46 45  2  0  0  0  0
 47 46  1  0  0  0  0
 47 45  1  0  0  0  0
 48 46  1  0  0  0  0
 49 48  1  0  0  0  0
 50 52  1  0  0  0  0
 52 54  1  0  0  0  0
 52 51  1  0  0  0  0
 54 53  1  0  0  0  0
 55 54  2  0  0  0  0
M  END
>  <MODEL>
1

>  <REMARK>
 VINA RESULT:      -5.1      0.000      0.000
  Name = 
  20 active torsions:
  status: ('A' for Active; 'I' for Inactive)
    1  A    between atoms: C_1  and  O_30
    2  A    between atoms: C_1  and  C_53
    3  A    between atoms: C_6  and  C_53
    4  A    between atoms: C_7  and  O_8
    5  A    between atoms: O_8  and  C_20
    6  A    between atoms: C_10  and  N_32
    7  A    between atoms: C_11  and  C_29
    8  A    between atoms: C_11  and  C_38
    9  A    between atoms: C_12  and  C_14
   10  A    between atoms: C_19  and  C_40
   11  A    between atoms: C_20  and  O_30
   12  A    between atoms: N_27  and  C_31
   13  A    between atoms: N_27  and  C_55
   14  A    between atoms: N_28  and  C_49
   15  A    between atoms: C_31  and  C_44
   16  A    between atoms: C_33  and  C_49
   17  A    between atoms: C_33  and  C_52
   18  A    between atoms: C_38  and  C_53
   19  A    between atoms: C_41  and  C_55
   20  A    between atoms: C_45  and  C_49
                            x       y       z     vdW  Elec       q    Type
                         _______ _______ _______ _____ _____    ______ ____

>  <TORSDO>
F 20

$$$$
=
 OpenBabel10272401433D

 55 58  0  0  1  0  0  0  0  0999 V2000
  190.7960  176.2830  139.0720 C   0  0  0  0  0  2  0  0  0  0  0  0
  188.1930  177.6970  137.0520 C   0  0  2  0  0  3  0  0  0  0  0  0
  188.8410  174.0820  135.2170 O   0  0  0  0  0  1  0  0  0  0  0  0
  189.7290  177.4620  135.0610 C   0  0  0  0  0  1  0  0  0  0  0  0
  189.9670  174.3590  135.9930 C   0  0  2  0  0  0  0  0  0  0  0  0
  189.7240  175.6210  136.8450 C   0  0  2  0  0  3  0  0  0  0  0  0
  192.2850  175.4330  137.2390 C   0  0  1  0  0  3  0  0  0  0  0  0
  188.9700  179.8410  137.8020 O   0  0  0  0  0  1  0  0  0  0  0  0
  188.9150  176.7190  136.1140 C   0  0  1  0  0  3  0  0  0  0  0  0
  191.1670  174.5520  135.0640 C   0  0  0  0  0  2  0  0  0  0  0  0
  189.3970  176.7470  139.4880 C   0  0  0  0  0  2  0  0  0  0  0  0
  190.2010  173.1670  136.9040 C   0  0  0  0  0  1  0  0  0  0  0  0
  190.9850  176.1910  137.5510 C   0  0  2  0  0  3  0  0  0  0  0  0
  189.1870  178.4730  137.9450 C   0  0  1  0  0  3  0  0  0  0  0  0
  192.4470  175.0700  135.7490 C   0  0  2  0  0  3  0  0  0  0  0  0
  189.1730  178.1310  139.3170 O   0  0  0  0  0  0  0  0  0  0  0  0
  194.4940  175.2790  138.4850 C   0  0  0  0  0  1  0  0  0  0  0  0
  193.5110  176.1910  137.7630 C   0  0  0  0  0  2  0  0  0  0  0  0
  193.6280  174.1130  135.5540 C   0  0  1  0  0  3  0  0  0  0  0  0
  194.7000  171.9100  137.0280 O   0  0  0  0  0  0  0  0  0  0  0  0
  193.1890  172.7270  135.4390 N   0  0  0  0  0  2  0  0  0  0  0  0
  193.7910  171.6680  136.1880 C   0  0  0  0  0  0  0  0  0  0  0  0
  193.3300  170.2670  135.9770 C   0  0  0  0  0  2  0  0  0  0  0  0
  194.4160  169.3360  136.2410 N   0  0  0  0  0  0  0  0  0  0  0  0
  193.8150  168.1710  136.8710 C   0  0  0  0  0  1  0  0  0  0  0  0
  194.9220  168.9010  134.9460 C   0  0  0  0  0  2  0  0  0  0  0  0
  196.9520  169.6030  136.2090 C   0  0  0  0  0  1  0  0  0  0  0  0
  196.4290  169.0790  134.8860 C   0  0  0  0  0  2  0  0  0  0  0  0
  194.4730  174.5020  134.3490 C   0  0  0  0  0  2  0  0  0  0  0  0
  196.6750  173.1780  134.3960 C   0  0  0  0  0  3  0  0  0  0  0  0
  198.4460  173.9710  135.8040 N   0  0  0  0  0  0  0  0  0  0  0  0
  196.4860  175.3970  135.4000 C   0  0  0  0  0  3  0  0  0  0  0  0
  197.9390  175.3490  135.7910 C   0  0  0  0  0  2  0  0  0  0  0  0
  197.8760  172.9780  134.9410 C   0  0  0  0  0  3  0  0  0  0  0  0
  195.9210  174.4120  134.6980 C   0  0  0  0  0  0  0  0  0  0  0  0
  199.6600  173.6360  136.5420 C   0  0  2  0  0  3  0  0  0  0  0  0
  199.8850  172.2010  136.5170 N   0  0  0  0  0  1  0  0  0  0  0  0
  199.5690  174.1230  137.9770 C   0  0  0  0  0  1  0  0  0  0  0  0
  187.2170  177.0220  137.7940 O   0  0  0  0  0  0  0  0  0  0  0  0
  186.1890  177.9480  137.9980 C   0  0  0  0  0  2  0  0  0  0  0  0
  185.5870  177.7160  139.2460 O   0  0  0  0  0  0  0  0  0  0  0  0
  184.4360  178.5330  139.4110 C   0  0  2  0  0  3  0  0  0  0  0  0
  184.6900  179.8840  139.6490 F   0  0  0  0  0  0  0  0  0  0  0  0
  183.4880  177.9730  140.4750 C   0  0  1  0  0  3  0  0  0  0  0  0
  183.9510  178.2570  141.8660 C   0  0  0  0  0  0  0  0  0  0  0  0
  184.4090  178.5390  143.2450 C   0  0  0  0  0  0  0  0  0  0  0  0
  185.2870  178.1340  142.2930 C   0  0  0  0  0  2  0  0  0  0  0  0
  184.1180  178.9590  144.6410 C   0  0  0  0  0  2  0  0  0  0  0  0
  185.3590  178.7820  145.4910 C   0  0  0  0  0  1  0  0  0  0  0  0
  182.0400  178.3940  140.2490 C   0  0  0  0  0  2  0  0  0  0  0  0
  179.9820  177.1650  140.2450 O   0  0  0  0  0  1  0  0  0  0  0  0
  181.2520  177.2340  139.6640 C   0  0  1  0  0  3  0  0  0  0  0  0
  181.8480  178.2060  137.5560 O   0  0  0  0  0  1  0  0  0  0  0  0
  181.1410  177.3710  138.1820 C   0  0  0  0  0  0  0  0  0  0  0  0
  180.2660  176.5510  137.4820 O   0  0  0  0  0  0  0  0  0  0  0  0
  1 11  1  0  0  0  0
  2 39  1  1  0  0  0
  2 14  1  0  0  0  0
  3  5  1  0  0  0  0
  4  9  1  0  0  0  0
  5  6  1  0  0  0  0
  5 12  1  1  0  0  0
  6 13  1  0  0  0  0
  7 13  1  0  0  0  0
  7 18  1  0  0  0  0
  8 14  1  0  0  0  0
  9  6  1  0  0  0  0
  9  2  1  0  0  0  0
 10 15  1  0  0  0  0
 10  5  1  0  0  0  0
 13  1  1  0  0  0  0
 14 16  1  0  0  0  0
 15  7  1  0  0  0  0
 16 11  1  0  0  0  0
 18 17  1  0  0  0  0
 19 15  1  0  0  0  0
 21 19  1  0  0  0  0
 21 22  1  0  0  0  0
 22 20  2  0  0  0  0
 23 22  1  0  0  0  0
 23 24  1  0  0  0  0
 24 25  1  0  0  0  0
 26 24  1  0  0  0  0
 28 26  1  0  0  0  0
 28 27  1  0  0  0  0
 29 35  1  0  0  0  0
 29 19  1  0  0  0  0
 30 35  1  0  0  0  0
 30 34  2  0  0  0  0
 31 36  1  0  0  0  0
 32 33  1  0  0  0  0
 33 31  1  0  0  0  0
 34 31  1  0  0  0  0
 35 32  2  0  0  0  0
 36 38  1  0  0  0  0
 37 36  1  0  0  0  0
 39 40  1  0  0  0  0
 40 41  1  0  0  0  0
 41 42  1  0  0  0  0
 42 43  1  0  0  0  0
 42 44  1  0  0  0  0
 44 45  1  0  0  0  0
 45 47  1  0  0  0  0
 45 46  2  0  0  0  0
 46 48  1  0  0  0  0
 47 46  1  0  0  0  0
 48 49  1  0  0  0  0
 50 44  1  0  0  0  0
 52 51  1  0  0  0  0
 52 50  1  0  0  0  0
 53 54  1  0  0  0  0
 54 52  1  0  0  0  0
 55 54  2  0  0  0  0
M  END
>  <MODEL>
2

>  <REMARK>
 VINA RESULT:      -5.0      1.630      2.928
  Name = 
  20 active torsions:
  status: ('A' for Active; 'I' for Inactive)
    1  A    between atoms: C_1  and  O_30
    2  A    between atoms: C_1  and  C_53
    3  A    between atoms: C_6  and  C_53
    4  A    between atoms: C_7  and  O_8
    5  A    between atoms: O_8  and  C_20
    6  A    between atoms: C_10  and  N_32
    7  A    between atoms: C_11  and  C_29
    8  A    between atoms: C_11  and  C_38
    9  A    between atoms: C_12  and  C_14
   10  A    between atoms: C_19  and  C_40
   11  A    between atoms: C_20  and  O_30
   12  A    between atoms: N_27  and  C_31
   13  A    between atoms: N_27  and  C_55
   14  A    between atoms: N_28  and  C_49
   15  A    between atoms: C_31  and  C_44
   16  A    between atoms: C_33  and  C_49
   17  A    between atoms: C_33  and  C_52
   18  A    between atoms: C_38  and  C_53
   19  A    between atoms: C_41  and  C_55
   20  A    between atoms: C_45  and  C_49
                            x       y       z     vdW  Elec       q    Type
                         _______ _______ _______ _____ _____    ______ ____

>  <TORSDO>
F 20

$$$$
=
 OpenBabel10272401433D

 55 58  0  0  1  0  0  0  0  0999 V2000
  190.6920  176.4280  138.8650 C   0  0  0  0  0  2  0  0  0  0  0  0
  188.1100  177.7720  136.7720 C   0  0  2  0  0  3  0  0  0  0  0  0
  188.7740  174.0950  135.0700 O   0  0  0  0  0  1  0  0  0  0  0  0
  189.6650  177.4680  134.8060 C   0  0  0  0  0  1  0  0  0  0  0  0
  189.8930  174.4000  135.8470 C   0  0  2  0  0  0  0  0  0  0  0  0
  189.6420  175.6900  136.6530 C   0  0  2  0  0  3  0  0  0  0  0  0
  192.1990  175.5150  137.0780 C   0  0  1  0  0  3  0  0  0  0  0  0
  188.8800  179.9410  137.4560 O   0  0  0  0  0  1  0  0  0  0  0  0
  188.8400  176.7620  135.8760 C   0  0  1  0  0  3  0  0  0  0  0  0
  191.1010  174.5600  134.9230 C   0  0  0  0  0  2  0  0  0  0  0  0
  189.2890  176.9070  139.2520 C   0  0  0  0  0  2  0  0  0  0  0  0
  190.1170  173.2390  136.8010 C   0  0  0  0  0  1  0  0  0  0  0  0
  190.8960  176.2840  137.3500 C   0  0  2  0  0  3  0  0  0  0  0  0
  189.0950  178.5780  137.6480 C   0  0  1  0  0  3  0  0  0  0  0  0
  192.3760  175.1010  135.6020 C   0  0  2  0  0  3  0  0  0  0  0  0
  189.0670  178.2840  139.0310 O   0  0  0  0  0  0  0  0  0  0  0  0
  193.1940  176.8930  138.9660 C   0  0  0  0  0  1  0  0  0  0  0  0
  193.4200  176.2910  137.5860 C   0  0  0  0  0  2  0  0  0  0  0  0
  193.5580  174.1380  135.4520 C   0  0  1  0  0  3  0  0  0  0  0  0
  194.3150  171.8490  136.9900 O   0  0  0  0  0  0  0  0  0  0  0  0
  193.1150  172.7710  135.2050 N   0  0  0  0  0  2  0  0  0  0  0  0
  193.5580  171.6670  135.9980 C   0  0  0  0  0  0  0  0  0  0  0  0
  193.1090  170.2880  135.6510 C   0  0  0  0  0  2  0  0  0  0  0  0
  193.9930  169.3060  136.2570 N   0  0  0  0  0  0  0  0  0  0  0  0
  193.1980  168.1050  136.4580 C   0  0  0  0  0  1  0  0  0  0  0  0
  195.0050  168.9780  135.2610 C   0  0  0  0  0  2  0  0  0  0  0  0
  197.3420  168.1190  135.3630 C   0  0  0  0  0  1  0  0  0  0  0  0
  196.3940  169.2060  135.8320 C   0  0  0  0  0  2  0  0  0  0  0  0
  194.5150  174.5900  134.3580 C   0  0  0  0  0  2  0  0  0  0  0  0
  196.6650  173.1900  134.4840 C   0  0  0  0  0  3  0  0  0  0  0  0
  198.3300  173.8080  136.0960 N   0  0  0  0  0  0  0  0  0  0  0  0
  196.4540  175.3300  135.6440 C   0  0  0  0  0  3  0  0  0  0  0  0
  197.8660  175.2000  136.1500 C   0  0  0  0  0  2  0  0  0  0  0  0
  197.8080  172.9050  135.1100 C   0  0  0  0  0  3  0  0  0  0  0  0
  195.9240  174.4220  134.8190 C   0  0  0  0  0  0  0  0  0  0  0  0
  199.4650  173.3740  136.9040 C   0  0  2  0  0  3  0  0  0  0  0  0
  199.3860  171.9460  137.1590 N   0  0  0  0  0  1  0  0  0  0  0  0
  199.5120  174.1340  138.2170 C   0  0  0  0  0  1  0  0  0  0  0  0
  187.1270  177.1230  137.5280 O   0  0  0  0  0  0  0  0  0  0  0  0
  185.9280  177.7820  137.2360 C   0  0  0  0  0  2  0  0  0  0  0  0
  185.0430  177.6530  138.3200 O   0  0  0  0  0  0  0  0  0  0  0  0
  183.6990  177.8500  137.9010 C   0  0  2  0  0  3  0  0  0  0  0  0
  183.1310  179.0700  138.2670 F   0  0  0  0  0  0  0  0  0  0  0  0
  182.7940  176.6910  138.3260 C   0  0  1  0  0  3  0  0  0  0  0  0
  183.2820  175.3680  137.8360 C   0  0  2  0  0  3  0  0  0  0  0  0
  183.7670  174.0580  137.3480 C   0  0  1  0  0  3  0  0  0  0  0  0
  182.4550  174.2470  137.6330 C   0  0  0  0  0  2  0  0  0  0  0  0
  184.8770  173.1830  136.8850 C   0  0  0  0  0  2  0  0  0  0  0  0
  186.2040  173.8130  137.2520 C   0  0  0  0  0  1  0  0  0  0  0  0
  182.5150  176.6860  139.8250 C   0  0  0  0  0  2  0  0  0  0  0  0
  180.2360  176.3810  140.5040 O   0  0  0  0  0  1  0  0  0  0  0  0
  181.1710  177.3400  140.1000 C   0  0  1  0  0  3  0  0  0  0  0  0
  182.4420  178.7370  141.5740 O   0  0  0  0  0  0  0  0  0  0  0  0
  181.3080  178.4050  141.1370 C   0  0  0  0  0  0  0  0  0  0  0  0
  180.1740  179.0530  141.6080 O   0  0  0  0  0  1  0  0  0  0  0  0
  1 11  1  0  0  0  0
  2 39  1  1  0  0  0
  2 14  1  0  0  0  0
  3  5  1  0  0  0  0
  4  9  1  0  0  0  0
  5  6  1  0  0  0  0
  5 12  1  1  0  0  0
  6 13  1  0  0  0  0
  7 13  1  0  0  0  0
  7 18  1  0  0  0  0
  8 14  1  0  0  0  0
  9  6  1  0  0  0  0
  9  2  1  0  0  0  0
 10 15  1  0  0  0  0
 10  5  1  0  0  0  0
 13  1  1  0  0  0  0
 14 16  1  0  0  0  0
 15  7  1  0  0  0  0
 16 11  1  0  0  0  0
 18 17  1  0  0  0  0
 19 15  1  0  0  0  0
 21 19  1  0  0  0  0
 21 22  1  0  0  0  0
 22 20  2  0  0  0  0
 23 22  1  0  0  0  0
 23 24  1  0  0  0  0
 24 25  1  0  0  0  0
 26 28  1  0  0  0  0
 26 24  1  0  0  0  0
 27 28  1  0  0  0  0
 29 35  1  0  0  0  0
 29 19  1  0  0  0  0
 30 35  1  0  0  0  0
 30 34  2  0  0  0  0
 31 33  1  0  0  0  0
 31 36  1  0  0  0  0
 32 33  1  0  0  0  0
 34 31  1  0  0  0  0
 35 32  2  0  0  0  0
 36 37  1  0  0  0  0
 36 38  1  0  0  0  0
 40 39  1  0  0  0  0
 40 41  1  0  0  0  0
 42 43  1  0  0  0  0
 42 41  1  0  0  0  0
 42 44  1  0  0  0  0
 44 50  1  0  0  0  0
 45 44  1  0  0  0  0
 46 47  1  0  0  0  0
 46 45  1  0  0  0  0
 47 45  1  0  0  0  0
 48 49  1  0  0  0  0
 48 46  1  0  0  0  0
 50 52  1  0  0  0  0
 52 51  1  0  0  0  0
 52 54  1  0  0  0  0
 54 53  2  0  0  0  0
 54 55  1  0  0  0  0
M  END
>  <MODEL>
3

>  <REMARK>
 VINA RESULT:      -4.5      1.973      2.748
  Name = 
  20 active torsions:
  status: ('A' for Active; 'I' for Inactive)
    1  A    between atoms: C_1  and  O_30
    2  A    between atoms: C_1  and  C_53
    3  A    between atoms: C_6  and  C_53
    4  A    between atoms: C_7  and  O_8
    5  A    between atoms: O_8  and  C_20
    6  A    between atoms: C_10  and  N_32
    7  A    between atoms: C_11  and  C_29
    8  A    between atoms: C_11  and  C_38
    9  A    between atoms: C_12  and  C_14
   10  A    between atoms: C_19  and  C_40
   11  A    between atoms: C_20  and  O_30
   12  A    between atoms: N_27  and  C_31
   13  A    between atoms: N_27  and  C_55
   14  A    between atoms: N_28  and  C_49
   15  A    between atoms: C_31  and  C_44
   16  A    between atoms: C_33  and  C_49
   17  A    between atoms: C_33  and  C_52
   18  A    between atoms: C_38  and  C_53
   19  A    between atoms: C_41  and  C_55
   20  A    between atoms: C_45  and  C_49
                            x       y       z     vdW  Elec       q    Type
                         _______ _______ _______ _____ _____    ______ ____

>  <TORSDO>
F 20

$$$$
=
 OpenBabel10272401433D

 55 58  0  0  1  0  0  0  0  0999 V2000
  188.5610  173.4440  136.6060 C   0  0  0  0  0  2  0  0  0  0  0  0
  190.9720  176.0920  136.4220 C   0  0  2  0  0  3  0  0  0  0  0  0
  187.5520  178.1100  137.4680 O   0  0  0  0  0  1  0  0  0  0  0  0
  189.4930  177.2010  134.7020 C   0  0  0  0  0  1  0  0  0  0  0  0
  187.1610  176.8780  136.9400 C   0  0  2  0  0  0  0  0  0  0  0  0
  188.3990  175.9960  136.6830 C   0  0  2  0  0  3  0  0  0  0  0  0
  186.6770  174.5550  135.3770 C   0  0  1  0  0  3  0  0  0  0  0  0
  192.2010  174.6770  134.9210 O   0  0  0  0  0  1  0  0  0  0  0  0
  189.6260  176.7830  136.1620 C   0  0  1  0  0  3  0  0  0  0  0  0
  186.3880  177.1240  135.6440 C   0  0  0  0  0  2  0  0  0  0  0  0
  189.8740  173.6090  137.3790 C   0  0  0  0  0  2  0  0  0  0  0  0
  186.2610  176.2070  137.9630 C   0  0  0  0  0  1  0  0  0  0  0  0
  188.1290  174.7100  135.8530 C   0  0  2  0  0  3  0  0  0  0  0  0
  191.0580  174.7200  135.7160 C   0  0  1  0  0  3  0  0  0  0  0  0
  186.0630  175.8590  134.8250 C   0  0  2  0  0  3  0  0  0  0  0  0
  191.0290  173.5900  136.5660 O   0  0  0  0  0  0  0  0  0  0  0  0
  186.0750  172.1120  135.0170 C   0  0  0  0  0  1  0  0  0  0  0  0
  186.5410  173.4080  134.3670 C   0  0  0  0  0  2  0  0  0  0  0  0
  184.5570  175.6920  134.6020 C   0  0  1  0  0  3  0  0  0  0  0  0
  182.6870  173.5410  134.3620 O   0  0  0  0  0  0  0  0  0  0  0  0
  183.9170  175.0010  135.7150 N   0  0  0  0  0  2  0  0  0  0  0  0
  182.9670  173.9500  135.5210 C   0  0  0  0  0  0  0  0  0  0  0  0
  182.3100  173.3280  136.7060 C   0  0  0  0  0  2  0  0  0  0  0  0
  180.9090  173.7150  136.7630 N   0  0  0  0  0  0  0  0  0  0  0  0
  180.1610  172.6410  136.1280 C   0  0  0  0  0  1  0  0  0  0  0  0
  180.5290  173.7180  138.1690 C   0  0  0  0  0  2  0  0  0  0  0  0
  180.2330  175.8820  139.3690 C   0  0  0  0  0  1  0  0  0  0  0  0
  181.2360  174.8470  138.9000 C   0  0  0  0  0  2  0  0  0  0  0  0
  183.8750  177.0280  134.3470 C   0  0  0  0  0  2  0  0  0  0  0  0
  181.5280  177.3330  135.3480 C   0  0  0  0  0  3  0  0  0  0  0  0
  181.3230  178.5260  137.4180 N   0  0  0  0  0  0  0  0  0  0  0  0
  183.5470  177.8480  136.6240 C   0  0  0  0  0  3  0  0  0  0  0  0
  182.7050  178.2250  137.8140 C   0  0  0  0  0  2  0  0  0  0  0  0
  180.7420  177.8970  136.2670 C   0  0  0  0  0  3  0  0  0  0  0  0
  182.9960  177.3750  135.5030 C   0  0  0  0  0  0  0  0  0  0  0  0
  180.4560  179.3060  138.2950 C   0  0  2  0  0  3  0  0  0  0  0  0
  179.9830  180.4950  137.6080 N   0  0  0  0  0  1  0  0  0  0  0  0
  181.1870  179.6970  139.5660 C   0  0  0  0  0  1  0  0  0  0  0  0
  191.2100  176.0030  137.7990 O   0  0  0  0  0  0  0  0  0  0  0  0
  190.5450  177.0940  138.3690 C   0  0  0  0  0  2  0  0  0  0  0  0
  190.4300  176.9020  139.7560 O   0  0  0  0  0  0  0  0  0  0  0  0
  189.3440  177.6550  140.2810 C   0  0  2  0  0  3  0  0  0  0  0  0
  189.3190  179.0010  139.9180 F   0  0  0  0  0  0  0  0  0  0  0  0
  189.2340  177.5110  141.8020 C   0  0  1  0  0  3  0  0  0  0  0  0
  187.8280  177.6240  142.2910 C   0  0  0  0  0  0  0  0  0  0  0  0
  186.4340  177.7360  142.7740 C   0  0  0  0  0  0  0  0  0  0  0  0
  187.4740  177.8010  143.6420 C   0  0  0  0  0  2  0  0  0  0  0  0
  184.9720  177.7620  142.5030 C   0  0  0  0  0  2  0  0  0  0  0  0
  184.3570  178.9780  143.1650 C   0  0  0  0  0  1  0  0  0  0  0  0
  189.9310  176.2600  142.3230 C   0  0  0  0  0  2  0  0  0  0  0  0
  191.5740  177.9750  142.6500 O   0  0  0  0  0  1  0  0  0  0  0  0
  191.3570  176.5950  142.7280 C   0  0  1  0  0  3  0  0  0  0  0  0
  192.1950  174.9810  144.2880 O   0  0  0  0  0  0  0  0  0  0  0  0
  191.6410  176.0990  144.1060 C   0  0  0  0  0  0  0  0  0  0  0  0
  191.3140  176.8880  145.2000 O   0  0  0  0  0  1  0  0  0  0  0  0
  1 11  1  0  0  0  0
  2 39  1  1  0  0  0
  4  9  1  0  0  0  0
  5  3  1  0  0  0  0
  5 12  1  1  0  0  0
  6  5  1  0  0  0  0
  7 13  1  0  0  0  0
  8 14  1  0  0  0  0
  9  2  1  0  0  0  0
  9  6  1  0  0  0  0
 10  5  1  0  0  0  0
 13  1  1  0  0  0  0
 13  6  1  0  0  0  0
 14  2  1  0  0  0  0
 14 16  1  0  0  0  0
 15  7  1  0  0  0  0
 15 10  1  0  0  0  0
 16 11  1  0  0  0  0
 18 17  1  0  0  0  0
 18  7  1  0  0  0  0
 19 15  1  0  0  0  0
 19 21  1  0  0  0  0
 20 22  2  0  0  0  0
 22 21  1  0  0  0  0
 22 23  1  0  0  0  0
 23 24  1  0  0  0  0
 24 26  1  0  0  0  0
 25 24  1  0  0  0  0
 26 28  1  0  0  0  0
 28 27  1  0  0  0  0
 29 19  1  0  0  0  0
 29 35  1  0  0  0  0
 30 35  1  0  0  0  0
 30 34  2  0  0  0  0
 31 33  1  0  0  0  0
 31 36  1  0  0  0  0
 32 33  1  0  0  0  0
 34 31  1  0  0  0  0
 35 32  2  0  0  0  0
 36 38  1  0  0  0  0
 37 36  1  0  0  0  0
 39 40  1  0  0  0  0
 40 41  1  0  0  0  0
 41 42  1  0  0  0  0
 42 44  1  0  0  0  0
 43 42  1  0  0  0  0
 44 45  1  0  0  0  0
 44 50  1  0  0  0  0
 45 46  2  0  0  0  0
 45 47  1  0  0  0  0
 46 47  1  0  0  0  0
 48 46  1  0  0  0  0
 48 49  1  0  0  0  0
 50 52  1  0  0  0  0
 51 52  1  0  0  0  0
 52 54  1  0  0  0  0
 54 53  2  0  0  0  0
 54 55  1  0  0  0  0
M  END
>  <MODEL>
4

>  <REMARK>
 VINA RESULT:      -4.3      5.278     10.103
  Name = 
  20 active torsions:
  status: ('A' for Active; 'I' for Inactive)
    1  A    between atoms: C_1  and  O_30
    2  A    between atoms: C_1  and  C_53
    3  A    between atoms: C_6  and  C_53
    4  A    between atoms: C_7  and  O_8
    5  A    between atoms: O_8  and  C_20
    6  A    between atoms: C_10  and  N_32
    7  A    between atoms: C_11  and  C_29
    8  A    between atoms: C_11  and  C_38
    9  A    between atoms: C_12  and  C_14
   10  A    between atoms: C_19  and  C_40
   11  A    between atoms: C_20  and  O_30
   12  A    between atoms: N_27  and  C_31
   13  A    between atoms: N_27  and  C_55
   14  A    between atoms: N_28  and  C_49
   15  A    between atoms: C_31  and  C_44
   16  A    between atoms: C_33  and  C_49
   17  A    between atoms: C_33  and  C_52
   18  A    between atoms: C_38  and  C_53
   19  A    between atoms: C_41  and  C_55
   20  A    between atoms: C_45  and  C_49
                            x       y       z     vdW  Elec       q    Type
                         _______ _______ _______ _____ _____    ______ ____

>  <TORSDO>
F 20

$$$$
=
 OpenBabel10272401433D

 55 58  0  0  1  0  0  0  0  0999 V2000
  190.8310  176.0110  138.5570 C   0  0  0  0  0  2  0  0  0  0  0  0
  188.3860  177.4800  136.3850 C   0  0  2  0  0  3  0  0  0  0  0  0
  189.2060  173.9330  134.4860 O   0  0  0  0  0  1  0  0  0  0  0  0
  190.0770  177.3210  134.5170 C   0  0  0  0  0  1  0  0  0  0  0  0
  190.2650  174.1900  135.3590 C   0  0  2  0  0  0  0  0  0  0  0  0
  189.9450  175.4200  136.2310 C   0  0  2  0  0  3  0  0  0  0  0  0
  192.4680  175.2320  136.8210 C   0  0  1  0  0  3  0  0  0  0  0  0
  189.0830  179.6010  137.2680 O   0  0  0  0  0  1  0  0  0  0  0  0
  189.1870  176.5380  135.4750 C   0  0  1  0  0  3  0  0  0  0  0  0
  191.5330  174.4210  134.5350 C   0  0  0  0  0  2  0  0  0  0  0  0
  189.4000  176.4530  138.8760 C   0  0  0  0  0  2  0  0  0  0  0  0
  190.4350  172.9680  136.2440 C   0  0  0  0  0  1  0  0  0  0  0  0
  191.1410  175.9730  137.0540 C   0  0  2  0  0  3  0  0  0  0  0  0
  189.2990  178.2300  137.3810 C   0  0  1  0  0  3  0  0  0  0  0  0
  192.7510  174.9220  135.3360 C   0  0  2  0  0  3  0  0  0  0  0  0
  189.1790  177.8410  138.7350 O   0  0  0  0  0  0  0  0  0  0  0  0
  194.2110  177.0620  136.5590 C   0  0  0  0  0  1  0  0  0  0  0  0
  193.6420  175.9790  137.4650 C   0  0  0  0  0  2  0  0  0  0  0  0
  193.9510  173.9790  135.2040 C   0  0  1  0  0  3  0  0  0  0  0  0
  193.7420  171.5710  136.7330 O   0  0  0  0  0  0  0  0  0  0  0  0
  193.5610  172.6760  134.6780 N   0  0  0  0  0  2  0  0  0  0  0  0
  193.5050  171.5050  135.4960 C   0  0  0  0  0  0  0  0  0  0  0  0
  193.1530  170.1950  134.8780 C   0  0  0  0  0  2  0  0  0  0  0  0
  192.7440  169.2500  135.9050 N   0  0  0  0  0  0  0  0  0  0  0  0
  191.7080  168.4200  135.3100 C   0  0  0  0  0  1  0  0  0  0  0  0
  193.8860  168.3810  136.1560 C   0  0  0  0  0  2  0  0  0  0  0  0
  195.3290  168.7700  138.1510 C   0  0  0  0  0  1  0  0  0  0  0  0
  194.0440  168.1420  137.6490 C   0  0  0  0  0  2  0  0  0  0  0  0
  195.0510  174.5870  134.3460 C   0  0  0  0  0  2  0  0  0  0  0  0
  196.6080  173.0990  135.7460 C   0  0  0  0  0  3  0  0  0  0  0  0
  198.6160  174.0690  136.6290 N   0  0  0  0  0  0  0  0  0  0  0  0
  197.3030  175.3050  134.9580 C   0  0  0  0  0  3  0  0  0  0  0  0
  198.6540  175.1110  135.5950 C   0  0  0  0  0  2  0  0  0  0  0  0
  197.6760  172.9890  136.5380 C   0  0  0  0  0  3  0  0  0  0  0  0
  196.3800  174.3400  134.9790 C   0  0  0  0  0  0  0  0  0  0  0  0
  199.6560  174.0010  137.6500 C   0  0  2  0  0  3  0  0  0  0  0  0
  199.9700  172.6170  137.9600 N   0  0  0  0  0  1  0  0  0  0  0  0
  199.2230  174.7300  138.9090 C   0  0  0  0  0  1  0  0  0  0  0  0
  187.3600  176.7750  137.0240 O   0  0  0  0  0  0  0  0  0  0  0  0
  186.1900  177.5020  136.7790 C   0  0  0  0  0  2  0  0  0  0  0  0
  185.1510  177.0110  137.5880 O   0  0  0  0  0  0  0  0  0  0  0  0
  184.5210  175.8930  136.9760 C   0  0  2  0  0  3  0  0  0  0  0  0
  184.0820  176.0960  135.6680 F   0  0  0  0  0  0  0  0  0  0  0  0
  183.3850  175.3380  137.8390 C   0  0  1  0  0  3  0  0  0  0  0  0
  182.8880  176.3250  138.8430 C   0  0  2  0  0  3  0  0  0  0  0  0
  182.3970  177.3040  139.8380 C   0  0  1  0  0  3  0  0  0  0  0  0
  181.9280  176.0310  139.8300 C   0  0  0  0  0  2  0  0  0  0  0  0
  182.4110  178.6730  140.4180 C   0  0  0  0  0  2  0  0  0  0  0  0
  182.6020  178.5850  141.9180 C   0  0  0  0  0  1  0  0  0  0  0  0
  182.2570  174.7390  137.0070 C   0  0  0  0  0  2  0  0  0  0  0  0
  181.0210  172.7300  137.4350 O   0  0  0  0  0  1  0  0  0  0  0  0
  182.2890  173.2230  137.1110 C   0  0  1  0  0  3  0  0  0  0  0  0
  183.1350  171.4150  135.7870 O   0  0  0  0  0  1  0  0  0  0  0  0
  182.7720  172.6200  135.8340 C   0  0  0  0  0  0  0  0  0  0  0  0
  182.8010  173.3920  134.6800 O   0  0  0  0  0  0  0  0  0  0  0  0
  1 11  1  0  0  0  0
  2 39  1  1  0  0  0
  2 14  1  0  0  0  0
  3  5  1  0  0  0  0
  4  9  1  0  0  0  0
  5  6  1  0  0  0  0
  5 12  1  1  0  0  0
  6 13  1  0  0  0  0
  7 13  1  0  0  0  0
  7 18  1  0  0  0  0
  8 14  1  0  0  0  0
  9  6  1  0  0  0  0
  9  2  1  0  0  0  0
 10 15  1  0  0  0  0
 10  5  1  0  0  0  0
 13  1  1  0  0  0  0
 14 16  1  0  0  0  0
 15  7  1  0  0  0  0
 16 11  1  0  0  0  0
 17 18  1  0  0  0  0
 19 15  1  0  0  0  0
 21 19  1  0  0  0  0
 21 22  1  0  0  0  0
 22 20  2  0  0  0  0
 23 22  1  0  0  0  0
 23 24  1  0  0  0  0
 24 26  1  0  0  0  0
 25 24  1  0  0  0  0
 26 28  1  0  0  0  0
 28 27  1  0  0  0  0
 29 35  1  0  0  0  0
 29 19  1  0  0  0  0
 30 34  2  0  0  0  0
 31 36  1  0  0  0  0
 32 35  2  0  0  0  0
 32 33  1  0  0  0  0
 33 31  1  0  0  0  0
 34 31  1  0  0  0  0
 35 30  1  0  0  0  0
 36 37  1  0  0  0  0
 36 38  1  0  0  0  0
 40 39  1  0  0  0  0
 40 41  1  0  0  0  0
 42 41  1  0  0  0  0
 42 44  1  0  0  0  0
 43 42  1  0  0  0  0
 44 45  1  0  0  0  0
 45 47  1  0  0  0  0
 45 46  1  0  0  0  0
 46 48  1  0  0  0  0
 47 46  1  0  0  0  0
 48 49  1  0  0  0  0
 50 52  1  0  0  0  0
 50 44  1  0  0  0  0
 52 51  1  0  0  0  0
 53 54  1  0  0  0  0
 54 52  1  0  0  0  0
 55 54  2  0  0  0  0
M  END
>  <MODEL>
5

>  <REMARK>
 VINA RESULT:      -4.1      2.310      3.462
  Name = 
  20 active torsions:
  status: ('A' for Active; 'I' for Inactive)
    1  A    between atoms: C_1  and  O_30
    2  A    between atoms: C_1  and  C_53
    3  A    between atoms: C_6  and  C_53
    4  A    between atoms: C_7  and  O_8
    5  A    between atoms: O_8  and  C_20
    6  A    between atoms: C_10  and  N_32
    7  A    between atoms: C_11  and  C_29
    8  A    between atoms: C_11  and  C_38
    9  A    between atoms: C_12  and  C_14
   10  A    between atoms: C_19  and  C_40
   11  A    between atoms: C_20  and  O_30
   12  A    between atoms: N_27  and  C_31
   13  A    between atoms: N_27  and  C_55
   14  A    between atoms: N_28  and  C_49
   15  A    between atoms: C_31  and  C_44
   16  A    between atoms: C_33  and  C_49
   17  A    between atoms: C_33  and  C_52
   18  A    between atoms: C_38  and  C_53
   19  A    between atoms: C_41  and  C_55
   20  A    between atoms: C_45  and  C_49
                            x       y       z     vdW  Elec       q    Type
                         _______ _______ _______ _____ _____    ______ ____

>  <TORSDO>
F 20

$$$$
=
 OpenBabel10272401433D

 55 58  0  0  1  0  0  0  0  0999 V2000
  186.6790  174.5680  136.5590 C   0  0  0  0  0  2  0  0  0  0  0  0
  188.8530  177.3590  137.1440 C   0  0  2  0  0  3  0  0  0  0  0  0
  185.2740  178.7300  138.6160 O   0  0  0  0  0  1  0  0  0  0  0  0
  187.2830  178.7630  135.7520 C   0  0  0  0  0  1  0  0  0  0  0  0
  184.9900  177.6580  137.7690 C   0  0  2  0  0  0  0  0  0  0  0  0
  186.2980  176.9830  137.3120 C   0  0  2  0  0  3  0  0  0  0  0  0
  184.7050  175.8080  135.6300 C   0  0  1  0  0  3  0  0  0  0  0  0
  190.1980  176.5070  135.3470 O   0  0  0  0  0  1  0  0  0  0  0  0
  187.4520  177.9800  137.0490 C   0  0  1  0  0  3  0  0  0  0  0  0
  184.1970  178.1790  136.5690 C   0  0  0  0  0  2  0  0  0  0  0  0
  187.9730  174.6270  137.3760 C   0  0  0  0  0  2  0  0  0  0  0  0
  184.1510  176.6640  138.5540 C   0  0  0  0  0  1  0  0  0  0  0  0
  186.1390  175.9500  136.1630 C   0  0  2  0  0  3  0  0  0  0  0  0
  189.0560  176.2400  136.0990 C   0  0  1  0  0  3  0  0  0  0  0  0
  183.9810  177.1570  135.4340 C   0  0  2  0  0  3  0  0  0  0  0  0
  189.1240  174.9240  136.6140 O   0  0  0  0  0  0  0  0  0  0  0  0
  184.2970  173.5160  134.6140 C   0  0  0  0  0  1  0  0  0  0  0  0
  184.6680  174.9680  134.3470 C   0  0  0  0  0  2  0  0  0  0  0  0
  182.4940  176.9320  135.1410 C   0  0  1  0  0  3  0  0  0  0  0  0
  180.5430  174.9760  134.4010 O   0  0  0  0  0  0  0  0  0  0  0  0
  181.9090  175.9430  136.0380 N   0  0  0  0  0  2  0  0  0  0  0  0
  180.9140  175.0110  135.6060 C   0  0  0  0  0  0  0  0  0  0  0  0
  180.3180  174.0650  136.5930 C   0  0  0  0  0  2  0  0  0  0  0  0
  181.3550  173.2250  137.1710 N   0  0  0  0  0  0  0  0  0  0  0  0
  181.3360  173.4770  138.6030 C   0  0  0  0  0  1  0  0  0  0  0  0
  180.9320  171.8440  136.9810 C   0  0  0  0  0  2  0  0  0  0  0  0
  180.8370  170.0320  135.2730 C   0  0  0  0  0  1  0  0  0  0  0  0
  181.5900  171.2610  135.7420 C   0  0  0  0  0  2  0  0  0  0  0  0
  181.7070  178.2330  135.2020 C   0  0  0  0  0  2  0  0  0  0  0  0
  181.3590  179.8800  137.1430 C   0  0  0  0  0  3  0  0  0  0  0  0
  181.0620  178.9890  139.3500 N   0  0  0  0  0  0  0  0  0  0  0  0
  180.9890  177.4800  137.4110 C   0  0  0  0  0  3  0  0  0  0  0  0
  180.5770  177.6980  138.8430 C   0  0  0  0  0  2  0  0  0  0  0  0
  181.2580  180.0940  138.4560 C   0  0  0  0  0  3  0  0  0  0  0  0
  181.2910  178.5050  136.6100 C   0  0  0  0  0  0  0  0  0  0  0  0
  181.1600  179.2300  140.7860 C   0  0  2  0  0  3  0  0  0  0  0  0
  182.4970  178.9180  141.2590 N   0  0  0  0  0  1  0  0  0  0  0  0
  180.1360  178.4030  141.5410 C   0  0  0  0  0  1  0  0  0  0  0  0
  189.0990  176.9230  138.4520 O   0  0  0  0  0  0  0  0  0  0  0  0
  189.3310  178.0820  139.1990 C   0  0  0  0  0  2  0  0  0  0  0  0
  189.6380  177.7330  140.5260 O   0  0  0  0  0  0  0  0  0  0  0  0
  188.4570  177.4140  141.2490 C   0  0  2  0  0  3  0  0  0  0  0  0
  187.2790  177.9650  140.7450 F   0  0  0  0  0  0  0  0  0  0  0  0
  188.5990  177.7320  142.7400 C   0  0  1  0  0  3  0  0  0  0  0  0
  187.2810  177.9240  143.4160 C   0  0  2  0  0  3  0  0  0  0  0  0
  185.9750  178.1170  144.0850 C   0  0  1  0  0  3  0  0  0  0  0  0
  186.9280  177.3260  144.6400 C   0  0  0  0  0  2  0  0  0  0  0  0
  184.6210  178.7290  144.1200 C   0  0  0  0  0  2  0  0  0  0  0  0
  183.9620  178.4210  145.4490 C   0  0  0  0  0  1  0  0  0  0  0  0
  189.4840  176.7290  143.4710 C   0  0  0  0  0  2  0  0  0  0  0  0
  190.5770  178.8040  143.9670 O   0  0  0  0  0  1  0  0  0  0  0  0
  190.7510  177.4170  143.9520 C   0  0  1  0  0  3  0  0  0  0  0  0
  191.7290  175.8220  145.4500 O   0  0  0  0  0  0  0  0  0  0  0  0
  191.1320  176.9230  145.3080 C   0  0  0  0  0  0  0  0  0  0  0  0
  190.8470  177.6980  146.4240 O   0  0  0  0  0  1  0  0  0  0  0  0
  1 11  1  0  0  0  0
  2 39  1  1  0  0  0
  4  9  1  0  0  0  0
  5 12  1  1  0  0  0
  5  3  1  0  0  0  0
  6  5  1  0  0  0  0
  7 13  1  0  0  0  0
  8 14  1  0  0  0  0
  9  2  1  0  0  0  0
  9  6  1  0  0  0  0
 10  5  1  0  0  0  0
 13  1  1  0  0  0  0
 13  6  1  0  0  0  0
 14 16  1  0  0  0  0
 14  2  1  0  0  0  0
 15  7  1  0  0  0  0
 15 10  1  0  0  0  0
 16 11  1  0  0  0  0
 18 17  1  0  0  0  0
 18  7  1  0  0  0  0
 19 29  1  0  0  0  0
 19 15  1  0  0  0  0
 19 21  1  0  0  0  0
 20 22  2  0  0  0  0
 22 21  1  0  0  0  0
 22 23  1  0  0  0  0
 23 24  1  0  0  0  0
 24 25  1  0  0  0  0
 26 24  1  0  0  0  0
 27 28  1  0  0  0  0
 28 26  1  0  0  0  0
 29 35  1  0  0  0  0
 30 34  2  0  0  0  0
 31 36  1  0  0  0  0
 32 33  1  0  0  0  0
 33 31  1  0  0  0  0
 34 31  1  0  0  0  0
 35 30  1  0  0  0  0
 35 32  2  0  0  0  0
 36 37  1  0  0  0  0
 36 38  1  0  0  0  0
 39 40  1  0  0  0  0
 40 41  1  0  0  0  0
 41 42  1  0  0  0  0
 42 44  1  0  0  0  0
 43 42  1  0  0  0  0
 44 45  1  0  0  0  0
 44 50  1  0  0  0  0
 45 46  1  0  0  0  0
 45 47  1  0  0  0  0
 46 48  1  0  0  0  0
 46 47  1  0  0  0  0
 48 49  1  0  0  0  0
 50 52  1  0  0  0  0
 52 51  1  0  0  0  0
 52 54  1  0  0  0  0
 54 53  2  0  0  0  0
 54 55  1  0  0  0  0
M  END
>  <MODEL>
6

>  <REMARK>
 VINA RESULT:      -3.8      6.398     10.538
  Name = 
  20 active torsions:
  status: ('A' for Active; 'I' for Inactive)
    1  A    between atoms: C_1  and  O_30
    2  A    between atoms: C_1  and  C_53
    3  A    between atoms: C_6  and  C_53
    4  A    between atoms: C_7  and  O_8
    5  A    between atoms: O_8  and  C_20
    6  A    between atoms: C_10  and  N_32
    7  A    between atoms: C_11  and  C_29
    8  A    between atoms: C_11  and  C_38
    9  A    between atoms: C_12  and  C_14
   10  A    between atoms: C_19  and  C_40
   11  A    between atoms: C_20  and  O_30
   12  A    between atoms: N_27  and  C_31
   13  A    between atoms: N_27  and  C_55
   14  A    between atoms: N_28  and  C_49
   15  A    between atoms: C_31  and  C_44
   16  A    between atoms: C_33  and  C_49
   17  A    between atoms: C_33  and  C_52
   18  A    between atoms: C_38  and  C_53
   19  A    between atoms: C_41  and  C_55
   20  A    between atoms: C_45  and  C_49
                            x       y       z     vdW  Elec       q    Type
                         _______ _______ _______ _____ _____    ______ ____

>  <TORSDO>
F 20

$$$$
=
 OpenBabel10272401433D

 55 58  0  0  1  0  0  0  0  0999 V2000
  190.6950  176.5780  138.8850 C   0  0  0  0  0  2  0  0  0  0  0  0
  188.0770  177.7470  136.7320 C   0  0  2  0  0  3  0  0  0  0  0  0
  188.9010  174.0450  135.1570 O   0  0  0  0  0  1  0  0  0  0  0  0
  189.6590  177.4410  134.7870 C   0  0  0  0  0  1  0  0  0  0  0  0
  190.0000  174.4200  135.9320 C   0  0  2  0  0  0  0  0  0  0  0  0
  189.6920  175.7250  136.6920 C   0  0  2  0  0  3  0  0  0  0  0  0
  192.2500  175.6680  137.1390 C   0  0  1  0  0  3  0  0  0  0  0  0
  188.7550  179.9670  137.3480 O   0  0  0  0  0  1  0  0  0  0  0  0
  188.8540  176.7380  135.8740 C   0  0  1  0  0  3  0  0  0  0  0  0
  191.2090  174.5980  135.0110 C   0  0  0  0  0  2  0  0  0  0  0  0
  189.2700  177.0130  139.2460 C   0  0  0  0  0  2  0  0  0  0  0  0
  190.2640  173.3020  136.9250 C   0  0  0  0  0  1  0  0  0  0  0  0
  190.9160  176.3920  137.3770 C   0  0  2  0  0  3  0  0  0  0  0  0
  189.0220  178.6210  137.5860 C   0  0  1  0  0  3  0  0  0  0  0  0
  192.4550  175.2130  135.6790 C   0  0  2  0  0  3  0  0  0  0  0  0
  188.9960  178.3720  138.9780 O   0  0  0  0  0  0  0  0  0  0  0  0
  194.0240  175.9820  138.9310 C   0  0  0  0  0  1  0  0  0  0  0  0
  193.4350  176.5080  137.6300 C   0  0  0  0  0  2  0  0  0  0  0  0
  193.6760  174.2940  135.5690 C   0  0  1  0  0  3  0  0  0  0  0  0
  194.2570  171.9840  137.1520 O   0  0  0  0  0  0  0  0  0  0  0  0
  193.2960  172.9250  135.2370 N   0  0  0  0  0  2  0  0  0  0  0  0
  193.6460  171.8110  136.0620 C   0  0  0  0  0  0  0  0  0  0  0  0
  193.2740  170.4340  135.6310 C   0  0  0  0  0  2  0  0  0  0  0  0
  193.6190  169.4740  136.6670 N   0  0  0  0  0  0  0  0  0  0  0  0
  192.9000  168.2500  136.3490 C   0  0  0  0  0  1  0  0  0  0  0  0
  195.0380  169.1800  136.5140 C   0  0  0  0  0  2  0  0  0  0  0  0
  195.2850  168.4450  138.8820 C   0  0  0  0  0  1  0  0  0  0  0  0
  195.4370  168.0360  137.4300 C   0  0  0  0  0  2  0  0  0  0  0  0
  194.6870  174.8210  134.5610 C   0  0  0  0  0  2  0  0  0  0  0  0
  197.2210  175.1860  134.3500 C   0  0  0  0  0  3  0  0  0  0  0  0
  198.6320  174.4070  136.1250 N   0  0  0  0  0  0  0  0  0  0  0  0
  196.1960  174.4600  136.4460 C   0  0  0  0  0  3  0  0  0  0  0  0
  197.5460  174.4640  137.1130 C   0  0  0  0  0  2  0  0  0  0  0  0
  198.4510  174.9550  134.8130 C   0  0  0  0  0  3  0  0  0  0  0  0
  196.0450  174.8570  135.1800 C   0  0  0  0  0  0  0  0  0  0  0  0
  199.9700  173.9780  136.5210 C   0  0  2  0  0  3  0  0  0  0  0  0
  200.2320  172.6330  136.0390 N   0  0  0  0  0  1  0  0  0  0  0  0
  200.1270  174.0290  138.0300 C   0  0  0  0  0  1  0  0  0  0  0  0
  187.1150  177.0850  137.5020 O   0  0  0  0  0  0  0  0  0  0  0  0
  186.4040  176.2770  136.6080 C   0  0  0  0  0  2  0  0  0  0  0  0
  185.1370  176.8390  136.3710 O   0  0  0  0  0  0  0  0  0  0  0  0
  184.5560  177.3010  137.5830 C   0  0  2  0  0  3  0  0  0  0  0  0
  184.4080  176.3370  138.5810 F   0  0  0  0  0  0  0  0  0  0  0  0
  183.2280  178.0240  137.3390 C   0  0  1  0  0  3  0  0  0  0  0  0
  182.4960  177.4970  136.1490 C   0  0  2  0  0  3  0  0  0  0  0  0
  181.7710  176.9740  134.9700 C   0  0  1  0  0  3  0  0  0  0  0  0
  182.5980  178.0430  134.8550 C   0  0  0  0  0  2  0  0  0  0  0  0
  180.8310  175.9950  134.3620 C   0  0  0  0  0  2  0  0  0  0  0  0
  180.4090  174.9840  135.4080 C   0  0  0  0  0  1  0  0  0  0  0  0
  182.3510  178.0720  138.5840 C   0  0  0  0  0  2  0  0  0  0  0  0
  183.7600  179.9940  138.8460 O   0  0  0  0  0  1  0  0  0  0  0  0
  182.6340  179.3460  139.3640 C   0  0  1  0  0  3  0  0  0  0  0  0
  180.6810  180.3420  140.3290 O   0  0  0  0  0  1  0  0  0  0  0  0
  181.4500  180.2530  139.3350 C   0  0  0  0  0  0  0  0  0  0  0  0
  181.2070  181.0260  138.2070 O   0  0  0  0  0  0  0  0  0  0  0  0
  1 11  1  0  0  0  0
  2 39  1  1  0  0  0
  2 14  1  0  0  0  0
  3  5  1  0  0  0  0
  4  9  1  0  0  0  0
  5  6  1  0  0  0  0
  5 12  1  1  0  0  0
  6 13  1  0  0  0  0
  7 13  1  0  0  0  0
  7 18  1  0  0  0  0
  8 14  1  0  0  0  0
  9  6  1  0  0  0  0
  9  2  1  0  0  0  0
 10 15  1  0  0  0  0
 10  5  1  0  0  0  0
 13  1  1  0  0  0  0
 14 16  1  0  0  0  0
 15  7  1  0  0  0  0
 16 11  1  0  0  0  0
 18 17  1  0  0  0  0
 19 15  1  0  0  0  0
 21 19  1  0  0  0  0
 21 22  1  0  0  0  0
 22 20  2  0  0  0  0
 23 22  1  0  0  0  0
 23 24  1  0  0  0  0
 25 24  1  0  0  0  0
 26 24  1  0  0  0  0
 26 28  1  0  0  0  0
 28 27  1  0  0  0  0
 29 35  1  0  0  0  0
 29 19  1  0  0  0  0
 30 34  2  0  0  0  0
 30 35  1  0  0  0  0
 31 36  1  0  0  0  0
 31 33  1  0  0  0  0
 32 33  1  0  0  0  0
 34 31  1  0  0  0  0
 35 32  2  0  0  0  0
 36 38  1  0  0  0  0
 37 36  1  0  0  0  0
 40 39  1  0  0  0  0
 41 40  1  0  0  0  0
 41 42  1  0  0  0  0
 42 43  1  0  0  0  0
 44 42  1  0  0  0  0
 44 50  1  0  0  0  0
 45 44  1  0  0  0  0
 46 45  1  0  0  0  0
 47 46  1  0  0  0  0
 47 45  1  0  0  0  0
 48 46  1  0  0  0  0
 48 49  1  0  0  0  0
 50 52  1  0  0  0  0
 51 52  1  0  0  0  0
 54 52  1  0  0  0  0
 54 53  1  0  0  0  0
 55 54  2  0  0  0  0
M  END
>  <MODEL>
7

>  <REMARK>
 VINA RESULT:      -3.8      1.846      2.524
  Name = 
  20 active torsions:
  status: ('A' for Active; 'I' for Inactive)
    1  A    between atoms: C_1  and  O_30
    2  A    between atoms: C_1  and  C_53
    3  A    between atoms: C_6  and  C_53
    4  A    between atoms: C_7  and  O_8
    5  A    between atoms: O_8  and  C_20
    6  A    between atoms: C_10  and  N_32
    7  A    between atoms: C_11  and  C_29
    8  A    between atoms: C_11  and  C_38
    9  A    between atoms: C_12  and  C_14
   10  A    between atoms: C_19  and  C_40
   11  A    between atoms: C_20  and  O_30
   12  A    between atoms: N_27  and  C_31
   13  A    between atoms: N_27  and  C_55
   14  A    between atoms: N_28  and  C_49
   15  A    between atoms: C_31  and  C_44
   16  A    between atoms: C_33  and  C_49
   17  A    between atoms: C_33  and  C_52
   18  A    between atoms: C_38  and  C_53
   19  A    between atoms: C_41  and  C_55
   20  A    between atoms: C_45  and  C_49
                            x       y       z     vdW  Elec       q    Type
                         _______ _______ _______ _____ _____    ______ ____

>  <TORSDO>
F 20

$$$$
=
 OpenBabel10272401433D

 55 58  0  0  1  0  0  0  0  0999 V2000
  190.3840  176.3750  138.9580 C   0  0  0  0  0  2  0  0  0  0  0  0
  187.9740  177.8770  136.7680 C   0  0  2  0  0  3  0  0  0  0  0  0
  188.2470  174.0660  135.2650 O   0  0  0  0  0  1  0  0  0  0  0  0
  189.4990  177.3050  134.8390 C   0  0  0  0  0  1  0  0  0  0  0  0
  189.3870  174.2890  136.0390 C   0  0  2  0  0  0  0  0  0  0  0  0
  189.2730  175.6390  136.7740 C   0  0  2  0  0  3  0  0  0  0  0  0
  191.7930  175.2130  137.2370 C   0  0  1  0  0  3  0  0  0  0  0  0
  188.9700  179.9840  137.3480 O   0  0  0  0  0  1  0  0  0  0  0  0
  188.5960  176.7490  135.9330 C   0  0  1  0  0  3  0  0  0  0  0  0
  190.6120  174.2690  135.1220 C   0  0  0  0  0  2  0  0  0  0  0  0
  189.0380  177.0210  139.3030 C   0  0  0  0  0  2  0  0  0  0  0  0
  189.4790  173.1620  137.0530 C   0  0  0  0  0  1  0  0  0  0  0  0
  190.5800  176.1300  137.4540 C   0  0  2  0  0  3  0  0  0  0  0  0
  189.0350  178.6170  137.6130 C   0  0  1  0  0  3  0  0  0  0  0  0
  191.9330  174.7050  135.7870 C   0  0  2  0  0  3  0  0  0  0  0  0
  188.9680  178.4010  139.0090 O   0  0  0  0  0  0  0  0  0  0  0  0
  193.6120  176.9140  136.7340 C   0  0  0  0  0  1  0  0  0  0  0  0
  193.0880  175.8780  137.7190 C   0  0  0  0  0  2  0  0  0  0  0  0
  193.0050  173.6140  135.7000 C   0  0  1  0  0  3  0  0  0  0  0  0
  195.8030  174.0920  136.0470 O   0  0  0  0  0  0  0  0  0  0  0  0
  193.7370  173.4720  136.9530 N   0  0  0  0  0  2  0  0  0  0  0  0
  195.1450  173.7000  137.0490 C   0  0  0  0  0  0  0  0  0  0  0  0
  195.8370  173.4800  138.3510 C   0  0  0  0  0  2  0  0  0  0  0  0
  196.7480  174.5790  138.6260 N   0  0  0  0  0  0  0  0  0  0  0  0
  196.4440  175.0370  139.9730 C   0  0  0  0  0  1  0  0  0  0  0  0
  198.0900  174.0140  138.6670 C   0  0  0  0  0  2  0  0  0  0  0  0
  199.1760  173.2640  136.5530 C   0  0  0  0  0  1  0  0  0  0  0  0
  198.8800  174.4530  137.4450 C   0  0  0  0  0  2  0  0  0  0  0  0
  192.4120  172.2770  135.2800 C   0  0  0  0  0  2  0  0  0  0  0  0
  193.4830  170.1620  136.2700 C   0  0  0  0  0  3  0  0  0  0  0  0
  195.7200  169.6060  135.6110 N   0  0  0  0  0  0  0  0  0  0  0  0
  194.5000  171.3650  134.4030 C   0  0  0  0  0  3  0  0  0  0  0  0
  195.6120  170.3500  134.3500 C   0  0  0  0  0  2  0  0  0  0  0  0
  194.5640  169.3980  136.4340 C   0  0  0  0  0  3  0  0  0  0  0  0
  193.4820  171.2360  135.2570 C   0  0  0  0  0  0  0  0  0  0  0  0
  196.9510  168.8970  135.9480 C   0  0  2  0  0  3  0  0  0  0  0  0
  197.0690  168.7500  137.3890 N   0  0  0  0  0  1  0  0  0  0  0  0
  198.1610  169.6300  135.4000 C   0  0  0  0  0  1  0  0  0  0  0  0
  186.9220  177.3790  137.5450 O   0  0  0  0  0  0  0  0  0  0  0  0
  185.8170  177.3150  136.6890 C   0  0  0  0  0  2  0  0  0  0  0  0
  185.0730  176.1550  136.9660 O   0  0  0  0  0  0  0  0  0  0  0  0
  185.0310  175.3010  135.8310 C   0  0  2  0  0  3  0  0  0  0  0  0
  185.2030  175.9330  134.6000 F   0  0  0  0  0  0  0  0  0  0  0  0
  183.7670  174.4370  135.8150 C   0  0  1  0  0  3  0  0  0  0  0  0
  184.0670  172.9750  135.8580 C   0  0  2  0  0  3  0  0  0  0  0  0
  184.3630  171.5260  135.9000 C   0  0  1  0  0  3  0  0  0  0  0  0
  184.6890  172.3290  136.9430 C   0  0  0  0  0  2  0  0  0  0  0  0
  184.3260  170.1820  135.2640 C   0  0  0  0  0  2  0  0  0  0  0  0
  183.7410  169.1790  136.2370 C   0  0  0  0  0  1  0  0  0  0  0  0
  182.7600  174.8540  136.8800 C   0  0  0  0  0  2  0  0  0  0  0  0
  180.9870  175.6810  135.4950 O   0  0  0  0  0  1  0  0  0  0  0  0
  181.9780  176.0670  136.4030 C   0  0  1  0  0  3  0  0  0  0  0  0
  181.8200  176.6260  138.7270 O   0  0  0  0  0  1  0  0  0  0  0  0
  181.3740  176.7890  137.5600 C   0  0  0  0  0  0  0  0  0  0  0  0
  180.3220  177.6700  137.3450 O   0  0  0  0  0  0  0  0  0  0  0  0
  1 11  1  0  0  0  0
  2 39  1  1  0  0  0
  2 14  1  0  0  0  0
  3  5  1  0  0  0  0
  4  9  1  0  0  0  0
  5  6  1  0  0  0  0
  5 12  1  1  0  0  0
  6 13  1  0  0  0  0
  7 13  1  0  0  0  0
  7 18  1  0  0  0  0
  8 14  1  0  0  0  0
  9  2  1  0  0  0  0
  9  6  1  0  0  0  0
 10 15  1  0  0  0  0
 10  5  1  0  0  0  0
 13  1  1  0  0  0  0
 14 16  1  0  0  0  0
 15  7  1  0  0  0  0
 16 11  1  0  0  0  0
 17 18  1  0  0  0  0
 19 15  1  0  0  0  0
 19 21  1  0  0  0  0
 20 22  2  0  0  0  0
 21 22  1  0  0  0  0
 22 23  1  0  0  0  0
 23 24  1  0  0  0  0
 24 26  1  0  0  0  0
 24 25  1  0  0  0  0
 27 28  1  0  0  0  0
 28 26  1  0  0  0  0
 29 19  1  0  0  0  0
 30 34  2  0  0  0  0
 31 36  1  0  0  0  0
 31 34  1  0  0  0  0
 32 35  2  0  0  0  0
 33 32  1  0  0  0  0
 33 31  1  0  0  0  0
 35 29  1  0  0  0  0
 35 30  1  0  0  0  0
 36 37  1  0  0  0  0
 38 36  1  0  0  0  0
 40 41  1  0  0  0  0
 40 39  1  0  0  0  0
 42 41  1  0  0  0  0
 43 42  1  0  0  0  0
 44 42  1  0  0  0  0
 44 45  1  0  0  0  0
 44 50  1  0  0  0  0
 45 46  1  0  0  0  0
 45 47  1  0  0  0  0
 46 47  1  0  0  0  0
 48 46  1  0  0  0  0
 48 49  1  0  0  0  0
 51 52  1  0  0  0  0
 52 50  1  0  0  0  0
 52 54  1  0  0  0  0
 54 53  1  0  0  0  0
 55 54  2  0  0  0  0
M  END
>  <MODEL>
8

>  <REMARK>
 VINA RESULT:      -3.7      2.970      5.038
  Name = 
  20 active torsions:
  status: ('A' for Active; 'I' for Inactive)
    1  A    between atoms: C_1  and  O_30
    2  A    between atoms: C_1  and  C_53
    3  A    between atoms: C_6  and  C_53
    4  A    between atoms: C_7  and  O_8
    5  A    between atoms: O_8  and  C_20
    6  A    between atoms: C_10  and  N_32
    7  A    between atoms: C_11  and  C_29
    8  A    between atoms: C_11  and  C_38
    9  A    between atoms: C_12  and  C_14
   10  A    between atoms: C_19  and  C_40
   11  A    between atoms: C_20  and  O_30
   12  A    between atoms: N_27  and  C_31
   13  A    between atoms: N_27  and  C_55
   14  A    between atoms: N_28  and  C_49
   15  A    between atoms: C_31  and  C_44
   16  A    between atoms: C_33  and  C_49
   17  A    between atoms: C_33  and  C_52
   18  A    between atoms: C_38  and  C_53
   19  A    between atoms: C_41  and  C_55
   20  A    between atoms: C_45  and  C_49
                            x       y       z     vdW  Elec       q    Type
                         _______ _______ _______ _____ _____    ______ ____

>  <TORSDO>
F 20

$$$$
=
 OpenBabel10272401433D

 55 58  0  0  1  0  0  0  0  0999 V2000
  189.8230  178.6410  136.4930 C   0  0  0  0  0  2  0  0  0  0  0  0
  187.3320  177.7140  138.8990 C   0  0  2  0  0  3  0  0  0  0  0  0
  190.7310  176.0510  140.4930 O   0  0  0  0  0  1  0  0  0  0  0  0
  187.9610  175.3020  138.4920 C   0  0  0  0  0  1  0  0  0  0  0  0
  190.9840  176.2960  139.1420 C   0  0  2  0  0  0  0  0  0  0  0  0
  189.8110  177.0770  138.5180 C   0  0  2  0  0  3  0  0  0  0  0  0
  191.0120  176.4390  136.3040 C   0  0  1  0  0  3  0  0  0  0  0  0
  185.7350  177.9320  137.1200 O   0  0  0  0  0  1  0  0  0  0  0  0
  188.4230  176.6440  139.0490 C   0  0  1  0  0  3  0  0  0  0  0  0
  191.1870  174.9560  138.4320 C   0  0  0  0  0  2  0  0  0  0  0  0
  188.8930  179.5400  137.3140 C   0  0  0  0  0  2  0  0  0  0  0  0
  192.2520  177.1270  139.0570 C   0  0  0  0  0  1  0  0  0  0  0  0
  189.8410  177.1810  136.9680 C   0  0  2  0  0  3  0  0  0  0  0  0
  187.0870  178.0800  137.4180 C   0  0  1  0  0  3  0  0  0  0  0  0
  191.2710  175.0370  136.8950 C   0  0  2  0  0  3  0  0  0  0  0  0
  187.5210  179.3680  137.0260 O   0  0  0  0  0  0  0  0  0  0  0  0
  189.5400  175.6980  134.3700 C   0  0  0  0  0  1  0  0  0  0  0  0
  190.8400  176.3760  134.7820 C   0  0  0  0  0  2  0  0  0  0  0  0
  192.5880  174.4640  136.3620 C   0  0  1  0  0  3  0  0  0  0  0  0
  194.1260  172.0610  136.5600 O   0  0  0  0  0  0  0  0  0  0  0  0
  192.3740  173.2580  135.5720 N   0  0  0  0  0  2  0  0  0  0  0  0
  193.2020  172.0990  135.7030 C   0  0  0  0  0  0  0  0  0  0  0  0
  192.9600  170.9220  134.8210 C   0  0  0  0  0  2  0  0  0  0  0  0
  193.9890  169.9170  135.0340 N   0  0  0  0  0  0  0  0  0  0  0  0
  195.2530  170.5410  134.6790 C   0  0  0  0  0  1  0  0  0  0  0  0
  194.0350  169.6580  136.4670 C   0  0  0  0  0  2  0  0  0  0  0  0
  193.4640  168.0300  138.2650 C   0  0  0  0  0  1  0  0  0  0  0  0
  193.4150  168.3060  136.7750 C   0  0  0  0  0  2  0  0  0  0  0  0
  193.3630  175.4950  135.5540 C   0  0  0  0  0  2  0  0  0  0  0  0
  195.8380  175.6320  134.8790 C   0  0  0  0  0  3  0  0  0  0  0  0
  197.4820  174.8130  136.4210 N   0  0  0  0  0  0  0  0  0  0  0  0
  195.1550  175.0890  137.1610 C   0  0  0  0  0  3  0  0  0  0  0  0
  196.5990  175.0060  137.5790 C   0  0  0  0  0  2  0  0  0  0  0  0
  197.1100  175.3170  135.1300 C   0  0  0  0  0  3  0  0  0  0  0  0
  194.8080  175.4420  135.9200 C   0  0  0  0  0  0  0  0  0  0  0  0
  198.8320  174.2890  136.6000 C   0  0  2  0  0  3  0  0  0  0  0  0
  199.2490  173.5570  135.4160 N   0  0  0  0  0  1  0  0  0  0  0  0
  198.9030  173.3880  137.8190 C   0  0  0  0  0  1  0  0  0  0  0  0
  187.6410  178.8300  139.6850 O   0  0  0  0  0  0  0  0  0  0  0  0
  187.2420  178.5010  140.9850 C   0  0  0  0  0  2  0  0  0  0  0  0
  188.2460  178.8730  141.8940 O   0  0  0  0  0  0  0  0  0  0  0  0
  188.7790  177.7310  142.5520 C   0  0  2  0  0  3  0  0  0  0  0  0
  188.2860  176.5030  142.1110 F   0  0  0  0  0  0  0  0  0  0  0  0
  188.6530  177.8400  144.0740 C   0  0  1  0  0  3  0  0  0  0  0  0
  187.2500  178.0950  144.5190 C   0  0  2  0  0  3  0  0  0  0  0  0
  185.8610  178.3500  144.9600 C   0  0  1  0  0  3  0  0  0  0  0  0
  186.6180  177.4040  145.5700 C   0  0  0  0  0  2  0  0  0  0  0  0
  184.5820  179.0960  144.8300 C   0  0  0  0  0  2  0  0  0  0  0  0
  183.9100  178.7240  143.5250 C   0  0  0  0  0  1  0  0  0  0  0  0
  189.2860  176.6590  144.8000 C   0  0  0  0  0  2  0  0  0  0  0  0
  189.9780  177.1860  147.0340 O   0  0  0  0  0  1  0  0  0  0  0  0
  190.4060  177.1490  145.7030 C   0  0  1  0  0  3  0  0  0  0  0  0
  192.1890  176.1480  144.4540 O   0  0  0  0  0  0  0  0  0  0  0  0
  191.6090  176.2770  145.5650 C   0  0  0  0  0  0  0  0  0  0  0  0
  192.1100  175.6200  146.6810 O   0  0  0  0  0  1  0  0  0  0  0  0
  1 13  1  0  0  0  0
  1 11  1  0  0  0  0
  2  9  1  0  0  0  0
  2 39  1  1  0  0  0
  4  9  1  0  0  0  0
  5 12  1  6  0  0  0
  5  3  1  0  0  0  0
  6  9  1  0  0  0  0
  6  5  1  0  0  0  0
  7 15  1  0  0  0  0
  7 13  1  0  0  0  0
  8 14  1  0  0  0  0
 10  5  1  0  0  0  0
 13  6  1  0  0  0  0
 14  2  1  0  0  0  0
 15 10  1  0  0  0  0
 16 11  1  0  0  0  0
 16 14  1  0  0  0  0
 17 18  1  0  0  0  0
 18  7  1  0  0  0  0
 19 15  1  0  0  0  0
 21 22  1  0  0  0  0
 21 19  1  0  0  0  0
 22 20  2  0  0  0  0
 23 24  1  0  0  0  0
 23 22  1  0  0  0  0
 24 26  1  0  0  0  0
 25 24  1  0  0  0  0
 26 28  1  0  0  0  0
 28 27  1  0  0  0  0
 29 35  1  0  0  0  0
 29 19  1  0  0  0  0
 30 34  2  0  0  0  0
 30 35  1  0  0  0  0
 31 36  1  0  0  0  0
 31 33  1  0  0  0  0
 32 33  1  0  0  0  0
 34 31  1  0  0  0  0
 35 32  2  0  0  0  0
 36 38  1  0  0  0  0
 37 36  1  0  0  0  0
 39 40  1  0  0  0  0
 40 41  1  0  0  0  0
 41 42  1  0  0  0  0
 42 44  1  0  0  0  0
 43 42  1  0  0  0  0
 44 45  1  0  0  0  0
 44 50  1  0  0  0  0
 45 46  1  0  0  0  0
 45 47  1  0  0  0  0
 46 47  1  0  0  0  0
 48 46  1  0  0  0  0
 49 48  1  0  0  0  0
 50 52  1  0  0  0  0
 52 51  1  0  0  0  0
 53 54  2  0  0  0  0
 54 52  1  0  0  0  0
 54 55  1  0  0  0  0
M  END
>  <MODEL>
9

>  <REMARK>
 VINA RESULT:      -3.6      2.584      4.276
  Name = 
  20 active torsions:
  status: ('A' for Active; 'I' for Inactive)
    1  A    between atoms: C_1  and  O_30
    2  A    between atoms: C_1  and  C_53
    3  A    between atoms: C_6  and  C_53
    4  A    between atoms: C_7  and  O_8
    5  A    between atoms: O_8  and  C_20
    6  A    between atoms: C_10  and  N_32
    7  A    between atoms: C_11  and  C_29
    8  A    between atoms: C_11  and  C_38
    9  A    between atoms: C_12  and  C_14
   10  A    between atoms: C_19  and  C_40
   11  A    between atoms: C_20  and  O_30
   12  A    between atoms: N_27  and  C_31
   13  A    between atoms: N_27  and  C_55
   14  A    between atoms: N_28  and  C_49
   15  A    between atoms: C_31  and  C_44
   16  A    between atoms: C_33  and  C_49
   17  A    between atoms: C_33  and  C_52
   18  A    between atoms: C_38  and  C_53
   19  A    between atoms: C_41  and  C_55
   20  A    between atoms: C_45  and  C_49
                            x       y       z     vdW  Elec       q    Type
                         _______ _______ _______ _____ _____    ______ ____

>  <TORSDO>
F 20

$$$$
