=
 OpenBabel10272415163D

 34 39  0  0  1  0  0  0  0  0999 V2000
  190.6440  177.5040  140.0590 C   0  0  0  0  0  0  0  0  0  0  0  0
  188.1740  177.1410  139.9890 C   0  0  0  0  0  2  0  0  0  0  0  0
  190.0310  177.5450  142.8770 C   0  0  2  0  0  0  0  0  0  0  0  0
  191.4810  177.6540  142.3950 C   0  0  0  0  0  2  0  0  0  0  0  0
  191.6220  177.2830  140.9460 C   0  0  0  0  0  3  0  0  0  0  0  0
  189.1460  178.3940  141.9540 C   0  0  0  0  0  2  0  0  0  0  0  0
  189.2960  178.0600  140.4620 C   0  0  1  0  0  3  0  0  0  0  0  0
  189.9570  178.1320  144.2720 C   0  0  0  0  0  1  0  0  0  0  0  0
  188.3730  176.5870  138.5650 C   0  0  0  0  0  2  0  0  0  0  0  0
  190.8490  177.0620  138.6380 C   0  0  0  0  0  2  0  0  0  0  0  0
  189.5790  177.1460  137.7610 C   0  0  1  0  0  0  0  0  0  0  0  0
  188.9720  176.8560  135.2520 C   0  0  0  0  0  2  0  0  0  0  0  0
  190.5830  174.0090  137.2410 C   0  0  0  0  0  2  0  0  0  0  0  0
  193.0880  174.0780  137.2970 C   0  0  0  0  0  2  0  0  0  0  0  0
  188.0830  174.4690  136.8660 C   0  0  0  0  0  2  0  0  0  0  0  0
  186.6170  177.0260  134.4330 C   0  0  0  0  0  3  0  0  0  0  0  0
  184.9020  175.4360  135.0560 C   0  0  0  0  0  3  0  0  0  0  0  0
  193.4790  175.5140  135.5090 N   0  0  0  0  0  2  0  0  0  0  0  0
  185.2990  176.5710  134.3460 C   0  0  0  0  0  3  0  0  0  0  0  0
  187.1460  175.1910  135.9390 C   0  0  0  0  0  0  0  0  0  0  0  0
  187.5460  176.3550  135.2350 C   0  0  0  0  0  0  0  0  0  0  0  0
  185.8210  174.7520  135.8540 C   0  0  0  0  0  3  0  0  0  0  0  0
  191.8720  174.0400  136.4160 C   0  0  2  0  0  3  0  0  0  0  0  0
  193.9940  175.0830  136.7500 N   0  0  0  0  0  2  0  0  0  0  0  0
  191.3160  176.5130  136.0210 C   0  0  0  0  0  2  0  0  0  0  0  0
  192.0500  175.2540  135.5210 C   0  0  1  0  0  3  0  0  0  0  0  0
  189.5200  174.8100  136.5150 C   0  0  1  0  0  3  0  0  0  0  0  0
  189.8290  176.3280  136.4190 C   0  0  1  0  0  0  0  0  0  0  0  0
  189.5630  176.1120  142.9390 C   0  0  0  0  0  0  0  0  0  0  0  0
  188.3350  175.8500  143.0610 O   0  0  0  0  0  1  0  0  0  0  0  0
  190.4810  175.0680  142.9410 O   0  0  0  0  0  0  0  0  0  0  0  0
  189.3470  178.6510  137.4670 C   0  0  0  0  0  2  0  0  0  0  0  0
  187.5190  179.5790  136.2630 F   0  0  0  0  0  0  0  0  0  0  0  0
  187.8900  179.0980  137.5040 C   0  0  0  0  0  2  0  0  0  0  0  0
  1  7  1  0  0  0  0
  1  5  2  0  0  0  0
  3 29  1  0  0  0  0
  3  8  1  1  0  0  0
  4  3  1  0  0  0  0
  5  4  1  0  0  0  0
  6  3  1  0  0  0  0
  7  2  1  1  0  0  0
  7  6  1  0  0  0  0
  9  2  1  0  0  0  0
 10  1  1  0  0  0  0
 11 32  1  6  0  0  0
 11  9  1  0  0  0  0
 11 10  1  0  0  0  0
 16 21  1  0  0  0  0
 17 22  2  0  0  0  0
 18 26  1  0  0  0  0
 18 24  1  0  0  0  0
 19 16  2  0  0  0  0
 19 17  1  0  0  0  0
 20 15  1  0  0  0  0
 21 12  1  0  0  0  0
 21 20  2  0  0  0  0
 22 20  1  0  0  0  0
 23 13  1  1  0  0  0
 23 14  1  0  0  0  0
 24 14  1  0  0  0  0
 25 28  1  0  0  0  0
 26 25  1  1  0  0  0
 26 23  1  0  0  0  0
 27 15  1  1  0  0  0
 27 13  1  0  0  0  0
 28 12  1  6  0  0  0
 28 27  1  0  0  0  0
 28 11  1  0  0  0  0
 29 31  2  0  0  0  0
 29 30  1  0  0  0  0
 32 34  1  0  0  0  0
 33 34  1  0  0  0  0
M  END
>  <MODEL>
1

>  <REMARK>
 VINA RESULT:      -6.3      0.000      0.000
  Name = 
  4 active torsions:
  status: ('A' for Active; 'I' for Inactive)
    1  A    between atoms: C_7  and  C_11
    2  A    between atoms: C_9  and  C_18
    3  A    between atoms: C_9  and  C_33
    4  A    between atoms: C_33  and  C_34
                            x       y       z     vdW  Elec       q    Type
                         _______ _______ _______ _____ _____    ______ ____

>  <TORSDO>
F 4

$$$$
=
 OpenBabel10272415163D

 34 39  0  0  1  0  0  0  0  0999 V2000
  190.7450  177.3800  139.8250 C   0  0  0  0  0  0  0  0  0  0  0  0
  188.3200  176.8390  139.5640 C   0  0  0  0  0  2  0  0  0  0  0  0
  189.8510  177.6540  142.5540 C   0  0  2  0  0  0  0  0  0  0  0  0
  191.3330  177.8170  142.2010 C   0  0  0  0  0  2  0  0  0  0  0  0
  191.6410  177.3160  140.8180 C   0  0  0  0  0  3  0  0  0  0  0  0
  189.0140  178.3440  141.4700 C   0  0  0  0  0  2  0  0  0  0  0  0
  189.3320  177.8770  140.0410 C   0  0  1  0  0  3  0  0  0  0  0  0
  189.6040  178.3680  143.8680 C   0  0  0  0  0  1  0  0  0  0  0  0
  188.6930  176.1640  138.2300 C   0  0  0  0  0  2  0  0  0  0  0  0
  191.1170  176.8170  138.4840 C   0  0  0  0  0  2  0  0  0  0  0  0
  189.9380  176.7250  137.4880 C   0  0  1  0  0  0  0  0  0  0  0  0
  189.2790  175.7290  135.1810 C   0  0  0  0  0  2  0  0  0  0  0  0
  192.0300  174.1350  137.3140 C   0  0  0  0  0  2  0  0  0  0  0  0
  194.3080  175.1210  136.9660 C   0  0  0  0  0  2  0  0  0  0  0  0
  189.5250  173.5650  137.2670 C   0  0  0  0  0  2  0  0  0  0  0  0
  186.9820  174.8590  134.7250 C   0  0  0  0  0  3  0  0  0  0  0  0
  186.0760  172.9160  135.8490 C   0  0  0  0  0  3  0  0  0  0  0  0
  193.9580  176.2040  134.9360 N   0  0  0  0  0  2  0  0  0  0  0  0
  185.9410  173.9470  134.9170 C   0  0  0  0  0  3  0  0  0  0  0  0
  188.3070  173.6910  136.3970 C   0  0  0  0  0  0  0  0  0  0  0  0
  188.1620  174.7500  135.4670 C   0  0  0  0  0  0  0  0  0  0  0  0
  187.2530  172.7920  136.5910 C   0  0  0  0  0  3  0  0  0  0  0  0
  193.1310  174.4640  136.3030 C   0  0  2  0  0  3  0  0  0  0  0  0
  194.7040  176.2530  136.1340 N   0  0  0  0  0  2  0  0  0  0  0  0
  191.6290  176.4280  135.6180 C   0  0  0  0  0  2  0  0  0  0  0  0
  192.7480  175.4500  135.2120 C   0  0  1  0  0  3  0  0  0  0  0  0
  190.6820  174.3270  136.6470 C   0  0  1  0  0  3  0  0  0  0  0  0
  190.3700  175.7990  136.2680 C   0  0  1  0  0  0  0  0  0  0  0  0
  189.4670  176.2040  142.7210 C   0  0  0  0  0  0  0  0  0  0  0  0
  188.2600  175.8840  142.9010 O   0  0  0  0  0  1  0  0  0  0  0  0
  190.4420  175.2130  142.7560 O   0  0  0  0  0  0  0  0  0  0  0  0
  189.6460  178.1750  137.0190 C   0  0  0  0  0  2  0  0  0  0  0  0
  187.7720  179.6280  136.8440 F   0  0  0  0  0  0  0  0  0  0  0  0
  188.2540  178.3970  136.4410 C   0  0  0  0  0  2  0  0  0  0  0  0
  1  7  1  0  0  0  0
  1  5  2  0  0  0  0
  3 29  1  0  0  0  0
  3  8  1  1  0  0  0
  4  3  1  0  0  0  0
  5  4  1  0  0  0  0
  6  3  1  0  0  0  0
  7  2  1  1  0  0  0
  7  6  1  0  0  0  0
  9  2  1  0  0  0  0
 10  1  1  0  0  0  0
 11 32  1  6  0  0  0
 11  9  1  0  0  0  0
 11 10  1  0  0  0  0
 12 21  1  0  0  0  0
 16 19  2  0  0  0  0
 16 21  1  0  0  0  0
 17 22  2  0  0  0  0
 18 26  1  0  0  0  0
 18 24  1  0  0  0  0
 19 17  1  0  0  0  0
 20 22  1  0  0  0  0
 20 15  1  0  0  0  0
 21 20  2  0  0  0  0
 23 14  1  1  0  0  0
 23 13  1  0  0  0  0
 24 14  1  0  0  0  0
 25 28  1  0  0  0  0
 26 25  1  1  0  0  0
 26 23  1  0  0  0  0
 27 15  1  1  0  0  0
 27 13  1  0  0  0  0
 28 12  1  6  0  0  0
 28 27  1  0  0  0  0
 28 11  1  0  0  0  0
 29 31  2  0  0  0  0
 29 30  1  0  0  0  0
 34 33  1  0  0  0  0
 34 32  1  0  0  0  0
M  END
>  <MODEL>
2

>  <REMARK>
 VINA RESULT:      -6.2      1.032      1.292
  Name = 
  4 active torsions:
  status: ('A' for Active; 'I' for Inactive)
    1  A    between atoms: C_7  and  C_11
    2  A    between atoms: C_9  and  C_18
    3  A    between atoms: C_9  and  C_33
    4  A    between atoms: C_33  and  C_34
                            x       y       z     vdW  Elec       q    Type
                         _______ _______ _______ _____ _____    ______ ____

>  <TORSDO>
F 4

$$$$
=
 OpenBabel10272415163D

 34 39  0  0  1  0  0  0  0  0999 V2000
  190.1620  176.9300  140.1000 C   0  0  0  0  0  0  0  0  0  0  0  0
  187.8430  177.7810  139.7300 C   0  0  0  0  0  2  0  0  0  0  0  0
  189.5130  177.8500  142.7560 C   0  0  2  0  0  0  0  0  0  0  0  0
  190.8480  177.1520  142.4800 C   0  0  0  0  0  2  0  0  0  0  0  0
  190.8570  176.4620  141.1450 C   0  0  0  0  0  3  0  0  0  0  0  0
  189.2110  178.8020  141.5910 C   0  0  0  0  0  2  0  0  0  0  0  0
  189.2490  178.1310  140.2090 C   0  0  1  0  0  3  0  0  0  0  0  0
  189.6720  178.6810  144.0140 C   0  0  0  0  0  1  0  0  0  0  0  0
  187.8100  176.9140  138.4560 C   0  0  0  0  0  2  0  0  0  0  0  0
  190.1890  176.1560  138.8130 C   0  0  0  0  0  2  0  0  0  0  0  0
  189.1720  176.6470  137.7580 C   0  0  1  0  0  0  0  0  0  0  0  0
  190.0160  174.3680  136.8430 C   0  0  0  0  0  2  0  0  0  0  0  0
  188.2130  176.8700  134.5730 C   0  0  0  0  0  2  0  0  0  0  0  0
  185.7150  176.6710  134.5980 C   0  0  0  0  0  2  0  0  0  0  0  0
  190.7390  176.6230  134.9750 C   0  0  0  0  0  2  0  0  0  0  0  0
  192.4390  173.7570  136.8470 C   0  0  0  0  0  3  0  0  0  0  0  0
  194.0820  174.9300  135.5110 C   0  0  0  0  0  3  0  0  0  0  0  0
  185.5020  174.5430  135.5130 N   0  0  0  0  0  2  0  0  0  0  0  0
  193.7580  173.9150  136.4140 C   0  0  0  0  0  3  0  0  0  0  0  0
  191.7620  175.6320  135.4530 C   0  0  0  0  0  0  0  0  0  0  0  0
  191.4360  174.6160  136.3860 C   0  0  0  0  0  0  0  0  0  0  0  0
  193.0880  175.7890  135.0370 C   0  0  0  0  0  3  0  0  0  0  0  0
  187.0090  175.9480  134.3610 C   0  0  2  0  0  3  0  0  0  0  0  0
  184.8680  175.8000  135.4070 N   0  0  0  0  0  2  0  0  0  0  0  0
  187.6080  174.9770  136.6590 C   0  0  0  0  0  2  0  0  0  0  0  0
  186.9220  174.7550  135.2970 C   0  0  1  0  0  3  0  0  0  0  0  0
  189.3440  176.0630  135.1820 C   0  0  1  0  0  3  0  0  0  0  0  0
  189.0490  175.5470  136.6160 C   0  0  1  0  0  0  0  0  0  0  0  0
  188.3930  176.8630  142.9770 C   0  0  0  0  0  0  0  0  0  0  0  0
  188.6370  175.6270  143.0210 O   0  0  0  0  0  0  0  0  0  0  0  0
  187.0740  177.2960  143.0560 O   0  0  0  0  0  1  0  0  0  0  0  0
  189.7310  177.9810  137.1980 C   0  0  0  0  0  2  0  0  0  0  0  0
  189.1040  180.2440  137.5740 F   0  0  0  0  0  0  0  0  0  0  0  0
  188.6910  179.0710  136.9710 C   0  0  0  0  0  2  0  0  0  0  0  0
  1  7  1  0  0  0  0
  1  5  2  0  0  0  0
  3 29  1  0  0  0  0
  3  8  1  1  0  0  0
  4  3  1  0  0  0  0
  5  4  1  0  0  0  0
  6  3  1  0  0  0  0
  7  2  1  1  0  0  0
  7  6  1  0  0  0  0
  9  2  1  0  0  0  0
 10  1  1  0  0  0  0
 11 32  1  6  0  0  0
 11  9  1  0  0  0  0
 11 10  1  0  0  0  0
 14 24  1  0  0  0  0
 15 27  1  0  0  0  0
 15 20  1  0  0  0  0
 17 19  2  0  0  0  0
 19 16  1  0  0  0  0
 20 21  1  0  0  0  0
 21 12  1  0  0  0  0
 21 16  2  0  0  0  0
 22 20  2  0  0  0  0
 22 17  1  0  0  0  0
 23 13  1  1  0  0  0
 23 14  1  0  0  0  0
 23 26  1  0  0  0  0
 24 18  1  0  0  0  0
 26 18  1  0  0  0  0
 26 25  1  1  0  0  0
 27 13  1  1  0  0  0
 27 28  1  0  0  0  0
 28 25  1  1  0  0  0
 28 12  1  0  0  0  0
 28 11  1  0  0  0  0
 29 30  2  0  0  0  0
 29 31  1  0  0  0  0
 34 32  1  0  0  0  0
 34 33  1  0  0  0  0
M  END
>  <MODEL>
3

>  <REMARK>
 VINA RESULT:      -5.5      2.255      4.502
  Name = 
  4 active torsions:
  status: ('A' for Active; 'I' for Inactive)
    1  A    between atoms: C_7  and  C_11
    2  A    between atoms: C_9  and  C_18
    3  A    between atoms: C_9  and  C_33
    4  A    between atoms: C_33  and  C_34
                            x       y       z     vdW  Elec       q    Type
                         _______ _______ _______ _____ _____    ______ ____

>  <TORSDO>
F 4

$$$$
=
 OpenBabel10272415163D

 34 39  0  0  1  0  0  0  0  0999 V2000
  187.0520  174.0860  135.0570 C   0  0  0  0  0  0  0  0  0  0  0  0
  188.0950  172.8780  136.9780 C   0  0  0  0  0  2  0  0  0  0  0  0
  184.9410  172.2340  135.7180 C   0  0  2  0  0  0  0  0  0  0  0  0
  184.7420  173.2780  134.6140 C   0  0  0  0  0  2  0  0  0  0  0  0
  185.8030  174.3420  134.6480 C   0  0  0  0  0  3  0  0  0  0  0  0
  186.3610  171.6650  135.5990 C   0  0  0  0  0  2  0  0  0  0  0  0
  187.4660  172.7340  135.5960 C   0  0  1  0  0  3  0  0  0  0  0  0
  183.9590  171.1060  135.4750 C   0  0  0  0  0  1  0  0  0  0  0  0
  189.0570  174.0750  137.1090 C   0  0  0  0  0  2  0  0  0  0  0  0
  188.0400  175.2160  135.1020 C   0  0  0  0  0  2  0  0  0  0  0  0
  189.3690  174.8650  135.8090 C   0  0  1  0  0  0  0  0  0  0  0  0
  191.2940  176.4540  135.0900 C   0  0  0  0  0  2  0  0  0  0  0  0
  189.8600  176.5570  138.6390 C   0  0  0  0  0  2  0  0  0  0  0  0
  187.8590  178.0430  138.9000 C   0  0  0  0  0  2  0  0  0  0  0  0
  191.8650  175.2010  137.7740 C   0  0  0  0  0  2  0  0  0  0  0  0
  193.5180  175.5860  134.3500 C   0  0  0  0  0  3  0  0  0  0  0  0
  195.0170  174.4020  135.8360 C   0  0  0  0  0  3  0  0  0  0  0  0
  188.0720  179.3260  136.9710 N   0  0  0  0  0  2  0  0  0  0  0  0
  194.7340  174.9390  134.5790 C   0  0  0  0  0  3  0  0  0  0  0  0
  192.8680  175.1700  136.6570 C   0  0  0  0  0  0  0  0  0  0  0  0
  192.5720  175.6960  135.3740 C   0  0  0  0  0  0  0  0  0  0  0  0
  194.0840  174.5130  136.8700 C   0  0  0  0  0  3  0  0  0  0  0  0
  189.2950  177.9690  138.4670 C   0  0  2  0  0  3  0  0  0  0  0  0
  187.1330  178.7980  137.8830 N   0  0  0  0  0  2  0  0  0  0  0  0
  189.1610  177.3900  135.9710 C   0  0  0  0  0  2  0  0  0  0  0  0
  189.2590  178.4930  137.0420 C   0  0  1  0  0  3  0  0  0  0  0  0
  190.8290  176.2780  137.5060 C   0  0  1  0  0  3  0  0  0  0  0  0
  190.1610  176.2120  136.1070 C   0  0  1  0  0  0  0  0  0  0  0  0
  184.6790  172.8060  137.0900 C   0  0  0  0  0  0  0  0  0  0  0  0
  185.3510  172.4100  138.0810 O   0  0  0  0  0  1  0  0  0  0  0  0
  183.6460  173.7130  137.2920 O   0  0  0  0  0  0  0  0  0  0  0  0
  190.1580  173.9530  134.8320 C   0  0  0  0  0  2  0  0  0  0  0  0
  191.9980  172.4570  135.0010 F   0  0  0  0  0  0  0  0  0  0  0  0
  190.7080  172.6730  135.4470 C   0  0  0  0  0  2  0  0  0  0  0  0
  1 10  1  0  0  0  0
  1  7  1  0  0  0  0
  2  9  1  0  0  0  0
  3  8  1  6  0  0  0
  3 29  1  0  0  0  0
  4  5  1  0  0  0  0
  4  3  1  0  0  0  0
  5  1  2  0  0  0  0
  6  3  1  0  0  0  0
  7  6  1  1  0  0  0
  7  2  1  0  0  0  0
 10 11  1  0  0  0  0
 11 32  1  6  0  0  0
 11 28  1  0  0  0  0
 11  9  1  0  0  0  0
 12 21  1  0  0  0  0
 16 19  2  0  0  0  0
 16 21  1  0  0  0  0
 17 22  2  0  0  0  0
 18 26  1  0  0  0  0
 18 24  1  0  0  0  0
 19 17  1  0  0  0  0
 20 22  1  0  0  0  0
 20 15  1  0  0  0  0
 21 20  2  0  0  0  0
 23 13  1  6  0  0  0
 23 14  1  0  0  0  0
 24 14  1  0  0  0  0
 25 28  1  0  0  0  0
 26 25  1  6  0  0  0
 26 23  1  0  0  0  0
 27 15  1  1  0  0  0
 27 13  1  0  0  0  0
 28 12  1  6  0  0  0
 28 27  1  0  0  0  0
 29 31  2  0  0  0  0
 29 30  1  0  0  0  0
 32 34  1  0  0  0  0
 33 34  1  0  0  0  0
M  END
>  <MODEL>
4

>  <REMARK>
 VINA RESULT:      -5.2      3.548      7.088
  Name = 
  4 active torsions:
  status: ('A' for Active; 'I' for Inactive)
    1  A    between atoms: C_7  and  C_11
    2  A    between atoms: C_9  and  C_18
    3  A    between atoms: C_9  and  C_33
    4  A    between atoms: C_33  and  C_34
                            x       y       z     vdW  Elec       q    Type
                         _______ _______ _______ _____ _____    ______ ____

>  <TORSDO>
F 4

$$$$
=
 OpenBabel10272415163D

 34 39  0  0  1  0  0  0  0  0999 V2000
  188.8330  177.2510  139.2950 C   0  0  0  0  0  0  0  0  0  0  0  0
  186.5620  178.1200  139.8660 C   0  0  0  0  0  2  0  0  0  0  0  0
  189.2020  177.8820  142.0850 C   0  0  2  0  0  0  0  0  0  0  0  0
  190.3290  177.2260  141.2810 C   0  0  0  0  0  2  0  0  0  0  0  0
  189.8400  176.6810  139.9690 C   0  0  0  0  0  3  0  0  0  0  0  0
  188.5350  178.9490  141.2070 C   0  0  0  0  0  2  0  0  0  0  0  0
  188.0570  178.4280  139.8430 C   0  0  1  0  0  3  0  0  0  0  0  0
  189.8250  178.5760  143.2800 C   0  0  0  0  0  1  0  0  0  0  0  0
  186.0510  177.3920  138.6080 C   0  0  0  0  0  2  0  0  0  0  0  0
  188.3760  176.6170  138.0120 C   0  0  0  0  0  2  0  0  0  0  0  0
  187.0660  177.2100  137.4460 C   0  0  1  0  0  0  0  0  0  0  0  0
  185.4770  176.9330  135.4100 C   0  0  0  0  0  2  0  0  0  0  0  0
  186.7650  173.8910  137.3460 C   0  0  0  0  0  2  0  0  0  0  0  0
  188.9820  173.0290  136.5570 C   0  0  0  0  0  2  0  0  0  0  0  0
  184.5910  175.2090  137.7220 C   0  0  0  0  0  2  0  0  0  0  0  0
  183.1670  177.8880  135.3970 C   0  0  0  0  0  3  0  0  0  0  0  0
  181.4280  177.1150  136.8910 C   0  0  0  0  0  3  0  0  0  0  0  0
  189.0730  174.0430  134.4650 N   0  0  0  0  0  2  0  0  0  0  0  0
  181.8490  177.9490  135.8530 C   0  0  0  0  0  3  0  0  0  0  0  0
  183.6420  176.1370  137.0170 C   0  0  0  0  0  0  0  0  0  0  0  0
  184.0760  176.9980  135.9780 C   0  0  0  0  0  0  0  0  0  0  0  0
  182.3230  176.2160  137.4750 C   0  0  0  0  0  3  0  0  0  0  0  0
  187.5730  173.3640  136.1580 C   0  0  2  0  0  3  0  0  0  0  0  0
  189.8680  173.5700  135.5310 N   0  0  0  0  0  2  0  0  0  0  0  0
  187.7040  175.8180  135.4210 C   0  0  0  0  0  2  0  0  0  0  0  0
  187.7560  174.3350  135.0050 C   0  0  1  0  0  3  0  0  0  0  0  0
  185.8080  174.9580  136.8500 C   0  0  1  0  0  3  0  0  0  0  0  0
  186.5100  176.2360  136.3180 C   0  0  1  0  0  0  0  0  0  0  0  0
  188.2040  176.8690  142.5910 C   0  0  0  0  0  0  0  0  0  0  0  0
  187.0080  177.2070  142.8010 O   0  0  0  0  0  0  0  0  0  0  0  0
  188.6080  175.5750  142.9030 O   0  0  0  0  0  1  0  0  0  0  0  0
  187.4300  178.6000  136.8600 C   0  0  0  0  0  2  0  0  0  0  0  0
  189.3570  179.9130  137.3250 F   0  0  0  0  0  0  0  0  0  0  0  0
  188.9160  178.8210  136.6030 C   0  0  0  0  0  2  0  0  0  0  0  0
  1  7  1  0  0  0  0
  1  5  2  0  0  0  0
  3 29  1  0  0  0  0
  3  8  1  1  0  0  0
  4  3  1  0  0  0  0
  5  4  1  0  0  0  0
  6  3  1  0  0  0  0
  7  2  1  1  0  0  0
  7  6  1  0  0  0  0
  9  2  1  0  0  0  0
 10  1  1  0  0  0  0
 11 32  1  6  0  0  0
 11 10  1  0  0  0  0
 11  9  1  0  0  0  0
 12 21  1  0  0  0  0
 16 19  2  0  0  0  0
 16 21  1  0  0  0  0
 17 22  2  0  0  0  0
 18 26  1  0  0  0  0
 18 24  1  0  0  0  0
 19 17  1  0  0  0  0
 20 22  1  0  0  0  0
 20 15  1  0  0  0  0
 21 20  2  0  0  0  0
 23 14  1  1  0  0  0
 23 13  1  0  0  0  0
 24 14  1  0  0  0  0
 25 28  1  0  0  0  0
 26 25  1  1  0  0  0
 26 23  1  0  0  0  0
 27 13  1  1  0  0  0
 27 15  1  0  0  0  0
 28 12  1  6  0  0  0
 28 27  1  0  0  0  0
 28 11  1  0  0  0  0
 29 30  2  0  0  0  0
 29 31  1  0  0  0  0
 34 32  1  0  0  0  0
 34 33  1  0  0  0  0
M  END
>  <MODEL>
5

>  <REMARK>
 VINA RESULT:      -4.9      2.152      3.126
  Name = 
  4 active torsions:
  status: ('A' for Active; 'I' for Inactive)
    1  A    between atoms: C_7  and  C_11
    2  A    between atoms: C_9  and  C_18
    3  A    between atoms: C_9  and  C_33
    4  A    between atoms: C_33  and  C_34
                            x       y       z     vdW  Elec       q    Type
                         _______ _______ _______ _____ _____    ______ ____

>  <TORSDO>
F 4

$$$$
=
 OpenBabel10272415163D

 34 39  0  0  1  0  0  0  0  0999 V2000
  183.6980  176.3950  138.0910 C   0  0  0  0  0  0  0  0  0  0  0  0
  182.9790  177.2260  135.8480 C   0  0  0  0  0  2  0  0  0  0  0  0
  181.6260  178.2480  138.8610 C   0  0  2  0  0  0  0  0  0  0  0  0
  182.3430  177.4010  139.9170 C   0  0  0  0  0  2  0  0  0  0  0  0
  183.1330  176.2820  139.3000 C   0  0  0  0  0  3  0  0  0  0  0  0
  182.6650  178.7410  137.8440 C   0  0  0  0  0  2  0  0  0  0  0  0
  183.5130  177.6190  137.2220 C   0  0  1  0  0  3  0  0  0  0  0  0
  181.0360  179.4590  139.5560 C   0  0  0  0  0  1  0  0  0  0  0  0
  183.6390  175.9660  135.2550 C   0  0  0  0  0  2  0  0  0  0  0  0
  184.4340  175.2130  137.5270 C   0  0  0  0  0  2  0  0  0  0  0  0
  184.8370  175.3690  136.0430 C   0  0  1  0  0  0  0  0  0  0  0  0
  184.2340  173.3780  134.4880 C   0  0  0  0  0  2  0  0  0  0  0  0
  186.7600  172.9720  137.3360 C   0  0  0  0  0  2  0  0  0  0  0  0
  189.1130  173.5810  136.7240 C   0  0  0  0  0  2  0  0  0  0  0  0
  184.2280  172.5340  137.3840 C   0  0  0  0  0  2  0  0  0  0  0  0
  181.9100  172.4680  134.3460 C   0  0  0  0  0  3  0  0  0  0  0  0
  180.8220  171.3740  136.2100 C   0  0  0  0  0  3  0  0  0  0  0  0
  188.9400  173.5190  134.4040 N   0  0  0  0  0  2  0  0  0  0  0  0
  180.8030  171.8070  134.8830 C   0  0  0  0  0  3  0  0  0  0  0  0
  183.0670  172.2480  136.4740 C   0  0  0  0  0  0  0  0  0  0  0  0
  183.0420  172.7070  135.1330 C   0  0  0  0  0  0  0  0  0  0  0  0
  181.9480  171.5990  137.0040 C   0  0  0  0  0  3  0  0  0  0  0  0
  187.9310  172.7190  136.3840 C   0  0  2  0  0  3  0  0  0  0  0  0
  189.6250  174.1350  135.4740 N   0  0  0  0  0  2  0  0  0  0  0  0
  186.5990  174.1270  134.7030 C   0  0  0  0  0  2  0  0  0  0  0  0
  187.6700  173.0410  134.9220 C   0  0  1  0  0  3  0  0  0  0  0  0
  185.4630  172.8480  136.5600 C   0  0  1  0  0  3  0  0  0  0  0  0
  185.2690  173.9450  135.4790 C   0  0  1  0  0  0  0  0  0  0  0  0
  180.5060  177.4900  138.1930 C   0  0  0  0  0  0  0  0  0  0  0  0
  179.9860  177.9290  137.1320 O   0  0  0  0  0  0  0  0  0  0  0  0
  179.9820  176.3430  138.7790 O   0  0  0  0  0  1  0  0  0  0  0  0
  186.0220  176.3700  136.0130 C   0  0  0  0  0  2  0  0  0  0  0  0
  187.0050  177.7120  137.7130 F   0  0  0  0  0  0  0  0  0  0  0  0
  186.8660  176.4060  137.2810 C   0  0  0  0  0  2  0  0  0  0  0  0
  1  5  2  0  0  0  0
  3  8  1  1  0  0  0
  3  4  1  0  0  0  0
  5  4  1  0  0  0  0
  6  3  1  0  0  0  0
  7  2  1  6  0  0  0
  7  6  1  0  0  0  0
  7  1  1  0  0  0  0
  9  2  1  0  0  0  0
  9 11  1  0  0  0  0
 10  1  1  0  0  0  0
 11 32  1  6  0  0  0
 11 10  1  0  0  0  0
 12 21  1  0  0  0  0
 16 19  2  0  0  0  0
 16 21  1  0  0  0  0
 17 22  2  0  0  0  0
 18 26  1  0  0  0  0
 18 24  1  0  0  0  0
 19 17  1  0  0  0  0
 20 22  1  0  0  0  0
 20 15  1  0  0  0  0
 21 20  2  0  0  0  0
 23 14  1  1  0  0  0
 23 13  1  0  0  0  0
 24 14  1  0  0  0  0
 25 28  1  0  0  0  0
 26 25  1  1  0  0  0
 26 23  1  0  0  0  0
 27 13  1  1  0  0  0
 27 15  1  0  0  0  0
 28 12  1  6  0  0  0
 28 11  1  0  0  0  0
 28 27  1  0  0  0  0
 29 31  1  0  0  0  0
 29  3  1  0  0  0  0
 30 29  2  0  0  0  0
 32 34  1  0  0  0  0
 34 33  1  0  0  0  0
M  END
>  <MODEL>
6

>  <REMARK>
 VINA RESULT:      -4.7      4.576      6.645
  Name = 
  4 active torsions:
  status: ('A' for Active; 'I' for Inactive)
    1  A    between atoms: C_7  and  C_11
    2  A    between atoms: C_9  and  C_18
    3  A    between atoms: C_9  and  C_33
    4  A    between atoms: C_33  and  C_34
                            x       y       z     vdW  Elec       q    Type
                         _______ _______ _______ _____ _____    ______ ____

>  <TORSDO>
F 4

$$$$
=
 OpenBabel10272415163D

 34 39  0  0  1  0  0  0  0  0999 V2000
  187.7900  175.3110  136.9100 C   0  0  0  0  0  0  0  0  0  0  0  0
  187.3170  177.7520  137.1430 C   0  0  0  0  0  2  0  0  0  0  0  0
  190.4500  176.3140  137.3990 C   0  0  2  0  0  0  0  0  0  0  0  0
  190.2000  174.8080  137.2610 C   0  0  0  0  0  2  0  0  0  0  0  0
  188.7380  174.4710  137.3450 C   0  0  0  0  0  3  0  0  0  0  0  0
  189.6070  177.0460  136.3460 C   0  0  0  0  0  2  0  0  0  0  0  0
  188.1120  176.6930  136.3860 C   0  0  1  0  0  3  0  0  0  0  0  0
  191.9120  176.5730  137.0960 C   0  0  0  0  0  1  0  0  0  0  0  0
  185.8500  177.3650  137.4130 C   0  0  0  0  0  2  0  0  0  0  0  0
  186.3500  174.9160  137.0710 C   0  0  0  0  0  2  0  0  0  0  0  0
  185.3450  176.0480  136.7600 C   0  0  1  0  0  0  0  0  0  0  0  0
  183.8940  174.1680  137.8120 C   0  0  0  0  0  2  0  0  0  0  0  0
  182.2850  177.1420  136.0150 C   0  0  0  0  0  2  0  0  0  0  0  0
  181.9030  179.1450  137.4720 C   0  0  0  0  0  2  0  0  0  0  0  0
  182.9340  174.8570  135.0370 C   0  0  0  0  0  2  0  0  0  0  0  0
  184.0420  171.7960  137.0410 C   0  0  0  0  0  3  0  0  0  0  0  0
  183.3740  171.1030  134.8200 C   0  0  0  0  0  3  0  0  0  0  0  0
  182.0760  178.1440  139.5650 N   0  0  0  0  0  2  0  0  0  0  0  0
  183.8640  170.7890  136.0890 C   0  0  0  0  0  3  0  0  0  0  0  0
  183.2180  173.4400  135.4470 C   0  0  0  0  0  0  0  0  0  0  0  0
  183.7360  173.1250  136.7290 C   0  0  0  0  0  0  0  0  0  0  0  0
  183.0570  172.4250  134.4990 C   0  0  0  0  0  3  0  0  0  0  0  0
  181.6340  177.6790  137.2920 C   0  0  2  0  0  3  0  0  0  0  0  0
  182.2780  179.3540  138.8680 N   0  0  0  0  0  2  0  0  0  0  0  0
  183.5780  176.5370  138.5170 C   0  0  0  0  0  2  0  0  0  0  0  0
  182.1340  177.0680  138.5900 C   0  0  1  0  0  3  0  0  0  0  0  0
  182.7630  175.7260  136.2690 C   0  0  1  0  0  3  0  0  0  0  0  0
  183.9120  175.6250  137.3080 C   0  0  1  0  0  0  0  0  0  0  0  0
  190.1580  176.8090  138.7940 C   0  0  0  0  0  0  0  0  0  0  0  0
  189.7820  177.9980  138.9790 O   0  0  0  0  0  0  0  0  0  0  0  0
  190.3740  175.9880  139.8950 O   0  0  0  0  0  1  0  0  0  0  0  0
  185.3330  176.2120  135.2180 C   0  0  0  0  0  2  0  0  0  0  0  0
  186.2960  178.2040  134.3460 F   0  0  0  0  0  0  0  0  0  0  0  0
  185.0950  177.6330  134.7230 C   0  0  0  0  0  2  0  0  0  0  0  0
  1 10  1  0  0  0  0
  1  5  2  0  0  0  0
  2  9  1  0  0  0  0
  3  8  1  6  0  0  0
  3 29  1  0  0  0  0
  4  5  1  0  0  0  0
  4  3  1  0  0  0  0
  6  3  1  0  0  0  0
  7  6  1  1  0  0  0
  7  1  1  0  0  0  0
  7  2  1  0  0  0  0
 11 32  1  6  0  0  0
 11 10  1  0  0  0  0
 11 28  1  0  0  0  0
 11  9  1  0  0  0  0
 13 27  1  0  0  0  0
 14 24  1  0  0  0  0
 15 20  1  0  0  0  0
 17 19  1  0  0  0  0
 19 16  2  0  0  0  0
 20 21  2  0  0  0  0
 21 16  1  0  0  0  0
 21 12  1  0  0  0  0
 22 17  2  0  0  0  0
 22 20  1  0  0  0  0
 23 13  1  6  0  0  0
 23 14  1  0  0  0  0
 23 26  1  0  0  0  0
 24 18  1  0  0  0  0
 26 25  1  6  0  0  0
 26 18  1  0  0  0  0
 27 15  1  6  0  0  0
 27 28  1  0  0  0  0
 28 12  1  1  0  0  0
 28 25  1  0  0  0  0
 29 30  2  0  0  0  0
 29 31  1  0  0  0  0
 33 34  1  0  0  0  0
 34 32  1  0  0  0  0
M  END
>  <MODEL>
7

>  <REMARK>
 VINA RESULT:      -4.6      4.101      6.759
  Name = 
  4 active torsions:
  status: ('A' for Active; 'I' for Inactive)
    1  A    between atoms: C_7  and  C_11
    2  A    between atoms: C_9  and  C_18
    3  A    between atoms: C_9  and  C_33
    4  A    between atoms: C_33  and  C_34
                            x       y       z     vdW  Elec       q    Type
                         _______ _______ _______ _____ _____    ______ ____

>  <TORSDO>
F 4

$$$$
=
 OpenBabel10272415163D

 34 39  0  0  1  0  0  0  0  0999 V2000
  183.7850  176.7090  138.0920 C   0  0  0  0  0  0  0  0  0  0  0  0
  182.9870  177.4070  135.8310 C   0  0  0  0  0  2  0  0  0  0  0  0
  181.3210  178.0320  138.7950 C   0  0  2  0  0  0  0  0  0  0  0  0
  182.1670  177.3440  139.8700 C   0  0  0  0  0  2  0  0  0  0  0  0
  183.2130  176.4440  139.2730 C   0  0  0  0  0  3  0  0  0  0  0  0
  182.2620  178.7680  137.8310 C   0  0  0  0  0  2  0  0  0  0  0  0
  183.3630  177.8790  137.2320 C   0  0  1  0  0  3  0  0  0  0  0  0
  180.4470  179.0640  139.4790 C   0  0  0  0  0  1  0  0  0  0  0  0
  183.9360  176.3410  135.2510 C   0  0  0  0  0  2  0  0  0  0  0  0
  184.7890  175.7350  137.5460 C   0  0  0  0  0  2  0  0  0  0  0  0
  185.2060  176.0100  136.0830 C   0  0  1  0  0  0  0  0  0  0  0  0
  185.0960  173.9220  134.5410 C   0  0  0  0  0  2  0  0  0  0  0  0
  187.6690  174.1660  137.3650 C   0  0  0  0  0  2  0  0  0  0  0  0
  189.7950  175.3300  136.7270 C   0  0  0  0  0  2  0  0  0  0  0  0
  185.3230  173.1210  137.4400 C   0  0  0  0  0  2  0  0  0  0  0  0
  183.0650  172.4700  134.4250 C   0  0  0  0  0  3  0  0  0  0  0  0
  182.2950  171.1530  136.3040 C   0  0  0  0  0  3  0  0  0  0  0  0
  189.6230  175.2140  134.4100 N   0  0  0  0  0  2  0  0  0  0  0  0
  182.1590  171.5610  134.9750 C   0  0  0  0  0  3  0  0  0  0  0  0
  184.2600  172.5530  136.5430 C   0  0  0  0  0  0  0  0  0  0  0  0
  184.1100  172.9840  135.2000 C   0  0  0  0  0  0  0  0  0  0  0  0
  183.3390  171.6530  137.0860 C   0  0  0  0  0  3  0  0  0  0  0  0
  188.8580  174.2020  136.4020 C   0  0  2  0  0  3  0  0  0  0  0  0
  190.1450  175.9850  135.4700 N   0  0  0  0  0  2  0  0  0  0  0  0
  187.2070  175.2300  134.7290 C   0  0  0  0  0  2  0  0  0  0  0  0
  188.5130  174.4420  134.9420 C   0  0  1  0  0  3  0  0  0  0  0  0
  186.4360  173.7230  136.6020 C   0  0  1  0  0  3  0  0  0  0  0  0
  185.9690  174.7330  135.5190 C   0  0  1  0  0  0  0  0  0  0  0  0
  180.4270  177.0570  138.0690 C   0  0  0  0  0  0  0  0  0  0  0  0
  179.9890  177.3320  136.9190 O   0  0  0  0  0  0  0  0  0  0  0  0
  180.0130  175.8830  138.6880 O   0  0  0  0  0  1  0  0  0  0  0  0
  186.1350  177.2520  136.1180 C   0  0  0  0  0  2  0  0  0  0  0  0
  186.5370  178.4420  138.1360 F   0  0  0  0  0  0  0  0  0  0  0  0
  186.9890  177.3820  137.3730 C   0  0  0  0  0  2  0  0  0  0  0  0
  1  5  2  0  0  0  0
  3  8  1  1  0  0  0
  3  4  1  0  0  0  0
  5  4  1  0  0  0  0
  6  3  1  0  0  0  0
  7  2  1  6  0  0  0
  7  6  1  0  0  0  0
  7  1  1  0  0  0  0
  9  2  1  0  0  0  0
  9 11  1  0  0  0  0
 10  1  1  0  0  0  0
 11 32  1  6  0  0  0
 11 10  1  0  0  0  0
 12 21  1  0  0  0  0
 16 19  2  0  0  0  0
 16 21  1  0  0  0  0
 17 22  2  0  0  0  0
 18 26  1  0  0  0  0
 18 24  1  0  0  0  0
 19 17  1  0  0  0  0
 20 22  1  0  0  0  0
 20 15  1  0  0  0  0
 21 20  2  0  0  0  0
 23 14  1  1  0  0  0
 23 13  1  0  0  0  0
 24 14  1  0  0  0  0
 25 28  1  0  0  0  0
 26 25  1  1  0  0  0
 26 23  1  0  0  0  0
 27 13  1  1  0  0  0
 27 15  1  0  0  0  0
 28 12  1  6  0  0  0
 28 11  1  0  0  0  0
 28 27  1  0  0  0  0
 29 31  1  0  0  0  0
 29  3  1  0  0  0  0
 30 29  2  0  0  0  0
 32 34  1  0  0  0  0
 34 33  1  0  0  0  0
M  END
>  <MODEL>
8

>  <REMARK>
 VINA RESULT:      -4.6      4.184      6.314
  Name = 
  4 active torsions:
  status: ('A' for Active; 'I' for Inactive)
    1  A    between atoms: C_7  and  C_11
    2  A    between atoms: C_9  and  C_18
    3  A    between atoms: C_9  and  C_33
    4  A    between atoms: C_33  and  C_34
                            x       y       z     vdW  Elec       q    Type
                         _______ _______ _______ _____ _____    ______ ____

>  <TORSDO>
F 4

$$$$
=
 OpenBabel10272415163D

 34 39  0  0  1  0  0  0  0  0999 V2000
  189.1140  177.2070  139.6050 C   0  0  0  0  0  0  0  0  0  0  0  0
  186.7640  177.9890  139.9360 C   0  0  0  0  0  2  0  0  0  0  0  0
  189.2080  177.9850  142.3810 C   0  0  2  0  0  0  0  0  0  0  0  0
  190.4290  177.3490  141.7100 C   0  0  0  0  0  2  0  0  0  0  0  0
  190.0830  176.7200  140.3900 C   0  0  0  0  0  3  0  0  0  0  0  0
  188.5720  178.9760  141.3970 C   0  0  0  0  0  2  0  0  0  0  0  0
  188.2390  178.3680  140.0250 C   0  0  1  0  0  3  0  0  0  0  0  0
  189.6910  178.7640  143.5880 C   0  0  0  0  0  1  0  0  0  0  0  0
  186.3990  177.1780  138.6770 C   0  0  0  0  0  2  0  0  0  0  0  0
  188.8000  176.4930  138.3220 C   0  0  0  0  0  2  0  0  0  0  0  0
  187.5190  176.9930  137.6170 C   0  0  1  0  0  0  0  0  0  0  0  0
  187.9440  174.6480  136.5830 C   0  0  0  0  0  2  0  0  0  0  0  0
  186.1730  177.3990  134.5940 C   0  0  0  0  0  2  0  0  0  0  0  0
  183.6960  177.5040  134.9580 C   0  0  0  0  0  2  0  0  0  0  0  0
  188.6810  176.8390  134.6450 C   0  0  0  0  0  2  0  0  0  0  0  0
  190.2520  173.7490  136.2530 C   0  0  0  0  0  3  0  0  0  0  0  0
  191.8310  174.7420  134.7110 C   0  0  0  0  0  3  0  0  0  0  0  0
  183.3480  175.3980  135.8840 N   0  0  0  0  0  2  0  0  0  0  0  0
  191.5100  173.7550  135.6450 C   0  0  0  0  0  3  0  0  0  0  0  0
  189.6290  175.7220  134.9740 C   0  0  0  0  0  0  0  0  0  0  0  0
  189.3090  174.7320  135.9380 C   0  0  0  0  0  0  0  0  0  0  0  0
  190.8960  175.7250  134.3820 C   0  0  0  0  0  3  0  0  0  0  0  0
  184.8480  176.6350  134.5430 C   0  0  2  0  0  3  0  0  0  0  0  0
  182.8650  176.7240  135.8720 N   0  0  0  0  0  2  0  0  0  0  0  0
  185.6270  175.5490  136.7330 C   0  0  0  0  0  2  0  0  0  0  0  0
  184.7420  175.4410  135.4770 C   0  0  1  0  0  3  0  0  0  0  0  0
  187.2680  176.4480  135.0380 C   0  0  1  0  0  3  0  0  0  0  0  0
  187.1080  175.9410  136.4960 C   0  0  1  0  0  0  0  0  0  0  0  0
  188.2170  176.9480  142.8510 C   0  0  0  0  0  0  0  0  0  0  0  0
  187.0500  177.2900  143.1850 O   0  0  0  0  0  1  0  0  0  0  0  0
  188.5990  175.6190  142.9930 O   0  0  0  0  0  0  0  0  0  0  0  0
  187.8690  178.3700  136.9950 C   0  0  0  0  0  2  0  0  0  0  0  0
  189.4160  180.1210  137.4380 F   0  0  0  0  0  0  0  0  0  0  0  0
  189.3320  178.7790  137.1180 C   0  0  0  0  0  2  0  0  0  0  0  0
  1  7  1  0  0  0  0
  1  5  2  0  0  0  0
  3 29  1  0  0  0  0
  3  8  1  1  0  0  0
  4  3  1  0  0  0  0
  5  4  1  0  0  0  0
  6  3  1  0  0  0  0
  7  2  1  1  0  0  0
  7  6  1  0  0  0  0
  9  2  1  0  0  0  0
 10  1  1  0  0  0  0
 11 32  1  6  0  0  0
 11 10  1  0  0  0  0
 11  9  1  0  0  0  0
 14 24  1  0  0  0  0
 15 20  1  0  0  0  0
 15 27  1  0  0  0  0
 17 19  1  0  0  0  0
 19 16  2  0  0  0  0
 20 21  2  0  0  0  0
 21 16  1  0  0  0  0
 21 12  1  0  0  0  0
 22 17  2  0  0  0  0
 22 20  1  0  0  0  0
 23 13  1  1  0  0  0
 23 14  1  0  0  0  0
 23 26  1  0  0  0  0
 24 18  1  0  0  0  0
 26 18  1  0  0  0  0
 26 25  1  1  0  0  0
 27 13  1  1  0  0  0
 27 28  1  0  0  0  0
 28 12  1  1  0  0  0
 28 25  1  0  0  0  0
 28 11  1  0  0  0  0
 29 31  2  0  0  0  0
 29 30  1  0  0  0  0
 32 34  1  0  0  0  0
 34 33  1  0  0  0  0
M  END
>  <MODEL>
9

>  <REMARK>
 VINA RESULT:      -4.3      2.782      4.761
  Name = 
  4 active torsions:
  status: ('A' for Active; 'I' for Inactive)
    1  A    between atoms: C_7  and  C_11
    2  A    between atoms: C_9  and  C_18
    3  A    between atoms: C_9  and  C_33
    4  A    between atoms: C_33  and  C_34
                            x       y       z     vdW  Elec       q    Type
                         _______ _______ _______ _____ _____    ______ ____

>  <TORSDO>
F 4

$$$$
