=
 OpenBabel10272414523D

 37 41  0  0  1  0  0  0  0  0999 V2000
  192.0950  175.6690  147.4180 C   0  0  0  0  0  3  0  0  0  0  0  0
  188.2230  178.2630  145.7300 C   0  0  2  0  0  3  0  0  0  0  0  0
  186.9150  177.3910  141.1960 S   0  0  0  0  0  0  0  0  0  0  0  0
  190.1330  177.3680  147.2980 C   0  0  0  0  0  0  0  0  0  0  0  0
  187.9290  178.1570  144.2810 N   0  0  2  0  0  0  0  0  0  0  0  0
  189.5100  177.5500  145.9590 C   0  0  0  0  0  0  0  0  0  0  0  0
  186.8750  177.1870  143.9800 C   0  0  0  0  0  2  0  0  0  0  0  0
  189.6620  178.1420  148.4860 C   0  0  0  0  0  2  0  0  0  0  0  0
  190.0350  177.2080  144.7840 C   0  0  0  0  0  0  0  0  0  0  0  0
  191.4200  175.1280  145.0100 C   0  0  0  0  0  2  0  0  0  0  0  0
  187.2090  178.4290  148.0350 C   0  0  0  0  0  2  0  0  0  0  0  0
  188.2550  177.7300  148.8910 C   0  0  0  0  0  2  0  0  0  0  0  0
  191.3830  176.5810  144.5440 C   0  0  0  0  0  2  0  0  0  0  0  0
  187.8760  178.9520  141.2200 C   0  0  0  0  0  2  0  0  0  0  0  0
  187.0960  177.7880  146.6610 C   0  0  0  0  0  2  0  0  0  0  0  0
  189.1540  177.6350  143.6690 C   0  0  2  0  0  3  0  0  0  0  0  0
  191.1200  176.5330  147.4410 C   0  0  0  0  0  0  0  0  0  0  0  0
  186.0340  177.6270  142.7850 C   0  0  1  0  0  3  0  0  0  0  0  0
  192.4320  174.9300  146.1490 C   0  0  0  0  0  2  0  0  0  0  0  0
  189.3890  178.7440  141.3910 C   0  0  1  0  0  3  0  0  0  0  0  0
  189.8160  178.7450  142.8620 C   0  0  0  0  0  2  0  0  0  0  0  0
  189.9720  177.5700  140.5840 C   0  0  1  0  0  3  0  0  0  0  0  0
  189.3430  176.6150  138.3630 C   0  0  0  0  0  1  0  0  0  0  0  0
  189.8530  177.8440  139.0900 C   0  0  0  0  0  2  0  0  0  0  0  0
  191.4380  177.3470  140.9410 C   0  0  0  0  0  2  0  0  0  0  0  0
  192.2590  177.8850  139.9510 O   0  0  0  0  0  0  0  0  0  0  0  0
  193.2190  176.9010  139.7180 C   0  0  0  0  0  2  0  0  0  0  0  0
  192.7620  175.3770  137.8500 C   0  0  0  0  0  2  0  0  0  0  0  0
  193.2450  176.5440  138.2690 C   0  0  0  0  0  3  0  0  0  0  0  0
  185.4340  179.0250  142.9710 C   0  0  0  0  0  2  0  0  0  0  0  0
  183.7170  178.1790  141.3110 C   0  0  0  0  0  2  0  0  0  0  0  0
  184.0010  179.1430  142.4580 C   0  0  1  0  0  3  0  0  0  0  0  0
  182.9800  178.9750  143.5890 C   0  0  0  0  0  2  0  0  0  0  0  0
  180.2630  178.7740  144.2640 Cl  0  0  0  0  0  0  0  0  0  0  0  0
  181.2870  178.5020  141.8110 C   0  0  0  0  0  3  0  0  0  0  0  0
  181.5650  178.7950  143.0920 C   0  0  0  0  0  0  0  0  0  0  0  0
  182.3410  178.4930  140.7370 C   0  0  0  0  0  2  0  0  0  0  0  0
  1 17  2  0  0  0  0
  2  6  1  0  0  0  0
  2 15  1  1  0  0  0
  3 14  1  0  0  0  0
  3 18  1  0  0  0  0
  4 17  2  0  0  0  0
  4  8  1  0  0  0  0
  5  7  1  1  0  0  0
  5  2  1  0  0  0  0
  6  4  1  0  0  0  0
  8 12  1  0  0  0  0
  9  6  2  0  0  0  0
 10 19  1  0  0  0  0
 11 12  1  0  0  0  0
 13  9  1  0  0  0  0
 13 10  1  0  0  0  0
 14 20  1  0  0  0  0
 15 11  1  0  0  0  0
 16 21  1  1  0  0  0
 16  5  1  0  0  0  0
 16  9  1  0  0  0  0
 18 30  1  1  0  0  0
 18  7  1  0  0  0  0
 19  1  1  0  0  0  0
 20 22  1  1  0  0  0
 20 21  1  0  0  0  0
 22 24  1  6  0  0  0
 22 25  1  0  0  0  0
 23 24  1  0  0  0  0
 26 25  1  0  0  0  0
 27 26  1  0  0  0  0
 28 29  2  0  0  0  0
 29 27  1  0  0  0  0
 31 32  1  0  0  0  0
 32 30  1  1  0  0  0
 32 33  1  0  0  0  0
 35 36  2  0  0  0  0
 36 33  1  0  0  0  0
 36 34  1  0  0  0  0
 37 31  1  0  0  0  0
 37 35  1  0  0  0  0
M  END
>  <MODEL>
1

>  <REMARK>
 VINA RESULT:      -6.8      0.000      0.000
  Name = 
  8 active torsions:
  status: ('A' for Active; 'I' for Inactive)
    1  A    between atoms: O_1  and  C_5
    2  A    between atoms: O_1  and  C_17
    3  A    between atoms: C_5  and  C_23
    4  A    between atoms: C_6  and  C_37
    5  A    between atoms: C_17  and  C_26
    6  A    between atoms: C_26  and  C_33
    7  A    between atoms: C_26  and  C_34
    8  A    between atoms: C_31  and  C_37
                            x       y       z     vdW  Elec       q    Type
                         _______ _______ _______ _____ _____    ______ ____

>  <TORSDO>
F 8

$$$$
=
 OpenBabel10272414523D

 37 41  0  0  1  0  0  0  0  0999 V2000
  185.6310  177.2050  135.9360 C   0  0  0  0  0  3  0  0  0  0  0  0
  188.2810  178.3720  139.9590 C   0  0  2  0  0  3  0  0  0  0  0  0
  186.2570  177.3480  144.1880 S   0  0  0  0  0  0  0  0  0  0  0  0
  187.5340  178.1150  137.4530 C   0  0  0  0  0  0  0  0  0  0  0  0
  187.5960  178.2500  141.2690 N   0  0  2  0  0  0  0  0  0  0  0  0
  187.2470  178.1420  138.9130 C   0  0  0  0  0  0  0  0  0  0  0  0
  187.8920  176.9900  141.9540 C   0  0  0  0  0  2  0  0  0  0  0  0
  188.8340  178.6090  136.9070 C   0  0  0  0  0  2  0  0  0  0  0  0
  186.0500  178.0700  139.4900 C   0  0  0  0  0  0  0  0  0  0  0  0
  184.5170  176.5960  138.1580 C   0  0  0  0  0  2  0  0  0  0  0  0
  190.4630  178.0460  138.7330 C   0  0  0  0  0  2  0  0  0  0  0  0
  189.9870  177.7100  137.3270 C   0  0  0  0  0  2  0  0  0  0  0  0
  184.7160  177.9680  138.7970 C   0  0  0  0  0  2  0  0  0  0  0  0
  186.0480  179.1430  143.8780 C   0  0  0  0  0  2  0  0  0  0  0  0
  189.5230  177.4820  139.7870 C   0  0  0  0  0  2  0  0  0  0  0  0
  186.1640  178.2230  140.9610 C   0  0  2  0  0  3  0  0  0  0  0  0
  186.6320  177.6710  136.6270 C   0  0  0  0  0  0  0  0  0  0  0  0
  187.9330  177.1740  143.4690 C   0  0  1  0  0  3  0  0  0  0  0  0
  184.3930  176.7020  136.6300 C   0  0  0  0  0  2  0  0  0  0  0  0
  184.9700  179.4680  142.8320 C   0  0  1  0  0  3  0  0  0  0  0  0
  185.5370  179.5370  141.4110 C   0  0  0  0  0  2  0  0  0  0  0  0
  183.6910  178.6180  142.9410 C   0  0  1  0  0  3  0  0  0  0  0  0
  181.4660  178.7880  144.0650 C   0  0  0  0  0  1  0  0  0  0  0  0
  182.9660  178.9190  144.2480 C   0  0  0  0  0  2  0  0  0  0  0  0
  182.7560  178.8980  141.7690 C   0  0  0  0  0  2  0  0  0  0  0  0
  182.5060  177.7210  141.0640 O   0  0  0  0  0  0  0  0  0  0  0  0
  181.1870  177.8460  140.6320 C   0  0  0  0  0  2  0  0  0  0  0  0
  181.2030  175.7260  139.3960 C   0  0  0  0  0  2  0  0  0  0  0  0
  180.9750  177.0360  139.3960 C   0  0  0  0  0  3  0  0  0  0  0  0
  188.9210  178.2620  143.9030 C   0  0  0  0  0  2  0  0  0  0  0  0
  188.4860  177.6220  146.3150 C   0  0  0  0  0  2  0  0  0  0  0  0
  189.5340  178.0100  145.2790 C   0  0  1  0  0  3  0  0  0  0  0  0
  190.6620  176.9730  145.2140 C   0  0  0  0  0  2  0  0  0  0  0  0
  192.4970  175.4330  146.6760 Cl  0  0  0  0  0  0  0  0  0  0  0  0
  190.3660  176.6940  147.6810 C   0  0  0  0  0  3  0  0  0  0  0  0
  191.0960  176.4810  146.5740 C   0  0  0  0  0  0  0  0  0  0  0  0
  189.1470  177.5770  147.6870 C   0  0  0  0  0  2  0  0  0  0  0  0
  1 17  2  0  0  0  0
  1 19  1  0  0  0  0
  2 15  1  1  0  0  0
  2  5  1  0  0  0  0
  4  6  1  0  0  0  0
  5  7  1  6  0  0  0
  6  9  2  0  0  0  0
  6  2  1  0  0  0  0
  7 18  1  0  0  0  0
  8 12  1  0  0  0  0
  8  4  1  0  0  0  0
  9 16  1  0  0  0  0
 10 13  1  0  0  0  0
 11 15  1  0  0  0  0
 12 11  1  0  0  0  0
 13  9  1  0  0  0  0
 14  3  1  0  0  0  0
 16  5  1  0  0  0  0
 16 21  1  6  0  0  0
 17  4  2  0  0  0  0
 18 30  1  6  0  0  0
 18  3  1  0  0  0  0
 19 10  1  0  0  0  0
 20 22  1  6  0  0  0
 20 14  1  0  0  0  0
 21 20  1  0  0  0  0
 22 25  1  6  0  0  0
 22 24  1  0  0  0  0
 23 24  1  0  0  0  0
 26 25  1  0  0  0  0
 27 26  1  0  0  0  0
 29 28  2  0  0  0  0
 29 27  1  0  0  0  0
 31 37  1  0  0  0  0
 32 30  1  6  0  0  0
 32 31  1  0  0  0  0
 33 32  1  0  0  0  0
 33 36  1  0  0  0  0
 35 37  1  0  0  0  0
 36 34  1  0  0  0  0
 36 35  2  0  0  0  0
M  END
>  <MODEL>
2

>  <REMARK>
 VINA RESULT:      -6.5      3.411      8.845
  Name = 
  8 active torsions:
  status: ('A' for Active; 'I' for Inactive)
    1  A    between atoms: O_1  and  C_5
    2  A    between atoms: O_1  and  C_17
    3  A    between atoms: C_5  and  C_23
    4  A    between atoms: C_6  and  C_37
    5  A    between atoms: C_17  and  C_26
    6  A    between atoms: C_26  and  C_33
    7  A    between atoms: C_26  and  C_34
    8  A    between atoms: C_31  and  C_37
                            x       y       z     vdW  Elec       q    Type
                         _______ _______ _______ _____ _____    ______ ____

>  <TORSDO>
F 8

$$$$
=
 OpenBabel10272414523D

 37 41  0  0  1  0  0  0  0  0999 V2000
  185.1110  178.7750  145.4170 C   0  0  0  0  0  3  0  0  0  0  0  0
  182.4830  178.4640  141.2270 C   0  0  2  0  0  3  0  0  0  0  0  0
  184.5210  176.0200  137.6350 S   0  0  0  0  0  0  0  0  0  0  0  0
  183.2180  179.1000  143.6680 C   0  0  0  0  0  0  0  0  0  0  0  0
  183.1730  177.8900  140.0460 N   0  0  2  0  0  0  0  0  0  0  0  0
  183.5110  178.6130  142.2930 C   0  0  0  0  0  0  0  0  0  0  0  0
  182.8750  176.4700  139.8440 C   0  0  0  0  0  2  0  0  0  0  0  0
  181.9180  179.7570  143.9990 C   0  0  0  0  0  2  0  0  0  0  0  0
  184.7110  178.3420  141.7840 C   0  0  0  0  0  0  0  0  0  0  0  0
  186.2330  177.4250  143.5550 C   0  0  0  0  0  2  0  0  0  0  0  0
  180.2950  178.5920  142.4780 C   0  0  0  0  0  2  0  0  0  0  0  0
  180.7640  178.7700  143.9150 C   0  0  0  0  0  2  0  0  0  0  0  0
  186.0410  178.4860  142.4750 C   0  0  0  0  0  2  0  0  0  0  0  0
  184.7350  177.8100  137.2970 C   0  0  0  0  0  2  0  0  0  0  0  0
  181.2370  177.6940  141.6930 C   0  0  0  0  0  2  0  0  0  0  0  0
  184.6040  177.9690  140.3520 C   0  0  2  0  0  3  0  0  0  0  0  0
  184.1150  178.9720  144.6020 C   0  0  0  0  0  0  0  0  0  0  0  0
  182.8420  176.1120  138.3610 C   0  0  1  0  0  3  0  0  0  0  0  0
  186.3510  178.0580  144.9500 C   0  0  0  0  0  2  0  0  0  0  0  0
  185.8100  178.4780  138.1700 C   0  0  1  0  0  3  0  0  0  0  0  0
  185.2370  179.0420  139.4740 C   0  0  0  0  0  2  0  0  0  0  0  0
  187.0860  177.6410  138.3710 C   0  0  1  0  0  3  0  0  0  0  0  0
  188.2030  176.0620  136.7900 C   0  0  0  0  0  1  0  0  0  0  0  0
  187.8470  177.5120  137.0570 C   0  0  0  0  0  2  0  0  0  0  0  0
  187.9910  178.2830  139.4180 C   0  0  0  0  0  2  0  0  0  0  0  0
  188.4850  177.3100  140.2860 O   0  0  0  0  0  0  0  0  0  0  0  0
  189.8620  177.3170  140.0740 C   0  0  0  0  0  2  0  0  0  0  0  0
  189.8970  176.7150  142.4520 C   0  0  0  0  0  2  0  0  0  0  0  0
  190.5770  176.9920  141.3430 C   0  0  0  0  0  3  0  0  0  0  0  0
  181.8590  176.9810  137.5690 C   0  0  0  0  0  2  0  0  0  0  0  0
  181.2600  176.3550  135.1870 C   0  0  0  0  0  2  0  0  0  0  0  0
  180.9290  176.1740  136.6640 C   0  0  1  0  0  3  0  0  0  0  0  0
  180.9120  174.6910  137.0520 C   0  0  0  0  0  2  0  0  0  0  0  0
  179.9820  172.1240  136.4010 Cl  0  0  0  0  0  0  0  0  0  0  0  0
  179.9820  174.2440  134.7750 C   0  0  0  0  0  3  0  0  0  0  0  0
  180.2440  173.8140  136.0200 C   0  0  0  0  0  0  0  0  0  0  0  0
  180.1780  175.6770  134.3560 C   0  0  0  0  0  2  0  0  0  0  0  0
  2 15  1  1  0  0  0
  2  6  1  0  0  0  0
  3 18  1  0  0  0  0
  4  8  1  0  0  0  0
  4 17  2  0  0  0  0
  5  7  1  1  0  0  0
  5 16  1  0  0  0  0
  5  2  1  0  0  0  0
  6  4  1  0  0  0  0
  9  6  2  0  0  0  0
  9 13  1  0  0  0  0
 10 19  1  0  0  0  0
 11 12  1  0  0  0  0
 12  8  1  0  0  0  0
 13 10  1  0  0  0  0
 14  3  1  0  0  0  0
 14 20  1  0  0  0  0
 15 11  1  0  0  0  0
 16 21  1  6  0  0  0
 16  9  1  0  0  0  0
 17  1  2  0  0  0  0
 18 30  1  6  0  0  0
 18  7  1  0  0  0  0
 19  1  1  0  0  0  0
 20 22  1  1  0  0  0
 20 21  1  0  0  0  0
 22 24  1  6  0  0  0
 22 25  1  0  0  0  0
 23 24  1  0  0  0  0
 25 26  1  0  0  0  0
 27 26  1  0  0  0  0
 27 29  1  0  0  0  0
 29 28  2  0  0  0  0
 31 32  1  0  0  0  0
 32 33  1  0  0  0  0
 32 30  1  1  0  0  0
 35 36  2  0  0  0  0
 36 34  1  0  0  0  0
 36 33  1  0  0  0  0
 37 35  1  0  0  0  0
 37 31  1  0  0  0  0
M  END
>  <MODEL>
3

>  <REMARK>
 VINA RESULT:      -6.3      3.835      6.626
  Name = 
  8 active torsions:
  status: ('A' for Active; 'I' for Inactive)
    1  A    between atoms: O_1  and  C_5
    2  A    between atoms: O_1  and  C_17
    3  A    between atoms: C_5  and  C_23
    4  A    between atoms: C_6  and  C_37
    5  A    between atoms: C_17  and  C_26
    6  A    between atoms: C_26  and  C_33
    7  A    between atoms: C_26  and  C_34
    8  A    between atoms: C_31  and  C_37
                            x       y       z     vdW  Elec       q    Type
                         _______ _______ _______ _____ _____    ______ ____

>  <TORSDO>
F 8

$$$$
=
 OpenBabel10272414523D

 37 41  0  0  1  0  0  0  0  0999 V2000
  180.4490  180.5270  139.6700 C   0  0  0  0  0  3  0  0  0  0  0  0
  184.3290  178.2070  141.7030 C   0  0  2  0  0  3  0  0  0  0  0  0
  188.5370  178.7800  139.4690 S   0  0  0  0  0  0  0  0  0  0  0  0
  181.8790  179.0400  141.2510 C   0  0  0  0  0  0  0  0  0  0  0  0
  185.5910  178.2060  140.9230 N   0  0  2  0  0  0  0  0  0  0  0  0
  183.2830  178.7990  140.8240 C   0  0  0  0  0  0  0  0  0  0  0  0
  186.5270  179.2490  141.3470 C   0  0  0  0  0  2  0  0  0  0  0  0
  181.3320  178.4360  142.5030 C   0  0  0  0  0  2  0  0  0  0  0  0
  183.7850  178.9710  139.6030 C   0  0  0  0  0  0  0  0  0  0  0  0
  182.6710  180.9050  138.4580 C   0  0  0  0  0  2  0  0  0  0  0  0
  183.3340  178.3670  144.0170 C   0  0  0  0  0  2  0  0  0  0  0  0
  181.9920  179.0300  143.7370 C   0  0  0  0  0  2  0  0  0  0  0  0
  183.0410  179.4270  138.3750 C   0  0  0  0  0  2  0  0  0  0  0  0
  187.8700  177.1350  139.0090 C   0  0  0  0  0  2  0  0  0  0  0  0
  184.4150  178.8840  143.0800 C   0  0  0  0  0  2  0  0  0  0  0  0
  185.2020  178.5360  139.5490 C   0  0  2  0  0  3  0  0  0  0  0  0
  181.0990  179.7770  140.5140 C   0  0  0  0  0  0  0  0  0  0  0  0
  187.9750  178.7890  141.2120 C   0  0  1  0  0  3  0  0  0  0  0  0
  181.1470  181.1030  138.4660 C   0  0  0  0  0  2  0  0  0  0  0  0
  186.7130  177.1980  137.9990 C   0  0  1  0  0  3  0  0  0  0  0  0
  185.3450  177.2910  138.6830 C   0  0  0  0  0  2  0  0  0  0  0  0
  186.9040  178.2220  136.8660 C   0  0  1  0  0  3  0  0  0  0  0  0
  188.7820  177.3850  135.4470 C   0  0  0  0  0  1  0  0  0  0  0  0
  188.3830  178.3700  136.5290 C   0  0  0  0  0  2  0  0  0  0  0  0
  186.1420  177.7910  135.6170 C   0  0  0  0  0  2  0  0  0  0  0  0
  185.7470  176.4590  135.7320 O   0  0  0  0  0  0  0  0  0  0  0  0
  184.6640  176.3380  134.8620 C   0  0  0  0  0  2  0  0  0  0  0  0
  182.6930  176.3060  136.3230 C   0  0  0  0  0  2  0  0  0  0  0  0
  183.4540  176.9740  135.4610 C   0  0  0  0  0  3  0  0  0  0  0  0
  188.2510  177.4860  141.9700 C   0  0  0  0  0  2  0  0  0  0  0  0
  187.4180  177.1740  144.3420 C   0  0  0  0  0  2  0  0  0  0  0  0
  188.5410  177.6970  143.4550 C   0  0  1  0  0  3  0  0  0  0  0  0
  189.8930  177.0960  143.8570 C   0  0  0  0  0  2  0  0  0  0  0  0
  191.6550  176.5310  145.9670 Cl  0  0  0  0  0  0  0  0  0  0  0  0
  189.0740  177.1750  146.2180 C   0  0  0  0  0  3  0  0  0  0  0  0
  190.0900  177.0230  145.3520 C   0  0  0  0  0  0  0  0  0  0  0  0
  187.6960  177.5920  145.7810 C   0  0  0  0  0  2  0  0  0  0  0  0
  1 17  2  0  0  0  0
  2 15  1  1  0  0  0
  3 18  1  0  0  0  0
  4  8  1  0  0  0  0
  5  7  1  1  0  0  0
  5  2  1  0  0  0  0
  6  4  1  0  0  0  0
  6  2  1  0  0  0  0
  8 12  1  0  0  0  0
  9  6  2  0  0  0  0
 10 19  1  0  0  0  0
 12 11  1  0  0  0  0
 13 10  1  0  0  0  0
 13  9  1  0  0  0  0
 14  3  1  0  0  0  0
 15 11  1  0  0  0  0
 16 21  1  6  0  0  0
 16  9  1  0  0  0  0
 16  5  1  0  0  0  0
 17  4  2  0  0  0  0
 18  7  1  0  0  0  0
 18 30  1  6  0  0  0
 19  1  1  0  0  0  0
 20 22  1  6  0  0  0
 20 21  1  0  0  0  0
 20 14  1  0  0  0  0
 22 25  1  6  0  0  0
 23 24  1  0  0  0  0
 24 22  1  0  0  0  0
 25 26  1  0  0  0  0
 27 29  1  0  0  0  0
 27 26  1  0  0  0  0
 29 28  2  0  0  0  0
 31 37  1  0  0  0  0
 32 30  1  6  0  0  0
 32 33  1  0  0  0  0
 32 31  1  0  0  0  0
 33 36  1  0  0  0  0
 36 34  1  0  0  0  0
 36 35  2  0  0  0  0
 37 35  1  0  0  0  0
M  END
>  <MODEL>
4

>  <REMARK>
 VINA RESULT:      -6.2      3.474      8.135
  Name = 
  8 active torsions:
  status: ('A' for Active; 'I' for Inactive)
    1  A    between atoms: O_1  and  C_5
    2  A    between atoms: O_1  and  C_17
    3  A    between atoms: C_5  and  C_23
    4  A    between atoms: C_6  and  C_37
    5  A    between atoms: C_17  and  C_26
    6  A    between atoms: C_26  and  C_33
    7  A    between atoms: C_26  and  C_34
    8  A    between atoms: C_31  and  C_37
                            x       y       z     vdW  Elec       q    Type
                         _______ _______ _______ _____ _____    ______ ____

>  <TORSDO>
F 8

$$$$
=
 OpenBabel10272414523D

 37 41  0  0  1  0  0  0  0  0999 V2000
  188.8280  175.4510  135.4870 C   0  0  0  0  0  3  0  0  0  0  0  0
  190.1300  177.4500  139.8320 C   0  0  2  0  0  3  0  0  0  0  0  0
  186.7860  177.3810  143.2720 S   0  0  0  0  0  0  0  0  0  0  0  0
  190.2080  176.6580  137.3270 C   0  0  0  0  0  0  0  0  0  0  0  0
  189.0540  177.6190  140.8380 N   0  0  2  0  0  0  0  0  0  0  0  0
  189.4720  177.0030  138.5730 C   0  0  0  0  0  0  0  0  0  0  0  0
  189.0180  176.5370  141.8240 C   0  0  0  0  0  2  0  0  0  0  0  0
  191.6480  177.0150  137.1510 C   0  0  0  0  0  2  0  0  0  0  0  0
  188.1510  177.0650  138.7250 C   0  0  0  0  0  0  0  0  0  0  0  0
  187.0180  175.3450  137.2930 C   0  0  0  0  0  2  0  0  0  0  0  0
  192.5580  176.8540  139.4860 C   0  0  0  0  0  2  0  0  0  0  0  0
  192.5330  176.2230  138.1010 C   0  0  0  0  0  2  0  0  0  0  0  0
  187.1060  176.8220  137.6680 C   0  0  0  0  0  2  0  0  0  0  0  0
  186.8250  179.0670  142.5520 C   0  0  0  0  0  2  0  0  0  0  0  0
  191.2890  176.5380  140.2630 C   0  0  0  0  0  2  0  0  0  0  0  0
  187.7990  177.5330  140.0880 C   0  0  2  0  0  3  0  0  0  0  0  0
  189.5870  176.0500  136.3590 C   0  0  0  0  0  0  0  0  0  0  0  0
  188.5850  177.0460  143.1960 C   0  0  1  0  0  3  0  0  0  0  0  0
  187.3970  175.1160  135.8210 C   0  0  0  0  0  2  0  0  0  0  0  0
  186.1670  179.1620  141.1660 C   0  0  1  0  0  3  0  0  0  0  0  0
  187.1630  178.9170  140.0290 C   0  0  0  0  0  2  0  0  0  0  0  0
  184.8600  178.3630  141.0190 C   0  0  1  0  0  3  0  0  0  0  0  0
  182.4550  178.3380  141.6970 C   0  0  0  0  0  1  0  0  0  0  0  0
  183.8490  178.8020  142.0720 C   0  0  0  0  0  2  0  0  0  0  0  0
  184.2600  178.5620  139.6300 C   0  0  0  0  0  2  0  0  0  0  0  0
  184.0130  179.9160  139.4050 O   0  0  0  0  0  0  0  0  0  0  0  0
  182.9860  179.9320  138.4620 C   0  0  0  0  0  2  0  0  0  0  0  0
  181.4820  181.8430  138.1330 C   0  0  0  0  0  2  0  0  0  0  0  0
  181.8940  180.8460  138.9110 C   0  0  0  0  0  3  0  0  0  0  0  0
  189.4630  178.1960  143.7000 C   0  0  0  0  0  2  0  0  0  0  0  0
  188.7160  177.7430  146.0790 C   0  0  0  0  0  2  0  0  0  0  0  0
  189.8940  178.0370  145.1570 C   0  0  1  0  0  3  0  0  0  0  0  0
  190.9940  176.9790  145.3070 C   0  0  0  0  0  2  0  0  0  0  0  0
  192.5950  175.5210  147.0930 Cl  0  0  0  0  0  0  0  0  0  0  0  0
  190.3890  176.8880  147.7310 C   0  0  0  0  0  3  0  0  0  0  0  0
  191.2450  176.5820  146.7420 C   0  0  0  0  0  0  0  0  0  0  0  0
  189.2020  177.7880  147.5230 C   0  0  0  0  0  2  0  0  0  0  0  0
  1 19  1  0  0  0  0
  1 17  2  0  0  0  0
  2 15  1  1  0  0  0
  2  5  1  0  0  0  0
  4  6  1  0  0  0  0
  5  7  1  1  0  0  0
  6  9  2  0  0  0  0
  6  2  1  0  0  0  0
  7 18  1  0  0  0  0
  8  4  1  0  0  0  0
  8 12  1  0  0  0  0
  9 16  1  0  0  0  0
 10 13  1  0  0  0  0
 11 15  1  0  0  0  0
 12 11  1  0  0  0  0
 13  9  1  0  0  0  0
 14  3  1  0  0  0  0
 16 21  1  6  0  0  0
 16  5  1  0  0  0  0
 17  4  2  0  0  0  0
 18  3  1  0  0  0  0
 18 30  1  6  0  0  0
 19 10  1  0  0  0  0
 20 22  1  1  0  0  0
 20 14  1  0  0  0  0
 21 20  1  0  0  0  0
 22 25  1  6  0  0  0
 22 24  1  0  0  0  0
 23 24  1  0  0  0  0
 26 25  1  0  0  0  0
 27 29  1  0  0  0  0
 27 26  1  0  0  0  0
 28 29  2  0  0  0  0
 31 37  1  0  0  0  0
 32 30  1  6  0  0  0
 32 33  1  0  0  0  0
 32 31  1  0  0  0  0
 33 36  1  0  0  0  0
 36 34  1  0  0  0  0
 36 35  2  0  0  0  0
 37 35  1  0  0  0  0
M  END
>  <MODEL>
5

>  <REMARK>
 VINA RESULT:      -6.0      3.175      8.498
  Name = 
  8 active torsions:
  status: ('A' for Active; 'I' for Inactive)
    1  A    between atoms: O_1  and  C_5
    2  A    between atoms: O_1  and  C_17
    3  A    between atoms: C_5  and  C_23
    4  A    between atoms: C_6  and  C_37
    5  A    between atoms: C_17  and  C_26
    6  A    between atoms: C_26  and  C_33
    7  A    between atoms: C_26  and  C_34
    8  A    between atoms: C_31  and  C_37
                            x       y       z     vdW  Elec       q    Type
                         _______ _______ _______ _____ _____    ______ ____

>  <TORSDO>
F 8

$$$$
=
 OpenBabel10272414523D

 37 41  0  0  1  0  0  0  0  0999 V2000
  188.3520  177.2410  145.2610 C   0  0  0  0  0  3  0  0  0  0  0  0
  184.3490  178.8410  142.8150 C   0  0  2  0  0  3  0  0  0  0  0  0
  183.7320  177.0760  138.3950 S   0  0  0  0  0  0  0  0  0  0  0  0
  186.1770  178.5370  144.6780 C   0  0  0  0  0  0  0  0  0  0  0  0
  184.2470  178.4660  141.3840 N   0  0  2  0  0  0  0  0  0  0  0  0
  185.6950  178.4030  143.2770 C   0  0  0  0  0  0  0  0  0  0  0  0
  183.3980  177.2940  141.1580 C   0  0  0  0  0  2  0  0  0  0  0  0
  185.4560  179.3900  145.6700 C   0  0  0  0  0  2  0  0  0  0  0  0
  186.4010  177.9830  142.2290 C   0  0  0  0  0  0  0  0  0  0  0  0
  188.0560  176.2320  142.9280 C   0  0  0  0  0  2  0  0  0  0  0  0
  183.0580  179.1780  144.9580 C   0  0  0  0  0  2  0  0  0  0  0  0
  184.0930  178.8080  146.0110 C   0  0  0  0  0  2  0  0  0  0  0  0
  187.8490  177.5690  142.2210 C   0  0  0  0  0  2  0  0  0  0  0  0
  184.4290  178.7650  138.2400 C   0  0  0  0  0  2  0  0  0  0  0  0
  183.2080  178.3250  143.7070 C   0  0  0  0  0  2  0  0  0  0  0  0
  185.6010  178.0760  140.9830 C   0  0  2  0  0  3  0  0  0  0  0  0
  187.2590  177.9170  145.0490 C   0  0  0  0  0  0  0  0  0  0  0  0
  182.6460  177.3960  139.8350 C   0  0  1  0  0  3  0  0  0  0  0  0
  188.9460  176.3870  144.1710 C   0  0  0  0  0  2  0  0  0  0  0  0
  185.9250  178.8500  138.5810 C   0  0  1  0  0  3  0  0  0  0  0  0
  186.1720  179.1480  140.0630 C   0  0  0  0  0  2  0  0  0  0  0  0
  186.7740  177.6850  138.0400 C   0  0  1  0  0  3  0  0  0  0  0  0
  187.3960  178.8180  135.9010 C   0  0  0  0  0  1  0  0  0  0  0  0
  186.6870  177.6280  136.5190 C   0  0  0  0  0  2  0  0  0  0  0  0
  188.2340  177.8440  138.4560 C   0  0  0  0  0  2  0  0  0  0  0  0
  188.8600  176.5990  138.4880 O   0  0  0  0  0  0  0  0  0  0  0  0
  190.1950  176.8720  138.1920 C   0  0  0  0  0  2  0  0  0  0  0  0
  191.0120  176.9170  140.5060 C   0  0  0  0  0  2  0  0  0  0  0  0
  190.8470  177.5530  139.3490 C   0  0  0  0  0  3  0  0  0  0  0  0
  181.8180  178.6810  139.7270 C   0  0  0  0  0  2  0  0  0  0  0  0
  180.1830  178.3020  137.8280 C   0  0  0  0  0  2  0  0  0  0  0  0
  181.4360  179.0370  138.2910 C   0  0  1  0  0  3  0  0  0  0  0  0
  181.2920  180.5520  138.1060 C   0  0  0  0  0  2  0  0  0  0  0  0
  180.5710  182.6260  136.3570 Cl  0  0  0  0  0  0  0  0  0  0  0  0
  179.9830  180.0390  136.0380 C   0  0  0  0  0  3  0  0  0  0  0  0
  180.6400  180.9320  136.7970 C   0  0  0  0  0  0  0  0  0  0  0  0
  179.9840  178.5650  136.3400 C   0  0  0  0  0  2  0  0  0  0  0  0
  2  6  1  0  0  0  0
  2 15  1  1  0  0  0
  3 18  1  0  0  0  0
  4 17  2  0  0  0  0
  4  8  1  0  0  0  0
  5  7  1  1  0  0  0
  5  2  1  0  0  0  0
  6  4  1  0  0  0  0
  8 12  1  0  0  0  0
  9  6  2  0  0  0  0
 10 19  1  0  0  0  0
 11 12  1  0  0  0  0
 13  9  1  0  0  0  0
 13 10  1  0  0  0  0
 14  3  1  0  0  0  0
 14 20  1  0  0  0  0
 15 11  1  0  0  0  0
 16 21  1  6  0  0  0
 16  5  1  0  0  0  0
 16  9  1  0  0  0  0
 17  1  2  0  0  0  0
 18 30  1  6  0  0  0
 18  7  1  0  0  0  0
 19  1  1  0  0  0  0
 20 22  1  1  0  0  0
 20 21  1  0  0  0  0
 22 24  1  6  0  0  0
 22 25  1  0  0  0  0
 23 24  1  0  0  0  0
 25 26  1  0  0  0  0
 27 26  1  0  0  0  0
 27 29  1  0  0  0  0
 29 28  2  0  0  0  0
 31 32  1  0  0  0  0
 32 30  1  1  0  0  0
 33 32  1  0  0  0  0
 34 36  1  0  0  0  0
 35 37  1  0  0  0  0
 35 36  2  0  0  0  0
 36 33  1  0  0  0  0
 37 31  1  0  0  0  0
M  END
>  <MODEL>
6

>  <REMARK>
 VINA RESULT:      -5.8      3.068      4.822
  Name = 
  8 active torsions:
  status: ('A' for Active; 'I' for Inactive)
    1  A    between atoms: O_1  and  C_5
    2  A    between atoms: O_1  and  C_17
    3  A    between atoms: C_5  and  C_23
    4  A    between atoms: C_6  and  C_37
    5  A    between atoms: C_17  and  C_26
    6  A    between atoms: C_26  and  C_33
    7  A    between atoms: C_26  and  C_34
    8  A    between atoms: C_31  and  C_37
                            x       y       z     vdW  Elec       q    Type
                         _______ _______ _______ _____ _____    ______ ____

>  <TORSDO>
F 8

$$$$
=
 OpenBabel10272414523D

 37 41  0  0  1  0  0  0  0  0999 V2000
  187.9830  178.0380  149.1100 C   0  0  0  0  0  3  0  0  0  0  0  0
  190.0920  176.5400  144.8820 C   0  0  2  0  0  3  0  0  0  0  0  0
  188.7800  178.9030  140.9170 S   0  0  0  0  0  0  0  0  0  0  0  0
  189.4230  176.6900  147.4180 C   0  0  0  0  0  0  0  0  0  0  0  0
  189.5550  177.1180  143.6260 N   0  0  2  0  0  0  0  0  0  0  0  0
  189.1980  176.9990  145.9810 C   0  0  0  0  0  0  0  0  0  0  0  0
  190.3470  178.2460  143.1310 C   0  0  0  0  0  2  0  0  0  0  0  0
  190.4030  175.6460  147.8460 C   0  0  0  0  0  2  0  0  0  0  0  0
  188.1460  177.6230  145.4560 C   0  0  0  0  0  0  0  0  0  0  0  0
  187.2750  179.3640  147.0390 C   0  0  0  0  0  2  0  0  0  0  0  0
  192.1830  175.7890  146.0800 C   0  0  0  0  0  2  0  0  0  0  0  0
  191.8300  176.0700  147.5340 C   0  0  0  0  0  2  0  0  0  0  0  0
  186.9380  178.1380  146.1940 C   0  0  0  0  0  2  0  0  0  0  0  0
  187.8690  177.3120  140.9570 C   0  0  0  0  0  2  0  0  0  0  0  0
  191.5770  176.8300  145.1510 C   0  0  0  0  0  2  0  0  0  0  0  0
  188.2400  177.6610  143.9760 C   0  0  2  0  0  3  0  0  0  0  0  0
  188.7420  177.3240  148.3280 C   0  0  0  0  0  0  0  0  0  0  0  0
  190.3630  178.2910  141.6060 C   0  0  1  0  0  3  0  0  0  0  0  0
  187.0670  179.0880  148.5360 C   0  0  0  0  0  2  0  0  0  0  0  0
  186.7160  177.2860  141.9730 C   0  0  1  0  0  3  0  0  0  0  0  0
  187.1620  176.7850  143.3500 C   0  0  0  0  0  2  0  0  0  0  0  0
  185.8800  178.5770  142.0300 C   0  0  1  0  0  3  0  0  0  0  0  0
  183.8430  178.1120  140.6600 C   0  0  0  0  0  1  0  0  0  0  0  0
  185.1850  178.8180  140.6960 C   0  0  0  0  0  2  0  0  0  0  0  0
  184.8340  178.4930  143.1370 C   0  0  0  0  0  2  0  0  0  0  0  0
  184.6740  179.7390  143.7410 O   0  0  0  0  0  0  0  0  0  0  0  0
  183.6290  179.5590  144.6460 C   0  0  0  0  0  2  0  0  0  0  0  0
  181.4010  179.1610  143.6970 C   0  0  0  0  0  2  0  0  0  0  0  0
  182.5860  178.6710  144.0520 C   0  0  0  0  0  3  0  0  0  0  0  0
  190.8560  176.9800  140.9840 C   0  0  0  0  0  2  0  0  0  0  0  0
  192.6820  176.5600  139.2780 C   0  0  0  0  0  2  0  0  0  0  0  0
  191.2880  177.1250  139.5260 C   0  0  1  0  0  3  0  0  0  0  0  0
  190.2600  176.5090  138.5700 C   0  0  0  0  0  2  0  0  0  0  0  0
  189.6550  175.8530  135.9080 Cl  0  0  0  0  0  0  0  0  0  0  0  0
  192.0760  176.4800  136.8510 C   0  0  0  0  0  3  0  0  0  0  0  0
  190.7720  176.3690  137.1560 C   0  0  0  0  0  0  0  0  0  0  0  0
  193.1070  176.9140  137.8580 C   0  0  0  0  0  2  0  0  0  0  0  0
  2 15  1  1  0  0  0
  2  6  1  0  0  0  0
  3 14  1  0  0  0  0
  3 18  1  0  0  0  0
  4  8  1  0  0  0  0
  4 17  2  0  0  0  0
  5  7  1  1  0  0  0
  5 16  1  0  0  0  0
  5  2  1  0  0  0  0
  6  4  1  0  0  0  0
  9  6  2  0  0  0  0
  9 13  1  0  0  0  0
 10 19  1  0  0  0  0
 11 12  1  0  0  0  0
 12  8  1  0  0  0  0
 13 10  1  0  0  0  0
 14 20  1  0  0  0  0
 15 11  1  0  0  0  0
 16 21  1  6  0  0  0
 16  9  1  0  0  0  0
 17  1  2  0  0  0  0
 18 30  1  6  0  0  0
 18  7  1  0  0  0  0
 19  1  1  0  0  0  0
 20 22  1  1  0  0  0
 20 21  1  0  0  0  0
 22 24  1  6  0  0  0
 22 25  1  0  0  0  0
 23 24  1  0  0  0  0
 25 26  1  0  0  0  0
 26 27  1  0  0  0  0
 28 29  2  0  0  0  0
 29 27  1  0  0  0  0
 31 32  1  0  0  0  0
 32 30  1  1  0  0  0
 33 32  1  0  0  0  0
 34 36  1  0  0  0  0
 35 36  2  0  0  0  0
 35 37  1  0  0  0  0
 36 33  1  0  0  0  0
 37 31  1  0  0  0  0
M  END
>  <MODEL>
7

>  <REMARK>
 VINA RESULT:      -5.7      2.787      7.000
  Name = 
  8 active torsions:
  status: ('A' for Active; 'I' for Inactive)
    1  A    between atoms: O_1  and  C_5
    2  A    between atoms: O_1  and  C_17
    3  A    between atoms: C_5  and  C_23
    4  A    between atoms: C_6  and  C_37
    5  A    between atoms: C_17  and  C_26
    6  A    between atoms: C_26  and  C_33
    7  A    between atoms: C_26  and  C_34
    8  A    between atoms: C_31  and  C_37
                            x       y       z     vdW  Elec       q    Type
                         _______ _______ _______ _____ _____    ______ ____

>  <TORSDO>
F 8

$$$$
=
 OpenBabel10272414523D

 37 41  0  0  1  0  0  0  0  0999 V2000
  183.2160  178.7850  142.3030 C   0  0  0  0  0  3  0  0  0  0  0  0
  187.5970  178.4540  140.0080 C   0  0  2  0  0  3  0  0  0  0  0  0
  191.0620  176.1500  142.3980 S   0  0  0  0  0  0  0  0  0  0  0  0
  185.0980  179.0720  140.5350 C   0  0  0  0  0  0  0  0  0  0  0  0
  188.7300  177.9260  140.8050 N   0  0  2  0  0  0  0  0  0  0  0  0
  186.4540  178.6210  140.9480 C   0  0  0  0  0  0  0  0  0  0  0  0
  188.9760  176.5010  140.5770 C   0  0  0  0  0  2  0  0  0  0  0  0
  184.8550  179.6750  139.1890 C   0  0  0  0  0  2  0  0  0  0  0  0
  186.8750  178.4020  142.1910 C   0  0  0  0  0  0  0  0  0  0  0  0
  185.0080  177.5090  143.6100 C   0  0  0  0  0  2  0  0  0  0  0  0
  186.5120  178.4810  137.7290 C   0  0  0  0  0  2  0  0  0  0  0  0
  185.0410  178.6490  138.0830 C   0  0  0  0  0  2  0  0  0  0  0  0
  186.0830  178.5820  143.4600 C   0  0  0  0  0  2  0  0  0  0  0  0
  191.3550  177.9520  142.5700 C   0  0  0  0  0  2  0  0  0  0  0  0
  187.2370  177.6310  138.7610 C   0  0  0  0  0  2  0  0  0  0  0  0
  188.3170  178.0520  142.2050 C   0  0  2  0  0  3  0  0  0  0  0  0
  184.1010  178.9590  141.3630 C   0  0  0  0  0  0  0  0  0  0  0  0
  190.4620  176.1690  140.6680 C   0  0  1  0  0  3  0  0  0  0  0  0
  183.5990  178.1210  143.6000 C   0  0  0  0  0  2  0  0  0  0  0  0
  190.3940  178.6430  143.5520 C   0  0  1  0  0  3  0  0  0  0  0  0
  189.1280  179.1620  142.8620 C   0  0  0  0  0  2  0  0  0  0  0  0
  190.1090  177.8500  144.8390 C   0  0  1  0  0  3  0  0  0  0  0  0
  191.5690  176.5360  146.3850 C   0  0  0  0  0  1  0  0  0  0  0  0
  191.3160  177.8990  145.7690 C   0  0  0  0  0  2  0  0  0  0  0  0
  188.8910  178.4150  145.5630 C   0  0  0  0  0  2  0  0  0  0  0  0
  188.0350  177.3810  145.9390 O   0  0  0  0  0  0  0  0  0  0  0  0
  187.5440  177.7700  147.1850 C   0  0  0  0  0  2  0  0  0  0  0  0
  185.1900  178.4540  147.0890 C   0  0  0  0  0  2  0  0  0  0  0  0
  186.4730  178.7960  147.0160 C   0  0  0  0  0  3  0  0  0  0  0  0
  191.3130  177.0150  139.7150 C   0  0  0  0  0  2  0  0  0  0  0  0
  190.6330  176.7410  137.2890 C   0  0  0  0  0  2  0  0  0  0  0  0
  191.6070  176.3230  138.3860 C   0  0  1  0  0  3  0  0  0  0  0  0
  193.0610  176.5350  137.9480 C   0  0  0  0  0  2  0  0  0  0  0  0
  194.9670  176.1310  135.9270 Cl  0  0  0  0  0  0  0  0  0  0  0  0
  192.3200  175.8950  135.6470 C   0  0  0  0  0  3  0  0  0  0  0  0
  193.3180  176.1220  136.5180 C   0  0  0  0  0  0  0  0  0  0  0  0
  190.8740  175.8700  136.0620 C   0  0  0  0  0  2  0  0  0  0  0  0
  1 19  1  0  0  0  0
  2 15  1  6  0  0  0
  2  5  1  0  0  0  0
  2  6  1  0  0  0  0
  3 14  1  0  0  0  0
  4  6  1  0  0  0  0
  4 17  2  0  0  0  0
  5  7  1  6  0  0  0
  5 16  1  0  0  0  0
  6  9  2  0  0  0  0
  7 18  1  0  0  0  0
  8  4  1  0  0  0  0
  9 16  1  0  0  0  0
  9 13  1  0  0  0  0
 11 12  1  0  0  0  0
 11 15  1  0  0  0  0
 12  8  1  0  0  0  0
 13 10  1  0  0  0  0
 14 20  1  0  0  0  0
 16 21  1  6  0  0  0
 17  1  2  0  0  0  0
 18 30  1  6  0  0  0
 18  3  1  0  0  0  0
 19 10  1  0  0  0  0
 20 22  1  1  0  0  0
 21 20  1  0  0  0  0
 22 25  1  1  0  0  0
 22 24  1  0  0  0  0
 24 23  1  0  0  0  0
 25 26  1  0  0  0  0
 26 27  1  0  0  0  0
 29 28  2  0  0  0  0
 29 27  1  0  0  0  0
 31 32  1  0  0  0  0
 32 30  1  1  0  0  0
 33 32  1  0  0  0  0
 34 36  1  0  0  0  0
 35 37  1  0  0  0  0
 35 36  2  0  0  0  0
 36 33  1  0  0  0  0
 37 31  1  0  0  0  0
M  END
>  <MODEL>
8

>  <REMARK>
 VINA RESULT:      -5.6      3.588      8.582
  Name = 
  8 active torsions:
  status: ('A' for Active; 'I' for Inactive)
    1  A    between atoms: O_1  and  C_5
    2  A    between atoms: O_1  and  C_17
    3  A    between atoms: C_5  and  C_23
    4  A    between atoms: C_6  and  C_37
    5  A    between atoms: C_17  and  C_26
    6  A    between atoms: C_26  and  C_33
    7  A    between atoms: C_26  and  C_34
    8  A    between atoms: C_31  and  C_37
                            x       y       z     vdW  Elec       q    Type
                         _______ _______ _______ _____ _____    ______ ____

>  <TORSDO>
F 8

$$$$
=
 OpenBabel10272414523D

 37 41  0  0  1  0  0  0  0  0999 V2000
  190.9620  175.8160  137.5380 C   0  0  0  0  0  3  0  0  0  0  0  0
  189.5990  177.9870  141.7800 C   0  0  2  0  0  3  0  0  0  0  0  0
  184.9520  177.6460  142.9260 S   0  0  0  0  0  0  0  0  0  0  0  0
  191.0570  177.1730  139.7510 C   0  0  0  0  0  0  0  0  0  0  0  0
  188.1440  178.0660  142.0520 N   0  0  2  0  0  0  0  0  0  0  0  0
  189.7470  177.4630  140.3940 C   0  0  0  0  0  0  0  0  0  0  0  0
  187.6670  176.9990  142.9340 C   0  0  0  0  0  2  0  0  0  0  0  0
  192.3390  177.6630  140.3420 C   0  0  0  0  0  2  0  0  0  0  0  0
  188.5480  177.4010  139.8200 C   0  0  0  0  0  0  0  0  0  0  0  0
  188.4820  175.5620  138.1140 C   0  0  0  0  0  2  0  0  0  0  0  0
  191.8740  177.6190  142.8090 C   0  0  0  0  0  2  0  0  0  0  0  0
  192.6380  176.9710  141.6630 C   0  0  0  0  0  2  0  0  0  0  0  0
  188.2480  177.0460  138.3870 C   0  0  0  0  0  2  0  0  0  0  0  0
  185.2450  179.3180  142.2330 C   0  0  0  0  0  2  0  0  0  0  0  0
  190.4140  177.1950  142.8140 C   0  0  0  0  0  2  0  0  0  0  0  0
  187.4910  177.8520  140.7580 C   0  0  2  0  0  3  0  0  0  0  0  0
  191.0940  176.4960  138.6400 C   0  0  0  0  0  0  0  0  0  0  0  0
  186.5340  177.4820  143.8340 C   0  0  1  0  0  3  0  0  0  0  0  0
  189.6020  175.3510  137.0840 C   0  0  0  0  0  2  0  0  0  0  0  0
  185.4210  179.3310  140.7060 C   0  0  1  0  0  3  0  0  0  0  0  0
  186.8850  179.1680  140.2860 C   0  0  0  0  0  2  0  0  0  0  0  0
  184.4560  178.4100  139.9390 C   0  0  1  0  0  3  0  0  0  0  0  0
  182.3490  179.3930  139.0230 C   0  0  0  0  0  1  0  0  0  0  0  0
  183.0110  178.7850  140.2450 C   0  0  0  0  0  2  0  0  0  0  0  0
  184.6960  178.5100  138.4360 C   0  0  0  0  0  2  0  0  0  0  0  0
  185.1670  177.2940  137.9440 O   0  0  0  0  0  0  0  0  0  0  0  0
  184.2210  176.9100  136.9940 C   0  0  0  0  0  2  0  0  0  0  0  0
  185.1850  174.7180  136.4610 C   0  0  0  0  0  2  0  0  0  0  0  0
  184.8190  175.9270  136.0440 C   0  0  0  0  0  3  0  0  0  0  0  0
  186.9210  178.7170  144.6540 C   0  0  0  0  0  2  0  0  0  0  0  0
  187.0170  177.5260  146.8890 C   0  0  0  0  0  2  0  0  0  0  0  0
  187.7690  178.3900  145.8820 C   0  0  1  0  0  3  0  0  0  0  0  0
  189.1060  177.7500  145.4900 C   0  0  0  0  0  2  0  0  0  0  0  0
  191.4690  176.5440  146.4080 Cl  0  0  0  0  0  0  0  0  0  0  0  0
  189.2500  176.9260  147.8470 C   0  0  0  0  0  3  0  0  0  0  0  0
  189.8440  177.1490  146.6630 C   0  0  0  0  0  0  0  0  0  0  0  0
  187.8570  177.4060  148.1550 C   0  0  0  0  0  2  0  0  0  0  0  0
  1 17  2  0  0  0  0
  2  5  1  0  0  0  0
  2 15  1  1  0  0  0
  3 18  1  0  0  0  0
  4  8  1  0  0  0  0
  4  6  1  0  0  0  0
  5  7  1  1  0  0  0
  6  2  1  0  0  0  0
  7 18  1  0  0  0  0
  8 12  1  0  0  0  0
  9  6  2  0  0  0  0
  9 16  1  0  0  0  0
 10 13  1  0  0  0  0
 11 15  1  0  0  0  0
 12 11  1  0  0  0  0
 13  9  1  0  0  0  0
 14  3  1  0  0  0  0
 16 21  1  6  0  0  0
 16  5  1  0  0  0  0
 17  4  2  0  0  0  0
 18 30  1  6  0  0  0
 19  1  1  0  0  0  0
 19 10  1  0  0  0  0
 20 22  1  6  0  0  0
 20 14  1  0  0  0  0
 21 20  1  0  0  0  0
 22 25  1  6  0  0  0
 22 24  1  0  0  0  0
 23 24  1  0  0  0  0
 26 25  1  0  0  0  0
 27 26  1  0  0  0  0
 29 28  2  0  0  0  0
 29 27  1  0  0  0  0
 31 37  1  0  0  0  0
 32 30  1  6  0  0  0
 32 31  1  0  0  0  0
 33 32  1  0  0  0  0
 33 36  1  0  0  0  0
 34 36  1  0  0  0  0
 35 37  1  0  0  0  0
 36 35  2  0  0  0  0
M  END
>  <MODEL>
9

>  <REMARK>
 VINA RESULT:      -5.1      3.003      6.950
  Name = 
  8 active torsions:
  status: ('A' for Active; 'I' for Inactive)
    1  A    between atoms: O_1  and  C_5
    2  A    between atoms: O_1  and  C_17
    3  A    between atoms: C_5  and  C_23
    4  A    between atoms: C_6  and  C_37
    5  A    between atoms: C_17  and  C_26
    6  A    between atoms: C_26  and  C_33
    7  A    between atoms: C_26  and  C_34
    8  A    between atoms: C_31  and  C_37
                            x       y       z     vdW  Elec       q    Type
                         _______ _______ _______ _____ _____    ______ ____

>  <TORSDO>
F 8

$$$$
