=
 OpenBabel10272400593D

 27 31  0  0  1  0  0  0  0  0999 V2000
  186.8850  177.1710  144.1620 C   0  0  0  0  0  2  0  0  0  0  0  0
  188.9480  177.1190  142.7630 C   0  0  0  0  0  0  0  0  0  0  0  0
  187.3770  178.7640  141.5060 C   0  0  0  0  0  2  0  0  0  0  0  0
  190.5420  176.1070  139.1630 N   0  0  0  0  0  0  0  0  0  0  0  0
  189.9010  176.8140  137.0080 O   0  0  0  0  0  0  0  0  0  0  0  0
  189.9610  176.2850  142.7530 N   0  0  0  0  0  0  0  0  0  0  0  0
  188.7180  177.7360  138.9310 C   0  0  2  0  0  3  0  0  0  0  0  0
  183.5940  178.8650  141.9970 C   0  0  0  0  0  2  0  0  0  0  0  0
  189.0700  179.2000  138.7260 C   0  0  0  0  0  1  0  0  0  0  0  0
  183.6100  179.0280  143.5070 C   0  0  1  0  0  3  0  0  0  0  0  0
  188.9990  177.3270  140.3380 C   0  0  0  0  0  0  0  0  0  0  0  0
  188.3070  177.4440  144.0070 N   0  0  0  0  0  0  0  0  0  0  0  0
  189.7470  176.8740  138.2560 C   0  0  0  0  0  0  0  0  0  0  0  0
  190.0860  176.3910  140.3330 C   0  0  0  0  0  0  0  0  0  0  0  0
  186.0170  178.2770  143.5720 C   0  0  2  0  0  3  0  0  0  0  0  0
  188.4250  177.6980  141.4890 C   0  0  0  0  0  0  0  0  0  0  0  0
  184.9740  179.1870  141.4450 C   0  0  0  0  0  2  0  0  0  0  0  0
  190.5920  175.8770  141.5590 N   0  0  0  0  0  2  0  0  0  0  0  0
  182.3370  178.7700  144.0160 O   0  0  0  0  0  1  0  0  0  0  0  0
  184.6030  178.0440  144.1070 C   0  0  0  0  0  2  0  0  0  0  0  0
  186.0420  178.2570  142.0280 C   0  0  1  0  0  3  0  0  0  0  0  0
  190.2350  177.2580  147.8260 C   0  0  0  0  0  2  0  0  0  0  0  0
  189.0610  177.8170  145.2020 C   0  0  0  0  0  3  0  0  0  0  0  0
  188.1930  177.7380  146.4590 C   0  0  0  0  0  2  0  0  0  0  0  0
  189.0030  178.1470  147.6860 C   0  0  0  0  0  2  0  0  0  0  0  0
  191.1070  177.3670  146.5800 C   0  0  0  0  0  2  0  0  0  0  0  0
  190.3150  176.9510  145.3430 C   0  0  0  0  0  2  0  0  0  0  0  0
  2 12  1  0  0  0  0
  3 21  1  0  0  0  0
  4 14  2  0  0  0  0
  5 13  2  0  0  0  0
  6  2  2  0  0  0  0
  7  9  1  1  0  0  0
  7 11  1  0  0  0  0
  8 10  1  0  0  0  0
 10 19  1  1  0  0  0
 10 20  1  0  0  0  0
 11 16  2  0  0  0  0
 12  1  1  0  0  0  0
 12 23  1  0  0  0  0
 13  7  1  0  0  0  0
 13  4  1  0  0  0  0
 14 11  1  0  0  0  0
 14 18  1  0  0  0  0
 15 20  1  6  0  0  0
 15  1  1  0  0  0  0
 16  3  1  0  0  0  0
 16  2  1  0  0  0  0
 17  8  1  0  0  0  0
 18  6  1  0  0  0  0
 21 17  1  6  0  0  0
 21 15  1  0  0  0  0
 23 27  1  0  0  0  0
 23 24  1  0  0  0  0
 24 25  1  0  0  0  0
 25 22  1  0  0  0  0
 26 22  1  0  0  0  0
 27 26  1  0  0  0  0
M  END
>  <MODEL>
1

>  <REMARK>
 VINA RESULT:      -9.2      0.000      0.000
  Name = 
  1 active torsions:
  status: ('A' for Active; 'I' for Inactive)
    1  A    between atoms: C_9  and  N_15
                            x       y       z     vdW  Elec       q    Type
                         _______ _______ _______ _____ _____    ______ ____

>  <TORSDO>
F 1

$$$$
=
 OpenBabel10272400593D

 27 31  0  0  1  0  0  0  0  0999 V2000
  185.9880  179.0820  144.9670 C   0  0  0  0  0  2  0  0  0  0  0  0
  186.5730  178.4130  142.6380 C   0  0  0  0  0  0  0  0  0  0  0  0
  188.0920  176.9150  144.1230 C   0  0  0  0  0  2  0  0  0  0  0  0
  189.4830  178.3120  139.8010 N   0  0  0  0  0  0  0  0  0  0  0  0
  191.6250  177.3340  139.9100 O   0  0  0  0  0  0  0  0  0  0  0  0
  186.3290  178.9950  141.4870 N   0  0  0  0  0  0  0  0  0  0  0  0
  190.1400  177.0930  141.8290 C   0  0  2  0  0  3  0  0  0  0  0  0
  188.9460  177.7160  147.7550 C   0  0  0  0  0  2  0  0  0  0  0  0
  190.0310  175.5770  141.8350 C   0  0  0  0  0  1  0  0  0  0  0  0
  187.5180  177.8640  148.2510 C   0  0  1  0  0  3  0  0  0  0  0  0
  188.7830  177.7100  141.8990 C   0  0  0  0  0  0  0  0  0  0  0  0
  185.6030  178.4900  143.6940 N   0  0  0  0  0  0  0  0  0  0  0  0
  190.5120  177.5630  140.4510 C   0  0  0  0  0  0  0  0  0  0  0  0
  188.5210  178.3760  140.6540 C   0  0  0  0  0  0  0  0  0  0  0  0
  186.7070  178.0870  145.8730 C   0  0  2  0  0  3  0  0  0  0  0  0
  187.8700  177.7100  142.8770 C   0  0  0  0  0  0  0  0  0  0  0  0
  188.9370  177.0050  146.4110 C   0  0  0  0  0  2  0  0  0  0  0  0
  187.2680  179.0090  140.4340 N   0  0  0  0  0  2  0  0  0  0  0  0
  187.5210  178.4820  149.5000 O   0  0  0  0  0  1  0  0  0  0  0  0
  186.7320  178.7170  147.2670 C   0  0  0  0  0  2  0  0  0  0  0  0
  188.1350  177.7880  145.3680 C   0  0  1  0  0  3  0  0  0  0  0  0
  181.4320  179.0300  142.8880 C   0  0  0  0  0  2  0  0  0  0  0  0
  184.1840  178.2180  143.4740 C   0  0  0  0  0  3  0  0  0  0  0  0
  183.3130  178.8950  144.5340 C   0  0  0  0  0  2  0  0  0  0  0  0
  181.8400  178.5790  144.2870 C   0  0  0  0  0  2  0  0  0  0  0  0
  182.2870  178.3260  141.8390 C   0  0  0  0  0  2  0  0  0  0  0  0
  183.7630  178.6400  142.0640 C   0  0  0  0  0  2  0  0  0  0  0  0
  2 16  1  0  0  0  0
  2 12  1  0  0  0  0
  4 13  1  0  0  0  0
  4 14  2  0  0  0  0
  5 13  2  0  0  0  0
  6  2  2  0  0  0  0
  7  9  1  6  0  0  0
  7 11  1  0  0  0  0
  8 10  1  0  0  0  0
 10 19  1  1  0  0  0
 11 16  2  0  0  0  0
 12  1  1  0  0  0  0
 13  7  1  0  0  0  0
 14 11  1  0  0  0  0
 15  1  1  6  0  0  0
 15 20  1  0  0  0  0
 16  3  1  0  0  0  0
 17  8  1  0  0  0  0
 18 14  1  0  0  0  0
 18  6  1  0  0  0  0
 20 10  1  0  0  0  0
 21  3  1  6  0  0  0
 21 15  1  0  0  0  0
 21 17  1  0  0  0  0
 22 25  1  0  0  0  0
 23 12  1  0  0  0  0
 23 24  1  0  0  0  0
 25 24  1  0  0  0  0
 26 27  1  0  0  0  0
 26 22  1  0  0  0  0
 27 23  1  0  0  0  0
M  END
>  <MODEL>
2

>  <REMARK>
 VINA RESULT:      -8.4      2.367      5.335
  Name = 
  1 active torsions:
  status: ('A' for Active; 'I' for Inactive)
    1  A    between atoms: C_9  and  N_15
                            x       y       z     vdW  Elec       q    Type
                         _______ _______ _______ _____ _____    ______ ____

>  <TORSDO>
F 1

$$$$
=
 OpenBabel10272400593D

 27 31  0  0  1  0  0  0  0  0999 V2000
  191.2630  177.6050  139.2610 C   0  0  0  0  0  2  0  0  0  0  0  0
  188.7710  177.5330  139.3040 C   0  0  0  0  0  0  0  0  0  0  0  0
  189.4370  175.4340  137.9230 C   0  0  0  0  0  2  0  0  0  0  0  0
  185.3650  177.7340  137.0950 N   0  0  0  0  0  0  0  0  0  0  0  0
  184.7070  176.4060  135.2620 O   0  0  0  0  0  0  0  0  0  0  0  0
  187.8880  178.4510  139.6200 N   0  0  0  0  0  0  0  0  0  0  0  0
  186.8190  175.8940  136.3680 C   0  0  2  0  0  3  0  0  0  0  0  0
  192.8300  175.0100  136.2290 C   0  0  0  0  0  2  0  0  0  0  0  0
  186.4930  174.4820  136.8260 C   0  0  0  0  0  1  0  0  0  0  0  0
  193.6830  175.2580  137.4610 C   0  0  1  0  0  3  0  0  0  0  0  0
  187.3650  176.6930  137.5030 C   0  0  0  0  0  0  0  0  0  0  0  0
  190.0210  177.4760  140.0090 N   0  0  0  0  0  0  0  0  0  0  0  0
  185.5440  176.6630  136.1660 C   0  0  0  0  0  0  0  0  0  0  0  0
  186.4180  177.7200  137.8350 C   0  0  0  0  0  0  0  0  0  0  0  0
  191.7010  176.2850  138.6360 C   0  0  2  0  0  3  0  0  0  0  0  0
  188.5090  176.5760  138.1870 C   0  0  0  0  0  0  0  0  0  0  0  0
  191.4010  174.7220  136.6600 C   0  0  0  0  0  2  0  0  0  0  0  0
  186.6700  178.5990  138.9230 N   0  0  0  0  0  2  0  0  0  0  0  0
  195.0030  175.4860  137.0750 O   0  0  0  0  0  1  0  0  0  0  0  0
  193.1540  176.4790  138.1970 C   0  0  0  0  0  2  0  0  0  0  0  0
  190.8040  175.8960  137.4400 C   0  0  1  0  0  3  0  0  0  0  0  0
  190.8850  176.4640  144.0800 C   0  0  0  0  0  2  0  0  0  0  0  0
  190.0990  177.5300  141.4680 C   0  0  0  0  0  3  0  0  0  0  0  0
  189.3390  176.3690  142.1130 C   0  0  0  0  0  2  0  0  0  0  0  0
  189.4250  176.4620  143.6340 C   0  0  0  0  0  2  0  0  0  0  0  0
  191.6240  177.6430  143.4550 C   0  0  0  0  0  2  0  0  0  0  0  0
  191.5580  177.5600  141.9320 C   0  0  0  0  0  2  0  0  0  0  0  0
  1 12  1  0  0  0  0
  2  6  2  0  0  0  0
  2 12  1  0  0  0  0
  3 16  1  0  0  0  0
  4 14  2  0  0  0  0
  5 13  2  0  0  0  0
  7  9  1  1  0  0  0
  7 11  1  0  0  0  0
  8 17  1  0  0  0  0
  8 10  1  0  0  0  0
 10 19  1  6  0  0  0
 10 20  1  0  0  0  0
 11 14  1  0  0  0  0
 11 16  2  0  0  0  0
 12 23  1  0  0  0  0
 13  7  1  0  0  0  0
 13  4  1  0  0  0  0
 14 18  1  0  0  0  0
 15 20  1  6  0  0  0
 15  1  1  0  0  0  0
 16  2  1  0  0  0  0
 18  6  1  0  0  0  0
 21 17  1  1  0  0  0
 21  3  1  0  0  0  0
 21 15  1  0  0  0  0
 23 27  1  0  0  0  0
 23 24  1  0  0  0  0
 24 25  1  0  0  0  0
 25 22  1  0  0  0  0
 26 22  1  0  0  0  0
 27 26  1  0  0  0  0
M  END
>  <MODEL>
3

>  <REMARK>
 VINA RESULT:      -8.3      3.746      6.758
  Name = 
  1 active torsions:
  status: ('A' for Active; 'I' for Inactive)
    1  A    between atoms: C_9  and  N_15
                            x       y       z     vdW  Elec       q    Type
                         _______ _______ _______ _____ _____    ______ ____

>  <TORSDO>
F 1

$$$$
=
 OpenBabel10272400593D

 27 31  0  0  1  0  0  0  0  0999 V2000
  185.2340  179.1500  143.0460 C   0  0  0  0  0  2  0  0  0  0  0  0
  186.5550  178.2770  141.1200 C   0  0  0  0  0  0  0  0  0  0  0  0
  187.6060  177.1040  143.1870 C   0  0  0  0  0  2  0  0  0  0  0  0
  190.2100  178.1230  139.3470 N   0  0  0  0  0  0  0  0  0  0  0  0
  192.2570  177.3640  140.2360 O   0  0  0  0  0  0  0  0  0  0  0  0
  186.6550  178.7000  139.8820 N   0  0  0  0  0  0  0  0  0  0  0  0
  190.2580  177.2070  141.6250 C   0  0  2  0  0  3  0  0  0  0  0  0
  187.2320  178.3880  146.7620 C   0  0  0  0  0  2  0  0  0  0  0  0
  190.2320  175.6990  141.8050 C   0  0  0  0  0  1  0  0  0  0  0  0
  185.7160  178.4590  146.7730 C   0  0  1  0  0  3  0  0  0  0  0  0
  188.9190  177.7010  141.1930 C   0  0  0  0  0  0  0  0  0  0  0  0
  185.2990  178.3850  141.8090 N   0  0  0  0  0  0  0  0  0  0  0  0
  191.0200  177.5500  140.3760 C   0  0  0  0  0  0  0  0  0  0  0  0
  189.0260  178.1940  139.8490 C   0  0  0  0  0  0  0  0  0  0  0  0
  185.6820  178.3350  144.2540 C   0  0  2  0  0  3  0  0  0  0  0  0
  187.7460  177.7280  141.8360 C   0  0  0  0  0  0  0  0  0  0  0  0
  187.6840  177.5310  145.5890 C   0  0  0  0  0  2  0  0  0  0  0  0
  187.8740  178.6810  139.1730 N   0  0  0  0  0  2  0  0  0  0  0  0
  185.2940  179.2130  147.8680 O   0  0  0  0  0  1  0  0  0  0  0  0
  185.2360  179.1200  145.4900 C   0  0  0  0  0  2  0  0  0  0  0  0
  187.2110  178.1130  144.2550 C   0  0  1  0  0  3  0  0  0  0  0  0
  181.5240  178.4600  139.7890 C   0  0  0  0  0  2  0  0  0  0  0  0
  184.0370  177.9600  141.2060 C   0  0  0  0  0  3  0  0  0  0  0  0
  182.8370  178.5900  141.9160 C   0  0  0  0  0  2  0  0  0  0  0  0
  181.5360  178.1150  141.2750 C   0  0  0  0  0  2  0  0  0  0  0  0
  182.7070  177.8020  139.0870 C   0  0  0  0  0  2  0  0  0  0  0  0
  184.0190  178.2740  139.7080 C   0  0  0  0  0  2  0  0  0  0  0  0
  2 12  1  0  0  0  0
  2 16  1  0  0  0  0
  4 14  2  0  0  0  0
  4 13  1  0  0  0  0
  5 13  2  0  0  0  0
  6  2  2  0  0  0  0
  7  9  1  6  0  0  0
  8 10  1  0  0  0  0
 10 19  1  1  0  0  0
 11  7  1  0  0  0  0
 11 16  2  0  0  0  0
 12  1  1  0  0  0  0
 13  7  1  0  0  0  0
 14 11  1  0  0  0  0
 15  1  1  6  0  0  0
 15 21  1  0  0  0  0
 15 20  1  0  0  0  0
 16  3  1  0  0  0  0
 17  8  1  0  0  0  0
 18 14  1  0  0  0  0
 18  6  1  0  0  0  0
 20 10  1  0  0  0  0
 21  3  1  6  0  0  0
 21 17  1  0  0  0  0
 22 25  1  0  0  0  0
 23 12  1  0  0  0  0
 23 24  1  0  0  0  0
 25 24  1  0  0  0  0
 26 27  1  0  0  0  0
 26 22  1  0  0  0  0
 27 23  1  0  0  0  0
M  END
>  <MODEL>
4

>  <REMARK>
 VINA RESULT:      -7.9      2.387      5.420
  Name = 
  1 active torsions:
  status: ('A' for Active; 'I' for Inactive)
    1  A    between atoms: C_9  and  N_15
                            x       y       z     vdW  Elec       q    Type
                         _______ _______ _______ _____ _____    ______ ____

>  <TORSDO>
F 1

$$$$
=
 OpenBabel10272400593D

 27 31  0  0  1  0  0  0  0  0999 V2000
  187.9520  178.6730  140.9440 C   0  0  0  0  0  2  0  0  0  0  0  0
  189.3750  177.8350  142.8120 C   0  0  0  0  0  0  0  0  0  0  0  0
  186.9510  177.2900  143.5750 C   0  0  0  0  0  2  0  0  0  0  0  0
  190.3670  178.2570  146.7310 N   0  0  0  0  0  0  0  0  0  0  0  0
  188.9760  178.1530  148.6310 O   0  0  0  0  0  0  0  0  0  0  0  0
  190.6340  178.0640  143.1050 N   0  0  0  0  0  0  0  0  0  0  0  0
  187.9800  177.7590  146.4400 C   0  0  2  0  0  3  0  0  0  0  0  0
  183.8530  179.0100  142.1580 C   0  0  0  0  0  2  0  0  0  0  0  0
  187.5000  176.3350  146.6690 C   0  0  0  0  0  1  0  0  0  0  0  0
  184.1390  178.7250  140.6940 C   0  0  1  0  0  3  0  0  0  0  0  0
  188.7470  177.8480  145.1630 C   0  0  0  0  0  0  0  0  0  0  0  0
  188.9690  177.7550  141.4360 N   0  0  0  0  0  0  0  0  0  0  0  0
  189.1100  178.0640  147.3830 C   0  0  0  0  0  0  0  0  0  0  0  0
  190.1200  178.1290  145.4740 C   0  0  0  0  0  0  0  0  0  0  0  0
  186.5390  178.1920  141.2570 C   0  0  2  0  0  3  0  0  0  0  0  0
  188.3520  177.7030  143.8930 C   0  0  0  0  0  0  0  0  0  0  0  0
  184.7180  178.1050  143.0220 C   0  0  0  0  0  2  0  0  0  0  0  0
  191.0840  178.2170  144.4340 N   0  0  0  0  0  2  0  0  0  0  0  0
  183.3220  179.5250  139.8960 O   0  0  0  0  0  1  0  0  0  0  0  0
  185.5980  179.0380  140.3980 C   0  0  0  0  0  2  0  0  0  0  0  0
  186.2080  178.3370  142.7590 C   0  0  1  0  0  3  0  0  0  0  0  0
  191.1480  176.6050  137.9340 C   0  0  0  0  0  2  0  0  0  0  0  0
  189.6950  176.9540  140.4520 C   0  0  0  0  0  3  0  0  0  0  0  0
  188.9600  176.9170  139.1100 C   0  0  0  0  0  2  0  0  0  0  0  0
  189.7330  176.0620  138.1100 C   0  0  0  0  0  2  0  0  0  0  0  0
  191.8800  176.6100  139.2720 C   0  0  0  0  0  2  0  0  0  0  0  0
  191.1260  177.4700  140.2830 C   0  0  0  0  0  2  0  0  0  0  0  0
  1 15  1  0  0  0  0
  1 12  1  0  0  0  0
  2  6  2  0  0  0  0
  2 16  1  0  0  0  0
  3 16  1  0  0  0  0
  4 13  1  0  0  0  0
  6 18  1  0  0  0  0
  7  9  1  1  0  0  0
  7 13  1  0  0  0  0
  8 17  1  0  0  0  0
 10 19  1  6  0  0  0
 10  8  1  0  0  0  0
 11 14  1  0  0  0  0
 11  7  1  0  0  0  0
 12  2  1  0  0  0  0
 13  5  2  0  0  0  0
 14  4  2  0  0  0  0
 15 20  1  6  0  0  0
 15 21  1  0  0  0  0
 16 11  2  0  0  0  0
 18 14  1  0  0  0  0
 20 10  1  0  0  0  0
 21 17  1  6  0  0  0
 21  3  1  0  0  0  0
 22 25  1  0  0  0  0
 22 26  1  0  0  0  0
 23 12  1  0  0  0  0
 24 23  1  0  0  0  0
 25 24  1  0  0  0  0
 26 27  1  0  0  0  0
 27 23  1  0  0  0  0
M  END
>  <MODEL>
5

>  <REMARK>
 VINA RESULT:      -7.5      2.254      5.865
  Name = 
  1 active torsions:
  status: ('A' for Active; 'I' for Inactive)
    1  A    between atoms: C_9  and  N_15
                            x       y       z     vdW  Elec       q    Type
                         _______ _______ _______ _____ _____    ______ ____

>  <TORSDO>
F 1

$$$$
=
 OpenBabel10272400593D

 27 31  0  0  1  0  0  0  0  0999 V2000
  187.2000  178.8460  142.0310 C   0  0  0  0  0  2  0  0  0  0  0  0
  189.2930  177.8070  142.9010 C   0  0  0  0  0  0  0  0  0  0  0  0
  187.4710  177.0710  144.6030 C   0  0  0  0  0  2  0  0  0  0  0  0
  191.9820  177.7100  145.9480 N   0  0  0  0  0  0  0  0  0  0  0  0
  191.6120  177.2890  148.2370 O   0  0  0  0  0  0  0  0  0  0  0  0
  190.5530  178.0380  142.6150 N   0  0  0  0  0  0  0  0  0  0  0  0
  189.7120  177.1700  146.7130 C   0  0  2  0  0  3  0  0  0  0  0  0
  184.1250  178.8580  145.0190 C   0  0  0  0  0  2  0  0  0  0  0  0
  189.3440  175.7120  146.9320 C   0  0  0  0  0  1  0  0  0  0  0  0
  183.6990  178.7920  143.5630 C   0  0  1  0  0  3  0  0  0  0  0  0
  189.8110  177.4660  145.2550 C   0  0  0  0  0  0  0  0  0  0  0  0
  188.2990  177.9060  141.8680 N   0  0  0  0  0  0  0  0  0  0  0  0
  191.1570  177.3810  147.0670 C   0  0  0  0  0  0  0  0  0  0  0  0
  191.1820  177.7510  144.9400 C   0  0  0  0  0  0  0  0  0  0  0  0
  186.0730  178.2740  142.8840 C   0  0  2  0  0  3  0  0  0  0  0  0
  188.8750  177.4870  144.2990 C   0  0  0  0  0  0  0  0  0  0  0  0
  185.2600  177.8730  145.2540 C   0  0  0  0  0  2  0  0  0  0  0  0
  191.5650  178.0190  143.5970 N   0  0  0  0  0  2  0  0  0  0  0  0
  182.6340  179.6670  143.3500 O   0  0  0  0  0  1  0  0  0  0  0  0
  184.8700  179.1980  142.6810 C   0  0  0  0  0  2  0  0  0  0  0  0
  186.4710  178.1940  144.3740 C   0  0  1  0  0  3  0  0  0  0  0  0
  189.3680  177.2600  137.7710 C   0  0  0  0  0  2  0  0  0  0  0  0
  188.4680  177.2790  140.5580 C   0  0  0  0  0  3  0  0  0  0  0  0
  187.7040  178.0380  139.4720 C   0  0  0  0  0  2  0  0  0  0  0  0
  187.8860  177.3520  138.1210 C   0  0  0  0  0  2  0  0  0  0  0  0
  190.1140  176.4750  138.8460 C   0  0  0  0  0  2  0  0  0  0  0  0
  189.9520  177.1540  140.2040 C   0  0  0  0  0  2  0  0  0  0  0  0
  2 16  1  0  0  0  0
  4 13  1  0  0  0  0
  6  2  2  0  0  0  0
  6 18  1  0  0  0  0
  7  9  1  6  0  0  0
  7 13  1  0  0  0  0
  8 17  1  0  0  0  0
 10 19  1  1  0  0  0
 10  8  1  0  0  0  0
 11  7  1  0  0  0  0
 12  1  1  0  0  0  0
 12  2  1  0  0  0  0
 13  5  2  0  0  0  0
 14 11  1  0  0  0  0
 14  4  2  0  0  0  0
 15  1  1  6  0  0  0
 15 21  1  0  0  0  0
 16  3  1  0  0  0  0
 16 11  2  0  0  0  0
 18 14  1  0  0  0  0
 20 15  1  0  0  0  0
 20 10  1  0  0  0  0
 21  3  1  6  0  0  0
 21 17  1  0  0  0  0
 22 25  1  0  0  0  0
 22 26  1  0  0  0  0
 23 12  1  0  0  0  0
 24 23  1  0  0  0  0
 25 24  1  0  0  0  0
 26 27  1  0  0  0  0
 27 23  1  0  0  0  0
M  END
>  <MODEL>
6

>  <REMARK>
 VINA RESULT:      -7.4      2.434      5.736
  Name = 
  1 active torsions:
  status: ('A' for Active; 'I' for Inactive)
    1  A    between atoms: C_9  and  N_15
                            x       y       z     vdW  Elec       q    Type
                         _______ _______ _______ _____ _____    ______ ____

>  <TORSDO>
F 1

$$$$
=
 OpenBabel10272400593D

 27 31  0  0  1  0  0  0  0  0999 V2000
  188.0620  178.9630  142.1170 C   0  0  0  0  0  2  0  0  0  0  0  0
  187.1360  178.2560  139.9130 C   0  0  0  0  0  0  0  0  0  0  0  0
  189.2170  176.7330  140.2390 C   0  0  0  0  0  2  0  0  0  0  0  0
  187.7870  178.0510  135.9050 N   0  0  0  0  0  0  0  0  0  0  0  0
  189.5570  177.0160  134.7430 O   0  0  0  0  0  0  0  0  0  0  0  0
  186.2650  178.8340  139.1190 N   0  0  0  0  0  0  0  0  0  0  0  0
  189.5010  176.8330  137.1740 C   0  0  2  0  0  3  0  0  0  0  0  0
  192.0750  177.5450  142.6330 C   0  0  0  0  0  2  0  0  0  0  0  0
  189.3930  175.3210  137.2800 C   0  0  0  0  0  1  0  0  0  0  0  0
  191.2250  177.7360  143.8760 C   0  0  1  0  0  3  0  0  0  0  0  0
  188.4620  177.4870  138.0210 C   0  0  0  0  0  0  0  0  0  0  0  0
  186.9860  178.3700  141.3370 N   0  0  0  0  0  0  0  0  0  0  0  0
  188.9880  177.2800  135.8340 C   0  0  0  0  0  0  0  0  0  0  0  0
  187.5220  178.1480  137.1610 C   0  0  0  0  0  0  0  0  0  0  0  0
  189.1620  177.9580  142.4420 C   0  0  2  0  0  3  0  0  0  0  0  0
  188.3090  177.5210  139.3500 C   0  0  0  0  0  0  0  0  0  0  0  0
  191.2580  176.8220  141.5740 C   0  0  0  0  0  2  0  0  0  0  0  0
  186.3930  178.8130  137.7140 N   0  0  0  0  0  2  0  0  0  0  0  0
  191.9800  178.3660  144.8640 O   0  0  0  0  0  1  0  0  0  0  0  0
  190.0220  178.6010  143.5320 C   0  0  0  0  0  2  0  0  0  0  0  0
  190.0060  177.6160  141.1940 C   0  0  1  0  0  3  0  0  0  0  0  0
  183.3290  179.0120  143.4710 C   0  0  0  0  0  2  0  0  0  0  0  0
  185.7100  178.1330  142.0100 C   0  0  0  0  0  3  0  0  0  0  0  0
  185.7810  178.5060  143.4920 C   0  0  0  0  0  2  0  0  0  0  0  0
  184.4410  178.2340  144.1690 C   0  0  0  0  0  2  0  0  0  0  0  0
  183.2480  178.6100  142.0020 C   0  0  0  0  0  2  0  0  0  0  0  0
  184.5780  178.8860  141.3050 C   0  0  0  0  0  2  0  0  0  0  0  0
  2 12  1  0  0  0  0
  4 14  2  0  0  0  0
  5 13  2  0  0  0  0
  6  2  2  0  0  0  0
  7  9  1  6  0  0  0
  7 11  1  0  0  0  0
  8 10  1  0  0  0  0
 10 19  1  1  0  0  0
 11 16  2  0  0  0  0
 12 23  1  0  0  0  0
 12  1  1  0  0  0  0
 13  4  1  0  0  0  0
 13  7  1  0  0  0  0
 14 18  1  0  0  0  0
 14 11  1  0  0  0  0
 15  1  1  6  0  0  0
 15 20  1  0  0  0  0
 16  2  1  0  0  0  0
 16  3  1  0  0  0  0
 17  8  1  0  0  0  0
 18  6  1  0  0  0  0
 20 10  1  0  0  0  0
 21  3  1  6  0  0  0
 21 17  1  0  0  0  0
 21 15  1  0  0  0  0
 22 25  1  0  0  0  0
 23 24  1  0  0  0  0
 24 25  1  0  0  0  0
 26 22  1  0  0  0  0
 27 26  1  0  0  0  0
 27 23  1  0  0  0  0
M  END
>  <MODEL>
7

>  <REMARK>
 VINA RESULT:      -7.4      3.000      5.471
  Name = 
  1 active torsions:
  status: ('A' for Active; 'I' for Inactive)
    1  A    between atoms: C_9  and  N_15
                            x       y       z     vdW  Elec       q    Type
                         _______ _______ _______ _____ _____    ______ ____

>  <TORSDO>
F 1

$$$$
=
 OpenBabel10272400593D

 27 31  0  0  1  0  0  0  0  0999 V2000
  188.4360  178.3850  143.7470 C   0  0  0  0  0  2  0  0  0  0  0  0
  188.0170  178.0300  141.3160 C   0  0  0  0  0  0  0  0  0  0  0  0
  189.7410  176.1860  141.9320 C   0  0  0  0  0  2  0  0  0  0  0  0
  189.6260  178.0940  137.5830 N   0  0  0  0  0  0  0  0  0  0  0  0
  191.4900  176.9130  136.7530 O   0  0  0  0  0  0  0  0  0  0  0  0
  187.4530  178.8030  140.4170 N   0  0  0  0  0  0  0  0  0  0  0  0
  190.8000  176.5210  139.0590 C   0  0  2  0  0  3  0  0  0  0  0  0
  191.9820  176.3350  145.0180 C   0  0  0  0  0  2  0  0  0  0  0  0
  190.4820  175.0390  138.9460 C   0  0  0  0  0  1  0  0  0  0  0  0
  190.8760  176.5390  146.0380 C   0  0  1  0  0  3  0  0  0  0  0  0
  189.6700  177.2450  139.7110 C   0  0  0  0  0  0  0  0  0  0  0  0
  187.5270  178.0350  142.6660 N   0  0  0  0  0  0  0  0  0  0  0  0
  190.7010  177.1600  137.7030 C   0  0  0  0  0  0  0  0  0  0  0  0
  189.0670  178.1150  138.7430 C   0  0  0  0  0  0  0  0  0  0  0  0
  189.2860  177.2010  144.1950 C   0  0  2  0  0  3  0  0  0  0  0  0
  189.1930  177.1800  140.9600 C   0  0  0  0  0  0  0  0  0  0  0  0
  191.3750  175.8440  143.7130 C   0  0  0  0  0  2  0  0  0  0  0  0
  187.9270  178.8910  139.0920 N   0  0  0  0  0  2  0  0  0  0  0  0
  191.4300  176.9550  147.2480 O   0  0  0  0  0  1  0  0  0  0  0  0
  189.9160  177.6040  145.5300 C   0  0  0  0  0  2  0  0  0  0  0  0
  190.3670  176.8490  143.1500 C   0  0  1  0  0  3  0  0  0  0  0  0
  183.4940  179.0790  143.6580 C   0  0  0  0  0  2  0  0  0  0  0  0
  186.1030  177.9350  142.9820 C   0  0  0  0  0  3  0  0  0  0  0  0
  185.8050  178.4530  144.3900 C   0  0  0  0  0  2  0  0  0  0  0  0
  184.3150  178.3200  144.6960 C   0  0  0  0  0  2  0  0  0  0  0  0
  183.7780  178.5330  142.2620 C   0  0  0  0  0  2  0  0  0  0  0  0
  185.2620  178.6680  141.9350 C   0  0  0  0  0  2  0  0  0  0  0  0
  2 12  1  0  0  0  0
  4 13  1  0  0  0  0
  4 14  2  0  0  0  0
  5 13  2  0  0  0  0
  6  2  2  0  0  0  0
  7  9  1  6  0  0  0
  7 11  1  0  0  0  0
  8 10  1  0  0  0  0
 10 19  1  1  0  0  0
 11 16  2  0  0  0  0
 12 23  1  0  0  0  0
 12  1  1  0  0  0  0
 13  7  1  0  0  0  0
 14 18  1  0  0  0  0
 14 11  1  0  0  0  0
 15  1  1  6  0  0  0
 15 20  1  0  0  0  0
 16  2  1  0  0  0  0
 16  3  1  0  0  0  0
 17  8  1  0  0  0  0
 18  6  1  0  0  0  0
 20 10  1  0  0  0  0
 21  3  1  6  0  0  0
 21 17  1  0  0  0  0
 21 15  1  0  0  0  0
 22 25  1  0  0  0  0
 23 24  1  0  0  0  0
 24 25  1  0  0  0  0
 26 22  1  0  0  0  0
 27 26  1  0  0  0  0
 27 23  1  0  0  0  0
M  END
>  <MODEL>
8

>  <REMARK>
 VINA RESULT:      -7.2      2.503      5.139
  Name = 
  1 active torsions:
  status: ('A' for Active; 'I' for Inactive)
    1  A    between atoms: C_9  and  N_15
                            x       y       z     vdW  Elec       q    Type
                         _______ _______ _______ _____ _____    ______ ____

>  <TORSDO>
F 1

$$$$
=
 OpenBabel10272400593D

 27 31  0  0  1  0  0  0  0  0999 V2000
  188.9450  176.6870  139.5290 C   0  0  0  0  0  2  0  0  0  0  0  0
  188.5830  177.4600  141.8710 C   0  0  0  0  0  0  0  0  0  0  0  0
  191.0740  178.0320  141.3990 C   0  0  0  0  0  2  0  0  0  0  0  0
  189.5880  176.9390  145.7760 N   0  0  0  0  0  0  0  0  0  0  0  0
  191.7180  177.0290  146.7820 O   0  0  0  0  0  0  0  0  0  0  0  0
  187.6190  177.2030  142.7240 N   0  0  0  0  0  0  0  0  0  0  0  0
  191.5420  177.4860  144.3930 C   0  0  2  0  0  3  0  0  0  0  0  0
  193.1270  176.3990  138.6280 C   0  0  0  0  0  2  0  0  0  0  0  0
  192.0650  178.9130  144.4020 C   0  0  0  0  0  1  0  0  0  0  0  0
  192.1750  176.7090  137.4860 C   0  0  1  0  0  3  0  0  0  0  0  0
  190.2590  177.4090  143.6360 C   0  0  0  0  0  0  0  0  0  0  0  0
  188.2820  177.5760  140.4720 N   0  0  0  0  0  0  0  0  0  0  0  0
  191.0030  177.1420  145.7520 C   0  0  0  0  0  0  0  0  0  0  0  0
  189.2040  177.0970  144.5570 C   0  0  0  0  0  0  0  0  0  0  0  0
  190.3330  177.1870  139.1420 C   0  0  2  0  0  3  0  0  0  0  0  0
  189.9970  177.5880  142.3360 C   0  0  0  0  0  0  0  0  0  0  0  0
  192.7750  177.2700  139.8230 C   0  0  0  0  0  2  0  0  0  0  0  0
  187.8600  177.0140  144.1020 N   0  0  0  0  0  2  0  0  0  0  0  0
  192.5150  175.9400  136.3740 O   0  0  0  0  0  1  0  0  0  0  0  0
  190.7540  176.3760  137.9150 C   0  0  0  0  0  2  0  0  0  0  0  0
  191.3420  177.0170  140.2990 C   0  0  1  0  0  3  0  0  0  0  0  0
  184.3900  178.7570  139.1300 C   0  0  0  0  0  2  0  0  0  0  0  0
  187.1690  178.3840  139.9750 C   0  0  0  0  0  3  0  0  0  0  0  0
  186.6790  177.8860  138.6140 C   0  0  0  0  0  2  0  0  0  0  0  0
  185.5300  178.7570  138.1160 C   0  0  0  0  0  2  0  0  0  0  0  0
  184.8830  179.2840  140.4750 C   0  0  0  0  0  2  0  0  0  0  0  0
  186.0270  178.4170  140.9940 C   0  0  0  0  0  2  0  0  0  0  0  0
  1 12  1  0  0  0  0
  2 16  1  0  0  0  0
  2  6  2  0  0  0  0
  3 16  1  0  0  0  0
  6 18  1  0  0  0  0
  7  9  1  1  0  0  0
  7 13  1  0  0  0  0
  8 17  1  0  0  0  0
 10 19  1  6  0  0  0
 10 20  1  0  0  0  0
 10  8  1  0  0  0  0
 11  7  1  0  0  0  0
 11 14  1  0  0  0  0
 12  2  1  0  0  0  0
 13  4  1  0  0  0  0
 13  5  2  0  0  0  0
 14  4  2  0  0  0  0
 15 20  1  6  0  0  0
 15  1  1  0  0  0  0
 15 21  1  0  0  0  0
 16 11  2  0  0  0  0
 18 14  1  0  0  0  0
 21 17  1  6  0  0  0
 21  3  1  0  0  0  0
 22 26  1  0  0  0  0
 23 12  1  0  0  0  0
 23 27  1  0  0  0  0
 24 23  1  0  0  0  0
 25 24  1  0  0  0  0
 25 22  1  0  0  0  0
 26 27  1  0  0  0  0
M  END
>  <MODEL>
9

>  <REMARK>
 VINA RESULT:      -7.2      2.783      7.285
  Name = 
  1 active torsions:
  status: ('A' for Active; 'I' for Inactive)
    1  A    between atoms: C_9  and  N_15
                            x       y       z     vdW  Elec       q    Type
                         _______ _______ _______ _____ _____    ______ ____

>  <TORSDO>
F 1

$$$$
