=
 OpenBabel10272414073D

 43 50  0  0  1  0  0  0  0  0999 V2000
  190.9750  177.1350  146.3920 C   0  0  2  0  0  3  0  0  0  0  0  0
  187.1900  177.7860  143.0330 C   0  0  0  0  0  0  0  0  0  0  0  0
  187.9840  178.4060  139.5060 N   0  0  0  0  0  2  0  0  0  0  0  0
  188.7290  177.8600  145.4240 C   0  0  2  0  0  3  0  0  0  0  0  0
  191.5890  176.8920  145.0210 C   0  0  0  0  0  2  0  0  0  0  0  0
  191.6020  176.1890  147.3940 C   0  0  0  0  0  1  0  0  0  0  0  0
  189.3790  177.8840  144.0510 C   0  0  0  0  0  0  0  0  0  0  0  0
  189.4700  176.8850  146.3440 C   0  0  0  0  0  2  0  0  0  0  0  0
  191.1300  178.2590  143.9160 S   0  0  0  0  0  0  0  0  0  0  0  0
  189.0260  178.0300  141.6250 N   0  0  0  0  0  0  0  0  0  0  0  0
  188.6170  177.8030  142.9620 C   0  0  0  0  0  0  0  0  0  0  0  0
  186.5400  177.7250  144.1510 N   0  0  0  0  0  0  0  0  0  0  0  0
  186.6460  178.0610  141.6810 C   0  0  2  0  0  3  0  0  0  0  0  0
  187.9450  178.1600  140.9130 C   0  0  0  0  0  0  0  0  0  0  0  0
  187.2380  177.4280  145.4090 C   0  0  0  0  0  2  0  0  0  0  0  0
  189.2300  178.5470  138.7650 C   0  0  2  0  0  3  0  0  0  0  0  0
  188.9770  179.1800  137.4050 C   0  0  0  0  0  1  0  0  0  0  0  0
  189.9310  177.1990  138.6280 C   0  0  0  0  0  2  0  0  0  0  0  0
  191.3940  177.3330  138.1980 C   0  0  2  0  0  3  0  0  0  0  0  0
  192.0020  176.0570  137.6110 C   0  0  1  0  0  0  0  0  0  0  0  0
  192.2510  176.4300  139.0730 C   0  0  1  0  0  3  0  0  0  0  0  0
  193.5090  177.0130  139.2470 O   0  0  0  0  0  1  0  0  0  0  0  0
  190.2320  175.0740  136.0820 N   0  0  0  0  0  2  0  0  0  0  0  0
  191.5920  173.5610  137.3930 N   0  0  0  0  0  2  0  0  0  0  0  0
  191.0080  174.9060  137.3160 C   0  0  2  0  0  0  0  0  0  0  0  0
  191.4530  174.2640  136.1150 C   0  0  2  0  0  3  0  0  0  0  0  0
  193.0970  176.3830  136.5930 C   0  0  0  0  0  2  0  0  0  0  0  0
  194.3370  175.9510  137.0730 O   0  0  0  0  0  0  0  0  0  0  0  0
  194.9590  175.3500  135.9770 C   0  0  1  0  0  3  0  0  0  0  0  0
  198.2260  173.9550  136.2230 N   0  0  0  0  0  1  0  0  0  0  0  0
  197.2460  176.1090  135.9620 N   0  0  0  0  0  2  0  0  0  0  0  0
  197.1830  174.8480  136.6930 C   0  0  1  0  0  3  0  0  0  0  0  0
  195.9360  176.3230  135.3590 C   0  0  0  0  0  2  0  0  0  0  0  0
  195.8280  174.2200  136.4570 C   0  0  0  0  0  2  0  0  0  0  0  0
  185.9780  179.3510  141.6690 N   0  0  0  0  0  2  0  0  0  0  0  0
  184.8220  179.2160  140.8000 C   0  0  0  0  0  2  0  0  0  0  0  0
  183.1120  178.8050  142.5670 C   0  0  0  0  0  2  0  0  0  0  0  0
  181.6830  178.7030  142.1890 C   0  0  0  0  0  0  0  0  0  0  0  0
  182.7960  177.8550  140.3410 C   0  0  0  0  0  2  0  0  0  0  0  0
  183.8560  178.2010  141.3810 C   0  0  1  0  0  3  0  0  0  0  0  0
  181.5020  178.1880  140.9860 C   0  0  0  0  0  3  0  0  0  0  0  0
  180.1530  178.3860  144.0820 C   0  0  0  0  0  2  0  0  0  0  0  0
  180.5990  179.1370  143.0810 C   0  0  0  0  0  3  0  0  0  0  0  0
  1  6  1  1  0  0  0
  2 12  2  0  0  0  0
  3 14  1  0  0  0  0
  4 15  1  6  0  0  0
  4  8  1  0  0  0  0
  5  1  1  0  0  0  0
  7  4  1  0  0  0  0
  8  1  1  0  0  0  0
  9  7  1  0  0  0  0
  9  5  1  0  0  0  0
 10 11  1  0  0  0  0
 11  2  1  0  0  0  0
 11  7  2  0  0  0  0
 12 15  1  0  0  0  0
 13 35  1  1  0  0  0
 13  2  1  0  0  0  0
 14 10  2  0  0  0  0
 14 13  1  0  0  0  0
 16 17  1  6  0  0  0
 16  3  1  0  0  0  0
 18 16  1  0  0  0  0
 19 18  1  1  0  0  0
 19 21  1  0  0  0  0
 20 27  1  6  0  0  0
 20 19  1  0  0  0  0
 20 21  1  0  0  0  0
 21 22  1  6  0  0  0
 25 23  1  1  0  0  0
 25 24  1  0  0  0  0
 25 20  1  0  0  0  0
 26 23  1  6  0  0  0
 26 25  1  0  0  0  0
 26 24  1  0  0  0  0
 27 28  1  0  0  0  0
 29 34  1  0  0  0  0
 29 28  1  1  0  0  0
 31 32  1  0  0  0  0
 32 30  1  6  0  0  0
 33 31  1  0  0  0  0
 33 29  1  0  0  0  0
 34 32  1  0  0  0  0
 36 35  1  0  0  0  0
 38 37  1  0  0  0  0
 38 43  1  0  0  0  0
 39 41  1  0  0  0  0
 39 40  1  0  0  0  0
 40 36  1  6  0  0  0
 40 37  1  0  0  0  0
 41 38  2  0  0  0  0
 43 42  2  0  0  0  0
M  END
>  <MODEL>
1

>  <REMARK>
 VINA RESULT:      -9.0      0.000      0.000
  Name = 
  11 active torsions:
  status: ('A' for Active; 'I' for Inactive)
    1  A    between atoms: N_1  and  C_32
    2  A    between atoms: N_1  and  C_34
    3  A    between atoms: C_2  and  C_6
    4  A    between atoms: C_2  and  N_13
    5  A    between atoms: C_3  and  C_6
    6  A    between atoms: C_4  and  C_22
    7  A    between atoms: C_4  and  C_41
    8  A    between atoms: C_11  and  O_14
    9  A    between atoms: O_14  and  C_41
   10  A    between atoms: C_19  and  C_37
   11  A    between atoms: C_32  and  C_35
                            x       y       z     vdW  Elec       q    Type
                         _______ _______ _______ _____ _____    ______ ____

>  <TORSDO>
F 11

$$$$
=
 OpenBabel10272414073D

 43 50  0  0  1  0  0  0  0  0999 V2000
  190.9630  177.2260  146.2360 C   0  0  2  0  0  3  0  0  0  0  0  0
  187.1440  177.8280  142.9070 C   0  0  0  0  0  0  0  0  0  0  0  0
  187.9010  178.3790  139.3600 N   0  0  0  0  0  2  0  0  0  0  0  0
  188.7090  177.9410  145.2790 C   0  0  2  0  0  3  0  0  0  0  0  0
  191.5620  176.9550  144.8630 C   0  0  0  0  0  2  0  0  0  0  0  0
  191.5980  176.2970  147.2490 C   0  0  0  0  0  1  0  0  0  0  0  0
  189.3450  177.9380  143.8990 C   0  0  0  0  0  0  0  0  0  0  0  0
  189.4570  176.9810  146.2090 C   0  0  0  0  0  2  0  0  0  0  0  0
  191.0950  178.3030  143.7380 S   0  0  0  0  0  0  0  0  0  0  0  0
  188.9660  178.0390  141.4750 N   0  0  0  0  0  0  0  0  0  0  0  0
  188.5700  177.8380  142.8200 C   0  0  0  0  0  0  0  0  0  0  0  0
  186.5060  177.7900  144.0330 N   0  0  0  0  0  0  0  0  0  0  0  0
  186.5870  178.0790  141.5560 C   0  0  2  0  0  3  0  0  0  0  0  0
  187.8770  178.1590  140.7720 C   0  0  0  0  0  0  0  0  0  0  0  0
  187.2170  177.5140  145.2880 C   0  0  0  0  0  2  0  0  0  0  0  0
  189.1400  178.5020  138.6030 C   0  0  2  0  0  3  0  0  0  0  0  0
  189.0090  179.5720  137.5310 C   0  0  0  0  0  1  0  0  0  0  0  0
  189.5380  177.1580  138.0000 C   0  0  0  0  0  2  0  0  0  0  0  0
  188.4730  176.5930  137.0580 C   0  0  2  0  0  3  0  0  0  0  0  0
  188.9420  175.4130  136.2030 C   0  0  1  0  0  0  0  0  0  0  0  0
  188.9100  176.8260  135.6200 C   0  0  1  0  0  3  0  0  0  0  0  0
  187.7820  177.0260  134.8200 O   0  0  0  0  0  1  0  0  0  0  0  0
  190.2590  173.6360  137.4470 N   0  0  0  0  0  2  0  0  0  0  0  0
  191.2120  174.5780  135.4310 N   0  0  0  0  0  2  0  0  0  0  0  0
  190.3230  174.8140  136.5750 C   0  0  2  0  0  0  0  0  0  0  0  0
  190.3840  173.5080  135.9910 C   0  0  2  0  0  3  0  0  0  0  0  0
  187.7810  174.4740  135.8690 C   0  0  0  0  0  2  0  0  0  0  0  0
  187.1360  174.0780  137.0440 O   0  0  0  0  0  0  0  0  0  0  0  0
  186.0940  173.2500  136.6230 C   0  0  1  0  0  3  0  0  0  0  0  0
  182.8990  174.5660  135.7640 N   0  0  0  0  0  1  0  0  0  0  0  0
  184.0990  174.0050  137.7430 N   0  0  0  0  0  2  0  0  0  0  0  0
  184.1780  174.6650  136.4450 C   0  0  1  0  0  3  0  0  0  0  0  0
  185.1540  172.9990  137.7790 C   0  0  0  0  0  2  0  0  0  0  0  0
  185.2480  173.9860  135.6210 C   0  0  0  0  0  2  0  0  0  0  0  0
  185.9220  179.3710  141.5270 N   0  0  0  0  0  2  0  0  0  0  0  0
  184.7470  179.2190  140.6870 C   0  0  0  0  0  2  0  0  0  0  0  0
  183.0490  178.8060  142.4650 C   0  0  0  0  0  2  0  0  0  0  0  0
  181.6230  178.6550  142.0900 C   0  0  0  0  0  0  0  0  0  0  0  0
  182.7590  177.7920  140.2640 C   0  0  0  0  0  2  0  0  0  0  0  0
  183.8090  178.1930  141.2940 C   0  0  1  0  0  3  0  0  0  0  0  0
  181.4560  178.1060  140.9010 C   0  0  0  0  0  3  0  0  0  0  0  0
  180.1880  178.4090  144.0670 C   0  0  0  0  0  2  0  0  0  0  0  0
  180.5280  179.0820  142.9720 C   0  0  0  0  0  3  0  0  0  0  0  0
  1  6  1  1  0  0  0
  2 12  2  0  0  0  0
  3 14  1  0  0  0  0
  4 15  1  6  0  0  0
  4  8  1  0  0  0  0
  5  1  1  0  0  0  0
  7  4  1  0  0  0  0
  8  1  1  0  0  0  0
  9  7  1  0  0  0  0
  9  5  1  0  0  0  0
 10 11  1  0  0  0  0
 11  2  1  0  0  0  0
 11  7  2  0  0  0  0
 12 15  1  0  0  0  0
 13 35  1  1  0  0  0
 13  2  1  0  0  0  0
 14 10  2  0  0  0  0
 14 13  1  0  0  0  0
 16 17  1  6  0  0  0
 16  3  1  0  0  0  0
 18 16  1  0  0  0  0
 19 18  1  1  0  0  0
 20 27  1  6  0  0  0
 20 25  1  0  0  0  0
 20 19  1  0  0  0  0
 21 22  1  6  0  0  0
 21 20  1  0  0  0  0
 21 19  1  0  0  0  0
 25 24  1  1  0  0  0
 25 23  1  0  0  0  0
 26 24  1  1  0  0  0
 26 25  1  0  0  0  0
 26 23  1  0  0  0  0
 27 28  1  0  0  0  0
 29 28  1  1  0  0  0
 29 33  1  0  0  0  0
 31 33  1  0  0  0  0
 32 30  1  6  0  0  0
 32 31  1  0  0  0  0
 34 32  1  0  0  0  0
 34 29  1  0  0  0  0
 36 35  1  0  0  0  0
 38 37  1  0  0  0  0
 38 43  1  0  0  0  0
 39 41  1  0  0  0  0
 39 40  1  0  0  0  0
 40 36  1  6  0  0  0
 40 37  1  0  0  0  0
 41 38  2  0  0  0  0
 43 42  2  0  0  0  0
M  END
>  <MODEL>
2

>  <REMARK>
 VINA RESULT:      -8.8      2.901      5.088
  Name = 
  11 active torsions:
  status: ('A' for Active; 'I' for Inactive)
    1  A    between atoms: N_1  and  C_32
    2  A    between atoms: N_1  and  C_34
    3  A    between atoms: C_2  and  C_6
    4  A    between atoms: C_2  and  N_13
    5  A    between atoms: C_3  and  C_6
    6  A    between atoms: C_4  and  C_22
    7  A    between atoms: C_4  and  C_41
    8  A    between atoms: C_11  and  O_14
    9  A    between atoms: O_14  and  C_41
   10  A    between atoms: C_19  and  C_37
   11  A    between atoms: C_32  and  C_35
                            x       y       z     vdW  Elec       q    Type
                         _______ _______ _______ _____ _____    ______ ____

>  <TORSDO>
F 11

$$$$
=
 OpenBabel10272414073D

 43 50  0  0  1  0  0  0  0  0999 V2000
  191.0240  177.1340  146.2320 C   0  0  2  0  0  3  0  0  0  0  0  0
  187.1560  177.8290  142.9790 C   0  0  0  0  0  0  0  0  0  0  0  0
  187.8580  178.3850  139.4220 N   0  0  0  0  0  2  0  0  0  0  0  0
  188.7670  177.8980  145.3220 C   0  0  2  0  0  3  0  0  0  0  0  0
  191.5910  176.8590  144.8470 C   0  0  0  0  0  2  0  0  0  0  0  0
  191.6600  176.1870  147.2280 C   0  0  0  0  0  1  0  0  0  0  0  0
  189.3770  177.8900  143.9300 C   0  0  0  0  0  0  0  0  0  0  0  0
  189.5130  176.9190  146.2320 C   0  0  0  0  0  2  0  0  0  0  0  0
  191.1300  178.2220  143.7380 S   0  0  0  0  0  0  0  0  0  0  0  0
  188.9550  178.0130  141.5140 N   0  0  0  0  0  0  0  0  0  0  0  0
  188.5810  177.8120  142.8650 C   0  0  0  0  0  0  0  0  0  0  0  0
  186.5380  177.7970  144.1160 N   0  0  0  0  0  0  0  0  0  0  0  0
  186.5790  178.0980  141.6400 C   0  0  2  0  0  3  0  0  0  0  0  0
  187.8550  178.1580  140.8320 C   0  0  0  0  0  0  0  0  0  0  0  0
  187.2670  177.5000  145.3560 C   0  0  0  0  0  2  0  0  0  0  0  0
  189.0840  178.4880  138.6420 C   0  0  2  0  0  3  0  0  0  0  0  0
  188.9480  179.5560  137.5670 C   0  0  0  0  0  1  0  0  0  0  0  0
  189.4540  177.1370  138.0390 C   0  0  0  0  0  2  0  0  0  0  0  0
  188.3810  176.5980  137.0900 C   0  0  2  0  0  3  0  0  0  0  0  0
  188.8400  175.4370  136.2040 C   0  0  1  0  0  0  0  0  0  0  0  0
  188.8100  176.8640  135.6550 C   0  0  1  0  0  3  0  0  0  0  0  0
  187.6780  177.0870  134.8670 O   0  0  0  0  0  1  0  0  0  0  0  0
  190.1620  173.6760  137.4650 N   0  0  0  0  0  2  0  0  0  0  0  0
  191.0690  174.5340  135.3920 N   0  0  0  0  0  2  0  0  0  0  0  0
  190.2200  174.8240  136.5540 C   0  0  2  0  0  0  0  0  0  0  0  0
  190.2390  173.4990  136.0110 C   0  0  2  0  0  3  0  0  0  0  0  0
  187.6730  174.5120  135.8550 C   0  0  0  0  0  2  0  0  0  0  0  0
  186.9050  174.2630  136.9960 O   0  0  0  0  0  0  0  0  0  0  0  0
  185.6740  173.8160  136.5140 C   0  0  1  0  0  3  0  0  0  0  0  0
  182.8730  175.9980  136.2450 N   0  0  0  0  0  1  0  0  0  0  0  0
  183.9750  174.7480  137.9460 N   0  0  0  0  0  2  0  0  0  0  0  0
  184.1630  175.6430  136.8090 C   0  0  1  0  0  3  0  0  0  0  0  0
  184.7480  173.5410  137.6760 C   0  0  0  0  0  2  0  0  0  0  0  0
  184.9970  174.9320  135.7680 C   0  0  0  0  0  2  0  0  0  0  0  0
  185.9390  179.4040  141.6300 N   0  0  0  0  0  2  0  0  0  0  0  0
  184.5190  179.1720  141.4340 C   0  0  0  0  0  2  0  0  0  0  0  0
  183.0940  177.5020  140.2540 C   0  0  0  0  0  2  0  0  0  0  0  0
  182.1660  177.9560  139.1910 C   0  0  0  0  0  0  0  0  0  0  0  0
  183.9400  179.4390  139.0340 C   0  0  0  0  0  2  0  0  0  0  0  0
  184.2920  178.4370  140.1280 C   0  0  1  0  0  3  0  0  0  0  0  0
  182.6160  179.0040  138.5240 C   0  0  0  0  0  3  0  0  0  0  0  0
  180.6070  176.0700  139.3760 C   0  0  0  0  0  2  0  0  0  0  0  0
  180.8830  177.2900  138.9290 C   0  0  0  0  0  3  0  0  0  0  0  0
  1  6  1  1  0  0  0
  2 12  2  0  0  0  0
  3 14  1  0  0  0  0
  4 15  1  6  0  0  0
  4  8  1  0  0  0  0
  5  1  1  0  0  0  0
  7  4  1  0  0  0  0
  8  1  1  0  0  0  0
  9  7  1  0  0  0  0
  9  5  1  0  0  0  0
 10 11  1  0  0  0  0
 11  2  1  0  0  0  0
 11  7  2  0  0  0  0
 12 15  1  0  0  0  0
 13 35  1  1  0  0  0
 13  2  1  0  0  0  0
 14 10  2  0  0  0  0
 14 13  1  0  0  0  0
 16 17  1  6  0  0  0
 16  3  1  0  0  0  0
 18 16  1  0  0  0  0
 19 18  1  1  0  0  0
 20 27  1  6  0  0  0
 20 25  1  0  0  0  0
 20 19  1  0  0  0  0
 21 22  1  6  0  0  0
 21 20  1  0  0  0  0
 21 19  1  0  0  0  0
 25 24  1  6  0  0  0
 25 23  1  0  0  0  0
 26 24  1  1  0  0  0
 26 25  1  0  0  0  0
 26 23  1  0  0  0  0
 27 28  1  0  0  0  0
 29 28  1  1  0  0  0
 29 33  1  0  0  0  0
 32 30  1  6  0  0  0
 32 31  1  0  0  0  0
 33 31  1  0  0  0  0
 34 29  1  0  0  0  0
 34 32  1  0  0  0  0
 36 35  1  0  0  0  0
 38 37  1  0  0  0  0
 39 40  1  0  0  0  0
 40 37  1  0  0  0  0
 40 36  1  1  0  0  0
 41 39  1  0  0  0  0
 41 38  2  0  0  0  0
 43 38  1  0  0  0  0
 43 42  2  0  0  0  0
M  END
>  <MODEL>
3

>  <REMARK>
 VINA RESULT:      -8.6      3.168      5.334
  Name = 
  11 active torsions:
  status: ('A' for Active; 'I' for Inactive)
    1  A    between atoms: N_1  and  C_32
    2  A    between atoms: N_1  and  C_34
    3  A    between atoms: C_2  and  C_6
    4  A    between atoms: C_2  and  N_13
    5  A    between atoms: C_3  and  C_6
    6  A    between atoms: C_4  and  C_22
    7  A    between atoms: C_4  and  C_41
    8  A    between atoms: C_11  and  O_14
    9  A    between atoms: O_14  and  C_41
   10  A    between atoms: C_19  and  C_37
   11  A    between atoms: C_32  and  C_35
                            x       y       z     vdW  Elec       q    Type
                         _______ _______ _______ _____ _____    ______ ____

>  <TORSDO>
F 11

$$$$
=
 OpenBabel10272414073D

 43 50  0  0  1  0  0  0  0  0999 V2000
  180.9360  178.5670  139.7140 C   0  0  2  0  0  3  0  0  0  0  0  0
  184.4520  179.0370  143.3800 C   0  0  0  0  0  0  0  0  0  0  0  0
  187.8550  177.7990  142.7960 N   0  0  0  0  0  2  0  0  0  0  0  0
  181.9730  178.6420  142.0420 C   0  0  2  0  0  3  0  0  0  0  0  0
  182.2820  178.4170  139.0200 C   0  0  0  0  0  2  0  0  0  0  0  0
  179.9830  179.3080  138.7980 C   0  0  0  0  0  1  0  0  0  0  0  0
  183.2960  178.2310  141.4170 C   0  0  0  0  0  0  0  0  0  0  0  0
  181.0990  179.3570  141.0100 C   0  0  0  0  0  2  0  0  0  0  0  0
  183.2880  177.2150  139.9380 S   0  0  0  0  0  0  0  0  0  0  0  0
  185.7170  177.9750  141.7400 N   0  0  0  0  0  0  0  0  0  0  0  0
  184.4330  178.4780  142.0650 C   0  0  0  0  0  0  0  0  0  0  0  0
  183.3870  179.4550  143.9850 N   0  0  0  0  0  0  0  0  0  0  0  0
  185.8060  178.8470  143.9540 C   0  0  2  0  0  3  0  0  0  0  0  0
  186.4810  178.1870  142.7730 C   0  0  0  0  0  0  0  0  0  0  0  0
  182.1190  179.5980  143.2570 C   0  0  0  0  0  2  0  0  0  0  0  0
  188.5020  177.1230  141.6790 C   0  0  2  0  0  3  0  0  0  0  0  0
  189.5560  176.1470  142.1800 C   0  0  0  0  0  1  0  0  0  0  0  0
  189.1010  178.1370  140.7100 C   0  0  0  0  0  2  0  0  0  0  0  0
  188.4610  178.0790  139.3210 C   0  0  2  0  0  3  0  0  0  0  0  0
  189.3230  177.4040  138.2520 C   0  0  1  0  0  0  0  0  0  0  0  0
  189.2810  178.9280  138.3610 C   0  0  1  0  0  3  0  0  0  0  0  0
  188.4360  179.4900  137.4010 O   0  0  0  0  0  1  0  0  0  0  0  0
  190.5740  175.2200  138.5740 N   0  0  0  0  0  2  0  0  0  0  0  0
  191.8560  177.2540  138.3000 N   0  0  0  0  0  2  0  0  0  0  0  0
  190.5900  176.6740  138.7650 C   0  0  2  0  0  0  0  0  0  0  0  0
  191.2420  176.1110  137.6200 C   0  0  2  0  0  3  0  0  0  0  0  0
  188.4560  176.7400  137.1790 C   0  0  0  0  0  2  0  0  0  0  0  0
  187.6860  175.7240  137.7520 O   0  0  0  0  0  0  0  0  0  0  0  0
  186.9830  175.1580  136.6860 C   0  0  1  0  0  3  0  0  0  0  0  0
  184.7120  172.4590  137.1740 N   0  0  0  0  0  1  0  0  0  0  0  0
  187.0650  172.7680  136.9780 N   0  0  0  0  0  2  0  0  0  0  0  0
  185.8420  173.2670  137.5970 C   0  0  1  0  0  3  0  0  0  0  0  0
  187.6670  173.8820  136.2550 C   0  0  0  0  0  2  0  0  0  0  0  0
  185.6340  174.7010  137.1680 C   0  0  0  0  0  2  0  0  0  0  0  0
  185.7460  177.9080  145.0620 N   0  0  0  0  0  2  0  0  0  0  0  0
  186.3860  178.5560  146.1940 C   0  0  0  0  0  2  0  0  0  0  0  0
  188.3280  176.9930  146.1660 C   0  0  0  0  0  2  0  0  0  0  0  0
  189.5310  177.3100  146.9710 C   0  0  0  0  0  0  0  0  0  0  0  0
  187.7930  178.2130  148.2110 C   0  0  0  0  0  2  0  0  0  0  0  0
  187.1690  177.5350  146.9960 C   0  0  1  0  0  3  0  0  0  0  0  0
  189.2520  177.9700  148.0810 C   0  0  0  0  0  3  0  0  0  0  0  0
  191.3190  177.0750  145.3070 C   0  0  0  0  0  2  0  0  0  0  0  0
  190.8840  176.9190  146.5530 C   0  0  0  0  0  3  0  0  0  0  0  0
  1  6  1  6  0  0  0
  1  8  1  0  0  0  0
  2 13  1  0  0  0  0
  2 12  2  0  0  0  0
  4  8  1  6  0  0  0
  4 15  1  0  0  0  0
  5  1  1  0  0  0  0
  5  9  1  0  0  0  0
  7  4  1  0  0  0  0
  7 11  2  0  0  0  0
  9  7  1  0  0  0  0
 10 11  1  0  0  0  0
 10 14  2  0  0  0  0
 11  2  1  0  0  0  0
 13 35  1  1  0  0  0
 14  3  1  0  0  0  0
 14 13  1  0  0  0  0
 15 12  1  0  0  0  0
 16 17  1  1  0  0  0
 16  3  1  0  0  0  0
 18 16  1  0  0  0  0
 19 18  1  1  0  0  0
 20 27  1  6  0  0  0
 20 21  1  0  0  0  0
 20 25  1  0  0  0  0
 20 19  1  0  0  0  0
 21 22  1  6  0  0  0
 21 19  1  0  0  0  0
 23 25  1  0  0  0  0
 25 24  1  1  0  0  0
 26 24  1  1  0  0  0
 26 23  1  0  0  0  0
 26 25  1  0  0  0  0
 27 28  1  0  0  0  0
 29 34  1  0  0  0  0
 29 28  1  1  0  0  0
 31 32  1  0  0  0  0
 32 30  1  6  0  0  0
 33 29  1  0  0  0  0
 33 31  1  0  0  0  0
 34 32  1  0  0  0  0
 35 36  1  0  0  0  0
 37 38  1  0  0  0  0
 37 40  1  0  0  0  0
 38 41  2  0  0  0  0
 40 36  1  6  0  0  0
 40 39  1  0  0  0  0
 41 39  1  0  0  0  0
 42 43  2  0  0  0  0
 43 38  1  0  0  0  0
M  END
>  <MODEL>
4

>  <REMARK>
 VINA RESULT:      -8.4      3.193      7.547
  Name = 
  11 active torsions:
  status: ('A' for Active; 'I' for Inactive)
    1  A    between atoms: N_1  and  C_32
    2  A    between atoms: N_1  and  C_34
    3  A    between atoms: C_2  and  C_6
    4  A    between atoms: C_2  and  N_13
    5  A    between atoms: C_3  and  C_6
    6  A    between atoms: C_4  and  C_22
    7  A    between atoms: C_4  and  C_41
    8  A    between atoms: C_11  and  O_14
    9  A    between atoms: O_14  and  C_41
   10  A    between atoms: C_19  and  C_37
   11  A    between atoms: C_32  and  C_35
                            x       y       z     vdW  Elec       q    Type
                         _______ _______ _______ _____ _____    ______ ____

>  <TORSDO>
F 11

$$$$
=
 OpenBabel10272414073D

 43 50  0  0  1  0  0  0  0  0999 V2000
  190.6650  177.1100  137.5750 C   0  0  2  0  0  3  0  0  0  0  0  0
  187.1030  178.0350  141.1070 C   0  0  0  0  0  0  0  0  0  0  0  0
  183.8140  179.2930  140.0790 N   0  0  0  0  0  2  0  0  0  0  0  0
  189.6130  177.8190  139.7870 C   0  0  2  0  0  3  0  0  0  0  0  0
  189.3390  177.1450  136.8280 C   0  0  0  0  0  2  0  0  0  0  0  0
  191.5590  176.0580  136.9520 C   0  0  0  0  0  1  0  0  0  0  0  0
  188.3310  178.1220  139.0280 C   0  0  0  0  0  0  0  0  0  0  0  0
  190.4320  176.7620  139.0420 C   0  0  0  0  0  2  0  0  0  0  0  0
  188.4280  178.6410  137.3130 S   0  0  0  0  0  0  0  0  0  0  0  0
  185.9370  178.6450  139.1880 N   0  0  0  0  0  0  0  0  0  0  0  0
  187.1740  178.1680  139.6860 C   0  0  0  0  0  0  0  0  0  0  0  0
  188.1280  177.7400  141.8410 N   0  0  0  0  0  0  0  0  0  0  0  0
  185.7650  178.4910  141.5580 C   0  0  2  0  0  3  0  0  0  0  0  0
  185.1530  178.8130  140.2130 C   0  0  0  0  0  0  0  0  0  0  0  0
  189.3830  177.2880  141.2270 C   0  0  0  0  0  2  0  0  0  0  0  0
  183.2300  179.6470  138.7920 C   0  0  2  0  0  3  0  0  0  0  0  0
  182.6260  181.0420  138.8430 C   0  0  0  0  0  1  0  0  0  0  0  0
  182.1950  178.6100  138.3660 C   0  0  0  0  0  2  0  0  0  0  0  0
  182.6020  177.1810  138.7350 C   0  0  2  0  0  3  0  0  0  0  0  0
  182.8440  176.2610  137.5360 C   0  0  1  0  0  0  0  0  0  0  0  0
  181.5100  176.2240  138.2820 C   0  0  1  0  0  3  0  0  0  0  0  0
  181.4460  175.1430  139.1670 O   0  0  0  0  0  1  0  0  0  0  0  0
  184.2240  177.2890  135.6710 N   0  0  0  0  0  2  0  0  0  0  0  0
  182.1050  176.2630  135.1070 N   0  0  0  0  0  2  0  0  0  0  0  0
  182.8780  176.9510  136.1480 C   0  0  2  0  0  0  0  0  0  0  0  0
  183.5480  176.0570  135.2520 C   0  0  2  0  0  3  0  0  0  0  0  0
  183.8780  175.1830  137.8650 C   0  0  0  0  0  2  0  0  0  0  0  0
  183.4410  173.9430  137.3890 O   0  0  0  0  0  0  0  0  0  0  0  0
  184.4810  173.0580  137.6770 C   0  0  1  0  0  3  0  0  0  0  0  0
  187.3640  172.8320  135.5990 N   0  0  0  0  0  1  0  0  0  0  0  0
  185.1240  172.0260  135.5960 N   0  0  0  0  0  2  0  0  0  0  0  0
  185.9740  173.1900  135.8160 C   0  0  1  0  0  3  0  0  0  0  0  0
  184.3460  171.8250  136.8130 C   0  0  0  0  0  2  0  0  0  0  0  0
  185.7860  173.6650  137.2390 C   0  0  0  0  0  2  0  0  0  0  0  0
  185.8950  179.7130  142.3350 N   0  0  0  0  0  2  0  0  0  0  0  0
  184.8380  179.6900  143.3300 C   0  0  0  0  0  2  0  0  0  0  0  0
  186.3650  178.3440  144.7690 C   0  0  0  0  0  2  0  0  0  0  0  0
  186.1460  178.3120  146.2340 C   0  0  0  0  0  0  0  0  0  0  0  0
  184.0080  178.5440  145.3700 C   0  0  0  0  0  2  0  0  0  0  0  0
  184.9600  178.4430  144.1840 C   0  0  1  0  0  3  0  0  0  0  0  0
  184.8730  178.4180  146.5700 C   0  0  0  0  0  3  0  0  0  0  0  0
  188.4350  177.6760  146.8510 C   0  0  0  0  0  2  0  0  0  0  0  0
  187.2510  178.1750  147.1920 C   0  0  0  0  0  3  0  0  0  0  0  0
  1  6  1  6  0  0  0
  1  8  1  0  0  0  0
  2 13  1  0  0  0  0
  2 12  2  0  0  0  0
  3 14  1  0  0  0  0
  4  8  1  6  0  0  0
  4 15  1  0  0  0  0
  5  9  1  0  0  0  0
  5  1  1  0  0  0  0
  7 11  2  0  0  0  0
  7  4  1  0  0  0  0
  9  7  1  0  0  0  0
 10 11  1  0  0  0  0
 10 14  2  0  0  0  0
 11  2  1  0  0  0  0
 13 35  1  1  0  0  0
 14 13  1  0  0  0  0
 15 12  1  0  0  0  0
 16 17  1  1  0  0  0
 16  3  1  0  0  0  0
 18 16  1  0  0  0  0
 19 18  1  6  0  0  0
 20 27  1  1  0  0  0
 20 21  1  0  0  0  0
 20 19  1  0  0  0  0
 21 19  1  0  0  0  0
 21 22  1  1  0  0  0
 23 25  1  0  0  0  0
 25 24  1  6  0  0  0
 25 20  1  0  0  0  0
 26 24  1  6  0  0  0
 26 23  1  0  0  0  0
 26 25  1  0  0  0  0
 28 27  1  0  0  0  0
 29 28  1  6  0  0  0
 31 32  1  0  0  0  0
 31 33  1  0  0  0  0
 32 30  1  1  0  0  0
 32 34  1  0  0  0  0
 33 29  1  0  0  0  0
 34 29  1  0  0  0  0
 35 36  1  0  0  0  0
 37 38  1  0  0  0  0
 38 41  2  0  0  0  0
 38 43  1  0  0  0  0
 39 41  1  0  0  0  0
 40 36  1  6  0  0  0
 40 37  1  0  0  0  0
 40 39  1  0  0  0  0
 42 43  2  0  0  0  0
M  END
>  <MODEL>
5

>  <REMARK>
 VINA RESULT:      -7.9      4.301      7.842
  Name = 
  11 active torsions:
  status: ('A' for Active; 'I' for Inactive)
    1  A    between atoms: N_1  and  C_32
    2  A    between atoms: N_1  and  C_34
    3  A    between atoms: C_2  and  C_6
    4  A    between atoms: C_2  and  N_13
    5  A    between atoms: C_3  and  C_6
    6  A    between atoms: C_4  and  C_22
    7  A    between atoms: C_4  and  C_41
    8  A    between atoms: C_11  and  O_14
    9  A    between atoms: O_14  and  C_41
   10  A    between atoms: C_19  and  C_37
   11  A    between atoms: C_32  and  C_35
                            x       y       z     vdW  Elec       q    Type
                         _______ _______ _______ _____ _____    ______ ____

>  <TORSDO>
F 11

$$$$
=
 OpenBabel10272414073D

 43 50  0  0  1  0  0  0  0  0999 V2000
  181.3740  174.0230  136.6830 C   0  0  2  0  0  3  0  0  0  0  0  0
  183.8350  177.7600  139.1350 C   0  0  0  0  0  0  0  0  0  0  0  0
  186.9500  179.1000  137.7370 N   0  0  0  0  0  2  0  0  0  0  0  0
  182.2990  175.4250  138.6020 C   0  0  2  0  0  3  0  0  0  0  0  0
  182.3010  174.6550  135.6550 C   0  0  0  0  0  2  0  0  0  0  0  0
  180.0820  173.6170  136.0060 C   0  0  0  0  0  1  0  0  0  0  0  0
  183.4100  175.8840  137.6720 C   0  0  0  0  0  0  0  0  0  0  0  0
  181.0640  175.0230  137.7930 C   0  0  0  0  0  2  0  0  0  0  0  0
  183.9680  174.7880  136.3650 S   0  0  0  0  0  0  0  0  0  0  0  0
  185.2590  177.4610  137.3190 N   0  0  0  0  0  0  0  0  0  0  0  0
  184.0700  177.0090  137.9420 C   0  0  0  0  0  0  0  0  0  0  0  0
  182.8890  177.4760  139.9720 N   0  0  0  0  0  0  0  0  0  0  0  0
  184.9510  178.7180  139.3180 C   0  0  2  0  0  3  0  0  0  0  0  0
  185.7420  178.4120  138.0660 C   0  0  0  0  0  0  0  0  0  0  0  0
  181.8460  176.5030  139.6230 C   0  0  0  0  0  2  0  0  0  0  0  0
  187.7420  178.7820  136.5560 C   0  0  2  0  0  3  0  0  0  0  0  0
  186.8970  178.0460  135.5270 C   0  0  0  0  0  1  0  0  0  0  0  0
  188.9780  177.9730  136.9390 C   0  0  0  0  0  2  0  0  0  0  0  0
  189.3330  178.1010  138.4230 C   0  0  2  0  0  3  0  0  0  0  0  0
  190.3200  177.0470  138.9320 C   0  0  1  0  0  0  0  0  0  0  0  0
  188.8180  176.8750  139.1620 C   0  0  1  0  0  3  0  0  0  0  0  0
  188.4520  177.2370  140.4610 O   0  0  0  0  0  1  0  0  0  0  0  0
  192.3620  176.5680  137.5050 N   0  0  0  0  0  2  0  0  0  0  0  0
  190.9100  174.7240  138.0960 N   0  0  0  0  0  2  0  0  0  0  0  0
  190.9920  176.1680  137.8470 C   0  0  2  0  0  0  0  0  0  0  0  0
  192.0930  175.4990  138.4730 C   0  0  2  0  0  3  0  0  0  0  0  0
  191.1620  177.5910  140.0880 C   0  0  0  0  0  2  0  0  0  0  0  0
  191.0020  176.7800  141.2160 O   0  0  0  0  0  0  0  0  0  0  0  0
  191.4840  177.5430  142.2810 C   0  0  1  0  0  3  0  0  0  0  0  0
  190.4850  176.8980  145.6370 N   0  0  0  0  0  1  0  0  0  0  0  0
  189.6080  178.0060  143.7210 N   0  0  0  0  0  2  0  0  0  0  0  0
  190.2750  176.8020  144.2040 C   0  0  1  0  0  3  0  0  0  0  0  0
  190.4470  178.5710  142.6710 C   0  0  0  0  0  2  0  0  0  0  0  0
  191.6070  176.6720  143.5000 C   0  0  0  0  0  2  0  0  0  0  0  0
  185.7340  178.3490  140.4860 N   0  0  0  0  0  2  0  0  0  0  0  0
  185.2510  179.1640  141.5870 C   0  0  0  0  0  2  0  0  0  0  0  0
  185.8520  178.1840  143.8000 C   0  0  0  0  0  2  0  0  0  0  0  0
  185.1750  178.6770  145.0220 C   0  0  0  0  0  0  0  0  0  0  0  0
  183.5540  178.8940  143.3810 C   0  0  0  0  0  2  0  0  0  0  0  0
  184.7790  178.2720  142.7190 C   0  0  1  0  0  3  0  0  0  0  0  0
  183.9300  179.0620  144.8060 C   0  0  0  0  0  3  0  0  0  0  0  0
  186.9480  178.0260  146.5900 C   0  0  0  0  0  2  0  0  0  0  0  0
  185.8450  178.7210  146.3290 C   0  0  0  0  0  3  0  0  0  0  0  0
  1  6  1  6  0  0  0
  1  8  1  0  0  0  0
  2 13  1  0  0  0  0
  2 12  2  0  0  0  0
  3 14  1  0  0  0  0
  4  8  1  6  0  0  0
  4 15  1  0  0  0  0
  5  9  1  0  0  0  0
  5  1  1  0  0  0  0
  7 11  2  0  0  0  0
  7  4  1  0  0  0  0
  9  7  1  0  0  0  0
 10 11  1  0  0  0  0
 10 14  2  0  0  0  0
 11  2  1  0  0  0  0
 13 35  1  1  0  0  0
 14 13  1  0  0  0  0
 15 12  1  0  0  0  0
 16 17  1  6  0  0  0
 16 18  1  0  0  0  0
 16  3  1  0  0  0  0
 19 18  1  6  0  0  0
 19 20  1  0  0  0  0
 19 21  1  0  0  0  0
 20 21  1  0  0  0  0
 20 27  1  1  0  0  0
 21 22  1  1  0  0  0
 24 26  1  0  0  0  0
 25 23  1  6  0  0  0
 25 24  1  0  0  0  0
 25 26  1  0  0  0  0
 25 20  1  0  0  0  0
 26 23  1  6  0  0  0
 27 28  1  0  0  0  0
 29 28  1  6  0  0  0
 29 33  1  0  0  0  0
 29 34  1  0  0  0  0
 31 32  1  0  0  0  0
 32 30  1  1  0  0  0
 33 31  1  0  0  0  0
 34 32  1  0  0  0  0
 35 36  1  0  0  0  0
 37 38  1  0  0  0  0
 38 43  1  0  0  0  0
 39 41  1  0  0  0  0
 40 36  1  6  0  0  0
 40 39  1  0  0  0  0
 40 37  1  0  0  0  0
 41 38  2  0  0  0  0
 43 42  2  0  0  0  0
M  END
>  <MODEL>
6

>  <REMARK>
 VINA RESULT:      -7.7      3.270      7.176
  Name = 
  11 active torsions:
  status: ('A' for Active; 'I' for Inactive)
    1  A    between atoms: N_1  and  C_32
    2  A    between atoms: N_1  and  C_34
    3  A    between atoms: C_2  and  C_6
    4  A    between atoms: C_2  and  N_13
    5  A    between atoms: C_3  and  C_6
    6  A    between atoms: C_4  and  C_22
    7  A    between atoms: C_4  and  C_41
    8  A    between atoms: C_11  and  O_14
    9  A    between atoms: O_14  and  C_41
   10  A    between atoms: C_19  and  C_37
   11  A    between atoms: C_32  and  C_35
                            x       y       z     vdW  Elec       q    Type
                         _______ _______ _______ _____ _____    ______ ____

>  <TORSDO>
F 11

$$$$
=
 OpenBabel10272414073D

 43 50  0  0  1  0  0  0  0  0999 V2000
  181.6020  178.7650  139.6510 C   0  0  2  0  0  3  0  0  0  0  0  0
  186.3530  178.7470  141.5090 C   0  0  0  0  0  0  0  0  0  0  0  0
  189.1890  178.2990  139.2270 N   0  0  0  0  0  2  0  0  0  0  0  0
  183.5490  178.3470  141.2430 C   0  0  2  0  0  3  0  0  0  0  0  0
  182.5130  179.0390  138.4630 C   0  0  0  0  0  2  0  0  0  0  0  0
  180.3270  179.5680  139.4960 C   0  0  0  0  0  1  0  0  0  0  0  0
  184.4760  178.3510  140.0390 C   0  0  0  0  0  0  0  0  0  0  0  0
  182.2940  179.1720  140.9490 C   0  0  0  0  0  2  0  0  0  0  0  0
  183.8490  177.8080  138.4470 S   0  0  0  0  0  0  0  0  0  0  0  0
  186.8010  178.4140  139.2500 N   0  0  0  0  0  0  0  0  0  0  0  0
  185.7760  178.5880  140.2110 C   0  0  0  0  0  0  0  0  0  0  0  0
  185.6480  178.7970  142.5940 N   0  0  0  0  0  0  0  0  0  0  0  0
  187.8260  178.6270  141.3890 C   0  0  2  0  0  3  0  0  0  0  0  0
  187.9330  178.4480  139.8910 C   0  0  0  0  0  0  0  0  0  0  0  0
  184.1870  178.9300  142.5320 C   0  0  0  0  0  2  0  0  0  0  0  0
  189.3010  178.0820  137.7910 C   0  0  2  0  0  3  0  0  0  0  0  0
  187.9270  178.0970  137.1380 C   0  0  0  0  0  1  0  0  0  0  0  0
  190.0390  176.7780  137.4990 C   0  0  0  0  0  2  0  0  0  0  0  0
  191.5500  176.9730  137.3580 C   0  0  2  0  0  3  0  0  0  0  0  0
  192.3040  175.7420  136.8470 C   0  0  1  0  0  0  0  0  0  0  0  0
  192.2610  176.0570  138.3420 C   0  0  1  0  0  3  0  0  0  0  0  0
  193.4420  176.6670  138.7730 O   0  0  0  0  0  1  0  0  0  0  0  0
  191.9260  173.9350  135.1070 N   0  0  0  0  0  2  0  0  0  0  0  0
  191.0710  173.5790  137.3430 N   0  0  0  0  0  2  0  0  0  0  0  0
  191.4240  174.5770  136.3260 C   0  0  2  0  0  0  0  0  0  0  0  0
  192.2040  173.3810  136.4360 C   0  0  2  0  0  3  0  0  0  0  0  0
  193.5570  176.1450  136.0660 C   0  0  0  0  0  2  0  0  0  0  0  0
  194.6990  175.6950  136.7360 O   0  0  0  0  0  0  0  0  0  0  0  0
  195.5210  175.1710  135.7370 C   0  0  1  0  0  3  0  0  0  0  0  0
  198.5990  173.5570  136.5120 N   0  0  0  0  0  1  0  0  0  0  0  0
  197.7840  175.7840  136.2940 N   0  0  0  0  0  2  0  0  0  0  0  0
  197.5140  174.4610  136.8470 C   0  0  1  0  0  3  0  0  0  0  0  0
  196.6460  176.1390  135.4540 C   0  0  0  0  0  2  0  0  0  0  0  0
  196.2200  173.9470  136.2590 C   0  0  0  0  0  2  0  0  0  0  0  0
  188.2790  177.4160  142.0540 N   0  0  0  0  0  2  0  0  0  0  0  0
  189.0960  177.8380  143.1780 C   0  0  0  0  0  2  0  0  0  0  0  0
  189.7080  177.3620  145.5480 C   0  0  0  0  0  2  0  0  0  0  0  0
  188.7170  177.6120  146.6200 C   0  0  0  0  0  0  0  0  0  0  0  0
  187.4100  177.0120  144.8030 C   0  0  0  0  0  2  0  0  0  0  0  0
  188.8650  176.9140  144.3580 C   0  0  1  0  0  3  0  0  0  0  0  0
  187.4700  177.4240  146.2280 C   0  0  0  0  0  3  0  0  0  0  0  0
  188.2220  178.3400  148.9120 C   0  0  0  0  0  2  0  0  0  0  0  0
  189.1100  178.0260  147.9740 C   0  0  0  0  0  3  0  0  0  0  0  0
  1  6  1  6  0  0  0
  1  8  1  0  0  0  0
  2 12  2  0  0  0  0
  3 14  1  0  0  0  0
  4  8  1  6  0  0  0
  4 15  1  0  0  0  0
  5  1  1  0  0  0  0
  7 11  2  0  0  0  0
  7  4  1  0  0  0  0
  9  5  1  0  0  0  0
  9  7  1  0  0  0  0
 10 14  2  0  0  0  0
 10 11  1  0  0  0  0
 11  2  1  0  0  0  0
 13  2  1  0  0  0  0
 13 35  1  1  0  0  0
 14 13  1  0  0  0  0
 15 12  1  0  0  0  0
 16 17  1  1  0  0  0
 16  3  1  0  0  0  0
 18 16  1  0  0  0  0
 19 18  1  1  0  0  0
 19 21  1  0  0  0  0
 20 27  1  6  0  0  0
 20 19  1  0  0  0  0
 20 21  1  0  0  0  0
 21 22  1  6  0  0  0
 25 23  1  6  0  0  0
 25 26  1  0  0  0  0
 25 20  1  0  0  0  0
 25 24  1  0  0  0  0
 26 23  1  6  0  0  0
 26 24  1  0  0  0  0
 27 28  1  0  0  0  0
 29 34  1  0  0  0  0
 29 28  1  1  0  0  0
 31 32  1  0  0  0  0
 32 30  1  6  0  0  0
 33 29  1  0  0  0  0
 33 31  1  0  0  0  0
 34 32  1  0  0  0  0
 35 36  1  0  0  0  0
 37 38  1  0  0  0  0
 38 43  1  0  0  0  0
 39 41  1  0  0  0  0
 40 36  1  6  0  0  0
 40 39  1  0  0  0  0
 40 37  1  0  0  0  0
 41 38  2  0  0  0  0
 43 42  2  0  0  0  0
M  END
>  <MODEL>
7

>  <REMARK>
 VINA RESULT:      -7.5      1.936      5.469
  Name = 
  11 active torsions:
  status: ('A' for Active; 'I' for Inactive)
    1  A    between atoms: N_1  and  C_32
    2  A    between atoms: N_1  and  C_34
    3  A    between atoms: C_2  and  C_6
    4  A    between atoms: C_2  and  N_13
    5  A    between atoms: C_3  and  C_6
    6  A    between atoms: C_4  and  C_22
    7  A    between atoms: C_4  and  C_41
    8  A    between atoms: C_11  and  O_14
    9  A    between atoms: O_14  and  C_41
   10  A    between atoms: C_19  and  C_37
   11  A    between atoms: C_32  and  C_35
                            x       y       z     vdW  Elec       q    Type
                         _______ _______ _______ _____ _____    ______ ____

>  <TORSDO>
F 11

$$$$
=
 OpenBabel10272414073D

 43 50  0  0  1  0  0  0  0  0999 V2000
  190.9650  177.1750  146.3900 C   0  0  2  0  0  3  0  0  0  0  0  0
  186.1500  177.7390  144.8010 C   0  0  0  0  0  0  0  0  0  0  0  0
  185.4850  178.5450  141.2850 N   0  0  0  0  0  2  0  0  0  0  0  0
  188.4940  177.8060  146.4110 C   0  0  2  0  0  3  0  0  0  0  0  0
  191.0070  177.0230  144.8760 C   0  0  0  0  0  2  0  0  0  0  0  0
  191.9690  176.2280  147.0140 C   0  0  0  0  0  1  0  0  0  0  0  0
  188.5570  177.9240  144.8970 C   0  0  0  0  0  0  0  0  0  0  0  0
  189.5710  176.8400  146.9130 C   0  0  0  0  0  2  0  0  0  0  0  0
  190.1020  178.4040  144.1190 S   0  0  0  0  0  0  0  0  0  0  0  0
  187.2830  178.1460  142.8100 N   0  0  0  0  0  0  0  0  0  0  0  0
  187.4350  177.8410  144.1840 C   0  0  0  0  0  0  0  0  0  0  0  0
  185.9890  177.5950  146.0770 N   0  0  0  0  0  0  0  0  0  0  0  0
  185.1130  178.0350  143.7830 C   0  0  2  0  0  3  0  0  0  0  0  0
  186.0060  178.2410  142.5800 C   0  0  0  0  0  0  0  0  0  0  0  0
  187.1320  177.2890  146.9470 C   0  0  0  0  0  2  0  0  0  0  0  0
  186.3390  178.7890  140.1300 C   0  0  2  0  0  3  0  0  0  0  0  0
  185.6720  178.2920  138.8560 C   0  0  0  0  0  1  0  0  0  0  0  0
  187.7080  178.1450  140.3270 C   0  0  0  0  0  2  0  0  0  0  0  0
  188.3290  177.6620  139.0140 C   0  0  2  0  0  3  0  0  0  0  0  0
  189.8290  177.3630  139.0930 C   0  0  1  0  0  0  0  0  0  0  0  0
  189.3350  178.6970  138.5320 C   0  0  1  0  0  3  0  0  0  0  0  0
  189.3560  178.7060  137.1350 O   0  0  0  0  0  1  0  0  0  0  0  0
  190.1330  176.1640  141.3090 N   0  0  0  0  0  2  0  0  0  0  0  0
  191.8790  177.6630  140.5590 N   0  0  0  0  0  2  0  0  0  0  0  0
  190.4440  177.3590  140.5160 C   0  0  2  0  0  0  0  0  0  0  0  0
  191.3890  176.2830  140.5610 C   0  0  2  0  0  3  0  0  0  0  0  0
  190.2300  176.2730  138.0980 C   0  0  0  0  0  2  0  0  0  0  0  0
  191.2920  176.7190  137.3060 O   0  0  0  0  0  0  0  0  0  0  0  0
  191.9830  175.5620  136.9430 C   0  0  1  0  0  3  0  0  0  0  0  0
  195.4760  175.6170  136.2550 N   0  0  0  0  0  1  0  0  0  0  0  0
  193.4510  176.1590  135.1270 N   0  0  0  0  0  2  0  0  0  0  0  0
  194.1910  176.2800  136.3780 C   0  0  1  0  0  3  0  0  0  0  0  0
  192.1700  175.5380  135.4430 C   0  0  0  0  0  2  0  0  0  0  0  0
  193.3850  175.6310  137.4810 C   0  0  0  0  0  2  0  0  0  0  0  0
  184.4440  179.2840  144.1080 N   0  0  0  0  0  2  0  0  0  0  0  0
  183.0310  178.9770  144.2500 C   0  0  0  0  0  2  0  0  0  0  0  0
  182.4240  178.5570  141.8690 C   0  0  0  0  0  2  0  0  0  0  0  0
  181.0360  178.1670  141.5290 C   0  0  0  0  0  0  0  0  0  0  0  0
  180.7760  179.5400  143.3770 C   0  0  0  0  0  2  0  0  0  0  0  0
  182.2660  179.5050  143.0540 C   0  0  1  0  0  3  0  0  0  0  0  0
  180.1360  178.6940  142.3390 C   0  0  0  0  0  3  0  0  0  0  0  0
  181.6650  176.7080  139.6570 C   0  0  0  0  0  2  0  0  0  0  0  0
  180.7220  177.2800  140.4000 C   0  0  0  0  0  3  0  0  0  0  0  0
  1  8  1  0  0  0  0
  1  6  1  1  0  0  0
  2 12  2  0  0  0  0
  3 14  1  0  0  0  0
  4  8  1  6  0  0  0
  4 15  1  0  0  0  0
  5  1  1  0  0  0  0
  7  4  1  0  0  0  0
  9  5  1  0  0  0  0
  9  7  1  0  0  0  0
 10 11  1  0  0  0  0
 11  2  1  0  0  0  0
 11  7  2  0  0  0  0
 12 15  1  0  0  0  0
 13 35  1  1  0  0  0
 13  2  1  0  0  0  0
 14 10  2  0  0  0  0
 14 13  1  0  0  0  0
 16 17  1  6  0  0  0
 16 18  1  0  0  0  0
 16  3  1  0  0  0  0
 19 20  1  0  0  0  0
 19 18  1  1  0  0  0
 20 27  1  6  0  0  0
 20 25  1  0  0  0  0
 21 22  1  6  0  0  0
 21 19  1  0  0  0  0
 21 20  1  0  0  0  0
 25 24  1  1  0  0  0
 25 26  1  0  0  0  0
 25 23  1  0  0  0  0
 26 24  1  1  0  0  0
 26 23  1  0  0  0  0
 28 27  1  0  0  0  0
 29 28  1  6  0  0  0
 29 34  1  0  0  0  0
 31 33  1  0  0  0  0
 31 32  1  0  0  0  0
 32 30  1  6  0  0  0
 32 34  1  0  0  0  0
 33 29  1  0  0  0  0
 35 36  1  0  0  0  0
 37 40  1  0  0  0  0
 38 37  1  0  0  0  0
 38 41  2  0  0  0  0
 40 39  1  0  0  0  0
 40 36  1  1  0  0  0
 41 39  1  0  0  0  0
 42 43  2  0  0  0  0
 43 38  1  0  0  0  0
M  END
>  <MODEL>
8

>  <REMARK>
 VINA RESULT:      -7.5      1.800      3.088
  Name = 
  11 active torsions:
  status: ('A' for Active; 'I' for Inactive)
    1  A    between atoms: N_1  and  C_32
    2  A    between atoms: N_1  and  C_34
    3  A    between atoms: C_2  and  C_6
    4  A    between atoms: C_2  and  N_13
    5  A    between atoms: C_3  and  C_6
    6  A    between atoms: C_4  and  C_22
    7  A    between atoms: C_4  and  C_41
    8  A    between atoms: C_11  and  O_14
    9  A    between atoms: O_14  and  C_41
   10  A    between atoms: C_19  and  C_37
   11  A    between atoms: C_32  and  C_35
                            x       y       z     vdW  Elec       q    Type
                         _______ _______ _______ _____ _____    ______ ____

>  <TORSDO>
F 11

$$$$
=
 OpenBabel10272414073D

 43 50  0  0  1  0  0  0  0  0999 V2000
  188.5070  177.2900  146.9110 C   0  0  2  0  0  3  0  0  0  0  0  0
  188.8510  178.0750  141.8820 C   0  0  0  0  0  0  0  0  0  0  0  0
  185.8450  178.9570  139.9750 N   0  0  0  0  0  2  0  0  0  0  0  0
  189.2720  177.0260  144.4920 C   0  0  2  0  0  3  0  0  0  0  0  0
  187.2600  178.0740  146.5260 C   0  0  0  0  0  2  0  0  0  0  0  0
  188.9770  177.7410  148.2780 C   0  0  0  0  0  1  0  0  0  0  0  0
  187.9210  177.5670  144.0530 C   0  0  0  0  0  0  0  0  0  0  0  0
  189.6170  177.5370  145.8930 C   0  0  0  0  0  2  0  0  0  0  0  0
  186.4830  177.2810  145.0890 S   0  0  0  0  0  0  0  0  0  0  0  0
  186.5730  178.4300  142.1910 N   0  0  0  0  0  0  0  0  0  0  0  0
  187.7870  178.0890  142.8350 C   0  0  0  0  0  0  0  0  0  0  0  0
  190.0490  177.6720  142.1660 N   0  0  0  0  0  0  0  0  0  0  0  0
  188.2910  178.3790  140.5430 C   0  0  2  0  0  3  0  0  0  0  0  0
  186.8470  178.6040  140.9310 C   0  0  0  0  0  0  0  0  0  0  0  0
  190.4450  177.4270  143.5590 C   0  0  0  0  0  2  0  0  0  0  0  0
  184.4430  179.1320  140.3310 C   0  0  2  0  0  3  0  0  0  0  0  0
  184.0260  178.1150  141.3830 C   0  0  0  0  0  1  0  0  0  0  0  0
  183.5580  179.0430  139.0910 C   0  0  0  0  0  2  0  0  0  0  0  0
  182.2770  178.2400  139.3350 C   0  0  2  0  0  3  0  0  0  0  0  0
  181.1860  178.4510  138.2830 C   0  0  1  0  0  0  0  0  0  0  0  0
  181.1340  179.2050  139.6120 C   0  0  1  0  0  3  0  0  0  0  0  0
  180.2350  178.6130  140.5030 O   0  0  0  0  0  1  0  0  0  0  0  0
  181.8450  178.4100  135.8330 N   0  0  0  0  0  2  0  0  0  0  0  0
  180.7450  180.3850  136.6980 N   0  0  0  0  0  2  0  0  0  0  0  0
  181.6080  179.2410  137.0180 C   0  0  2  0  0  0  0  0  0  0  0  0
  180.5600  179.0820  136.0550 C   0  0  2  0  0  3  0  0  0  0  0  0
  180.3120  177.2040  138.1330 C   0  0  0  0  0  2  0  0  0  0  0  0
  181.0950  176.1220  137.7190 O   0  0  0  0  0  0  0  0  0  0  0  0
  180.1990  175.2370  137.1160 C   0  0  1  0  0  3  0  0  0  0  0  0
  180.8820  171.7490  136.9030 N   0  0  0  0  0  1  0  0  0  0  0  0
  181.5010  173.7380  135.7500 N   0  0  0  0  0  2  0  0  0  0  0  0
  181.3150  173.1260  137.0610 C   0  0  1  0  0  3  0  0  0  0  0  0
  180.6650  174.9320  135.7110 C   0  0  0  0  0  2  0  0  0  0  0  0
  180.2650  173.9080  137.8160 C   0  0  0  0  0  2  0  0  0  0  0  0
  188.3860  177.2080  139.6890 N   0  0  0  0  0  2  0  0  0  0  0  0
  189.4020  177.4970  138.6920 C   0  0  0  0  0  2  0  0  0  0  0  0
  187.9880  176.0700  137.2160 C   0  0  0  0  0  2  0  0  0  0  0  0
  186.6390  176.5390  136.8240 C   0  0  0  0  0  0  0  0  0  0  0  0
  187.8570  178.5000  137.0260 C   0  0  0  0  0  2  0  0  0  0  0  0
  188.8170  177.3480  137.3010 C   0  0  1  0  0  3  0  0  0  0  0  0
  186.5570  177.8520  136.7180 C   0  0  0  0  0  3  0  0  0  0  0  0
  184.3200  176.0280  136.2030 C   0  0  0  0  0  2  0  0  0  0  0  0
  185.5220  175.6130  136.5850 C   0  0  0  0  0  3  0  0  0  0  0  0
  1  6  1  1  0  0  0
  2 12  2  0  0  0  0
  2 11  1  0  0  0  0
  3 16  1  0  0  0  0
  3 14  1  0  0  0  0
  4 15  1  6  0  0  0
  4  8  1  0  0  0  0
  5  1  1  0  0  0  0
  7  4  1  0  0  0  0
  7  9  1  0  0  0  0
  8  1  1  0  0  0  0
  9  5  1  0  0  0  0
 10 11  1  0  0  0  0
 11  7  2  0  0  0  0
 12 15  1  0  0  0  0
 13 35  1  6  0  0  0
 13 14  1  0  0  0  0
 13  2  1  0  0  0  0
 14 10  2  0  0  0  0
 16 17  1  1  0  0  0
 18 16  1  0  0  0  0
 19 18  1  6  0  0  0
 19 21  1  0  0  0  0
 20 27  1  6  0  0  0
 20 19  1  0  0  0  0
 20 21  1  0  0  0  0
 21 22  1  1  0  0  0
 24 25  1  0  0  0  0
 25 23  1  6  0  0  0
 25 20  1  0  0  0  0
 26 23  1  6  0  0  0
 26 24  1  0  0  0  0
 26 25  1  0  0  0  0
 28 27  1  0  0  0  0
 29 28  1  1  0  0  0
 29 34  1  0  0  0  0
 31 32  1  0  0  0  0
 32 30  1  6  0  0  0
 32 34  1  0  0  0  0
 33 31  1  0  0  0  0
 33 29  1  0  0  0  0
 36 35  1  0  0  0  0
 37 40  1  0  0  0  0
 38 37  1  0  0  0  0
 39 40  1  0  0  0  0
 40 36  1  1  0  0  0
 41 38  2  0  0  0  0
 41 39  1  0  0  0  0
 42 43  2  0  0  0  0
 43 38  1  0  0  0  0
M  END
>  <MODEL>
9

>  <REMARK>
 VINA RESULT:      -7.4      4.806      9.085
  Name = 
  11 active torsions:
  status: ('A' for Active; 'I' for Inactive)
    1  A    between atoms: N_1  and  C_32
    2  A    between atoms: N_1  and  C_34
    3  A    between atoms: C_2  and  C_6
    4  A    between atoms: C_2  and  N_13
    5  A    between atoms: C_3  and  C_6
    6  A    between atoms: C_4  and  C_22
    7  A    between atoms: C_4  and  C_41
    8  A    between atoms: C_11  and  O_14
    9  A    between atoms: O_14  and  C_41
   10  A    between atoms: C_19  and  C_37
   11  A    between atoms: C_32  and  C_35
                            x       y       z     vdW  Elec       q    Type
                         _______ _______ _______ _____ _____    ______ ____

>  <TORSDO>
F 11

$$$$
