=
 OpenBabel10272401503D

 28 31  0  0  1  0  0  0  0  0999 V2000
  185.6520  178.3500  144.8010 C   0  0  0  0  0  0  0  0  0  0  0  0
  182.3170  179.2610  142.4090 O   0  0  0  0  0  1  0  0  0  0  0  0
  187.2300  178.6410  141.4320 N   0  0  2  0  0  0  0  0  0  0  0  0
  184.6660  178.6800  142.5860 C   0  0  0  0  0  0  0  0  0  0  0  0
  187.0760  177.9780  142.7290 C   0  0  0  0  0  2  0  0  0  0  0  0
  183.2950  178.8990  144.5750 C   0  0  0  0  0  3  0  0  0  0  0  0
  184.8100  178.7840  141.0890 C   0  0  0  0  0  2  0  0  0  0  0  0
  183.4260  178.9490  143.1870 C   0  0  0  0  0  0  0  0  0  0  0  0
  186.1190  178.1630  140.6030 C   0  0  0  0  0  2  0  0  0  0  0  0
  184.3980  178.5990  145.3750 C   0  0  0  0  0  3  0  0  0  0  0  0
  185.7870  178.3870  143.3950 C   0  0  0  0  0  0  0  0  0  0  0  0
  189.0630  176.9860  141.5580 C   0  0  0  0  0  2  0  0  0  0  0  0
  189.2820  176.8310  138.7870 C   0  0  0  0  0  2  0  0  0  0  0  0
  191.2940  177.3140  140.3030 C   0  0  0  0  0  0  0  0  0  0  0  0
  188.5020  178.2120  140.8270 C   0  0  1  0  0  3  0  0  0  0  0  0
  188.4220  179.0410  138.5720 F   0  0  0  0  0  0  0  0  0  0  0  0
  190.6660  177.2210  139.0150 N   0  0  0  0  0  2  0  0  0  0  0  0
  188.3140  177.8870  139.3280 C   0  0  1  0  0  3  0  0  0  0  0  0
  192.5060  177.6490  140.3550 O   0  0  0  0  0  0  0  0  0  0  0  0
  190.5910  177.0090  141.6020 C   0  0  0  0  0  2  0  0  0  0  0  0
  186.7890  178.0360  145.6910 C   0  0  0  0  0  0  0  0  0  0  0  0
  187.8780  177.3170  145.1780 C   0  0  0  0  0  3  0  0  0  0  0  0
  187.8960  178.1140  147.8570 C   0  0  0  0  0  0  0  0  0  0  0  0
  188.9700  177.0060  145.9920 C   0  0  0  0  0  3  0  0  0  0  0  0
  185.7050  179.0870  147.6010 O   0  0  0  0  0  1  0  0  0  0  0  0
  186.7940  178.4200  147.0480 C   0  0  0  0  0  0  0  0  0  0  0  0
  187.9120  178.4880  149.1600 F   0  0  0  0  0  0  0  0  0  0  0  0
  188.9790  177.4080  147.3290 C   0  0  0  0  0  3  0  0  0  0  0  0
  1 10  1  0  0  0  0
  1 21  1  0  0  0  0
  2  8  1  0  0  0  0
  3  9  1  6  0  0  0
  3  5  1  0  0  0  0
  4  8  2  0  0  0  0
  4 11  1  0  0  0  0
  5 11  1  0  0  0  0
  6 10  2  0  0  0  0
  7  4  1  0  0  0  0
  8  6  1  0  0  0  0
  9  7  1  0  0  0  0
 11  1  2  0  0  0  0
 12 20  1  0  0  0  0
 13 17  1  0  0  0  0
 13 18  1  0  0  0  0
 14 19  2  0  0  0  0
 14 20  1  0  0  0  0
 15  3  1  0  0  0  0
 15 12  1  1  0  0  0
 17 14  1  0  0  0  0
 18 16  1  6  0  0  0
 18 15  1  0  0  0  0
 21 26  1  0  0  0  0
 22 21  2  0  0  0  0
 22 24  1  0  0  0  0
 23 27  1  0  0  0  0
 24 28  2  0  0  0  0
 26 25  1  0  0  0  0
 26 23  2  0  0  0  0
 28 23  1  0  0  0  0
M  END
>  <MODEL>
1

>  <REMARK>
 VINA RESULT:     -10.9      0.000      0.000
  Name = 
  2 active torsions:
  status: ('A' for Active; 'I' for Inactive)
    1  A    between atoms: C_1  and  C_2
    2  A    between atoms: N_10  and  C_13
                            x       y       z     vdW  Elec       q    Type
                         _______ _______ _______ _____ _____    ______ ____

>  <TORSDO>
F 2

$$$$
=
 OpenBabel10272401503D

 28 31  0  0  1  0  0  0  0  0999 V2000
  186.0850  178.2460  145.4190 C   0  0  0  0  0  0  0  0  0  0  0  0
  188.4330  177.9080  148.8900 O   0  0  0  0  0  1  0  0  0  0  0  0
  189.2590  176.8690  144.0190 N   0  0  2  0  0  0  0  0  0  0  0  0
  188.2480  177.8010  146.4730 C   0  0  0  0  0  0  0  0  0  0  0  0
  188.1150  177.7830  143.9620 C   0  0  0  0  0  2  0  0  0  0  0  0
  186.3240  178.3750  147.8330 C   0  0  0  0  0  3  0  0  0  0  0  0
  189.6910  177.3760  146.3750 C   0  0  0  0  0  2  0  0  0  0  0  0
  187.6710  178.0260  147.7320 C   0  0  0  0  0  0  0  0  0  0  0  0
  190.2160  177.4830  144.9440 C   0  0  0  0  0  2  0  0  0  0  0  0
  185.5390  178.4870  146.6860 C   0  0  0  0  0  3  0  0  0  0  0  0
  187.4510  177.9030  145.3100 C   0  0  0  0  0  0  0  0  0  0  0  0
  189.2020  177.7770  141.7200 C   0  0  0  0  0  2  0  0  0  0  0  0
  191.9730  177.6760  141.4770 C   0  0  0  0  0  2  0  0  0  0  0  0
  190.4000  176.6080  139.7550 C   0  0  0  0  0  0  0  0  0  0  0  0
  189.8670  176.7850  142.6820 C   0  0  1  0  0  3  0  0  0  0  0  0
  192.0710  175.9020  143.0620 F   0  0  0  0  0  0  0  0  0  0  0  0
  191.7010  176.8380  140.3180 N   0  0  0  0  0  2  0  0  0  0  0  0
  191.3870  177.0630  142.7520 C   0  0  1  0  0  3  0  0  0  0  0  0
  190.3090  175.8720  138.7390 O   0  0  0  0  0  0  0  0  0  0  0  0
  189.1320  177.2200  140.2980 C   0  0  0  0  0  2  0  0  0  0  0  0
  185.2120  178.3790  144.2340 C   0  0  0  0  0  0  0  0  0  0  0  0
  185.7320  178.0810  142.9660 C   0  0  0  0  0  3  0  0  0  0  0  0
  183.0780  178.9220  143.1990 C   0  0  0  0  0  0  0  0  0  0  0  0
  184.9340  178.1930  141.8270 C   0  0  0  0  0  3  0  0  0  0  0  0
  183.3470  179.1740  145.5810 O   0  0  0  0  0  1  0  0  0  0  0  0
  183.8770  178.8200  144.3440 C   0  0  0  0  0  0  0  0  0  0  0  0
  181.7910  179.3370  143.2980 F   0  0  0  0  0  0  0  0  0  0  0  0
  183.6060  178.6110  141.9440 C   0  0  0  0  0  3  0  0  0  0  0  0
  1 10  1  0  0  0  0
  3  5  1  6  0  0  0
  3  9  1  0  0  0  0
  4  8  2  0  0  0  0
  5 11  1  0  0  0  0
  7  4  1  0  0  0  0
  8  6  1  0  0  0  0
  8  2  1  0  0  0  0
  9  7  1  0  0  0  0
 10  6  2  0  0  0  0
 11  1  2  0  0  0  0
 11  4  1  0  0  0  0
 13 18  1  0  0  0  0
 14 20  1  0  0  0  0
 14 17  1  0  0  0  0
 15 12  1  6  0  0  0
 15 18  1  0  0  0  0
 15  3  1  0  0  0  0
 17 13  1  0  0  0  0
 18 16  1  6  0  0  0
 19 14  2  0  0  0  0
 20 12  1  0  0  0  0
 21 26  1  0  0  0  0
 21  1  1  0  0  0  0
 22 21  2  0  0  0  0
 23 27  1  0  0  0  0
 23 26  2  0  0  0  0
 24 28  2  0  0  0  0
 24 22  1  0  0  0  0
 26 25  1  0  0  0  0
 28 23  1  0  0  0  0
M  END
>  <MODEL>
2

>  <REMARK>
 VINA RESULT:     -10.8      2.544      4.805
  Name = 
  2 active torsions:
  status: ('A' for Active; 'I' for Inactive)
    1  A    between atoms: C_1  and  C_2
    2  A    between atoms: N_10  and  C_13
                            x       y       z     vdW  Elec       q    Type
                         _______ _______ _______ _____ _____    ______ ____

>  <TORSDO>
F 2

$$$$
=
 OpenBabel10272401503D

 28 31  0  0  1  0  0  0  0  0999 V2000
  187.3050  177.5890  144.7500 C   0  0  0  0  0  0  0  0  0  0  0  0
  183.4920  179.0660  145.7260 O   0  0  0  0  0  1  0  0  0  0  0  0
  186.2050  178.9900  141.4700 N   0  0  2  0  0  0  0  0  0  0  0  0
  185.1700  178.5570  144.0490 C   0  0  0  0  0  0  0  0  0  0  0  0
  186.8450  177.9470  142.2760 C   0  0  0  0  0  2  0  0  0  0  0  0
  185.5830  178.0830  146.3910 C   0  0  0  0  0  3  0  0  0  0  0  0
  184.2810  179.1320  142.9770 C   0  0  0  0  0  2  0  0  0  0  0  0
  184.7470  178.5710  145.3870 C   0  0  0  0  0  0  0  0  0  0  0  0
  184.7630  178.7500  141.5770 C   0  0  0  0  0  2  0  0  0  0  0  0
  186.8500  177.5930  146.0740 C   0  0  0  0  0  3  0  0  0  0  0  0
  186.4580  178.0720  143.7280 C   0  0  0  0  0  0  0  0  0  0  0  0
  187.6980  177.7450  139.9420 C   0  0  0  0  0  2  0  0  0  0  0  0
  185.7600  177.6210  137.9480 C   0  0  0  0  0  2  0  0  0  0  0  0
  188.1260  178.5140  137.5160 C   0  0  0  0  0  0  0  0  0  0  0  0
  186.6180  178.8260  140.0670 C   0  0  1  0  0  3  0  0  0  0  0  0
  184.7440  179.6070  138.7780 F   0  0  0  0  0  0  0  0  0  0  0  0
  186.7620  178.2870  137.1280 N   0  0  0  0  0  2  0  0  0  0  0  0
  185.4060  178.4610  139.1790 C   0  0  1  0  0  3  0  0  0  0  0  0
  188.8920  179.0900  136.7010 O   0  0  0  0  0  0  0  0  0  0  0  0
  188.7030  178.0790  138.8400 C   0  0  0  0  0  2  0  0  0  0  0  0
  188.6550  177.0590  144.4650 C   0  0  0  0  0  0  0  0  0  0  0  0
  188.8480  176.2580  143.3300 C   0  0  0  0  0  3  0  0  0  0  0  0
  191.0140  176.8070  145.0100 C   0  0  0  0  0  0  0  0  0  0  0  0
  190.1120  175.7440  143.0310 C   0  0  0  0  0  3  0  0  0  0  0  0
  189.5760  178.0650  146.4820 O   0  0  0  0  0  1  0  0  0  0  0  0
  189.7470  177.3190  145.3200 C   0  0  0  0  0  0  0  0  0  0  0  0
  192.0700  177.0610  145.8210 F   0  0  0  0  0  0  0  0  0  0  0  0
  191.1940  176.0220  143.8700 C   0  0  0  0  0  3  0  0  0  0  0  0
  1 10  1  0  0  0  0
  3  9  1  6  0  0  0
  3  5  1  0  0  0  0
  4  8  2  0  0  0  0
  5 11  1  0  0  0  0
  7  4  1  0  0  0  0
  8  2  1  0  0  0  0
  8  6  1  0  0  0  0
  9  7  1  0  0  0  0
 10  6  2  0  0  0  0
 11  4  1  0  0  0  0
 11  1  2  0  0  0  0
 13 18  1  0  0  0  0
 14 20  1  0  0  0  0
 15 12  1  1  0  0  0
 15  3  1  0  0  0  0
 17 14  1  0  0  0  0
 17 13  1  0  0  0  0
 18 16  1  6  0  0  0
 18 15  1  0  0  0  0
 19 14  2  0  0  0  0
 20 12  1  0  0  0  0
 21  1  1  0  0  0  0
 21 26  1  0  0  0  0
 22 21  2  0  0  0  0
 23 26  2  0  0  0  0
 23 27  1  0  0  0  0
 24 22  1  0  0  0  0
 24 28  2  0  0  0  0
 26 25  1  0  0  0  0
 28 23  1  0  0  0  0
M  END
>  <MODEL>
3

>  <REMARK>
 VINA RESULT:     -10.6      2.403      3.267
  Name = 
  2 active torsions:
  status: ('A' for Active; 'I' for Inactive)
    1  A    between atoms: C_1  and  C_2
    2  A    between atoms: N_10  and  C_13
                            x       y       z     vdW  Elec       q    Type
                         _______ _______ _______ _____ _____    ______ ____

>  <TORSDO>
F 2

$$$$
=
 OpenBabel10272401503D

 28 31  0  0  1  0  0  0  0  0999 V2000
  187.9370  177.6920  144.9770 C   0  0  0  0  0  0  0  0  0  0  0  0
  191.8040  176.7220  146.3110 O   0  0  0  0  0  1  0  0  0  0  0  0
  189.5810  176.6950  141.7790 N   0  0  2  0  0  0  0  0  0  0  0  0
  190.2570  177.0960  144.4800 C   0  0  0  0  0  0  0  0  0  0  0  0
  188.7080  177.5760  142.5590 C   0  0  0  0  0  2  0  0  0  0  0  0
  189.5290  177.3430  146.7800 C   0  0  0  0  0  3  0  0  0  0  0  0
  191.3330  176.7310  143.4890 C   0  0  0  0  0  2  0  0  0  0  0  0
  190.5320  177.0510  145.8550 C   0  0  0  0  0  0  0  0  0  0  0  0
  190.9500  177.1340  142.0650 C   0  0  0  0  0  2  0  0  0  0  0  0
  188.2430  177.6630  146.3440 C   0  0  0  0  0  3  0  0  0  0  0  0
  188.9520  177.4090  144.0370 C   0  0  0  0  0  0  0  0  0  0  0  0
  188.6030  178.2390  140.1130 C   0  0  0  0  0  2  0  0  0  0  0  0
  190.5760  177.6630  138.2360 C   0  0  0  0  0  2  0  0  0  0  0  0
  188.0730  177.4930  137.7000 C   0  0  0  0  0  0  0  0  0  0  0  0
  189.3010  176.8930  140.3480 C   0  0  1  0  0  3  0  0  0  0  0  0
  190.9080  175.5160  139.2080 F   0  0  0  0  0  0  0  0  0  0  0  0
  189.4580  177.2800  137.3860 N   0  0  0  0  0  2  0  0  0  0  0  0
  190.6050  176.8290  139.5200 C   0  0  1  0  0  3  0  0  0  0  0  0
  187.2070  177.1260  136.8650 O   0  0  0  0  0  0  0  0  0  0  0  0
  187.5950  178.1560  138.9680 C   0  0  0  0  0  2  0  0  0  0  0  0
  186.5600  178.0390  144.5670 C   0  0  0  0  0  0  0  0  0  0  0  0
  186.2160  177.9700  143.2090 C   0  0  0  0  0  3  0  0  0  0  0  0
  184.2950  178.7680  145.0760 C   0  0  0  0  0  0  0  0  0  0  0  0
  184.9230  178.2880  142.7880 C   0  0  0  0  0  3  0  0  0  0  0  0
  185.9180  178.5890  146.8490 O   0  0  0  0  0  1  0  0  0  0  0  0
  185.5930  178.4590  145.5030 C   0  0  0  0  0  0  0  0  0  0  0  0
  183.3570  179.1630  145.9710 F   0  0  0  0  0  0  0  0  0  0  0  0
  183.9630  178.6830  143.7220 C   0  0  0  0  0  3  0  0  0  0  0  0
  1 10  1  0  0  0  0
  3  9  1  6  0  0  0
  3  5  1  0  0  0  0
  4  8  2  0  0  0  0
  5 11  1  0  0  0  0
  7  4  1  0  0  0  0
  8  2  1  0  0  0  0
  8  6  1  0  0  0  0
  9  7  1  0  0  0  0
 10  6  2  0  0  0  0
 11  4  1  0  0  0  0
 11  1  2  0  0  0  0
 13 18  1  0  0  0  0
 14 20  1  0  0  0  0
 15 12  1  1  0  0  0
 15  3  1  0  0  0  0
 17 14  1  0  0  0  0
 17 13  1  0  0  0  0
 18 16  1  6  0  0  0
 18 15  1  0  0  0  0
 19 14  2  0  0  0  0
 20 12  1  0  0  0  0
 21  1  1  0  0  0  0
 21 26  1  0  0  0  0
 22 21  2  0  0  0  0
 23 26  2  0  0  0  0
 23 27  1  0  0  0  0
 24 22  1  0  0  0  0
 24 28  2  0  0  0  0
 26 25  1  0  0  0  0
 28 23  1  0  0  0  0
M  END
>  <MODEL>
4

>  <REMARK>
 VINA RESULT:     -10.4      2.472      4.739
  Name = 
  2 active torsions:
  status: ('A' for Active; 'I' for Inactive)
    1  A    between atoms: C_1  and  C_2
    2  A    between atoms: N_10  and  C_13
                            x       y       z     vdW  Elec       q    Type
                         _______ _______ _______ _____ _____    ______ ____

>  <TORSDO>
F 2

$$$$
=
 OpenBabel10272401503D

 28 31  0  0  1  0  0  0  0  0999 V2000
  187.4080  178.0380  145.4740 C   0  0  0  0  0  0  0  0  0  0  0  0
  183.3590  179.1630  145.5960 O   0  0  0  0  0  1  0  0  0  0  0  0
  186.6550  178.4430  141.8410 N   0  0  2  0  0  0  0  0  0  0  0  0
  185.3070  178.5040  144.3090 C   0  0  0  0  0  0  0  0  0  0  0  0
  187.2770  177.7240  142.9560 C   0  0  0  0  0  2  0  0  0  0  0  0
  185.4220  178.6690  146.7250 C   0  0  0  0  0  3  0  0  0  0  0  0
  184.5280  178.6750  143.0300 C   0  0  0  0  0  2  0  0  0  0  0  0
  184.6950  178.7810  145.5410 C   0  0  0  0  0  0  0  0  0  0  0  0
  185.2460  178.0390  141.8410 C   0  0  0  0  0  2  0  0  0  0  0  0
  186.7670  178.2980  146.6920 C   0  0  0  0  0  3  0  0  0  0  0  0
  186.6720  178.1390  144.2720 C   0  0  0  0  0  0  0  0  0  0  0  0
  186.5490  178.6000  139.3760 C   0  0  0  0  0  2  0  0  0  0  0  0
  189.3210  178.6540  139.1340 C   0  0  0  0  0  2  0  0  0  0  0  0
  187.8580  176.9890  137.8420 C   0  0  0  0  0  0  0  0  0  0  0  0
  187.2820  178.0050  140.5840 C   0  0  1  0  0  3  0  0  0  0  0  0
  189.5470  177.4610  141.1810 F   0  0  0  0  0  0  0  0  0  0  0  0
  189.1300  177.4840  138.2890 N   0  0  0  0  0  2  0  0  0  0  0  0
  188.7730  178.4140  140.5440 C   0  0  1  0  0  3  0  0  0  0  0  0
  187.8380  175.9740  137.1000 O   0  0  0  0  0  0  0  0  0  0  0  0
  186.5390  177.6330  138.1920 C   0  0  0  0  0  2  0  0  0  0  0  0
  188.8330  177.6470  145.4920 C   0  0  0  0  0  0  0  0  0  0  0  0
  189.6470  177.9850  144.4010 C   0  0  0  0  0  3  0  0  0  0  0  0
  190.7460  176.5810  146.5530 C   0  0  0  0  0  0  0  0  0  0  0  0
  190.9980  177.6330  144.3870 C   0  0  0  0  0  3  0  0  0  0  0  0
  188.5950  176.5270  147.6400 O   0  0  0  0  0  1  0  0  0  0  0  0
  189.3880  176.9230  146.5670 C   0  0  0  0  0  0  0  0  0  0  0  0
  191.2890  175.8940  147.5870 F   0  0  0  0  0  0  0  0  0  0  0  0
  191.5470  176.9350  145.4650 C   0  0  0  0  0  3  0  0  0  0  0  0
  1 21  1  0  0  0  0
  1 10  1  0  0  0  0
  3  9  1  6  0  0  0
  3  5  1  0  0  0  0
  4  8  2  0  0  0  0
  5 11  1  0  0  0  0
  7  4  1  0  0  0  0
  8  2  1  0  0  0  0
  8  6  1  0  0  0  0
  9  7  1  0  0  0  0
 10  6  2  0  0  0  0
 11  4  1  0  0  0  0
 11  1  2  0  0  0  0
 13 18  1  0  0  0  0
 14 20  1  0  0  0  0
 14 17  1  0  0  0  0
 15 12  1  6  0  0  0
 15  3  1  0  0  0  0
 17 13  1  0  0  0  0
 18 15  1  0  0  0  0
 18 16  1  6  0  0  0
 19 14  2  0  0  0  0
 20 12  1  0  0  0  0
 21 26  1  0  0  0  0
 22 21  2  0  0  0  0
 23 26  2  0  0  0  0
 23 27  1  0  0  0  0
 24 22  1  0  0  0  0
 24 28  2  0  0  0  0
 26 25  1  0  0  0  0
 28 23  1  0  0  0  0
M  END
>  <MODEL>
5

>  <REMARK>
 VINA RESULT:     -10.4      2.202      2.983
  Name = 
  2 active torsions:
  status: ('A' for Active; 'I' for Inactive)
    1  A    between atoms: C_1  and  C_2
    2  A    between atoms: N_10  and  C_13
                            x       y       z     vdW  Elec       q    Type
                         _______ _______ _______ _____ _____    ______ ____

>  <TORSDO>
F 2

$$$$
=
 OpenBabel10272401503D

 28 31  0  0  1  0  0  0  0  0999 V2000
  184.2590  178.3420  142.9740 C   0  0  0  0  0  0  0  0  0  0  0  0
  184.9920  178.7690  147.0920 O   0  0  0  0  0  1  0  0  0  0  0  0
  187.7770  177.1190  143.2180 N   0  0  2  0  0  0  0  0  0  0  0  0
  185.8160  178.2890  144.8610 C   0  0  0  0  0  0  0  0  0  0  0  0
  186.7240  177.8890  142.5510 C   0  0  0  0  0  2  0  0  0  0  0  0
  183.4850  178.8500  145.2210 C   0  0  0  0  0  3  0  0  0  0  0  0
  187.1870  178.0090  145.4220 C   0  0  0  0  0  2  0  0  0  0  0  0
  184.7670  178.6340  145.7260 C   0  0  0  0  0  0  0  0  0  0  0  0
  188.2480  177.9610  144.3220 C   0  0  0  0  0  2  0  0  0  0  0  0
  183.2340  178.7080  143.8560 C   0  0  0  0  0  3  0  0  0  0  0  0
  185.5620  178.1340  143.4790 C   0  0  0  0  0  0  0  0  0  0  0  0
  188.8180  177.9200  141.1230 C   0  0  0  0  0  2  0  0  0  0  0  0
  191.3920  177.4930  142.0920 C   0  0  0  0  0  2  0  0  0  0  0  0
  190.5850  176.5320  139.8540 C   0  0  0  0  0  0  0  0  0  0  0  0
  188.8820  176.9040  142.2700 C   0  0  1  0  0  3  0  0  0  0  0  0
  190.5860  175.7940  143.5520 F   0  0  0  0  0  0  0  0  0  0  0  0
  191.5390  176.6380  140.9220 N   0  0  0  0  0  2  0  0  0  0  0  0
  190.2480  177.0100  142.9880 C   0  0  1  0  0  3  0  0  0  0  0  0
  190.8460  175.7650  138.8920 O   0  0  0  0  0  0  0  0  0  0  0  0
  189.2930  177.3100  139.8050 C   0  0  0  0  0  2  0  0  0  0  0  0
  183.9440  178.2060  141.5370 C   0  0  0  0  0  0  0  0  0  0  0  0
  182.9720  177.2780  141.1370 C   0  0  0  0  0  3  0  0  0  0  0  0
  184.2760  178.8200  139.2060 C   0  0  0  0  0  0  0  0  0  0  0  0
  182.6470  177.1270  139.7870 C   0  0  0  0  0  3  0  0  0  0  0  0
  185.6190  179.8600  140.9170 O   0  0  0  0  0  1  0  0  0  0  0  0
  184.6120  178.9700  140.5570 C   0  0  0  0  0  0  0  0  0  0  0  0
  184.9080  179.5580  138.2590 F   0  0  0  0  0  0  0  0  0  0  0  0
  183.2980  177.9010  138.8230 C   0  0  0  0  0  3  0  0  0  0  0  0
  1 11  2  0  0  0  0
  1 10  1  0  0  0  0
  3  5  1  6  0  0  0
  3  9  1  0  0  0  0
  4  7  1  0  0  0  0
  4  8  2  0  0  0  0
  5 11  1  0  0  0  0
  6  8  1  0  0  0  0
  8  2  1  0  0  0  0
  9  7  1  0  0  0  0
 10  6  2  0  0  0  0
 11  4  1  0  0  0  0
 13 18  1  0  0  0  0
 14 17  1  0  0  0  0
 15 12  1  6  0  0  0
 15 18  1  0  0  0  0
 15  3  1  0  0  0  0
 17 13  1  0  0  0  0
 18 16  1  6  0  0  0
 19 14  2  0  0  0  0
 20 14  1  0  0  0  0
 20 12  1  0  0  0  0
 21  1  1  0  0  0  0
 22 21  1  0  0  0  0
 23 26  1  0  0  0  0
 24 22  2  0  0  0  0
 26 25  1  0  0  0  0
 26 21  2  0  0  0  0
 27 23  1  0  0  0  0
 28 23  2  0  0  0  0
 28 24  1  0  0  0  0
M  END
>  <MODEL>
6

>  <REMARK>
 VINA RESULT:     -10.3      2.116      5.212
  Name = 
  2 active torsions:
  status: ('A' for Active; 'I' for Inactive)
    1  A    between atoms: C_1  and  C_2
    2  A    between atoms: N_10  and  C_13
                            x       y       z     vdW  Elec       q    Type
                         _______ _______ _______ _____ _____    ______ ____

>  <TORSDO>
F 2

$$$$
=
 OpenBabel10272401503D

 28 31  0  0  1  0  0  0  0  0999 V2000
  186.5690  178.3120  141.6950 C   0  0  0  0  0  0  0  0  0  0  0  0
  182.9910  179.0720  143.7680 O   0  0  0  0  0  1  0  0  0  0  0  0
  187.5020  177.2830  145.1590 N   0  0  2  0  0  0  0  0  0  0  0  0
  185.3420  178.4730  143.8060 C   0  0  0  0  0  0  0  0  0  0  0  0
  187.8000  177.9500  143.8880 C   0  0  0  0  0  2  0  0  0  0  0  0
  184.2220  178.9440  141.7070 C   0  0  0  0  0  3  0  0  0  0  0  0
  185.2800  178.3010  145.3020 C   0  0  0  0  0  2  0  0  0  0  0  0
  184.1840  178.8280  143.0970 C   0  0  0  0  0  0  0  0  0  0  0  0
  186.6760  178.2250  145.9200 C   0  0  0  0  0  2  0  0  0  0  0  0
  185.4060  178.6910  141.0120 C   0  0  0  0  0  3  0  0  0  0  0  0
  186.5390  178.2050  143.1030 C   0  0  0  0  0  0  0  0  0  0  0  0
  189.9100  177.8420  145.2370 C   0  0  0  0  0  2  0  0  0  0  0  0
  189.9290  177.9220  148.0190 C   0  0  0  0  0  2  0  0  0  0  0  0
  191.5820  176.4970  146.6700 C   0  0  0  0  0  0  0  0  0  0  0  0
  188.7630  177.0540  145.8820 C   0  0  1  0  0  3  0  0  0  0  0  0
  188.0930  176.4080  148.0990 F   0  0  0  0  0  0  0  0  0  0  0  0
  190.9660  176.9060  147.9010 N   0  0  0  0  0  2  0  0  0  0  0  0
  188.6230  177.4560  147.3680 C   0  0  1  0  0  3  0  0  0  0  0  0
  192.4800  175.6170  146.7140 O   0  0  0  0  0  0  0  0  0  0  0  0
  191.2330  177.0820  145.3240 C   0  0  0  0  0  2  0  0  0  0  0  0
  187.7970  178.0570  140.9140 C   0  0  0  0  0  0  0  0  0  0  0  0
  188.9510  177.6220  141.5810 C   0  0  0  0  0  3  0  0  0  0  0  0
  189.0240  177.9990  138.8130 C   0  0  0  0  0  0  0  0  0  0  0  0
  190.1280  177.3680  140.8720 C   0  0  0  0  0  3  0  0  0  0  0  0
  186.7310  178.7450  138.8370 O   0  0  0  0  0  1  0  0  0  0  0  0
  187.8430  178.2630  139.5200 C   0  0  0  0  0  0  0  0  0  0  0  0
  189.0730  178.1860  137.4710 F   0  0  0  0  0  0  0  0  0  0  0  0
  190.1620  177.5540  139.4890 C   0  0  0  0  0  3  0  0  0  0  0  0
  1 11  1  0  0  0  0
  3  5  1  6  0  0  0
  3 15  1  0  0  0  0
  3  9  1  0  0  0  0
  4  7  1  0  0  0  0
  6  8  2  0  0  0  0
  7  9  1  0  0  0  0
  8  2  1  0  0  0  0
  8  4  1  0  0  0  0
 10  1  2  0  0  0  0
 10  6  1  0  0  0  0
 11  4  2  0  0  0  0
 11  5  1  0  0  0  0
 12 20  1  0  0  0  0
 14 19  2  0  0  0  0
 14 17  1  0  0  0  0
 15 12  1  6  0  0  0
 15 18  1  0  0  0  0
 17 13  1  0  0  0  0
 18 13  1  0  0  0  0
 18 16  1  1  0  0  0
 20 14  1  0  0  0  0
 21 22  1  0  0  0  0
 21  1  1  0  0  0  0
 23 28  2  0  0  0  0
 23 26  1  0  0  0  0
 24 22  2  0  0  0  0
 25 26  1  0  0  0  0
 26 21  2  0  0  0  0
 27 23  1  0  0  0  0
 28 24  1  0  0  0  0
M  END
>  <MODEL>
7

>  <REMARK>
 VINA RESULT:     -10.3      2.605      6.170
  Name = 
  2 active torsions:
  status: ('A' for Active; 'I' for Inactive)
    1  A    between atoms: C_1  and  C_2
    2  A    between atoms: N_10  and  C_13
                            x       y       z     vdW  Elec       q    Type
                         _______ _______ _______ _____ _____    ______ ____

>  <TORSDO>
F 2

$$$$
=
 OpenBabel10272401503D

 28 31  0  0  1  0  0  0  0  0999 V2000
  184.8720  178.4900  144.2500 C   0  0  0  0  0  0  0  0  0  0  0  0
  186.8390  178.2400  147.9570 O   0  0  0  0  0  1  0  0  0  0  0  0
  188.1490  177.0200  143.2370 N   0  0  2  0  0  0  0  0  0  0  0  0
  186.9040  178.0520  145.5390 C   0  0  0  0  0  0  0  0  0  0  0  0
  187.0340  177.9480  143.0300 C   0  0  0  0  0  2  0  0  0  0  0  0
  184.8610  178.7010  146.6710 C   0  0  0  0  0  3  0  0  0  0  0  0
  188.3420  177.6020  145.6070 C   0  0  0  0  0  2  0  0  0  0  0  0
  186.2040  178.3290  146.7230 C   0  0  0  0  0  0  0  0  0  0  0  0
  189.0150  177.6520  144.2360 C   0  0  0  0  0  2  0  0  0  0  0  0
  184.2010  178.7840  145.4440 C   0  0  0  0  0  3  0  0  0  0  0  0
  186.2350  178.1240  144.2960 C   0  0  0  0  0  0  0  0  0  0  0  0
  188.6220  178.0750  141.0520 C   0  0  0  0  0  2  0  0  0  0  0  0
  191.2920  177.2900  141.1100 C   0  0  0  0  0  2  0  0  0  0  0  0
  189.7510  176.7840  139.1230 C   0  0  0  0  0  0  0  0  0  0  0  0
  188.8910  176.8800  141.9740 C   0  0  1  0  0  3  0  0  0  0  0  0
  190.7430  175.4400  142.5040 F   0  0  0  0  0  0  0  0  0  0  0  0
  190.9810  176.6340  139.8480 N   0  0  0  0  0  2  0  0  0  0  0  0
  190.4090  176.7570  142.2420 C   0  0  1  0  0  3  0  0  0  0  0  0
  189.6200  176.1700  138.0320 O   0  0  0  0  0  0  0  0  0  0  0  0
  188.6100  177.6580  139.5810 C   0  0  0  0  0  2  0  0  0  0  0  0
  184.1290  178.5940  142.9760 C   0  0  0  0  0  0  0  0  0  0  0  0
  184.8420  178.5930  141.7690 C   0  0  0  0  0  3  0  0  0  0  0  0
  182.0560  178.8030  141.7190 C   0  0  0  0  0  0  0  0  0  0  0  0
  184.1710  178.6870  140.5480 C   0  0  0  0  0  3  0  0  0  0  0  0
  181.9930  178.7760  144.1290 O   0  0  0  0  0  1  0  0  0  0  0  0
  182.7250  178.7180  142.9470 C   0  0  0  0  0  0  0  0  0  0  0  0
  180.7050  178.9120  141.6820 F   0  0  0  0  0  0  0  0  0  0  0  0
  182.7790  178.7880  140.5240 C   0  0  0  0  0  3  0  0  0  0  0  0
  1 11  2  0  0  0  0
  1 10  1  0  0  0  0
  3  5  1  6  0  0  0
  3  9  1  0  0  0  0
  4  7  1  0  0  0  0
  4  8  2  0  0  0  0
  5 11  1  0  0  0  0
  6  8  1  0  0  0  0
  8  2  1  0  0  0  0
  9  7  1  0  0  0  0
 10  6  2  0  0  0  0
 11  4  1  0  0  0  0
 13 18  1  0  0  0  0
 14 20  1  0  0  0  0
 14 17  1  0  0  0  0
 15 12  1  6  0  0  0
 15 18  1  0  0  0  0
 15  3  1  0  0  0  0
 17 13  1  0  0  0  0
 18 16  1  6  0  0  0
 19 14  2  0  0  0  0
 20 12  1  0  0  0  0
 21  1  1  0  0  0  0
 22 21  2  0  0  0  0
 23 26  2  0  0  0  0
 24 22  1  0  0  0  0
 26 21  1  0  0  0  0
 26 25  1  0  0  0  0
 27 23  1  0  0  0  0
 28 24  2  0  0  0  0
 28 23  1  0  0  0  0
M  END
>  <MODEL>
8

>  <REMARK>
 VINA RESULT:     -10.3      2.329      4.892
  Name = 
  2 active torsions:
  status: ('A' for Active; 'I' for Inactive)
    1  A    between atoms: C_1  and  C_2
    2  A    between atoms: N_10  and  C_13
                            x       y       z     vdW  Elec       q    Type
                         _______ _______ _______ _____ _____    ______ ____

>  <TORSDO>
F 2

$$$$
=
 OpenBabel10272401503D

 28 31  0  0  1  0  0  0  0  0999 V2000
  189.0260  177.4460  145.3950 C   0  0  0  0  0  0  0  0  0  0  0  0
  187.4040  178.0800  149.2210 O   0  0  0  0  0  1  0  0  0  0  0  0
  185.7540  179.0280  144.5460 N   0  0  2  0  0  0  0  0  0  0  0  0
  187.1380  178.0950  146.8090 C   0  0  0  0  0  0  0  0  0  0  0  0
  186.7970  178.0230  144.3200 C   0  0  0  0  0  2  0  0  0  0  0  0
  189.2360  177.4120  147.8150 C   0  0  0  0  0  3  0  0  0  0  0  0
  185.7380  178.6320  146.9620 C   0  0  0  0  0  2  0  0  0  0  0  0
  187.9230  177.8650  147.9490 C   0  0  0  0  0  0  0  0  0  0  0  0
  184.9460  178.5210  145.6590 C   0  0  0  0  0  2  0  0  0  0  0  0
  189.7810  177.2010  146.5480 C   0  0  0  0  0  3  0  0  0  0  0  0
  187.6920  177.8930  145.5250 C   0  0  0  0  0  0  0  0  0  0  0  0
  185.3120  178.0470  142.3190 C   0  0  0  0  0  2  0  0  0  0  0  0
  182.5590  178.3600  142.5890 C   0  0  0  0  0  2  0  0  0  0  0  0
  183.8530  179.2460  140.5590 C   0  0  0  0  0  0  0  0  0  0  0  0
  184.9120  179.1180  143.3410 C   0  0  1  0  0  3  0  0  0  0  0  0
  182.8890  180.1850  144.0820 F   0  0  0  0  0  0  0  0  0  0  0  0
  182.6690  179.1380  141.3630 N   0  0  0  0  0  2  0  0  0  0  0  0
  183.4180  178.9640  143.7050 C   0  0  1  0  0  3  0  0  0  0  0  0
  183.8050  179.9410  139.5110 O   0  0  0  0  0  0  0  0  0  0  0  0
  185.1530  178.5520  140.8850 C   0  0  0  0  0  2  0  0  0  0  0  0
  189.6480  177.2060  144.0760 C   0  0  0  0  0  0  0  0  0  0  0  0
  189.2080  176.1230  143.3010 C   0  0  0  0  0  3  0  0  0  0  0  0
  191.2450  177.7710  142.3290 C   0  0  0  0  0  0  0  0  0  0  0  0
  189.7730  175.8700  142.0490 C   0  0  0  0  0  3  0  0  0  0  0  0
  191.1830  179.0740  144.3560 O   0  0  0  0  0  1  0  0  0  0  0  0
  190.6880  178.0240  143.5890 C   0  0  0  0  0  0  0  0  0  0  0  0
  192.2380  178.5600  141.8500 F   0  0  0  0  0  0  0  0  0  0  0  0
  190.7880  176.6970  141.5630 C   0  0  0  0  0  3  0  0  0  0  0  0
  1 11  2  0  0  0  0
  1 10  1  0  0  0  0
  3  5  1  6  0  0  0
  3  9  1  0  0  0  0
  4  7  1  0  0  0  0
  4  8  2  0  0  0  0
  5 11  1  0  0  0  0
  6  8  1  0  0  0  0
  8  2  1  0  0  0  0
  9  7  1  0  0  0  0
 10  6  2  0  0  0  0
 11  4  1  0  0  0  0
 13 18  1  0  0  0  0
 14 20  1  0  0  0  0
 14 17  1  0  0  0  0
 15 12  1  6  0  0  0
 15 18  1  0  0  0  0
 15  3  1  0  0  0  0
 17 13  1  0  0  0  0
 18 16  1  6  0  0  0
 19 14  2  0  0  0  0
 20 12  1  0  0  0  0
 21  1  1  0  0  0  0
 22 21  2  0  0  0  0
 23 26  2  0  0  0  0
 24 22  1  0  0  0  0
 26 21  1  0  0  0  0
 26 25  1  0  0  0  0
 27 23  1  0  0  0  0
 28 24  2  0  0  0  0
 28 23  1  0  0  0  0
M  END
>  <MODEL>
9

>  <REMARK>
 VINA RESULT:     -10.0      2.885      6.053
  Name = 
  2 active torsions:
  status: ('A' for Active; 'I' for Inactive)
    1  A    between atoms: C_1  and  C_2
    2  A    between atoms: N_10  and  C_13
                            x       y       z     vdW  Elec       q    Type
                         _______ _______ _______ _____ _____    ______ ____

>  <TORSDO>
F 2

$$$$
