=
 OpenBabel10262423413D

 34 38  0  0  1  0  0  0  0  0999 V2000
  190.6250  177.9580  143.1260 C   0  0  1  0  0  3  0  0  0  0  0  0
  188.7710  176.1610  142.9310 C   0  0  1  0  0  3  0  0  0  0  0  0
  189.0630  177.5730  145.0550 C   0  0  0  0  0  0  0  0  0  0  0  0
  187.5680  178.4130  147.5870 C   0  0  0  0  0  3  0  0  0  0  0  0
  189.2900  175.9880  141.6600 F   0  0  0  0  0  0  0  0  0  0  0  0
  186.8300  176.8610  144.2680 C   0  0  0  0  0  2  0  0  0  0  0  0
  189.7310  176.9330  143.8540 C   0  0  2  0  0  3  0  0  0  0  0  0
  187.0690  178.3690  146.3400 C   0  0  0  0  0  0  0  0  0  0  0  0
  189.9690  178.3870  145.9400 C   0  0  1  0  0  3  0  0  0  0  0  0
  191.1340  179.0450  144.0950 C   0  0  0  0  0  2  0  0  0  0  0  0
  187.4090  176.8270  142.8620 C   0  0  0  0  0  2  0  0  0  0  0  0
  188.8580  177.8680  148.0590 C   0  0  0  0  0  3  0  0  0  0  0  0
  189.9770  177.7950  147.3270 C   0  0  0  0  0  0  0  0  0  0  0  0
  187.7210  177.6220  145.2160 C   0  0  0  0  0  0  0  0  0  0  0  0
  191.2690  178.5250  145.3980 O   0  0  0  0  0  0  0  0  0  0  0  0
  193.0190  177.0040  149.4600 C   0  0  0  0  0  0  0  0  0  0  0  0
  193.4270  175.7830  148.9190 C   0  0  0  0  0  3  0  0  0  0  0  0
  191.1580  177.0920  147.8920 C   0  0  0  0  0  0  0  0  0  0  0  0
  192.7100  175.2140  147.8620 C   0  0  0  0  0  3  0  0  0  0  0  0
  191.8940  177.6560  148.9470 C   0  0  0  0  0  3  0  0  0  0  0  0
  191.5850  175.8670  147.3500 C   0  0  0  0  0  3  0  0  0  0  0  0
  193.7150  177.5590  150.4810 F   0  0  0  0  0  0  0  0  0  0  0  0
  191.7010  177.6740  141.2080 C   0  0  0  0  0  1  0  0  0  0  0  0
  191.7160  177.2990  142.5540 O   0  0  0  0  0  0  0  0  0  0  0  0
  185.8080  179.0190  146.1430 N   0  0  0  0  0  2  0  0  0  0  0  0
  184.5430  178.3160  146.0050 C   0  0  0  0  0  2  0  0  0  0  0  0
  183.6210  179.1040  145.0950 C   0  0  0  0  0  2  0  0  0  0  0  0
  181.7490  179.8440  143.0740 O   0  0  0  0  0  1  0  0  0  0  0  0
  183.7460  178.6100  143.6610 C   0  0  1  0  0  3  0  0  0  0  0  0
  182.4070  178.6240  142.8970 C   0  0  2  0  0  3  0  0  0  0  0  0
  183.9540  178.0290  141.1030 O   0  0  0  0  0  0  0  0  0  0  0  0
  184.7390  179.1580  141.3980 C   0  0  0  0  0  2  0  0  0  0  0  0
  184.8380  179.3800  142.9150 C   0  0  0  0  0  2  0  0  0  0  0  0
  182.6230  178.3880  141.3930 C   0  0  0  0  0  2  0  0  0  0  0  0
  1 24  1  1  0  0  0
  1  7  1  0  0  0  0
  1 10  1  0  0  0  0
  2  5  1  6  0  0  0
  2  7  1  0  0  0  0
  3 14  2  0  0  0  0
  4 12  1  0  0  0  0
  6 14  1  0  0  0  0
  7  3  1  1  0  0  0
  8  4  2  0  0  0  0
  9  3  1  6  0  0  0
  9 13  1  0  0  0  0
 10 15  1  0  0  0  0
 11  2  1  0  0  0  0
 11  6  1  0  0  0  0
 13 18  1  0  0  0  0
 13 12  2  0  0  0  0
 14  8  1  0  0  0  0
 15  9  1  0  0  0  0
 16 22  1  0  0  0  0
 17 16  2  0  0  0  0
 18 20  2  0  0  0  0
 19 17  1  0  0  0  0
 20 16  1  0  0  0  0
 21 19  2  0  0  0  0
 21 18  1  0  0  0  0
 23 24  1  0  0  0  0
 25  8  1  0  0  0  0
 26 25  1  0  0  0  0
 27 26  1  0  0  0  0
 29 27  1  1  0  0  0
 30 28  1  6  0  0  0
 30 29  1  0  0  0  0
 31 34  1  0  0  0  0
 31 32  1  0  0  0  0
 32 33  1  0  0  0  0
 33 29  1  0  0  0  0
 34 30  1  0  0  0  0
M  END
>  <MODEL>
1

>  <REMARK>
 VINA RESULT:      -7.8      0.000      0.000
  Name = 
  6 active torsions:
  status: ('A' for Active; 'I' for Inactive)
    1  A    between atoms: C_1  and  O_19
    2  A    between atoms: C_3  and  C_13
    3  A    between atoms: C_3  and  C_17
    4  A    between atoms: C_12  and  C_28
    5  A    between atoms: C_17  and  N_29
    6  A    between atoms: C_18  and  N_29
                            x       y       z     vdW  Elec       q    Type
                         _______ _______ _______ _____ _____    ______ ____

>  <TORSDO>
F 6

$$$$
=
 OpenBabel10262423413D

 34 38  0  0  1  0  0  0  0  0999 V2000
  191.6750  174.3880  136.8540 C   0  0  1  0  0  3  0  0  0  0  0  0
  193.1860  176.4320  137.3490 C   0  0  1  0  0  3  0  0  0  0  0  0
  190.7950  176.2660  138.2710 C   0  0  0  0  0  0  0  0  0  0  0  0
  188.9750  177.4670  140.4150 C   0  0  0  0  0  3  0  0  0  0  0  0
  194.1130  175.7320  136.5980 F   0  0  0  0  0  0  0  0  0  0  0  0
  192.6120  177.3380  139.5620 C   0  0  0  0  0  2  0  0  0  0  0  0
  191.7550  175.8990  137.1570 C   0  0  2  0  0  3  0  0  0  0  0  0
  190.2570  177.0930  140.5700 C   0  0  0  0  0  0  0  0  0  0  0  0
  189.4060  175.7030  138.1390 C   0  0  1  0  0  3  0  0  0  0  0  0
  190.2870  173.8170  137.2100 C   0  0  0  0  0  2  0  0  0  0  0  0
  193.5840  176.4400  138.8130 C   0  0  0  0  0  2  0  0  0  0  0  0
  188.2230  177.5940  139.1490 C   0  0  0  0  0  3  0  0  0  0  0  0
  188.4130  176.8360  138.0610 C   0  0  0  0  0  0  0  0  0  0  0  0
  191.1920  176.8530  139.4240 C   0  0  0  0  0  0  0  0  0  0  0  0
  189.2910  174.8020  137.0530 O   0  0  0  0  0  0  0  0  0  0  0  0
  185.6080  177.2560  135.5340 C   0  0  0  0  0  0  0  0  0  0  0  0
  186.3010  177.7630  134.4330 C   0  0  0  0  0  3  0  0  0  0  0  0
  187.6770  177.1740  136.8150 C   0  0  0  0  0  0  0  0  0  0  0  0
  187.6800  177.9720  134.5130 C   0  0  0  0  0  3  0  0  0  0  0  0
  186.2930  176.9600  136.7160 C   0  0  0  0  0  3  0  0  0  0  0  0
  188.3640  177.6760  135.6960 C   0  0  0  0  0  3  0  0  0  0  0  0
  184.2710  177.0490  135.4570 F   0  0  0  0  0  0  0  0  0  0  0  0
  191.6340  172.8230  135.2830 C   0  0  0  0  0  1  0  0  0  0  0  0
  191.9320  174.1720  135.4980 O   0  0  0  0  0  0  0  0  0  0  0  0
  190.7280  177.0090  141.9200 N   0  0  0  0  0  2  0  0  0  0  0  0
  190.5140  178.0390  142.9230 C   0  0  0  0  0  2  0  0  0  0  0  0
  190.2260  177.3900  144.2630 C   0  0  0  0  0  2  0  0  0  0  0  0
  187.7400  176.1820  143.5580 O   0  0  0  0  0  1  0  0  0  0  0  0
  188.9010  177.8910  144.8180 C   0  0  1  0  0  3  0  0  0  0  0  0
  187.6960  177.5290  143.9280 C   0  0  2  0  0  3  0  0  0  0  0  0
  186.5630  178.4890  145.8680 O   0  0  0  0  0  0  0  0  0  0  0  0
  187.2500  177.6010  146.7150 C   0  0  0  0  0  2  0  0  0  0  0  0
  188.7070  177.4220  146.2630 C   0  0  0  0  0  2  0  0  0  0  0  0
  186.3670  177.8020  144.6530 C   0  0  0  0  0  2  0  0  0  0  0  0
  1 24  1  6  0  0  0
  1  7  1  0  0  0  0
  1 10  1  0  0  0  0
  2  5  1  6  0  0  0
  2 11  1  0  0  0  0
  3 14  2  0  0  0  0
  4  8  2  0  0  0  0
  7  2  1  0  0  0  0
  7  3  1  1  0  0  0
  8 25  1  0  0  0  0
  9 15  1  6  0  0  0
  9  3  1  0  0  0  0
 11  6  1  0  0  0  0
 12  4  1  0  0  0  0
 13  9  1  0  0  0  0
 13 12  2  0  0  0  0
 14  6  1  0  0  0  0
 14  8  1  0  0  0  0
 15 10  1  0  0  0  0
 16 20  1  0  0  0  0
 17 19  1  0  0  0  0
 17 16  2  0  0  0  0
 18 13  1  0  0  0  0
 19 21  2  0  0  0  0
 20 18  2  0  0  0  0
 21 18  1  0  0  0  0
 22 16  1  0  0  0  0
 23 24  1  0  0  0  0
 25 26  1  0  0  0  0
 26 27  1  0  0  0  0
 29 27  1  6  0  0  0
 29 33  1  0  0  0  0
 30 28  1  1  0  0  0
 30 34  1  0  0  0  0
 30 29  1  0  0  0  0
 31 32  1  0  0  0  0
 33 32  1  0  0  0  0
 34 31  1  0  0  0  0
M  END
>  <MODEL>
2

>  <REMARK>
 VINA RESULT:      -7.6      4.902      9.239
  Name = 
  6 active torsions:
  status: ('A' for Active; 'I' for Inactive)
    1  A    between atoms: C_1  and  O_19
    2  A    between atoms: C_3  and  C_13
    3  A    between atoms: C_3  and  C_17
    4  A    between atoms: C_12  and  C_28
    5  A    between atoms: C_17  and  N_29
    6  A    between atoms: C_18  and  N_29
                            x       y       z     vdW  Elec       q    Type
                         _______ _______ _______ _____ _____    ______ ____

>  <TORSDO>
F 6

$$$$
=
 OpenBabel10262423413D

 34 38  0  0  1  0  0  0  0  0999 V2000
  186.6700  176.4810  136.3620 C   0  0  1  0  0  3  0  0  0  0  0  0
  188.4090  178.3960  136.4870 C   0  0  1  0  0  3  0  0  0  0  0  0
  186.6750  178.0250  138.3440 C   0  0  0  0  0  0  0  0  0  0  0  0
  186.1080  178.7500  141.2600 C   0  0  0  0  0  3  0  0  0  0  0  0
  188.8420  177.8700  135.2830 F   0  0  0  0  0  0  0  0  0  0  0  0
  188.9590  178.8290  138.8440 C   0  0  0  0  0  2  0  0  0  0  0  0
  187.0030  177.9000  136.8690 C   0  0  2  0  0  3  0  0  0  0  0  0
  187.2880  178.3630  140.7460 C   0  0  0  0  0  0  0  0  0  0  0  0
  185.3300  177.4890  138.7540 C   0  0  1  0  0  3  0  0  0  0  0  0
  185.5430  175.8380  137.1960 C   0  0  0  0  0  2  0  0  0  0  0  0
  189.4170  178.1090  137.5840 C   0  0  0  0  0  2  0  0  0  0  0  0
  184.8850  179.1250  140.5200 C   0  0  0  0  0  3  0  0  0  0  0  0
  184.5060  178.6050  139.3460 C   0  0  0  0  0  0  0  0  0  0  0  0
  187.5910  178.3690  139.2780 C   0  0  0  0  0  0  0  0  0  0  0  0
  184.6680  176.8260  137.6930 O   0  0  0  0  0  0  0  0  0  0  0  0
  181.8230  181.0530  138.2320 C   0  0  0  0  0  0  0  0  0  0  0  0
  181.0510  180.2520  137.3880 C   0  0  0  0  0  3  0  0  0  0  0  0
  183.3240  179.1830  138.6550 C   0  0  0  0  0  0  0  0  0  0  0  0
  181.4050  178.9170  137.1770 C   0  0  0  0  0  3  0  0  0  0  0  0
  182.9500  180.5200  138.8640 C   0  0  0  0  0  3  0  0  0  0  0  0
  182.5330  178.3850  137.8090 C   0  0  0  0  0  3  0  0  0  0  0  0
  181.4790  182.3470  138.4410 F   0  0  0  0  0  0  0  0  0  0  0  0
  186.5900  175.2940  134.4910 C   0  0  0  0  0  1  0  0  0  0  0  0
  186.2760  176.5470  135.0230 O   0  0  0  0  0  0  0  0  0  0  0  0
  188.3030  178.0110  141.6930 N   0  0  0  0  0  2  0  0  0  0  0  0
  188.1480  176.9800  142.7060 C   0  0  0  0  0  2  0  0  0  0  0  0
  187.9360  177.6280  144.0610 C   0  0  0  0  0  2  0  0  0  0  0  0
  190.5280  178.7640  144.4190 O   0  0  0  0  0  1  0  0  0  0  0  0
  188.9280  177.0710  145.0730 C   0  0  1  0  0  3  0  0  0  0  0  0
  190.3920  177.4100  144.7340 C   0  0  2  0  0  3  0  0  0  0  0  0
  190.6550  176.3720  146.9300 O   0  0  0  0  0  0  0  0  0  0  0  0
  189.7130  177.2650  147.4710 C   0  0  0  0  0  2  0  0  0  0  0  0
  188.5530  177.5030  146.4920 C   0  0  0  0  0  2  0  0  0  0  0  0
  191.3260  177.0760  145.9110 C   0  0  0  0  0  2  0  0  0  0  0  0
  1 24  1  6  0  0  0
  1  7  1  0  0  0  0
  1 10  1  0  0  0  0
  2  5  1  6  0  0  0
  2  7  1  0  0  0  0
  2 11  1  0  0  0  0
  3  9  1  0  0  0  0
  3 14  2  0  0  0  0
  6 14  1  0  0  0  0
  7  3  1  1  0  0  0
  8  4  2  0  0  0  0
  8 25  1  0  0  0  0
  9 15  1  6  0  0  0
  9 13  1  0  0  0  0
 10 15  1  0  0  0  0
 11  6  1  0  0  0  0
 12  4  1  0  0  0  0
 13 12  2  0  0  0  0
 14  8  1  0  0  0  0
 16 22  1  0  0  0  0
 16 20  1  0  0  0  0
 17 16  2  0  0  0  0
 18 20  2  0  0  0  0
 18 13  1  0  0  0  0
 19 17  1  0  0  0  0
 19 21  2  0  0  0  0
 21 18  1  0  0  0  0
 23 24  1  0  0  0  0
 25 26  1  0  0  0  0
 26 27  1  0  0  0  0
 29 27  1  6  0  0  0
 29 33  1  0  0  0  0
 30 28  1  1  0  0  0
 30 29  1  0  0  0  0
 30 34  1  0  0  0  0
 31 32  1  0  0  0  0
 33 32  1  0  0  0  0
 34 31  1  0  0  0  0
M  END
>  <MODEL>
3

>  <REMARK>
 VINA RESULT:      -7.1      4.303      9.764
  Name = 
  6 active torsions:
  status: ('A' for Active; 'I' for Inactive)
    1  A    between atoms: C_1  and  O_19
    2  A    between atoms: C_3  and  C_13
    3  A    between atoms: C_3  and  C_17
    4  A    between atoms: C_12  and  C_28
    5  A    between atoms: C_17  and  N_29
    6  A    between atoms: C_18  and  N_29
                            x       y       z     vdW  Elec       q    Type
                         _______ _______ _______ _____ _____    ______ ____

>  <TORSDO>
F 6

$$$$
=
 OpenBabel10262423413D

 34 38  0  0  1  0  0  0  0  0999 V2000
  185.8170  179.1700  145.2990 C   0  0  1  0  0  3  0  0  0  0  0  0
  186.9820  176.9030  144.8440 C   0  0  1  0  0  3  0  0  0  0  0  0
  185.9900  178.3160  142.9430 C   0  0  0  0  0  0  0  0  0  0  0  0
  186.1010  178.6450  139.9050 C   0  0  0  0  0  3  0  0  0  0  0  0
  187.1770  176.9060  146.2130 F   0  0  0  0  0  0  0  0  0  0  0  0
  188.0440  176.9770  142.6270 C   0  0  0  0  0  2  0  0  0  0  0  0
  185.9110  177.9180  144.4040 C   0  0  2  0  0  3  0  0  0  0  0  0
  187.1470  178.4670  140.7300 C   0  0  0  0  0  0  0  0  0  0  0  0
  184.9940  179.3550  142.5030 C   0  0  1  0  0  3  0  0  0  0  0  0
  185.1690  180.3500  144.5460 C   0  0  0  0  0  2  0  0  0  0  0  0
  188.2960  177.1320  144.1190 C   0  0  0  0  0  2  0  0  0  0  0  0
  184.6660  178.5060  140.2300 C   0  0  0  0  0  3  0  0  0  0  0  0
  184.1160  178.7780  141.4200 C   0  0  0  0  0  0  0  0  0  0  0  0
  187.0140  177.9600  142.1350 C   0  0  0  0  0  0  0  0  0  0  0  0
  184.2500  179.8810  143.5860 O   0  0  0  0  0  0  0  0  0  0  0  0
  180.7160  178.4100  143.0740 C   0  0  0  0  0  0  0  0  0  0  0  0
  179.9820  177.7880  142.0610 C   0  0  0  0  0  3  0  0  0  0  0  0
  182.6820  178.4550  141.6380 C   0  0  0  0  0  0  0  0  0  0  0  0
  180.5910  177.4920  140.8390 C   0  0  0  0  0  3  0  0  0  0  0  0
  182.0580  178.7370  142.8640 C   0  0  0  0  0  3  0  0  0  0  0  0
  181.9340  177.8210  140.6310 C   0  0  0  0  0  3  0  0  0  0  0  0
  180.1280  178.6940  144.2610 F   0  0  0  0  0  0  0  0  0  0  0  0
  185.8790  179.2140  147.5150 C   0  0  0  0  0  1  0  0  0  0  0  0
  185.0610  178.8740  146.4350 O   0  0  0  0  0  0  0  0  0  0  0  0
  188.4410  178.7110  140.1680 N   0  0  0  0  0  2  0  0  0  0  0  0
  188.7910  178.4420  138.7820 C   0  0  0  0  0  2  0  0  0  0  0  0
  189.3490  177.0370  138.6640 C   0  0  0  0  0  2  0  0  0  0  0  0
  191.0510  176.4650  140.8810 O   0  0  0  0  0  1  0  0  0  0  0  0
  190.8660  177.0800  138.5480 C   0  0  1  0  0  3  0  0  0  0  0  0
  191.5700  177.3130  139.8990 C   0  0  2  0  0  3  0  0  0  0  0  0
  193.4880  176.8870  138.4460 O   0  0  0  0  0  0  0  0  0  0  0  0
  192.9070  175.6770  138.0250 C   0  0  0  0  0  2  0  0  0  0  0  0
  191.3900  175.8300  137.8370 C   0  0  0  0  0  2  0  0  0  0  0  0
  193.0850  177.0720  139.7840 C   0  0  0  0  0  2  0  0  0  0  0  0
  1 24  1  1  0  0  0
  2  5  1  1  0  0  0
  4 12  1  0  0  0  0
  4  8  2  0  0  0  0
  6 11  1  0  0  0  0
  7  3  1  6  0  0  0
  7  2  1  0  0  0  0
  7  1  1  0  0  0  0
  8 14  1  0  0  0  0
  9 13  1  6  0  0  0
  9  3  1  0  0  0  0
  9 15  1  0  0  0  0
 10  1  1  0  0  0  0
 11  2  1  0  0  0  0
 12 13  2  0  0  0  0
 13 18  1  0  0  0  0
 14  6  1  0  0  0  0
 14  3  2  0  0  0  0
 15 10  1  0  0  0  0
 16 22  1  0  0  0  0
 17 16  2  0  0  0  0
 18 20  2  0  0  0  0
 19 17  1  0  0  0  0
 20 16  1  0  0  0  0
 21 19  2  0  0  0  0
 21 18  1  0  0  0  0
 24 23  1  0  0  0  0
 25  8  1  0  0  0  0
 26 25  1  0  0  0  0
 27 26  1  0  0  0  0
 29 27  1  1  0  0  0
 29 30  1  0  0  0  0
 30 28  1  1  0  0  0
 31 34  1  0  0  0  0
 32 31  1  0  0  0  0
 33 32  1  0  0  0  0
 33 29  1  0  0  0  0
 34 30  1  0  0  0  0
M  END
>  <MODEL>
4

>  <REMARK>
 VINA RESULT:      -7.0      3.735      8.934
  Name = 
  6 active torsions:
  status: ('A' for Active; 'I' for Inactive)
    1  A    between atoms: C_1  and  O_19
    2  A    between atoms: C_3  and  C_13
    3  A    between atoms: C_3  and  C_17
    4  A    between atoms: C_12  and  C_28
    5  A    between atoms: C_17  and  N_29
    6  A    between atoms: C_18  and  N_29
                            x       y       z     vdW  Elec       q    Type
                         _______ _______ _______ _____ _____    ______ ____

>  <TORSDO>
F 6

$$$$
=
 OpenBabel10262423413D

 34 38  0  0  1  0  0  0  0  0999 V2000
  185.7750  177.0670  137.2720 C   0  0  1  0  0  3  0  0  0  0  0  0
  187.4020  178.7070  138.4390 C   0  0  1  0  0  3  0  0  0  0  0  0
  185.0110  178.3400  139.2990 C   0  0  0  0  0  0  0  0  0  0  0  0
  183.2730  178.7680  141.7780 C   0  0  0  0  0  3  0  0  0  0  0  0
  188.2840  178.2830  137.4620 F   0  0  0  0  0  0  0  0  0  0  0  0
  186.8920  178.7710  140.8440 C   0  0  0  0  0  2  0  0  0  0  0  0
  185.9420  178.3560  138.1030 C   0  0  2  0  0  3  0  0  0  0  0  0
  184.5320  178.2960  141.7540 C   0  0  0  0  0  0  0  0  0  0  0  0
  183.5910  177.9370  139.0060 C   0  0  1  0  0  3  0  0  0  0  0  0
  184.3570  176.4780  137.4310 C   0  0  0  0  0  2  0  0  0  0  0  0
  187.8080  178.1590  139.7950 C   0  0  0  0  0  2  0  0  0  0  0  0
  182.5240  179.3870  140.6650 C   0  0  0  0  0  3  0  0  0  0  0  0
  182.6650  179.0700  139.3720 C   0  0  0  0  0  0  0  0  0  0  0  0
  185.4460  178.4440  140.5750 C   0  0  0  0  0  0  0  0  0  0  0  0
  183.4190  177.5030  137.6700 O   0  0  0  0  0  0  0  0  0  0  0  0
  181.1590  182.0290  137.5250 C   0  0  0  0  0  0  0  0  0  0  0  0
  180.5280  181.3940  136.4540 C   0  0  0  0  0  3  0  0  0  0  0  0
  181.9430  179.8780  138.3540 C   0  0  0  0  0  0  0  0  0  0  0  0
  180.5950  180.0040  136.3290 C   0  0  0  0  0  3  0  0  0  0  0  0
  181.8590  181.2740  138.4710 C   0  0  0  0  0  3  0  0  0  0  0  0
  181.2950  179.2500  137.2750 C   0  0  0  0  0  3  0  0  0  0  0  0
  181.0920  183.3760  137.6500 F   0  0  0  0  0  0  0  0  0  0  0  0
  186.5830  176.1830  135.4060 C   0  0  0  0  0  1  0  0  0  0  0  0
  186.0110  177.3480  135.9250 O   0  0  0  0  0  0  0  0  0  0  0  0
  185.0050  177.7010  142.9670 N   0  0  0  0  0  2  0  0  0  0  0  0
  185.6080  178.4470  144.0600 C   0  0  0  0  0  2  0  0  0  0  0  0
  186.5490  177.5440  144.8320 C   0  0  0  0  0  2  0  0  0  0  0  0
  188.8900  176.9120  146.3340 O   0  0  0  0  0  1  0  0  0  0  0  0
  187.9380  177.5750  144.2110 C   0  0  1  0  0  3  0  0  0  0  0  0
  189.0610  177.7740  145.2480 C   0  0  2  0  0  3  0  0  0  0  0  0
  190.3690  177.3590  143.2270 O   0  0  0  0  0  0  0  0  0  0  0  0
  189.6610  176.1630  143.0080 C   0  0  0  0  0  2  0  0  0  0  0  0
  188.1720  176.3340  143.3450 C   0  0  0  0  0  2  0  0  0  0  0  0
  190.4440  177.5210  144.6240 C   0  0  0  0  0  2  0  0  0  0  0  0
  1 24  1  6  0  0  0
  1 10  1  0  0  0  0
  1  7  1  0  0  0  0
  2  5  1  6  0  0  0
  2 11  1  0  0  0  0
  3 14  2  0  0  0  0
  7  2  1  0  0  0  0
  7  3  1  1  0  0  0
  8  4  2  0  0  0  0
  8 25  1  0  0  0  0
  9 15  1  6  0  0  0
  9  3  1  0  0  0  0
  9 13  1  0  0  0  0
 10 15  1  0  0  0  0
 11  6  1  0  0  0  0
 12  4  1  0  0  0  0
 13 12  2  0  0  0  0
 14  6  1  0  0  0  0
 14  8  1  0  0  0  0
 16 22  1  0  0  0  0
 16 20  1  0  0  0  0
 17 16  2  0  0  0  0
 18 20  2  0  0  0  0
 18 13  1  0  0  0  0
 19 17  1  0  0  0  0
 19 21  2  0  0  0  0
 21 18  1  0  0  0  0
 23 24  1  0  0  0  0
 25 26  1  0  0  0  0
 26 27  1  0  0  0  0
 29 27  1  1  0  0  0
 29 30  1  0  0  0  0
 30 28  1  1  0  0  0
 31 34  1  0  0  0  0
 32 31  1  0  0  0  0
 32 33  1  0  0  0  0
 33 29  1  0  0  0  0
 34 30  1  0  0  0  0
M  END
>  <MODEL>
5

>  <REMARK>
 VINA RESULT:      -6.9      4.008      9.849
  Name = 
  6 active torsions:
  status: ('A' for Active; 'I' for Inactive)
    1  A    between atoms: C_1  and  O_19
    2  A    between atoms: C_3  and  C_13
    3  A    between atoms: C_3  and  C_17
    4  A    between atoms: C_12  and  C_28
    5  A    between atoms: C_17  and  N_29
    6  A    between atoms: C_18  and  N_29
                            x       y       z     vdW  Elec       q    Type
                         _______ _______ _______ _____ _____    ______ ____

>  <TORSDO>
F 6

$$$$
=
 OpenBabel10262423413D

 34 38  0  0  1  0  0  0  0  0999 V2000
  185.3700  179.2820  144.9150 C   0  0  1  0  0  3  0  0  0  0  0  0
  186.3380  176.8850  145.0600 C   0  0  1  0  0  3  0  0  0  0  0  0
  186.4700  178.2650  142.8990 C   0  0  0  0  0  0  0  0  0  0  0  0
  187.9600  178.3850  140.2310 C   0  0  0  0  0  3  0  0  0  0  0  0
  185.9020  176.9560  146.3710 F   0  0  0  0  0  0  0  0  0  0  0  0
  188.2760  176.7090  143.5570 C   0  0  0  0  0  2  0  0  0  0  0  0
  185.7030  177.9710  144.1730 C   0  0  2  0  0  3  0  0  0  0  0  0
  188.5000  178.1560  141.4400 C   0  0  0  0  0  0  0  0  0  0  0  0
  185.9050  179.3680  142.0450 C   0  0  1  0  0  3  0  0  0  0  0  0
  185.2690  180.4700  143.9360 C   0  0  0  0  0  2  0  0  0  0  0  0
  187.8530  176.9330  145.0010 C   0  0  0  0  0  2  0  0  0  0  0  0
  186.5250  178.4110  139.8780 C   0  0  0  0  0  3  0  0  0  0  0  0
  185.5390  178.8140  140.6910 C   0  0  0  0  0  0  0  0  0  0  0  0
  187.6970  177.7570  142.6420 C   0  0  0  0  0  0  0  0  0  0  0  0
  184.8250  180.0340  142.6710 O   0  0  0  0  0  0  0  0  0  0  0  0
  182.2480  179.3640  138.8750 C   0  0  0  0  0  0  0  0  0  0  0  0
  181.4480  178.3720  139.4460 C   0  0  0  0  0  3  0  0  0  0  0  0
  184.1310  178.6510  140.2450 C   0  0  0  0  0  0  0  0  0  0  0  0
  181.9790  177.5220  140.4190 C   0  0  0  0  0  3  0  0  0  0  0  0
  183.5800  179.5040  139.2750 C   0  0  0  0  0  3  0  0  0  0  0  0
  183.3120  177.6630  140.8180 C   0  0  0  0  0  3  0  0  0  0  0  0
  181.7340  180.1920  137.9340 F   0  0  0  0  0  0  0  0  0  0  0  0
  183.2300  178.7880  144.6080 C   0  0  0  0  0  1  0  0  0  0  0  0
  184.1570  179.1360  145.5940 O   0  0  0  0  0  0  0  0  0  0  0  0
  189.9280  178.2330  141.5170 N   0  0  0  0  0  2  0  0  0  0  0  0
  190.8230  177.1580  141.1210 C   0  0  0  0  0  2  0  0  0  0  0  0
  191.1880  177.3140  139.6580 C   0  0  0  0  0  2  0  0  0  0  0  0
  189.6470  177.3400  137.2570 O   0  0  0  0  0  1  0  0  0  0  0  0
  190.8640  176.0380  138.8940 C   0  0  1  0  0  3  0  0  0  0  0  0
  189.6070  176.1640  138.0110 C   0  0  2  0  0  3  0  0  0  0  0  0
  190.4200  173.9570  137.3460 O   0  0  0  0  0  0  0  0  0  0  0  0
  191.6820  174.5050  137.0540 C   0  0  0  0  0  2  0  0  0  0  0  0
  192.0800  175.5610  138.0960 C   0  0  0  0  0  2  0  0  0  0  0  0
  189.4780  174.9640  137.0560 C   0  0  0  0  0  2  0  0  0  0  0  0
  1 24  1  6  0  0  0
  2  5  1  1  0  0  0
  4  8  2  0  0  0  0
  6 11  1  0  0  0  0
  7  3  1  6  0  0  0
  7  1  1  0  0  0  0
  7  2  1  0  0  0  0
  8 25  1  0  0  0  0
  8 14  1  0  0  0  0
  9 13  1  6  0  0  0
  9 15  1  0  0  0  0
  9  3  1  0  0  0  0
 10  1  1  0  0  0  0
 11  2  1  0  0  0  0
 12  4  1  0  0  0  0
 12 13  2  0  0  0  0
 14  3  2  0  0  0  0
 14  6  1  0  0  0  0
 15 10  1  0  0  0  0
 16 20  2  0  0  0  0
 16 17  1  0  0  0  0
 17 19  2  0  0  0  0
 18 13  1  0  0  0  0
 18 21  2  0  0  0  0
 19 21  1  0  0  0  0
 20 18  1  0  0  0  0
 22 16  1  0  0  0  0
 23 24  1  0  0  0  0
 26 25  1  0  0  0  0
 27 26  1  0  0  0  0
 29 27  1  6  0  0  0
 30 28  1  6  0  0  0
 30 29  1  0  0  0  0
 32 31  1  0  0  0  0
 32 33  1  0  0  0  0
 33 29  1  0  0  0  0
 34 31  1  0  0  0  0
 34 30  1  0  0  0  0
M  END
>  <MODEL>
6

>  <REMARK>
 VINA RESULT:      -6.9      3.965      8.992
  Name = 
  6 active torsions:
  status: ('A' for Active; 'I' for Inactive)
    1  A    between atoms: C_1  and  O_19
    2  A    between atoms: C_3  and  C_13
    3  A    between atoms: C_3  and  C_17
    4  A    between atoms: C_12  and  C_28
    5  A    between atoms: C_17  and  N_29
    6  A    between atoms: C_18  and  N_29
                            x       y       z     vdW  Elec       q    Type
                         _______ _______ _______ _____ _____    ______ ____

>  <TORSDO>
F 6

$$$$
=
 OpenBabel10262423413D

 34 38  0  0  1  0  0  0  0  0999 V2000
  185.6770  179.1500  145.2450 C   0  0  1  0  0  3  0  0  0  0  0  0
  186.8970  176.9020  144.8370 C   0  0  1  0  0  3  0  0  0  0  0  0
  185.9970  178.3210  142.8950 C   0  0  0  0  0  0  0  0  0  0  0  0
  186.2790  178.6800  139.8710 C   0  0  0  0  0  3  0  0  0  0  0  0
  187.0130  176.8940  146.2160 F   0  0  0  0  0  0  0  0  0  0  0  0
  188.0840  177.0110  142.6860 C   0  0  0  0  0  2  0  0  0  0  0  0
  185.8400  177.9070  144.3450 C   0  0  2  0  0  3  0  0  0  0  0  0
  187.2780  178.5080  140.7540 C   0  0  0  0  0  0  0  0  0  0  0  0
  185.0140  179.3500  142.4070 C   0  0  1  0  0  3  0  0  0  0  0  0
  185.0570  180.3280  144.4660 C   0  0  0  0  0  2  0  0  0  0  0  0
  188.2470  177.1550  144.1920 C   0  0  0  0  0  2  0  0  0  0  0  0
  184.8300  178.5190  140.1120 C   0  0  0  0  0  3  0  0  0  0  0  0
  184.2080  178.7730  141.2700 C   0  0  0  0  0  0  0  0  0  0  0  0
  187.0710  177.9860  142.1440 C   0  0  0  0  0  0  0  0  0  0  0  0
  184.2010  179.8560  143.4500 O   0  0  0  0  0  0  0  0  0  0  0  0
  180.6950  178.4450  142.6790 C   0  0  0  0  0  0  0  0  0  0  0  0
  180.0580  177.7240  141.6670 C   0  0  0  0  0  3  0  0  0  0  0  0
  182.7680  178.4290  141.4020 C   0  0  0  0  0  0  0  0  0  0  0  0
  180.7690  177.3470  140.5250 C   0  0  0  0  0  3  0  0  0  0  0  0
  182.0430  178.7920  142.5480 C   0  0  0  0  0  3  0  0  0  0  0  0
  182.1170  177.6940  140.3950 C   0  0  0  0  0  3  0  0  0  0  0  0
  180.0080  178.8090  143.7890 F   0  0  0  0  0  0  0  0  0  0  0  0
  185.6150  179.1600  147.4610 C   0  0  0  0  0  1  0  0  0  0  0  0
  184.8600  178.8320  146.3320 O   0  0  0  0  0  0  0  0  0  0  0  0
  188.5990  178.7750  140.2700 N   0  0  0  0  0  2  0  0  0  0  0  0
  188.9910  178.6670  138.8740 C   0  0  0  0  0  2  0  0  0  0  0  0
  189.8020  177.4020  138.6710 C   0  0  0  0  0  2  0  0  0  0  0  0
  190.6340  174.7380  138.0830 O   0  0  0  0  0  1  0  0  0  0  0  0
  189.3270  176.6650  137.4260 C   0  0  1  0  0  3  0  0  0  0  0  0
  190.2810  175.5350  136.9920 C   0  0  2  0  0  3  0  0  0  0  0  0
  188.4170  175.1850  135.4500 O   0  0  0  0  0  0  0  0  0  0  0  0
  187.5240  175.1290  136.5350 C   0  0  0  0  0  2  0  0  0  0  0  0
  187.8920  176.1660  137.6070 C   0  0  0  0  0  2  0  0  0  0  0  0
  189.6340  174.6470  135.9150 C   0  0  0  0  0  2  0  0  0  0  0  0
  1 24  1  1  0  0  0
  2  5  1  1  0  0  0
  4 12  1  0  0  0  0
  4  8  2  0  0  0  0
  6 11  1  0  0  0  0
  7  3  1  6  0  0  0
  7  2  1  0  0  0  0
  7  1  1  0  0  0  0
  8 14  1  0  0  0  0
  9 13  1  6  0  0  0
  9  3  1  0  0  0  0
  9 15  1  0  0  0  0
 10  1  1  0  0  0  0
 11  2  1  0  0  0  0
 12 13  2  0  0  0  0
 13 18  1  0  0  0  0
 14  6  1  0  0  0  0
 14  3  2  0  0  0  0
 15 10  1  0  0  0  0
 16 22  1  0  0  0  0
 17 16  2  0  0  0  0
 18 20  2  0  0  0  0
 19 17  1  0  0  0  0
 20 16  1  0  0  0  0
 21 19  2  0  0  0  0
 21 18  1  0  0  0  0
 24 23  1  0  0  0  0
 25  8  1  0  0  0  0
 26 25  1  0  0  0  0
 27 26  1  0  0  0  0
 29 33  1  0  0  0  0
 29 27  1  1  0  0  0
 30 29  1  0  0  0  0
 30 28  1  1  0  0  0
 31 34  1  0  0  0  0
 31 32  1  0  0  0  0
 32 33  1  0  0  0  0
 34 30  1  0  0  0  0
M  END
>  <MODEL>
7

>  <REMARK>
 VINA RESULT:      -6.9      3.937      8.827
  Name = 
  6 active torsions:
  status: ('A' for Active; 'I' for Inactive)
    1  A    between atoms: C_1  and  O_19
    2  A    between atoms: C_3  and  C_13
    3  A    between atoms: C_3  and  C_17
    4  A    between atoms: C_12  and  C_28
    5  A    between atoms: C_17  and  N_29
    6  A    between atoms: C_18  and  N_29
                            x       y       z     vdW  Elec       q    Type
                         _______ _______ _______ _____ _____    ______ ____

>  <TORSDO>
F 6

$$$$
=
 OpenBabel10262423413D

 34 38  0  0  1  0  0  0  0  0999 V2000
  182.7990  177.6680  135.8870 C   0  0  1  0  0  3  0  0  0  0  0  0
  182.8720  178.0520  138.4460 C   0  0  1  0  0  3  0  0  0  0  0  0
  184.8160  176.9370  137.1930 C   0  0  0  0  0  0  0  0  0  0  0  0
  187.7780  176.2450  137.5120 C   0  0  0  0  0  3  0  0  0  0  0  0
  181.6320  178.6280  138.2380 F   0  0  0  0  0  0  0  0  0  0  0  0
  185.2040  178.4140  139.1380 C   0  0  0  0  0  2  0  0  0  0  0  0
  183.3220  177.1860  137.2560 C   0  0  2  0  0  3  0  0  0  0  0  0
  187.1860  177.4060  137.8420 C   0  0  0  0  0  0  0  0  0  0  0  0
  185.2890  176.1460  136.0030 C   0  0  1  0  0  3  0  0  0  0  0  0
  183.6800  177.1430  134.7340 C   0  0  0  0  0  2  0  0  0  0  0  0
  183.9020  179.1140  138.7820 C   0  0  0  0  0  2  0  0  0  0  0  0
  187.1200  174.9770  137.1340 C   0  0  0  0  0  3  0  0  0  0  0  0
  185.9560  174.8790  136.4780 C   0  0  0  0  0  0  0  0  0  0  0  0
  185.7040  177.5620  137.9990 C   0  0  0  0  0  0  0  0  0  0  0  0
  184.2520  175.9000  135.0730 O   0  0  0  0  0  0  0  0  0  0  0  0
  183.7300  171.8350  136.9380 C   0  0  0  0  0  0  0  0  0  0  0  0
  184.2450  170.9680  135.9720 C   0  0  0  0  0  3  0  0  0  0  0  0
  185.3500  173.5350  136.2920 C   0  0  0  0  0  0  0  0  0  0  0  0
  185.3130  171.3740  135.1680 C   0  0  0  0  0  3  0  0  0  0  0  0
  184.2820  173.1090  137.0990 C   0  0  0  0  0  3  0  0  0  0  0  0
  185.8640  172.6490  135.3300 C   0  0  0  0  0  3  0  0  0  0  0  0
  182.6970  171.4410  137.7200 F   0  0  0  0  0  0  0  0  0  0  0  0
  180.8620  178.2240  134.9610 C   0  0  0  0  0  1  0  0  0  0  0  0
  181.4870  177.2220  135.7070 O   0  0  0  0  0  0  0  0  0  0  0  0
  188.0640  178.5020  138.1250 N   0  0  0  0  0  2  0  0  0  0  0  0
  189.1840  178.4300  139.0500 C   0  0  0  0  0  2  0  0  0  0  0  0
  188.7030  178.7440  140.4530 C   0  0  0  0  0  2  0  0  0  0  0  0
  190.8200  178.0380  142.2290 O   0  0  0  0  0  1  0  0  0  0  0  0
  188.6620  177.4750  141.2930 C   0  0  1  0  0  3  0  0  0  0  0  0
  190.0600  176.9840  141.7170 C   0  0  2  0  0  3  0  0  0  0  0  0
  188.6320  175.4480  142.9710 O   0  0  0  0  0  0  0  0  0  0  0  0
  187.9440  176.5390  143.5320 C   0  0  0  0  0  2  0  0  0  0  0  0
  187.7280  177.6490  142.4930 C   0  0  0  0  0  2  0  0  0  0  0  0
  189.9610  175.8780  142.7810 C   0  0  0  0  0  2  0  0  0  0  0  0
  1 24  1  6  0  0  0
  1  7  1  0  0  0  0
  2  5  1  6  0  0  0
  2 11  1  0  0  0  0
  3 14  2  0  0  0  0
  4  8  2  0  0  0  0
  7  3  1  6  0  0  0
  7  2  1  0  0  0  0
  8 14  1  0  0  0  0
  8 25  1  0  0  0  0
  9 15  1  6  0  0  0
  9 13  1  0  0  0  0
  9  3  1  0  0  0  0
 10 15  1  0  0  0  0
 10  1  1  0  0  0  0
 11  6  1  0  0  0  0
 12  4  1  0  0  0  0
 13 12  2  0  0  0  0
 14  6  1  0  0  0  0
 16 20  1  0  0  0  0
 16 22  1  0  0  0  0
 17 16  2  0  0  0  0
 18 13  1  0  0  0  0
 18 20  2  0  0  0  0
 19 21  2  0  0  0  0
 19 17  1  0  0  0  0
 21 18  1  0  0  0  0
 23 24  1  0  0  0  0
 25 26  1  0  0  0  0
 26 27  1  0  0  0  0
 29 27  1  1  0  0  0
 29 30  1  0  0  0  0
 29 33  1  0  0  0  0
 30 28  1  1  0  0  0
 30 34  1  0  0  0  0
 31 32  1  0  0  0  0
 33 32  1  0  0  0  0
 34 31  1  0  0  0  0
M  END
>  <MODEL>
8

>  <REMARK>
 VINA RESULT:      -6.8      5.814     10.726
  Name = 
  6 active torsions:
  status: ('A' for Active; 'I' for Inactive)
    1  A    between atoms: C_1  and  O_19
    2  A    between atoms: C_3  and  C_13
    3  A    between atoms: C_3  and  C_17
    4  A    between atoms: C_12  and  C_28
    5  A    between atoms: C_17  and  N_29
    6  A    between atoms: C_18  and  N_29
                            x       y       z     vdW  Elec       q    Type
                         _______ _______ _______ _____ _____    ______ ____

>  <TORSDO>
F 6

$$$$
=
 OpenBabel10262423413D

 34 38  0  0  1  0  0  0  0  0999 V2000
  192.8090  175.1840  137.5180 C   0  0  1  0  0  3  0  0  0  0  0  0
  190.7520  173.7120  136.9650 C   0  0  1  0  0  3  0  0  0  0  0  0
  190.4980  176.0760  137.9350 C   0  0  0  0  0  0  0  0  0  0  0  0
  188.4370  178.3090  138.2730 C   0  0  0  0  0  3  0  0  0  0  0  0
  191.7090  172.8060  136.5440 F   0  0  0  0  0  0  0  0  0  0  0  0
  188.8800  175.1640  136.3030 C   0  0  0  0  0  2  0  0  0  0  0  0
  191.3470  174.8220  137.8500 C   0  0  2  0  0  3  0  0  0  0  0  0
  188.6510  177.5780  137.1660 C   0  0  0  0  0  0  0  0  0  0  0  0
  191.0880  177.2000  138.7430 C   0  0  1  0  0  3  0  0  0  0  0  0
  193.1630  176.6010  138.0140 C   0  0  0  0  0  2  0  0  0  0  0  0
  190.0070  174.2890  135.7750 C   0  0  0  0  0  2  0  0  0  0  0  0
  188.9760  178.0680  139.6270 C   0  0  0  0  0  3  0  0  0  0  0  0
  190.1690  177.5230  139.8960 C   0  0  0  0  0  0  0  0  0  0  0  0
  189.4060  176.2830  137.1650 C   0  0  0  0  0  0  0  0  0  0  0  0
  192.4120  176.9260  139.1620 O   0  0  0  0  0  0  0  0  0  0  0  0
  191.5640  177.8350  143.4150 C   0  0  0  0  0  0  0  0  0  0  0  0
  191.2150  176.5990  143.9620 C   0  0  0  0  0  3  0  0  0  0  0  0
  190.5150  177.2140  141.3080 C   0  0  0  0  0  0  0  0  0  0  0  0
  190.5230  175.6640  143.1880 C   0  0  0  0  0  3  0  0  0  0  0  0
  191.2190  178.1390  142.0950 C   0  0  0  0  0  3  0  0  0  0  0  0
  190.1780  175.9690  141.8680 C   0  0  0  0  0  3  0  0  0  0  0  0
  192.2390  178.7410  144.1640 F   0  0  0  0  0  0  0  0  0  0  0  0
  194.9490  174.6390  137.7200 C   0  0  0  0  0  1  0  0  0  0  0  0
  193.6650  174.2560  138.1170 O   0  0  0  0  0  0  0  0  0  0  0  0
  188.0410  178.0610  135.9640 N   0  0  0  0  0  2  0  0  0  0  0  0
  186.6120  178.2750  135.8060 C   0  0  0  0  0  2  0  0  0  0  0  0
  185.9240  176.9470  135.5570 C   0  0  0  0  0  2  0  0  0  0  0  0
  185.5230  174.7250  137.3000 O   0  0  0  0  0  1  0  0  0  0  0  0
  184.6850  176.8220  136.4320 C   0  0  1  0  0  3  0  0  0  0  0  0
  184.3730  175.3680  136.8350 C   0  0  2  0  0  3  0  0  0  0  0  0
  182.7200  176.5800  138.1650 O   0  0  0  0  0  0  0  0  0  0  0  0
  183.7400  177.3790  138.7130 C   0  0  0  0  0  2  0  0  0  0  0  0
  184.7860  177.7450  137.6490 C   0  0  0  0  0  2  0  0  0  0  0  0
  183.2950  175.3150  137.9320 C   0  0  0  0  0  2  0  0  0  0  0  0
  1  7  1  0  0  0  0
  1 10  1  0  0  0  0
  1 24  1  1  0  0  0
  2  5  1  6  0  0  0
  2  7  1  0  0  0  0
  4 12  1  0  0  0  0
  6 14  1  0  0  0  0
  7  3  1  6  0  0  0
  8  4  2  0  0  0  0
  9  3  1  1  0  0  0
  9 15  1  0  0  0  0
  9 13  1  0  0  0  0
 10 15  1  0  0  0  0
 11  6  1  0  0  0  0
 11  2  1  0  0  0  0
 12 13  2  0  0  0  0
 13 18  1  0  0  0  0
 14  8  1  0  0  0  0
 14  3  2  0  0  0  0
 16 17  1  0  0  0  0
 16 22  1  0  0  0  0
 18 21  2  0  0  0  0
 18 20  1  0  0  0  0
 19 17  2  0  0  0  0
 20 16  2  0  0  0  0
 21 19  1  0  0  0  0
 23 24  1  0  0  0  0
 25  8  1  0  0  0  0
 26 25  1  0  0  0  0
 27 26  1  0  0  0  0
 29 27  1  1  0  0  0
 29 30  1  0  0  0  0
 29 33  1  0  0  0  0
 30 28  1  1  0  0  0
 30 34  1  0  0  0  0
 31 32  1  0  0  0  0
 33 32  1  0  0  0  0
 34 31  1  0  0  0  0
M  END
>  <MODEL>
9

>  <REMARK>
 VINA RESULT:      -6.7      4.743      7.241
  Name = 
  6 active torsions:
  status: ('A' for Active; 'I' for Inactive)
    1  A    between atoms: C_1  and  O_19
    2  A    between atoms: C_3  and  C_13
    3  A    between atoms: C_3  and  C_17
    4  A    between atoms: C_12  and  C_28
    5  A    between atoms: C_17  and  N_29
    6  A    between atoms: C_18  and  N_29
                            x       y       z     vdW  Elec       q    Type
                         _______ _______ _______ _____ _____    ______ ____

>  <TORSDO>
F 6

$$$$
