=
 OpenBabel10272415243D

 34 39  0  0  1  0  0  0  0  0999 V2000
  187.2740  178.2040  144.1720 C   0  0  0  0  0  0  0  0  0  0  0  0
  183.7810  178.6140  145.1060 C   0  0  0  0  0  3  0  0  0  0  0  0
  185.6770  178.2430  146.4750 O   0  0  0  0  0  0  0  0  0  0  0  0
  190.0260  177.5530  144.4160 N   0  0  0  0  0  0  0  0  0  0  0  0
  188.1580  178.1300  143.0530 N   0  0  0  0  0  2  0  0  0  0  0  0
  189.3350  177.8780  145.6700 C   0  0  2  0  0  3  0  0  0  0  0  0
  188.7030  176.6990  147.8900 C   0  0  0  0  0  2  0  0  0  0  0  0
  189.7660  176.9230  146.7970 C   0  0  0  0  0  2  0  0  0  0  0  0
  189.5270  177.7280  143.2220 C   0  0  0  0  0  0  0  0  0  0  0  0
  187.0560  178.0200  146.6030 C   0  0  0  0  0  0  0  0  0  0  0  0
  187.8410  177.9930  145.5150 C   0  0  0  0  0  0  0  0  0  0  0  0
  187.6680  177.8250  147.9570 C   0  0  0  0  0  2  0  0  0  0  0  0
  183.1340  178.7890  143.7930 C   0  0  0  0  0  0  0  0  0  0  0  0
  183.8600  178.7770  142.6650 C   0  0  0  0  0  3  0  0  0  0  0  0
  185.0960  178.4320  145.2150 C   0  0  0  0  0  0  0  0  0  0  0  0
  185.3580  178.6140  142.6410 C   0  0  0  0  0  2  0  0  0  0  0  0
  185.9570  178.4130  144.0110 C   0  0  0  0  0  0  0  0  0  0  0  0
  192.5500  177.3190  140.9910 C   0  0  0  0  0  3  0  0  0  0  0  0
  189.7640  177.0740  140.8190 C   0  0  0  0  0  3  0  0  0  0  0  0
  192.1550  176.2820  137.4570 C   0  0  0  0  0  0  0  0  0  0  0  0
  192.7510  176.6830  138.6630 C   0  0  0  0  0  3  0  0  0  0  0  0
  191.9590  176.9400  139.7840 C   0  0  0  0  0  0  0  0  0  0  0  0
  189.9640  176.4270  138.4920 C   0  0  0  0  0  3  0  0  0  0  0  0
  190.5550  176.8120  139.6980 C   0  0  0  0  0  0  0  0  0  0  0  0
  190.7630  176.1650  137.3740 C   0  0  0  0  0  3  0  0  0  0  0  0
  190.3560  177.4590  142.0330 C   0  0  0  0  0  0  0  0  0  0  0  0
  191.7520  177.5780  142.1090 C   0  0  0  0  0  3  0  0  0  0  0  0
  192.9820  176.0470  136.2350 C   0  0  0  0  0  3  0  0  0  0  0  0
  194.2490  176.6110  136.4060 O   0  0  0  0  0  1  0  0  0  0  0  0
  193.1080  174.6780  135.9790 O   0  0  0  0  0  1  0  0  0  0  0  0
  181.7110  178.9530  143.7500 N   0  0  0  0  0  2  0  0  0  0  0  0
  180.9470  179.1980  142.5320 C   0  0  0  0  0  3  0  0  0  0  0  0
  180.1600  177.9540  142.1780 C   0  0  0  0  0  1  0  0  0  0  0  0
  179.9820  180.3510  142.7390 C   0  0  0  0  0  1  0  0  0  0  0  0
  1 11  1  0  0  0  0
  2 15  2  0  0  0  0
  3 10  1  0  0  0  0
  4  6  1  0  0  0  0
  5  9  1  0  0  0  0
  5  1  1  0  0  0  0
  6  8  1  1  0  0  0
  7 12  1  0  0  0  0
  8  7  1  0  0  0  0
  9  4  2  0  0  0  0
 10 12  1  0  0  0  0
 11  6  1  0  0  0  0
 11 10  2  0  0  0  0
 13  2  1  0  0  0  0
 14 13  2  0  0  0  0
 15  3  1  0  0  0  0
 16 14  1  0  0  0  0
 16 17  1  0  0  0  0
 17  1  2  0  0  0  0
 17 15  1  0  0  0  0
 18 27  1  0  0  0  0
 19 26  1  0  0  0  0
 20 21  2  0  0  0  0
 21 22  1  0  0  0  0
 22 18  2  0  0  0  0
 23 24  1  0  0  0  0
 24 22  1  0  0  0  0
 24 19  2  0  0  0  0
 25 20  1  0  0  0  0
 25 23  2  0  0  0  0
 26 27  2  0  0  0  0
 26  9  1  0  0  0  0
 28 29  1  0  0  0  0
 28 20  1  0  0  0  0
 30 28  1  0  0  0  0
 31 13  1  0  0  0  0
 32 34  1  0  0  0  0
 32 31  1  0  0  0  0
 33 32  1  0  0  0  0
M  END
>  <MODEL>
1

>  <REMARK>
 VINA RESULT:     -10.2      0.000      0.000
  Name = 
  4 active torsions:
  status: ('A' for Active; 'I' for Inactive)
    1  A    between atoms: C_3  and  N_25
    2  A    between atoms: C_7  and  C_11
    3  A    between atoms: C_18  and  C_30
    4  A    between atoms: C_23  and  N_25
                            x       y       z     vdW  Elec       q    Type
                         _______ _______ _______ _____ _____    ______ ____

>  <TORSDO>
F 4

$$$$
=
 OpenBabel10272415243D

 34 39  0  0  1  0  0  0  0  0999 V2000
  183.4820  178.4790  141.1260 C   0  0  0  0  0  0  0  0  0  0  0  0
  181.6970  178.2180  137.9650 C   0  0  0  0  0  3  0  0  0  0  0  0
  180.8840  178.7750  140.1180 O   0  0  0  0  0  0  0  0  0  0  0  0
  183.9030  178.6700  143.9260 N   0  0  0  0  0  0  0  0  0  0  0  0
  184.7640  178.3120  141.7330 N   0  0  0  0  0  2  0  0  0  0  0  0
  182.6060  179.1580  143.4430 C   0  0  2  0  0  3  0  0  0  0  0  0
  180.0970  178.5610  143.7070 C   0  0  0  0  0  2  0  0  0  0  0  0
  181.4700  178.7230  144.3870 C   0  0  0  0  0  2  0  0  0  0  0  0
  184.9120  178.3490  143.1620 C   0  0  0  0  0  0  0  0  0  0  0  0
  181.1120  178.9670  141.4890 C   0  0  0  0  0  0  0  0  0  0  0  0
  182.3460  178.8270  141.9960 C   0  0  0  0  0  0  0  0  0  0  0  0
  179.9820  179.3460  142.3970 C   0  0  0  0  0  2  0  0  0  0  0  0
  182.7750  177.8230  137.0400 C   0  0  0  0  0  0  0  0  0  0  0  0
  184.0320  177.6700  137.4790 C   0  0  0  0  0  3  0  0  0  0  0  0
  181.9330  178.4260  139.2600 C   0  0  0  0  0  0  0  0  0  0  0  0
  184.4500  177.9040  138.9090 C   0  0  0  0  0  2  0  0  0  0  0  0
  183.3000  178.2790  139.8100 C   0  0  0  0  0  0  0  0  0  0  0  0
  188.5150  177.2620  143.5110 C   0  0  0  0  0  3  0  0  0  0  0  0
  186.3620  177.9630  145.1630 C   0  0  0  0  0  3  0  0  0  0  0  0
  190.0580  176.9080  146.8600 C   0  0  0  0  0  0  0  0  0  0  0  0
  189.8970  176.8960  145.4660 C   0  0  0  0  0  3  0  0  0  0  0  0
  188.6710  177.2530  144.8990 C   0  0  0  0  0  0  0  0  0  0  0  0
  187.7470  177.6070  147.1200 C   0  0  0  0  0  3  0  0  0  0  0  0
  187.5890  177.6110  145.7310 C   0  0  0  0  0  0  0  0  0  0  0  0
  188.9790  177.2540  147.6820 C   0  0  0  0  0  3  0  0  0  0  0  0
  186.2010  177.9690  143.7680 C   0  0  0  0  0  0  0  0  0  0  0  0
  187.2850  177.6180  142.9500 C   0  0  0  0  0  3  0  0  0  0  0  0
  191.3460  176.4850  147.4870 C   0  0  0  0  0  3  0  0  0  0  0  0
  192.2730  176.1640  146.4910 O   0  0  0  0  0  1  0  0  0  0  0  0
  191.8600  177.5030  148.2960 O   0  0  0  0  0  1  0  0  0  0  0  0
  182.4410  177.5900  135.6660 N   0  0  0  0  0  2  0  0  0  0  0  0
  182.2920  176.2680  135.0690 C   0  0  0  0  0  3  0  0  0  0  0  0
  183.6060  175.8500  134.4430 C   0  0  0  0  0  1  0  0  0  0  0  0
  181.9040  175.2520  136.1280 C   0  0  0  0  0  1  0  0  0  0  0  0
  1  5  1  0  0  0  0
  1 11  1  0  0  0  0
  2 15  2  0  0  0  0
  3 10  1  0  0  0  0
  5  9  1  0  0  0  0
  6  4  1  0  0  0  0
  6  8  1  1  0  0  0
  7  8  1  0  0  0  0
  9 26  1  0  0  0  0
  9  4  2  0  0  0  0
 10 11  2  0  0  0  0
 10 12  1  0  0  0  0
 11  6  1  0  0  0  0
 12  7  1  0  0  0  0
 13 14  2  0  0  0  0
 13  2  1  0  0  0  0
 14 16  1  0  0  0  0
 15 17  1  0  0  0  0
 15  3  1  0  0  0  0
 16 17  1  0  0  0  0
 17  1  2  0  0  0  0
 18 22  1  0  0  0  0
 19 24  1  0  0  0  0
 20 28  1  0  0  0  0
 20 25  1  0  0  0  0
 21 20  2  0  0  0  0
 22 21  1  0  0  0  0
 22 24  2  0  0  0  0
 23 25  2  0  0  0  0
 24 23  1  0  0  0  0
 26 19  2  0  0  0  0
 27 18  2  0  0  0  0
 27 26  1  0  0  0  0
 28 30  1  0  0  0  0
 29 28  1  0  0  0  0
 31 13  1  0  0  0  0
 32 31  1  0  0  0  0
 32 34  1  0  0  0  0
 33 32  1  0  0  0  0
M  END
>  <MODEL>
2

>  <REMARK>
 VINA RESULT:     -10.0      4.433      7.663
  Name = 
  4 active torsions:
  status: ('A' for Active; 'I' for Inactive)
    1  A    between atoms: C_3  and  N_25
    2  A    between atoms: C_7  and  C_11
    3  A    between atoms: C_18  and  C_30
    4  A    between atoms: C_23  and  N_25
                            x       y       z     vdW  Elec       q    Type
                         _______ _______ _______ _____ _____    ______ ____

>  <TORSDO>
F 4

$$$$
=
 OpenBabel10272415243D

 34 39  0  0  1  0  0  0  0  0999 V2000
  186.7940  178.3890  140.2390 C   0  0  0  0  0  0  0  0  0  0  0  0
  186.8800  178.1760  136.6080 C   0  0  0  0  0  3  0  0  0  0  0  0
  185.0580  178.6290  138.0520 O   0  0  0  0  0  0  0  0  0  0  0  0
  185.7220  178.4970  142.8650 N   0  0  0  0  0  0  0  0  0  0  0  0
  187.5940  178.2460  141.4130 N   0  0  0  0  0  2  0  0  0  0  0  0
  184.8290  178.9560  141.7940 C   0  0  2  0  0  3  0  0  0  0  0  0
  182.5670  178.2640  140.7350 C   0  0  0  0  0  2  0  0  0  0  0  0
  183.3940  178.4500  142.0220 C   0  0  0  0  0  2  0  0  0  0  0  0
  186.9930  178.2390  142.7180 C   0  0  0  0  0  0  0  0  0  0  0  0
  184.5480  178.7820  139.3490 C   0  0  0  0  0  0  0  0  0  0  0  0
  185.3580  178.6670  140.4130 C   0  0  0  0  0  0  0  0  0  0  0  0
  183.0970  179.0890  139.5590 C   0  0  0  0  0  2  0  0  0  0  0  0
  188.2950  177.8510  136.3560 C   0  0  0  0  0  0  0  0  0  0  0  0
  189.1600  177.7270  137.3730 C   0  0  0  0  0  3  0  0  0  0  0  0
  186.4140  178.3470  137.8440 C   0  0  1  0  0  3  0  0  0  0  0  0
  188.7810  177.9260  138.8180 C   0  0  0  0  0  3  0  0  0  0  0  0
  187.3160  178.2290  139.0120 C   0  0  0  0  0  0  0  0  0  0  0  0
  188.0350  177.6530  146.3030 C   0  0  0  0  0  3  0  0  0  0  0  0
  189.1290  177.4210  143.7340 C   0  0  0  0  0  3  0  0  0  0  0  0
  191.4240  176.3820  147.0950 C   0  0  0  0  0  0  0  0  0  0  0  0
  190.1140  176.8590  147.2600 C   0  0  0  0  0  3  0  0  0  0  0  0
  189.3460  177.1980  146.1430 C   0  0  0  0  0  0  0  0  0  0  0  0
  191.2050  176.6160  144.6890 C   0  0  0  0  0  3  0  0  0  0  0  0
  189.8960  177.0770  144.8490 C   0  0  0  0  0  0  0  0  0  0  0  0
  191.9670  176.2720  145.8100 C   0  0  0  0  0  3  0  0  0  0  0  0
  187.8110  177.8830  143.8920 C   0  0  0  0  0  0  0  0  0  0  0  0
  187.2730  177.9940  145.1820 C   0  0  0  0  0  3  0  0  0  0  0  0
  192.2760  176.0570  148.2790 C   0  0  0  0  0  3  0  0  0  0  0  0
  193.4060  175.3450  147.8660 O   0  0  0  0  0  1  0  0  0  0  0  0
  192.6710  177.2250  148.9380 O   0  0  0  0  0  1  0  0  0  0  0  0
  188.7190  177.6550  135.0020 N   0  0  0  0  0  2  0  0  0  0  0  0
  188.9430  176.3490  134.3910 C   0  0  0  0  0  3  0  0  0  0  0  0
  190.3670  175.9100  134.6570 C   0  0  0  0  0  1  0  0  0  0  0  0
  187.9910  175.3220  134.9790 C   0  0  0  0  0  1  0  0  0  0  0  0
  1 11  1  0  0  0  0
  1  5  1  0  0  0  0
  3 10  1  0  0  0  0
  5  9  1  0  0  0  0
  6  8  1  1  0  0  0
  6  4  1  0  0  0  0
  7  8  1  0  0  0  0
  9  4  2  0  0  0  0
  9 26  1  0  0  0  0
 10 12  1  0  0  0  0
 10 11  2  0  0  0  0
 11  6  1  0  0  0  0
 12  7  1  0  0  0  0
 13  2  2  0  0  0  0
 13 14  1  0  0  0  0
 14 16  2  0  0  0  0
 15  2  1  1  0  0  0
 15  3  1  0  0  0  0
 15 17  1  0  0  0  0
 16 17  1  0  0  0  0
 17  1  2  0  0  0  0
 19 26  2  0  0  0  0
 19 24  1  0  0  0  0
 20 21  1  0  0  0  0
 20 28  1  0  0  0  0
 22 18  1  0  0  0  0
 22 21  2  0  0  0  0
 23 24  2  0  0  0  0
 23 25  1  0  0  0  0
 24 22  1  0  0  0  0
 25 20  2  0  0  0  0
 26 27  1  0  0  0  0
 27 18  2  0  0  0  0
 28 30  1  0  0  0  0
 29 28  1  0  0  0  0
 31 13  1  0  0  0  0
 32 33  1  0  0  0  0
 32 34  1  0  0  0  0
 32 31  1  0  0  0  0
M  END
>  <MODEL>
3

>  <REMARK>
 VINA RESULT:      -9.9      3.597      8.265
  Name = 
  4 active torsions:
  status: ('A' for Active; 'I' for Inactive)
    1  A    between atoms: C_3  and  N_25
    2  A    between atoms: C_7  and  C_11
    3  A    between atoms: C_18  and  C_30
    4  A    between atoms: C_23  and  N_25
                            x       y       z     vdW  Elec       q    Type
                         _______ _______ _______ _____ _____    ______ ____

>  <TORSDO>
F 4

$$$$
=
 OpenBabel10272415243D

 34 39  0  0  1  0  0  0  0  0999 V2000
  190.4720  177.0110  138.0760 C   0  0  0  0  0  0  0  0  0  0  0  0
  192.3800  175.7090  135.2650 C   0  0  0  0  0  3  0  0  0  0  0  0
  190.1790  176.5800  135.3230 O   0  0  0  0  0  0  0  0  0  0  0  0
  188.2360  177.9100  139.5760 N   0  0  0  0  0  0  0  0  0  0  0  0
  190.5180  177.2290  139.4870 N   0  0  0  0  0  2  0  0  0  0  0  0
  188.1120  178.0250  138.1180 C   0  0  2  0  0  3  0  0  0  0  0  0
  186.6410  177.0470  136.2210 C   0  0  0  0  0  2  0  0  0  0  0  0
  186.7040  177.6120  137.6530 C   0  0  0  0  0  2  0  0  0  0  0  0
  189.3390  177.6180  140.2100 C   0  0  0  0  0  0  0  0  0  0  0  0
  189.1070  177.1190  136.0490 C   0  0  0  0  0  0  0  0  0  0  0  0
  189.2210  177.3300  137.3690 C   0  0  0  0  0  0  0  0  0  0  0  0
  187.8280  177.4770  135.3550 C   0  0  0  0  0  2  0  0  0  0  0  0
  193.6470  175.3220  135.9110 C   0  0  0  0  0  0  0  0  0  0  0  0
  193.8310  175.5100  137.2260 C   0  0  0  0  0  3  0  0  0  0  0  0
  191.3790  176.2460  135.9610 C   0  0  1  0  0  3  0  0  0  0  0  0
  192.8000  176.1370  138.1290 C   0  0  0  0  0  3  0  0  0  0  0  0
  191.5180  176.4870  137.4160 C   0  0  0  0  0  0  0  0  0  0  0  0
  190.6250  177.7470  143.7620 C   0  0  0  0  0  3  0  0  0  0  0  0
  188.1710  177.5660  142.4220 C   0  0  0  0  0  3  0  0  0  0  0  0
  188.2710  177.6450  146.6210 C   0  0  0  0  0  0  0  0  0  0  0  0
  189.4680  177.6950  145.8890 C   0  0  0  0  0  3  0  0  0  0  0  0
  189.4370  177.6760  144.4930 C   0  0  0  0  0  0  0  0  0  0  0  0
  187.0110  177.5240  144.5500 C   0  0  0  0  0  3  0  0  0  0  0  0
  188.2000  177.5900  143.8180 C   0  0  0  0  0  0  0  0  0  0  0  0
  187.0480  177.5500  145.9480 C   0  0  0  0  0  3  0  0  0  0  0  0
  189.3640  177.6330  141.6840 C   0  0  0  0  0  0  0  0  0  0  0  0
  190.5870  177.7250  142.3650 C   0  0  0  0  0  3  0  0  0  0  0  0
  188.2870  177.6180  148.1150 C   0  0  0  0  0  3  0  0  0  0  0  0
  189.4880  178.1580  148.5850 O   0  0  0  0  0  1  0  0  0  0  0  0
  187.2110  178.3450  148.6330 O   0  0  0  0  0  1  0  0  0  0  0  0
  194.6680  174.7240  135.1030 N   0  0  0  0  0  2  0  0  0  0  0  0
  196.0970  174.8080  135.3870 C   0  0  0  0  0  3  0  0  0  0  0  0
  196.8090  173.6540  134.7140 C   0  0  0  0  0  1  0  0  0  0  0  0
  196.6620  176.1140  134.8580 C   0  0  0  0  0  1  0  0  0  0  0  0
  1  5  1  0  0  0  0
  2 13  2  0  0  0  0
  3 15  1  0  0  0  0
  3 10  1  0  0  0  0
  4  9  2  0  0  0  0
  5  9  1  0  0  0  0
  6  8  1  6  0  0  0
  6  4  1  0  0  0  0
  7  8  1  0  0  0  0
  9 26  1  0  0  0  0
 10 11  2  0  0  0  0
 11  1  1  0  0  0  0
 11  6  1  0  0  0  0
 12 10  1  0  0  0  0
 12  7  1  0  0  0  0
 13 14  1  0  0  0  0
 14 16  2  0  0  0  0
 15  2  1  1  0  0  0
 15 17  1  0  0  0  0
 17  1  2  0  0  0  0
 17 16  1  0  0  0  0
 18 22  1  0  0  0  0
 19 24  1  0  0  0  0
 20 28  1  0  0  0  0
 21 20  2  0  0  0  0
 22 21  1  0  0  0  0
 23 25  2  0  0  0  0
 24 22  2  0  0  0  0
 24 23  1  0  0  0  0
 25 20  1  0  0  0  0
 26 27  1  0  0  0  0
 26 19  2  0  0  0  0
 27 18  2  0  0  0  0
 28 29  1  0  0  0  0
 28 30  1  0  0  0  0
 31 32  1  0  0  0  0
 31 13  1  0  0  0  0
 33 32  1  0  0  0  0
 34 32  1  0  0  0  0
M  END
>  <MODEL>
4

>  <REMARK>
 VINA RESULT:      -9.4      3.328     10.670
  Name = 
  4 active torsions:
  status: ('A' for Active; 'I' for Inactive)
    1  A    between atoms: C_3  and  N_25
    2  A    between atoms: C_7  and  C_11
    3  A    between atoms: C_18  and  C_30
    4  A    between atoms: C_23  and  N_25
                            x       y       z     vdW  Elec       q    Type
                         _______ _______ _______ _____ _____    ______ ____

>  <TORSDO>
F 4

$$$$
=
 OpenBabel10272415243D

 34 39  0  0  1  0  0  0  0  0999 V2000
  189.9430  177.1400  138.1040 C   0  0  0  0  0  0  0  0  0  0  0  0
  192.1230  175.7610  135.5390 C   0  0  0  0  0  3  0  0  0  0  0  0
  190.0110  176.8080  135.3230 O   0  0  0  0  0  0  0  0  0  0  0  0
  187.5940  178.1800  139.3100 N   0  0  0  0  0  0  0  0  0  0  0  0
  189.8050  177.3160  139.5150 N   0  0  0  0  0  2  0  0  0  0  0  0
  187.6870  178.3430  137.8550 C   0  0  2  0  0  3  0  0  0  0  0  0
  186.4280  177.5410  135.7360 C   0  0  0  0  0  2  0  0  0  0  0  0
  186.3310  178.0610  137.1830 C   0  0  0  0  0  2  0  0  0  0  0  0
  188.5690  177.7810  140.0810 C   0  0  0  0  0  0  0  0  0  0  0  0
  188.8920  177.4140  135.9120 C   0  0  0  0  0  0  0  0  0  0  0  0
  188.8330  177.5800  137.2420 C   0  0  0  0  0  0  0  0  0  0  0  0
  187.7560  177.8940  135.0600 C   0  0  0  0  0  2  0  0  0  0  0  0
  193.2520  175.2540  136.3400 C   0  0  0  0  0  0  0  0  0  0  0  0
  193.2610  175.3920  137.6740 C   0  0  0  0  0  3  0  0  0  0  0  0
  191.0790  176.3600  136.1080 C   0  0  1  0  0  3  0  0  0  0  0  0
  192.1640  176.0770  138.4480 C   0  0  0  0  0  3  0  0  0  0  0  0
  191.0280  176.5500  137.5760 C   0  0  0  0  0  0  0  0  0  0  0  0
  186.9180  177.8910  143.4790 C   0  0  0  0  0  3  0  0  0  0  0  0
  189.4820  177.5560  142.4000 C   0  0  0  0  0  3  0  0  0  0  0  0
  188.9230  177.4510  146.5620 C   0  0  0  0  0  0  0  0  0  0  0  0
  187.8270  177.6680  145.7120 C   0  0  0  0  0  3  0  0  0  0  0  0
  188.0090  177.6960  144.3270 C   0  0  0  0  0  0  0  0  0  0  0  0
  190.3920  177.3220  144.6330 C   0  0  0  0  0  3  0  0  0  0  0  0
  189.3010  177.5230  143.7840 C   0  0  0  0  0  0  0  0  0  0  0  0
  190.2030  177.2890  146.0190 C   0  0  0  0  0  3  0  0  0  0  0  0
  188.3860  177.7550  141.5440 C   0  0  0  0  0  0  0  0  0  0  0  0
  187.1060  177.9210  142.0940 C   0  0  0  0  0  3  0  0  0  0  0  0
  188.7560  177.4640  148.0470 C   0  0  0  0  0  3  0  0  0  0  0  0
  189.6870  178.3360  148.6200 O   0  0  0  0  0  1  0  0  0  0  0  0
  187.4620  177.8640  148.3950 O   0  0  0  0  0  1  0  0  0  0  0  0
  194.3280  174.5960  135.6600 N   0  0  0  0  0  2  0  0  0  0  0  0
  195.5820  175.2410  135.2850 C   0  0  0  0  0  3  0  0  0  0  0  0
  195.3530  176.7300  135.1370 C   0  0  0  0  0  1  0  0  0  0  0  0
  196.6350  175.0070  136.3540 C   0  0  0  0  0  1  0  0  0  0  0  0
  1  5  1  0  0  0  0
  2 13  2  0  0  0  0
  3 10  1  0  0  0  0
  3 15  1  0  0  0  0
  4  9  2  0  0  0  0
  5  9  1  0  0  0  0
  6  8  1  6  0  0  0
  6  4  1  0  0  0  0
  7  8  1  0  0  0  0
  9 26  1  0  0  0  0
 10 11  2  0  0  0  0
 11  6  1  0  0  0  0
 11  1  1  0  0  0  0
 12  7  1  0  0  0  0
 12 10  1  0  0  0  0
 13 14  1  0  0  0  0
 14 16  2  0  0  0  0
 15  2  1  1  0  0  0
 15 17  1  0  0  0  0
 17  1  2  0  0  0  0
 17 16  1  0  0  0  0
 18 22  1  0  0  0  0
 19 24  1  0  0  0  0
 20 28  1  0  0  0  0
 21 20  2  0  0  0  0
 22 21  1  0  0  0  0
 23 25  2  0  0  0  0
 24 22  2  0  0  0  0
 24 23  1  0  0  0  0
 25 20  1  0  0  0  0
 26 27  1  0  0  0  0
 26 19  2  0  0  0  0
 27 18  2  0  0  0  0
 28 30  1  0  0  0  0
 28 29  1  0  0  0  0
 31 13  1  0  0  0  0
 32 31  1  0  0  0  0
 32 34  1  0  0  0  0
 33 32  1  0  0  0  0
M  END
>  <MODEL>
5

>  <REMARK>
 VINA RESULT:      -9.3      3.244     10.495
  Name = 
  4 active torsions:
  status: ('A' for Active; 'I' for Inactive)
    1  A    between atoms: C_3  and  N_25
    2  A    between atoms: C_7  and  C_11
    3  A    between atoms: C_18  and  C_30
    4  A    between atoms: C_23  and  N_25
                            x       y       z     vdW  Elec       q    Type
                         _______ _______ _______ _____ _____    ______ ____

>  <TORSDO>
F 4

$$$$
=
 OpenBabel10272415243D

 34 39  0  0  1  0  0  0  0  0999 V2000
  185.1970  178.5550  141.6420 C   0  0  0  0  0  0  0  0  0  0  0  0
  184.3540  178.3940  138.1060 C   0  0  0  0  0  3  0  0  0  0  0  0
  182.9620  178.8230  139.9730 O   0  0  0  0  0  0  0  0  0  0  0  0
  184.8290  178.6230  144.4560 N   0  0  0  0  0  0  0  0  0  0  0  0
  186.2700  178.3960  142.5710 N   0  0  0  0  0  2  0  0  0  0  0  0
  183.6940  179.0960  143.6540 C   0  0  2  0  0  3  0  0  0  0  0  0
  181.2350  178.4160  143.1970 C   0  0  0  0  0  2  0  0  0  0  0  0
  182.3630  178.5840  144.2330 C   0  0  0  0  0  2  0  0  0  0  0  0
  186.0210  178.3690  143.9860 C   0  0  0  0  0  0  0  0  0  0  0  0
  182.7990  178.9570  141.3590 C   0  0  0  0  0  0  0  0  0  0  0  0
  183.8530  178.8280  142.1800 C   0  0  0  0  0  0  0  0  0  0  0  0
  181.4500  179.2580  141.9370 C   0  0  0  0  0  2  0  0  0  0  0  0
  185.6580  178.0750  137.4970 C   0  0  0  0  0  0  0  0  0  0  0  0
  186.7540  177.9380  138.2590 C   0  0  0  0  0  3  0  0  0  0  0  0
  184.2190  178.5460  139.4230 C   0  0  1  0  0  3  0  0  0  0  0  0
  186.7550  178.1150  139.7560 C   0  0  0  0  0  3  0  0  0  0  0  0
  185.3890  178.4130  140.3210 C   0  0  0  0  0  0  0  0  0  0  0  0
  187.9120  177.6450  147.1770 C   0  0  0  0  0  3  0  0  0  0  0  0
  188.3720  177.6290  144.4130 C   0  0  0  0  0  3  0  0  0  0  0  0
  191.4460  176.5420  147.0620 C   0  0  0  0  0  0  0  0  0  0  0  0
  190.1930  176.9270  147.5620 C   0  0  0  0  0  3  0  0  0  0  0  0
  189.1660  177.2820  146.6830 C   0  0  0  0  0  0  0  0  0  0  0  0
  190.6510  176.9000  144.7960 C   0  0  0  0  0  3  0  0  0  0  0  0
  189.3980  177.2690  145.2900 C   0  0  0  0  0  0  0  0  0  0  0  0
  191.6730  176.5400  145.6810 C   0  0  0  0  0  3  0  0  0  0  0  0
  187.1100  177.9980  144.9070 C   0  0  0  0  0  0  0  0  0  0  0  0
  186.8900  178.0010  146.2930 C   0  0  0  0  0  3  0  0  0  0  0  0
  192.5700  176.2040  147.9870 C   0  0  0  0  0  3  0  0  0  0  0  0
  192.6890  177.1930  148.9680 O   0  0  0  0  0  1  0  0  0  0  0  0
  192.3520  174.9630  148.5960 O   0  0  0  0  0  1  0  0  0  0  0  0
  185.7220  177.8990  136.0770 N   0  0  0  0  0  2  0  0  0  0  0  0
  185.7620  176.6020  135.4100 C   0  0  0  0  0  3  0  0  0  0  0  0
  187.1750  176.0590  135.4560 C   0  0  0  0  0  1  0  0  0  0  0  0
  184.8330  175.6230  136.1060 C   0  0  0  0  0  1  0  0  0  0  0  0
  1 11  1  0  0  0  0
  1  5  1  0  0  0  0
  3 10  1  0  0  0  0
  5  9  1  0  0  0  0
  6  8  1  1  0  0  0
  6  4  1  0  0  0  0
  7  8  1  0  0  0  0
  9  4  2  0  0  0  0
  9 26  1  0  0  0  0
 10 12  1  0  0  0  0
 10 11  2  0  0  0  0
 11  6  1  0  0  0  0
 12  7  1  0  0  0  0
 13  2  2  0  0  0  0
 13 14  1  0  0  0  0
 14 16  2  0  0  0  0
 15  2  1  1  0  0  0
 15  3  1  0  0  0  0
 15 17  1  0  0  0  0
 16 17  1  0  0  0  0
 17  1  2  0  0  0  0
 19 26  2  0  0  0  0
 19 24  1  0  0  0  0
 20 21  1  0  0  0  0
 20 28  1  0  0  0  0
 22 18  1  0  0  0  0
 22 21  2  0  0  0  0
 23 24  2  0  0  0  0
 23 25  1  0  0  0  0
 24 22  1  0  0  0  0
 25 20  2  0  0  0  0
 26 27  1  0  0  0  0
 27 18  2  0  0  0  0
 28 30  1  0  0  0  0
 28 29  1  0  0  0  0
 31 13  1  0  0  0  0
 32 33  1  0  0  0  0
 32 31  1  0  0  0  0
 32 34  1  0  0  0  0
M  END
>  <MODEL>
6

>  <REMARK>
 VINA RESULT:      -9.1      4.217      7.551
  Name = 
  4 active torsions:
  status: ('A' for Active; 'I' for Inactive)
    1  A    between atoms: C_3  and  N_25
    2  A    between atoms: C_7  and  C_11
    3  A    between atoms: C_18  and  C_30
    4  A    between atoms: C_23  and  N_25
                            x       y       z     vdW  Elec       q    Type
                         _______ _______ _______ _____ _____    ______ ____

>  <TORSDO>
F 4

$$$$
=
 OpenBabel10272415243D

 34 39  0  0  1  0  0  0  0  0999 V2000
  186.1890  178.4130  142.2720 C   0  0  0  0  0  0  0  0  0  0  0  0
  182.5760  178.7880  142.0630 C   0  0  0  0  0  3  0  0  0  0  0  0
  183.9680  178.6020  143.9700 O   0  0  0  0  0  0  0  0  0  0  0  0
  188.7390  177.8760  143.3970 N   0  0  0  0  0  0  0  0  0  0  0  0
  187.3720  178.2700  141.4850 N   0  0  0  0  0  2  0  0  0  0  0  0
  187.6990  178.2880  144.3470 C   0  0  2  0  0  3  0  0  0  0  0  0
  186.4260  177.2890  146.3720 C   0  0  0  0  0  2  0  0  0  0  0  0
  187.7710  177.4500  145.6360 C   0  0  0  0  0  2  0  0  0  0  0  0
  188.6270  177.9290  142.0970 C   0  0  0  0  0  0  0  0  0  0  0  0
  185.2430  178.4370  144.5290 C   0  0  0  0  0  0  0  0  0  0  0  0
  186.3220  178.3390  143.7370 C   0  0  0  0  0  0  0  0  0  0  0  0
  185.4150  178.3820  146.0160 C   0  0  0  0  0  2  0  0  0  0  0  0
  182.3590  178.8250  140.6050 C   0  0  0  0  0  0  0  0  0  0  0  0
  183.3930  178.7380  139.7560 C   0  0  0  0  0  3  0  0  0  0  0  0
  183.7960  178.6600  142.5820 C   0  0  0  0  0  0  0  0  0  0  0  0
  184.8290  178.6230  140.2020 C   0  0  0  0  0  2  0  0  0  0  0  0
  184.9830  178.5640  141.7010 C   0  0  0  0  0  0  0  0  0  0  0  0
  192.1800  177.2890  140.9790 C   0  0  0  0  0  3  0  0  0  0  0  0
  189.5930  177.2090  139.9050 C   0  0  0  0  0  3  0  0  0  0  0  0
  192.8940  176.1980  137.5110 C   0  0  0  0  0  0  0  0  0  0  0  0
  193.0880  176.5900  138.8450 C   0  0  0  0  0  3  0  0  0  0  0  0
  191.9910  176.9190  139.6450 C   0  0  0  0  0  0  0  0  0  0  0  0
  190.5000  176.4990  137.7720 C   0  0  0  0  0  3  0  0  0  0  0  0
  190.6880  176.8740  139.1050 C   0  0  0  0  0  0  0  0  0  0  0  0
  191.6010  176.1640  136.9780 C   0  0  0  0  0  3  0  0  0  0  0  0
  189.7800  177.5850  141.2450 C   0  0  0  0  0  0  0  0  0  0  0  0
  191.0790  177.6200  141.7730 C   0  0  0  0  0  3  0  0  0  0  0  0
  194.0580  175.8870  136.6270 C   0  0  0  0  0  3  0  0  0  0  0  0
  194.6070  177.0740  136.1330 O   0  0  0  0  0  1  0  0  0  0  0  0
  195.0350  175.1740  137.3290 O   0  0  0  0  0  1  0  0  0  0  0  0
  181.0160  178.9380  140.1190 N   0  0  0  0  0  2  0  0  0  0  0  0
  180.2620  177.8420  139.5220 C   0  0  0  0  0  3  0  0  0  0  0  0
  180.3550  177.9350  138.0130 C   0  0  0  0  0  1  0  0  0  0  0  0
  180.8290  176.5070  139.9710 C   0  0  0  0  0  1  0  0  0  0  0  0
  1 11  1  0  0  0  0
  2 15  2  0  0  0  0
  3 10  1  0  0  0  0
  4  6  1  0  0  0  0
  5  9  1  0  0  0  0
  5  1  1  0  0  0  0
  6  8  1  1  0  0  0
  8  7  1  0  0  0  0
  9  4  2  0  0  0  0
 10 12  1  0  0  0  0
 11  6  1  0  0  0  0
 11 10  2  0  0  0  0
 12  7  1  0  0  0  0
 13  2  1  0  0  0  0
 14 16  1  0  0  0  0
 14 13  2  0  0  0  0
 15  3  1  0  0  0  0
 16 17  1  0  0  0  0
 17  1  2  0  0  0  0
 17 15  1  0  0  0  0
 18 27  1  0  0  0  0
 19 26  1  0  0  0  0
 20 21  2  0  0  0  0
 21 22  1  0  0  0  0
 22 18  2  0  0  0  0
 23 24  1  0  0  0  0
 24 22  1  0  0  0  0
 24 19  2  0  0  0  0
 25 20  1  0  0  0  0
 25 23  2  0  0  0  0
 26 27  2  0  0  0  0
 26  9  1  0  0  0  0
 28 30  1  0  0  0  0
 28 20  1  0  0  0  0
 29 28  1  0  0  0  0
 31 13  1  0  0  0  0
 32 34  1  0  0  0  0
 32 31  1  0  0  0  0
 33 32  1  0  0  0  0
M  END
>  <MODEL>
7

>  <REMARK>
 VINA RESULT:      -8.8      1.694      2.380
  Name = 
  4 active torsions:
  status: ('A' for Active; 'I' for Inactive)
    1  A    between atoms: C_3  and  N_25
    2  A    between atoms: C_7  and  C_11
    3  A    between atoms: C_18  and  C_30
    4  A    between atoms: C_23  and  N_25
                            x       y       z     vdW  Elec       q    Type
                         _______ _______ _______ _____ _____    ______ ____

>  <TORSDO>
F 4

$$$$
=
 OpenBabel10272415243D

 34 39  0  0  1  0  0  0  0  0999 V2000
  190.4740  176.9440  139.6110 C   0  0  0  0  0  0  0  0  0  0  0  0
  188.8150  178.0420  142.6570 C   0  0  0  0  0  3  0  0  0  0  0  0
  188.0200  178.0220  140.4270 O   0  0  0  0  0  0  0  0  0  0  0  0
  190.9760  176.6070  136.8370 N   0  0  0  0  0  0  0  0  0  0  0  0
  191.7050  176.4320  139.0990 N   0  0  0  0  0  2  0  0  0  0  0  0
  189.5770  176.8550  137.2050 C   0  0  2  0  0  3  0  0  0  0  0  0
  187.7680  178.6700  136.8130 C   0  0  0  0  0  2  0  0  0  0  0  0
  188.9140  177.8310  136.2160 C   0  0  0  0  0  2  0  0  0  0  0  0
  191.9350  176.3460  137.6830 C   0  0  0  0  0  0  0  0  0  0  0  0
  188.2330  177.7610  139.0660 C   0  0  0  0  0  0  0  0  0  0  0  0
  189.4010  177.2490  138.6490 C   0  0  0  0  0  0  0  0  0  0  0  0
  187.1530  178.0380  138.0650 C   0  0  0  0  0  2  0  0  0  0  0  0
  189.8570  177.8050  143.6730 C   0  0  0  0  0  0  0  0  0  0  0  0
  191.0460  177.2910  143.3260 C   0  0  0  0  0  3  0  0  0  0  0  0
  189.0200  177.7630  141.3710 C   0  0  1  0  0  3  0  0  0  0  0  0
  191.4050  176.8980  141.9160 C   0  0  0  0  0  3  0  0  0  0  0  0
  190.3090  177.1880  140.9210 C   0  0  0  0  0  0  0  0  0  0  0  0
  195.0070  176.2340  135.4850 C   0  0  0  0  0  3  0  0  0  0  0  0
  194.1340  175.1780  137.9290 C   0  0  0  0  0  3  0  0  0  0  0  0
  197.9800  174.2730  136.5030 C   0  0  0  0  0  0  0  0  0  0  0  0
  197.1270  175.0920  135.7480 C   0  0  0  0  0  3  0  0  0  0  0  0
  195.8500  175.4010  136.2230 C   0  0  0  0  0  0  0  0  0  0  0  0
  196.2590  174.0440  138.1990 C   0  0  0  0  0  3  0  0  0  0  0  0
  195.4130  174.8730  137.4570 C   0  0  0  0  0  0  0  0  0  0  0  0
  197.5390  173.7440  137.7210 C   0  0  0  0  0  3  0  0  0  0  0  0
  193.2820  176.0120  137.1860 C   0  0  0  0  0  0  0  0  0  0  0  0
  193.7300  176.5360  135.9640 C   0  0  0  0  0  3  0  0  0  0  0  0
  199.3320  173.8940  135.9900 C   0  0  0  0  0  3  0  0  0  0  0  0
  200.1240  175.0380  135.8560 O   0  0  0  0  0  1  0  0  0  0  0  0
  199.9540  172.9910  136.8570 O   0  0  0  0  0  1  0  0  0  0  0  0
  189.5750  178.1550  145.0330 N   0  0  0  0  0  2  0  0  0  0  0  0
  188.8880  177.2850  145.9810 C   0  0  0  0  0  3  0  0  0  0  0  0
  189.5230  177.4340  147.3470 C   0  0  0  0  0  1  0  0  0  0  0  0
  187.4200  177.6640  146.0750 C   0  0  0  0  0  1  0  0  0  0  0  0
  1 17  2  0  0  0  0
  2 13  2  0  0  0  0
  3 15  1  0  0  0  0
  4  6  1  0  0  0  0
  4  9  2  0  0  0  0
  5  1  1  0  0  0  0
  6  8  1  6  0  0  0
  6 11  1  0  0  0  0
  7 12  1  0  0  0  0
  8  7  1  0  0  0  0
  9  5  1  0  0  0  0
 10  3  1  0  0  0  0
 11 10  2  0  0  0  0
 11  1  1  0  0  0  0
 12 10  1  0  0  0  0
 13 31  1  0  0  0  0
 14 13  1  0  0  0  0
 15  2  1  6  0  0  0
 16 14  2  0  0  0  0
 17 15  1  0  0  0  0
 17 16  1  0  0  0  0
 18 27  2  0  0  0  0
 18 22  1  0  0  0  0
 20 25  1  0  0  0  0
 21 22  1  0  0  0  0
 21 20  2  0  0  0  0
 22 24  2  0  0  0  0
 24 19  1  0  0  0  0
 24 23  1  0  0  0  0
 25 23  2  0  0  0  0
 26  9  1  0  0  0  0
 26 19  2  0  0  0  0
 27 26  1  0  0  0  0
 28 20  1  0  0  0  0
 28 30  1  0  0  0  0
 29 28  1  0  0  0  0
 31 32  1  0  0  0  0
 32 34  1  0  0  0  0
 32 33  1  0  0  0  0
M  END
>  <MODEL>
8

>  <REMARK>
 VINA RESULT:      -8.6      3.877      7.265
  Name = 
  4 active torsions:
  status: ('A' for Active; 'I' for Inactive)
    1  A    between atoms: C_3  and  N_25
    2  A    between atoms: C_7  and  C_11
    3  A    between atoms: C_18  and  C_30
    4  A    between atoms: C_23  and  N_25
                            x       y       z     vdW  Elec       q    Type
                         _______ _______ _______ _____ _____    ______ ____

>  <TORSDO>
F 4

$$$$
=
 OpenBabel10272415243D

 34 39  0  0  1  0  0  0  0  0999 V2000
  186.6160  178.0550  140.4370 C   0  0  0  0  0  0  0  0  0  0  0  0
  183.3180  179.2570  139.4790 C   0  0  0  0  0  3  0  0  0  0  0  0
  185.2530  178.9350  138.1530 O   0  0  0  0  0  0  0  0  0  0  0  0
  189.3950  177.5070  140.2570 N   0  0  0  0  0  0  0  0  0  0  0  0
  187.3990  177.6320  141.5540 N   0  0  0  0  0  2  0  0  0  0  0  0
  188.6870  177.6360  138.9780 C   0  0  2  0  0  3  0  0  0  0  0  0
  188.7060  179.1980  136.9090 C   0  0  0  0  0  2  0  0  0  0  0  0
  189.5280  178.4340  137.9650 C   0  0  0  0  0  2  0  0  0  0  0  0
  188.8170  177.4340  141.4260 C   0  0  0  0  0  0  0  0  0  0  0  0
  186.6020  178.5680  138.0450 C   0  0  0  0  0  0  0  0  0  0  0  0
  187.2780  178.1470  139.1250 C   0  0  0  0  0  0  0  0  0  0  0  0
  187.2980  178.6280  136.7190 C   0  0  0  0  0  2  0  0  0  0  0  0
  182.6000  179.2350  140.7670 C   0  0  0  0  0  0  0  0  0  0  0  0
  183.2140  178.8210  141.8850 C   0  0  0  0  0  3  0  0  0  0  0  0
  184.5910  178.8790  139.3850 C   0  0  1  0  0  3  0  0  0  0  0  0
  184.6400  178.3340  141.9210 C   0  0  0  0  0  3  0  0  0  0  0  0
  185.3270  178.4050  140.5800 C   0  0  0  0  0  0  0  0  0  0  0  0
  191.7550  176.6000  143.6510 C   0  0  0  0  0  3  0  0  0  0  0  0
  189.0750  177.3710  143.9130 C   0  0  0  0  0  3  0  0  0  0  0  0
  191.4240  176.7340  147.3380 C   0  0  0  0  0  0  0  0  0  0  0  0
  191.9780  176.5470  146.0620 C   0  0  0  0  0  3  0  0  0  0  0  0
  191.2010  176.7650  144.9210 C   0  0  0  0  0  0  0  0  0  0  0  0
  189.2980  177.3290  146.3260 C   0  0  0  0  0  3  0  0  0  0  0  0
  189.8520  177.1580  145.0550 C   0  0  0  0  0  0  0  0  0  0  0  0
  190.0830  177.1150  147.4640 C   0  0  0  0  0  3  0  0  0  0  0  0
  189.6290  177.2020  142.6340 C   0  0  0  0  0  0  0  0  0  0  0  0
  190.9720  176.8160  142.5140 C   0  0  0  0  0  3  0  0  0  0  0  0
  192.2250  176.4620  148.5690 C   0  0  0  0  0  3  0  0  0  0  0  0
  193.3750  175.7400  148.2340 O   0  0  0  0  0  1  0  0  0  0  0  0
  192.5880  177.6570  149.1970 O   0  0  0  0  0  1  0  0  0  0  0  0
  181.2400  179.6830  140.7970 N   0  0  0  0  0  2  0  0  0  0  0  0
  180.1050  178.8440  141.1670 C   0  0  0  0  0  3  0  0  0  0  0  0
  180.2680  177.4770  140.5380 C   0  0  0  0  0  1  0  0  0  0  0  0
  180.0360  178.6890  142.6760 C   0  0  0  0  0  1  0  0  0  0  0  0
  1 17  2  0  0  0  0
  1  5  1  0  0  0  0
  2 13  2  0  0  0  0
  3 15  1  0  0  0  0
  4  9  2  0  0  0  0
  6  8  1  6  0  0  0
  6 11  1  0  0  0  0
  6  4  1  0  0  0  0
  7  8  1  0  0  0  0
  9  5  1  0  0  0  0
  9 26  1  0  0  0  0
 10  3  1  0  0  0  0
 10 11  2  0  0  0  0
 11  1  1  0  0  0  0
 12  7  1  0  0  0  0
 12 10  1  0  0  0  0
 13 31  1  0  0  0  0
 13 14  1  0  0  0  0
 14 16  2  0  0  0  0
 15  2  1  1  0  0  0
 15 17  1  0  0  0  0
 17 16  1  0  0  0  0
 18 22  1  0  0  0  0
 19 24  1  0  0  0  0
 20 25  1  0  0  0  0
 20 28  1  0  0  0  0
 21 20  2  0  0  0  0
 22 24  2  0  0  0  0
 22 21  1  0  0  0  0
 23 25  2  0  0  0  0
 24 23  1  0  0  0  0
 26 19  2  0  0  0  0
 27 26  1  0  0  0  0
 27 18  2  0  0  0  0
 28 30  1  0  0  0  0
 29 28  1  0  0  0  0
 31 32  1  0  0  0  0
 32 34  1  0  0  0  0
 33 32  1  0  0  0  0
M  END
>  <MODEL>
9

>  <REMARK>
 VINA RESULT:      -8.2      3.416      6.831
  Name = 
  4 active torsions:
  status: ('A' for Active; 'I' for Inactive)
    1  A    between atoms: C_3  and  N_25
    2  A    between atoms: C_7  and  C_11
    3  A    between atoms: C_18  and  C_30
    4  A    between atoms: C_23  and  N_25
                            x       y       z     vdW  Elec       q    Type
                         _______ _______ _______ _____ _____    ______ ____

>  <TORSDO>
F 4

$$$$
