=
 OpenBabel10272400463D

 25 29  0  0  1  0  0  0  0  0999 V2000
  189.3720  176.2240  143.9630 C   0  0  2  0  0  3  0  0  0  0  0  0
  189.8300  177.4290  144.7710 C   0  0  1  0  0  3  0  0  0  0  0  0
  191.8210  175.7840  143.7480 N   0  0  0  0  0  2  0  0  0  0  0  0
  188.1550  177.1080  141.9090 N   0  0  2  0  0  0  0  0  0  0  0  0
  187.3230  176.8950  147.4250 C   0  0  0  0  0  2  0  0  0  0  0  0
  188.9310  178.9940  140.7930 C   0  0  0  0  0  2  0  0  0  0  0  0
  191.6670  175.7930  145.1450 N   0  0  0  0  0  2  0  0  0  0  0  0
  189.3050  176.7840  141.0650 C   0  0  1  0  0  3  0  0  0  0  0  0
  189.4780  177.8540  140.1540 O   0  0  0  0  0  0  0  0  0  0  0  0
  191.0300  177.1300  147.0390 C   0  0  0  0  0  0  0  0  0  0  0  0
  192.0670  176.9640  147.7310 O   0  0  0  0  0  0  0  0  0  0  0  0
  187.5720  178.3370  147.8540 C   0  0  1  0  0  3  0  0  0  0  0  0
  188.7210  178.1330  145.5480 C   0  0  0  0  0  2  0  0  0  0  0  0
  188.2340  178.5410  142.0620 C   0  0  0  0  0  2  0  0  0  0  0  0
  190.5150  175.7340  143.0660 C   0  0  2  0  0  3  0  0  0  0  0  0
  190.6170  176.6260  141.8440 C   0  0  0  0  0  2  0  0  0  0  0  0
  189.7810  177.2940  147.6980 N   0  0  0  0  0  2  0  0  0  0  0  0
  188.0550  176.4120  143.2020 C   0  0  0  0  0  2  0  0  0  0  0  0
  188.5720  177.6050  146.9730 C   0  0  2  0  0  0  0  0  0  0  0  0
  191.1400  177.1020  145.5480 C   0  0  2  0  0  3  0  0  0  0  0  0
  186.5930  179.2500  147.1100 C   0  0  0  0  0  2  0  0  0  0  0  0
  185.3430  178.5950  146.9300 O   0  0  0  0  0  0  0  0  0  0  0  0
  184.6090  178.7110  145.7510 C   0  0  0  0  0  0  0  0  0  0  0  0
  185.2540  178.3710  144.4470 C   0  0  0  0  0  1  0  0  0  0  0  0
  183.3980  179.0730  145.7620 O   0  0  0  0  0  0  0  0  0  0  0  0
  1 18  1  6  0  0  0
  1  2  1  0  0  0  0
  2 13  1  1  0  0  0
  2 20  1  0  0  0  0
  3  7  1  0  0  0  0
  4 14  1  1  0  0  0
  4 18  1  0  0  0  0
  5 12  1  0  0  0  0
  6 14  1  0  0  0  0
  8 16  1  1  0  0  0
  8  4  1  0  0  0  0
  9  6  1  0  0  0  0
  9  8  1  0  0  0  0
 10 17  1  0  0  0  0
 10 11  2  0  0  0  0
 12 21  1  6  0  0  0
 15 16  1  6  0  0  0
 15  3  1  0  0  0  0
 15  1  1  0  0  0  0
 19 13  1  6  0  0  0
 19  5  1  0  0  0  0
 19 17  1  0  0  0  0
 19 12  1  0  0  0  0
 20  7  1  1  0  0  0
 20 10  1  0  0  0  0
 22 21  1  0  0  0  0
 23 25  2  0  0  0  0
 23 22  1  0  0  0  0
 24 23  1  0  0  0  0
M  END
>  <MODEL>
1

>  <REMARK>
 VINA RESULT:      -7.9      0.000      0.000
  Name = 
  3 active torsions:
  status: ('A' for Active; 'I' for Inactive)
    1  A    between atoms: C_2  and  O_21
    2  A    between atoms: C_15  and  C_25
    3  A    between atoms: O_21  and  C_25
                            x       y       z     vdW  Elec       q    Type
                         _______ _______ _______ _____ _____    ______ ____

>  <TORSDO>
F 3

$$$$
=
 OpenBabel10272400463D

 25 29  0  0  1  0  0  0  0  0999 V2000
  188.1430  176.8630  142.5010 C   0  0  2  0  0  3  0  0  0  0  0  0
  188.1160  178.1920  141.7620 C   0  0  1  0  0  3  0  0  0  0  0  0
  186.4360  177.9520  143.9610 N   0  0  0  0  0  2  0  0  0  0  0  0
  190.4870  176.5730  143.4530 N   0  0  2  0  0  0  0  0  0  0  0  0
  188.0490  176.6080  138.4310 C   0  0  0  0  0  2  0  0  0  0  0  0
  191.6370  178.3880  144.3410 C   0  0  0  0  0  2  0  0  0  0  0  0
  185.8170  178.0450  142.7020 N   0  0  0  0  0  2  0  0  0  0  0  0
  190.0020  176.8970  144.7940 C   0  0  1  0  0  3  0  0  0  0  0  0
  190.9700  177.7320  145.4050 O   0  0  0  0  0  0  0  0  0  0  0  0
  186.0060  178.9620  140.4880 C   0  0  0  0  0  0  0  0  0  0  0  0
  184.8890  179.5380  140.4380 O   0  0  0  0  0  0  0  0  0  0  0  0
  188.4860  177.9520  137.8600 C   0  0  1  0  0  3  0  0  0  0  0  0
  188.8250  178.1850  140.4110 C   0  0  0  0  0  2  0  0  0  0  0  0
  191.1700  177.7740  143.0350 C   0  0  0  0  0  2  0  0  0  0  0  0
  187.5970  177.0440  143.9220 C   0  0  2  0  0  3  0  0  0  0  0  0
  188.6690  177.6560  144.8020 C   0  0  0  0  0  2  0  0  0  0  0  0
  186.5580  178.4280  139.2920 N   0  0  0  0  0  2  0  0  0  0  0  0
  189.4880  176.1270  142.4690 C   0  0  0  0  0  2  0  0  0  0  0  0
  187.8840  177.8590  139.2530 C   0  0  2  0  0  0  0  0  0  0  0  0
  186.6900  178.8160  141.8090 C   0  0  2  0  0  3  0  0  0  0  0  0
  190.0150  177.9940  137.8110 C   0  0  0  0  0  2  0  0  0  0  0  0
  190.5210  176.8690  137.1010 O   0  0  0  0  0  0  0  0  0  0  0  0
  191.4800  176.0180  137.6470 C   0  0  0  0  0  0  0  0  0  0  0  0
  192.8900  176.4920  137.7820 C   0  0  0  0  0  1  0  0  0  0  0  0
  191.1790  174.8610  138.0540 O   0  0  0  0  0  0  0  0  0  0  0  0
  1 18  1  1  0  0  0
  1 15  1  0  0  0  0
  2 13  1  6  0  0  0
  2 20  1  0  0  0  0
  2  1  1  0  0  0  0
  4 18  1  6  0  0  0
  4  8  1  0  0  0  0
  6  9  1  0  0  0  0
  7  3  1  0  0  0  0
  8 16  1  6  0  0  0
  8  9  1  0  0  0  0
 11 10  2  0  0  0  0
 12 21  1  1  0  0  0
 12  5  1  0  0  0  0
 12 19  1  0  0  0  0
 14  4  1  0  0  0  0
 14  6  1  0  0  0  0
 15  3  1  0  0  0  0
 15 16  1  1  0  0  0
 17 10  1  0  0  0  0
 19  5  1  1  0  0  0
 19 17  1  0  0  0  0
 19 13  1  0  0  0  0
 20 10  1  6  0  0  0
 20  7  1  0  0  0  0
 22 23  1  0  0  0  0
 22 21  1  0  0  0  0
 23 24  1  0  0  0  0
 23 25  2  0  0  0  0
M  END
>  <MODEL>
2

>  <REMARK>
 VINA RESULT:      -7.7      2.797      7.394
  Name = 
  3 active torsions:
  status: ('A' for Active; 'I' for Inactive)
    1  A    between atoms: C_2  and  O_21
    2  A    between atoms: C_15  and  C_25
    3  A    between atoms: O_21  and  C_25
                            x       y       z     vdW  Elec       q    Type
                         _______ _______ _______ _____ _____    ______ ____

>  <TORSDO>
F 3

$$$$
=
 OpenBabel10272400463D

 25 29  0  0  1  0  0  0  0  0999 V2000
  189.1630  176.8710  141.3100 C   0  0  2  0  0  3  0  0  0  0  0  0
  189.8790  177.8840  140.4310 C   0  0  1  0  0  3  0  0  0  0  0  0
  187.3540  178.5920  141.3450 N   0  0  0  0  0  2  0  0  0  0  0  0
  190.5520  176.5880  143.4260 N   0  0  2  0  0  0  0  0  0  0  0  0
  190.9920  175.3400  138.0010 C   0  0  0  0  0  2  0  0  0  0  0  0
  191.5880  178.4180  144.4160 C   0  0  0  0  0  2  0  0  0  0  0  0
  187.4820  178.3590  139.9650 N   0  0  0  0  0  2  0  0  0  0  0  0
  189.5920  177.3870  144.1850 C   0  0  1  0  0  3  0  0  0  0  0  0
  190.3320  178.2350  145.0460 O   0  0  0  0  0  0  0  0  0  0  0  0
  188.9770  178.4830  138.0860 C   0  0  0  0  0  0  0  0  0  0  0  0
  188.2430  179.1590  137.3190 O   0  0  0  0  0  0  0  0  0  0  0  0
  192.0140  176.3570  137.5090 C   0  0  1  0  0  3  0  0  0  0  0  0
  191.1200  177.3480  139.7220 C   0  0  0  0  0  2  0  0  0  0  0  0
  191.6630  177.4860  143.2210 C   0  0  0  0  0  2  0  0  0  0  0  0
  188.0720  177.5710  142.1300 C   0  0  2  0  0  3  0  0  0  0  0  0
  188.7040  178.2820  143.3110 C   0  0  0  0  0  2  0  0  0  0  0  0
  189.8620  177.5240  137.5230 N   0  0  0  0  0  2  0  0  0  0  0  0
  190.0790  175.9890  142.1670 C   0  0  0  0  0  2  0  0  0  0  0  0
  190.8130  176.7980  138.3300 C   0  0  2  0  0  0  0  0  0  0  0  0
  188.8570  178.6770  139.5630 C   0  0  2  0  0  3  0  0  0  0  0  0
  193.3130  176.1740  138.2990 C   0  0  0  0  0  2  0  0  0  0  0  0
  194.3570  175.7300  137.4400 O   0  0  0  0  0  0  0  0  0  0  0  0
  195.1570  174.6310  137.7520 C   0  0  0  0  0  0  0  0  0  0  0  0
  194.6220  173.2520  137.5460 C   0  0  0  0  0  1  0  0  0  0  0  0
  196.3350  174.7760  138.1830 O   0  0  0  0  0  0  0  0  0  0  0  0
  1 15  1  0  0  0  0
  1 18  1  1  0  0  0
  2 13  1  6  0  0  0
  2  1  1  0  0  0  0
  3 15  1  0  0  0  0
  4 18  1  6  0  0  0
  4  8  1  0  0  0  0
  6  9  1  0  0  0  0
  7  3  1  0  0  0  0
  8 16  1  6  0  0  0
  8  9  1  0  0  0  0
 11 10  2  0  0  0  0
 12  5  1  0  0  0  0
 12 21  1  1  0  0  0
 12 19  1  0  0  0  0
 14  4  1  0  0  0  0
 14  6  1  0  0  0  0
 15 16  1  1  0  0  0
 17 10  1  0  0  0  0
 17 19  1  0  0  0  0
 19  5  1  1  0  0  0
 19 13  1  0  0  0  0
 20 10  1  6  0  0  0
 20  7  1  0  0  0  0
 20  2  1  0  0  0  0
 22 23  1  0  0  0  0
 22 21  1  0  0  0  0
 23 25  2  0  0  0  0
 24 23  1  0  0  0  0
M  END
>  <MODEL>
3

>  <REMARK>
 VINA RESULT:      -7.5      3.643      8.577
  Name = 
  3 active torsions:
  status: ('A' for Active; 'I' for Inactive)
    1  A    between atoms: C_2  and  O_21
    2  A    between atoms: C_15  and  C_25
    3  A    between atoms: O_21  and  C_25
                            x       y       z     vdW  Elec       q    Type
                         _______ _______ _______ _____ _____    ______ ____

>  <TORSDO>
F 3

$$$$
=
 OpenBabel10272400463D

 25 29  0  0  1  0  0  0  0  0999 V2000
  185.4550  179.2540  143.7810 C   0  0  2  0  0  3  0  0  0  0  0  0
  185.8770  177.8490  144.1820 C   0  0  1  0  0  3  0  0  0  0  0  0
  184.0020  179.0990  145.8060 N   0  0  0  0  0  2  0  0  0  0  0  0
  184.3200  179.0840  141.5080 N   0  0  2  0  0  0  0  0  0  0  0  0
  189.4610  178.5080  143.6070 C   0  0  0  0  0  2  0  0  0  0  0  0
  182.9210  177.2950  141.0140 C   0  0  0  0  0  2  0  0  0  0  0  0
  185.2730  178.8800  146.3650 N   0  0  0  0  0  2  0  0  0  0  0  0
  183.0080  179.2560  142.1300 C   0  0  1  0  0  3  0  0  0  0  0  0
  182.1160  178.3570  141.4950 O   0  0  0  0  0  0  0  0  0  0  0  0
  187.1900  177.4280  146.3670 C   0  0  0  0  0  0  0  0  0  0  0  0
  187.2410  177.2030  147.6040 O   0  0  0  0  0  0  0  0  0  0  0  0
  189.6640  176.9980  143.5790 C   0  0  1  0  0  3  0  0  0  0  0  0
  187.1030  177.3170  143.4450 C   0  0  0  0  0  2  0  0  0  0  0  0
  184.3770  177.6730  141.2090 C   0  0  0  0  0  2  0  0  0  0  0  0
  184.1050  179.5960  144.4210 C   0  0  2  0  0  3  0  0  0  0  0  0
  182.9890  178.9400  143.6310 C   0  0  0  0  0  2  0  0  0  0  0  0
  188.4000  177.4660  145.6230 N   0  0  0  0  0  2  0  0  0  0  0  0
  185.4900  179.5400  142.2750 C   0  0  0  0  0  2  0  0  0  0  0  0
  188.4070  177.6020  144.1860 C   0  0  2  0  0  0  0  0  0  0  0  0
  185.8620  177.6940  145.7320 C   0  0  2  0  0  3  0  0  0  0  0  0
  189.5200  176.5060  142.1360 C   0  0  0  0  0  2  0  0  0  0  0  0
  190.7960  176.4200  141.5120 O   0  0  0  0  0  0  0  0  0  0  0  0
  191.1450  177.2190  140.4250 C   0  0  0  0  0  0  0  0  0  0  0  0
  190.0900  177.6450  139.4570 C   0  0  0  0  0  1  0  0  0  0  0  0
  192.3330  177.6130  140.2520 O   0  0  0  0  0  0  0  0  0  0  0  0
  1 18  1  6  0  0  0
  1  2  1  0  0  0  0
  1 15  1  0  0  0  0
  2 13  1  1  0  0  0
  2 20  1  0  0  0  0
  3  7  1  0  0  0  0
  4 14  1  1  0  0  0
  4  8  1  0  0  0  0
  4 18  1  0  0  0  0
  5 19  1  0  0  0  0
  6 14  1  0  0  0  0
  6  9  1  0  0  0  0
  8 16  1  1  0  0  0
  9  8  1  0  0  0  0
 10 11  2  0  0  0  0
 12 21  1  6  0  0  0
 12  5  1  0  0  0  0
 12 19  1  0  0  0  0
 15 16  1  6  0  0  0
 15  3  1  0  0  0  0
 17 10  1  0  0  0  0
 19 13  1  6  0  0  0
 19 17  1  0  0  0  0
 20  7  1  1  0  0  0
 20 10  1  0  0  0  0
 22 21  1  0  0  0  0
 23 22  1  0  0  0  0
 24 23  1  0  0  0  0
 25 23  2  0  0  0  0
M  END
>  <MODEL>
4

>  <REMARK>
 VINA RESULT:      -7.4      2.856      6.203
  Name = 
  3 active torsions:
  status: ('A' for Active; 'I' for Inactive)
    1  A    between atoms: C_2  and  O_21
    2  A    between atoms: C_15  and  C_25
    3  A    between atoms: O_21  and  C_25
                            x       y       z     vdW  Elec       q    Type
                         _______ _______ _______ _____ _____    ______ ____

>  <TORSDO>
F 3

$$$$
=
 OpenBabel10272400463D

 25 29  0  0  1  0  0  0  0  0999 V2000
  187.1540  176.9930  144.1750 C   0  0  2  0  0  3  0  0  0  0  0  0
  186.5740  178.3940  144.0460 C   0  0  1  0  0  3  0  0  0  0  0  0
  187.0560  177.4750  146.6230 N   0  0  0  0  0  2  0  0  0  0  0  0
  189.4470  177.0180  143.0670 N   0  0  2  0  0  0  0  0  0  0  0  0
  184.1010  177.3890  141.5000 C   0  0  0  0  0  2  0  0  0  0  0  0
  190.8530  178.8540  143.2960 C   0  0  0  0  0  2  0  0  0  0  0  0
  185.7100  177.6480  146.2570 N   0  0  0  0  0  2  0  0  0  0  0  0
  190.1000  177.0190  144.3750 C   0  0  1  0  0  3  0  0  0  0  0  0
  191.1930  177.9170  144.3030 O   0  0  0  0  0  0  0  0  0  0  0  0
  184.1960  178.9310  144.8990 C   0  0  0  0  0  0  0  0  0  0  0  0
  183.3950  179.2780  145.8060 O   0  0  0  0  0  0  0  0  0  0  0  0
  183.9580  178.8670  141.1560 C   0  0  1  0  0  3  0  0  0  0  0  0
  186.0610  178.7440  142.6530 C   0  0  0  0  0  2  0  0  0  0  0  0
  189.5850  178.3810  142.6120 C   0  0  0  0  0  2  0  0  0  0  0  0
  187.8270  176.8310  145.5430 C   0  0  2  0  0  3  0  0  0  0  0  0
  189.1920  177.4900  145.5180 C   0  0  0  0  0  2  0  0  0  0  0  0
  183.6990  178.7170  143.5860 N   0  0  0  0  0  2  0  0  0  0  0  0
  188.0520  176.5510  143.0140 C   0  0  0  0  0  2  0  0  0  0  0  0
  184.5760  178.4330  142.4750 C   0  0  2  0  0  0  0  0  0  0  0  0
  185.6330  178.7100  145.2470 C   0  0  2  0  0  3  0  0  0  0  0  0
  184.9580  179.2150  140.0500 C   0  0  0  0  0  2  0  0  0  0  0  0
  184.3580  180.0820  139.0940 O   0  0  0  0  0  0  0  0  0  0  0  0
  183.0680  179.8730  138.6090 C   0  0  0  0  0  0  0  0  0  0  0  0
  182.7360  178.5780  137.9410 C   0  0  0  0  0  1  0  0  0  0  0  0
  182.1640  180.7450  138.7450 O   0  0  0  0  0  0  0  0  0  0  0  0
  1 18  1  6  0  0  0
  1 15  1  0  0  0  0
  2 13  1  6  0  0  0
  2  1  1  0  0  0  0
  2 20  1  0  0  0  0
  4 14  1  1  0  0  0
  4  8  1  0  0  0  0
  6  9  1  0  0  0  0
  7  3  1  0  0  0  0
  8 16  1  1  0  0  0
  9  8  1  0  0  0  0
 10 11  2  0  0  0  0
 12 21  1  6  0  0  0
 12  5  1  0  0  0  0
 12 19  1  0  0  0  0
 14  6  1  0  0  0  0
 15 16  1  6  0  0  0
 15  3  1  0  0  0  0
 17 10  1  0  0  0  0
 18  4  1  0  0  0  0
 19  5  1  6  0  0  0
 19 13  1  0  0  0  0
 19 17  1  0  0  0  0
 20 10  1  6  0  0  0
 20  7  1  0  0  0  0
 22 21  1  0  0  0  0
 23 25  2  0  0  0  0
 23 22  1  0  0  0  0
 24 23  1  0  0  0  0
M  END
>  <MODEL>
5

>  <REMARK>
 VINA RESULT:      -7.4      3.497      5.755
  Name = 
  3 active torsions:
  status: ('A' for Active; 'I' for Inactive)
    1  A    between atoms: C_2  and  O_21
    2  A    between atoms: C_15  and  C_25
    3  A    between atoms: O_21  and  C_25
                            x       y       z     vdW  Elec       q    Type
                         _______ _______ _______ _____ _____    ______ ____

>  <TORSDO>
F 3

$$$$
=
 OpenBabel10272400463D

 25 29  0  0  1  0  0  0  0  0999 V2000
  186.9170  177.0720  144.3950 C   0  0  2  0  0  3  0  0  0  0  0  0
  186.3900  178.4750  144.1390 C   0  0  1  0  0  3  0  0  0  0  0  0
  186.6290  177.6990  146.7950 N   0  0  0  0  0  2  0  0  0  0  0  0
  189.2930  176.9760  143.4860 N   0  0  2  0  0  0  0  0  0  0  0  0
  184.1100  177.3820  141.4530 C   0  0  0  0  0  2  0  0  0  0  0  0
  190.7280  178.7880  143.7310 C   0  0  0  0  0  2  0  0  0  0  0  0
  185.3240  177.8820  146.3070 N   0  0  0  0  0  2  0  0  0  0  0  0
  189.8350  177.0380  144.8430 C   0  0  1  0  0  3  0  0  0  0  0  0
  190.9560  177.9040  144.8140 O   0  0  0  0  0  0  0  0  0  0  0  0
  183.9660  179.1190  144.7550 C   0  0  0  0  0  0  0  0  0  0  0  0
  183.1020  179.5380  145.5690 O   0  0  0  0  0  0  0  0  0  0  0  0
  184.0390  178.8400  141.0140 C   0  0  1  0  0  3  0  0  0  0  0  0
  186.0050  178.7560  142.6890 C   0  0  0  0  0  2  0  0  0  0  0  0
  189.5080  178.3060  142.9690 C   0  0  0  0  0  2  0  0  0  0  0  0
  187.4680  176.9740  145.8230 C   0  0  2  0  0  3  0  0  0  0  0  0
  188.8490  177.5970  145.8770 C   0  0  0  0  0  2  0  0  0  0  0  0
  183.5740  178.8400  143.4180 N   0  0  0  0  0  2  0  0  0  0  0  0
  187.8950  176.5400  143.3420 C   0  0  0  0  0  2  0  0  0  0  0  0
  184.5320  178.4700  142.4040 C   0  0  2  0  0  0  0  0  0  0  0  0
  185.3620  178.8840  145.2350 C   0  0  2  0  0  3  0  0  0  0  0  0
  185.1370  179.0990  139.9790 C   0  0  0  0  0  2  0  0  0  0  0  0
  184.7330  178.6290  138.6990 O   0  0  0  0  0  0  0  0  0  0  0  0
  185.6490  178.1690  137.7550 C   0  0  0  0  0  0  0  0  0  0  0  0
  185.3410  176.9340  136.9730 C   0  0  0  0  0  1  0  0  0  0  0  0
  186.7270  178.7880  137.5260 O   0  0  0  0  0  0  0  0  0  0  0  0
  1 18  1  6  0  0  0
  1 15  1  0  0  0  0
  2 13  1  6  0  0  0
  2  1  1  0  0  0  0
  2 20  1  0  0  0  0
  4 14  1  1  0  0  0
  4  8  1  0  0  0  0
  6  9  1  0  0  0  0
  7  3  1  0  0  0  0
  8 16  1  1  0  0  0
  9  8  1  0  0  0  0
 10 11  2  0  0  0  0
 12 21  1  6  0  0  0
 12  5  1  0  0  0  0
 12 19  1  0  0  0  0
 14  6  1  0  0  0  0
 15 16  1  6  0  0  0
 15  3  1  0  0  0  0
 17 10  1  0  0  0  0
 18  4  1  0  0  0  0
 19  5  1  6  0  0  0
 19 13  1  0  0  0  0
 19 17  1  0  0  0  0
 20 10  1  6  0  0  0
 20  7  1  0  0  0  0
 22 21  1  0  0  0  0
 23 22  1  0  0  0  0
 24 23  1  0  0  0  0
 25 23  2  0  0  0  0
M  END
>  <MODEL>
6

>  <REMARK>
 VINA RESULT:      -7.0      3.040      6.103
  Name = 
  3 active torsions:
  status: ('A' for Active; 'I' for Inactive)
    1  A    between atoms: C_2  and  O_21
    2  A    between atoms: C_15  and  C_25
    3  A    between atoms: O_21  and  C_25
                            x       y       z     vdW  Elec       q    Type
                         _______ _______ _______ _____ _____    ______ ____

>  <TORSDO>
F 3

$$$$
=
 OpenBabel10272400463D

 25 29  0  0  1  0  0  0  0  0999 V2000
  186.7140  177.2640  143.6080 C   0  0  2  0  0  3  0  0  0  0  0  0
  187.7030  178.3410  143.1890 C   0  0  1  0  0  3  0  0  0  0  0  0
  185.1600  178.4800  142.0790 N   0  0  0  0  0  2  0  0  0  0  0  0
  186.3320  177.5190  146.1130 N   0  0  2  0  0  0  0  0  0  0  0  0
  190.4680  175.9470  142.7080 C   0  0  0  0  0  2  0  0  0  0  0  0
  186.1890  179.6290  147.0800 C   0  0  0  0  0  2  0  0  0  0  0  0
  186.2140  178.1660  141.2030 N   0  0  0  0  0  2  0  0  0  0  0  0
  185.0210  178.1210  145.8700 C   0  0  1  0  0  3  0  0  0  0  0  0
  184.8740  179.1970  146.7790 O   0  0  0  0  0  0  0  0  0  0  0  0
  188.5540  178.4890  140.7550 C   0  0  0  0  0  0  0  0  0  0  0  0
  188.4530  178.8930  139.5680 O   0  0  0  0  0  0  0  0  0  0  0  0
  191.4180  177.1380  142.7670 C   0  0  1  0  0  3  0  0  0  0  0  0
  189.1500  178.0670  143.5880 C   0  0  0  0  0  2  0  0  0  0  0  0
  187.1660  178.6430  146.4670 C   0  0  0  0  0  2  0  0  0  0  0  0
  185.2810  177.7420  143.3490 C   0  0  2  0  0  3  0  0  0  0  0  0
  184.8540  178.6870  144.4550 C   0  0  0  0  0  2  0  0  0  0  0  0
  189.6970  177.7340  141.1310 N   0  0  0  0  0  2  0  0  0  0  0  0
  186.9120  176.7140  145.0260 C   0  0  0  0  0  2  0  0  0  0  0  0
  189.9350  177.3390  142.4990 C   0  0  2  0  0  0  0  0  0  0  0  0
  187.4460  178.7770  141.7160 C   0  0  2  0  0  3  0  0  0  0  0  0
  191.8520  177.3520  144.2200 C   0  0  0  0  0  2  0  0  0  0  0  0
  191.8240  176.1210  144.9330 O   0  0  0  0  0  0  0  0  0  0  0  0
  191.6650  176.0680  146.3170 C   0  0  0  0  0  0  0  0  0  0  0  0
  190.5100  176.7720  146.9510 C   0  0  0  0  0  1  0  0  0  0  0  0
  192.4650  175.4170  147.0470 O   0  0  0  0  0  0  0  0  0  0  0  0
  1 18  1  1  0  0  0
  2 13  1  6  0  0  0
  2  1  1  0  0  0  0
  3 15  1  0  0  0  0
  4 18  1  6  0  0  0
  4 14  1  0  0  0  0
  5 12  1  0  0  0  0
  7 20  1  0  0  0  0
  7  3  1  0  0  0  0
  8 16  1  6  0  0  0
  8  4  1  0  0  0  0
  8  9  1  0  0  0  0
  9  6  1  0  0  0  0
 10 17  1  0  0  0  0
 11 10  2  0  0  0  0
 12 21  1  1  0  0  0
 14  6  1  0  0  0  0
 15  1  1  0  0  0  0
 15 16  1  1  0  0  0
 17 19  1  0  0  0  0
 19  5  1  1  0  0  0
 19 12  1  0  0  0  0
 19 13  1  0  0  0  0
 20 10  1  6  0  0  0
 20  2  1  0  0  0  0
 21 22  1  0  0  0  0
 22 23  1  0  0  0  0
 23 24  1  0  0  0  0
 23 25  2  0  0  0  0
M  END
>  <MODEL>
7

>  <REMARK>
 VINA RESULT:      -6.8      1.957      6.294
  Name = 
  3 active torsions:
  status: ('A' for Active; 'I' for Inactive)
    1  A    between atoms: C_2  and  O_21
    2  A    between atoms: C_15  and  C_25
    3  A    between atoms: O_21  and  C_25
                            x       y       z     vdW  Elec       q    Type
                         _______ _______ _______ _____ _____    ______ ____

>  <TORSDO>
F 3

$$$$
=
 OpenBabel10272400463D

 25 29  0  0  1  0  0  0  0  0999 V2000
  189.3550  176.4210  144.7540 C   0  0  2  0  0  3  0  0  0  0  0  0
  189.1120  177.8240  145.2890 C   0  0  1  0  0  3  0  0  0  0  0  0
  191.4250  176.5450  146.1440 N   0  0  0  0  0  2  0  0  0  0  0  0
  189.6260  176.6100  142.2290 N   0  0  2  0  0  0  0  0  0  0  0  0
  185.5470  177.1900  145.9970 C   0  0  0  0  0  2  0  0  0  0  0  0
  190.7800  178.3980  141.2920 C   0  0  0  0  0  2  0  0  0  0  0  0
  190.4320  176.7660  147.1140 N   0  0  0  0  0  2  0  0  0  0  0  0
  191.0710  176.4240  142.3510 C   0  0  1  0  0  3  0  0  0  0  0  0
  191.6920  177.3260  141.4520 O   0  0  0  0  0  0  0  0  0  0  0  0
  188.6490  178.2270  147.7980 C   0  0  0  0  0  0  0  0  0  0  0  0
  189.0350  178.4380  148.9770 O   0  0  0  0  0  0  0  0  0  0  0  0
  185.3610  178.7020  146.0550 C   0  0  1  0  0  3  0  0  0  0  0  0
  187.7110  178.3700  145.0310 C   0  0  0  0  0  2  0  0  0  0  0  0
  189.4800  178.0250  141.9810 C   0  0  0  0  0  2  0  0  0  0  0  0
  190.8410  176.0650  144.8780 C   0  0  2  0  0  3  0  0  0  0  0  0
  191.6160  176.7240  143.7540 C   0  0  0  0  0  2  0  0  0  0  0  0
  187.2550  178.2040  147.5240 N   0  0  0  0  0  2  0  0  0  0  0  0
  188.7930  176.1520  143.3530 C   0  0  0  0  0  2  0  0  0  0  0  0
  186.7450  178.0840  146.1790 C   0  0  2  0  0  0  0  0  0  0  0  0
  189.6690  177.9610  146.7370 C   0  0  2  0  0  3  0  0  0  0  0  0
  184.9960  179.2090  144.6570 C   0  0  0  0  0  2  0  0  0  0  0  0
  183.6260  179.5920  144.6110 O   0  0  0  0  0  0  0  0  0  0  0  0
  182.7290  179.0290  143.7050 C   0  0  0  0  0  0  0  0  0  0  0  0
  181.3220  178.7640  144.1330 C   0  0  0  0  0  1  0  0  0  0  0  0
  183.0720  178.7590  142.5190 O   0  0  0  0  0  0  0  0  0  0  0  0
  1 18  1  6  0  0  0
  1 15  1  0  0  0  0
  1  2  1  0  0  0  0
  2 13  1  1  0  0  0
  2 20  1  0  0  0  0
  3  7  1  0  0  0  0
  4 14  1  1  0  0  0
  4  8  1  0  0  0  0
  4 18  1  0  0  0  0
  5 12  1  0  0  0  0
  5 19  1  0  0  0  0
  6  9  1  0  0  0  0
  6 14  1  0  0  0  0
  8 16  1  1  0  0  0
  9  8  1  0  0  0  0
 10 11  2  0  0  0  0
 12 21  1  6  0  0  0
 12 19  1  0  0  0  0
 15 16  1  6  0  0  0
 15  3  1  0  0  0  0
 17 10  1  0  0  0  0
 19 13  1  6  0  0  0
 19 17  1  0  0  0  0
 20  7  1  1  0  0  0
 20 10  1  0  0  0  0
 22 21  1  0  0  0  0
 23 24  1  0  0  0  0
 23 22  1  0  0  0  0
 25 23  2  0  0  0  0
M  END
>  <MODEL>
8

>  <REMARK>
 VINA RESULT:      -6.7      1.874      2.420
  Name = 
  3 active torsions:
  status: ('A' for Active; 'I' for Inactive)
    1  A    between atoms: C_2  and  O_21
    2  A    between atoms: C_15  and  C_25
    3  A    between atoms: O_21  and  C_25
                            x       y       z     vdW  Elec       q    Type
                         _______ _______ _______ _____ _____    ______ ____

>  <TORSDO>
F 3

$$$$
=
 OpenBabel10272400463D

 25 29  0  0  1  0  0  0  0  0999 V2000
  187.7590  178.8250  142.3410 C   0  0  2  0  0  3  0  0  0  0  0  0
  186.6430  177.8420  142.6560 C   0  0  1  0  0  3  0  0  0  0  0  0
  186.9750  178.5370  139.9880 N   0  0  0  0  0  2  0  0  0  0  0  0
  189.9560  177.7110  142.9890 N   0  0  2  0  0  0  0  0  0  0  0  0
  185.4520  179.7670  145.5690 C   0  0  0  0  0  2  0  0  0  0  0  0
  190.2950  175.4450  142.5960 C   0  0  0  0  0  2  0  0  0  0  0  0
  185.8000  178.9860  140.6140 N   0  0  0  0  0  2  0  0  0  0  0  0
  190.2660  177.4620  141.5810 C   0  0  1  0  0  3  0  0  0  0  0  0
  190.8200  176.1620  141.4930 O   0  0  0  0  0  0  0  0  0  0  0  0
  184.1660  178.4860  142.3060 C   0  0  0  0  0  0  0  0  0  0  0  0
  183.1350  178.5790  141.5910 O   0  0  0  0  0  0  0  0  0  0  0  0
  184.7210  178.5060  146.0170 C   0  0  1  0  0  3  0  0  0  0  0  0
  186.3100  177.7110  144.1390 C   0  0  0  0  0  2  0  0  0  0  0  0
  189.5430  176.4190  143.4840 C   0  0  0  0  0  2  0  0  0  0  0  0
  188.1490  178.7150  140.8620 C   0  0  2  0  0  3  0  0  0  0  0  0
  189.0390  177.5040  140.6610 C   0  0  0  0  0  2  0  0  0  0  0  0
  184.0890  178.8520  143.6770 N   0  0  0  0  0  2  0  0  0  0  0  0
  188.9680  178.7620  143.2820 C   0  0  0  0  0  2  0  0  0  0  0  0
  185.1980  178.6600  144.5810 C   0  0  2  0  0  0  0  0  0  0  0  0
  185.4470  178.0380  141.6780 C   0  0  2  0  0  3  0  0  0  0  0  0
  185.6470  177.6950  146.9280 C   0  0  0  0  0  2  0  0  0  0  0  0
  186.6220  178.5420  147.5240 O   0  0  0  0  0  0  0  0  0  0  0  0
  187.8800  178.0740  147.9020 C   0  0  0  0  0  0  0  0  0  0  0  0
  188.8450  177.6330  146.8510 C   0  0  0  0  0  1  0  0  0  0  0  0
  188.2320  178.0380  149.1150 O   0  0  0  0  0  0  0  0  0  0  0  0
  1  2  1  0  0  0  0
  1 18  1  1  0  0  0
  2 13  1  1  0  0  0
  3  7  1  0  0  0  0
  3 15  1  0  0  0  0
  4 18  1  6  0  0  0
  4 14  1  0  0  0  0
  5 12  1  0  0  0  0
  6 14  1  0  0  0  0
  8 16  1  6  0  0  0
  8  4  1  0  0  0  0
  9  8  1  0  0  0  0
  9  6  1  0  0  0  0
 10 17  1  0  0  0  0
 11 10  2  0  0  0  0
 12 21  1  1  0  0  0
 15 16  1  1  0  0  0
 15  1  1  0  0  0  0
 17 19  1  0  0  0  0
 19 13  1  6  0  0  0
 19  5  1  0  0  0  0
 19 12  1  0  0  0  0
 20  7  1  6  0  0  0
 20 10  1  0  0  0  0
 20  2  1  0  0  0  0
 21 22  1  0  0  0  0
 22 23  1  0  0  0  0
 23 25  2  0  0  0  0
 24 23  1  0  0  0  0
M  END
>  <MODEL>
9

>  <REMARK>
 VINA RESULT:      -6.5      2.142      5.004
  Name = 
  3 active torsions:
  status: ('A' for Active; 'I' for Inactive)
    1  A    between atoms: C_2  and  O_21
    2  A    between atoms: C_15  and  C_25
    3  A    between atoms: O_21  and  C_25
                            x       y       z     vdW  Elec       q    Type
                         _______ _______ _______ _____ _____    ______ ____

>  <TORSDO>
F 3

$$$$
