=
 OpenBabel10272401013D

 27 30  0  0  1  0  0  0  0  0999 V2000
  184.7640  179.7850  143.1940 C   0  0  0  0  0  2  0  0  0  0  0  0
  186.1360  178.7150  141.2460 C   0  0  0  0  0  0  0  0  0  0  0  0
  186.7720  177.4880  143.2300 O   0  0  0  0  0  0  0  0  0  0  0  0
  189.6840  177.8330  139.2630 C   0  0  0  0  0  3  0  0  0  0  0  0
  191.9290  176.7500  139.1180 C   0  0  0  0  0  1  0  0  0  0  0  0
  186.4070  179.1560  139.9900 N   0  0  0  0  0  0  0  0  0  0  0  0
  189.3010  176.8180  141.8340 C   0  0  0  0  0  3  0  0  0  0  0  0
  187.2130  178.2290  145.9730 N   0  0  0  0  0  2  0  0  0  0  0  0
  190.4820  176.5380  141.1410 C   0  0  0  0  0  3  0  0  0  0  0  0
  186.3080  178.4130  147.1000 C   0  0  0  0  0  2  0  0  0  0  0  0
  187.0820  177.9180  141.9260 C   0  0  0  0  0  0  0  0  0  0  0  0
  184.7910  179.0710  141.8250 C   0  0  1  0  0  3  0  0  0  0  0  0
  190.6740  177.0460  139.8560 C   0  0  0  0  0  0  0  0  0  0  0  0
  188.5020  178.1130  139.9540 C   0  0  0  0  0  0  0  0  0  0  0  0
  184.5030  178.8560  144.3650 C   0  0  0  0  0  2  0  0  0  0  0  0
  188.2950  177.6090  141.2580 C   0  0  0  0  0  0  0  0  0  0  0  0
  187.1140  176.8490  145.5220 C   0  0  0  0  0  2  0  0  0  0  0  0
  187.5480  178.8720  139.3670 N   0  0  0  0  0  0  0  0  0  0  0  0
  184.8570  178.5290  146.6380 C   0  0  0  0  0  2  0  0  0  0  0  0
  184.7210  179.5570  145.6180 N   0  0  0  0  0  2  0  0  0  0  0  0
  187.6230  176.7480  144.0960 C   0  0  0  0  0  2  0  0  0  0  0  0
  181.4560  177.0870  140.0280 C   0  0  0  0  0  2  0  0  0  0  0  0
  183.7240  178.1090  141.5000 N   0  0  0  0  0  0  0  0  0  0  0  0
  183.8860  177.6330  140.1230 C   0  0  0  0  0  2  0  0  0  0  0  0
  182.8650  176.5400  139.8240 C   0  0  0  0  0  2  0  0  0  0  0  0
  181.3140  177.6630  141.4330 C   0  0  0  0  0  2  0  0  0  0  0  0
  182.3980  178.7120  141.6660 C   0  0  0  0  0  2  0  0  0  0  0  0
  1 15  1  0  0  0  0
  2 12  1  0  0  0  0
  2 11  1  0  0  0  0
  3 21  1  0  0  0  0
  4 13  2  0  0  0  0
  4 14  1  0  0  0  0
  5 13  1  0  0  0  0
  6  2  2  0  0  0  0
  8 10  1  0  0  0  0
  9  7  2  0  0  0  0
 11  3  1  0  0  0  0
 12 23  1  1  0  0  0
 12  1  1  0  0  0  0
 13  9  1  0  0  0  0
 14 16  1  0  0  0  0
 15 20  1  0  0  0  0
 16  7  1  0  0  0  0
 16 11  2  0  0  0  0
 17  8  1  0  0  0  0
 18 14  2  0  0  0  0
 18  6  1  0  0  0  0
 19 10  1  0  0  0  0
 20 19  1  0  0  0  0
 21 17  1  0  0  0  0
 22 26  1  0  0  0  0
 23 27  1  0  0  0  0
 24 23  1  0  0  0  0
 25 22  1  0  0  0  0
 25 24  1  0  0  0  0
 26 27  1  0  0  0  0
M  END
>  <MODEL>
1

>  <REMARK>
 VINA RESULT:      -7.2      0.000      0.000
  Name = 
  1 active torsions:
  status: ('A' for Active; 'I' for Inactive)
    1  A    between atoms: N_9  and  C_15
                            x       y       z     vdW  Elec       q    Type
                         _______ _______ _______ _____ _____    ______ ____

>  <TORSDO>
F 1

$$$$
=
 OpenBabel10272401013D

 27 30  0  0  1  0  0  0  0  0999 V2000
  191.6360  177.6150  139.1040 C   0  0  0  0  0  2  0  0  0  0  0  0
  189.0260  177.5190  139.0790 C   0  0  0  0  0  0  0  0  0  0  0  0
  189.7550  175.5330  137.9070 O   0  0  0  0  0  0  0  0  0  0  0  0
  185.3350  177.5940  137.1620 C   0  0  0  0  0  3  0  0  0  0  0  0
  183.6520  176.6770  135.5620 C   0  0  0  0  0  1  0  0  0  0  0  0
  188.0900  178.4720  139.3220 N   0  0  0  0  0  0  0  0  0  0  0  0
  187.1220  175.5410  136.5430 C   0  0  0  0  0  3  0  0  0  0  0  0
  191.9120  174.9720  136.0920 N   0  0  0  0  0  2  0  0  0  0  0  0
  185.8740  175.5940  135.9170 C   0  0  0  0  0  3  0  0  0  0  0  0
  193.3160  174.6390  136.3040 C   0  0  0  0  0  2  0  0  0  0  0  0
  188.7570  176.4970  138.1420 C   0  0  0  0  0  0  0  0  0  0  0  0
  190.3000  177.5860  139.8790 C   0  0  1  0  0  3  0  0  0  0  0  0
  184.9800  176.6200  136.2260 C   0  0  0  0  0  0  0  0  0  0  0  0
  186.5830  177.5420  137.7890 C   0  0  0  0  0  0  0  0  0  0  0  0
  192.3180  176.2640  139.0060 C   0  0  0  0  0  2  0  0  0  0  0  0
  187.5000  176.5120  137.4840 C   0  0  0  0  0  0  0  0  0  0  0  0
  191.0950  173.9380  136.7080 C   0  0  0  0  0  2  0  0  0  0  0  0
  186.9130  178.4890  138.6990 N   0  0  0  0  0  0  0  0  0  0  0  0
  193.7550  174.9560  137.7320 C   0  0  0  0  0  2  0  0  0  0  0  0
  193.4320  176.3320  138.0770 N   0  0  0  0  0  2  0  0  0  0  0  0
  189.6990  174.4800  136.9530 C   0  0  0  0  0  2  0  0  0  0  0  0
  189.9150  176.6310  144.0300 C   0  0  0  0  0  2  0  0  0  0  0  0
  190.2390  176.8760  141.1680 N   0  0  0  0  0  0  0  0  0  0  0  0
  188.9250  177.0820  141.7870 C   0  0  0  0  0  2  0  0  0  0  0  0
  188.8080  176.2430  143.0550 C   0  0  0  0  0  2  0  0  0  0  0  0
  191.2770  176.5020  143.3570 C   0  0  0  0  0  2  0  0  0  0  0  0
  191.2950  177.3320  142.0760 C   0  0  0  0  0  2  0  0  0  0  0  0
  2  6  1  0  0  0  0
  2 12  1  0  0  0  0
  3 11  1  0  0  0  0
  4 14  1  0  0  0  0
  5 13  1  0  0  0  0
  7 16  1  0  0  0  0
  8 10  1  0  0  0  0
  8 17  1  0  0  0  0
  9 13  1  0  0  0  0
  9  7  2  0  0  0  0
 10 19  1  0  0  0  0
 11  2  2  0  0  0  0
 12  1  1  6  0  0  0
 12 23  1  0  0  0  0
 13  4  2  0  0  0  0
 14 18  1  0  0  0  0
 15  1  1  0  0  0  0
 16 14  2  0  0  0  0
 16 11  1  0  0  0  0
 17 21  1  0  0  0  0
 18  6  2  0  0  0  0
 19 20  1  0  0  0  0
 20 15  1  0  0  0  0
 21  3  1  0  0  0  0
 23 24  1  0  0  0  0
 23 27  1  0  0  0  0
 24 25  1  0  0  0  0
 25 22  1  0  0  0  0
 26 22  1  0  0  0  0
 27 26  1  0  0  0  0
M  END
>  <MODEL>
2

>  <REMARK>
 VINA RESULT:      -7.1      3.984      7.978
  Name = 
  1 active torsions:
  status: ('A' for Active; 'I' for Inactive)
    1  A    between atoms: N_9  and  C_15
                            x       y       z     vdW  Elec       q    Type
                         _______ _______ _______ _____ _____    ______ ____

>  <TORSDO>
F 1

$$$$
=
 OpenBabel10272401013D

 27 30  0  0  1  0  0  0  0  0999 V2000
  182.0370  177.4550  137.2420 C   0  0  0  0  0  2  0  0  0  0  0  0
  182.1080  178.6360  139.5700 C   0  0  0  0  0  0  0  0  0  0  0  0
  184.4140  178.4700  138.8620 O   0  0  0  0  0  0  0  0  0  0  0  0
  183.1020  178.8130  143.6050 C   0  0  0  0  0  3  0  0  0  0  0  0
  184.7500  178.8460  145.4800 C   0  0  0  0  0  1  0  0  0  0  0  0
  181.1770  178.7390  140.5540 N   0  0  0  0  0  0  0  0  0  0  0  0
  185.1580  178.6210  141.7280 C   0  0  0  0  0  3  0  0  0  0  0  0
  185.9260  176.4700  137.4560 N   0  0  0  0  0  2  0  0  0  0  0  0
  185.4600  178.6850  143.0910 C   0  0  0  0  0  3  0  0  0  0  0  0
  186.0920  176.1780  136.0370 C   0  0  0  0  0  2  0  0  0  0  0  0
  183.4780  178.5890  139.9070 C   0  0  0  0  0  0  0  0  0  0  0  0
  181.6090  178.6290  138.1490 C   0  0  1  0  0  3  0  0  0  0  0  0
  184.4310  178.7790  144.0300 C   0  0  0  0  0  0  0  0  0  0  0  0
  182.7990  178.7510  142.2420 C   0  0  0  0  0  0  0  0  0  0  0  0
  183.2110  177.7750  136.3360 C   0  0  0  0  0  2  0  0  0  0  0  0
  183.8290  178.6510  141.2800 C   0  0  0  0  0  0  0  0  0  0  0  0
  186.4190  177.8150  137.7110 C   0  0  0  0  0  2  0  0  0  0  0  0
  181.5060  178.7900  141.8430 N   0  0  0  0  0  0  0  0  0  0  0  0
  185.0240  176.8740  135.1950 C   0  0  0  0  0  2  0  0  0  0  0  0
  183.6920  176.5650  135.6940 N   0  0  0  0  0  2  0  0  0  0  0  0
  185.8220  178.3320  139.0060 C   0  0  0  0  0  2  0  0  0  0  0  0
  180.1320  182.4790  137.0130 C   0  0  0  0  0  2  0  0  0  0  0  0
  181.4610  179.9700  137.5570 N   0  0  0  0  0  0  0  0  0  0  0  0
  181.2900  180.9660  138.6200 C   0  0  0  0  0  2  0  0  0  0  0  0
  181.2700  182.3690  138.0230 C   0  0  0  0  0  2  0  0  0  0  0  0
  180.2600  181.3860  135.9560 C   0  0  0  0  0  2  0  0  0  0  0  0
  180.3200  180.0220  136.6380 C   0  0  0  0  0  2  0  0  0  0  0  0
  2 11  2  0  0  0  0
  2  6  1  0  0  0  0
  3 21  1  0  0  0  0
  3 11  1  0  0  0  0
  4 13  1  0  0  0  0
  6 18  2  0  0  0  0
  7  9  1  0  0  0  0
  8 17  1  0  0  0  0
  9 13  2  0  0  0  0
 10  8  1  0  0  0  0
 11 16  1  0  0  0  0
 12  1  1  6  0  0  0
 12  2  1  0  0  0  0
 13  5  1  0  0  0  0
 14  4  2  0  0  0  0
 15  1  1  0  0  0  0
 16  7  2  0  0  0  0
 16 14  1  0  0  0  0
 17 21  1  0  0  0  0
 18 14  1  0  0  0  0
 19 20  1  0  0  0  0
 19 10  1  0  0  0  0
 20 15  1  0  0  0  0
 22 25  1  0  0  0  0
 23 12  1  0  0  0  0
 23 24  1  0  0  0  0
 25 24  1  0  0  0  0
 26 27  1  0  0  0  0
 26 22  1  0  0  0  0
 27 23  1  0  0  0  0
M  END
>  <MODEL>
3

>  <REMARK>
 VINA RESULT:      -6.9      3.618      7.059
  Name = 
  1 active torsions:
  status: ('A' for Active; 'I' for Inactive)
    1  A    between atoms: N_9  and  C_15
                            x       y       z     vdW  Elec       q    Type
                         _______ _______ _______ _____ _____    ______ ____

>  <TORSDO>
F 1

$$$$
=
 OpenBabel10272401013D

 27 30  0  0  1  0  0  0  0  0999 V2000
  184.0470  179.7610  138.6710 C   0  0  0  0  0  2  0  0  0  0  0  0
  185.0670  178.5650  140.7570 C   0  0  0  0  0  0  0  0  0  0  0  0
  182.7190  178.8460  141.2610 O   0  0  0  0  0  0  0  0  0  0  0  0
  186.1600  178.4030  144.7670 C   0  0  0  0  0  3  0  0  0  0  0  0
  185.6350  178.4330  147.2080 C   0  0  0  0  0  1  0  0  0  0  0  0
  186.3530  178.4100  141.1640 N   0  0  0  0  0  0  0  0  0  0  0  0
  183.4600  178.7070  144.1280 C   0  0  0  0  0  3  0  0  0  0  0  0
  180.8060  180.9270  140.7370 N   0  0  0  0  0  2  0  0  0  0  0  0
  183.8590  178.6470  145.4660 C   0  0  0  0  0  3  0  0  0  0  0  0
  179.9820  181.2380  139.5750 C   0  0  0  0  0  2  0  0  0  0  0  0
  184.0390  178.6740  141.7180 C   0  0  0  0  0  0  0  0  0  0  0  0
  184.8090  178.5600  139.2730 C   0  0  1  0  0  3  0  0  0  0  0  0
  185.2090  178.4960  145.7860 C   0  0  0  0  0  0  0  0  0  0  0  0
  185.7620  178.4610  143.4290 C   0  0  0  0  0  0  0  0  0  0  0  0
  182.5670  179.5040  138.4580 C   0  0  0  0  0  2  0  0  0  0  0  0
  184.4000  178.6180  143.0890 C   0  0  0  0  0  0  0  0  0  0  0  0
  180.4380  179.6050  141.2220 C   0  0  0  0  0  2  0  0  0  0  0  0
  186.6930  178.3640  142.4500 N   0  0  0  0  0  0  0  0  0  0  0  0
  180.4710  180.4990  138.3310 C   0  0  0  0  0  2  0  0  0  0  0  0
  181.8900  180.7400  138.1120 N   0  0  0  0  0  2  0  0  0  0  0  0
  181.5680  179.0500  142.0700 C   0  0  0  0  0  2  0  0  0  0  0  0
  183.4800  175.2830  136.8670 C   0  0  0  0  0  2  0  0  0  0  0  0
  184.5890  177.2180  138.7060 N   0  0  0  0  0  0  0  0  0  0  0  0
  185.0200  177.1940  137.3050 C   0  0  0  0  0  2  0  0  0  0  0  0
  184.9190  175.7760  136.7520 C   0  0  0  0  0  2  0  0  0  0  0  0
  183.0010  175.3920  138.3110 C   0  0  0  0  0  2  0  0  0  0  0  0
  183.1790  176.8270  138.8000 C   0  0  0  0  0  2  0  0  0  0  0  0
  2  6  2  0  0  0  0
  2 11  1  0  0  0  0
  3 11  1  0  0  0  0
  3 21  1  0  0  0  0
  4 13  2  0  0  0  0
  6 18  1  0  0  0  0
  7  9  2  0  0  0  0
  8 17  1  0  0  0  0
  9 13  1  0  0  0  0
 10  8  1  0  0  0  0
 11 16  2  0  0  0  0
 12  1  1  1  0  0  0
 12  2  1  0  0  0  0
 13  5  1  0  0  0  0
 14  4  1  0  0  0  0
 15  1  1  0  0  0  0
 16 14  1  0  0  0  0
 16  7  1  0  0  0  0
 17 21  1  0  0  0  0
 18 14  2  0  0  0  0
 19 10  1  0  0  0  0
 20 19  1  0  0  0  0
 20 15  1  0  0  0  0
 22 26  1  0  0  0  0
 23 27  1  0  0  0  0
 23 12  1  0  0  0  0
 24 23  1  0  0  0  0
 25 22  1  0  0  0  0
 25 24  1  0  0  0  0
 26 27  1  0  0  0  0
M  END
>  <MODEL>
4

>  <REMARK>
 VINA RESULT:      -6.7      3.211      6.133
  Name = 
  1 active torsions:
  status: ('A' for Active; 'I' for Inactive)
    1  A    between atoms: N_9  and  C_15
                            x       y       z     vdW  Elec       q    Type
                         _______ _______ _______ _____ _____    ______ ____

>  <TORSDO>
F 1

$$$$
=
 OpenBabel10272401013D

 27 30  0  0  1  0  0  0  0  0999 V2000
  189.3910  178.3970  138.9090 C   0  0  0  0  0  2  0  0  0  0  0  0
  186.8810  178.4190  139.6280 C   0  0  0  0  0  0  0  0  0  0  0  0
  187.0490  176.7040  137.9320 O   0  0  0  0  0  0  0  0  0  0  0  0
  182.8320  179.0640  138.9230 C   0  0  0  0  0  3  0  0  0  0  0  0
  180.6880  178.5870  137.7370 C   0  0  0  0  0  1  0  0  0  0  0  0
  186.1510  179.3370  140.3140 N   0  0  0  0  0  0  0  0  0  0  0  0
  184.1570  177.1190  137.4240 C   0  0  0  0  0  3  0  0  0  0  0  0
  188.5520  176.4550  135.4940 N   0  0  0  0  0  2  0  0  0  0  0  0
  182.7970  177.3580  137.2120 C   0  0  0  0  0  3  0  0  0  0  0  0
  189.9170  176.0240  135.2180 C   0  0  0  0  0  2  0  0  0  0  0  0
  186.2590  177.6360  138.6310 C   0  0  0  0  0  0  0  0  0  0  0  0
  188.3260  178.2580  140.0190 C   0  0  1  0  0  3  0  0  0  0  0  0
  182.1340  178.3310  137.9610 C   0  0  0  0  0  0  0  0  0  0  0  0
  184.1930  178.8250  139.1370 C   0  0  0  0  0  0  0  0  0  0  0  0
  189.8770  177.0700  138.3560 C   0  0  0  0  0  2  0  0  0  0  0  0
  184.8780  177.8460  138.3840 C   0  0  0  0  0  0  0  0  0  0  0  0
  187.8340  175.3480  136.1090 C   0  0  0  0  0  2  0  0  0  0  0  0
  184.8570  179.5380  140.0770 N   0  0  0  0  0  0  0  0  0  0  0  0
  190.7640  176.0070  136.4900 C   0  0  0  0  0  2  0  0  0  0  0  0
  190.6920  177.2880  137.1750 N   0  0  0  0  0  2  0  0  0  0  0  0
  186.6240  175.8850  136.8500 C   0  0  0  0  0  2  0  0  0  0  0  0
  189.3160  176.4370  143.7600 C   0  0  0  0  0  2  0  0  0  0  0  0
  188.5500  177.2900  141.1060 N   0  0  0  0  0  0  0  0  0  0  0  0
  187.7280  177.6480  142.2670 C   0  0  0  0  0  2  0  0  0  0  0  0
  187.8540  176.5770  143.3460 C   0  0  0  0  0  2  0  0  0  0  0  0
  190.1840  176.1540  142.5380 C   0  0  0  0  0  2  0  0  0  0  0  0
  189.9640  177.2430  141.4920 C   0  0  0  0  0  2  0  0  0  0  0  0
  2 12  1  0  0  0  0
  2  6  1  0  0  0  0
  3 11  1  0  0  0  0
  4 14  1  0  0  0  0
  5 13  1  0  0  0  0
  7 16  1  0  0  0  0
  8 17  1  0  0  0  0
  9  7  2  0  0  0  0
  9 13  1  0  0  0  0
 10  8  1  0  0  0  0
 10 19  1  0  0  0  0
 11  2  2  0  0  0  0
 12  1  1  6  0  0  0
 12 23  1  0  0  0  0
 13  4  2  0  0  0  0
 14 18  1  0  0  0  0
 15  1  1  0  0  0  0
 16 11  1  0  0  0  0
 16 14  2  0  0  0  0
 17 21  1  0  0  0  0
 18  6  2  0  0  0  0
 19 20  1  0  0  0  0
 20 15  1  0  0  0  0
 21  3  1  0  0  0  0
 23 27  1  0  0  0  0
 23 24  1  0  0  0  0
 24 25  1  0  0  0  0
 25 22  1  0  0  0  0
 26 22  1  0  0  0  0
 27 26  1  0  0  0  0
M  END
>  <MODEL>
5

>  <REMARK>
 VINA RESULT:      -6.7      2.926      7.632
  Name = 
  1 active torsions:
  status: ('A' for Active; 'I' for Inactive)
    1  A    between atoms: N_9  and  C_15
                            x       y       z     vdW  Elec       q    Type
                         _______ _______ _______ _____ _____    ______ ____

>  <TORSDO>
F 1

$$$$
=
 OpenBabel10272401013D

 27 30  0  0  1  0  0  0  0  0999 V2000
  183.4210  180.0410  138.9850 C   0  0  0  0  0  2  0  0  0  0  0  0
  185.3390  178.7110  140.1570 C   0  0  0  0  0  0  0  0  0  0  0  0
  183.4080  178.4510  141.5880 O   0  0  0  0  0  0  0  0  0  0  0  0
  188.0330  178.0560  143.2590 C   0  0  0  0  0  3  0  0  0  0  0  0
  188.5870  177.5560  145.6410 C   0  0  0  0  0  1  0  0  0  0  0  0
  186.6860  178.7330  139.9800 N   0  0  0  0  0  0  0  0  0  0  0  0
  185.3000  177.9520  143.8160 C   0  0  0  0  0  3  0  0  0  0  0  0
  181.2560  180.1920  142.3660 N   0  0  0  0  0  2  0  0  0  0  0  0
  186.2300  177.7350  144.8360 C   0  0  0  0  0  3  0  0  0  0  0  0
  179.9930  180.5410  141.7270 C   0  0  0  0  0  2  0  0  0  0  0  0
  184.8070  178.4540  141.4390 C   0  0  0  0  0  0  0  0  0  0  0  0
  184.4810  178.9180  138.9370 C   0  0  1  0  0  3  0  0  0  0  0  0
  187.5970  177.7870  144.5580 C   0  0  0  0  0  0  0  0  0  0  0  0
  187.1040  178.2730  142.2370 C   0  0  0  0  0  0  0  0  0  0  0  0
  182.0230  179.5510  139.3120 C   0  0  0  0  0  2  0  0  0  0  0  0
  185.7170  178.2260  142.5040 C   0  0  0  0  0  0  0  0  0  0  0  0
  181.2610  178.7600  142.6250 C   0  0  0  0  0  2  0  0  0  0  0  0
  187.5390  178.5260  140.9810 N   0  0  0  0  0  0  0  0  0  0  0  0
  179.9820  180.1380  140.2540 C   0  0  0  0  0  2  0  0  0  0  0  0
  181.1440  180.6780  139.5630 N   0  0  0  0  0  2  0  0  0  0  0  0
  182.6920  178.2880  142.8060 C   0  0  0  0  0  2  0  0  0  0  0  0
  183.9090  176.0040  135.8590 C   0  0  0  0  0  2  0  0  0  0  0  0
  184.1770  177.6800  138.1990 N   0  0  0  0  0  0  0  0  0  0  0  0
  185.3660  177.2340  137.4660 C   0  0  0  0  0  2  0  0  0  0  0  0
  185.0970  175.8840  136.8080 C   0  0  0  0  0  2  0  0  0  0  0  0
  182.6960  176.5540  136.6020 C   0  0  0  0  0  2  0  0  0  0  0  0
  183.0620  177.8780  137.2680 C   0  0  0  0  0  2  0  0  0  0  0  0
  1 15  1  0  0  0  0
  2 11  1  0  0  0  0
  3 21  1  0  0  0  0
  4 13  2  0  0  0  0
  6  2  2  0  0  0  0
  6 18  1  0  0  0  0
  7  9  2  0  0  0  0
  8 17  1  0  0  0  0
 10  8  1  0  0  0  0
 11  3  1  0  0  0  0
 11 16  2  0  0  0  0
 12 23  1  1  0  0  0
 12  1  1  0  0  0  0
 12  2  1  0  0  0  0
 13  9  1  0  0  0  0
 13  5  1  0  0  0  0
 14 16  1  0  0  0  0
 14  4  1  0  0  0  0
 15 20  1  0  0  0  0
 16  7  1  0  0  0  0
 17 21  1  0  0  0  0
 18 14  2  0  0  0  0
 19 10  1  0  0  0  0
 20 19  1  0  0  0  0
 22 26  1  0  0  0  0
 22 25  1  0  0  0  0
 24 23  1  0  0  0  0
 25 24  1  0  0  0  0
 26 27  1  0  0  0  0
 27 23  1  0  0  0  0
M  END
>  <MODEL>
6

>  <REMARK>
 VINA RESULT:      -6.7      2.844      5.040
  Name = 
  1 active torsions:
  status: ('A' for Active; 'I' for Inactive)
    1  A    between atoms: N_9  and  C_15
                            x       y       z     vdW  Elec       q    Type
                         _______ _______ _______ _____ _____    ______ ____

>  <TORSDO>
F 1

$$$$
=
 OpenBabel10272401013D

 27 30  0  0  1  0  0  0  0  0999 V2000
  188.4530  178.4150  138.4290 C   0  0  0  0  0  2  0  0  0  0  0  0
  189.8880  177.3270  140.3210 C   0  0  0  0  0  0  0  0  0  0  0  0
  187.6320  177.4060  141.1890 O   0  0  0  0  0  0  0  0  0  0  0  0
  191.6070  177.2880  144.1080 C   0  0  0  0  0  3  0  0  0  0  0  0
  191.4710  177.2890  146.6010 C   0  0  0  0  0  1  0  0  0  0  0  0
  191.2310  177.2880  140.5190 N   0  0  0  0  0  0  0  0  0  0  0  0
  188.8240  177.3510  143.9030 C   0  0  0  0  0  3  0  0  0  0  0  0
  185.4870  179.3080  140.9870 N   0  0  0  0  0  2  0  0  0  0  0  0
  189.4320  177.3360  145.1610 C   0  0  0  0  0  3  0  0  0  0  0  0
  184.4670  179.5380  139.9700 C   0  0  0  0  0  2  0  0  0  0  0  0
  189.0180  177.3530  141.4320 C   0  0  0  0  0  0  0  0  0  0  0  0
  189.4020  177.2900  138.8950 C   0  0  1  0  0  3  0  0  0  0  0  0
  190.8240  177.3050  145.2640 C   0  0  0  0  0  0  0  0  0  0  0  0
  191.0000  177.3030  142.8490 C   0  0  0  0  0  0  0  0  0  0  0  0
  186.9860  178.0290  138.4490 C   0  0  0  0  0  2  0  0  0  0  0  0
  189.5930  177.3380  142.7290 C   0  0  0  0  0  0  0  0  0  0  0  0
  185.3170  177.9630  141.5140 C   0  0  0  0  0  2  0  0  0  0  0  0
  191.7700  177.2800  141.7360 N   0  0  0  0  0  0  0  0  0  0  0  0
  184.8170  178.8370  138.6600 C   0  0  0  0  0  2  0  0  0  0  0  0
  186.1570  179.1990  138.2230 N   0  0  0  0  0  2  0  0  0  0  0  0
  186.6090  177.5140  142.1700 C   0  0  0  0  0  2  0  0  0  0  0  0
  189.1900  173.8780  136.3250 C   0  0  0  0  0  2  0  0  0  0  0  0
  189.2130  175.9300  138.3610 N   0  0  0  0  0  0  0  0  0  0  0  0
  190.4700  175.4450  137.7810 C   0  0  0  0  0  2  0  0  0  0  0  0
  190.3180  173.9910  137.3460 C   0  0  0  0  0  2  0  0  0  0  0  0
  187.9030  174.4640  136.8960 C   0  0  0  0  0  2  0  0  0  0  0  0
  188.1530  175.9000  137.3480 C   0  0  0  0  0  2  0  0  0  0  0  0
  1 15  1  0  0  0  0
  1 12  1  0  0  0  0
  2  6  2  0  0  0  0
  2 11  1  0  0  0  0
  3 11  1  0  0  0  0
  3 21  1  0  0  0  0
  4 13  2  0  0  0  0
  6 18  1  0  0  0  0
  7  9  2  0  0  0  0
  8 17  1  0  0  0  0
  9 13  1  0  0  0  0
 10  8  1  0  0  0  0
 11 16  2  0  0  0  0
 12 23  1  1  0  0  0
 12  2  1  0  0  0  0
 13  5  1  0  0  0  0
 14  4  1  0  0  0  0
 16 14  1  0  0  0  0
 16  7  1  0  0  0  0
 17 21  1  0  0  0  0
 18 14  2  0  0  0  0
 19 10  1  0  0  0  0
 20 15  1  0  0  0  0
 20 19  1  0  0  0  0
 22 26  1  0  0  0  0
 22 25  1  0  0  0  0
 24 23  1  0  0  0  0
 25 24  1  0  0  0  0
 26 27  1  0  0  0  0
 27 23  1  0  0  0  0
M  END
>  <MODEL>
7

>  <REMARK>
 VINA RESULT:      -6.1      2.799      5.971
  Name = 
  1 active torsions:
  status: ('A' for Active; 'I' for Inactive)
    1  A    between atoms: N_9  and  C_15
                            x       y       z     vdW  Elec       q    Type
                         _______ _______ _______ _____ _____    ______ ____

>  <TORSDO>
F 1

$$$$
=
 OpenBabel10272401013D

 27 30  0  0  1  0  0  0  0  0999 V2000
  188.0330  179.1360  140.4330 C   0  0  0  0  0  2  0  0  0  0  0  0
  189.7960  177.8730  141.8880 C   0  0  0  0  0  0  0  0  0  0  0  0
  187.6520  177.3420  142.8710 O   0  0  0  0  0  0  0  0  0  0  0  0
  191.8670  177.1850  145.4290 C   0  0  0  0  0  3  0  0  0  0  0  0
  191.9800  176.5390  147.8380 C   0  0  0  0  0  1  0  0  0  0  0  0
  191.1430  178.0170  141.9930 N   0  0  0  0  0  0  0  0  0  0  0  0
  189.1010  176.8170  145.4040 C   0  0  0  0  0  3  0  0  0  0  0  0
  185.2330  178.8360  143.2980 N   0  0  0  0  0  2  0  0  0  0  0  0
  189.8260  176.5920  146.5780 C   0  0  0  0  0  3  0  0  0  0  0  0
  184.0950  179.1340  142.4370 C   0  0  0  0  0  2  0  0  0  0  0  0
  189.0470  177.4700  143.0140 C   0  0  0  0  0  0  0  0  0  0  0  0
  189.1830  178.1100  140.5330 C   0  0  1  0  0  3  0  0  0  0  0  0
  191.2090  176.7770  146.5910 C   0  0  0  0  0  0  0  0  0  0  0  0
  191.1440  177.4090  144.2540 C   0  0  0  0  0  0  0  0  0  0  0  0
  186.6510  178.5100  140.4330 C   0  0  0  0  0  2  0  0  0  0  0  0
  189.7430  177.2300  144.2270 C   0  0  0  0  0  0  0  0  0  0  0  0
  185.3230  177.3930  143.4620 C   0  0  0  0  0  2  0  0  0  0  0  0
  191.7950  177.7990  143.1330 N   0  0  0  0  0  0  0  0  0  0  0  0
  184.4160  178.8530  140.9700 C   0  0  0  0  0  2  0  0  0  0  0  0
  185.6360  179.5380  140.5690 N   0  0  0  0  0  2  0  0  0  0  0  0
  186.7270  177.0230  143.9030 C   0  0  0  0  0  2  0  0  0  0  0  0
  189.5360  175.4160  137.2300 C   0  0  0  0  0  2  0  0  0  0  0  0
  189.1510  176.9160  139.6710 N   0  0  0  0  0  0  0  0  0  0  0  0
  190.5030  176.6130  139.1900 C   0  0  0  0  0  2  0  0  0  0  0  0
  190.4990  175.3040  138.4070 C   0  0  0  0  0  2  0  0  0  0  0  0
  188.1490  175.8180  137.7210 C   0  0  0  0  0  2  0  0  0  0  0  0
  188.2490  177.1070  138.5310 C   0  0  0  0  0  2  0  0  0  0  0  0
  1 15  1  0  0  0  0
  1 12  1  0  0  0  0
  2  6  2  0  0  0  0
  2 11  1  0  0  0  0
  3 11  1  0  0  0  0
  3 21  1  0  0  0  0
  4 13  2  0  0  0  0
  6 18  1  0  0  0  0
  7  9  2  0  0  0  0
  8 17  1  0  0  0  0
  9 13  1  0  0  0  0
 10  8  1  0  0  0  0
 11 16  2  0  0  0  0
 12 23  1  1  0  0  0
 12  2  1  0  0  0  0
 13  5  1  0  0  0  0
 14  4  1  0  0  0  0
 15 20  1  0  0  0  0
 16 14  1  0  0  0  0
 16  7  1  0  0  0  0
 17 21  1  0  0  0  0
 18 14  2  0  0  0  0
 19 10  1  0  0  0  0
 20 19  1  0  0  0  0
 22 26  1  0  0  0  0
 22 25  1  0  0  0  0
 24 23  1  0  0  0  0
 25 24  1  0  0  0  0
 26 27  1  0  0  0  0
 27 23  1  0  0  0  0
M  END
>  <MODEL>
8

>  <REMARK>
 VINA RESULT:      -6.0      2.707      5.516
  Name = 
  1 active torsions:
  status: ('A' for Active; 'I' for Inactive)
    1  A    between atoms: N_9  and  C_15
                            x       y       z     vdW  Elec       q    Type
                         _______ _______ _______ _____ _____    ______ ____

>  <TORSDO>
F 1

$$$$
=
 OpenBabel10272401013D

 27 30  0  0  1  0  0  0  0  0999 V2000
  185.8950  178.2070  137.5820 C   0  0  0  0  0  2  0  0  0  0  0  0
  187.8660  176.7730  136.6410 C   0  0  0  0  0  0  0  0  0  0  0  0
  188.2730  176.9450  139.0190 O   0  0  0  0  0  0  0  0  0  0  0  0
  191.8760  176.1210  135.7520 C   0  0  0  0  0  3  0  0  0  0  0  0
  194.2690  175.8290  136.4020 C   0  0  0  0  0  1  0  0  0  0  0  0
  188.3180  176.5910  135.3740 N   0  0  0  0  0  0  0  0  0  0  0  0
  191.1350  176.4550  138.4220 C   0  0  0  0  0  3  0  0  0  0  0  0
  187.9140  179.0400  140.9540 N   0  0  0  0  0  2  0  0  0  0  0  0
  192.4750  176.2320  138.0910 C   0  0  0  0  0  3  0  0  0  0  0  0
  186.7570  179.4820  141.7240 C   0  0  0  0  0  2  0  0  0  0  0  0
  188.7760  176.7400  137.7200 C   0  0  0  0  0  0  0  0  0  0  0  0
  186.3810  176.9530  136.8220 C   0  0  1  0  0  3  0  0  0  0  0  0
  192.8460  176.0660  136.7560 C   0  0  0  0  0  0  0  0  0  0  0  0
  190.5360  176.3420  136.0820 C   0  0  0  0  0  0  0  0  0  0  0  0
  185.5710  177.9520  139.0420 C   0  0  0  0  0  2  0  0  0  0  0  0
  190.1460  176.5160  137.4290 C   0  0  0  0  0  0  0  0  0  0  0  0
  188.2070  177.6610  141.3120 C   0  0  0  0  0  2  0  0  0  0  0  0
  189.6050  176.3880  135.1000 N   0  0  0  0  0  0  0  0  0  0  0  0
  185.4580  178.9170  141.1530 C   0  0  0  0  0  2  0  0  0  0  0  0
  185.3490  179.2100  139.7320 N   0  0  0  0  0  2  0  0  0  0  0  0
  189.0380  177.0220  140.2150 C   0  0  0  0  0  2  0  0  0  0  0  0
  184.8300  173.0040  136.2860 C   0  0  0  0  0  2  0  0  0  0  0  0
  185.6380  175.6910  136.9800 N   0  0  0  0  0  0  0  0  0  0  0  0
  186.5780  174.5740  137.1160 C   0  0  0  0  0  2  0  0  0  0  0  0
  185.8190  173.2840  137.4110 C   0  0  0  0  0  2  0  0  0  0  0  0
  183.9080  174.2020  136.0840 C   0  0  0  0  0  2  0  0  0  0  0  0
  184.7460  175.4550  135.8410 C   0  0  0  0  0  2  0  0  0  0  0  0
  1 15  1  0  0  0  0
  2 12  1  0  0  0  0
  2 11  1  0  0  0  0
  3 21  1  0  0  0  0
  4 14  1  0  0  0  0
  4 13  2  0  0  0  0
  5 13  1  0  0  0  0
  6  2  2  0  0  0  0
  8 17  1  0  0  0  0
  8 10  1  0  0  0  0
  9  7  2  0  0  0  0
 11  3  1  0  0  0  0
 12 23  1  1  0  0  0
 12  1  1  0  0  0  0
 13  9  1  0  0  0  0
 14 16  1  0  0  0  0
 15 20  1  0  0  0  0
 16 11  2  0  0  0  0
 16  7  1  0  0  0  0
 18  6  1  0  0  0  0
 18 14  2  0  0  0  0
 19 10  1  0  0  0  0
 20 19  1  0  0  0  0
 21 17  1  0  0  0  0
 22 25  1  0  0  0  0
 23 24  1  0  0  0  0
 24 25  1  0  0  0  0
 26 22  1  0  0  0  0
 27 26  1  0  0  0  0
 27 23  1  0  0  0  0
M  END
>  <MODEL>
9

>  <REMARK>
 VINA RESULT:      -5.6      3.414      5.186
  Name = 
  1 active torsions:
  status: ('A' for Active; 'I' for Inactive)
    1  A    between atoms: N_9  and  C_15
                            x       y       z     vdW  Elec       q    Type
                         _______ _______ _______ _____ _____    ______ ____

>  <TORSDO>
F 1

$$$$
