=
 OpenBabel10272401353D

 55 60  0  0  1  0  0  0  0  0999 V2000
  186.9910  177.9250  138.5850 C   0  0  0  0  0  0  0  0  0  0  0  0
  185.1110  177.3240  135.3580 C   0  0  0  0  0  1  0  0  0  0  0  0
  182.2590  175.3840  138.8980 C   0  0  0  0  0  3  0  0  0  0  0  0
  180.9360  175.0340  139.1830 C   0  0  0  0  0  3  0  0  0  0  0  0
  181.8530  177.5570  139.8620 C   0  0  0  0  0  0  0  0  0  0  0  0
  180.5260  177.1890  140.0860 C   0  0  0  0  0  3  0  0  0  0  0  0
  184.4520  176.5910  137.5580 O   0  0  0  0  0  0  0  0  0  0  0  0
  180.0990  175.9410  139.7570 N   0  0  0  0  0  0  0  0  0  0  0  0
  182.7180  176.6640  139.2020 C   0  0  0  0  0  0  0  0  0  0  0  0
  186.0040  178.8090  139.3360 C   0  0  0  0  0  2  0  0  0  0  0  0
  183.7450  179.1310  140.3860 C   0  0  2  0  0  3  0  0  0  0  0  0
  182.3190  178.8410  140.2840 N   0  0  0  0  0  2  0  0  0  0  0  0
  186.6960  177.4200  137.3510 C   0  0  0  0  0  0  0  0  0  0  0  0
  185.2690  177.5020  136.8640 C   0  0  1  0  0  3  0  0  0  0  0  0
  184.1480  177.0380  138.8790 C   0  0  2  0  0  3  0  0  0  0  0  0
  184.4990  178.5320  139.1900 C   0  0  2  0  0  3  0  0  0  0  0  0
  189.5110  177.8010  138.5760 C   0  0  0  0  0  3  0  0  0  0  0  0
  189.5360  177.1070  141.2770 C   0  0  0  0  0  0  0  0  0  0  0  0
  188.3230  177.3320  140.6200 C   0  0  0  0  0  3  0  0  0  0  0  0
  190.7250  177.5720  139.2280 C   0  0  0  0  0  3  0  0  0  0  0  0
  188.2970  177.7070  139.2730 C   0  0  0  0  0  0  0  0  0  0  0  0
  189.5440  176.7640  142.6140 O   0  0  0  0  0  1  0  0  0  0  0  0
  190.7400  177.2350  140.5860 C   0  0  0  0  0  3  0  0  0  0  0  0
  185.6020  179.4840  142.0860 C   0  0  0  0  0  2  0  0  0  0  0  0
  185.1600  179.1430  144.5730 C   0  0  2  0  0  3  0  0  0  0  0  0
  183.3100  178.6830  142.9070 C   0  0  0  0  0  2  0  0  0  0  0  0
  183.7510  179.5180  144.1050 C   0  0  0  0  0  2  0  0  0  0  0  0
  186.1570  178.9830  143.4150 C   0  0  0  0  0  2  0  0  0  0  0  0
  184.3260  178.7140  141.7500 C   0  0  1  0  0  3  0  0  0  0  0  0
  185.1220  177.8560  145.3860 C   0  0  0  0  0  2  0  0  0  0  0  0
  186.5020  177.2160  145.4780 C   0  0  0  0  0  2  0  0  0  0  0  0
  187.2280  177.6390  146.7410 C   0  0  0  0  0  1  0  0  0  0  0  0
  187.6710  176.6520  136.5250 C   0  0  0  0  0  3  0  0  0  0  0  0
  187.7830  175.3240  136.5070 C   0  0  0  0  0  0  0  0  0  0  0  0
  186.9770  174.5320  137.3140 O   0  0  0  0  0  1  0  0  0  0  0  0
  188.8460  174.7040  135.6570 C   0  0  0  0  0  2  0  0  0  0  0  0
  190.1810  175.4220  135.7710 C   0  0  2  0  0  3  0  0  0  0  0  0
  190.3010  176.4040  134.7990 F   0  0  0  0  0  0  0  0  0  0  0  0
  191.2410  174.4970  135.7060 O   0  0  0  0  0  0  0  0  0  0  0  0
  192.0900  174.7620  136.8060 C   0  0  1  0  0  3  0  0  0  0  0  0
  191.4070  174.5710  138.0210 O   0  0  0  0  0  1  0  0  0  0  0  0
  195.8640  175.3370  134.5740 C   0  0  0  0  0  2  0  0  0  0  0  0
  195.6120  172.1420  137.8320 O   0  0  0  0  0  0  0  0  0  0  0  0
  193.3900  173.9210  136.7210 C   0  0  1  0  0  0  0  0  0  0  0  0
  194.5690  175.4910  138.2170 O   0  0  0  0  0  1  0  0  0  0  0  0
  194.3430  174.1360  137.9380 C   0  0  2  0  0  3  0  0  0  0  0  0
  194.5270  175.3690  135.2980 C   0  0  0  0  0  2  0  0  0  0  0  0
  197.0030  174.0320  137.8070 C   0  0  1  0  0  3  0  0  0  0  0  0
  196.9060  174.5140  135.3410 C   0  0  0  0  0  2  0  0  0  0  0  0
  195.6450  173.3660  137.8290 C   0  0  0  0  0  0  0  0  0  0  0  0
  192.9820  172.6020  136.7950 F   0  0  0  0  0  0  0  0  0  0  0  0
  197.1190  175.1040  136.7220 C   0  0  0  0  0  2  0  0  0  0  0  0
  194.0340  174.0660  135.4630 O   0  0  0  0  0  0  0  0  0  0  0  0
  197.2770  174.6250  139.1060 N   0  0  0  0  0  2  0  0  0  0  0  0
  198.6620  175.0600  139.0880 C   0  0  0  0  0  1  0  0  0  0  0  0
  1 21  1  0  0  0  0
  1 10  1  0  0  0  0
  3  4  2  0  0  0  0
  3  9  1  0  0  0  0
  4  8  1  0  0  0  0
  5  6  1  0  0  0  0
  5 12  1  0  0  0  0
  8  6  2  0  0  0  0
  9  5  2  0  0  0  0
 11 12  1  1  0  0  0
 11 29  1  0  0  0  0
 13  1  2  0  0  0  0
 14  2  1  6  0  0  0
 14 13  1  0  0  0  0
 14  7  1  0  0  0  0
 15  7  1  6  0  0  0
 15 16  1  0  0  0  0
 15  9  1  0  0  0  0
 16 10  1  1  0  0  0
 16 11  1  0  0  0  0
 17 20  2  0  0  0  0
 17 21  1  0  0  0  0
 18 22  1  0  0  0  0
 19 18  1  0  0  0  0
 20 23  1  0  0  0  0
 21 19  2  0  0  0  0
 23 18  2  0  0  0  0
 24 28  1  0  0  0  0
 25 30  1  6  0  0  0
 26 27  1  0  0  0  0
 27 25  1  0  0  0  0
 28 25  1  0  0  0  0
 29 24  1  1  0  0  0
 29 26  1  0  0  0  0
 30 31  1  0  0  0  0
 31 32  1  0  0  0  0
 33 13  1  0  0  0  0
 34 33  2  0  0  0  0
 34 35  1  0  0  0  0
 36 37  1  0  0  0  0
 36 34  1  0  0  0  0
 37 38  1  6  0  0  0
 39 37  1  0  0  0  0
 39 40  1  0  0  0  0
 40 41  1  1  0  0  0
 42 47  1  0  0  0  0
 42 49  1  0  0  0  0
 44 51  1  1  0  0  0
 44 40  1  0  0  0  0
 44 46  1  0  0  0  0
 46 45  1  6  0  0  0
 47 53  1  0  0  0  0
 48 50  1  0  0  0  0
 48 54  1  1  0  0  0
 49 52  1  0  0  0  0
 50 43  2  0  0  0  0
 50 46  1  0  0  0  0
 52 48  1  0  0  0  0
 53 44  1  0  0  0  0
 55 54  1  0  0  0  0
M  END
>  <MODEL>
1

>  <REMARK>
 VINA RESULT:      -8.1      0.000      0.000
  Name = 
  11 active torsions:
  status: ('A' for Active; 'I' for Inactive)
    1  A    between atoms: C_2  and  C_44
    2  A    between atoms: C_4  and  C_37
    3  A    between atoms: C_6  and  C_20
    4  A    between atoms: C_7  and  C_8
    5  A    between atoms: C_7  and  O_22
    6  A    between atoms: C_8  and  C_35
    7  A    between atoms: C_10  and  C_18
    8  A    between atoms: C_10  and  C_32
    9  A    between atoms: N_11  and  C_29
   10  A    between atoms: C_20  and  O_22
   11  A    between atoms: C_33  and  C_52
                            x       y       z     vdW  Elec       q    Type
                         _______ _______ _______ _____ _____    ______ ____

>  <TORSDO>
F 11

$$$$
=
 OpenBabel10272401353D

 55 60  0  0  1  0  0  0  0  0999 V2000
  187.2280  177.7650  138.6370 C   0  0  0  0  0  0  0  0  0  0  0  0
  185.6130  177.0690  135.2880 C   0  0  0  0  0  1  0  0  0  0  0  0
  182.4240  175.3460  138.6470 C   0  0  0  0  0  3  0  0  0  0  0  0
  181.0730  175.0370  138.8310 C   0  0  0  0  0  3  0  0  0  0  0  0
  181.9930  177.5650  139.4840 C   0  0  0  0  0  0  0  0  0  0  0  0
  180.6420  177.2360  139.6090 C   0  0  0  0  0  3  0  0  0  0  0  0
  184.7520  176.4460  137.4510 O   0  0  0  0  0  0  0  0  0  0  0  0
  180.2130  175.9860  139.2950 N   0  0  0  0  0  0  0  0  0  0  0  0
  182.8880  176.6260  138.9370 C   0  0  0  0  0  0  0  0  0  0  0  0
  186.2050  178.7030  139.2640 C   0  0  0  0  0  2  0  0  0  0  0  0
  183.8740  179.1190  140.1030 C   0  0  2  0  0  3  0  0  0  0  0  0
  182.4540  178.8560  139.8920 N   0  0  0  0  0  2  0  0  0  0  0  0
  187.0260  177.2160  137.4030 C   0  0  0  0  0  0  0  0  0  0  0  0
  185.6480  177.3080  136.7940 C   0  0  1  0  0  3  0  0  0  0  0  0
  184.3490  176.9550  138.7220 C   0  0  2  0  0  3  0  0  0  0  0  0
  184.7100  178.4530  139.0020 C   0  0  2  0  0  3  0  0  0  0  0  0
  189.7380  177.6170  138.8540 C   0  0  0  0  0  3  0  0  0  0  0  0
  189.5150  176.9760  141.5590 C   0  0  0  0  0  0  0  0  0  0  0  0
  188.3680  177.2000  140.7930 C   0  0  0  0  0  3  0  0  0  0  0  0
  190.8860  177.3890  139.6150 C   0  0  0  0  0  3  0  0  0  0  0  0
  188.4660  177.5480  139.4420 C   0  0  0  0  0  0  0  0  0  0  0  0
  189.4010  176.6600  142.8970 O   0  0  0  0  0  1  0  0  0  0  0  0
  190.7770  177.0790  140.9750 C   0  0  0  0  0  3  0  0  0  0  0  0
  185.6080  179.4760  141.9280 C   0  0  0  0  0  2  0  0  0  0  0  0
  184.9590  179.2840  144.3840 C   0  0  2  0  0  3  0  0  0  0  0  0
  183.2230  178.8200  142.6000 C   0  0  0  0  0  2  0  0  0  0  0  0
  183.6100  179.6960  143.7880 C   0  0  0  0  0  2  0  0  0  0  0  0
  186.0340  179.0210  143.3190 C   0  0  0  0  0  2  0  0  0  0  0  0
  184.3260  178.7470  141.5280 C   0  0  1  0  0  3  0  0  0  0  0  0
  184.7960  178.0430  145.2530 C   0  0  0  0  0  2  0  0  0  0  0  0
  185.2510  178.3040  146.6840 C   0  0  0  0  0  2  0  0  0  0  0  0
  186.7300  178.0200  146.8580 C   0  0  0  0  0  1  0  0  0  0  0  0
  188.0470  176.3920  136.6950 C   0  0  0  0  0  3  0  0  0  0  0  0
  188.9770  176.8680  135.8670 C   0  0  0  0  0  0  0  0  0  0  0  0
  189.0430  178.2260  135.5780 O   0  0  0  0  0  1  0  0  0  0  0  0
  189.9020  175.9050  135.1950 C   0  0  0  0  0  2  0  0  0  0  0  0
  190.8060  175.1780  136.1770 C   0  0  2  0  0  3  0  0  0  0  0  0
  190.1470  174.9380  137.3740 F   0  0  0  0  0  0  0  0  0  0  0  0
  191.9950  175.9060  136.3790 O   0  0  0  0  0  0  0  0  0  0  0  0
  193.0420  175.1600  135.7890 C   0  0  1  0  0  3  0  0  0  0  0  0
  192.9110  175.1350  134.3890 O   0  0  0  0  0  1  0  0  0  0  0  0
  195.7500  173.9710  139.0770 C   0  0  0  0  0  2  0  0  0  0  0  0
  197.2410  176.8020  135.8130 O   0  0  0  0  0  0  0  0  0  0  0  0
  194.4270  175.6900  136.2430 C   0  0  1  0  0  0  0  0  0  0  0  0
  195.5650  173.7540  135.2190 O   0  0  0  0  0  1  0  0  0  0  0  0
  195.6080  175.1460  135.3790 C   0  0  2  0  0  3  0  0  0  0  0  0
  194.7140  174.1710  137.9820 C   0  0  0  0  0  2  0  0  0  0  0  0
  198.0570  174.6590  136.3090 C   0  0  1  0  0  3  0  0  0  0  0  0
  197.1380  174.4580  138.6420 C   0  0  0  0  0  2  0  0  0  0  0  0
  196.9700  175.6090  135.8590 C   0  0  0  0  0  0  0  0  0  0  0  0
  194.3950  177.0530  136.0130 F   0  0  0  0  0  0  0  0  0  0  0  0
  197.5890  173.7010  137.4060 C   0  0  0  0  0  2  0  0  0  0  0  0
  194.6250  175.5280  137.6410 O   0  0  0  0  0  0  0  0  0  0  0  0
  198.5400  173.8940  135.1720 N   0  0  0  0  0  2  0  0  0  0  0  0
  199.7500  174.5480  134.7050 C   0  0  0  0  0  1  0  0  0  0  0  0
  1 10  1  0  0  0  0
  1 21  1  0  0  0  0
  3  4  2  0  0  0  0
  3  9  1  0  0  0  0
  4  8  1  0  0  0  0
  5  6  1  0  0  0  0
  5 12  1  0  0  0  0
  8  6  2  0  0  0  0
  9  5  2  0  0  0  0
 11 12  1  6  0  0  0
 11 29  1  0  0  0  0
 13  1  2  0  0  0  0
 14  2  1  6  0  0  0
 14 13  1  0  0  0  0
 14  7  1  0  0  0  0
 15  7  1  6  0  0  0
 15  9  1  0  0  0  0
 15 16  1  0  0  0  0
 16 10  1  1  0  0  0
 16 11  1  0  0  0  0
 17 21  2  0  0  0  0
 17 20  1  0  0  0  0
 18 22  1  0  0  0  0
 19 18  2  0  0  0  0
 20 23  2  0  0  0  0
 21 19  1  0  0  0  0
 23 18  1  0  0  0  0
 24 28  1  0  0  0  0
 25 30  1  6  0  0  0
 26 27  1  0  0  0  0
 27 25  1  0  0  0  0
 28 25  1  0  0  0  0
 29 24  1  1  0  0  0
 29 26  1  0  0  0  0
 30 31  1  0  0  0  0
 31 32  1  0  0  0  0
 33 13  1  0  0  0  0
 34 33  2  0  0  0  0
 35 34  1  0  0  0  0
 36 34  1  0  0  0  0
 36 37  1  0  0  0  0
 37 39  1  0  0  0  0
 37 38  1  1  0  0  0
 40 41  1  6  0  0  0
 40 44  1  0  0  0  0
 40 39  1  0  0  0  0
 43 50  2  0  0  0  0
 44 51  1  6  0  0  0
 44 53  1  0  0  0  0
 46 45  1  1  0  0  0
 46 50  1  0  0  0  0
 46 44  1  0  0  0  0
 47 42  1  0  0  0  0
 48 54  1  6  0  0  0
 48 52  1  0  0  0  0
 49 42  1  0  0  0  0
 50 48  1  0  0  0  0
 52 49  1  0  0  0  0
 53 47  1  0  0  0  0
 55 54  1  0  0  0  0
M  END
>  <MODEL>
2

>  <REMARK>
 VINA RESULT:      -7.6      1.452      2.127
  Name = 
  11 active torsions:
  status: ('A' for Active; 'I' for Inactive)
    1  A    between atoms: C_2  and  C_44
    2  A    between atoms: C_4  and  C_37
    3  A    between atoms: C_6  and  C_20
    4  A    between atoms: C_7  and  C_8
    5  A    between atoms: C_7  and  O_22
    6  A    between atoms: C_8  and  C_35
    7  A    between atoms: C_10  and  C_18
    8  A    between atoms: C_10  and  C_32
    9  A    between atoms: N_11  and  C_29
   10  A    between atoms: C_20  and  O_22
   11  A    between atoms: C_33  and  C_52
                            x       y       z     vdW  Elec       q    Type
                         _______ _______ _______ _____ _____    ______ ____

>  <TORSDO>
F 11

$$$$
=
 OpenBabel10272401353D

 55 60  0  0  1  0  0  0  0  0999 V2000
  186.9400  175.8050  135.9150 C   0  0  0  0  0  0  0  0  0  0  0  0
  187.0010  172.3210  134.4440 C   0  0  0  0  0  1  0  0  0  0  0  0
  182.8330  172.5370  137.0910 C   0  0  0  0  0  3  0  0  0  0  0  0
  181.5670  171.9550  137.2080 C   0  0  0  0  0  3  0  0  0  0  0  0
  181.8930  174.1930  135.6120 C   0  0  0  0  0  0  0  0  0  0  0  0
  180.6560  173.5570  135.7140 C   0  0  0  0  0  3  0  0  0  0  0  0
  185.3450  173.2110  135.9530 O   0  0  0  0  0  0  0  0  0  0  0  0
  180.5130  172.4670  136.5140 N   0  0  0  0  0  0  0  0  0  0  0  0
  183.0140  173.6400  136.2610 C   0  0  0  0  0  0  0  0  0  0  0  0
  185.6700  176.3630  135.2880 C   0  0  0  0  0  2  0  0  0  0  0  0
  183.1800  176.2610  134.9760 C   0  0  2  0  0  3  0  0  0  0  0  0
  182.0200  175.3870  134.8350 N   0  0  0  0  0  2  0  0  0  0  0  0
  187.3400  174.5200  135.6860 C   0  0  0  0  0  0  0  0  0  0  0  0
  186.3600  173.5660  135.0470 C   0  0  1  0  0  3  0  0  0  0  0  0
  184.3900  174.2560  136.1300 C   0  0  2  0  0  3  0  0  0  0  0  0
  184.4640  175.4290  135.0950 C   0  0  2  0  0  3  0  0  0  0  0  0
  188.2870  177.9250  136.1650 C   0  0  0  0  0  3  0  0  0  0  0  0
  188.7030  177.4000  138.8720 C   0  0  0  0  0  0  0  0  0  0  0  0
  187.9600  176.5110  138.0900 C   0  0  0  0  0  3  0  0  0  0  0  0
  189.0350  178.8120  136.9420 C   0  0  0  0  0  3  0  0  0  0  0  0
  187.7210  176.7760  136.7370 C   0  0  0  0  0  0  0  0  0  0  0  0
  188.9070  177.1370  140.2110 O   0  0  0  0  0  1  0  0  0  0  0  0
  189.2350  178.5560  138.3030 C   0  0  0  0  0  3  0  0  0  0  0  0
  181.5750  177.8300  136.1720 C   0  0  0  0  0  2  0  0  0  0  0  0
  181.8510  178.3120  138.6590 C   0  0  2  0  0  3  0  0  0  0  0  0
  183.5310  176.8240  137.4880 C   0  0  0  0  0  2  0  0  0  0  0  0
  182.4810  176.9180  138.5910 C   0  0  0  0  0  2  0  0  0  0  0  0
  181.4800  178.8750  137.2780 C   0  0  0  0  0  2  0  0  0  0  0  0
  183.0010  177.2820  136.1170 C   0  0  1  0  0  3  0  0  0  0  0  0
  182.7890  179.2840  139.3630 C   0  0  0  0  0  2  0  0  0  0  0  0
  183.4020  178.6580  140.6110 C   0  0  0  0  0  2  0  0  0  0  0  0
  184.8860  178.9520  140.7080 C   0  0  0  0  0  1  0  0  0  0  0  0
  188.6340  173.9630  136.1760 C   0  0  0  0  0  3  0  0  0  0  0  0
  189.8310  174.2320  135.6550 C   0  0  0  0  0  0  0  0  0  0  0  0
  189.9540  175.0700  134.5530 O   0  0  0  0  0  1  0  0  0  0  0  0
  191.0340  173.5560  136.2310 C   0  0  0  0  0  2  0  0  0  0  0  0
  191.9110  174.5030  137.0320 C   0  0  2  0  0  3  0  0  0  0  0  0
  191.1480  175.2830  137.8880 F   0  0  0  0  0  0  0  0  0  0  0  0
  192.6920  175.2960  136.1680 O   0  0  0  0  0  0  0  0  0  0  0  0
  193.7570  174.4850  135.7120 C   0  0  1  0  0  3  0  0  0  0  0  0
  193.6050  174.1830  134.3470 O   0  0  0  0  0  1  0  0  0  0  0  0
  196.4080  174.3050  139.2460 C   0  0  0  0  0  2  0  0  0  0  0  0
  197.9400  176.1270  135.3450 O   0  0  0  0  0  0  0  0  0  0  0  0
  195.1280  175.1410  136.0210 C   0  0  1  0  0  0  0  0  0  0  0  0
  196.3030  173.0110  135.6020 O   0  0  0  0  0  1  0  0  0  0  0  0
  196.3310  174.3930  135.3660 C   0  0  2  0  0  3  0  0  0  0  0  0
  195.3930  174.1750  138.1220 C   0  0  0  0  0  2  0  0  0  0  0  0
  198.7650  174.2210  136.4370 C   0  0  1  0  0  3  0  0  0  0  0  0
  197.8000  174.6700  138.7160 C   0  0  0  0  0  2  0  0  0  0  0  0
  197.6790  174.9910  135.7190 C   0  0  0  0  0  0  0  0  0  0  0  0
  195.0880  176.3840  135.4180 F   0  0  0  0  0  0  0  0  0  0  0  0
  198.2830  173.6030  137.7510 C   0  0  0  0  0  2  0  0  0  0  0  0
  195.2980  175.3810  137.4120 O   0  0  0  0  0  0  0  0  0  0  0  0
  199.2770  173.1740  135.5680 N   0  0  0  0  0  2  0  0  0  0  0  0
  199.7670  172.1120  136.4290 C   0  0  0  0  0  1  0  0  0  0  0  0
  1 21  1  0  0  0  0
  3  4  1  0  0  0  0
  5  6  2  0  0  0  0
  5  9  1  0  0  0  0
  6  8  1  0  0  0  0
  8  4  2  0  0  0  0
  9  3  2  0  0  0  0
 10  1  1  0  0  0  0
 11 12  1  1  0  0  0
 11 16  1  0  0  0  0
 11 29  1  0  0  0  0
 12  5  1  0  0  0  0
 13  1  2  0  0  0  0
 13 33  1  0  0  0  0
 14  2  1  1  0  0  0
 14 13  1  0  0  0  0
 14  7  1  0  0  0  0
 15  7  1  6  0  0  0
 15  9  1  0  0  0  0
 16 10  1  1  0  0  0
 16 15  1  0  0  0  0
 17 21  2  0  0  0  0
 17 20  1  0  0  0  0
 18 22  1  0  0  0  0
 19 18  2  0  0  0  0
 20 23  2  0  0  0  0
 21 19  1  0  0  0  0
 23 18  1  0  0  0  0
 24 28  1  0  0  0  0
 25 30  1  6  0  0  0
 26 27  1  0  0  0  0
 27 25  1  0  0  0  0
 28 25  1  0  0  0  0
 29 24  1  1  0  0  0
 29 26  1  0  0  0  0
 30 31  1  0  0  0  0
 31 32  1  0  0  0  0
 34 33  2  0  0  0  0
 34 36  1  0  0  0  0
 35 34  1  0  0  0  0
 36 37  1  0  0  0  0
 37 38  1  6  0  0  0
 39 37  1  0  0  0  0
 40 41  1  6  0  0  0
 40 44  1  0  0  0  0
 40 39  1  0  0  0  0
 43 50  2  0  0  0  0
 44 51  1  6  0  0  0
 44 53  1  0  0  0  0
 46 45  1  1  0  0  0
 46 50  1  0  0  0  0
 46 44  1  0  0  0  0
 47 42  1  0  0  0  0
 48 54  1  6  0  0  0
 48 52  1  0  0  0  0
 49 42  1  0  0  0  0
 50 48  1  0  0  0  0
 52 49  1  0  0  0  0
 53 47  1  0  0  0  0
 54 55  1  0  0  0  0
M  END
>  <MODEL>
3

>  <REMARK>
 VINA RESULT:      -6.5      2.574      4.415
  Name = 
  11 active torsions:
  status: ('A' for Active; 'I' for Inactive)
    1  A    between atoms: C_2  and  C_44
    2  A    between atoms: C_4  and  C_37
    3  A    between atoms: C_6  and  C_20
    4  A    between atoms: C_7  and  C_8
    5  A    between atoms: C_7  and  O_22
    6  A    between atoms: C_8  and  C_35
    7  A    between atoms: C_10  and  C_18
    8  A    between atoms: C_10  and  C_32
    9  A    between atoms: N_11  and  C_29
   10  A    between atoms: C_20  and  O_22
   11  A    between atoms: C_33  and  C_52
                            x       y       z     vdW  Elec       q    Type
                         _______ _______ _______ _____ _____    ______ ____

>  <TORSDO>
F 11

$$$$
=
 OpenBabel10272401353D

 55 60  0  0  1  0  0  0  0  0999 V2000
  188.8090  177.0490  137.7820 C   0  0  0  0  0  0  0  0  0  0  0  0
  188.0280  175.6720  134.3460 C   0  0  0  0  0  1  0  0  0  0  0  0
  184.3160  174.1440  137.2290 C   0  0  0  0  0  3  0  0  0  0  0  0
  182.9850  173.7200  137.1830 C   0  0  0  0  0  3  0  0  0  0  0  0
  183.5470  176.4040  137.5610 C   0  0  0  0  0  0  0  0  0  0  0  0
  182.2300  175.9510  137.4620 C   0  0  0  0  0  3  0  0  0  0  0  0
  186.7620  175.2980  136.3620 O   0  0  0  0  0  0  0  0  0  0  0  0
  181.9750  174.6270  137.2900 N   0  0  0  0  0  0  0  0  0  0  0  0
  184.6080  175.4970  137.3800 C   0  0  0  0  0  0  0  0  0  0  0  0
  187.6060  177.9530  138.0130 C   0  0  0  0  0  2  0  0  0  0  0  0
  185.1230  178.2330  138.2720 C   0  0  2  0  0  3  0  0  0  0  0  0
  183.8080  177.7850  137.8240 N   0  0  0  0  0  2  0  0  0  0  0  0
  188.9250  176.2970  136.6480 C   0  0  0  0  0  0  0  0  0  0  0  0
  187.7130  176.1420  135.7620 C   0  0  1  0  0  3  0  0  0  0  0  0
  186.0520  175.9480  137.4150 C   0  0  2  0  0  3  0  0  0  0  0  0
  186.2290  177.5020  137.4980 C   0  0  2  0  0  3  0  0  0  0  0  0
  189.5070  177.2600  140.1980 C   0  0  0  0  0  3  0  0  0  0  0  0
  192.1980  177.1100  139.4850 C   0  0  0  0  0  0  0  0  0  0  0  0
  191.2070  177.0500  138.5020 C   0  0  0  0  0  3  0  0  0  0  0  0
  190.4950  177.3260  141.1820 C   0  0  0  0  0  3  0  0  0  0  0  0
  189.8520  177.0970  138.8480 C   0  0  0  0  0  0  0  0  0  0  0  0
  193.5300  177.0350  139.1280 O   0  0  0  0  0  1  0  0  0  0  0  0
  191.8460  177.2390  140.8280 C   0  0  0  0  0  3  0  0  0  0  0  0
  186.2850  179.1520  140.3380 C   0  0  0  0  0  2  0  0  0  0  0  0
  185.1090  179.1350  142.5990 C   0  0  2  0  0  3  0  0  0  0  0  0
  183.9540  178.1180  140.5890 C   0  0  0  0  0  2  0  0  0  0  0  0
  183.8920  179.1920  141.6700 C   0  0  0  0  0  2  0  0  0  0  0  0
  186.4360  178.9650  141.8440 C   0  0  0  0  0  2  0  0  0  0  0  0
  185.2770  178.1370  139.8020 C   0  0  1  0  0  3  0  0  0  0  0  0
  184.9540  178.0030  143.6060 C   0  0  0  0  0  2  0  0  0  0  0  0
  186.3090  177.4990  144.0870 C   0  0  0  0  0  2  0  0  0  0  0  0
  186.5020  177.7510  145.5700 C   0  0  0  0  0  1  0  0  0  0  0  0
  190.1370  175.4930  136.3170 C   0  0  0  0  0  3  0  0  0  0  0  0
  190.3170  174.2110  136.6360 C   0  0  0  0  0  0  0  0  0  0  0  0
  189.3520  173.5150  137.3540 O   0  0  0  0  0  1  0  0  0  0  0  0
  191.6110  173.5560  136.2750 C   0  0  0  0  0  2  0  0  0  0  0  0
  191.5000  172.6850  135.0340 C   0  0  2  0  0  3  0  0  0  0  0  0
  190.7760  171.5320  135.3000 F   0  0  0  0  0  0  0  0  0  0  0  0
  192.7800  172.3860  134.5290 O   0  0  0  0  0  0  0  0  0  0  0  0
  193.6490  172.2770  135.6400 C   0  0  1  0  0  3  0  0  0  0  0  0
  193.5210  171.0170  136.2510 O   0  0  0  0  0  1  0  0  0  0  0  0
  195.7980  176.0850  134.9780 C   0  0  0  0  0  2  0  0  0  0  0  0
  198.1390  172.1680  135.2480 O   0  0  0  0  0  0  0  0  0  0  0  0
  195.1120  172.5910  135.2360 C   0  0  1  0  0  0  0  0  0  0  0  0
  195.6800  173.2050  137.5580 O   0  0  0  0  0  1  0  0  0  0  0  0
  196.1150  172.4980  136.4280 C   0  0  2  0  0  3  0  0  0  0  0  0
  194.8970  174.9080  135.3170 C   0  0  0  0  0  2  0  0  0  0  0  0
  198.2910  174.0120  136.6920 C   0  0  1  0  0  3  0  0  0  0  0  0
  197.2800  175.7410  135.1720 C   0  0  0  0  0  2  0  0  0  0  0  0
  197.5360  172.8680  136.0530 C   0  0  0  0  0  0  0  0  0  0  0  0
  195.4790  171.5860  134.3610 F   0  0  0  0  0  0  0  0  0  0  0  0
  197.5340  175.3390  136.6130 C   0  0  0  0  0  2  0  0  0  0  0  0
  195.2110  173.8070  134.5060 O   0  0  0  0  0  0  0  0  0  0  0  0
  198.5710  173.6960  138.0830 N   0  0  0  0  0  2  0  0  0  0  0  0
  198.4060  174.9250  138.8380 C   0  0  0  0  0  1  0  0  0  0  0  0
  1 10  1  0  0  0  0
  1 21  1  0  0  0  0
  3  9  1  0  0  0  0
  4  3  2  0  0  0  0
  4  8  1  0  0  0  0
  5 12  1  0  0  0  0
  6  5  1  0  0  0  0
  8  6  2  0  0  0  0
  9 15  1  0  0  0  0
  9  5  2  0  0  0  0
 11 12  1  1  0  0  0
 11 29  1  0  0  0  0
 13  1  2  0  0  0  0
 14  2  1  6  0  0  0
 14  7  1  0  0  0  0
 14 13  1  0  0  0  0
 15  7  1  6  0  0  0
 15 16  1  0  0  0  0
 16 10  1  1  0  0  0
 16 11  1  0  0  0  0
 17 20  1  0  0  0  0
 18 23  1  0  0  0  0
 19 21  1  0  0  0  0
 19 18  2  0  0  0  0
 21 17  2  0  0  0  0
 22 18  1  0  0  0  0
 23 20  2  0  0  0  0
 24 28  1  0  0  0  0
 25 30  1  1  0  0  0
 26 27  1  0  0  0  0
 27 25  1  0  0  0  0
 28 25  1  0  0  0  0
 29 24  1  1  0  0  0
 29 26  1  0  0  0  0
 30 31  1  0  0  0  0
 31 32  1  0  0  0  0
 33 34  2  0  0  0  0
 33 13  1  0  0  0  0
 34 35  1  0  0  0  0
 36 34  1  0  0  0  0
 37 38  1  1  0  0  0
 37 36  1  0  0  0  0
 39 37  1  0  0  0  0
 39 40  1  0  0  0  0
 40 41  1  6  0  0  0
 42 49  1  0  0  0  0
 42 47  1  0  0  0  0
 43 50  2  0  0  0  0
 44 51  1  6  0  0  0
 44 40  1  0  0  0  0
 44 46  1  0  0  0  0
 46 45  1  1  0  0  0
 48 54  1  1  0  0  0
 49 52  1  0  0  0  0
 50 46  1  0  0  0  0
 50 48  1  0  0  0  0
 52 48  1  0  0  0  0
 53 44  1  0  0  0  0
 53 47  1  0  0  0  0
 54 55  1  0  0  0  0
M  END
>  <MODEL>
4

>  <REMARK>
 VINA RESULT:      -6.4      1.941      2.707
  Name = 
  11 active torsions:
  status: ('A' for Active; 'I' for Inactive)
    1  A    between atoms: C_2  and  C_44
    2  A    between atoms: C_4  and  C_37
    3  A    between atoms: C_6  and  C_20
    4  A    between atoms: C_7  and  C_8
    5  A    between atoms: C_7  and  O_22
    6  A    between atoms: C_8  and  C_35
    7  A    between atoms: C_10  and  C_18
    8  A    between atoms: C_10  and  C_32
    9  A    between atoms: N_11  and  C_29
   10  A    between atoms: C_20  and  O_22
   11  A    between atoms: C_33  and  C_52
                            x       y       z     vdW  Elec       q    Type
                         _______ _______ _______ _____ _____    ______ ____

>  <TORSDO>
F 11

$$$$
=
 OpenBabel10272401353D

 55 60  0  0  1  0  0  0  0  0999 V2000
  187.8200  175.8630  135.9730 C   0  0  0  0  0  0  0  0  0  0  0  0
  188.8810  172.5850  134.4110 C   0  0  0  0  0  1  0  0  0  0  0  0
  184.5480  171.6380  136.5910 C   0  0  0  0  0  3  0  0  0  0  0  0
  183.4590  170.7620  136.5510 C   0  0  0  0  0  3  0  0  0  0  0  0
  183.3800  173.0990  135.0700 C   0  0  0  0  0  0  0  0  0  0  0  0
  182.3330  172.1780  135.0170 C   0  0  0  0  0  3  0  0  0  0  0  0
  186.9170  172.9620  135.7560 O   0  0  0  0  0  0  0  0  0  0  0  0
  182.3850  171.0430  135.7620 N   0  0  0  0  0  0  0  0  0  0  0  0
  184.5320  172.7980  135.8200 C   0  0  0  0  0  0  0  0  0  0  0  0
  186.5200  176.1320  135.2280 C   0  0  0  0  0  2  0  0  0  0  0  0
  184.1740  175.4490  134.6430 C   0  0  2  0  0  3  0  0  0  0  0  0
  183.2850  174.3310  134.3490 N   0  0  0  0  0  2  0  0  0  0  0  0
  188.5440  174.7270  135.7500 C   0  0  0  0  0  0  0  0  0  0  0  0
  187.8970  173.6030  134.9780 C   0  0  1  0  0  3  0  0  0  0  0  0
  185.7210  173.7340  135.8600 C   0  0  2  0  0  3  0  0  0  0  0  0
  185.6050  174.9470  134.8760 C   0  0  2  0  0  3  0  0  0  0  0  0
  188.7230  178.1760  136.4230 C   0  0  0  0  0  3  0  0  0  0  0  0
  188.6800  177.7120  139.1720 C   0  0  0  0  0  0  0  0  0  0  0  0
  188.2610  176.7160  138.2840 C   0  0  0  0  0  3  0  0  0  0  0  0
  189.1470  179.1710  137.3060 C   0  0  0  0  0  3  0  0  0  0  0  0
  188.2530  176.9450  136.9050 C   0  0  0  0  0  0  0  0  0  0  0  0
  188.6560  177.4780  140.5320 O   0  0  0  0  0  1  0  0  0  0  0  0
  189.1150  178.9440  138.6860 C   0  0  0  0  0  3  0  0  0  0  0  0
  182.4700  177.2060  135.3340 C   0  0  0  0  0  2  0  0  0  0  0  0
  181.5940  177.2870  137.7250 C   0  0  2  0  0  3  0  0  0  0  0  0
  183.3640  175.5860  137.1070 C   0  0  0  0  0  2  0  0  0  0  0  0
  181.9450  175.8000  137.6250 C   0  0  0  0  0  2  0  0  0  0  0  0
  182.0270  178.0930  136.4920 C   0  0  0  0  0  2  0  0  0  0  0  0
  183.6380  176.3300  135.7870 C   0  0  1  0  0  3  0  0  0  0  0  0
  182.2230  177.8960  138.9710 C   0  0  0  0  0  2  0  0  0  0  0  0
  182.8570  179.2490  138.6680 C   0  0  0  0  0  2  0  0  0  0  0  0
  184.3170  179.2810  139.0760 C   0  0  0  0  0  1  0  0  0  0  0  0
  189.8800  174.4730  136.3610 C   0  0  0  0  0  3  0  0  0  0  0  0
  191.0340  174.9690  135.9160 C   0  0  0  0  0  0  0  0  0  0  0  0
  191.0720  175.7750  134.7840 O   0  0  0  0  0  1  0  0  0  0  0  0
  192.3000  174.5820  136.6120 C   0  0  0  0  0  2  0  0  0  0  0  0
  192.6190  175.4830  137.7930 C   0  0  2  0  0  3  0  0  0  0  0  0
  192.2750  176.7990  137.5200 F   0  0  0  0  0  0  0  0  0  0  0  0
  193.9770  175.3670  138.1450 O   0  0  0  0  0  0  0  0  0  0  0  0
  194.6730  174.9560  136.9840 C   0  0  1  0  0  3  0  0  0  0  0  0
  195.1030  176.0690  136.2400 O   0  0  0  0  0  1  0  0  0  0  0  0
  194.9520  170.5470  137.1720 C   0  0  0  0  0  2  0  0  0  0  0  0
  198.7530  173.0780  137.3740 O   0  0  0  0  0  0  0  0  0  0  0  0
  195.8390  174.0000  137.3430 C   0  0  1  0  0  0  0  0  0  0  0  0
  196.2060  173.4640  134.9620 O   0  0  0  0  0  1  0  0  0  0  0  0
  196.8440  173.7850  136.1680 C   0  0  2  0  0  3  0  0  0  0  0  0
  194.6590  172.0260  136.9810 C   0  0  0  0  0  2  0  0  0  0  0  0
  198.1740  171.5210  135.7160 C   0  0  1  0  0  3  0  0  0  0  0  0
  196.4460  170.2390  137.0170 C   0  0  0  0  0  2  0  0  0  0  0  0
  197.9500  172.8000  136.4910 C   0  0  0  0  0  0  0  0  0  0  0  0
  196.5560  174.6460  138.3330 F   0  0  0  0  0  0  0  0  0  0  0  0
  196.9200  170.6490  135.6350 C   0  0  0  0  0  2  0  0  0  0  0  0
  195.3720  172.7870  137.9190 O   0  0  0  0  0  0  0  0  0  0  0  0
  198.6310  171.8380  134.3730 N   0  0  0  0  0  2  0  0  0  0  0  0
  200.0410  172.1710  134.4730 C   0  0  0  0  0  1  0  0  0  0  0  0
  1 21  1  0  0  0  0
  4  3  1  0  0  0  0
  5  9  1  0  0  0  0
  6  5  2  0  0  0  0
  6  8  1  0  0  0  0
  8  4  2  0  0  0  0
  9 15  1  0  0  0  0
  9  3  2  0  0  0  0
 10  1  1  0  0  0  0
 11 12  1  1  0  0  0
 11 16  1  0  0  0  0
 11 29  1  0  0  0  0
 12  5  1  0  0  0  0
 13  1  2  0  0  0  0
 13 33  1  0  0  0  0
 14  2  1  1  0  0  0
 14 13  1  0  0  0  0
 14  7  1  0  0  0  0
 15  7  1  6  0  0  0
 16 10  1  1  0  0  0
 16 15  1  0  0  0  0
 17 21  2  0  0  0  0
 17 20  1  0  0  0  0
 18 22  1  0  0  0  0
 19 18  2  0  0  0  0
 20 23  2  0  0  0  0
 21 19  1  0  0  0  0
 23 18  1  0  0  0  0
 24 28  1  0  0  0  0
 25 30  1  1  0  0  0
 26 27  1  0  0  0  0
 27 25  1  0  0  0  0
 28 25  1  0  0  0  0
 29 24  1  6  0  0  0
 29 26  1  0  0  0  0
 31 30  1  0  0  0  0
 31 32  1  0  0  0  0
 34 33  2  0  0  0  0
 34 36  1  0  0  0  0
 35 34  1  0  0  0  0
 36 37  1  0  0  0  0
 37 38  1  6  0  0  0
 37 39  1  0  0  0  0
 40 41  1  1  0  0  0
 40 44  1  0  0  0  0
 40 39  1  0  0  0  0
 44 53  1  0  0  0  0
 44 51  1  1  0  0  0
 46 45  1  6  0  0  0
 46 50  1  0  0  0  0
 46 44  1  0  0  0  0
 47 42  1  0  0  0  0
 47 53  1  0  0  0  0
 48 54  1  6  0  0  0
 48 50  1  0  0  0  0
 49 42  1  0  0  0  0
 50 43  2  0  0  0  0
 52 48  1  0  0  0  0
 52 49  1  0  0  0  0
 54 55  1  0  0  0  0
M  END
>  <MODEL>
5

>  <REMARK>
 VINA RESULT:      -6.3      3.190      5.134
  Name = 
  11 active torsions:
  status: ('A' for Active; 'I' for Inactive)
    1  A    between atoms: C_2  and  C_44
    2  A    between atoms: C_4  and  C_37
    3  A    between atoms: C_6  and  C_20
    4  A    between atoms: C_7  and  C_8
    5  A    between atoms: C_7  and  O_22
    6  A    between atoms: C_8  and  C_35
    7  A    between atoms: C_10  and  C_18
    8  A    between atoms: C_10  and  C_32
    9  A    between atoms: N_11  and  C_29
   10  A    between atoms: C_20  and  O_22
   11  A    between atoms: C_33  and  C_52
                            x       y       z     vdW  Elec       q    Type
                         _______ _______ _______ _____ _____    ______ ____

>  <TORSDO>
F 11

$$$$
=
 OpenBabel10272401353D

 55 60  0  0  1  0  0  0  0  0999 V2000
  188.5500  176.4900  137.9380 C   0  0  0  0  0  0  0  0  0  0  0  0
  188.7210  174.2570  134.8890 C   0  0  0  0  0  1  0  0  0  0  0  0
  184.5360  172.9890  137.1900 C   0  0  0  0  0  3  0  0  0  0  0  0
  183.2870  172.4000  136.9680 C   0  0  0  0  0  3  0  0  0  0  0  0
  183.5550  175.1470  136.7520 C   0  0  0  0  0  0  0  0  0  0  0  0
  182.3360  174.5190  136.4900 C   0  0  0  0  0  3  0  0  0  0  0  0
  187.0330  174.2080  136.6080 O   0  0  0  0  0  0  0  0  0  0  0  0
  182.2220  173.1710  136.6140 N   0  0  0  0  0  0  0  0  0  0  0  0
  184.6880  174.3650  137.0470 C   0  0  0  0  0  0  0  0  0  0  0  0
  187.2670  177.2620  137.6610 C   0  0  0  0  0  2  0  0  0  0  0  0
  184.7820  177.2770  137.2920 C   0  0  2  0  0  3  0  0  0  0  0  0
  183.6490  176.5730  136.7000 N   0  0  0  0  0  2  0  0  0  0  0  0
  188.9890  175.5140  137.0900 C   0  0  0  0  0  0  0  0  0  0  0  0
  188.0410  175.0020  136.0330 C   0  0  1  0  0  3  0  0  0  0  0  0
  186.0460  174.9920  137.2780 C   0  0  2  0  0  3  0  0  0  0  0  0
  186.0900  176.5320  136.9930 C   0  0  2  0  0  3  0  0  0  0  0  0
  190.7000  176.9060  139.1920 C   0  0  0  0  0  3  0  0  0  0  0  0
  189.2810  177.6650  141.4700 C   0  0  0  0  0  0  0  0  0  0  0  0
  188.5990  177.2760  140.3140 C   0  0  0  0  0  3  0  0  0  0  0  0
  191.3850  177.2880  140.3470 C   0  0  0  0  0  3  0  0  0  0  0  0
  189.2970  176.9190  139.1560 C   0  0  0  0  0  0  0  0  0  0  0  0
  188.5760  178.0400  142.5950 O   0  0  0  0  0  1  0  0  0  0  0  0
  190.6750  177.6800  141.4880 C   0  0  0  0  0  3  0  0  0  0  0  0
  184.8960  179.0120  139.1480 C   0  0  0  0  0  2  0  0  0  0  0  0
  183.2970  178.8940  141.1280 C   0  0  2  0  0  3  0  0  0  0  0  0
  183.2150  177.0880  139.3560 C   0  0  0  0  0  2  0  0  0  0  0  0
  182.4450  178.2000  140.0620 C   0  0  0  0  0  2  0  0  0  0  0  0
  184.7220  179.2130  140.6490 C   0  0  0  0  0  2  0  0  0  0  0  0
  184.5670  177.5630  138.7910 C   0  0  1  0  0  3  0  0  0  0  0  0
  183.3700  178.0390  142.3870 C   0  0  0  0  0  2  0  0  0  0  0  0
  183.8100  178.8620  143.5920 C   0  0  0  0  0  2  0  0  0  0  0  0
  185.1600  178.4090  144.1110 C   0  0  0  0  0  1  0  0  0  0  0  0
  190.2960  174.8160  137.2500 C   0  0  0  0  0  3  0  0  0  0  0  0
  191.4160  175.1250  136.5970 C   0  0  0  0  0  0  0  0  0  0  0  0
  191.4330  176.1520  135.6620 O   0  0  0  0  0  1  0  0  0  0  0  0
  192.6380  174.2960  136.8340 C   0  0  0  0  0  2  0  0  0  0  0  0
  193.5460  174.8830  137.9020 C   0  0  2  0  0  3  0  0  0  0  0  0
  193.9450  176.1670  137.5640 F   0  0  0  0  0  0  0  0  0  0  0  0
  194.6520  174.0390  138.1220 O   0  0  0  0  0  0  0  0  0  0  0  0
  195.5800  174.2930  137.0860 C   0  0  1  0  0  3  0  0  0  0  0  0
  196.7160  174.9550  137.5840 O   0  0  0  0  0  1  0  0  0  0  0  0
  199.2690  171.8580  136.9550 C   0  0  0  0  0  2  0  0  0  0  0  0
  195.3900  170.2070  135.1890 O   0  0  0  0  0  0  0  0  0  0  0  0
  195.9420  172.9880  136.3300 C   0  0  1  0  0  0  0  0  0  0  0  0
  195.6830  171.6570  138.3930 O   0  0  0  0  0  1  0  0  0  0  0  0
  195.3910  171.7020  137.0230 C   0  0  2  0  0  3  0  0  0  0  0  0
  198.0940  172.7920  137.1950 C   0  0  0  0  0  2  0  0  0  0  0  0
  196.6090  169.3330  136.9930 C   0  0  1  0  0  3  0  0  0  0  0  0
  198.8060  170.4620  136.5210 C   0  0  0  0  0  2  0  0  0  0  0  0
  195.7970  170.4190  136.3250 C   0  0  0  0  0  0  0  0  0  0  0  0
  195.2850  173.0680  135.1170 F   0  0  0  0  0  0  0  0  0  0  0  0
  197.9180  169.8540  137.5910 C   0  0  0  0  0  2  0  0  0  0  0  0
  197.3280  172.9180  136.0260 O   0  0  0  0  0  0  0  0  0  0  0  0
  195.8180  168.7020  138.0370 N   0  0  0  0  0  2  0  0  0  0  0  0
  196.7320  167.9130  138.8440 C   0  0  0  0  0  1  0  0  0  0  0  0
  1 21  1  0  0  0  0
  4  3  2  0  0  0  0
  5  9  2  0  0  0  0
  6  8  2  0  0  0  0
  6  5  1  0  0  0  0
  8  4  1  0  0  0  0
  9  3  1  0  0  0  0
  9 15  1  0  0  0  0
 10  1  1  0  0  0  0
 11 12  1  1  0  0  0
 11 29  1  0  0  0  0
 12  5  1  0  0  0  0
 13 33  1  0  0  0  0
 13  1  2  0  0  0  0
 14  2  1  6  0  0  0
 14  7  1  0  0  0  0
 14 13  1  0  0  0  0
 15  7  1  6  0  0  0
 16 15  1  0  0  0  0
 16 11  1  0  0  0  0
 16 10  1  1  0  0  0
 17 20  1  0  0  0  0
 18 23  1  0  0  0  0
 18 22  1  0  0  0  0
 19 18  2  0  0  0  0
 20 23  2  0  0  0  0
 21 17  2  0  0  0  0
 21 19  1  0  0  0  0
 24 28  1  0  0  0  0
 25 30  1  1  0  0  0
 26 27  1  0  0  0  0
 27 25  1  0  0  0  0
 28 25  1  0  0  0  0
 29 24  1  6  0  0  0
 29 26  1  0  0  0  0
 30 31  1  0  0  0  0
 31 32  1  0  0  0  0
 34 36  1  0  0  0  0
 34 33  2  0  0  0  0
 35 34  1  0  0  0  0
 36 37  1  0  0  0  0
 37 38  1  6  0  0  0
 37 39  1  0  0  0  0
 40 41  1  1  0  0  0
 40 39  1  0  0  0  0
 42 47  1  0  0  0  0
 43 50  2  0  0  0  0
 44 51  1  6  0  0  0
 44 46  1  0  0  0  0
 44 40  1  0  0  0  0
 46 45  1  1  0  0  0
 48 52  1  0  0  0  0
 48 54  1  1  0  0  0
 49 42  1  0  0  0  0
 49 52  1  0  0  0  0
 50 48  1  0  0  0  0
 50 46  1  0  0  0  0
 53 44  1  0  0  0  0
 53 47  1  0  0  0  0
 54 55  1  0  0  0  0
M  END
>  <MODEL>
6

>  <REMARK>
 VINA RESULT:      -6.2      2.444      3.853
  Name = 
  11 active torsions:
  status: ('A' for Active; 'I' for Inactive)
    1  A    between atoms: C_2  and  C_44
    2  A    between atoms: C_4  and  C_37
    3  A    between atoms: C_6  and  C_20
    4  A    between atoms: C_7  and  C_8
    5  A    between atoms: C_7  and  O_22
    6  A    between atoms: C_8  and  C_35
    7  A    between atoms: C_10  and  C_18
    8  A    between atoms: C_10  and  C_32
    9  A    between atoms: N_11  and  C_29
   10  A    between atoms: C_20  and  O_22
   11  A    between atoms: C_33  and  C_52
                            x       y       z     vdW  Elec       q    Type
                         _______ _______ _______ _____ _____    ______ ____

>  <TORSDO>
F 11

$$$$
=
 OpenBabel10272401353D

 55 60  0  0  1  0  0  0  0  0999 V2000
  186.2240  177.1130  137.5240 C   0  0  0  0  0  0  0  0  0  0  0  0
  186.6240  174.5320  134.7870 C   0  0  0  0  0  1  0  0  0  0  0  0
  182.3490  173.4190  137.0020 C   0  0  0  0  0  3  0  0  0  0  0  0
  181.1300  172.7680  136.7880 C   0  0  0  0  0  3  0  0  0  0  0  0
  181.3400  175.4760  136.2500 C   0  0  0  0  0  0  0  0  0  0  0  0
  180.1540  174.7820  136.0030 C   0  0  0  0  0  3  0  0  0  0  0  0
  184.8430  174.6390  136.4070 O   0  0  0  0  0  0  0  0  0  0  0  0
  180.0670  173.4560  136.2860 N   0  0  0  0  0  0  0  0  0  0  0  0
  182.4740  174.7720  136.6990 C   0  0  0  0  0  0  0  0  0  0  0  0
  184.9400  177.8040  137.0870 C   0  0  0  0  0  2  0  0  0  0  0  0
  182.4800  177.6940  136.5880 C   0  0  2  0  0  3  0  0  0  0  0  0
  181.4010  176.8870  136.0280 N   0  0  0  0  0  2  0  0  0  0  0  0
  186.7350  176.0550  136.8270 C   0  0  0  0  0  0  0  0  0  0  0  0
  185.8610  175.3880  135.7920 C   0  0  1  0  0  3  0  0  0  0  0  0
  183.8000  175.4660  136.9220 C   0  0  2  0  0  3  0  0  0  0  0  0
  183.8210  176.9600  136.4520 C   0  0  2  0  0  3  0  0  0  0  0  0
  188.2870  177.6950  138.8570 C   0  0  0  0  0  3  0  0  0  0  0  0
  186.7240  178.7850  140.8920 C   0  0  0  0  0  0  0  0  0  0  0  0
  186.1180  178.2360  139.7580 C   0  0  0  0  0  3  0  0  0  0  0  0
  188.8950  178.2370  139.9900 C   0  0  0  0  0  3  0  0  0  0  0  0
  186.8910  177.7100  138.7180 C   0  0  0  0  0  0  0  0  0  0  0  0
  185.9460  179.3240  141.8970 O   0  0  0  0  0  1  0  0  0  0  0  0
  188.1130  178.7950  141.0080 C   0  0  0  0  0  3  0  0  0  0  0  0
  180.7520  178.6970  138.1610 C   0  0  0  0  0  2  0  0  0  0  0  0
  180.7440  178.0830  140.6340 C   0  0  2  0  0  3  0  0  0  0  0  0
  182.5440  177.1400  139.1260 C   0  0  0  0  0  2  0  0  0  0  0  0
  181.3770  176.8160  140.0520 C   0  0  0  0  0  2  0  0  0  0  0  0
  180.5330  179.1880  139.5870 C   0  0  0  0  0  2  0  0  0  0  0  0
  182.1740  178.1530  138.0270 C   0  0  1  0  0  3  0  0  0  0  0  0
  181.5970  178.6260  141.7730 C   0  0  0  0  0  2  0  0  0  0  0  0
  180.7720  179.4860  142.7230 C   0  0  0  0  0  2  0  0  0  0  0  0
  180.2890  178.6870  143.9180 C   0  0  0  0  0  1  0  0  0  0  0  0
  188.0480  175.4240  137.1410 C   0  0  0  0  0  3  0  0  0  0  0  0
  189.1930  175.6780  136.5070 C   0  0  0  0  0  0  0  0  0  0  0  0
  189.2340  176.5740  135.4460 O   0  0  0  0  0  1  0  0  0  0  0  0
  190.4210  174.9250  136.9100 C   0  0  0  0  0  2  0  0  0  0  0  0
  191.6010  175.8380  137.1980 C   0  0  2  0  0  3  0  0  0  0  0  0
  191.1950  176.9710  137.8880 F   0  0  0  0  0  0  0  0  0  0  0  0
  192.2640  176.1730  136.0010 O   0  0  0  0  0  0  0  0  0  0  0  0
  193.2360  175.1720  135.7730 C   0  0  1  0  0  3  0  0  0  0  0  0
  193.2110  174.7480  134.4320 O   0  0  0  0  0  1  0  0  0  0  0  0
  195.7920  174.1170  139.2240 C   0  0  0  0  0  2  0  0  0  0  0  0
  197.5330  176.5380  135.7600 O   0  0  0  0  0  0  0  0  0  0  0  0
  194.6440  175.6520  136.2130 C   0  0  1  0  0  0  0  0  0  0  0  0
  195.6720  173.5610  135.3970 O   0  0  0  0  0  1  0  0  0  0  0  0
  195.8030  174.9570  135.4340 C   0  0  2  0  0  3  0  0  0  0  0  0
  194.7940  174.2820  138.0890 C   0  0  0  0  0  2  0  0  0  0  0  0
  198.1960  174.4010  136.4680 C   0  0  1  0  0  3  0  0  0  0  0  0
  197.2170  174.4730  138.7840 C   0  0  0  0  0  2  0  0  0  0  0  0
  197.1830  175.3730  135.9050 C   0  0  0  0  0  0  0  0  0  0  0  0
  194.7060  176.9870  135.8620 F   0  0  0  0  0  0  0  0  0  0  0  0
  197.6430  173.5790  137.6340 C   0  0  0  0  0  2  0  0  0  0  0  0
  194.8010  175.6060  137.6250 O   0  0  0  0  0  0  0  0  0  0  0  0
  198.6510  173.5060  135.4160 N   0  0  0  0  0  2  0  0  0  0  0  0
  198.9670  172.2380  136.0480 C   0  0  0  0  0  1  0  0  0  0  0  0
  1 21  1  0  0  0  0
  4  3  1  0  0  0  0
  5  9  1  0  0  0  0
  6  5  2  0  0  0  0
  6  8  1  0  0  0  0
  8  4  2  0  0  0  0
  9 15  1  0  0  0  0
  9  3  2  0  0  0  0
 10  1  1  0  0  0  0
 11 12  1  1  0  0  0
 11 29  1  0  0  0  0
 12  5  1  0  0  0  0
 13 33  1  0  0  0  0
 13  1  2  0  0  0  0
 14  2  1  1  0  0  0
 14  7  1  0  0  0  0
 14 13  1  0  0  0  0
 15  7  1  6  0  0  0
 16 11  1  0  0  0  0
 16 15  1  0  0  0  0
 16 10  1  1  0  0  0
 17 20  1  0  0  0  0
 18 23  1  0  0  0  0
 18 22  1  0  0  0  0
 19 18  2  0  0  0  0
 20 23  2  0  0  0  0
 21 17  2  0  0  0  0
 21 19  1  0  0  0  0
 24 28  1  0  0  0  0
 25 30  1  1  0  0  0
 26 27  1  0  0  0  0
 27 25  1  0  0  0  0
 28 25  1  0  0  0  0
 29 24  1  6  0  0  0
 29 26  1  0  0  0  0
 30 31  1  0  0  0  0
 31 32  1  0  0  0  0
 34 36  1  0  0  0  0
 34 33  2  0  0  0  0
 35 34  1  0  0  0  0
 36 37  1  0  0  0  0
 37 38  1  6  0  0  0
 39 37  1  0  0  0  0
 40 41  1  6  0  0  0
 40 39  1  0  0  0  0
 40 44  1  0  0  0  0
 43 50  2  0  0  0  0
 44 51  1  6  0  0  0
 44 53  1  0  0  0  0
 46 45  1  1  0  0  0
 46 50  1  0  0  0  0
 46 44  1  0  0  0  0
 47 42  1  0  0  0  0
 48 54  1  6  0  0  0
 48 52  1  0  0  0  0
 49 42  1  0  0  0  0
 50 48  1  0  0  0  0
 52 49  1  0  0  0  0
 53 47  1  0  0  0  0
 54 55  1  0  0  0  0
M  END
>  <MODEL>
7

>  <REMARK>
 VINA RESULT:      -6.1      2.456      3.784
  Name = 
  11 active torsions:
  status: ('A' for Active; 'I' for Inactive)
    1  A    between atoms: C_2  and  C_44
    2  A    between atoms: C_4  and  C_37
    3  A    between atoms: C_6  and  C_20
    4  A    between atoms: C_7  and  C_8
    5  A    between atoms: C_7  and  O_22
    6  A    between atoms: C_8  and  C_35
    7  A    between atoms: C_10  and  C_18
    8  A    between atoms: C_10  and  C_32
    9  A    between atoms: N_11  and  C_29
   10  A    between atoms: C_20  and  O_22
   11  A    between atoms: C_33  and  C_52
                            x       y       z     vdW  Elec       q    Type
                         _______ _______ _______ _____ _____    ______ ____

>  <TORSDO>
F 11

$$$$
=
 OpenBabel10272401353D

 55 60  0  0  1  0  0  0  0  0999 V2000
  187.3790  177.4360  137.8840 C   0  0  0  0  0  0  0  0  0  0  0  0
  185.8320  176.5320  134.5530 C   0  0  0  0  0  1  0  0  0  0  0  0
  182.5930  174.9810  137.9480 C   0  0  0  0  0  3  0  0  0  0  0  0
  181.2410  174.6720  138.1250 C   0  0  0  0  0  3  0  0  0  0  0  0
  182.1300  177.2420  138.6450 C   0  0  0  0  0  0  0  0  0  0  0  0
  180.7800  176.9100  138.7640 C   0  0  0  0  0  3  0  0  0  0  0  0
  184.9350  176.0290  136.7330 O   0  0  0  0  0  0  0  0  0  0  0  0
  180.3660  175.6390  138.5170 N   0  0  0  0  0  0  0  0  0  0  0  0
  183.0420  176.2800  138.1710 C   0  0  0  0  0  0  0  0  0  0  0  0
  186.3370  178.3990  138.4360 C   0  0  0  0  0  2  0  0  0  0  0  0
  183.9880  178.8440  139.2070 C   0  0  2  0  0  3  0  0  0  0  0  0
  182.5740  178.5580  138.9860 N   0  0  0  0  0  2  0  0  0  0  0  0
  187.2040  176.8130  136.6820 C   0  0  0  0  0  0  0  0  0  0  0  0
  185.8370  176.8580  136.0420 C   0  0  1  0  0  3  0  0  0  0  0  0
  184.5050  176.6080  137.9640 C   0  0  2  0  0  3  0  0  0  0  0  0
  184.8490  178.1220  138.1620 C   0  0  2  0  0  3  0  0  0  0  0  0
  189.8050  176.8060  138.1740 C   0  0  0  0  0  3  0  0  0  0  0  0
  189.6760  177.3690  140.9020 C   0  0  0  0  0  0  0  0  0  0  0  0
  188.5450  177.5290  140.0970 C   0  0  0  0  0  3  0  0  0  0  0  0
  190.9370  176.6410  138.9760 C   0  0  0  0  0  3  0  0  0  0  0  0
  188.6030  177.2760  138.7230 C   0  0  0  0  0  0  0  0  0  0  0  0
  189.6080  177.6500  142.2520 O   0  0  0  0  0  1  0  0  0  0  0  0
  190.8770  176.9330  140.3430 C   0  0  0  0  0  3  0  0  0  0  0  0
  185.5090  179.5190  141.1300 C   0  0  0  0  0  2  0  0  0  0  0  0
  184.7610  179.1970  143.5440 C   0  0  2  0  0  3  0  0  0  0  0  0
  183.2570  178.4170  141.6630 C   0  0  0  0  0  2  0  0  0  0  0  0
  183.3960  179.3460  142.8650 C   0  0  0  0  0  2  0  0  0  0  0  0
  185.9290  179.1480  142.5480 C   0  0  0  0  0  2  0  0  0  0  0  0
  184.4160  178.5600  140.6590 C   0  0  1  0  0  3  0  0  0  0  0  0
  184.7860  177.9440  144.4110 C   0  0  0  0  0  2  0  0  0  0  0  0
  185.8640  178.0350  145.4850 C   0  0  0  0  0  2  0  0  0  0  0  0
  185.3550  178.7470  146.7240 C   0  0  0  0  0  1  0  0  0  0  0  0
  188.2440  175.9580  136.0420 C   0  0  0  0  0  3  0  0  0  0  0  0
  189.1350  176.3770  135.1430 C   0  0  0  0  0  0  0  0  0  0  0  0
  189.1350  177.6950  134.7040 O   0  0  0  0  0  1  0  0  0  0  0  0
  190.0860  175.3830  134.5560 C   0  0  0  0  0  2  0  0  0  0  0  0
  191.3600  175.2400  135.3720 C   0  0  2  0  0  3  0  0  0  0  0  0
  191.9930  176.4650  135.5240 F   0  0  0  0  0  0  0  0  0  0  0  0
  192.2130  174.2860  134.7840 O   0  0  0  0  0  0  0  0  0  0  0  0
  192.9440  173.6810  135.8330 C   0  0  1  0  0  3  0  0  0  0  0  0
  192.1560  173.5720  136.9920 O   0  0  0  0  0  1  0  0  0  0  0  0
  196.9420  172.5060  134.3520 C   0  0  0  0  0  2  0  0  0  0  0  0
  193.9180  169.2890  135.5360 O   0  0  0  0  0  0  0  0  0  0  0  0
  193.5310  172.3170  135.3870 C   0  0  1  0  0  0  0  0  0  0  0  0
  194.7570  172.0870  137.5170 O   0  0  0  0  0  1  0  0  0  0  0  0
  193.9600  171.4110  136.5830 C   0  0  2  0  0  3  0  0  0  0  0  0
  195.6740  173.1070  134.9380 C   0  0  0  0  0  2  0  0  0  0  0  0
  196.0050  169.7040  136.5250 C   0  0  1  0  0  3  0  0  0  0  0  0
  197.0430  171.0030  134.6390 C   0  0  0  0  0  2  0  0  0  0  0  0
  194.5950  170.1030  136.1530 C   0  0  0  0  0  0  0  0  0  0  0  0
  192.4900  171.6510  134.7680 F   0  0  0  0  0  0  0  0  0  0  0  0
  197.0420  170.7600  136.1370 C   0  0  0  0  0  2  0  0  0  0  0  0
  194.5440  172.4720  134.4020 O   0  0  0  0  0  0  0  0  0  0  0  0
  196.0810  169.4540  137.9550 N   0  0  0  0  0  2  0  0  0  0  0  0
  197.2840  168.6750  138.1860 C   0  0  0  0  0  1  0  0  0  0  0  0
  1 10  1  0  0  0  0
  1 21  1  0  0  0  0
  3  4  2  0  0  0  0
  3  9  1  0  0  0  0
  4  8  1  0  0  0  0
  5  6  1  0  0  0  0
  5 12  1  0  0  0  0
  8  6  2  0  0  0  0
  9  5  2  0  0  0  0
 11 12  1  1  0  0  0
 11 29  1  0  0  0  0
 13  1  2  0  0  0  0
 14  2  1  6  0  0  0
 14 13  1  0  0  0  0
 14  7  1  0  0  0  0
 15  7  1  6  0  0  0
 15 16  1  0  0  0  0
 15  9  1  0  0  0  0
 16 10  1  1  0  0  0
 16 11  1  0  0  0  0
 17 21  2  0  0  0  0
 17 20  1  0  0  0  0
 18 22  1  0  0  0  0
 19 18  2  0  0  0  0
 20 23  2  0  0  0  0
 21 19  1  0  0  0  0
 23 18  1  0  0  0  0
 24 28  1  0  0  0  0
 25 30  1  6  0  0  0
 26 27  1  0  0  0  0
 27 25  1  0  0  0  0
 28 25  1  0  0  0  0
 29 24  1  1  0  0  0
 29 26  1  0  0  0  0
 30 31  1  0  0  0  0
 31 32  1  0  0  0  0
 33 13  1  0  0  0  0
 34 33  2  0  0  0  0
 35 34  1  0  0  0  0
 36 34  1  0  0  0  0
 36 37  1  0  0  0  0
 37 38  1  6  0  0  0
 39 37  1  0  0  0  0
 39 40  1  0  0  0  0
 40 41  1  1  0  0  0
 42 49  1  0  0  0  0
 42 47  1  0  0  0  0
 43 50  2  0  0  0  0
 44 51  1  6  0  0  0
 44 40  1  0  0  0  0
 44 46  1  0  0  0  0
 46 45  1  1  0  0  0
 48 54  1  1  0  0  0
 49 52  1  0  0  0  0
 50 48  1  0  0  0  0
 50 46  1  0  0  0  0
 52 48  1  0  0  0  0
 53 47  1  0  0  0  0
 53 44  1  0  0  0  0
 54 55  1  0  0  0  0
M  END
>  <MODEL>
8

>  <REMARK>
 VINA RESULT:      -6.1      1.992      2.305
  Name = 
  11 active torsions:
  status: ('A' for Active; 'I' for Inactive)
    1  A    between atoms: C_2  and  C_44
    2  A    between atoms: C_4  and  C_37
    3  A    between atoms: C_6  and  C_20
    4  A    between atoms: C_7  and  C_8
    5  A    between atoms: C_7  and  O_22
    6  A    between atoms: C_8  and  C_35
    7  A    between atoms: C_10  and  C_18
    8  A    between atoms: C_10  and  C_32
    9  A    between atoms: N_11  and  C_29
   10  A    between atoms: C_20  and  O_22
   11  A    between atoms: C_33  and  C_52
                            x       y       z     vdW  Elec       q    Type
                         _______ _______ _______ _____ _____    ______ ____

>  <TORSDO>
F 11

$$$$
=
 OpenBabel10272401353D

 55 60  0  0  1  0  0  0  0  0999 V2000
  187.4390  177.6950  138.6280 C   0  0  0  0  0  0  0  0  0  0  0  0
  185.9110  176.3750  135.4290 C   0  0  0  0  0  1  0  0  0  0  0  0
  182.5080  175.5650  138.9200 C   0  0  0  0  0  3  0  0  0  0  0  0
  181.1360  175.3670  139.1010 C   0  0  0  0  0  3  0  0  0  0  0  0
  182.1730  177.9300  139.2460 C   0  0  0  0  0  0  0  0  0  0  0  0
  180.8030  177.7000  139.3730 C   0  0  0  0  0  3  0  0  0  0  0  0
  184.9370  176.2710  137.6320 O   0  0  0  0  0  0  0  0  0  0  0  0
  180.3150  176.4330  139.3120 N   0  0  0  0  0  0  0  0  0  0  0  0
  183.0330  176.8540  138.9540 C   0  0  0  0  0  0  0  0  0  0  0  0
  186.4480  178.7930  138.9920 C   0  0  0  0  0  2  0  0  0  0  0  0
  184.1150  179.4890  139.6110 C   0  0  2  0  0  3  0  0  0  0  0  0
  182.6910  179.2550  139.3930 N   0  0  0  0  0  2  0  0  0  0  0  0
  187.2510  176.9040  137.5310 C   0  0  0  0  0  0  0  0  0  0  0  0
  185.9040  176.9290  136.8500 C   0  0  1  0  0  3  0  0  0  0  0  0
  184.5180  177.0590  138.7450 C   0  0  2  0  0  3  0  0  0  0  0  0
  184.9520  178.5640  138.7180 C   0  0  2  0  0  3  0  0  0  0  0  0
  189.9340  177.6640  139.0020 C   0  0  0  0  0  3  0  0  0  0  0  0
  189.5690  177.2530  141.7350 C   0  0  0  0  0  0  0  0  0  0  0  0
  188.4640  177.3640  140.8880 C   0  0  0  0  0  3  0  0  0  0  0  0
  191.0420  177.5480  139.8450 C   0  0  0  0  0  3  0  0  0  0  0  0
  188.6320  177.5970  139.5190 C   0  0  0  0  0  0  0  0  0  0  0  0
  189.3840  177.0490  143.0880 O   0  0  0  0  0  1  0  0  0  0  0  0
  190.8600  177.3530  141.2190 C   0  0  0  0  0  3  0  0  0  0  0  0
  183.3740  178.7930  141.9420 C   0  0  0  0  0  2  0  0  0  0  0  0
  185.0850  178.0220  143.6660 C   0  0  2  0  0  3  0  0  0  0  0  0
  185.8780  178.8010  141.3910 C   0  0  0  0  0  2  0  0  0  0  0  0
  185.8200  177.6390  142.3780 C   0  0  0  0  0  2  0  0  0  0  0  0
  183.7850  178.7990  143.4110 C   0  0  0  0  0  2  0  0  0  0  0  0
  184.4930  179.4100  141.1030 C   0  0  1  0  0  3  0  0  0  0  0  0
  185.9950  178.8450  144.5690 C   0  0  0  0  0  2  0  0  0  0  0  0
  186.3070  178.1050  145.8650 C   0  0  0  0  0  2  0  0  0  0  0  0
  185.6080  178.7410  147.0500 C   0  0  0  0  0  1  0  0  0  0  0  0
  188.2500  175.9010  137.0630 C   0  0  0  0  0  3  0  0  0  0  0  0
  189.1840  176.1220  136.1390 C   0  0  0  0  0  0  0  0  0  0  0  0
  189.2780  177.3540  135.5030 O   0  0  0  0  0  1  0  0  0  0  0  0
  190.0840  174.9950  135.7430 C   0  0  0  0  0  2  0  0  0  0  0  0
  191.5030  175.4540  135.4480 C   0  0  2  0  0  3  0  0  0  0  0  0
  192.1310  174.5880  134.5650 F   0  0  0  0  0  0  0  0  0  0  0  0
  192.2320  175.5890  136.6450 O   0  0  0  0  0  0  0  0  0  0  0  0
  193.6030  175.5610  136.3010 C   0  0  1  0  0  3  0  0  0  0  0  0
  194.1150  176.8660  136.1820 O   0  0  0  0  0  1  0  0  0  0  0  0
  194.3300  171.2080  136.5730 C   0  0  0  0  0  2  0  0  0  0  0  0
  196.7610  174.0860  139.1610 O   0  0  0  0  0  0  0  0  0  0  0  0
  194.4110  174.7000  137.3060 C   0  0  1  0  0  0  0  0  0  0  0  0
  196.2560  174.4430  135.6860 O   0  0  0  0  0  1  0  0  0  0  0  0
  195.9470  174.7080  137.0280 C   0  0  2  0  0  3  0  0  0  0  0  0
  194.0130  172.6600  136.2570 C   0  0  0  0  0  2  0  0  0  0  0  0
  197.5750  172.6490  137.4930 C   0  0  1  0  0  3  0  0  0  0  0  0
  195.6180  171.0720  137.3940 C   0  0  0  0  0  2  0  0  0  0  0  0
  196.7350  173.8150  137.9670 C   0  0  0  0  0  0  0  0  0  0  0  0
  194.2510  175.3150  138.5330 F   0  0  0  0  0  0  0  0  0  0  0  0
  196.7860  171.6650  136.6280 C   0  0  0  0  0  2  0  0  0  0  0  0
  193.8660  173.3940  137.4430 O   0  0  0  0  0  0  0  0  0  0  0  0
  198.7190  173.1440  136.7450 N   0  0  0  0  0  2  0  0  0  0  0  0
  199.7780  173.3920  137.7070 C   0  0  0  0  0  1  0  0  0  0  0  0
  1 10  1  0  0  0  0
  1 21  1  0  0  0  0
  3  9  2  0  0  0  0
  3  4  1  0  0  0  0
  4  8  2  0  0  0  0
  5  6  2  0  0  0  0
  5 12  1  0  0  0  0
  8  6  1  0  0  0  0
  9  5  1  0  0  0  0
 11 12  1  1  0  0  0
 11 29  1  0  0  0  0
 13  1  2  0  0  0  0
 14  2  1  6  0  0  0
 14 13  1  0  0  0  0
 14  7  1  0  0  0  0
 15  7  1  6  0  0  0
 15  9  1  0  0  0  0
 16 15  1  0  0  0  0
 16 10  1  1  0  0  0
 16 11  1  0  0  0  0
 17 21  2  0  0  0  0
 17 20  1  0  0  0  0
 18 22  1  0  0  0  0
 19 18  2  0  0  0  0
 20 23  2  0  0  0  0
 21 19  1  0  0  0  0
 23 18  1  0  0  0  0
 24 28  1  0  0  0  0
 25 30  1  1  0  0  0
 26 27  1  0  0  0  0
 27 25  1  0  0  0  0
 28 25  1  0  0  0  0
 29 26  1  6  0  0  0
 29 24  1  0  0  0  0
 30 31  1  0  0  0  0
 31 32  1  0  0  0  0
 33 13  1  0  0  0  0
 34 33  2  0  0  0  0
 35 34  1  0  0  0  0
 36 34  1  0  0  0  0
 37 38  1  6  0  0  0
 37 36  1  0  0  0  0
 37 39  1  0  0  0  0
 40 41  1  1  0  0  0
 40 39  1  0  0  0  0
 40 44  1  0  0  0  0
 42 49  1  0  0  0  0
 44 53  1  0  0  0  0
 44 51  1  1  0  0  0
 46 45  1  6  0  0  0
 46 44  1  0  0  0  0
 46 50  1  0  0  0  0
 47 42  1  0  0  0  0
 47 53  1  0  0  0  0
 48 54  1  6  0  0  0
 48 50  1  0  0  0  0
 50 43  2  0  0  0  0
 52 49  1  0  0  0  0
 52 48  1  0  0  0  0
 54 55  1  0  0  0  0
M  END
>  <MODEL>
9

>  <REMARK>
 VINA RESULT:      -6.1      1.535      2.024
  Name = 
  11 active torsions:
  status: ('A' for Active; 'I' for Inactive)
    1  A    between atoms: C_2  and  C_44
    2  A    between atoms: C_4  and  C_37
    3  A    between atoms: C_6  and  C_20
    4  A    between atoms: C_7  and  C_8
    5  A    between atoms: C_7  and  O_22
    6  A    between atoms: C_8  and  C_35
    7  A    between atoms: C_10  and  C_18
    8  A    between atoms: C_10  and  C_32
    9  A    between atoms: N_11  and  C_29
   10  A    between atoms: C_20  and  O_22
   11  A    between atoms: C_33  and  C_52
                            x       y       z     vdW  Elec       q    Type
                         _______ _______ _______ _____ _____    ______ ____

>  <TORSDO>
F 11

$$$$
