=
 OpenBabel10272414003D

 30 33  0  0  1  0  0  0  0  0999 V2000
  186.8680  178.9320  141.4910 C   0  0  0  0  0  0  0  0  0  0  0  0
  187.5520  178.0300  139.4120 C   0  0  0  0  0  3  0  0  0  0  0  0
  183.3880  177.5410  138.2190 O   0  0  0  0  0  0  0  0  0  0  0  0
  183.9860  178.9130  141.9790 C   0  0  0  0  0  2  0  0  0  0  0  0
  187.3870  178.1010  142.4820 O   0  0  0  0  0  0  0  0  0  0  0  0
  184.7670  178.3200  145.0690 C   0  0  1  0  0  3  0  0  0  0  0  0
  186.1270  178.6380  144.4700 C   0  0  0  0  0  2  0  0  0  0  0  0
  187.2650  176.4450  144.2140 C   0  0  0  0  0  1  0  0  0  0  0  0
  182.7860  176.6180  139.1060 C   0  0  2  0  0  3  0  0  0  0  0  0
  186.5380  177.5560  143.4830 C   0  0  2  0  0  3  0  0  0  0  0  0
  183.1150  178.5560  143.1770 C   0  0  1  0  0  3  0  0  0  0  0  0
  187.4390  177.3980  138.0680 C   0  0  0  0  0  2  0  0  0  0  0  0
  181.5180  178.2710  140.5600 C   0  0  1  0  0  3  0  0  0  0  0  0
  184.8120  178.6120  146.5550 C   0  0  0  0  0  1  0  0  0  0  0  0
  186.7090  180.1610  141.7200 O   0  0  0  0  0  0  0  0  0  0  0  0
  184.6350  178.0880  138.5260 C   0  0  0  0  0  0  0  0  0  0  0  0
  186.6910  178.3080  137.1610 C   0  0  0  0  0  3  0  0  0  0  0  0
  183.6910  179.1890  144.4350 C   0  0  0  0  0  2  0  0  0  0  0  0
  186.5140  178.3780  140.1830 C   0  0  0  0  0  0  0  0  0  0  0  0
  184.0780  177.7790  140.9470 C   0  0  1  0  0  3  0  0  0  0  0  0
  181.4550  176.1310  138.5580 C   0  0  0  0  0  1  0  0  0  0  0  0
  182.6810  177.2600  140.4850 C   0  0  2  0  0  3  0  0  0  0  0  0
  181.7270  179.1380  142.9560 C   0  0  0  0  0  2  0  0  0  0  0  0
  185.4130  178.5970  137.3780 C   0  0  0  0  0  3  0  0  0  0  0  0
  185.0730  178.1120  139.8190 C   0  0  0  0  0  0  0  0  0  0  0  0
  180.9060  178.3240  141.9610 C   0  0  0  0  0  2  0  0  0  0  0  0
  181.8680  179.5460  140.0890 O   0  0  0  0  0  0  0  0  0  0  0  0
  180.8490  179.9050  139.2030 C   0  0  0  0  0  3  0  0  0  0  0  0
  181.4580  180.3050  137.8750 C   0  0  0  0  0  1  0  0  0  0  0  0
  180.0750  181.0820  139.7650 C   0  0  0  0  0  1  0  0  0  0  0  0
  1 15  2  0  0  0  0
  1  5  1  0  0  0  0
  2 19  2  0  0  0  0
  3 16  1  0  0  0  0
  3  9  1  0  0  0  0
  5 10  1  0  0  0  0
  6 14  1  1  0  0  0
  7  6  1  0  0  0  0
  9 21  1  6  0  0  0
  9 22  1  0  0  0  0
 10  8  1  1  0  0  0
 10  7  1  0  0  0  0
 11  4  1  6  0  0  0
 11 18  1  0  0  0  0
 12  2  1  0  0  0  0
 13 27  1  1  0  0  0
 13 26  1  0  0  0  0
 16 25  2  0  0  0  0
 17 24  2  0  0  0  0
 17 12  1  0  0  0  0
 18  6  1  0  0  0  0
 19  1  1  0  0  0  0
 20  4  1  6  0  0  0
 22 13  1  0  0  0  0
 22 20  1  0  0  0  0
 23 11  1  0  0  0  0
 24 16  1  0  0  0  0
 25 19  1  0  0  0  0
 25 20  1  0  0  0  0
 26 23  1  0  0  0  0
 28 30  1  0  0  0  0
 28 27  1  0  0  0  0
 29 28  1  0  0  0  0
M  END
>  <MODEL>
1

>  <REMARK>
 VINA RESULT:      -6.2      0.000      0.000
  Name = 
  2 active torsions:
  status: ('A' for Active; 'I' for Inactive)
    1  A    between atoms: C_7  and  O_10
    2  A    between atoms: O_10  and  C_15
                            x       y       z     vdW  Elec       q    Type
                         _______ _______ _______ _____ _____    ______ ____

>  <TORSDO>
F 2

$$$$
=
 OpenBabel10272414003D

 30 33  0  0  1  0  0  0  0  0999 V2000
  188.2030  178.2700  137.9870 C   0  0  0  0  0  0  0  0  0  0  0  0
  185.9340  178.3540  138.6600 C   0  0  0  0  0  3  0  0  0  0  0  0
  187.1210  177.8840  142.8280 O   0  0  0  0  0  0  0  0  0  0  0  0
  190.1230  177.7140  140.1200 C   0  0  0  0  0  2  0  0  0  0  0  0
  188.3280  177.1830  137.1250 O   0  0  0  0  0  0  0  0  0  0  0  0
  191.7560  176.0430  137.8710 C   0  0  1  0  0  3  0  0  0  0  0  0
  190.6980  176.7330  137.0260 C   0  0  0  0  0  2  0  0  0  0  0  0
  189.0250  174.9750  136.4970 C   0  0  0  0  0  1  0  0  0  0  0  0
  187.7420  176.6200  142.9640 C   0  0  2  0  0  3  0  0  0  0  0  0
  189.3170  176.1890  137.3560 C   0  0  2  0  0  3  0  0  0  0  0  0
  191.3430  176.8100  140.2400 C   0  0  1  0  0  3  0  0  0  0  0  0
  184.7510  178.2980  139.5620 C   0  0  0  0  0  2  0  0  0  0  0  0
  190.1600  177.3970  143.0210 C   0  0  1  0  0  3  0  0  0  0  0  0
  192.9470  175.7250  136.9920 C   0  0  0  0  0  1  0  0  0  0  0  0
  188.9430  179.2790  137.8400 O   0  0  0  0  0  0  0  0  0  0  0  0
  186.8860  178.4090  141.5560 C   0  0  0  0  0  0  0  0  0  0  0  0
  184.8440  179.3970  140.5600 C   0  0  0  0  0  3  0  0  0  0  0  0
  192.2130  176.9570  138.9990 C   0  0  0  0  0  2  0  0  0  0  0  0
  187.2070  178.2410  139.0610 C   0  0  0  0  0  0  0  0  0  0  0  0
  188.8620  177.1020  140.7460 C   0  0  1  0  0  3  0  0  0  0  0  0
  187.8670  176.2340  144.4290 C   0  0  0  0  0  1  0  0  0  0  0  0
  189.0730  176.6450  142.2230 C   0  0  2  0  0  3  0  0  0  0  0  0
  192.1640  177.2610  141.4390 C   0  0  0  0  0  2  0  0  0  0  0  0
  185.8140  179.4200  141.4680 C   0  0  0  0  0  3  0  0  0  0  0  0
  187.6160  177.9710  140.4890 C   0  0  0  0  0  0  0  0  0  0  0  0
  191.5520  176.8160  142.7640 C   0  0  0  0  0  2  0  0  0  0  0  0
  190.1230  178.7860  142.8240 O   0  0  0  0  0  0  0  0  0  0  0  0
  190.4000  179.3440  144.0750 C   0  0  0  0  0  3  0  0  0  0  0  0
  191.8870  179.6140  144.1840 C   0  0  0  0  0  1  0  0  0  0  0  0
  189.9930  178.3740  145.1670 C   0  0  0  0  0  1  0  0  0  0  0  0
  1 19  1  0  0  0  0
  2 19  2  0  0  0  0
  2 12  1  0  0  0  0
  3  9  1  0  0  0  0
  4 11  1  0  0  0  0
  5 10  1  0  0  0  0
  5  1  1  0  0  0  0
  6 14  1  6  0  0  0
  6 18  1  0  0  0  0
  7 10  1  0  0  0  0
  7  6  1  0  0  0  0
  9 21  1  1  0  0  0
 10  8  1  6  0  0  0
 11 18  1  6  0  0  0
 11 23  1  0  0  0  0
 12 17  1  0  0  0  0
 13 27  1  6  0  0  0
 15  1  2  0  0  0  0
 16  3  1  0  0  0  0
 17 24  2  0  0  0  0
 19 25  1  0  0  0  0
 20  4  1  1  0  0  0
 20 22  1  0  0  0  0
 22  9  1  0  0  0  0
 22 13  1  0  0  0  0
 23 26  1  0  0  0  0
 24 16  1  0  0  0  0
 25 20  1  0  0  0  0
 25 16  2  0  0  0  0
 26 13  1  0  0  0  0
 27 28  1  0  0  0  0
 28 29  1  0  0  0  0
 28 30  1  0  0  0  0
M  END
>  <MODEL>
2

>  <REMARK>
 VINA RESULT:      -5.7      3.299      7.820
  Name = 
  2 active torsions:
  status: ('A' for Active; 'I' for Inactive)
    1  A    between atoms: C_7  and  O_10
    2  A    between atoms: O_10  and  C_15
                            x       y       z     vdW  Elec       q    Type
                         _______ _______ _______ _____ _____    ______ ____

>  <TORSDO>
F 2

$$$$
=
 OpenBabel10272414003D

 30 33  0  0  1  0  0  0  0  0999 V2000
  184.8570  179.2150  139.5890 C   0  0  0  0  0  0  0  0  0  0  0  0
  186.7130  178.3330  138.4120 C   0  0  0  0  0  3  0  0  0  0  0  0
  184.1280  175.4230  136.4510 O   0  0  0  0  0  0  0  0  0  0  0  0
  182.3360  177.7840  139.2060 C   0  0  0  0  0  2  0  0  0  0  0  0
  185.1310  179.0640  140.9470 O   0  0  0  0  0  0  0  0  0  0  0  0
  181.7560  178.4870  142.3180 C   0  0  1  0  0  3  0  0  0  0  0  0
  182.9980  179.3200  142.0470 C   0  0  0  0  0  2  0  0  0  0  0  0
  184.8670  178.0900  143.1230 C   0  0  0  0  0  1  0  0  0  0  0  0
  183.5910  174.5750  137.4490 C   0  0  2  0  0  3  0  0  0  0  0  0
  184.1980  178.4200  141.8040 C   0  0  2  0  0  3  0  0  0  0  0  0
  181.2240  177.3280  140.1410 C   0  0  1  0  0  3  0  0  0  0  0  0
  187.4880  177.4290  137.5190 C   0  0  0  0  0  2  0  0  0  0  0  0
  181.2700  175.5980  137.5950 C   0  0  1  0  0  3  0  0  0  0  0  0
  180.9920  179.1160  143.4650 C   0  0  0  0  0  1  0  0  0  0  0  0
  184.1520  180.1810  139.1920 O   0  0  0  0  0  0  0  0  0  0  0  0
  184.7720  176.6060  136.8180 C   0  0  0  0  0  0  0  0  0  0  0  0
  186.9620  177.5410  136.1330 C   0  0  0  0  0  3  0  0  0  0  0  0
  180.8570  178.4600  141.0910 C   0  0  0  0  0  2  0  0  0  0  0  0
  185.3930  178.2530  138.6230 C   0  0  0  0  0  0  0  0  0  0  0  0
  183.3240  176.6600  138.8590 C   0  0  1  0  0  3  0  0  0  0  0  0
  182.9690  173.3360  136.8270 C   0  0  0  0  0  1  0  0  0  0  0  0
  182.6220  175.3800  138.3060 C   0  0  2  0  0  3  0  0  0  0  0  0
  179.9940  177.0040  139.3060 C   0  0  0  0  0  2  0  0  0  0  0  0
  185.7290  177.1480  135.8320 C   0  0  0  0  0  3  0  0  0  0  0  0
  184.5130  177.1800  138.0290 C   0  0  0  0  0  0  0  0  0  0  0  0
  180.1110  175.6610  138.5920 C   0  0  0  0  0  2  0  0  0  0  0  0
  181.2780  176.6990  136.7250 O   0  0  0  0  0  0  0  0  0  0  0  0
  180.3650  176.3790  135.7160 C   0  0  0  0  0  3  0  0  0  0  0  0
  181.0050  175.3980  134.7550 C   0  0  0  0  0  1  0  0  0  0  0  0
  179.9820  177.6350  134.9580 C   0  0  0  0  0  1  0  0  0  0  0  0
  1  5  1  0  0  0  0
  2 19  2  0  0  0  0
  3 16  1  0  0  0  0
  3  9  1  0  0  0  0
  5 10  1  0  0  0  0
  6 14  1  1  0  0  0
  7  6  1  0  0  0  0
  9 21  1  6  0  0  0
  9 22  1  0  0  0  0
 10  7  1  0  0  0  0
 10  8  1  1  0  0  0
 11  4  1  6  0  0  0
 11 18  1  0  0  0  0
 12  2  1  0  0  0  0
 13 27  1  1  0  0  0
 13 22  1  0  0  0  0
 13 26  1  0  0  0  0
 15  1  2  0  0  0  0
 16 25  2  0  0  0  0
 17 12  1  0  0  0  0
 18  6  1  0  0  0  0
 19  1  1  0  0  0  0
 20  4  1  6  0  0  0
 22 20  1  0  0  0  0
 23 11  1  0  0  0  0
 24 17  2  0  0  0  0
 24 16  1  0  0  0  0
 25 19  1  0  0  0  0
 25 20  1  0  0  0  0
 26 23  1  0  0  0  0
 28 27  1  0  0  0  0
 29 28  1  0  0  0  0
 30 28  1  0  0  0  0
M  END
>  <MODEL>
3

>  <REMARK>
 VINA RESULT:      -5.7      2.021      3.583
  Name = 
  2 active torsions:
  status: ('A' for Active; 'I' for Inactive)
    1  A    between atoms: C_7  and  O_10
    2  A    between atoms: O_10  and  C_15
                            x       y       z     vdW  Elec       q    Type
                         _______ _______ _______ _____ _____    ______ ____

>  <TORSDO>
F 2

$$$$
=
 OpenBabel10272414003D

 30 33  0  0  1  0  0  0  0  0999 V2000
  184.8920  179.1970  143.3280 C   0  0  0  0  0  0  0  0  0  0  0  0
  185.0540  178.2850  145.5070 C   0  0  0  0  0  3  0  0  0  0  0  0
  189.0450  176.7770  144.6110 O   0  0  0  0  0  0  0  0  0  0  0  0
  187.1220  178.5820  141.5420 C   0  0  0  0  0  2  0  0  0  0  0  0
  183.7920  178.5950  142.7200 O   0  0  0  0  0  0  0  0  0  0  0  0
  184.8840  178.4590  139.1990 C   0  0  1  0  0  3  0  0  0  0  0  0
  184.0760  179.0160  140.3600 C   0  0  0  0  0  2  0  0  0  0  0  0
  182.7000  177.1170  141.1770 C   0  0  0  0  0  1  0  0  0  0  0  0
  188.9280  175.8270  143.5690 C   0  0  2  0  0  3  0  0  0  0  0  0
  183.9240  177.9680  141.4510 C   0  0  2  0  0  3  0  0  0  0  0  0
  187.2260  178.1500  140.0850 C   0  0  1  0  0  3  0  0  0  0  0  0
  185.6220  177.5250  146.6550 C   0  0  0  0  0  2  0  0  0  0  0  0
  189.7320  177.2820  141.6480 C   0  0  1  0  0  3  0  0  0  0  0  0
  184.2270  178.8870  137.9030 C   0  0  0  0  0  1  0  0  0  0  0  0
  185.2150  180.3760  143.0200 O   0  0  0  0  0  0  0  0  0  0  0  0
  187.9680  177.6130  144.9140 C   0  0  0  0  0  0  0  0  0  0  0  0
  186.8980  178.1600  147.0800 C   0  0  0  0  0  3  0  0  0  0  0  0
  186.3030  179.0070  139.2300 C   0  0  0  0  0  2  0  0  0  0  0  0
  185.6670  178.4620  144.3300 C   0  0  0  0  0  0  0  0  0  0  0  0
  187.2500  177.4080  142.5240 C   0  0  1  0  0  3  0  0  0  0  0  0
  190.2020  175.0090  143.4380 C   0  0  0  0  0  1  0  0  0  0  0  0
  188.5330  176.5520  142.2880 C   0  0  2  0  0  3  0  0  0  0  0  0
  188.6520  178.3870  139.6110 C   0  0  0  0  0  2  0  0  0  0  0  0
  187.9570  178.1760  146.2790 C   0  0  0  0  0  3  0  0  0  0  0  0
  187.0030  177.8510  143.9790 C   0  0  0  0  0  0  0  0  0  0  0  0
  189.6200  177.3240  140.1230 C   0  0  0  0  0  2  0  0  0  0  0  0
  189.9560  178.5550  142.1950 O   0  0  0  0  0  0  0  0  0  0  0  0
  190.9530  178.3730  143.1580 C   0  0  0  0  0  3  0  0  0  0  0  0
  191.1780  179.6760  143.8970 C   0  0  0  0  0  1  0  0  0  0  0  0
  192.2460  177.9600  142.4810 C   0  0  0  0  0  1  0  0  0  0  0  0
  1 19  1  0  0  0  0
  2 12  1  0  0  0  0
  3 16  1  0  0  0  0
  5  1  1  0  0  0  0
  6 14  1  6  0  0  0
  6 18  1  0  0  0  0
  6  7  1  0  0  0  0
  7 10  1  0  0  0  0
  9 21  1  6  0  0  0
  9  3  1  0  0  0  0
 10  8  1  6  0  0  0
 10  5  1  0  0  0  0
 11 18  1  6  0  0  0
 11  4  1  0  0  0  0
 12 17  1  0  0  0  0
 13 27  1  1  0  0  0
 13 22  1  0  0  0  0
 15  1  2  0  0  0  0
 16 24  1  0  0  0  0
 19  2  2  0  0  0  0
 20  4  1  6  0  0  0
 20 25  1  0  0  0  0
 22 20  1  0  0  0  0
 22  9  1  0  0  0  0
 23 11  1  0  0  0  0
 23 26  1  0  0  0  0
 24 17  2  0  0  0  0
 25 19  1  0  0  0  0
 25 16  2  0  0  0  0
 26 13  1  0  0  0  0
 27 28  1  0  0  0  0
 28 29  1  0  0  0  0
 30 28  1  0  0  0  0
M  END
>  <MODEL>
4

>  <REMARK>
 VINA RESULT:      -5.1      2.378      7.405
  Name = 
  2 active torsions:
  status: ('A' for Active; 'I' for Inactive)
    1  A    between atoms: C_7  and  O_10
    2  A    between atoms: O_10  and  C_15
                            x       y       z     vdW  Elec       q    Type
                         _______ _______ _______ _____ _____    ______ ____

>  <TORSDO>
F 2

$$$$
=
 OpenBabel10272414003D

 30 33  0  0  1  0  0  0  0  0999 V2000
  184.4470  173.5780  136.8220 C   0  0  0  0  0  0  0  0  0  0  0  0
  185.5920  171.9090  135.5930 C   0  0  0  0  0  3  0  0  0  0  0  0
  189.1600  174.4100  135.4630 O   0  0  0  0  0  0  0  0  0  0  0  0
  185.9120  176.0780  137.2100 C   0  0  0  0  0  2  0  0  0  0  0  0
  183.3370  173.9480  136.0640 O   0  0  0  0  0  0  0  0  0  0  0  0
  183.0250  177.5230  136.9160 C   0  0  1  0  0  3  0  0  0  0  0  0
  182.6230  176.0590  136.9910 C   0  0  0  0  0  2  0  0  0  0  0  0
  182.0510  175.4100  134.6630 C   0  0  0  0  0  1  0  0  0  0  0  0
  188.8440  175.5830  134.7370 C   0  0  2  0  0  3  0  0  0  0  0  0
  183.0990  175.3140  135.7540 C   0  0  2  0  0  3  0  0  0  0  0  0
  185.5400  177.5510  137.1110 C   0  0  1  0  0  3  0  0  0  0  0  0
  186.6850  171.2620  134.8180 C   0  0  0  0  0  2  0  0  0  0  0  0
  188.5680  177.1730  136.6970 C   0  0  1  0  0  3  0  0  0  0  0  0
  181.8580  178.3700  137.3820 C   0  0  0  0  0  1  0  0  0  0  0  0
  184.3960  173.6310  138.0800 O   0  0  0  0  0  0  0  0  0  0  0  0
  188.1370  173.5610  135.8900 C   0  0  0  0  0  0  0  0  0  0  0  0
  187.8790  171.1050  135.6910 C   0  0  0  0  0  3  0  0  0  0  0  0
  184.2170  177.7940  137.8220 C   0  0  0  0  0  2  0  0  0  0  0  0
  185.6680  173.1220  136.1560 C   0  0  0  0  0  0  0  0  0  0  0  0
  186.6250  175.5550  135.9540 C   0  0  1  0  0  3  0  0  0  0  0  0
  190.1070  176.3340  134.3480 C   0  0  0  0  0  1  0  0  0  0  0  0
  187.8630  176.4160  135.5520 C   0  0  2  0  0  3  0  0  0  0  0  0
  186.6080  178.3680  137.8240 C   0  0  0  0  0  2  0  0  0  0  0  0
  188.5330  172.1640  136.1560 C   0  0  0  0  0  3  0  0  0  0  0  0
  186.8640  174.0350  136.0220 C   0  0  0  0  0  0  0  0  0  0  0  0
  187.8820  178.5080  136.9970 C   0  0  0  0  0  2  0  0  0  0  0  0
  188.7310  176.3940  137.8530 O   0  0  0  0  0  0  0  0  0  0  0  0
  189.9650  176.7760  138.3860 C   0  0  0  0  0  3  0  0  0  0  0  0
  190.9700  175.6640  138.1690 C   0  0  0  0  0  1  0  0  0  0  0  0
  189.8220  177.0290  139.8740 C   0  0  0  0  0  1  0  0  0  0  0  0
  1 15  2  0  0  0  0
  2 19  2  0  0  0  0
  3 16  1  0  0  0  0
  5  1  1  0  0  0  0
  6  7  1  0  0  0  0
  6 14  1  1  0  0  0
  6 18  1  0  0  0  0
  9 21  1  1  0  0  0
  9  3  1  0  0  0  0
  9 22  1  0  0  0  0
 10  8  1  6  0  0  0
 10  5  1  0  0  0  0
 10  7  1  0  0  0  0
 11  4  1  1  0  0  0
 11 18  1  0  0  0  0
 11 23  1  0  0  0  0
 12  2  1  0  0  0  0
 12 17  1  0  0  0  0
 13 26  1  0  0  0  0
 13 27  1  1  0  0  0
 16 25  2  0  0  0  0
 16 24  1  0  0  0  0
 17 24  2  0  0  0  0
 19  1  1  0  0  0  0
 20 25  1  0  0  0  0
 20  4  1  1  0  0  0
 22 20  1  0  0  0  0
 22 13  1  0  0  0  0
 25 19  1  0  0  0  0
 26 23  1  0  0  0  0
 27 28  1  0  0  0  0
 28 30  1  0  0  0  0
 29 28  1  0  0  0  0
M  END
>  <MODEL>
5

>  <REMARK>
 VINA RESULT:      -5.0      4.395      8.040
  Name = 
  2 active torsions:
  status: ('A' for Active; 'I' for Inactive)
    1  A    between atoms: C_7  and  O_10
    2  A    between atoms: O_10  and  C_15
                            x       y       z     vdW  Elec       q    Type
                         _______ _______ _______ _____ _____    ______ ____

>  <TORSDO>
F 2

$$$$
=
 OpenBabel10272414003D

 30 33  0  0  1  0  0  0  0  0999 V2000
  186.8680  178.2880  136.9820 C   0  0  0  0  0  0  0  0  0  0  0  0
  185.7890  177.1120  135.2330 C   0  0  0  0  0  3  0  0  0  0  0  0
  182.1290  176.9020  137.5910 O   0  0  0  0  0  0  0  0  0  0  0  0
  185.3080  178.5960  139.4350 C   0  0  0  0  0  2  0  0  0  0  0  0
  187.9640  177.5190  137.3690 O   0  0  0  0  0  0  0  0  0  0  0  0
  188.1390  178.2580  140.9790 C   0  0  1  0  0  3  0  0  0  0  0  0
  188.5950  178.3800  139.5340 C   0  0  0  0  0  2  0  0  0  0  0  0
  189.1950  176.0730  138.8340 C   0  0  0  0  0  1  0  0  0  0  0  0
  182.4010  176.1390  138.7510 C   0  0  2  0  0  3  0  0  0  0  0  0
  188.1500  177.1670  138.7330 C   0  0  2  0  0  3  0  0  0  0  0  0
  185.6240  178.4510  140.9180 C   0  0  1  0  0  3  0  0  0  0  0  0
  184.7220  176.3570  134.5200 C   0  0  0  0  0  2  0  0  0  0  0  0
  182.6140  178.0480  140.4120 C   0  0  1  0  0  3  0  0  0  0  0  0
  189.2720  178.6970  141.8840 C   0  0  0  0  0  1  0  0  0  0  0  0
  186.9140  179.5440  137.0770 O   0  0  0  0  0  0  0  0  0  0  0  0
  183.1820  177.3560  136.7950 C   0  0  0  0  0  0  0  0  0  0  0  0
  183.5340  177.2350  134.3460 C   0  0  0  0  0  3  0  0  0  0  0  0
  186.9360  179.1550  141.2330 C   0  0  0  0  0  2  0  0  0  0  0  0
  185.6650  177.6370  136.4590 C   0  0  0  0  0  0  0  0  0  0  0  0
  184.6170  177.3570  138.8460 C   0  0  1  0  0  3  0  0  0  0  0  0
  181.1110  175.7260  139.4410 C   0  0  0  0  0  1  0  0  0  0  0  0
  183.3480  176.9280  139.6460 C   0  0  2  0  0  3  0  0  0  0  0  0
  184.5250  179.1370  141.7150 C   0  0  0  0  0  2  0  0  0  0  0  0
  182.8390  177.6660  135.3930 C   0  0  0  0  0  3  0  0  0  0  0  0
  184.4360  177.4740  137.3210 C   0  0  0  0  0  0  0  0  0  0  0  0
  183.2470  178.3060  141.7810 C   0  0  0  0  0  2  0  0  0  0  0  0
  182.4780  179.2280  139.6640 O   0  0  0  0  0  0  0  0  0  0  0  0
  181.1090  179.3540  139.4170 C   0  0  0  0  0  3  0  0  0  0  0  0
  180.9000  180.1290  138.1330 C   0  0  0  0  0  1  0  0  0  0  0  0
  180.4520  180.1050  140.5590 C   0  0  0  0  0  1  0  0  0  0  0  0
  1 15  2  0  0  0  0
  1  5  1  0  0  0  0
  2 19  2  0  0  0  0
  3  9  1  0  0  0  0
  5 10  1  0  0  0  0
  6 18  1  0  0  0  0
  6 14  1  1  0  0  0
  7  6  1  0  0  0  0
  9 21  1  1  0  0  0
  9 22  1  0  0  0  0
 10  8  1  6  0  0  0
 10  7  1  0  0  0  0
 11  4  1  6  0  0  0
 11 18  1  0  0  0  0
 11 23  1  0  0  0  0
 12  2  1  0  0  0  0
 13 27  1  6  0  0  0
 13 26  1  0  0  0  0
 16 25  2  0  0  0  0
 16  3  1  0  0  0  0
 17 12  1  0  0  0  0
 17 24  2  0  0  0  0
 19  1  1  0  0  0  0
 19 25  1  0  0  0  0
 20  4  1  1  0  0  0
 20 22  1  0  0  0  0
 22 13  1  0  0  0  0
 23 26  1  0  0  0  0
 24 16  1  0  0  0  0
 25 20  1  0  0  0  0
 28 27  1  0  0  0  0
 28 30  1  0  0  0  0
 29 28  1  0  0  0  0
M  END
>  <MODEL>
6

>  <REMARK>
 VINA RESULT:      -4.6      2.271      3.646
  Name = 
  2 active torsions:
  status: ('A' for Active; 'I' for Inactive)
    1  A    between atoms: C_7  and  O_10
    2  A    between atoms: O_10  and  C_15
                            x       y       z     vdW  Elec       q    Type
                         _______ _______ _______ _____ _____    ______ ____

>  <TORSDO>
F 2

$$$$
=
 OpenBabel10272414003D

 30 33  0  0  1  0  0  0  0  0999 V2000
  189.3240  178.3000  138.7230 C   0  0  0  0  0  0  0  0  0  0  0  0
  190.8860  176.9140  137.6050 C   0  0  0  0  0  3  0  0  0  0  0  0
  187.6540  175.0100  135.3850 O   0  0  0  0  0  0  0  0  0  0  0  0
  186.5130  177.7390  138.1470 C   0  0  0  0  0  2  0  0  0  0  0  0
  189.4520  178.0350  140.0850 O   0  0  0  0  0  0  0  0  0  0  0  0
  185.9850  178.5050  141.2530 C   0  0  1  0  0  3  0  0  0  0  0  0
  187.4390  178.9150  141.0840 C   0  0  0  0  0  2  0  0  0  0  0  0
  188.7620  177.1340  142.1990 C   0  0  0  0  0  1  0  0  0  0  0  0
  186.8180  174.3470  136.3140 C   0  0  2  0  0  3  0  0  0  0  0  0
  188.3130  177.6920  140.8630 C   0  0  2  0  0  3  0  0  0  0  0  0
  185.2580  177.6280  139.0020 C   0  0  1  0  0  3  0  0  0  0  0  0
  191.3960  175.8370  136.7130 C   0  0  0  0  0  2  0  0  0  0  0  0
  184.9250  176.0380  136.3870 C   0  0  1  0  0  3  0  0  0  0  0  0
  185.3830  179.3100  142.3870 C   0  0  0  0  0  1  0  0  0  0  0  0
  188.9800  179.4480  138.3340 O   0  0  0  0  0  0  0  0  0  0  0  0
  188.6090  175.9230  135.8370 C   0  0  0  0  0  0  0  0  0  0  0  0
  191.0180  176.1450  135.3080 C   0  0  0  0  0  3  0  0  0  0  0  0
  185.2010  178.7920  139.9810 C   0  0  0  0  0  2  0  0  0  0  0  0
  189.5950  177.2440  137.7440 C   0  0  0  0  0  0  0  0  0  0  0  0
  187.1230  176.3720  137.8010 C   0  0  1  0  0  3  0  0  0  0  0  0
  185.8830  173.3800  135.6060 C   0  0  0  0  0  1  0  0  0  0  0  0
  186.0950  175.3910  137.1560 C   0  0  2  0  0  3  0  0  0  0  0  0
  184.0430  177.7280  138.0910 C   0  0  0  0  0  2  0  0  0  0  0  0
  189.7460  176.1640  134.9270 C   0  0  0  0  0  3  0  0  0  0  0  0
  188.4640  176.5160  137.0580 C   0  0  0  0  0  0  0  0  0  0  0  0
  183.7830  176.4340  137.3240 C   0  0  0  0  0  2  0  0  0  0  0  0
  185.3280  177.1050  135.5680 O   0  0  0  0  0  0  0  0  0  0  0  0
  184.5850  176.9700  134.3930 C   0  0  0  0  0  3  0  0  0  0  0  0
  183.5210  178.0480  134.3480 C   0  0  0  0  0  1  0  0  0  0  0  0
  183.9120  175.6110  134.3670 C   0  0  0  0  0  1  0  0  0  0  0  0
  1  5  1  0  0  0  0
  2 19  2  0  0  0  0
  3 16  1  0  0  0  0
  3  9  1  0  0  0  0
  4 11  1  0  0  0  0
  5 10  1  0  0  0  0
  6 14  1  1  0  0  0
  7  6  1  0  0  0  0
  9 21  1  6  0  0  0
  9 22  1  0  0  0  0
 10  7  1  0  0  0  0
 10  8  1  1  0  0  0
 11 23  1  6  0  0  0
 11 18  1  0  0  0  0
 12  2  1  0  0  0  0
 13 27  1  1  0  0  0
 13 22  1  0  0  0  0
 13 26  1  0  0  0  0
 15  1  2  0  0  0  0
 16 25  2  0  0  0  0
 17 12  1  0  0  0  0
 18  6  1  0  0  0  0
 19  1  1  0  0  0  0
 20  4  1  6  0  0  0
 22 20  1  0  0  0  0
 24 17  2  0  0  0  0
 24 16  1  0  0  0  0
 25 19  1  0  0  0  0
 25 20  1  0  0  0  0
 26 23  1  0  0  0  0
 28 27  1  0  0  0  0
 29 28  1  0  0  0  0
 30 28  1  0  0  0  0
M  END
>  <MODEL>
7

>  <REMARK>
 VINA RESULT:      -4.6      3.059      5.019
  Name = 
  2 active torsions:
  status: ('A' for Active; 'I' for Inactive)
    1  A    between atoms: C_7  and  O_10
    2  A    between atoms: O_10  and  C_15
                            x       y       z     vdW  Elec       q    Type
                         _______ _______ _______ _____ _____    ______ ____

>  <TORSDO>
F 2

$$$$
=
 OpenBabel10272414003D

 30 33  0  0  1  0  0  0  0  0999 V2000
  184.5600  175.2910  135.1430 C   0  0  0  0  0  0  0  0  0  0  0  0
  182.6520  173.9070  134.9170 C   0  0  0  0  0  3  0  0  0  0  0  0
  180.5680  176.2320  137.9590 O   0  0  0  0  0  0  0  0  0  0  0  0
  184.4090  177.2990  137.2620 C   0  0  0  0  0  2  0  0  0  0  0  0
  185.6140  174.4650  135.5310 O   0  0  0  0  0  0  0  0  0  0  0  0
  187.5750  176.7360  137.6760 C   0  0  1  0  0  3  0  0  0  0  0  0
  187.2960  175.9650  136.3970 C   0  0  0  0  0  2  0  0  0  0  0  0
  187.2250  173.5750  137.0700 C   0  0  0  0  0  1  0  0  0  0  0  0
  181.2740  176.0880  139.1770 C   0  0  2  0  0  3  0  0  0  0  0  0
  186.3890  174.7780  136.6810 C   0  0  2  0  0  3  0  0  0  0  0  0
  185.3770  177.7860  138.3330 C   0  0  1  0  0  3  0  0  0  0  0  0
  181.2980  173.3560  135.1930 C   0  0  0  0  0  2  0  0  0  0  0  0
  182.4680  178.3300  139.1820 C   0  0  1  0  0  3  0  0  0  0  0  0
  189.0440  177.1070  137.7080 C   0  0  0  0  0  1  0  0  0  0  0  0
  184.7870  176.3160  134.4460 O   0  0  0  0  0  0  0  0  0  0  0  0
  181.1560  175.8180  136.7620 C   0  0  0  0  0  0  0  0  0  0  0  0
  180.2780  174.4050  134.9270 C   0  0  0  0  0  3  0  0  0  0  0  0
  186.7490  178.0140  137.7160 C   0  0  0  0  0  2  0  0  0  0  0  0
  183.1900  174.9630  135.5410 C   0  0  0  0  0  0  0  0  0  0  0  0
  183.3870  176.2850  137.7980 C   0  0  1  0  0  3  0  0  0  0  0  0
  180.4340  176.5700  140.3480 C   0  0  0  0  0  1  0  0  0  0  0  0
  182.6160  176.7990  139.0530 C   0  0  2  0  0  3  0  0  0  0  0  0
  184.8780  179.1220  138.8630 C   0  0  0  0  0  2  0  0  0  0  0  0
  180.2210  175.5100  135.6610 C   0  0  0  0  0  3  0  0  0  0  0  0
  182.5130  175.7040  136.6690 C   0  0  0  0  0  0  0  0  0  0  0  0
  183.7030  178.9650  139.8240 C   0  0  0  0  0  2  0  0  0  0  0  0
  182.1240  178.9530  137.9710 O   0  0  0  0  0  0  0  0  0  0  0  0
  181.0150  179.7490  138.2680 C   0  0  0  0  0  3  0  0  0  0  0  0
  179.9880  179.6080  137.1640 C   0  0  0  0  0  1  0  0  0  0  0  0
  181.4410  181.2020  138.3630 C   0  0  0  0  0  1  0  0  0  0  0  0
  1  5  1  0  0  0  0
  1 19  1  0  0  0  0
  2 12  1  0  0  0  0
  2 19  2  0  0  0  0
  3  9  1  0  0  0  0
  5 10  1  0  0  0  0
  6 14  1  6  0  0  0
  6 18  1  0  0  0  0
  7 10  1  0  0  0  0
  7  6  1  0  0  0  0
  9 21  1  1  0  0  0
 10  8  1  6  0  0  0
 11  4  1  6  0  0  0
 11 23  1  0  0  0  0
 13 27  1  6  0  0  0
 13 26  1  0  0  0  0
 15  1  2  0  0  0  0
 16  3  1  0  0  0  0
 17 12  1  0  0  0  0
 17 24  2  0  0  0  0
 18 11  1  0  0  0  0
 19 25  1  0  0  0  0
 20  4  1  6  0  0  0
 20 22  1  0  0  0  0
 22  9  1  0  0  0  0
 22 13  1  0  0  0  0
 23 26  1  0  0  0  0
 24 16  1  0  0  0  0
 25 16  2  0  0  0  0
 25 20  1  0  0  0  0
 27 28  1  0  0  0  0
 28 30  1  0  0  0  0
 29 28  1  0  0  0  0
M  END
>  <MODEL>
8

>  <REMARK>
 VINA RESULT:      -4.3      3.439      5.926
  Name = 
  2 active torsions:
  status: ('A' for Active; 'I' for Inactive)
    1  A    between atoms: C_7  and  O_10
    2  A    between atoms: O_10  and  C_15
                            x       y       z     vdW  Elec       q    Type
                         _______ _______ _______ _____ _____    ______ ____

>  <TORSDO>
F 2

$$$$
=
 OpenBabel10272414003D

 30 33  0  0  1  0  0  0  0  0999 V2000
  184.9310  178.4250  138.9200 C   0  0  0  0  0  0  0  0  0  0  0  0
  183.1740  180.0090  138.8180 C   0  0  0  0  0  3  0  0  0  0  0  0
  180.6000  177.0730  136.8800 O   0  0  0  0  0  0  0  0  0  0  0  0
  184.3960  175.8720  137.6020 C   0  0  0  0  0  2  0  0  0  0  0  0
  185.9990  178.9610  138.2040 O   0  0  0  0  0  0  0  0  0  0  0  0
  187.5350  175.9200  136.7900 C   0  0  1  0  0  3  0  0  0  0  0  0
  187.4560  177.0880  137.7590 C   0  0  0  0  0  2  0  0  0  0  0  0
  187.5030  179.1270  136.3420 C   0  0  0  0  0  1  0  0  0  0  0  0
  181.1810  176.7380  135.6350 C   0  0  2  0  0  3  0  0  0  0  0  0
  186.6210  178.2130  137.1680 C   0  0  2  0  0  3  0  0  0  0  0  0
  185.2030  174.9630  136.6830 C   0  0  1  0  0  3  0  0  0  0  0  0
  181.8450  180.5870  138.4770 C   0  0  0  0  0  2  0  0  0  0  0  0
  182.1860  174.4970  136.2820 C   0  0  1  0  0  3  0  0  0  0  0  0
  188.9580  175.4000  136.7730 C   0  0  0  0  0  1  0  0  0  0  0  0
  185.1490  177.6610  139.8980 O   0  0  0  0  0  0  0  0  0  0  0  0
  181.3420  177.7830  137.8260 C   0  0  0  0  0  0  0  0  0  0  0  0
  180.7790  179.7980  139.1510 C   0  0  0  0  0  3  0  0  0  0  0  0
  186.6110  174.7960  137.2370 C   0  0  0  0  0  2  0  0  0  0  0  0
  183.5560  178.7560  138.5400 C   0  0  0  0  0  0  0  0  0  0  0  0
  183.4060  176.7660  136.8390 C   0  0  1  0  0  3  0  0  0  0  0  0
  180.1860  176.0000  134.7540 C   0  0  0  0  0  1  0  0  0  0  0  0
  182.4680  175.9620  135.8860 C   0  0  2  0  0  3  0  0  0  0  0  0
  184.5460  173.5910  136.6630 C   0  0  0  0  0  2  0  0  0  0  0  0
  180.5580  178.5290  138.8300 C   0  0  0  0  0  3  0  0  0  0  0  0
  182.7060  177.7700  137.7740 C   0  0  0  0  0  0  0  0  0  0  0  0
  183.2920  173.5580  135.7950 C   0  0  0  0  0  2  0  0  0  0  0  0
  181.9250  174.3390  137.6520 O   0  0  0  0  0  0  0  0  0  0  0  0
  180.6240  173.8340  137.7240 C   0  0  0  0  0  3  0  0  0  0  0  0
  179.9820  174.2890  139.0180 C   0  0  0  0  0  1  0  0  0  0  0  0
  180.6630  172.3180  137.6990 C   0  0  0  0  0  1  0  0  0  0  0  0
  1 15  2  0  0  0  0
  3 16  1  0  0  0  0
  5  1  1  0  0  0  0
  6 14  1  1  0  0  0
  6 18  1  0  0  0  0
  6  7  1  0  0  0  0
  9 21  1  6  0  0  0
  9 22  1  0  0  0  0
  9  3  1  0  0  0  0
 10  8  1  1  0  0  0
 10  7  1  0  0  0  0
 10  5  1  0  0  0  0
 11 23  1  1  0  0  0
 11 18  1  0  0  0  0
 11  4  1  0  0  0  0
 12  2  1  0  0  0  0
 12 17  1  0  0  0  0
 13 27  1  1  0  0  0
 16 24  1  0  0  0  0
 19  2  2  0  0  0  0
 19  1  1  0  0  0  0
 20  4  1  1  0  0  0
 20 25  1  0  0  0  0
 22 13  1  0  0  0  0
 22 20  1  0  0  0  0
 24 17  2  0  0  0  0
 25 16  2  0  0  0  0
 25 19  1  0  0  0  0
 26 13  1  0  0  0  0
 26 23  1  0  0  0  0
 27 28  1  0  0  0  0
 28 29  1  0  0  0  0
 30 28  1  0  0  0  0
M  END
>  <MODEL>
9

>  <REMARK>
 VINA RESULT:      -4.2      3.517      6.305
  Name = 
  2 active torsions:
  status: ('A' for Active; 'I' for Inactive)
    1  A    between atoms: C_7  and  O_10
    2  A    between atoms: O_10  and  C_15
                            x       y       z     vdW  Elec       q    Type
                         _______ _______ _______ _____ _____    ______ ____

>  <TORSDO>
F 2

$$$$
