=
 OpenBabel10272413123D

 32 37  0  0  1  0  0  0  0  0999 V2000
  186.6490  178.3900  143.5730 C   0  0  0  0  0  0  0  0  0  0  0  0
  186.5810  178.8810  141.2590 N   0  0  0  0  0  0  0  0  0  0  0  0
  185.8790  178.0170  144.8200 C   0  0  0  0  0  2  0  0  0  0  0  0
  185.9730  178.8190  142.5100 C   0  0  0  0  0  0  0  0  0  0  0  0
  185.5350  178.8440  140.3170 C   0  0  0  0  0  0  0  0  0  0  0  0
  189.7170  177.5940  137.7790 C   0  0  0  0  0  3  0  0  0  0  0  0
  187.8600  178.3380  140.9970 C   0  0  0  0  0  0  0  0  0  0  0  0
  187.3870  178.0530  137.2780 C   0  0  0  0  0  3  0  0  0  0  0  0
  187.1280  178.2610  138.6350 C   0  0  0  0  0  0  0  0  0  0  0  0
  184.5570  178.8850  142.4310 N   0  0  0  0  0  0  0  0  0  0  0  0
  185.7740  178.5380  139.0740 N   0  0  0  0  0  0  0  0  0  0  0  0
  183.7190  178.4880  143.5610 C   0  0  0  0  0  2  0  0  0  0  0  0
  188.5980  177.9360  142.0440 C   0  0  0  0  0  3  0  0  0  0  0  0
  188.0520  178.0420  143.3870 N   0  0  0  0  0  0  0  0  0  0  0  0
  188.1870  178.1250  139.5760 C   0  0  0  0  0  0  0  0  0  0  0  0
  184.1830  178.8760  141.0020 C   0  0  2  0  0  3  0  0  0  0  0  0
  184.4920  178.6890  144.8740 C   0  0  0  0  0  2  0  0  0  0  0  0
  188.6790  177.7260  136.8520 C   0  0  0  0  0  3  0  0  0  0  0  0
  189.4740  177.7890  139.1420 C   0  0  0  0  0  3  0  0  0  0  0  0
  190.8030  176.4860  145.4250 C   0  0  0  0  0  0  0  0  0  0  0  0
  191.9410  175.7040  145.2670 O   0  0  0  0  0  1  0  0  0  0  0  0
  188.5140  178.0480  145.7920 C   0  0  0  0  0  3  0  0  0  0  0  0
  190.4370  176.9060  146.7060 C   0  0  0  0  0  3  0  0  0  0  0  0
  188.8720  177.6460  144.4980 C   0  0  0  0  0  0  0  0  0  0  0  0
  190.0220  176.8480  144.3140 C   0  0  0  0  0  0  0  0  0  0  0  0
  190.3970  176.3420  142.9570 C   0  0  0  0  0  1  0  0  0  0  0  0
  189.2900  177.6840  146.8940 C   0  0  0  0  0  0  0  0  0  0  0  0
  187.9400  177.5710  148.8460 O   0  0  0  0  0  0  0  0  0  0  0  0
  188.8880  178.1280  148.2310 C   0  0  0  0  0  3  0  0  0  0  0  0
  183.3930  177.6140  140.6750 C   0  0  0  0  0  2  0  0  0  0  0  0
  182.2540  177.9430  139.8350 N   0  0  0  0  0  2  0  0  0  0  0  0
  181.3450  178.7220  140.6530 C   0  0  0  0  0  1  0  0  0  0  0  0
  1  3  1  0  0  0  0
  2  4  1  0  0  0  0
  3 17  1  0  0  0  0
  4  1  2  0  0  0  0
  5 16  1  0  0  0  0
  5  2  1  0  0  0  0
  6 19  1  0  0  0  0
  7  2  1  0  0  0  0
  7 13  2  0  0  0  0
  8  9  2  0  0  0  0
  9 11  1  0  0  0  0
  9 15  1  0  0  0  0
 10  4  1  0  0  0  0
 10 12  1  0  0  0  0
 11  5  2  0  0  0  0
 12 17  1  0  0  0  0
 13 14  1  0  0  0  0
 14  1  1  0  0  0  0
 14 24  1  0  0  0  0
 15  7  1  0  0  0  0
 16 30  1  1  0  0  0
 16 10  1  0  0  0  0
 18  8  1  0  0  0  0
 18  6  2  0  0  0  0
 19 15  2  0  0  0  0
 20 23  1  0  0  0  0
 21 20  1  0  0  0  0
 22 27  1  0  0  0  0
 23 27  2  0  0  0  0
 24 22  2  0  0  0  0
 25 24  1  0  0  0  0
 25 20  2  0  0  0  0
 26 25  1  0  0  0  0
 27 29  1  0  0  0  0
 29 28  2  0  0  0  0
 31 32  1  0  0  0  0
 31 30  1  0  0  0  0
M  END
>  <MODEL>
1

>  <REMARK>
 VINA RESULT:      -9.9      0.000      0.000
  Name = 
  4 active torsions:
  status: ('A' for Active; 'I' for Inactive)
    1  A    between atoms: N_13  and  C_18
    2  A    between atoms: C_15  and  C_26
    3  A    between atoms: C_18  and  C_29
    4  A    between atoms: C_20  and  N_27
                            x       y       z     vdW  Elec       q    Type
                         _______ _______ _______ _____ _____    ______ ____

>  <TORSDO>
F 4

$$$$
=
 OpenBabel10272413123D

 32 37  0  0  1  0  0  0  0  0999 V2000
  185.5520  178.6140  139.5460 C   0  0  0  0  0  0  0  0  0  0  0  0
  186.4840  178.8570  141.7080 N   0  0  0  0  0  0  0  0  0  0  0  0
  185.7190  178.0870  138.1380 C   0  0  0  0  0  2  0  0  0  0  0  0
  186.6230  178.6780  140.3340 C   0  0  0  0  0  0  0  0  0  0  0  0
  187.6700  178.3650  142.2850 C   0  0  0  0  0  0  0  0  0  0  0  0
  184.2830  178.5320  146.0260 C   0  0  0  0  0  3  0  0  0  0  0  0
  185.2350  178.8010  142.3690 C   0  0  0  0  0  0  0  0  0  0  0  0
  186.6510  178.0650  145.7730 C   0  0  0  0  0  3  0  0  0  0  0  0
  186.5530  178.2710  144.3940 C   0  0  0  0  0  0  0  0  0  0  0  0
  187.9150  178.2150  139.9730 N   0  0  0  0  0  0  0  0  0  0  0  0
  187.7160  178.0690  143.5530 N   0  0  0  0  0  0  0  0  0  0  0  0
  188.1680  177.6310  138.6570 C   0  0  0  0  0  2  0  0  0  0  0  0
  184.1250  178.7830  141.6140 C   0  0  0  0  0  3  0  0  0  0  0  0
  184.2450  178.7890  140.1650 N   0  0  0  0  0  0  0  0  0  0  0  0
  185.2910  178.6090  143.8280 C   0  0  0  0  0  0  0  0  0  0  0  0
  188.6670  177.9550  141.2190 C   0  0  2  0  0  3  0  0  0  0  0  0
  187.1730  178.2060  137.6360 C   0  0  0  0  0  2  0  0  0  0  0  0
  185.5220  178.2000  146.5860 C   0  0  0  0  0  3  0  0  0  0  0  0
  184.1640  178.7330  144.6480 C   0  0  0  0  0  3  0  0  0  0  0  0
  181.1340  177.6970  138.3560 C   0  0  0  0  0  0  0  0  0  0  0  0
  180.3880  176.5510  138.1050 O   0  0  0  0  0  1  0  0  0  0  0  0
  182.6110  180.0240  138.8240 C   0  0  0  0  0  3  0  0  0  0  0  0
  180.7090  178.9170  137.8250 C   0  0  0  0  0  3  0  0  0  0  0  0
  183.0460  178.8110  139.3740 C   0  0  0  0  0  0  0  0  0  0  0  0
  182.3060  177.6340  139.1290 C   0  0  0  0  0  0  0  0  0  0  0  0
  182.7770  176.3100  139.6420 C   0  0  0  0  0  1  0  0  0  0  0  0
  181.4470  180.0830  138.0540 C   0  0  0  0  0  0  0  0  0  0  0  0
  181.4310  182.4580  137.9840 O   0  0  0  0  0  0  0  0  0  0  0  0
  181.0200  181.3700  137.4990 C   0  0  0  0  0  3  0  0  0  0  0  0
  188.9880  176.4690  141.3360 C   0  0  0  0  0  2  0  0  0  0  0  0
  190.3950  176.2880  141.6460 N   0  0  0  0  0  2  0  0  0  0  0  0
  190.4590  175.7570  142.9940 C   0  0  0  0  0  1  0  0  0  0  0  0
  1 14  1  0  0  0  0
  1  4  2  0  0  0  0
  2  5  1  0  0  0  0
  2  7  1  0  0  0  0
  3  1  1  0  0  0  0
  4  2  1  0  0  0  0
  5 11  2  0  0  0  0
  6 18  1  0  0  0  0
  7 15  1  0  0  0  0
  8 18  2  0  0  0  0
  9  8  1  0  0  0  0
 10  4  1  0  0  0  0
 10 16  1  0  0  0  0
 11  9  1  0  0  0  0
 12 10  1  0  0  0  0
 13  7  2  0  0  0  0
 14 13  1  0  0  0  0
 15  9  2  0  0  0  0
 15 19  1  0  0  0  0
 16 30  1  1  0  0  0
 16  5  1  0  0  0  0
 17  3  1  0  0  0  0
 17 12  1  0  0  0  0
 19  6  2  0  0  0  0
 20 25  1  0  0  0  0
 21 20  1  0  0  0  0
 22 24  1  0  0  0  0
 23 27  1  0  0  0  0
 23 20  2  0  0  0  0
 24 14  1  0  0  0  0
 25 24  2  0  0  0  0
 25 26  1  0  0  0  0
 27 22  2  0  0  0  0
 29 28  2  0  0  0  0
 29 27  1  0  0  0  0
 30 31  1  0  0  0  0
 31 32  1  0  0  0  0
M  END
>  <MODEL>
2

>  <REMARK>
 VINA RESULT:      -9.6      3.768      8.343
  Name = 
  4 active torsions:
  status: ('A' for Active; 'I' for Inactive)
    1  A    between atoms: N_13  and  C_18
    2  A    between atoms: C_15  and  C_26
    3  A    between atoms: C_18  and  C_29
    4  A    between atoms: C_20  and  N_27
                            x       y       z     vdW  Elec       q    Type
                         _______ _______ _______ _____ _____    ______ ____

>  <TORSDO>
F 4

$$$$
=
 OpenBabel10272413123D

 32 37  0  0  1  0  0  0  0  0999 V2000
  186.1530  178.3520  141.8180 C   0  0  0  0  0  0  0  0  0  0  0  0
  187.4000  178.4140  139.8070 N   0  0  0  0  0  0  0  0  0  0  0  0
  184.8000  178.1890  142.4740 C   0  0  0  0  0  2  0  0  0  0  0  0
  186.2040  178.5620  140.5050 C   0  0  0  0  0  0  0  0  0  0  0  0
  187.0410  178.1770  138.4670 C   0  0  0  0  0  0  0  0  0  0  0  0
  191.8210  176.6120  138.9090 C   0  0  0  0  0  3  0  0  0  0  0  0
  188.5690  177.8710  140.3900 C   0  0  0  0  0  0  0  0  0  0  0  0
  190.1880  176.9050  137.1380 C   0  0  0  0  0  3  0  0  0  0  0  0
  189.2450  177.3470  138.0690 C   0  0  0  0  0  0  0  0  0  0  0  0
  185.0720  178.5720  139.6480 N   0  0  0  0  0  0  0  0  0  0  0  0
  187.8980  177.6590  137.6340 N   0  0  0  0  0  0  0  0  0  0  0  0
  183.7250  178.3610  140.1750 C   0  0  0  0  0  2  0  0  0  0  0  0
  188.5800  177.6860  141.7200 C   0  0  0  0  0  3  0  0  0  0  0  0
  187.3970  178.0170  142.4980 N   0  0  0  0  0  0  0  0  0  0  0  0
  189.6030  177.4140  139.4450 C   0  0  0  0  0  0  0  0  0  0  0  0
  185.5420  178.2940  138.2750 C   0  0  2  0  0  3  0  0  0  0  0  0
  183.6650  178.8180  141.6410 C   0  0  0  0  0  2  0  0  0  0  0  0
  191.4730  176.5440  137.5560 C   0  0  0  0  0  3  0  0  0  0  0  0
  190.8870  177.0430  139.8560 C   0  0  0  0  0  3  0  0  0  0  0  0
  188.6010  177.2040  145.9670 C   0  0  0  0  0  0  0  0  0  0  0  0
  189.7220  176.7090  146.6230 O   0  0  0  0  0  1  0  0  0  0  0  0
  186.3180  178.1890  144.6890 C   0  0  0  0  0  3  0  0  0  0  0  0
  187.4740  177.5550  146.7140 C   0  0  0  0  0  3  0  0  0  0  0  0
  187.4430  177.8520  143.9250 C   0  0  0  0  0  0  0  0  0  0  0  0
  188.5920  177.3440  144.5690 C   0  0  0  0  0  0  0  0  0  0  0  0
  189.7860  176.9100  143.7800 C   0  0  0  0  0  1  0  0  0  0  0  0
  186.3280  178.0450  146.0780 C   0  0  0  0  0  0  0  0  0  0  0  0
  184.1040  178.8560  146.2750 O   0  0  0  0  0  0  0  0  0  0  0  0
  185.1360  178.4120  146.8450 C   0  0  0  0  0  3  0  0  0  0  0  0
  184.9670  176.9700  137.7820 C   0  0  0  0  0  2  0  0  0  0  0  0
  184.1410  177.1930  136.6080 N   0  0  0  0  0  2  0  0  0  0  0  0
  185.0080  177.0440  135.4550 C   0  0  0  0  0  1  0  0  0  0  0  0
  1  3  1  0  0  0  0
  1 14  1  0  0  0  0
  2  7  1  0  0  0  0
  2  4  1  0  0  0  0
  4  1  2  0  0  0  0
  5  2  1  0  0  0  0
  6 19  1  0  0  0  0
  7 13  2  0  0  0  0
  8 18  1  0  0  0  0
  8  9  2  0  0  0  0
  9 15  1  0  0  0  0
 10 12  1  0  0  0  0
 10  4  1  0  0  0  0
 11  9  1  0  0  0  0
 11  5  2  0  0  0  0
 12 17  1  0  0  0  0
 13 14  1  0  0  0  0
 14 24  1  0  0  0  0
 15 19  2  0  0  0  0
 15  7  1  0  0  0  0
 16 30  1  1  0  0  0
 16  5  1  0  0  0  0
 16 10  1  0  0  0  0
 17  3  1  0  0  0  0
 18  6  2  0  0  0  0
 20 21  1  0  0  0  0
 20 23  1  0  0  0  0
 22 27  1  0  0  0  0
 24 25  1  0  0  0  0
 24 22  2  0  0  0  0
 25 20  2  0  0  0  0
 26 25  1  0  0  0  0
 27 23  2  0  0  0  0
 27 29  1  0  0  0  0
 28 29  2  0  0  0  0
 31 30  1  0  0  0  0
 32 31  1  0  0  0  0
M  END
>  <MODEL>
3

>  <REMARK>
 VINA RESULT:      -9.3      1.818      2.866
  Name = 
  4 active torsions:
  status: ('A' for Active; 'I' for Inactive)
    1  A    between atoms: N_13  and  C_18
    2  A    between atoms: C_15  and  C_26
    3  A    between atoms: C_18  and  C_29
    4  A    between atoms: C_20  and  N_27
                            x       y       z     vdW  Elec       q    Type
                         _______ _______ _______ _____ _____    ______ ____

>  <TORSDO>
F 4

$$$$
=
 OpenBabel10272413123D

 32 37  0  0  1  0  0  0  0  0999 V2000
  185.2190  178.3710  139.4690 C   0  0  0  0  0  0  0  0  0  0  0  0
  186.4180  178.7450  141.4740 N   0  0  0  0  0  0  0  0  0  0  0  0
  185.2390  177.8440  138.0510 C   0  0  0  0  0  2  0  0  0  0  0  0
  186.3780  178.5620  140.0950 C   0  0  0  0  0  0  0  0  0  0  0  0
  187.7210  178.3910  141.8750 C   0  0  0  0  0  0  0  0  0  0  0  0
  184.9050  178.2490  146.0640 C   0  0  0  0  0  3  0  0  0  0  0  0
  185.2900  178.5650  142.3080 C   0  0  0  0  0  0  0  0  0  0  0  0
  187.2490  178.0350  145.4720 C   0  0  0  0  0  3  0  0  0  0  0  0
  186.9330  178.2090  144.1230 C   0  0  0  0  0  0  0  0  0  0  0  0
  187.6480  178.2350  139.5520 N   0  0  0  0  0  0  0  0  0  0  0  0
  187.9790  178.1200  143.1230 N   0  0  0  0  0  0  0  0  0  0  0  0
  187.7710  177.6620  138.2120 C   0  0  0  0  0  2  0  0  0  0  0  0
  184.0920  178.4160  141.7200 C   0  0  0  0  0  3  0  0  0  0  0  0
  184.0030  178.4150  140.2690 N   0  0  0  0  0  0  0  0  0  0  0  0
  185.5740  178.4010  143.7440 C   0  0  0  0  0  0  0  0  0  0  0  0
  188.5930  178.0750  140.6760 C   0  0  2  0  0  3  0  0  0  0  0  0
  186.5840  178.1120  137.3460 C   0  0  0  0  0  2  0  0  0  0  0  0
  186.2400  178.0600  146.4400 C   0  0  0  0  0  3  0  0  0  0  0  0
  184.5700  178.4160  144.7170 C   0  0  0  0  0  3  0  0  0  0  0  0
  180.8620  179.2130  138.3590 C   0  0  0  0  0  0  0  0  0  0  0  0
  180.2760  180.2560  137.6510 O   0  0  0  0  0  1  0  0  0  0  0  0
  181.9980  177.0940  139.7870 C   0  0  0  0  0  3  0  0  0  0  0  0
  180.1750  178.0040  138.4860 C   0  0  0  0  0  3  0  0  0  0  0  0
  182.7070  178.2960  139.6590 C   0  0  0  0  0  0  0  0  0  0  0  0
  182.1290  179.3700  138.9470 C   0  0  0  0  0  0  0  0  0  0  0  0
  182.8270  180.6900  138.8490 C   0  0  0  0  0  1  0  0  0  0  0  0
  180.7380  176.9430  139.2030 C   0  0  0  0  0  0  0  0  0  0  0  0
  180.3660  174.8330  140.2320 O   0  0  0  0  0  0  0  0  0  0  0  0
  180.0280  175.6700  139.3530 C   0  0  0  0  0  3  0  0  0  0  0  0
  189.0870  176.6340  140.7450 C   0  0  0  0  0  2  0  0  0  0  0  0
  190.4800  176.5650  140.3400 N   0  0  0  0  0  2  0  0  0  0  0  0
  191.2380  177.3110  141.3260 C   0  0  0  0  0  1  0  0  0  0  0  0
  1  4  2  0  0  0  0
  1 14  1  0  0  0  0
  2  5  1  0  0  0  0
  2  7  1  0  0  0  0
  3  1  1  0  0  0  0
  4  2  1  0  0  0  0
  5 11  2  0  0  0  0
  6 18  1  0  0  0  0
  7 15  1  0  0  0  0
  8 18  2  0  0  0  0
  9  8  1  0  0  0  0
 10  4  1  0  0  0  0
 10 16  1  0  0  0  0
 11  9  1  0  0  0  0
 12 10  1  0  0  0  0
 13  7  2  0  0  0  0
 14 13  1  0  0  0  0
 15  9  2  0  0  0  0
 15 19  1  0  0  0  0
 16 30  1  1  0  0  0
 16  5  1  0  0  0  0
 17  3  1  0  0  0  0
 17 12  1  0  0  0  0
 19  6  2  0  0  0  0
 20 23  2  0  0  0  0
 20 25  1  0  0  0  0
 21 20  1  0  0  0  0
 23 27  1  0  0  0  0
 24 22  1  0  0  0  0
 24 14  1  0  0  0  0
 25 24  2  0  0  0  0
 26 25  1  0  0  0  0
 27 29  1  0  0  0  0
 27 22  2  0  0  0  0
 29 28  2  0  0  0  0
 31 30  1  0  0  0  0
 31 32  1  0  0  0  0
M  END
>  <MODEL>
4

>  <REMARK>
 VINA RESULT:      -9.1      3.667      8.261
  Name = 
  4 active torsions:
  status: ('A' for Active; 'I' for Inactive)
    1  A    between atoms: N_13  and  C_18
    2  A    between atoms: C_15  and  C_26
    3  A    between atoms: C_18  and  C_29
    4  A    between atoms: C_20  and  N_27
                            x       y       z     vdW  Elec       q    Type
                         _______ _______ _______ _____ _____    ______ ____

>  <TORSDO>
F 4

$$$$
=
 OpenBabel10272413123D

 32 37  0  0  1  0  0  0  0  0999 V2000
  185.7230  178.5020  142.2130 C   0  0  0  0  0  0  0  0  0  0  0  0
  186.5420  178.6230  139.9960 N   0  0  0  0  0  0  0  0  0  0  0  0
  184.5310  178.2990  143.1220 C   0  0  0  0  0  2  0  0  0  0  0  0
  185.5060  178.7340  140.9200 C   0  0  0  0  0  0  0  0  0  0  0  0
  185.9270  178.4010  138.7490 C   0  0  0  0  0  0  0  0  0  0  0  0
  190.7250  176.9290  138.1980 C   0  0  0  0  0  3  0  0  0  0  0  0
  187.8120  178.0950  140.3230 C   0  0  0  0  0  0  0  0  0  0  0  0
  188.7670  177.2170  136.7940 C   0  0  0  0  0  3  0  0  0  0  0  0
  188.0210  177.6230  137.9030 C   0  0  0  0  0  0  0  0  0  0  0  0
  184.2270  178.7340  140.3060 N   0  0  0  0  0  0  0  0  0  0  0  0
  186.6090  177.9150  137.7510 N   0  0  0  0  0  0  0  0  0  0  0  0
  183.0160  178.4860  141.0870 C   0  0  0  0  0  2  0  0  0  0  0  0
  188.0920  177.8890  141.6190 C   0  0  0  0  0  3  0  0  0  0  0  0
  187.0830  178.1820  142.6240 N   0  0  0  0  0  0  0  0  0  0  0  0
  188.6450  177.6760  139.1820 C   0  0  0  0  0  0  0  0  0  0  0  0
  184.4180  178.4890  138.8620 C   0  0  2  0  0  3  0  0  0  0  0  0
  183.2420  178.9180  142.5440 C   0  0  0  0  0  2  0  0  0  0  0  0
  190.1160  176.8770  136.9400 C   0  0  0  0  0  3  0  0  0  0  0  0
  189.9920  177.3250  139.3200 C   0  0  0  0  0  3  0  0  0  0  0  0
  188.9800  177.3700  145.7690 C   0  0  0  0  0  0  0  0  0  0  0  0
  190.2300  176.9210  146.1790 O   0  0  0  0  0  1  0  0  0  0  0  0
  186.4480  178.2600  144.9880 C   0  0  0  0  0  3  0  0  0  0  0  0
  188.0070  177.6510  146.7300 C   0  0  0  0  0  3  0  0  0  0  0  0
  187.4150  177.9940  144.0090 C   0  0  0  0  0  0  0  0  0  0  0  0
  188.6910  177.5340  144.4030 C   0  0  0  0  0  0  0  0  0  0  0  0
  189.7250  177.1750  143.3850 C   0  0  0  0  0  1  0  0  0  0  0  0
  186.7370  178.0920  146.3430 C   0  0  0  0  0  0  0  0  0  0  0  0
  184.4830  178.4080  147.0240 O   0  0  0  0  0  0  0  0  0  0  0  0
  185.7020  178.3850  147.3380 C   0  0  0  0  0  3  0  0  0  0  0  0
  183.7790  177.1620  138.4660 C   0  0  0  0  0  2  0  0  0  0  0  0
  183.0200  177.3210  137.2380 N   0  0  0  0  0  2  0  0  0  0  0  0
  182.1540  178.4680  137.4300 C   0  0  0  0  0  1  0  0  0  0  0  0
  1 14  1  0  0  0  0
  1  3  1  0  0  0  0
  2  7  1  0  0  0  0
  2  4  1  0  0  0  0
  4  1  2  0  0  0  0
  5 16  1  0  0  0  0
  5  2  1  0  0  0  0
  6 19  1  0  0  0  0
  7 13  2  0  0  0  0
  8 18  1  0  0  0  0
  8  9  2  0  0  0  0
  9 15  1  0  0  0  0
 10  4  1  0  0  0  0
 10 12  1  0  0  0  0
 11  9  1  0  0  0  0
 11  5  2  0  0  0  0
 12 17  1  0  0  0  0
 13 14  1  0  0  0  0
 14 24  1  0  0  0  0
 15 19  2  0  0  0  0
 15  7  1  0  0  0  0
 16 30  1  1  0  0  0
 16 10  1  0  0  0  0
 17  3  1  0  0  0  0
 18  6  2  0  0  0  0
 20 21  1  0  0  0  0
 20 23  1  0  0  0  0
 22 27  1  0  0  0  0
 24 25  1  0  0  0  0
 24 22  2  0  0  0  0
 25 20  2  0  0  0  0
 26 25  1  0  0  0  0
 27 23  2  0  0  0  0
 27 29  1  0  0  0  0
 28 29  2  0  0  0  0
 31 32  1  0  0  0  0
 31 30  1  0  0  0  0
M  END
>  <MODEL>
5

>  <REMARK>
 VINA RESULT:      -8.9      1.624      2.078
  Name = 
  4 active torsions:
  status: ('A' for Active; 'I' for Inactive)
    1  A    between atoms: N_13  and  C_18
    2  A    between atoms: C_15  and  C_26
    3  A    between atoms: C_18  and  C_29
    4  A    between atoms: C_20  and  N_27
                            x       y       z     vdW  Elec       q    Type
                         _______ _______ _______ _____ _____    ______ ____

>  <TORSDO>
F 4

$$$$
=
 OpenBabel10272413123D

 32 37  0  0  1  0  0  0  0  0999 V2000
  187.8030  177.6620  141.3250 C   0  0  0  0  0  0  0  0  0  0  0  0
  187.2580  177.3220  143.6030 N   0  0  0  0  0  0  0  0  0  0  0  0
  187.4480  178.3310  140.0160 C   0  0  0  0  0  2  0  0  0  0  0  0
  186.8940  177.6400  142.2970 C   0  0  0  0  0  0  0  0  0  0  0  0
  186.2660  177.8830  144.4300 C   0  0  0  0  0  0  0  0  0  0  0  0
  190.2310  177.0120  147.4330 C   0  0  0  0  0  3  0  0  0  0  0  0
  188.6040  177.1830  144.0150 C   0  0  0  0  0  0  0  0  0  0  0  0
  187.9320  177.7510  147.6700 C   0  0  0  0  0  3  0  0  0  0  0  0
  187.7510  177.6620  146.2880 C   0  0  0  0  0  0  0  0  0  0  0  0
  185.6240  178.2690  142.2240 N   0  0  0  0  0  0  0  0  0  0  0  0
  186.4880  178.0640  145.7010 N   0  0  0  0  0  0  0  0  0  0  0  0
  185.2090  178.9950  141.0250 C   0  0  0  0  0  2  0  0  0  0  0  0
  189.5520  177.1520  143.0650 C   0  0  0  0  0  3  0  0  0  0  0  0
  189.1690  177.2920  141.6690 N   0  0  0  0  0  0  0  0  0  0  0  0
  188.8380  177.2450  145.4680 C   0  0  0  0  0  0  0  0  0  0  0  0
  185.1490  178.4930  143.6060 C   0  0  2  0  0  3  0  0  0  0  0  0
  185.9240  178.4140  139.7950 C   0  0  0  0  0  2  0  0  0  0  0  0
  189.1650  177.4220  148.2410 C   0  0  0  0  0  3  0  0  0  0  0  0
  190.0710  176.9270  146.0460 C   0  0  0  0  0  3  0  0  0  0  0  0
  192.5310  177.2780  139.9810 C   0  0  0  0  0  0  0  0  0  0  0  0
  193.8800  177.4210  140.2820 O   0  0  0  0  0  1  0  0  0  0  0  0
  189.8270  176.9990  139.3280 C   0  0  0  0  0  3  0  0  0  0  0  0
  192.1470  177.0500  138.6570 C   0  0  0  0  0  3  0  0  0  0  0  0
  190.1930  177.2140  140.6640 C   0  0  0  0  0  0  0  0  0  0  0  0
  191.5580  177.3660  140.9920 C   0  0  0  0  0  0  0  0  0  0  0  0
  191.9810  177.6670  142.3940 C   0  0  0  0  0  1  0  0  0  0  0  0
  190.7950  176.9140  138.3260 C   0  0  0  0  0  0  0  0  0  0  0  0
  189.2280  177.0160  136.5430 O   0  0  0  0  0  0  0  0  0  0  0  0
  190.3750  176.6810  136.9420 C   0  0  0  0  0  3  0  0  0  0  0  0
  185.0390  179.9870  143.8870 C   0  0  0  0  0  2  0  0  0  0  0  0
  183.6490  180.3530  144.0960 N   0  0  0  0  0  2  0  0  0  0  0  0
  182.9470  179.1350  144.4530 C   0  0  0  0  0  1  0  0  0  0  0  0
  1 14  1  0  0  0  0
  1  4  2  0  0  0  0
  2  7  1  0  0  0  0
  2  5  1  0  0  0  0
  3  1  1  0  0  0  0
  4  2  1  0  0  0  0
  5 11  2  0  0  0  0
  6 18  1  0  0  0  0
  7 15  1  0  0  0  0
  8 18  2  0  0  0  0
  9  8  1  0  0  0  0
 10  4  1  0  0  0  0
 10 16  1  0  0  0  0
 11  9  1  0  0  0  0
 12 10  1  0  0  0  0
 13  7  2  0  0  0  0
 14 13  1  0  0  0  0
 15 19  1  0  0  0  0
 15  9  2  0  0  0  0
 16 30  1  1  0  0  0
 16  5  1  0  0  0  0
 17  3  1  0  0  0  0
 17 12  1  0  0  0  0
 19  6  2  0  0  0  0
 20 21  1  0  0  0  0
 20 25  1  0  0  0  0
 22 24  1  0  0  0  0
 23 20  2  0  0  0  0
 24 25  2  0  0  0  0
 24 14  1  0  0  0  0
 25 26  1  0  0  0  0
 27 23  1  0  0  0  0
 27 22  2  0  0  0  0
 28 29  2  0  0  0  0
 29 27  1  0  0  0  0
 30 31  1  0  0  0  0
 31 32  1  0  0  0  0
M  END
>  <MODEL>
6

>  <REMARK>
 VINA RESULT:      -8.5      2.676      6.330
  Name = 
  4 active torsions:
  status: ('A' for Active; 'I' for Inactive)
    1  A    between atoms: N_13  and  C_18
    2  A    between atoms: C_15  and  C_26
    3  A    between atoms: C_18  and  C_29
    4  A    between atoms: C_20  and  N_27
                            x       y       z     vdW  Elec       q    Type
                         _______ _______ _______ _____ _____    ______ ____

>  <TORSDO>
F 4

$$$$
=
 OpenBabel10272413123D

 32 37  0  0  1  0  0  0  0  0999 V2000
  186.1700  178.4200  138.4660 C   0  0  0  0  0  0  0  0  0  0  0  0
  187.7520  178.4210  140.2270 N   0  0  0  0  0  0  0  0  0  0  0  0
  185.8510  178.0290  137.0400 C   0  0  0  0  0  2  0  0  0  0  0  0
  187.4380  178.3740  138.8710 C   0  0  0  0  0  0  0  0  0  0  0  0
  189.0280  177.8390  140.3500 C   0  0  0  0  0  0  0  0  0  0  0  0
  187.0180  177.7380  144.9800 C   0  0  0  0  0  3  0  0  0  0  0  0
  186.7760  178.3380  141.2470 C   0  0  0  0  0  0  0  0  0  0  0  0
  189.1510  177.2270  143.9420 C   0  0  0  0  0  3  0  0  0  0  0  0
  188.6340  177.5720  142.6900 C   0  0  0  0  0  0  0  0  0  0  0  0
  188.5190  177.9110  138.0770 N   0  0  0  0  0  0  0  0  0  0  0  0
  189.4550  177.4180  141.5060 N   0  0  0  0  0  0  0  0  0  0  0  0
  188.3060  177.4520  136.7060 C   0  0  0  0  0  2  0  0  0  0  0  0
  185.4850  178.4270  140.8900 C   0  0  0  0  0  3  0  0  0  0  0  0
  185.1400  178.5730  139.4840 N   0  0  0  0  0  0  0  0  0  0  0  0
  187.2800  178.0010  142.5900 C   0  0  0  0  0  0  0  0  0  0  0  0
  189.6090  177.5070  138.9890 C   0  0  2  0  0  3  0  0  0  0  0  0
  187.0750  178.1540  136.1110 C   0  0  0  0  0  2  0  0  0  0  0  0
  188.3470  177.3160  145.0830 C   0  0  0  0  0  3  0  0  0  0  0  0
  186.4810  178.0780  143.7350 C   0  0  0  0  0  3  0  0  0  0  0  0
  181.6070  177.7540  138.4850 C   0  0  0  0  0  0  0  0  0  0  0  0
  180.8050  176.6580  138.1900 O   0  0  0  0  0  1  0  0  0  0  0  0
  183.1880  179.9880  139.0570 C   0  0  0  0  0  3  0  0  0  0  0  0
  181.0560  179.0370  138.4340 C   0  0  0  0  0  3  0  0  0  0  0  0
  183.7550  178.7090  139.1260 C   0  0  0  0  0  0  0  0  0  0  0  0
  182.9600  177.5810  138.8260 C   0  0  0  0  0  0  0  0  0  0  0  0
  183.5490  176.2060  138.8210 C   0  0  0  0  0  1  0  0  0  0  0  0
  181.8450  180.1570  138.7160 C   0  0  0  0  0  0  0  0  0  0  0  0
  181.7930  182.3970  137.9250 O   0  0  0  0  0  0  0  0  0  0  0  0
  181.2850  181.5100  138.6610 C   0  0  0  0  0  3  0  0  0  0  0  0
  189.8610  176.0070  138.8730 C   0  0  0  0  0  2  0  0  0  0  0  0
  191.2890  175.7430  138.8560 N   0  0  0  0  0  2  0  0  0  0  0  0
  191.8510  176.5600  137.7970 C   0  0  0  0  0  1  0  0  0  0  0  0
  1  4  2  0  0  0  0
  1 14  1  0  0  0  0
  2  5  1  0  0  0  0
  2  7  1  0  0  0  0
  3  1  1  0  0  0  0
  4  2  1  0  0  0  0
  5 11  2  0  0  0  0
  6 18  1  0  0  0  0
  7 15  1  0  0  0  0
  8 18  2  0  0  0  0
  9  8  1  0  0  0  0
 10  4  1  0  0  0  0
 10 16  1  0  0  0  0
 11  9  1  0  0  0  0
 12 10  1  0  0  0  0
 13  7  2  0  0  0  0
 14 13  1  0  0  0  0
 15  9  2  0  0  0  0
 15 19  1  0  0  0  0
 16 30  1  1  0  0  0
 16  5  1  0  0  0  0
 17 12  1  0  0  0  0
 17  3  1  0  0  0  0
 19  6  2  0  0  0  0
 20 25  1  0  0  0  0
 21 20  1  0  0  0  0
 22 24  1  0  0  0  0
 23 20  2  0  0  0  0
 23 27  1  0  0  0  0
 24 14  1  0  0  0  0
 25 24  2  0  0  0  0
 26 25  1  0  0  0  0
 27 22  2  0  0  0  0
 28 29  2  0  0  0  0
 29 27  1  0  0  0  0
 31 30  1  0  0  0  0
 32 31  1  0  0  0  0
M  END
>  <MODEL>
7

>  <REMARK>
 VINA RESULT:      -8.5      3.832      8.121
  Name = 
  4 active torsions:
  status: ('A' for Active; 'I' for Inactive)
    1  A    between atoms: N_13  and  C_18
    2  A    between atoms: C_15  and  C_26
    3  A    between atoms: C_18  and  C_29
    4  A    between atoms: C_20  and  N_27
                            x       y       z     vdW  Elec       q    Type
                         _______ _______ _______ _____ _____    ______ ____

>  <TORSDO>
F 4

$$$$
=
 OpenBabel10272413123D

 32 37  0  0  1  0  0  0  0  0999 V2000
  189.4350  177.2890  142.7620 C   0  0  0  0  0  0  0  0  0  0  0  0
  187.6330  177.4110  141.2320 N   0  0  0  0  0  0  0  0  0  0  0  0
  190.9190  177.4550  142.9990 C   0  0  0  0  0  2  0  0  0  0  0  0
  188.9890  177.2530  141.5080 C   0  0  0  0  0  0  0  0  0  0  0  0
  187.5580  177.8480  139.8960 C   0  0  0  0  0  0  0  0  0  0  0  0
  183.1080  179.0150  141.9770 C   0  0  0  0  0  3  0  0  0  0  0  0
  186.6870  177.7920  142.2120 C   0  0  0  0  0  0  0  0  0  0  0  0
  184.1260  179.0710  139.7740 C   0  0  0  0  0  3  0  0  0  0  0  0
  185.3200  178.5740  140.3040 C   0  0  0  0  0  0  0  0  0  0  0  0
  189.8030  177.4340  140.3600 N   0  0  0  0  0  0  0  0  0  0  0  0
  186.4750  178.4130  139.4440 N   0  0  0  0  0  0  0  0  0  0  0  0
  191.2420  177.6630  140.4840 C   0  0  0  0  0  2  0  0  0  0  0  0
  187.0800  177.7970  143.4950 C   0  0  0  0  0  3  0  0  0  0  0  0
  188.4520  177.4460  143.8250 N   0  0  0  0  0  0  0  0  0  0  0  0
  185.4030  178.3000  141.6980 C   0  0  0  0  0  0  0  0  0  0  0  0
  188.9290  177.8600  139.2480 C   0  0  2  0  0  3  0  0  0  0  0  0
  191.7590  177.0200  141.7800 C   0  0  0  0  0  2  0  0  0  0  0  0
  183.0230  179.2850  140.6070 C   0  0  0  0  0  3  0  0  0  0  0  0
  184.2980  178.5260  142.5250 C   0  0  0  0  0  3  0  0  0  0  0  0
  188.3830  177.8040  147.5690 C   0  0  0  0  0  0  0  0  0  0  0  0
  187.5380  178.2250  148.5890 O   0  0  0  0  0  1  0  0  0  0  0  0
  190.1210  176.9590  145.5490 C   0  0  0  0  0  3  0  0  0  0  0  0
  189.6580  177.3320  147.8910 C   0  0  0  0  0  3  0  0  0  0  0  0
  188.8410  177.4170  145.2080 C   0  0  0  0  0  0  0  0  0  0  0  0
  187.9670  177.8540  146.2270 C   0  0  0  0  0  0  0  0  0  0  0  0
  186.6210  178.4130  145.8960 C   0  0  0  0  0  1  0  0  0  0  0  0
  190.5320  176.9130  146.8820 C   0  0  0  0  0  0  0  0  0  0  0  0
  192.3570  175.4130  146.6200 O   0  0  0  0  0  0  0  0  0  0  0  0
  191.8750  176.4220  147.2010 C   0  0  0  0  0  3  0  0  0  0  0  0
  189.2930  179.2720  138.8050 C   0  0  0  0  0  2  0  0  0  0  0  0
  188.9820  179.4490  137.3980 N   0  0  0  0  0  2  0  0  0  0  0  0
  189.3360  178.2090  136.7340 C   0  0  0  0  0  1  0  0  0  0  0  0
  1  3  1  0  0  0  0
  1 14  1  0  0  0  0
  2  4  1  0  0  0  0
  2  7  1  0  0  0  0
  4  1  2  0  0  0  0
  5  2  1  0  0  0  0
  6 19  1  0  0  0  0
  7 13  2  0  0  0  0
  8  9  2  0  0  0  0
  8 18  1  0  0  0  0
  9 15  1  0  0  0  0
 10 12  1  0  0  0  0
 10  4  1  0  0  0  0
 11  5  2  0  0  0  0
 11  9  1  0  0  0  0
 12 17  1  0  0  0  0
 13 14  1  0  0  0  0
 14 24  1  0  0  0  0
 15  7  1  0  0  0  0
 15 19  2  0  0  0  0
 16 30  1  1  0  0  0
 16  5  1  0  0  0  0
 16 10  1  0  0  0  0
 17  3  1  0  0  0  0
 18  6  2  0  0  0  0
 20 23  1  0  0  0  0
 20 21  1  0  0  0  0
 22 27  1  0  0  0  0
 24 22  2  0  0  0  0
 24 25  1  0  0  0  0
 25 20  2  0  0  0  0
 26 25  1  0  0  0  0
 27 29  1  0  0  0  0
 27 23  2  0  0  0  0
 28 29  2  0  0  0  0
 31 30  1  0  0  0  0
 32 31  1  0  0  0  0
M  END
>  <MODEL>
8

>  <REMARK>
 VINA RESULT:      -8.4      1.535      4.867
  Name = 
  4 active torsions:
  status: ('A' for Active; 'I' for Inactive)
    1  A    between atoms: N_13  and  C_18
    2  A    between atoms: C_15  and  C_26
    3  A    between atoms: C_18  and  C_29
    4  A    between atoms: C_20  and  N_27
                            x       y       z     vdW  Elec       q    Type
                         _______ _______ _______ _____ _____    ______ ____

>  <TORSDO>
F 4

$$$$
=
 OpenBabel10272413123D

 32 37  0  0  1  0  0  0  0  0999 V2000
  189.0920  177.1110  143.5930 C   0  0  0  0  0  0  0  0  0  0  0  0
  188.9620  176.8270  141.2470 N   0  0  0  0  0  0  0  0  0  0  0  0
  189.9760  177.2750  144.8090 C   0  0  0  0  0  2  0  0  0  0  0  0
  189.6460  176.7030  142.4530 C   0  0  0  0  0  0  0  0  0  0  0  0
  189.9460  176.8240  140.2400 C   0  0  0  0  0  0  0  0  0  0  0  0
  185.8090  178.7880  138.1140 C   0  0  0  0  0  3  0  0  0  0  0  0
  187.7470  177.5400  141.1210 C   0  0  0  0  0  0  0  0  0  0  0  0
  188.0300  178.1020  137.4140 C   0  0  0  0  0  3  0  0  0  0  0  0
  188.3420  177.7430  138.7280 C   0  0  0  0  0  0  0  0  0  0  0  0
  191.0350  176.4750  142.2700 N   0  0  0  0  0  0  0  0  0  0  0  0
  189.6730  177.2670  139.0460 N   0  0  0  0  0  0  0  0  0  0  0  0
  191.9820  176.6660  143.3670 C   0  0  0  0  0  2  0  0  0  0  0  0
  187.1280  177.9310  142.2470 C   0  0  0  0  0  3  0  0  0  0  0  0
  187.7360  177.6390  143.5350 N   0  0  0  0  0  0  0  0  0  0  0  0
  187.3650  177.9180  139.7490 C   0  0  0  0  0  0  0  0  0  0  0  0
  191.3220  176.5690  140.8240 C   0  0  2  0  0  3  0  0  0  0  0  0
  191.2690  176.4400  144.7100 C   0  0  0  0  0  2  0  0  0  0  0  0
  186.7660  178.6170  137.1080 C   0  0  0  0  0  3  0  0  0  0  0  0
  186.1070  178.4430  139.4350 C   0  0  0  0  0  3  0  0  0  0  0  0
  185.0320  178.7830  145.8860 C   0  0  0  0  0  0  0  0  0  0  0  0
  183.6960  179.1630  145.8760 O   0  0  0  0  0  1  0  0  0  0  0  0
  187.7260  178.0380  145.9510 C   0  0  0  0  0  3  0  0  0  0  0  0
  185.7300  178.7750  147.0960 C   0  0  0  0  0  3  0  0  0  0  0  0
  187.0390  178.0280  144.7290 C   0  0  0  0  0  0  0  0  0  0  0  0
  185.6810  178.4150  144.6950 C   0  0  0  0  0  0  0  0  0  0  0  0
  184.9350  178.4830  143.4010 C   0  0  0  0  0  1  0  0  0  0  0  0
  187.0790  178.4080  147.1320 C   0  0  0  0  0  0  0  0  0  0  0  0
  189.0480  178.0850  148.4230 O   0  0  0  0  0  0  0  0  0  0  0  0
  187.8280  178.4000  148.3910 C   0  0  0  0  0  3  0  0  0  0  0  0
  192.2420  177.7520  140.5470 C   0  0  0  0  0  2  0  0  0  0  0  0
  193.4860  177.2880  139.9580 N   0  0  0  0  0  2  0  0  0  0  0  0
  193.1320  176.5820  138.7410 C   0  0  0  0  0  1  0  0  0  0  0  0
  1  3  1  0  0  0  0
  2  4  1  0  0  0  0
  4  1  2  0  0  0  0
  5 16  1  0  0  0  0
  5  2  1  0  0  0  0
  6 19  1  0  0  0  0
  7  2  1  0  0  0  0
  7 13  2  0  0  0  0
  8  9  2  0  0  0  0
  9 11  1  0  0  0  0
  9 15  1  0  0  0  0
 10  4  1  0  0  0  0
 10 12  1  0  0  0  0
 11  5  2  0  0  0  0
 12 17  1  0  0  0  0
 13 14  1  0  0  0  0
 14  1  1  0  0  0  0
 14 24  1  0  0  0  0
 15  7  1  0  0  0  0
 16 30  1  1  0  0  0
 16 10  1  0  0  0  0
 17  3  1  0  0  0  0
 18  8  1  0  0  0  0
 18  6  2  0  0  0  0
 19 15  2  0  0  0  0
 20 23  1  0  0  0  0
 21 20  1  0  0  0  0
 22 27  1  0  0  0  0
 23 27  2  0  0  0  0
 24 22  2  0  0  0  0
 25 24  1  0  0  0  0
 25 20  2  0  0  0  0
 26 25  1  0  0  0  0
 27 29  1  0  0  0  0
 29 28  2  0  0  0  0
 31 30  1  0  0  0  0
 32 31  1  0  0  0  0
M  END
>  <MODEL>
9

>  <REMARK>
 VINA RESULT:      -8.3      2.336      5.376
  Name = 
  4 active torsions:
  status: ('A' for Active; 'I' for Inactive)
    1  A    between atoms: N_13  and  C_18
    2  A    between atoms: C_15  and  C_26
    3  A    between atoms: C_18  and  C_29
    4  A    between atoms: C_20  and  N_27
                            x       y       z     vdW  Elec       q    Type
                         _______ _______ _______ _____ _____    ______ ____

>  <TORSDO>
F 4

$$$$
