=
 OpenBabel10272414053D

 43 48  0  0  1  0  0  0  0  0999 V2000
  188.1980  177.4170  148.2630 N   0  0  0  0  0  0  0  0  0  0  0  0
  186.4120  178.3690  143.5930 C   0  0  0  0  0  0  0  0  0  0  0  0
  188.5320  177.9600  141.8770 C   0  0  0  0  0  0  0  0  0  0  0  0
  186.7750  177.9010  146.3330 C   0  0  0  0  0  0  0  0  0  0  0  0
  188.9950  176.5680  147.3680 C   0  0  0  0  0  2  0  0  0  0  0  0
  188.8340  178.6060  148.3940 O   0  0  0  0  0  1  0  0  0  0  0  0
  187.8330  177.6620  145.4430 C   0  0  0  0  0  0  0  0  0  0  0  0
  186.9520  177.6640  147.7020 O   0  0  0  0  0  0  0  0  0  0  0  0
  189.1570  177.2070  145.9860 C   0  0  0  0  0  2  0  0  0  0  0  0
  188.6830  177.7170  143.2040 N   0  0  0  0  0  0  0  0  0  0  0  0
  187.6590  177.9080  144.0730 C   0  0  0  0  0  0  0  0  0  0  0  0
  185.3590  178.5840  144.4910 C   0  0  0  0  0  3  0  0  0  0  0  0
  186.2760  178.6120  142.2180 C   0  0  0  0  0  0  0  0  0  0  0  0
  187.3440  178.4060  141.3940 N   0  0  0  0  0  0  0  0  0  0  0  0
  185.5400  178.3480  145.8560 C   0  0  0  0  0  3  0  0  0  0  0  0
  185.0300  179.0790  141.6840 N   0  0  0  0  0  2  0  0  0  0  0  0
  183.5830  177.7980  138.4340 C   0  0  0  0  0  2  0  0  0  0  0  0
  182.1110  178.0070  138.8100 C   0  0  1  0  0  3  0  0  0  0  0  0
  182.7320  178.5660  141.0820 C   0  0  0  0  0  2  0  0  0  0  0  0
  184.5090  178.5910  139.3500 C   0  0  0  0  0  2  0  0  0  0  0  0
  184.2000  178.2670  140.8070 C   0  0  1  0  0  3  0  0  0  0  0  0
  181.8750  177.7320  140.2330 N   0  0  0  0  0  2  0  0  0  0  0  0
  181.2350  180.4350  138.1110 C   0  0  0  0  0  3  0  0  0  0  0  0
  181.6280  179.3410  138.4250 C   0  0  0  0  0  0  0  0  0  0  0  0
  189.7220  177.8230  140.9760 C   0  0  0  0  0  2  0  0  0  0  0  0
  189.6770  176.6570  140.1840 O   0  0  0  0  0  0  0  0  0  0  0  0
  190.8580  176.5900  139.4270 C   0  0  0  0  0  2  0  0  0  0  0  0
  190.6200  175.9720  138.0530 C   0  0  1  0  0  3  0  0  0  0  0  0
  190.9410  174.6070  138.0900 O   0  0  0  0  0  1  0  0  0  0  0  0
  189.1490  176.1530  137.7130 C   0  0  0  0  0  2  0  0  0  0  0  0
  188.9550  177.2730  136.7850 N   0  0  0  0  0  0  0  0  0  0  0  0
  186.9540  178.0890  136.5820 C   0  0  0  0  0  2  0  0  0  0  0  0
  188.7050  179.5400  137.2820 O   0  0  0  0  0  1  0  0  0  0  0  0
  187.8170  177.0720  135.8670 C   0  0  1  0  0  0  0  0  0  0  0  0
  188.1790  177.5470  134.4680 C   0  0  0  0  0  1  0  0  0  0  0  0
  188.1560  178.2750  137.4890 C   0  0  2  0  0  3  0  0  0  0  0  0
  187.1920  175.6630  135.8530 C   0  0  0  0  0  2  0  0  0  0  0  0
  185.8020  175.6930  136.2860 N   0  0  0  0  0  0  0  0  0  0  0  0
  184.8650  173.1030  134.3470 C   0  0  0  0  0  1  0  0  0  0  0  0
  184.8780  173.5190  136.6360 C   0  0  0  0  0  3  0  0  0  0  0  0
  184.3670  174.0040  135.3690 N   0  0  0  0  0  0  0  0  0  0  0  0
  185.6450  174.6440  137.2740 C   0  0  0  0  0  3  0  0  0  0  0  0
  184.9990  175.3020  135.1320 C   0  0  0  0  0  2  0  0  0  0  0  0
  1  6  1  0  0  0  0
  2 11  2  0  0  0  0
  2 12  1  0  0  0  0
  3 10  2  0  0  0  0
  4  8  1  0  0  0  0
  5  1  1  0  0  0  0
  7  9  1  0  0  0  0
  7  4  2  0  0  0  0
  8  1  1  0  0  0  0
  9  5  1  0  0  0  0
 10 11  1  0  0  0  0
 11  7  1  0  0  0  0
 12 15  2  0  0  0  0
 13  2  1  0  0  0  0
 14  3  1  0  0  0  0
 14 13  2  0  0  0  0
 15  4  1  0  0  0  0
 16 13  1  0  0  0  0
 17 18  1  0  0  0  0
 17 20  1  0  0  0  0
 18 24  1  1  0  0  0
 18 22  1  0  0  0  0
 20 21  1  0  0  0  0
 21 19  1  0  0  0  0
 21 16  1  1  0  0  0
 22 19  1  0  0  0  0
 23 24  3  0  0  0  0
 25  3  1  0  0  0  0
 26 25  1  0  0  0  0
 27 26  1  0  0  0  0
 28 29  1  1  0  0  0
 28 27  1  0  0  0  0
 30 28  1  0  0  0  0
 31 36  1  0  0  0  0
 31 30  1  0  0  0  0
 32 36  1  0  0  0  0
 34 35  1  6  0  0  0
 34 32  1  0  0  0  0
 34 31  1  0  0  0  0
 36 33  1  6  0  0  0
 37 34  1  0  0  0  0
 37 38  1  0  0  0  0
 38 42  1  0  0  0  0
 39 41  1  0  0  0  0
 40 42  2  0  0  0  0
 41 40  1  0  0  0  0
 43 41  1  0  0  0  0
 43 38  1  0  0  0  0
M  END
>  <MODEL>
1

>  <REMARK>
 VINA RESULT:      -8.2      0.000      0.000
  Name = 
  11 active torsions:
  status: ('A' for Active; 'I' for Inactive)
    1  A    between atoms: N_1  and  C_34
    2  A    between atoms: N_1  and  C_35
    3  A    between atoms: C_2  and  O_7
    4  A    between atoms: C_2  and  C_13
    5  A    between atoms: C_3  and  N_4
    6  A    between atoms: C_3  and  C_12
    7  A    between atoms: C_6  and  O_7
    8  A    between atoms: C_6  and  C_12
    9  A    between atoms: N_11  and  C_14
   10  A    between atoms: C_14  and  C_22
   11  A    between atoms: C_19  and  C_37
                            x       y       z     vdW  Elec       q    Type
                         _______ _______ _______ _____ _____    ______ ____

>  <TORSDO>
F 11

$$$$
=
 OpenBabel10272414053D

 43 48  0  0  1  0  0  0  0  0999 V2000
  188.4100  177.5690  148.4210 N   0  0  0  0  0  0  0  0  0  0  0  0
  186.0850  178.3010  143.9520 C   0  0  0  0  0  0  0  0  0  0  0  0
  188.0020  177.8490  142.0230 C   0  0  0  0  0  0  0  0  0  0  0  0
  186.7670  177.9520  146.6490 C   0  0  0  0  0  0  0  0  0  0  0  0
  189.1150  176.6940  147.4750 C   0  0  0  0  0  2  0  0  0  0  0  0
  189.0340  178.7710  148.4300 O   0  0  0  0  0  1  0  0  0  0  0  0
  187.7210  177.6900  145.6540 C   0  0  0  0  0  0  0  0  0  0  0  0
  187.1040  177.7760  147.9970 O   0  0  0  0  0  0  0  0  0  0  0  0
  189.1060  177.2770  146.0590 C   0  0  0  0  0  2  0  0  0  0  0  0
  188.3080  177.6640  143.3320 N   0  0  0  0  0  0  0  0  0  0  0  0
  187.3860  177.8780  144.3040 C   0  0  0  0  0  0  0  0  0  0  0  0
  185.1370  178.5380  144.9560 C   0  0  0  0  0  3  0  0  0  0  0  0
  185.7890  178.4840  142.5940 C   0  0  0  0  0  0  0  0  0  0  0  0
  186.7590  178.2590  141.6610 N   0  0  0  0  0  0  0  0  0  0  0  0
  185.4780  178.3620  146.2990 C   0  0  0  0  0  3  0  0  0  0  0  0
  184.4810  178.9110  142.1880 N   0  0  0  0  0  2  0  0  0  0  0  0
  183.6490  178.6250  138.5110 C   0  0  0  0  0  2  0  0  0  0  0  0
  182.1330  178.7870  138.6670 C   0  0  1  0  0  3  0  0  0  0  0  0
  182.3320  178.6810  141.0770 C   0  0  0  0  0  2  0  0  0  0  0  0
  184.3910  179.0990  139.7560 C   0  0  0  0  0  2  0  0  0  0  0  0
  183.8270  178.4050  140.9910 C   0  0  1  0  0  3  0  0  0  0  0  0
  181.6470  178.1460  139.8960 N   0  0  0  0  0  2  0  0  0  0  0  0
  181.3800  181.3490  138.5220 C   0  0  0  0  0  3  0  0  0  0  0  0
  181.7180  180.1950  138.5860 C   0  0  0  0  0  0  0  0  0  0  0  0
  189.0830  177.6910  140.9970 C   0  0  0  0  0  2  0  0  0  0  0  0
  188.7840  178.3440  139.7830 O   0  0  0  0  0  0  0  0  0  0  0  0
  188.4910  177.3680  138.8160 C   0  0  0  0  0  2  0  0  0  0  0  0
  187.3840  177.8190  137.8680 C   0  0  1  0  0  3  0  0  0  0  0  0
  187.7370  179.0440  137.2830 O   0  0  0  0  0  1  0  0  0  0  0  0
  187.2310  176.7530  136.7960 C   0  0  0  0  0  2  0  0  0  0  0  0
  188.4600  175.9640  136.6540 N   0  0  0  0  0  0  0  0  0  0  0  0
  188.7740  174.9000  134.7890 C   0  0  0  0  0  2  0  0  0  0  0  0
  190.3970  176.5030  135.4670 O   0  0  0  0  0  1  0  0  0  0  0  0
  188.2150  174.5950  136.1620 C   0  0  1  0  0  0  0  0  0  0  0  0
  189.0970  173.6030  136.9040 C   0  0  0  0  0  1  0  0  0  0  0  0
  189.0240  176.2900  135.3440 C   0  0  2  0  0  3  0  0  0  0  0  0
  186.7440  174.1380  136.1180 C   0  0  0  0  0  2  0  0  0  0  0  0
  186.5600  172.8690  136.8080 N   0  0  0  0  0  0  0  0  0  0  0  0
  183.2050  173.1350  136.9580 C   0  0  0  0  0  1  0  0  0  0  0  0
  184.6900  171.6210  136.0000 C   0  0  0  0  0  3  0  0  0  0  0  0
  184.2940  172.2240  137.2580 N   0  0  0  0  0  0  0  0  0  0  0  0
  186.1560  171.9000  135.8080 C   0  0  0  0  0  3  0  0  0  0  0  0
  185.4210  173.0440  137.7020 C   0  0  0  0  0  2  0  0  0  0  0  0
  1  6  1  0  0  0  0
  2 11  2  0  0  0  0
  2 12  1  0  0  0  0
  3 10  2  0  0  0  0
  4  8  1  0  0  0  0
  5  1  1  0  0  0  0
  7  9  1  0  0  0  0
  7  4  2  0  0  0  0
  8  1  1  0  0  0  0
  9  5  1  0  0  0  0
 10 11  1  0  0  0  0
 11  7  1  0  0  0  0
 12 15  2  0  0  0  0
 13  2  1  0  0  0  0
 14  3  1  0  0  0  0
 14 13  2  0  0  0  0
 15  4  1  0  0  0  0
 16 13  1  0  0  0  0
 17 18  1  0  0  0  0
 17 20  1  0  0  0  0
 18 24  1  1  0  0  0
 18 22  1  0  0  0  0
 20 21  1  0  0  0  0
 21 19  1  0  0  0  0
 21 16  1  1  0  0  0
 22 19  1  0  0  0  0
 23 24  3  0  0  0  0
 25  3  1  0  0  0  0
 26 25  1  0  0  0  0
 27 26  1  0  0  0  0
 28 29  1  6  0  0  0
 28 27  1  0  0  0  0
 30 28  1  0  0  0  0
 31 30  1  0  0  0  0
 32 36  1  0  0  0  0
 32 34  1  0  0  0  0
 34 31  1  0  0  0  0
 34 35  1  1  0  0  0
 36 33  1  1  0  0  0
 36 31  1  0  0  0  0
 37 34  1  0  0  0  0
 37 38  1  0  0  0  0
 38 43  1  0  0  0  0
 39 41  1  0  0  0  0
 40 41  1  0  0  0  0
 41 43  1  0  0  0  0
 42 40  2  0  0  0  0
 42 38  1  0  0  0  0
M  END
>  <MODEL>
2

>  <REMARK>
 VINA RESULT:      -8.2      1.363      2.120
  Name = 
  11 active torsions:
  status: ('A' for Active; 'I' for Inactive)
    1  A    between atoms: N_1  and  C_34
    2  A    between atoms: N_1  and  C_35
    3  A    between atoms: C_2  and  O_7
    4  A    between atoms: C_2  and  C_13
    5  A    between atoms: C_3  and  N_4
    6  A    between atoms: C_3  and  C_12
    7  A    between atoms: C_6  and  O_7
    8  A    between atoms: C_6  and  C_12
    9  A    between atoms: N_11  and  C_14
   10  A    between atoms: C_14  and  C_22
   11  A    between atoms: C_19  and  C_37
                            x       y       z     vdW  Elec       q    Type
                         _______ _______ _______ _____ _____    ______ ____

>  <TORSDO>
F 11

$$$$
=
 OpenBabel10272414053D

 43 48  0  0  1  0  0  0  0  0999 V2000
  188.5770  177.5820  148.5160 N   0  0  0  0  0  0  0  0  0  0  0  0
  186.2410  178.2340  144.0410 C   0  0  0  0  0  0  0  0  0  0  0  0
  188.1290  177.6620  142.1140 C   0  0  0  0  0  0  0  0  0  0  0  0
  186.9330  177.9550  146.7430 C   0  0  0  0  0  0  0  0  0  0  0  0
  189.2480  176.6560  147.5950 C   0  0  0  0  0  2  0  0  0  0  0  0
  189.2360  178.7650  148.4800 O   0  0  0  0  0  1  0  0  0  0  0  0
  187.8710  177.6320  145.7510 C   0  0  0  0  0  0  0  0  0  0  0  0
  187.2740  177.8130  148.0940 O   0  0  0  0  0  0  0  0  0  0  0  0
  189.2460  177.1910  146.1600 C   0  0  0  0  0  2  0  0  0  0  0  0
  188.4390  177.5110  143.4270 N   0  0  0  0  0  0  0  0  0  0  0  0
  187.5310  177.7840  144.3980 C   0  0  0  0  0  0  0  0  0  0  0  0
  185.3080  178.5330  145.0420 C   0  0  0  0  0  3  0  0  0  0  0  0
  185.9390  178.3810  142.6790 C   0  0  0  0  0  0  0  0  0  0  0  0
  186.8950  178.0960  141.7480 N   0  0  0  0  0  0  0  0  0  0  0  0
  185.6530  178.3910  146.3890 C   0  0  0  0  0  3  0  0  0  0  0  0
  184.6420  178.8330  142.2680 N   0  0  0  0  0  2  0  0  0  0  0  0
  183.8390  178.5670  138.5820 C   0  0  0  0  0  2  0  0  0  0  0  0
  182.3270  178.7720  138.7230 C   0  0  1  0  0  3  0  0  0  0  0  0
  182.4980  178.6620  141.1360 C   0  0  0  0  0  2  0  0  0  0  0  0
  184.5810  179.0210  139.8350 C   0  0  0  0  0  2  0  0  0  0  0  0
  183.9860  178.3440  141.0640 C   0  0  1  0  0  3  0  0  0  0  0  0
  181.8110  178.1450  139.9480 N   0  0  0  0  0  2  0  0  0  0  0  0
  181.6410  181.3520  138.5680 C   0  0  0  0  0  3  0  0  0  0  0  0
  181.9520  180.1910  138.6370 C   0  0  0  0  0  0  0  0  0  0  0  0
  189.1970  177.4380  141.0870 C   0  0  0  0  0  2  0  0  0  0  0  0
  188.6800  177.3020  139.7820 O   0  0  0  0  0  0  0  0  0  0  0  0
  189.4910  178.0440  138.9060 C   0  0  0  0  0  2  0  0  0  0  0  0
  188.7330  178.4710  137.6530 C   0  0  1  0  0  3  0  0  0  0  0  0
  188.9240  179.8440  137.4340 O   0  0  0  0  0  1  0  0  0  0  0  0
  189.2850  177.6730  136.4840 C   0  0  0  0  0  2  0  0  0  0  0  0
  188.2070  177.0140  135.7370 N   0  0  0  0  0  0  0  0  0  0  0  0
  187.1080  175.4270  136.7300 C   0  0  0  0  0  2  0  0  0  0  0  0
  185.9030  177.3230  135.9460 O   0  0  0  0  0  1  0  0  0  0  0  0
  188.2870  175.5410  135.7870 C   0  0  1  0  0  0  0  0  0  0  0  0
  187.9570  174.9500  134.4250 C   0  0  0  0  0  1  0  0  0  0  0  0
  187.0540  176.9400  136.6340 C   0  0  2  0  0  3  0  0  0  0  0  0
  189.5810  174.9470  136.3760 C   0  0  0  0  0  2  0  0  0  0  0  0
  190.4640  174.4510  135.3290 N   0  0  0  0  0  0  0  0  0  0  0  0
  193.2730  174.8470  137.1450 C   0  0  0  0  0  1  0  0  0  0  0  0
  192.2010  173.0350  136.1550 C   0  0  0  0  0  3  0  0  0  0  0  0
  192.7960  174.3280  135.8770 N   0  0  0  0  0  0  0  0  0  0  0  0
  190.7810  173.0760  135.6610 C   0  0  0  0  0  3  0  0  0  0  0  0
  191.7080  175.2050  135.4440 C   0  0  0  0  0  2  0  0  0  0  0  0
  2 11  2  0  0  0  0
  2 12  1  0  0  0  0
  3 10  2  0  0  0  0
  4  8  1  0  0  0  0
  5  1  1  0  0  0  0
  6  1  1  0  0  0  0
  7  9  1  0  0  0  0
  7  4  2  0  0  0  0
  8  1  1  0  0  0  0
  9  5  1  0  0  0  0
 10 11  1  0  0  0  0
 11  7  1  0  0  0  0
 12 15  2  0  0  0  0
 13  2  1  0  0  0  0
 14  3  1  0  0  0  0
 14 13  2  0  0  0  0
 15  4  1  0  0  0  0
 16 13  1  0  0  0  0
 17 18  1  0  0  0  0
 17 20  1  0  0  0  0
 18 24  1  1  0  0  0
 18 22  1  0  0  0  0
 20 21  1  0  0  0  0
 21 19  1  0  0  0  0
 21 16  1  1  0  0  0
 22 19  1  0  0  0  0
 23 24  3  0  0  0  0
 25  3  1  0  0  0  0
 26 25  1  0  0  0  0
 27 26  1  0  0  0  0
 28 29  1  6  0  0  0
 28 27  1  0  0  0  0
 30 28  1  0  0  0  0
 31 34  1  0  0  0  0
 31 30  1  0  0  0  0
 31 36  1  0  0  0  0
 34 35  1  6  0  0  0
 34 37  1  0  0  0  0
 34 32  1  0  0  0  0
 36 33  1  6  0  0  0
 36 32  1  0  0  0  0
 38 43  1  0  0  0  0
 38 42  1  0  0  0  0
 38 37  1  0  0  0  0
 41 40  1  0  0  0  0
 41 39  1  0  0  0  0
 42 40  2  0  0  0  0
 43 41  1  0  0  0  0
M  END
>  <MODEL>
3

>  <REMARK>
 VINA RESULT:      -8.0      1.715      3.092
  Name = 
  11 active torsions:
  status: ('A' for Active; 'I' for Inactive)
    1  A    between atoms: N_1  and  C_34
    2  A    between atoms: N_1  and  C_35
    3  A    between atoms: C_2  and  O_7
    4  A    between atoms: C_2  and  C_13
    5  A    between atoms: C_3  and  N_4
    6  A    between atoms: C_3  and  C_12
    7  A    between atoms: C_6  and  O_7
    8  A    between atoms: C_6  and  C_12
    9  A    between atoms: N_11  and  C_14
   10  A    between atoms: C_14  and  C_22
   11  A    between atoms: C_19  and  C_37
                            x       y       z     vdW  Elec       q    Type
                         _______ _______ _______ _____ _____    ______ ____

>  <TORSDO>
F 11

$$$$
=
 OpenBabel10272414053D

 43 48  0  0  1  0  0  0  0  0999 V2000
  188.3190  177.5350  148.3410 N   0  0  0  0  0  0  0  0  0  0  0  0
  186.1200  178.3760  143.8280 C   0  0  0  0  0  0  0  0  0  0  0  0
  188.0730  177.9080  141.9390 C   0  0  0  0  0  0  0  0  0  0  0  0
  186.7290  177.9770  146.5350 C   0  0  0  0  0  0  0  0  0  0  0  0
  189.0280  176.6580  147.4000 C   0  0  0  0  0  2  0  0  0  0  0  0
  188.9690  178.7240  148.3810 O   0  0  0  0  0  1  0  0  0  0  0  0
  187.7010  177.7080  145.5600 C   0  0  0  0  0  0  0  0  0  0  0  0
  187.0290  177.7760  147.8890 O   0  0  0  0  0  0  0  0  0  0  0  0
  189.0660  177.2590  145.9920 C   0  0  0  0  0  2  0  0  0  0  0  0
  188.3430  177.6990  143.2520 N   0  0  0  0  0  0  0  0  0  0  0  0
  187.4030  177.9200  144.2050 C   0  0  0  0  0  0  0  0  0  0  0  0
  185.1530  178.6210  144.8110 C   0  0  0  0  0  3  0  0  0  0  0  0
  185.8610  178.5840  142.4650 C   0  0  0  0  0  0  0  0  0  0  0  0
  186.8480  178.3490  141.5530 N   0  0  0  0  0  0  0  0  0  0  0  0
  185.4570  178.4190  146.1600 C   0  0  0  0  0  3  0  0  0  0  0  0
  184.5730  179.0440  142.0340 N   0  0  0  0  0  2  0  0  0  0  0  0
  182.7020  176.7190  139.7120 C   0  0  0  0  0  2  0  0  0  0  0  0
  181.3530  177.4430  139.7980 C   0  0  1  0  0  3  0  0  0  0  0  0
  182.1960  178.8850  141.5500 C   0  0  0  0  0  2  0  0  0  0  0  0
  183.8410  177.6060  140.2030 C   0  0  0  0  0  2  0  0  0  0  0  0
  183.5220  178.1370  141.5950 C   0  0  1  0  0  3  0  0  0  0  0  0
  181.1160  177.9800  141.1450 N   0  0  0  0  0  2  0  0  0  0  0  0
  181.1080  179.3270  137.9170 C   0  0  0  0  0  3  0  0  0  0  0  0
  181.2170  178.4800  138.7650 C   0  0  0  0  0  0  0  0  0  0  0  0
  189.1760  177.7400  140.9370 C   0  0  0  0  0  2  0  0  0  0  0  0
  188.7160  177.2570  139.6950 O   0  0  0  0  0  0  0  0  0  0  0  0
  189.6550  177.6040  138.7090 C   0  0  0  0  0  2  0  0  0  0  0  0
  189.9620  176.4360  137.7780 C   0  0  1  0  0  3  0  0  0  0  0  0
  190.5440  175.3910  138.5100 O   0  0  0  0  0  1  0  0  0  0  0  0
  188.6500  175.9770  137.1640 C   0  0  0  0  0  2  0  0  0  0  0  0
  188.6450  174.5250  136.9510 N   0  0  0  0  0  0  0  0  0  0  0  0
  187.8640  173.7780  135.0690 C   0  0  0  0  0  2  0  0  0  0  0  0
  190.1080  173.2480  135.6540 O   0  0  0  0  0  1  0  0  0  0  0  0
  187.3470  174.0150  136.4710 C   0  0  1  0  0  0  0  0  0  0  0  0
  187.0100  172.7010  137.1600 C   0  0  0  0  0  1  0  0  0  0  0  0
  189.1840  174.2920  135.6100 C   0  0  2  0  0  3  0  0  0  0  0  0
  186.1660  175.0060  136.5130 C   0  0  0  0  0  2  0  0  0  0  0  0
  185.6750  175.3050  135.1750 N   0  0  0  0  0  0  0  0  0  0  0  0
  182.4790  175.7180  136.1550 C   0  0  0  0  0  1  0  0  0  0  0  0
  184.0710  177.0740  135.1350 C   0  0  0  0  0  3  0  0  0  0  0  0
  183.3420  175.8290  134.9940 N   0  0  0  0  0  0  0  0  0  0  0  0
  185.5380  176.7460  135.0890 C   0  0  0  0  0  3  0  0  0  0  0  0
  184.3270  174.7530  135.0950 C   0  0  0  0  0  2  0  0  0  0  0  0
  1  6  1  0  0  0  0
  2 11  2  0  0  0  0
  2 12  1  0  0  0  0
  3 10  2  0  0  0  0
  4  8  1  0  0  0  0
  5  1  1  0  0  0  0
  7  9  1  0  0  0  0
  7  4  2  0  0  0  0
  8  1  1  0  0  0  0
  9  5  1  0  0  0  0
 10 11  1  0  0  0  0
 11  7  1  0  0  0  0
 12 15  2  0  0  0  0
 13  2  1  0  0  0  0
 14  3  1  0  0  0  0
 14 13  2  0  0  0  0
 15  4  1  0  0  0  0
 16 13  1  0  0  0  0
 17 18  1  0  0  0  0
 17 20  1  0  0  0  0
 18 24  1  6  0  0  0
 18 22  1  0  0  0  0
 19 21  1  0  0  0  0
 20 21  1  0  0  0  0
 21 16  1  6  0  0  0
 22 19  1  0  0  0  0
 23 24  3  0  0  0  0
 25  3  1  0  0  0  0
 26 25  1  0  0  0  0
 27 26  1  0  0  0  0
 28 29  1  1  0  0  0
 28 27  1  0  0  0  0
 30 28  1  0  0  0  0
 31 30  1  0  0  0  0
 32 36  1  0  0  0  0
 32 34  1  0  0  0  0
 34 37  1  0  0  0  0
 34 31  1  0  0  0  0
 34 35  1  1  0  0  0
 36 33  1  1  0  0  0
 36 31  1  0  0  0  0
 38 37  1  0  0  0  0
 41 43  1  0  0  0  0
 41 40  1  0  0  0  0
 41 39  1  0  0  0  0
 42 40  2  0  0  0  0
 42 38  1  0  0  0  0
 43 38  1  0  0  0  0
M  END
>  <MODEL>
4

>  <REMARK>
 VINA RESULT:      -7.5      1.335      2.195
  Name = 
  11 active torsions:
  status: ('A' for Active; 'I' for Inactive)
    1  A    between atoms: N_1  and  C_34
    2  A    between atoms: N_1  and  C_35
    3  A    between atoms: C_2  and  O_7
    4  A    between atoms: C_2  and  C_13
    5  A    between atoms: C_3  and  N_4
    6  A    between atoms: C_3  and  C_12
    7  A    between atoms: C_6  and  O_7
    8  A    between atoms: C_6  and  C_12
    9  A    between atoms: N_11  and  C_14
   10  A    between atoms: C_14  and  C_22
   11  A    between atoms: C_19  and  C_37
                            x       y       z     vdW  Elec       q    Type
                         _______ _______ _______ _____ _____    ______ ____

>  <TORSDO>
F 11

$$$$
=
 OpenBabel10272414053D

 43 48  0  0  1  0  0  0  0  0999 V2000
  188.8780  177.3810  148.1910 N   0  0  0  0  0  0  0  0  0  0  0  0
  188.2760  177.9060  143.1640 C   0  0  0  0  0  0  0  0  0  0  0  0
  185.5770  178.3040  142.7660 C   0  0  0  0  0  0  0  0  0  0  0  0
  189.2350  177.6410  145.7850 C   0  0  0  0  0  0  0  0  0  0  0  0
  187.7060  178.2520  148.0350 C   0  0  0  0  0  2  0  0  0  0  0  0
  188.4470  176.0980  148.2300 O   0  0  0  0  0  1  0  0  0  0  0  0
  187.8700  177.8800  145.5680 C   0  0  0  0  0  0  0  0  0  0  0  0
  189.7180  177.5100  147.0940 O   0  0  0  0  0  0  0  0  0  0  0  0
  186.9410  177.9390  146.7460 C   0  0  0  0  0  2  0  0  0  0  0  0
  186.0620  178.1950  144.0280 N   0  0  0  0  0  0  0  0  0  0  0  0
  187.3850  178.0000  144.2570 C   0  0  0  0  0  0  0  0  0  0  0  0
  189.6400  177.6870  143.3970 C   0  0  0  0  0  3  0  0  0  0  0  0
  187.7550  178.0240  141.8670 C   0  0  0  0  0  0  0  0  0  0  0  0
  186.4140  178.2150  141.7000 N   0  0  0  0  0  0  0  0  0  0  0  0
  190.1170  177.5570  144.7040 C   0  0  0  0  0  3  0  0  0  0  0  0
  188.6200  177.9370  140.7280 N   0  0  0  0  0  2  0  0  0  0  0  0
  187.2730  177.4470  137.2280 C   0  0  0  0  0  2  0  0  0  0  0  0
  188.4390  178.1270  136.5010 C   0  0  1  0  0  3  0  0  0  0  0  0
  189.3760  178.8590  138.6100 C   0  0  0  0  0  2  0  0  0  0  0  0
  187.6490  177.0780  138.6590 C   0  0  0  0  0  2  0  0  0  0  0  0
  188.1900  178.3040  139.3860 C   0  0  1  0  0  3  0  0  0  0  0  0
  188.9570  179.2690  137.2660 N   0  0  0  0  0  2  0  0  0  0  0  0
  190.3740  176.3910  135.8750 C   0  0  0  0  0  3  0  0  0  0  0  0
  189.5040  177.1740  136.1560 C   0  0  0  0  0  0  0  0  0  0  0  0
  184.0960  178.4240  142.5670 C   0  0  0  0  0  2  0  0  0  0  0  0
  183.6580  177.8440  141.3580 O   0  0  0  0  0  0  0  0  0  0  0  0
  182.8330  178.7680  140.6960 C   0  0  0  0  0  2  0  0  0  0  0  0
  183.3900  179.1530  139.3300 C   0  0  1  0  0  3  0  0  0  0  0  0
  184.5470  179.9290  139.4960 O   0  0  0  0  0  1  0  0  0  0  0  0
  183.7250  177.8690  138.5890 C   0  0  0  0  0  2  0  0  0  0  0  0
  182.8850  177.7120  137.3960 N   0  0  0  0  0  0  0  0  0  0  0  0
  181.7690  175.8640  137.1750 C   0  0  0  0  0  2  0  0  0  0  0  0
  180.5660  177.9170  137.2210 O   0  0  0  0  0  1  0  0  0  0  0  0
  183.0950  176.4250  136.7060 C   0  0  1  0  0  0  0  0  0  0  0  0
  183.1000  176.6290  135.1990 C   0  0  0  0  0  1  0  0  0  0  0  0
  181.5890  177.2100  137.8520 C   0  0  2  0  0  3  0  0  0  0  0  0
  184.2980  175.5850  137.1780 C   0  0  0  0  0  2  0  0  0  0  0  0
  184.2550  174.2370  136.6290 N   0  0  0  0  0  0  0  0  0  0  0  0
  187.6030  173.9230  136.4400 C   0  0  0  0  0  1  0  0  0  0  0  0
  185.9090  172.7880  137.5600 C   0  0  0  0  0  3  0  0  0  0  0  0
  186.3730  173.1800  136.2440 N   0  0  0  0  0  0  0  0  0  0  0  0
  184.5140  173.3260  137.7260 C   0  0  0  0  0  3  0  0  0  0  0  0
  185.3880  174.1250  135.7170 C   0  0  0  0  0  2  0  0  0  0  0  0
  1  6  1  0  0  0  0
  2 12  2  0  0  0  0
  2 11  1  0  0  0  0
  3 10  2  0  0  0  0
  4  8  1  0  0  0  0
  5  1  1  0  0  0  0
  7  4  1  0  0  0  0
  7  9  1  0  0  0  0
  8  1  1  0  0  0  0
  9  5  1  0  0  0  0
 10 11  1  0  0  0  0
 11  7  2  0  0  0  0
 12 15  1  0  0  0  0
 13  2  1  0  0  0  0
 14 13  2  0  0  0  0
 14  3  1  0  0  0  0
 15  4  2  0  0  0  0
 16 13  1  0  0  0  0
 17 20  1  0  0  0  0
 18 24  1  1  0  0  0
 18 17  1  0  0  0  0
 18 22  1  0  0  0  0
 19 21  1  0  0  0  0
 20 21  1  0  0  0  0
 21 16  1  1  0  0  0
 22 19  1  0  0  0  0
 23 24  3  0  0  0  0
 25  3  1  0  0  0  0
 26 25  1  0  0  0  0
 27 26  1  0  0  0  0
 28 29  1  1  0  0  0
 28 27  1  0  0  0  0
 30 28  1  0  0  0  0
 31 36  1  0  0  0  0
 31 30  1  0  0  0  0
 32 36  1  0  0  0  0
 34 35  1  6  0  0  0
 34 32  1  0  0  0  0
 34 37  1  0  0  0  0
 34 31  1  0  0  0  0
 36 33  1  6  0  0  0
 38 37  1  0  0  0  0
 38 42  1  0  0  0  0
 40 42  2  0  0  0  0
 41 39  1  0  0  0  0
 41 40  1  0  0  0  0
 43 41  1  0  0  0  0
 43 38  1  0  0  0  0
M  END
>  <MODEL>
5

>  <REMARK>
 VINA RESULT:      -7.5      2.376      5.016
  Name = 
  11 active torsions:
  status: ('A' for Active; 'I' for Inactive)
    1  A    between atoms: N_1  and  C_34
    2  A    between atoms: N_1  and  C_35
    3  A    between atoms: C_2  and  O_7
    4  A    between atoms: C_2  and  C_13
    5  A    between atoms: C_3  and  N_4
    6  A    between atoms: C_3  and  C_12
    7  A    between atoms: C_6  and  O_7
    8  A    between atoms: C_6  and  C_12
    9  A    between atoms: N_11  and  C_14
   10  A    between atoms: C_14  and  C_22
   11  A    between atoms: C_19  and  C_37
                            x       y       z     vdW  Elec       q    Type
                         _______ _______ _______ _____ _____    ______ ____

>  <TORSDO>
F 11

$$$$
=
 OpenBabel10272414053D

 43 48  0  0  1  0  0  0  0  0999 V2000
  191.4450  176.8220  147.3470 N   0  0  0  0  0  0  0  0  0  0  0  0
  189.5700  177.8280  142.7230 C   0  0  0  0  0  0  0  0  0  0  0  0
  186.8290  177.8840  143.0170 C   0  0  0  0  0  0  0  0  0  0  0  0
  191.1680  177.4030  144.9870 C   0  0  0  0  0  0  0  0  0  0  0  0
  190.1830  177.5310  147.5920 C   0  0  0  0  0  2  0  0  0  0  0  0
  191.1810  175.4940  147.2980 O   0  0  0  0  0  1  0  0  0  0  0  0
  189.7740  177.4700  145.1260 C   0  0  0  0  0  0  0  0  0  0  0  0
  191.9700  177.1930  146.1170 O   0  0  0  0  0  0  0  0  0  0  0  0
  189.1630  177.2610  146.4810 C   0  0  0  0  0  2  0  0  0  0  0  0
  187.6200  177.7010  144.1050 N   0  0  0  0  0  0  0  0  0  0  0  0
  188.9710  177.6690  143.9930 C   0  0  0  0  0  0  0  0  0  0  0  0
  190.9650  177.7790  142.6030 C   0  0  0  0  0  3  0  0  0  0  0  0
  188.7370  178.0180  141.6120 C   0  0  0  0  0  0  0  0  0  0  0  0
  187.3830  178.0360  141.7860 N   0  0  0  0  0  0  0  0  0  0  0  0
  191.7610  177.5690  143.7320 C   0  0  0  0  0  3  0  0  0  0  0  0
  189.2990  178.1860  140.3040 N   0  0  0  0  0  2  0  0  0  0  0  0
  187.8390  176.2590  137.3960 C   0  0  0  0  0  2  0  0  0  0  0  0
  188.3720  177.1830  136.2950 C   0  0  1  0  0  3  0  0  0  0  0  0
  189.1400  178.7740  137.9510 C   0  0  0  0  0  2  0  0  0  0  0  0
  188.5730  176.4820  138.7140 C   0  0  0  0  0  2  0  0  0  0  0  0
  188.5340  177.9590  139.0860 C   0  0  1  0  0  3  0  0  0  0  0  0
  188.3620  178.5890  136.7210 N   0  0  0  0  0  2  0  0  0  0  0  0
  190.7870  176.4220  135.4330 C   0  0  0  0  0  3  0  0  0  0  0  0
  189.7010  176.7670  135.8210 C   0  0  0  0  0  0  0  0  0  0  0  0
  185.3410  177.8150  143.1820 C   0  0  0  0  0  2  0  0  0  0  0  0
  184.7210  179.0780  143.0820 O   0  0  0  0  0  0  0  0  0  0  0  0
  184.0150  179.1290  141.8680 C   0  0  0  0  0  2  0  0  0  0  0  0
  182.7210  178.3240  141.9280 C   0  0  1  0  0  3  0  0  0  0  0  0
  181.6860  179.1330  142.4190 O   0  0  0  0  0  1  0  0  0  0  0  0
  182.3980  177.8630  140.5160 C   0  0  0  0  0  2  0  0  0  0  0  0
  183.1040  178.6760  139.5190 N   0  0  0  0  0  0  0  0  0  0  0  0
  182.4420  178.5540  137.4560 C   0  0  0  0  0  2  0  0  0  0  0  0
  182.4140  180.6760  138.5320 O   0  0  0  0  0  1  0  0  0  0  0  0
  183.5020  177.9090  138.3230 C   0  0  1  0  0  0  0  0  0  0  0  0
  184.8970  178.3160  137.8770 C   0  0  0  0  0  1  0  0  0  0  0  0
  182.0800  179.3330  138.7060 C   0  0  2  0  0  3  0  0  0  0  0  0
  183.3490  176.3780  138.4120 C   0  0  0  0  0  2  0  0  0  0  0  0
  183.0860  175.7930  137.1050 N   0  0  0  0  0  0  0  0  0  0  0  0
  184.8980  173.0150  137.6930 C   0  0  0  0  0  1  0  0  0  0  0  0
  182.6670  173.4430  137.1930 C   0  0  0  0  0  3  0  0  0  0  0  0
  184.0210  173.6200  136.7080 N   0  0  0  0  0  0  0  0  0  0  0  0
  182.0390  174.8070  137.2870 C   0  0  0  0  0  3  0  0  0  0  0  0
  184.2900  175.0580  136.7300 C   0  0  0  0  0  2  0  0  0  0  0  0
  1  5  1  0  0  0  0
  2 11  1  0  0  0  0
  3 25  1  0  0  0  0
  3 10  2  0  0  0  0
  4  7  1  0  0  0  0
  4  8  1  0  0  0  0
  6  1  1  0  0  0  0
  7  9  1  0  0  0  0
  8  1  1  0  0  0  0
  9  5  1  0  0  0  0
 11 10  1  0  0  0  0
 11  7  2  0  0  0  0
 12  2  2  0  0  0  0
 12 15  1  0  0  0  0
 13 14  2  0  0  0  0
 13  2  1  0  0  0  0
 14  3  1  0  0  0  0
 15  4  2  0  0  0  0
 16 13  1  0  0  0  0
 17 20  1  0  0  0  0
 18 24  1  1  0  0  0
 18 22  1  0  0  0  0
 18 17  1  0  0  0  0
 19 21  1  0  0  0  0
 20 21  1  0  0  0  0
 21 16  1  1  0  0  0
 22 19  1  0  0  0  0
 23 24  3  0  0  0  0
 26 25  1  0  0  0  0
 27 28  1  0  0  0  0
 27 26  1  0  0  0  0
 28 29  1  6  0  0  0
 30 28  1  0  0  0  0
 31 30  1  0  0  0  0
 32 34  1  0  0  0  0
 32 36  1  0  0  0  0
 34 35  1  6  0  0  0
 34 37  1  0  0  0  0
 34 31  1  0  0  0  0
 36 33  1  6  0  0  0
 36 31  1  0  0  0  0
 38 42  1  0  0  0  0
 38 37  1  0  0  0  0
 40 42  2  0  0  0  0
 41 43  1  0  0  0  0
 41 40  1  0  0  0  0
 41 39  1  0  0  0  0
 43 38  1  0  0  0  0
M  END
>  <MODEL>
6

>  <REMARK>
 VINA RESULT:      -7.4      2.657      5.427
  Name = 
  11 active torsions:
  status: ('A' for Active; 'I' for Inactive)
    1  A    between atoms: N_1  and  C_34
    2  A    between atoms: N_1  and  C_35
    3  A    between atoms: C_2  and  O_7
    4  A    between atoms: C_2  and  C_13
    5  A    between atoms: C_3  and  N_4
    6  A    between atoms: C_3  and  C_12
    7  A    between atoms: C_6  and  O_7
    8  A    between atoms: C_6  and  C_12
    9  A    between atoms: N_11  and  C_14
   10  A    between atoms: C_14  and  C_22
   11  A    between atoms: C_19  and  C_37
                            x       y       z     vdW  Elec       q    Type
                         _______ _______ _______ _____ _____    ______ ____

>  <TORSDO>
F 11

$$$$
=
 OpenBabel10272414053D

 43 48  0  0  1  0  0  0  0  0999 V2000
  188.7400  177.2730  148.2090 N   0  0  0  0  0  0  0  0  0  0  0  0
  185.9200  178.4190  144.1290 C   0  0  0  0  0  0  0  0  0  0  0  0
  187.6350  178.3080  141.9730 C   0  0  0  0  0  0  0  0  0  0  0  0
  186.9020  177.7810  146.6760 C   0  0  0  0  0  0  0  0  0  0  0  0
  189.3740  176.5590  147.0930 C   0  0  0  0  0  2  0  0  0  0  0  0
  189.3130  178.4970  148.3060 O   0  0  0  0  0  1  0  0  0  0  0  0
  187.7530  177.6940  145.5640 C   0  0  0  0  0  0  0  0  0  0  0  0
  187.3890  177.4600  147.9500 O   0  0  0  0  0  0  0  0  0  0  0  0
  189.1890  177.3090  145.7700 C   0  0  0  0  0  2  0  0  0  0  0  0
  188.0870  177.9820  143.2100 N   0  0  0  0  0  0  0  0  0  0  0  0
  187.2670  178.0260  144.2900 C   0  0  0  0  0  0  0  0  0  0  0  0
  185.0770  178.4810  145.2460 C   0  0  0  0  0  3  0  0  0  0  0  0
  185.4720  178.7500  142.8430 C   0  0  0  0  0  0  0  0  0  0  0  0
  186.3440  178.6920  141.7950 N   0  0  0  0  0  0  0  0  0  0  0  0
  185.5670  178.1610  146.5150 C   0  0  0  0  0  3  0  0  0  0  0  0
  184.1120  179.1530  142.6300 N   0  0  0  0  0  2  0  0  0  0  0  0
  182.3700  177.2220  139.8850 C   0  0  0  0  0  2  0  0  0  0  0  0
  180.9740  177.8080  140.1250 C   0  0  1  0  0  3  0  0  0  0  0  0
  181.7440  178.9180  142.1340 C   0  0  0  0  0  2  0  0  0  0  0  0
  183.4510  178.0720  140.5430 C   0  0  0  0  0  2  0  0  0  0  0  0
  183.1220  178.2790  142.0170 C   0  0  1  0  0  3  0  0  0  0  0  0
  180.7250  178.0370  141.5550 N   0  0  0  0  0  2  0  0  0  0  0  0
  180.5540  180.0160  138.6770 C   0  0  0  0  0  3  0  0  0  0  0  0
  180.7410  179.0230  139.3300 C   0  0  0  0  0  0  0  0  0  0  0  0
  188.6040  178.3340  140.8300 C   0  0  0  0  0  2  0  0  0  0  0  0
  189.2010  177.0790  140.5910 O   0  0  0  0  0  0  0  0  0  0  0  0
  189.5180  176.9920  139.2250 C   0  0  0  0  0  2  0  0  0  0  0  0
  191.0220  177.0640  138.9830 C   0  0  1  0  0  3  0  0  0  0  0  0
  191.6730  177.4200  140.1740 O   0  0  0  0  0  1  0  0  0  0  0  0
  191.4830  175.6880  138.5280 C   0  0  0  0  0  2  0  0  0  0  0  0
  191.2300  175.4930  137.0960 N   0  0  0  0  0  0  0  0  0  0  0  0
  191.9300  173.6530  136.1830 C   0  0  0  0  0  2  0  0  0  0  0  0
  189.6070  174.1570  136.0810 O   0  0  0  0  0  1  0  0  0  0  0  0
  192.4310  175.0720  136.3490 C   0  0  1  0  0  0  0  0  0  0  0  0
  192.4980  175.7890  135.0100 C   0  0  0  0  0  1  0  0  0  0  0  0
  190.7070  174.1360  136.9380 C   0  0  2  0  0  3  0  0  0  0  0  0
  193.7700  175.1460  137.1100 C   0  0  0  0  0  2  0  0  0  0  0  0
  194.4200  173.8450  137.1720 N   0  0  0  0  0  0  0  0  0  0  0  0
  197.4820  175.0470  136.4480 C   0  0  0  0  0  1  0  0  0  0  0  0
  196.5500  173.9090  138.2510 C   0  0  0  0  0  3  0  0  0  0  0  0
  196.7930  173.8270  136.8230 N   0  0  0  0  0  0  0  0  0  0  0  0
  195.0690  173.7600  138.4660 C   0  0  0  0  0  3  0  0  0  0  0  0
  195.4830  173.8640  136.1730 C   0  0  0  0  0  2  0  0  0  0  0  0
  1  6  1  0  0  0  0
  2 11  2  0  0  0  0
  2 12  1  0  0  0  0
  3 10  2  0  0  0  0
  4  8  1  0  0  0  0
  5  1  1  0  0  0  0
  7  9  1  0  0  0  0
  7  4  2  0  0  0  0
  8  1  1  0  0  0  0
  9  5  1  0  0  0  0
 10 11  1  0  0  0  0
 11  7  1  0  0  0  0
 12 15  2  0  0  0  0
 13  2  1  0  0  0  0
 14  3  1  0  0  0  0
 14 13  2  0  0  0  0
 15  4  1  0  0  0  0
 16 13  1  0  0  0  0
 17 18  1  0  0  0  0
 17 20  1  0  0  0  0
 18 24  1  6  0  0  0
 18 22  1  0  0  0  0
 20 21  1  0  0  0  0
 21 19  1  0  0  0  0
 21 16  1  6  0  0  0
 22 19  1  0  0  0  0
 23 24  3  0  0  0  0
 25  3  1  0  0  0  0
 26 25  1  0  0  0  0
 27 26  1  0  0  0  0
 28 27  1  0  0  0  0
 28 29  1  1  0  0  0
 30 28  1  0  0  0  0
 31 30  1  0  0  0  0
 32 34  1  0  0  0  0
 32 36  1  0  0  0  0
 34 35  1  6  0  0  0
 34 31  1  0  0  0  0
 34 37  1  0  0  0  0
 36 33  1  6  0  0  0
 36 31  1  0  0  0  0
 37 38  1  0  0  0  0
 38 42  1  0  0  0  0
 39 41  1  0  0  0  0
 40 42  2  0  0  0  0
 41 40  1  0  0  0  0
 43 41  1  0  0  0  0
 43 38  1  0  0  0  0
M  END
>  <MODEL>
7

>  <REMARK>
 VINA RESULT:      -7.2      2.876      4.824
  Name = 
  11 active torsions:
  status: ('A' for Active; 'I' for Inactive)
    1  A    between atoms: N_1  and  C_34
    2  A    between atoms: N_1  and  C_35
    3  A    between atoms: C_2  and  O_7
    4  A    between atoms: C_2  and  C_13
    5  A    between atoms: C_3  and  N_4
    6  A    between atoms: C_3  and  C_12
    7  A    between atoms: C_6  and  O_7
    8  A    between atoms: C_6  and  C_12
    9  A    between atoms: N_11  and  C_14
   10  A    between atoms: C_14  and  C_22
   11  A    between atoms: C_19  and  C_37
                            x       y       z     vdW  Elec       q    Type
                         _______ _______ _______ _____ _____    ______ ____

>  <TORSDO>
F 11

$$$$
=
 OpenBabel10272414053D

 43 48  0  0  1  0  0  0  0  0999 V2000
  192.8570  175.2970  135.6870 N   0  0  0  0  0  0  0  0  0  0  0  0
  188.5750  177.4870  137.3520 C   0  0  0  0  0  0  0  0  0  0  0  0
  188.9890  178.0140  140.0270 C   0  0  0  0  0  0  0  0  0  0  0  0
  190.6550  176.3480  135.8570 C   0  0  0  0  0  0  0  0  0  0  0  0
  193.2790  176.1770  136.7830 C   0  0  0  0  0  2  0  0  0  0  0  0
  192.5790  174.0770  136.2080 O   0  0  0  0  0  1  0  0  0  0  0  0
  190.8630  176.6560  137.2100 C   0  0  0  0  0  0  0  0  0  0  0  0
  191.6930  175.7820  135.1060 O   0  0  0  0  0  0  0  0  0  0  0  0
  192.1820  176.3210  137.8420 C   0  0  0  0  0  2  0  0  0  0  0  0
  189.9910  177.4830  139.2820 N   0  0  0  0  0  0  0  0  0  0  0  0
  189.8190  177.2130  137.9640 C   0  0  0  0  0  0  0  0  0  0  0  0
  188.3890  177.1930  135.9950 C   0  0  0  0  0  3  0  0  0  0  0  0
  187.5520  178.0370  138.1380 C   0  0  0  0  0  0  0  0  0  0  0  0
  187.7840  178.2820  139.4610 N   0  0  0  0  0  0  0  0  0  0  0  0
  189.4270  176.6280  135.2500 C   0  0  0  0  0  3  0  0  0  0  0  0
  186.2740  178.3340  137.5610 N   0  0  0  0  0  2  0  0  0  0  0  0
  182.8020  176.8410  137.4160 C   0  0  0  0  0  2  0  0  0  0  0  0
  182.1550  177.8230  138.3990 C   0  0  1  0  0  3  0  0  0  0  0  0
  184.3160  178.7740  138.9330 C   0  0  0  0  0  2  0  0  0  0  0  0
  184.1310  177.3740  136.8920 C   0  0  0  0  0  2  0  0  0  0  0  0
  185.0350  177.7540  138.0590 C   0  0  1  0  0  3  0  0  0  0  0  0
  183.0810  178.1970  139.4750 N   0  0  0  0  0  2  0  0  0  0  0  0
  181.1590  179.9720  137.1570 C   0  0  0  0  0  3  0  0  0  0  0  0
  181.6050  179.0040  137.7160 C   0  0  0  0  0  0  0  0  0  0  0  0
  189.2020  178.2040  141.4980 C   0  0  0  0  0  2  0  0  0  0  0  0
  190.4570  177.7310  141.9340 O   0  0  0  0  0  0  0  0  0  0  0  0
  190.2460  176.8120  142.9760 C   0  0  0  0  0  2  0  0  0  0  0  0
  190.5600  177.4160  144.3410 C   0  0  1  0  0  3  0  0  0  0  0  0
  191.4320  178.5030  144.1840 O   0  0  0  0  0  1  0  0  0  0  0  0
  189.2490  177.8830  144.9520 C   0  0  0  0  0  2  0  0  0  0  0  0
  189.3690  178.0390  146.4060 N   0  0  0  0  0  0  0  0  0  0  0  0
  188.6100  176.4420  147.6640 C   0  0  0  0  0  2  0  0  0  0  0  0
  190.9070  177.0350  147.8470 O   0  0  0  0  0  1  0  0  0  0  0  0
  188.1090  177.7640  147.1230 C   0  0  1  0  0  0  0  0  0  0  0  0
  187.9080  178.7730  148.2430 C   0  0  0  0  0  1  0  0  0  0  0  0
  189.8920  176.7760  146.9260 C   0  0  2  0  0  3  0  0  0  0  0  0
  186.8460  177.6120  146.2520 C   0  0  0  0  0  2  0  0  0  0  0  0
  186.0360  178.8210  146.2730 N   0  0  0  0  0  0  0  0  0  0  0  0
  184.6910  178.2900  143.2310 C   0  0  0  0  0  1  0  0  0  0  0  0
  183.8410  178.4980  145.3860 C   0  0  0  0  0  3  0  0  0  0  0  0
  184.6190  179.1830  144.3720 N   0  0  0  0  0  0  0  0  0  0  0  0
  184.6880  178.4190  146.6270 C   0  0  0  0  0  3  0  0  0  0  0  0
  185.9780  179.3060  144.8980 C   0  0  0  0  0  2  0  0  0  0  0  0
  1  6  1  0  0  0  0
  1  5  1  0  0  0  0
  2 11  1  0  0  0  0
  2 13  1  0  0  0  0
  3 25  1  0  0  0  0
  4  7  1  0  0  0  0
  5  9  1  0  0  0  0
  7  9  1  0  0  0  0
  7 11  2  0  0  0  0
  8  1  1  0  0  0  0
  8  4  1  0  0  0  0
 10  3  2  0  0  0  0
 11 10  1  0  0  0  0
 12  2  2  0  0  0  0
 13 14  2  0  0  0  0
 14  3  1  0  0  0  0
 15  4  2  0  0  0  0
 15 12  1  0  0  0  0
 16 13  1  0  0  0  0
 17 18  1  0  0  0  0
 18 24  1  6  0  0  0
 18 22  1  0  0  0  0
 19 22  1  0  0  0  0
 20 17  1  0  0  0  0
 20 21  1  0  0  0  0
 21 16  1  6  0  0  0
 21 19  1  0  0  0  0
 23 24  3  0  0  0  0
 25 26  1  0  0  0  0
 26 27  1  0  0  0  0
 27 28  1  0  0  0  0
 28 29  1  6  0  0  0
 28 30  1  0  0  0  0
 30 31  1  0  0  0  0
 31 36  1  0  0  0  0
 31 34  1  0  0  0  0
 34 32  1  0  0  0  0
 34 35  1  1  0  0  0
 36 32  1  0  0  0  0
 36 33  1  1  0  0  0
 37 38  1  0  0  0  0
 37 34  1  0  0  0  0
 38 42  1  0  0  0  0
 39 41  1  0  0  0  0
 40 42  2  0  0  0  0
 41 43  1  0  0  0  0
 41 40  1  0  0  0  0
 43 38  1  0  0  0  0
M  END
>  <MODEL>
8

>  <REMARK>
 VINA RESULT:      -7.2      2.375      8.402
  Name = 
  11 active torsions:
  status: ('A' for Active; 'I' for Inactive)
    1  A    between atoms: N_1  and  C_34
    2  A    between atoms: N_1  and  C_35
    3  A    between atoms: C_2  and  O_7
    4  A    between atoms: C_2  and  C_13
    5  A    between atoms: C_3  and  N_4
    6  A    between atoms: C_3  and  C_12
    7  A    between atoms: C_6  and  O_7
    8  A    between atoms: C_6  and  C_12
    9  A    between atoms: N_11  and  C_14
   10  A    between atoms: C_14  and  C_22
   11  A    between atoms: C_19  and  C_37
                            x       y       z     vdW  Elec       q    Type
                         _______ _______ _______ _____ _____    ______ ____

>  <TORSDO>
F 11

$$$$
=
 OpenBabel10272414053D

 43 48  0  0  1  0  0  0  0  0999 V2000
  194.2920  175.8540  136.8520 N   0  0  0  0  0  0  0  0  0  0  0  0
  190.6620  177.4680  140.0330 C   0  0  0  0  0  0  0  0  0  0  0  0
  188.3320  177.5110  138.5590 C   0  0  0  0  0  0  0  0  0  0  0  0
  193.0200  176.5610  138.8180 C   0  0  0  0  0  0  0  0  0  0  0  0
  193.0550  175.2300  136.3680 C   0  0  0  0  0  2  0  0  0  0  0  0
  194.4390  177.0450  136.2230 O   0  0  0  0  0  1  0  0  0  0  0  0
  191.8190  176.5540  138.0920 C   0  0  0  0  0  0  0  0  0  0  0  0
  194.1990  176.1060  138.2140 O   0  0  0  0  0  0  0  0  0  0  0  0
  191.8330  176.1080  136.6590 C   0  0  0  0  0  2  0  0  0  0  0  0
  189.4790  177.0550  137.9940 N   0  0  0  0  0  0  0  0  0  0  0  0
  190.6400  177.0210  138.6940 C   0  0  0  0  0  0  0  0  0  0  0  0
  191.8640  177.4500  140.7520 C   0  0  0  0  0  3  0  0  0  0  0  0
  189.4670  177.9350  140.6000 C   0  0  0  0  0  0  0  0  0  0  0  0
  188.3300  177.9490  139.8450 N   0  0  0  0  0  0  0  0  0  0  0  0
  193.0380  176.9960  140.1460 C   0  0  0  0  0  3  0  0  0  0  0  0
  189.4390  178.3970  141.9560 N   0  0  0  0  0  2  0  0  0  0  0  0
  187.1550  176.3540  144.1720 C   0  0  0  0  0  2  0  0  0  0  0  0
  187.5250  177.0520  145.4860 C   0  0  1  0  0  3  0  0  0  0  0  0
  189.2940  178.2790  144.3800 C   0  0  0  0  0  2  0  0  0  0  0  0
  187.5750  177.1840  142.9640 C   0  0  0  0  0  2  0  0  0  0  0  0
  189.0540  177.5420  143.0690 C   0  0  1  0  0  3  0  0  0  0  0  0
  188.9460  177.4210  145.5170 N   0  0  0  0  0  2  0  0  0  0  0  0
  185.9420  179.1470  145.9910 C   0  0  0  0  0  3  0  0  0  0  0  0
  186.6560  178.2050  145.7620 C   0  0  0  0  0  0  0  0  0  0  0  0
  187.1000  177.6160  137.7130 C   0  0  0  0  0  2  0  0  0  0  0  0
  186.2880  178.7150  138.0650 O   0  0  0  0  0  0  0  0  0  0  0  0
  185.0700  178.2240  138.5630 C   0  0  0  0  0  2  0  0  0  0  0  0
  184.5630  179.0490  139.7420 C   0  0  1  0  0  3  0  0  0  0  0  0
  184.0430  180.2650  139.2750 O   0  0  0  0  0  1  0  0  0  0  0  0
  183.4730  178.2460  140.4330 C   0  0  0  0  0  2  0  0  0  0  0  0
  182.1460  178.8090  140.1580 N   0  0  0  0  0  0  0  0  0  0  0  0
  180.4090  177.6090  140.6630 C   0  0  0  0  0  2  0  0  0  0  0  0
  180.6340  179.7560  141.6640 O   0  0  0  0  0  1  0  0  0  0  0  0
  181.2590  177.8740  139.4390 C   0  0  1  0  0  0  0  0  0  0  0  0
  180.4670  178.6140  138.3720 C   0  0  0  0  0  1  0  0  0  0  0  0
  181.3350  178.5900  141.3560 C   0  0  2  0  0  3  0  0  0  0  0  0
  181.9200  176.5970  138.8830 C   0  0  0  0  0  2  0  0  0  0  0  0
  181.2750  176.1540  137.6560 N   0  0  0  0  0  0  0  0  0  0  0  0
  183.5360  173.7390  137.0250 C   0  0  0  0  0  1  0  0  0  0  0  0
  181.2420  173.7790  137.4120 C   0  0  0  0  0  3  0  0  0  0  0  0
  182.2830  174.2860  136.5400 N   0  0  0  0  0  0  0  0  0  0  0  0
  180.5140  174.9640  137.9840 C   0  0  0  0  0  3  0  0  0  0  0  0
  182.3420  175.7320  136.7550 C   0  0  0  0  0  2  0  0  0  0  0  0
  1  8  1  0  0  0  0
  2 13  1  0  0  0  0
  2 12  1  0  0  0  0
  3 14  1  0  0  0  0
  4 15  1  0  0  0  0
  5  9  1  0  0  0  0
  5  1  1  0  0  0  0
  6  1  1  0  0  0  0
  7 11  1  0  0  0  0
  7  4  2  0  0  0  0
  8  4  1  0  0  0  0
  9  7  1  0  0  0  0
 10  3  2  0  0  0  0
 10 11  1  0  0  0  0
 11  2  2  0  0  0  0
 13 16  1  0  0  0  0
 14 13  2  0  0  0  0
 15 12  2  0  0  0  0
 17 18  1  0  0  0  0
 18 22  1  0  0  0  0
 18 24  1  6  0  0  0
 19 22  1  0  0  0  0
 20 21  1  0  0  0  0
 20 17  1  0  0  0  0
 21 16  1  6  0  0  0
 21 19  1  0  0  0  0
 24 23  3  0  0  0  0
 25 26  1  0  0  0  0
 25  3  1  0  0  0  0
 26 27  1  0  0  0  0
 27 28  1  0  0  0  0
 28 29  1  6  0  0  0
 28 30  1  0  0  0  0
 31 30  1  0  0  0  0
 31 36  1  0  0  0  0
 32 36  1  0  0  0  0
 34 35  1  6  0  0  0
 34 31  1  0  0  0  0
 34 32  1  0  0  0  0
 36 33  1  6  0  0  0
 37 34  1  0  0  0  0
 38 42  1  0  0  0  0
 38 37  1  0  0  0  0
 40 42  2  0  0  0  0
 41 43  1  0  0  0  0
 41 39  1  0  0  0  0
 41 40  1  0  0  0  0
 43 38  1  0  0  0  0
M  END
>  <MODEL>
9

>  <REMARK>
 VINA RESULT:      -7.1      2.937      7.536
  Name = 
  11 active torsions:
  status: ('A' for Active; 'I' for Inactive)
    1  A    between atoms: N_1  and  C_34
    2  A    between atoms: N_1  and  C_35
    3  A    between atoms: C_2  and  O_7
    4  A    between atoms: C_2  and  C_13
    5  A    between atoms: C_3  and  N_4
    6  A    between atoms: C_3  and  C_12
    7  A    between atoms: C_6  and  O_7
    8  A    between atoms: C_6  and  C_12
    9  A    between atoms: N_11  and  C_14
   10  A    between atoms: C_14  and  C_22
   11  A    between atoms: C_19  and  C_37
                            x       y       z     vdW  Elec       q    Type
                         _______ _______ _______ _____ _____    ______ ____

>  <TORSDO>
F 11

$$$$
