=
 OpenBabel10272400543D

 25 28  0  0  1  0  0  0  0  0999 V2000
  186.8630  178.1630  143.0000 C   0  0  0  0  0  0  0  0  0  0  0  0
  188.1260  177.7670  142.5430 C   0  0  0  0  0  0  0  0  0  0  0  0
  186.1820  178.7920  140.7890 C   0  0  0  0  0  3  0  0  0  0  0  0
  186.2910  178.1620  144.3340 C   0  0  2  0  0  3  0  0  0  0  0  0
  190.5120  177.7880  143.3370 C   0  0  2  0  0  3  0  0  0  0  0  0
  184.7440  178.3770  146.6280 C   0  0  0  0  0  3  0  0  0  0  0  0
  187.4040  178.4040  140.3300 N   0  0  0  0  0  0  0  0  0  0  0  0
  185.0040  178.6610  144.2540 C   0  0  0  0  0  0  0  0  0  0  0  0
  184.2070  178.7790  145.3940 C   0  0  0  0  0  3  0  0  0  0  0  0
  189.7280  177.5600  140.5340 C   0  0  2  0  0  3  0  0  0  0  0  0
  189.6060  177.1350  139.0800 C   0  0  0  0  0  1  0  0  0  0  0  0
  189.1180  177.1960  143.5210 C   0  0  0  0  0  2  0  0  0  0  0  0
  186.0550  177.8690  146.7060 C   0  0  0  0  0  3  0  0  0  0  0  0
  185.9070  178.6650  142.1430 C   0  0  0  0  0  0  0  0  0  0  0  0
  184.6370  179.0290  142.8500 C   0  0  0  0  0  3  0  0  0  0  0  0
  190.3870  176.5500  141.2450 O   0  0  0  0  0  0  0  0  0  0  0  0
  186.8430  177.7580  145.5500 C   0  0  0  0  0  3  0  0  0  0  0  0
  191.2580  177.2040  142.1300 C   0  0  0  0  0  2  0  0  0  0  0  0
  188.3740  177.8770  141.1420 C   0  0  0  0  0  0  0  0  0  0  0  0
  191.3600  177.7520  144.6160 C   0  0  0  0  0  2  0  0  0  0  0  0
  192.1540  175.5740  145.3080 F   0  0  0  0  0  0  0  0  0  0  0  0
  191.1750  176.5280  145.5240 C   0  0  1  0  0  3  0  0  0  0  0  0
  191.0650  176.8770  146.9710 C   0  0  0  0  0  0  0  0  0  0  0  0
  189.8360  177.2260  147.5180 O   0  0  0  0  0  0  0  0  0  0  0  0
  192.0850  176.8310  147.7070 O   0  0  0  0  0  1  0  0  0  0  0  0
  1  4  1  0  0  0  0
  2  1  1  0  0  0  0
  2 12  1  0  0  0  0
  3 14  1  0  0  0  0
  4 17  1  1  0  0  0
  5 12  1  0  0  0  0
  5 20  1  1  0  0  0
  6 13  1  0  0  0  0
  7  3  2  0  0  0  0
  7 19  1  0  0  0  0
  8  4  1  0  0  0  0
  8  9  1  0  0  0  0
  9  6  2  0  0  0  0
 10 11  1  6  0  0  0
 10 19  1  0  0  0  0
 10 16  1  0  0  0  0
 14 15  1  0  0  0  0
 14  1  2  0  0  0  0
 15  8  2  0  0  0  0
 16 18  1  0  0  0  0
 17 13  2  0  0  0  0
 18  5  1  0  0  0  0
 19  2  2  0  0  0  0
 20 22  1  0  0  0  0
 22 21  1  1  0  0  0
 22 23  1  0  0  0  0
 23 24  2  0  0  0  0
 23 25  1  0  0  0  0
M  END
>  <MODEL>
1

>  <REMARK>
 VINA RESULT:     -10.4      0.000      0.000
  Name = 
  3 active torsions:
  status: ('A' for Active; 'I' for Inactive)
    1  A    between atoms: C_2  and  C_25
    2  A    between atoms: C_6  and  C_15
    3  A    between atoms: C_15  and  C_25
                            x       y       z     vdW  Elec       q    Type
                         _______ _______ _______ _____ _____    ______ ____

>  <TORSDO>
F 3

$$$$
=
 OpenBabel10272400543D

 25 28  0  0  1  0  0  0  0  0999 V2000
  187.6960  177.8150  145.6150 C   0  0  0  0  0  0  0  0  0  0  0  0
  186.8900  178.0080  144.4860 C   0  0  0  0  0  0  0  0  0  0  0  0
  185.9620  178.5970  147.0740 C   0  0  0  0  0  3  0  0  0  0  0  0
  189.0590  177.3300  145.7390 C   0  0  0  0  0  0  0  0  0  0  0  0
  187.1400  178.7270  142.0890 C   0  0  2  0  0  3  0  0  0  0  0  0
  191.5830  176.4890  146.5280 C   0  0  0  0  0  3  0  0  0  0  0  0
  185.1650  178.7830  145.9860 N   0  0  0  0  0  0  0  0  0  0  0  0
  189.4000  177.3330  147.0790 C   0  0  0  0  0  0  0  0  0  0  0  0
  190.6630  176.9160  147.5000 C   0  0  0  0  0  3  0  0  0  0  0  0
  184.6220  178.8170  143.5650 C   0  0  2  0  0  3  0  0  0  0  0  0
  183.1660  178.6870  143.9810 C   0  0  0  0  0  1  0  0  0  0  0  0
  187.4260  177.6450  143.1270 C   0  0  0  0  0  2  0  0  0  0  0  0
  191.2320  176.4870  145.1640 C   0  0  0  0  0  3  0  0  0  0  0  0
  187.2440  178.1020  146.8860 C   0  0  2  0  0  3  0  0  0  0  0  0
  188.2750  177.8260  147.9370 C   0  0  0  0  0  3  0  0  0  0  0  0
  184.8500  177.9900  142.4580 O   0  0  0  0  0  0  0  0  0  0  0  0
  189.9580  176.9110  144.7580 C   0  0  0  0  0  3  0  0  0  0  0  0
  185.6870  178.7170  141.5970 C   0  0  0  0  0  2  0  0  0  0  0  0
  185.5640  178.4880  144.7080 C   0  0  0  0  0  0  0  0  0  0  0  0
  188.1450  178.7370  140.9300 C   0  0  0  0  0  2  0  0  0  0  0  0
  188.1250  177.2420  139.0270 F   0  0  0  0  0  0  0  0  0  0  0  0
  188.5270  177.3700  140.3450 C   0  0  1  0  0  3  0  0  0  0  0  0
  189.9750  177.0420  140.5070 C   0  0  0  0  0  0  0  0  0  0  0  0
  190.5830  176.1160  139.6670 O   0  0  0  0  0  0  0  0  0  0  0  0
  190.6550  177.6250  141.3910 O   0  0  0  0  0  1  0  0  0  0  0  0
  1  4  2  0  0  0  0
  1 14  1  0  0  0  0
  2 19  2  0  0  0  0
  2  1  1  0  0  0  0
  4  8  1  0  0  0  0
  5 20  1  6  0  0  0
  5 12  1  0  0  0  0
  6  9  2  0  0  0  0
  7  3  2  0  0  0  0
  8  9  1  0  0  0  0
  8 15  2  0  0  0  0
 10 11  1  1  0  0  0
 10 19  1  0  0  0  0
 12  2  1  0  0  0  0
 13  6  1  0  0  0  0
 14  3  1  6  0  0  0
 14 15  1  0  0  0  0
 16 10  1  0  0  0  0
 17 13  2  0  0  0  0
 17  4  1  0  0  0  0
 18  5  1  0  0  0  0
 18 16  1  0  0  0  0
 19  7  1  0  0  0  0
 22 21  1  6  0  0  0
 22 23  1  0  0  0  0
 22 20  1  0  0  0  0
 23 25  1  0  0  0  0
 24 23  2  0  0  0  0
M  END
>  <MODEL>
2

>  <REMARK>
 VINA RESULT:     -10.3      2.850      5.706
  Name = 
  3 active torsions:
  status: ('A' for Active; 'I' for Inactive)
    1  A    between atoms: C_2  and  C_25
    2  A    between atoms: C_6  and  C_15
    3  A    between atoms: C_15  and  C_25
                            x       y       z     vdW  Elec       q    Type
                         _______ _______ _______ _____ _____    ______ ____

>  <TORSDO>
F 3

$$$$
=
 OpenBabel10272400543D

 25 28  0  0  1  0  0  0  0  0999 V2000
  187.2280  177.9140  145.6960 C   0  0  0  0  0  0  0  0  0  0  0  0
  188.5610  177.5690  145.4370 C   0  0  0  0  0  0  0  0  0  0  0  0
  187.5090  177.5240  148.0450 C   0  0  0  0  0  3  0  0  0  0  0  0
  186.1620  178.3250  144.8010 C   0  0  2  0  0  3  0  0  0  0  0  0
  189.8980  176.4080  143.6520 C   0  0  2  0  0  3  0  0  0  0  0  0
  183.8140  179.1330  143.5620 C   0  0  0  0  0  3  0  0  0  0  0  0
  188.8080  177.1930  147.8090 N   0  0  0  0  0  0  0  0  0  0  0  0
  185.0240  178.5450  145.5550 C   0  0  0  0  0  0  0  0  0  0  0  0
  183.8320  178.9510  144.9550 C   0  0  0  0  0  3  0  0  0  0  0  0
  190.8060  176.7510  146.4050 C   0  0  2  0  0  3  0  0  0  0  0  0
  191.6320  177.0470  147.6460 C   0  0  0  0  0  1  0  0  0  0  0  0
  189.0810  177.6410  144.0260 C   0  0  0  0  0  2  0  0  0  0  0  0
  184.9740  178.9080  142.7970 C   0  0  0  0  0  3  0  0  0  0  0  0
  186.7090  177.8930  146.9730 C   0  0  0  0  0  0  0  0  0  0  0  0
  185.2650  178.2910  147.0110 C   0  0  0  0  0  3  0  0  0  0  0  0
  191.4250  177.3450  145.2990 O   0  0  0  0  0  0  0  0  0  0  0  0
  186.1650  178.4990  143.4160 C   0  0  0  0  0  3  0  0  0  0  0  0
  191.3110  176.4210  144.2490 C   0  0  0  0  0  2  0  0  0  0  0  0
  189.3720  177.2230  146.5600 C   0  0  0  0  0  0  0  0  0  0  0  0
  189.9080  176.1220  142.1440 C   0  0  0  0  0  2  0  0  0  0  0  0
  191.4270  177.2040  140.6030 F   0  0  0  0  0  0  0  0  0  0  0  0
  190.1960  177.3170  141.2240 C   0  0  1  0  0  3  0  0  0  0  0  0
  189.1080  177.5750  140.2340 C   0  0  0  0  0  0  0  0  0  0  0  0
  188.1330  178.5310  140.4950 O   0  0  0  0  0  1  0  0  0  0  0  0
  189.0880  176.9450  139.1450 O   0  0  0  0  0  0  0  0  0  0  0  0
  1 14  1  0  0  0  0
  2  1  2  0  0  0  0
  2 19  1  0  0  0  0
  4 17  1  6  0  0  0
  4  8  1  0  0  0  0
  4  1  1  0  0  0  0
  5 20  1  6  0  0  0
  5 12  1  0  0  0  0
  5 18  1  0  0  0  0
  6  9  2  0  0  0  0
  7  3  1  0  0  0  0
  8 15  2  0  0  0  0
  9  8  1  0  0  0  0
 10 19  1  0  0  0  0
 10 11  1  1  0  0  0
 12  2  1  0  0  0  0
 13 17  2  0  0  0  0
 13  6  1  0  0  0  0
 14 15  1  0  0  0  0
 14  3  2  0  0  0  0
 16 10  1  0  0  0  0
 18 16  1  0  0  0  0
 19  7  2  0  0  0  0
 22 21  1  6  0  0  0
 22 20  1  0  0  0  0
 23 24  1  0  0  0  0
 23 22  1  0  0  0  0
 25 23  2  0  0  0  0
M  END
>  <MODEL>
3

>  <REMARK>
 VINA RESULT:     -10.3      2.289      4.994
  Name = 
  3 active torsions:
  status: ('A' for Active; 'I' for Inactive)
    1  A    between atoms: C_2  and  C_25
    2  A    between atoms: C_6  and  C_15
    3  A    between atoms: C_15  and  C_25
                            x       y       z     vdW  Elec       q    Type
                         _______ _______ _______ _____ _____    ______ ____

>  <TORSDO>
F 3

$$$$
=
 OpenBabel10272400543D

 25 28  0  0  1  0  0  0  0  0999 V2000
  185.8450  178.3150  144.7800 C   0  0  0  0  0  0  0  0  0  0  0  0
  187.1800  178.0380  145.1010 C   0  0  0  0  0  0  0  0  0  0  0  0
  185.2360  178.4190  147.0960 C   0  0  0  0  0  3  0  0  0  0  0  0
  185.1850  178.4530  143.4940 C   0  0  0  0  0  0  0  0  0  0  0  0
  189.0890  176.6640  144.2110 C   0  0  2  0  0  3  0  0  0  0  0  0
  183.4610  178.8060  141.3480 C   0  0  0  0  0  3  0  0  0  0  0  0
  186.5310  178.1570  147.4230 N   0  0  0  0  0  0  0  0  0  0  0  0
  183.8480  178.7230  143.7200 C   0  0  0  0  0  0  0  0  0  0  0  0
  182.9620  178.9030  142.6580 C   0  0  0  0  0  2  0  0  0  0  0  0
  188.9090  177.6140  146.9660 C   0  0  2  0  0  3  0  0  0  0  0  0
  189.2140  178.2160  148.3270 C   0  0  0  0  0  1  0  0  0  0  0  0
  188.1860  177.8740  143.9930 C   0  0  0  0  0  2  0  0  0  0  0  0
  184.8230  178.5310  141.1220 C   0  0  0  0  0  3  0  0  0  0  0  0
  184.8890  178.5040  145.7550 C   0  0  0  0  0  0  0  0  0  0  0  0
  183.5320  178.7800  145.1830 C   0  0  0  0  0  3  0  0  0  0  0  0
  189.8920  178.0280  146.0590 O   0  0  0  0  0  0  0  0  0  0  0  0
  185.7010  178.3510  142.2020 C   0  0  0  0  0  3  0  0  0  0  0  0
  190.1790  176.9100  145.2620 C   0  0  0  0  0  2  0  0  0  0  0  0
  187.5180  177.9880  146.4870 C   0  0  0  0  0  0  0  0  0  0  0  0
  189.6580  176.0880  142.9070 C   0  0  0  0  0  2  0  0  0  0  0  0
  191.7680  176.9130  142.0580 F   0  0  0  0  0  0  0  0  0  0  0  0
  190.3960  177.0740  141.9900 C   0  0  1  0  0  3  0  0  0  0  0  0
  189.9130  177.0420  140.5780 C   0  0  0  0  0  0  0  0  0  0  0  0
  190.4780  176.1630  139.6620 O   0  0  0  0  0  0  0  0  0  0  0  0
  188.9710  177.7960  140.2200 O   0  0  0  0  0  1  0  0  0  0  0  0
  1  2  2  0  0  0  0
  1 14  1  0  0  0  0
  2 19  1  0  0  0  0
  3  7  1  0  0  0  0
  4  8  1  0  0  0  0
  4  1  1  0  0  0  0
  5 20  1  6  0  0  0
  5 18  1  0  0  0  0
  6  9  1  0  0  0  0
  8 15  2  0  0  0  0
  9  8  1  0  0  0  0
 10 11  1  1  0  0  0
 12  5  1  0  0  0  0
 12  2  1  0  0  0  0
 13  6  2  0  0  0  0
 13 17  1  0  0  0  0
 14  3  2  0  0  0  0
 15 14  1  0  0  0  0
 16 10  1  0  0  0  0
 17  4  2  0  0  0  0
 18 16  1  0  0  0  0
 19 10  1  0  0  0  0
 19  7  2  0  0  0  0
 22 21  1  6  0  0  0
 22 20  1  0  0  0  0
 23 22  1  0  0  0  0
 24 23  2  0  0  0  0
 25 23  1  0  0  0  0
M  END
>  <MODEL>
4

>  <REMARK>
 VINA RESULT:     -10.0      2.070      4.980
  Name = 
  3 active torsions:
  status: ('A' for Active; 'I' for Inactive)
    1  A    between atoms: C_2  and  C_25
    2  A    between atoms: C_6  and  C_15
    3  A    between atoms: C_15  and  C_25
                            x       y       z     vdW  Elec       q    Type
                         _______ _______ _______ _____ _____    ______ ____

>  <TORSDO>
F 3

$$$$
=
 OpenBabel10272400543D

 25 28  0  0  1  0  0  0  0  0999 V2000
  186.8710  178.1520  142.8770 C   0  0  0  0  0  0  0  0  0  0  0  0
  187.8300  177.8170  141.9130 C   0  0  0  0  0  0  0  0  0  0  0  0
  185.4330  179.1110  141.2160 C   0  0  0  0  0  3  0  0  0  0  0  0
  186.8610  177.9560  144.3160 C   0  0  2  0  0  3  0  0  0  0  0  0
  190.3330  177.6960  141.7020 C   0  0  2  0  0  3  0  0  0  0  0  0
  186.3390  177.8400  147.0390 C   0  0  0  0  0  3  0  0  0  0  0  0
  186.3530  178.7840  140.2670 N   0  0  0  0  0  0  0  0  0  0  0  0
  185.6800  178.4740  144.8150 C   0  0  0  0  0  0  0  0  0  0  0  0
  185.3960  178.4280  146.1800 C   0  0  0  0  0  3  0  0  0  0  0  0
  188.5130  177.8980  139.4280 C   0  0  2  0  0  3  0  0  0  0  0  0
  187.8100  177.6960  138.0960 C   0  0  0  0  0  1  0  0  0  0  0  0
  189.0820  177.0960  142.3370 C   0  0  0  0  0  2  0  0  0  0  0  0
  187.5410  177.3140  146.5270 C   0  0  0  0  0  3  0  0  0  0  0  0
  185.6940  178.7860  142.5400 C   0  0  0  0  0  0  0  0  0  0  0  0
  184.8240  179.0520  143.7300 C   0  0  0  0  0  3  0  0  0  0  0  0
  189.3250  176.7870  139.6820 O   0  0  0  0  0  0  0  0  0  0  0  0
  187.8120  177.3690  145.1510 C   0  0  0  0  0  3  0  0  0  0  0  0
  190.5130  177.2920  140.2330 C   0  0  0  0  0  2  0  0  0  0  0  0
  187.5240  178.1330  140.5550 C   0  0  0  0  0  0  0  0  0  0  0  0
  191.6050  177.4610  142.5280 C   0  0  0  0  0  2  0  0  0  0  0  0
  190.5700  178.9160  144.1610 F   0  0  0  0  0  0  0  0  0  0  0  0
  191.6020  178.0170  143.9600 C   0  0  1  0  0  3  0  0  0  0  0  0
  191.6090  176.9530  145.0070 C   0  0  0  0  0  0  0  0  0  0  0  0
  191.5840  177.2930  146.3540 O   0  0  0  0  0  1  0  0  0  0  0  0
  191.6110  175.7400  144.6690 O   0  0  0  0  0  0  0  0  0  0  0  0
  1  4  1  0  0  0  0
  2 12  1  0  0  0  0
  2  1  1  0  0  0  0
  3 14  1  0  0  0  0
  4  8  1  0  0  0  0
  4 17  1  1  0  0  0
  5 12  1  0  0  0  0
  5 20  1  1  0  0  0
  7 19  1  0  0  0  0
  7  3  2  0  0  0  0
  8  9  1  0  0  0  0
  9  6  2  0  0  0  0
 10 11  1  6  0  0  0
 10 16  1  0  0  0  0
 10 19  1  0  0  0  0
 13  6  1  0  0  0  0
 14  1  2  0  0  0  0
 14 15  1  0  0  0  0
 15  8  2  0  0  0  0
 16 18  1  0  0  0  0
 17 13  2  0  0  0  0
 18  5  1  0  0  0  0
 19  2  2  0  0  0  0
 20 22  1  0  0  0  0
 22 21  1  1  0  0  0
 22 23  1  0  0  0  0
 23 24  1  0  0  0  0
 25 23  2  0  0  0  0
M  END
>  <MODEL>
5

>  <REMARK>
 VINA RESULT:      -9.8      1.445      1.763
  Name = 
  3 active torsions:
  status: ('A' for Active; 'I' for Inactive)
    1  A    between atoms: C_2  and  C_25
    2  A    between atoms: C_6  and  C_15
    3  A    between atoms: C_15  and  C_25
                            x       y       z     vdW  Elec       q    Type
                         _______ _______ _______ _____ _____    ______ ____

>  <TORSDO>
F 3

$$$$
=
 OpenBabel10272400543D

 25 28  0  0  1  0  0  0  0  0999 V2000
  186.9980  177.9260  145.2180 C   0  0  0  0  0  0  0  0  0  0  0  0
  188.3030  177.6550  144.7910 C   0  0  0  0  0  0  0  0  0  0  0  0
  187.5440  177.3550  147.4820 C   0  0  0  0  0  3  0  0  0  0  0  0
  185.8280  178.3690  144.4800 C   0  0  2  0  0  3  0  0  0  0  0  0
  189.4710  176.6980  142.7800 C   0  0  2  0  0  3  0  0  0  0  0  0
  183.3370  179.1860  143.5720 C   0  0  0  0  0  3  0  0  0  0  0  0
  188.8190  177.0950  147.0810 N   0  0  0  0  0  0  0  0  0  0  0  0
  184.7730  178.4830  145.3670 C   0  0  0  0  0  0  0  0  0  0  0  0
  183.5120  178.8900  144.9340 C   0  0  0  0  0  3  0  0  0  0  0  0
  190.6640  176.8470  145.4410 C   0  0  2  0  0  3  0  0  0  0  0  0
  191.6110  177.0710  146.6080 C   0  0  0  0  0  1  0  0  0  0  0  0
  188.6640  177.8630  143.3440 C   0  0  0  0  0  2  0  0  0  0  0  0
  184.4130  179.0690  142.6710 C   0  0  0  0  0  3  0  0  0  0  0  0
  186.6210  177.7810  146.5360 C   0  0  0  0  0  0  0  0  0  0  0  0
  185.1790  178.1180  146.7620 C   0  0  0  0  0  3  0  0  0  0  0  0
  191.1410  177.5530  144.3310 O   0  0  0  0  0  0  0  0  0  0  0  0
  185.6760  178.6560  143.1230 C   0  0  0  0  0  3  0  0  0  0  0  0
  190.9400  176.7150  143.2230 C   0  0  0  0  0  2  0  0  0  0  0  0
  189.2420  177.2500  145.7870 C   0  0  0  0  0  0  0  0  0  0  0  0
  189.3250  176.5370  141.2610 C   0  0  0  0  0  2  0  0  0  0  0  0
  191.2450  176.8670  139.8260 F   0  0  0  0  0  0  0  0  0  0  0  0
  190.1490  177.4960  140.3900 C   0  0  1  0  0  3  0  0  0  0  0  0
  189.3360  178.2030  139.3570 C   0  0  0  0  0  0  0  0  0  0  0  0
  189.7320  178.1960  138.0250 O   0  0  0  0  0  0  0  0  0  0  0  0
  188.2700  178.7860  139.6880 O   0  0  0  0  0  1  0  0  0  0  0  0
  1 14  1  0  0  0  0
  2  1  2  0  0  0  0
  2 19  1  0  0  0  0
  4 17  1  6  0  0  0
  4  1  1  0  0  0  0
  4  8  1  0  0  0  0
  5 20  1  6  0  0  0
  5 18  1  0  0  0  0
  5 12  1  0  0  0  0
  6  9  2  0  0  0  0
  7  3  1  0  0  0  0
  8 15  2  0  0  0  0
  9  8  1  0  0  0  0
 10 19  1  0  0  0  0
 10 11  1  1  0  0  0
 12  2  1  0  0  0  0
 13 17  2  0  0  0  0
 13  6  1  0  0  0  0
 14 15  1  0  0  0  0
 14  3  2  0  0  0  0
 16 10  1  0  0  0  0
 18 16  1  0  0  0  0
 19  7  2  0  0  0  0
 22 21  1  6  0  0  0
 22 20  1  0  0  0  0
 23 25  1  0  0  0  0
 23 22  1  0  0  0  0
 24 23  2  0  0  0  0
M  END
>  <MODEL>
6

>  <REMARK>
 VINA RESULT:      -9.7      2.373      5.008
  Name = 
  3 active torsions:
  status: ('A' for Active; 'I' for Inactive)
    1  A    between atoms: C_2  and  C_25
    2  A    between atoms: C_6  and  C_15
    3  A    between atoms: C_15  and  C_25
                            x       y       z     vdW  Elec       q    Type
                         _______ _______ _______ _____ _____    ______ ____

>  <TORSDO>
F 3

$$$$
=
 OpenBabel10272400543D

 25 28  0  0  1  0  0  0  0  0999 V2000
  186.3200  178.0800  145.0570 C   0  0  0  0  0  0  0  0  0  0  0  0
  185.9090  178.1760  143.7210 C   0  0  0  0  0  0  0  0  0  0  0  0
  184.1850  178.8390  145.8410 C   0  0  0  0  0  3  0  0  0  0  0  0
  187.5880  177.6740  145.6350 C   0  0  0  0  0  0  0  0  0  0  0  0
  186.8840  178.7910  141.4860 C   0  0  2  0  0  3  0  0  0  0  0  0
  189.7560  177.0060  147.2320 C   0  0  0  0  0  3  0  0  0  0  0  0
  183.7700  178.9300  144.5470 N   0  0  0  0  0  0  0  0  0  0  0  0
  187.4840  177.7600  147.0110 C   0  0  0  0  0  0  0  0  0  0  0  0
  188.5610  177.4310  147.8350 C   0  0  0  0  0  3  0  0  0  0  0  0
  184.0260  178.8190  142.0820 C   0  0  2  0  0  3  0  0  0  0  0  0
  182.5190  178.6330  142.0240 C   0  0  0  0  0  1  0  0  0  0  0  0
  186.8630  177.7770  142.6270 C   0  0  0  0  0  2  0  0  0  0  0  0
  189.8590  176.9200  145.8310 C   0  0  0  0  0  3  0  0  0  0  0  0
  185.4770  178.4040  146.0990 C   0  0  2  0  0  3  0  0  0  0  0  0
  186.1280  178.2340  147.4370 C   0  0  0  0  0  3  0  0  0  0  0  0
  184.6230  177.9530  141.1580 O   0  0  0  0  0  0  0  0  0  0  0  0
  188.7670  177.2560  145.0160 C   0  0  0  0  0  3  0  0  0  0  0  0
  185.6650  178.6810  140.5620 C   0  0  0  0  0  2  0  0  0  0  0  0
  184.5660  178.5950  143.4830 C   0  0  0  0  0  0  0  0  0  0  0  0
  188.2060  178.7980  140.7060 C   0  0  0  0  0  2  0  0  0  0  0  0
  188.4710  177.5270  138.6630 F   0  0  0  0  0  0  0  0  0  0  0  0
  188.6120  177.4760  140.0390 C   0  0  1  0  0  3  0  0  0  0  0  0
  189.9770  177.0130  140.4290 C   0  0  0  0  0  0  0  0  0  0  0  0
  190.6840  176.1410  139.6100 O   0  0  0  0  0  0  0  0  0  0  0  0
  190.5020  177.4340  141.4930 O   0  0  0  0  0  1  0  0  0  0  0  0
  1  4  2  0  0  0  0
  1 14  1  0  0  0  0
  2  1  1  0  0  0  0
  4  8  1  0  0  0  0
  5 20  1  6  0  0  0
  5 12  1  0  0  0  0
  6  9  2  0  0  0  0
  7  3  2  0  0  0  0
  8 15  2  0  0  0  0
  8  9  1  0  0  0  0
 10 11  1  1  0  0  0
 10 19  1  0  0  0  0
 12  2  1  0  0  0  0
 13  6  1  0  0  0  0
 14  3  1  6  0  0  0
 14 15  1  0  0  0  0
 16 10  1  0  0  0  0
 17  4  1  0  0  0  0
 17 13  2  0  0  0  0
 18 16  1  0  0  0  0
 18  5  1  0  0  0  0
 19  2  2  0  0  0  0
 19  7  1  0  0  0  0
 22 21  1  6  0  0  0
 22 23  1  0  0  0  0
 22 20  1  0  0  0  0
 23 25  1  0  0  0  0
 24 23  2  0  0  0  0
M  END
>  <MODEL>
7

>  <REMARK>
 VINA RESULT:      -9.7      2.860      5.264
  Name = 
  3 active torsions:
  status: ('A' for Active; 'I' for Inactive)
    1  A    between atoms: C_2  and  C_25
    2  A    between atoms: C_6  and  C_15
    3  A    between atoms: C_15  and  C_25
                            x       y       z     vdW  Elec       q    Type
                         _______ _______ _______ _____ _____    ______ ____

>  <TORSDO>
F 3

$$$$
=
 OpenBabel10272400543D

 25 28  0  0  1  0  0  0  0  0999 V2000
  186.6280  177.9820  145.1790 C   0  0  0  0  0  0  0  0  0  0  0  0
  185.6410  178.1550  144.2010 C   0  0  0  0  0  0  0  0  0  0  0  0
  185.1390  178.7080  146.9120 C   0  0  0  0  0  3  0  0  0  0  0  0
  188.0060  177.5360  145.0720 C   0  0  0  0  0  0  0  0  0  0  0  0
  185.4700  178.8900  141.8020 C   0  0  2  0  0  3  0  0  0  0  0  0
  190.6480  176.7660  145.4250 C   0  0  0  0  0  3  0  0  0  0  0  0
  184.1680  178.8740  145.9720 N   0  0  0  0  0  0  0  0  0  0  0  0
  188.5640  177.5450  146.3370 C   0  0  0  0  0  0  0  0  0  0  0  0
  189.8910  177.1630  146.5390 C   0  0  0  0  0  3  0  0  0  0  0  0
  183.2300  178.9010  143.6760 C   0  0  2  0  0  3  0  0  0  0  0  0
  181.8680  178.7280  144.3260 C   0  0  0  0  0  1  0  0  0  0  0  0
  185.9550  177.8130  142.7690 C   0  0  0  0  0  2  0  0  0  0  0  0
  190.0770  176.7590  144.1380 C   0  0  0  0  0  3  0  0  0  0  0  0
  186.3860  178.2510  146.5100 C   0  0  2  0  0  3  0  0  0  0  0  0
  187.5840  178.0020  147.3730 C   0  0  0  0  0  3  0  0  0  0  0  0
  183.2940  178.0860  142.5400 O   0  0  0  0  0  0  0  0  0  0  0  0
  188.7410  177.1470  143.9510 C   0  0  0  0  0  3  0  0  0  0  0  0
  183.9560  178.8390  141.5580 C   0  0  0  0  0  2  0  0  0  0  0  0
  184.3580  178.5950  144.6440 C   0  0  0  0  0  0  0  0  0  0  0  0
  186.2680  178.9330  140.4920 C   0  0  0  0  0  2  0  0  0  0  0  0
  184.6590  179.5550  138.7950 F   0  0  0  0  0  0  0  0  0  0  0  0
  185.5070  178.5460  139.2160 C   0  0  1  0  0  3  0  0  0  0  0  0
  186.4020  178.0910  138.1100 C   0  0  0  0  0  0  0  0  0  0  0  0
  185.9070  177.2820  137.0940 O   0  0  0  0  0  0  0  0  0  0  0  0
  187.6040  178.4630  138.0830 O   0  0  0  0  0  1  0  0  0  0  0  0
  1 14  1  0  0  0  0
  2 19  2  0  0  0  0
  2  1  1  0  0  0  0
  4  1  2  0  0  0  0
  4  8  1  0  0  0  0
  5 20  1  6  0  0  0
  5 12  1  0  0  0  0
  6  9  2  0  0  0  0
  7  3  2  0  0  0  0
  8  9  1  0  0  0  0
  8 15  2  0  0  0  0
 10 11  1  1  0  0  0
 10 19  1  0  0  0  0
 12  2  1  0  0  0  0
 13  6  1  0  0  0  0
 14  3  1  6  0  0  0
 14 15  1  0  0  0  0
 16 10  1  0  0  0  0
 17 13  2  0  0  0  0
 17  4  1  0  0  0  0
 18  5  1  0  0  0  0
 18 16  1  0  0  0  0
 19  7  1  0  0  0  0
 22 21  1  6  0  0  0
 22 20  1  0  0  0  0
 23 22  1  0  0  0  0
 24 23  2  0  0  0  0
 25 23  1  0  0  0  0
M  END
>  <MODEL>
8

>  <REMARK>
 VINA RESULT:      -9.3      4.018      6.846
  Name = 
  3 active torsions:
  status: ('A' for Active; 'I' for Inactive)
    1  A    between atoms: C_2  and  C_25
    2  A    between atoms: C_6  and  C_15
    3  A    between atoms: C_15  and  C_25
                            x       y       z     vdW  Elec       q    Type
                         _______ _______ _______ _____ _____    ______ ____

>  <TORSDO>
F 3

$$$$
=
 OpenBabel10272400543D

 25 28  0  0  1  0  0  0  0  0999 V2000
  189.5470  177.4220  143.9500 C   0  0  0  0  0  0  0  0  0  0  0  0
  188.7660  177.8200  142.8580 C   0  0  0  0  0  0  0  0  0  0  0  0
  191.2380  176.5280  142.5040 C   0  0  0  0  0  3  0  0  0  0  0  0
  189.3180  177.5430  145.3790 C   0  0  2  0  0  3  0  0  0  0  0  0
  186.3340  177.9900  142.2390 C   0  0  2  0  0  3  0  0  0  0  0  0
  189.3760  177.5110  148.1520 C   0  0  0  0  0  3  0  0  0  0  0  0
  190.4920  176.9170  141.4340 N   0  0  0  0  0  0  0  0  0  0  0  0
  190.3950  176.9820  146.0400 C   0  0  0  0  0  0  0  0  0  0  0  0
  190.4470  176.9540  147.4330 C   0  0  0  0  0  3  0  0  0  0  0  0
  188.5090  177.8770  140.2940 C   0  0  2  0  0  3  0  0  0  0  0  0
  189.4260  178.1370  139.1110 C   0  0  0  0  0  1  0  0  0  0  0  0
  187.4650  178.5370  143.1050 C   0  0  0  0  0  2  0  0  0  0  0  0
  188.2810  178.0800  147.4760 C   0  0  0  0  0  3  0  0  0  0  0  0
  190.7600  176.7890  143.7800 C   0  0  0  0  0  0  0  0  0  0  0  0
  191.4170  176.4480  145.0840 C   0  0  0  0  0  3  0  0  0  0  0  0
  187.6720  178.9860  140.4670 O   0  0  0  0  0  0  0  0  0  0  0  0
  188.2440  178.1000  146.0730 C   0  0  0  0  0  3  0  0  0  0  0  0
  186.4060  178.4710  140.7840 C   0  0  0  0  0  2  0  0  0  0  0  0
  189.2930  177.5700  141.5560 C   0  0  0  0  0  0  0  0  0  0  0  0
  184.9440  178.2000  142.8530 C   0  0  0  0  0  2  0  0  0  0  0  0
  184.8380  180.4780  143.6650 F   0  0  0  0  0  0  0  0  0  0  0  0
  184.8650  179.1510  144.0560 C   0  0  1  0  0  3  0  0  0  0  0  0
  183.7400  178.8350  144.9860 C   0  0  0  0  0  0  0  0  0  0  0  0
  183.9710  178.7100  146.3510 O   0  0  0  0  0  1  0  0  0  0  0  0
  182.5710  178.7060  144.5360 O   0  0  0  0  0  0  0  0  0  0  0  0
  1  4  1  0  0  0  0
  2 12  1  0  0  0  0
  2  1  1  0  0  0  0
  3 14  1  0  0  0  0
  4  8  1  0  0  0  0
  4 17  1  1  0  0  0
  5 20  1  1  0  0  0
  5 12  1  0  0  0  0
  7 19  1  0  0  0  0
  7  3  2  0  0  0  0
  8  9  1  0  0  0  0
  9  6  2  0  0  0  0
 10 11  1  6  0  0  0
 10 16  1  0  0  0  0
 10 19  1  0  0  0  0
 13  6  1  0  0  0  0
 14  1  2  0  0  0  0
 14 15  1  0  0  0  0
 15  8  2  0  0  0  0
 16 18  1  0  0  0  0
 17 13  2  0  0  0  0
 18  5  1  0  0  0  0
 19  2  2  0  0  0  0
 20 22  1  0  0  0  0
 22 21  1  6  0  0  0
 22 23  1  0  0  0  0
 23 24  1  0  0  0  0
 25 23  2  0  0  0  0
M  END
>  <MODEL>
9

>  <REMARK>
 VINA RESULT:      -9.2      3.113      5.340
  Name = 
  3 active torsions:
  status: ('A' for Active; 'I' for Inactive)
    1  A    between atoms: C_2  and  C_25
    2  A    between atoms: C_6  and  C_15
    3  A    between atoms: C_15  and  C_25
                            x       y       z     vdW  Elec       q    Type
                         _______ _______ _______ _____ _____    ______ ____

>  <TORSDO>
F 3

$$$$
