=
 OpenBabel10272414133D

 43 47  0  0  1  0  0  0  0  0999 V2000
  189.3130  177.2800  139.7870 C   0  0  1  0  0  3  0  0  0  0  0  0
  186.1350  175.6130  135.3280 C   0  0  0  0  0  0  0  0  0  0  0  0
  189.7740  177.5830  138.3510 C   0  0  1  0  0  3  0  0  0  0  0  0
  187.5310  177.1350  136.5980 C   0  0  0  0  0  0  0  0  0  0  0  0
  187.0890  174.6090  135.4740 C   0  0  0  0  0  3  0  0  0  0  0  0
  184.8810  175.3450  134.5770 C   0  0  0  0  0  1  0  0  0  0  0  0
  188.5030  176.1200  136.7610 C   0  0  0  0  0  0  0  0  0  0  0  0
  186.3530  176.8710  135.8950 C   0  0  0  0  0  3  0  0  0  0  0  0
  188.2630  174.8610  136.1860 C   0  0  0  0  0  3  0  0  0  0  0  0
  189.7220  176.3890  137.5000 N   0  0  0  0  0  0  0  0  0  0  0  0
  189.1130  178.7850  137.6690 C   0  0  0  0  0  2  0  0  0  0  0  0
  187.6780  178.4820  137.2480 C   0  0  0  0  0  2  0  0  0  0  0  0
  191.0400  174.5230  138.0760 O   0  0  0  0  0  1  0  0  0  0  0  0
  191.0810  175.2360  135.9350 O   0  0  0  0  0  1  0  0  0  0  0  0
  190.9880  175.6590  137.2640 C   0  0  0  0  0  0  0  0  0  0  0  0
  192.1910  176.5350  137.6250 C   0  0  0  0  0  2  0  0  0  0  0  0
  193.4060  175.7360  138.0680 C   0  0  0  0  0  1  0  0  0  0  0  0
  190.4590  176.7550  140.6380 C   0  0  0  0  0  2  0  0  0  0  0  0
  189.7520  176.4580  144.2690 C   0  0  0  0  0  2  0  0  0  0  0  0
  191.0430  177.0650  144.8180 C   0  0  0  0  0  0  0  0  0  0  0  0
  190.7950  177.5980  146.0680 F   0  0  0  0  0  0  0  0  0  0  0  0
  191.6310  177.6690  142.4550 C   0  0  0  0  0  2  0  0  0  0  0  0
  189.9380  176.0490  142.8070 C   0  0  0  0  0  2  0  0  0  0  0  0
  190.3130  177.2140  142.0100 N   0  0  0  0  0  0  0  0  0  0  0  0
  192.0090  176.0810  144.9350 F   0  0  0  0  0  0  0  0  0  0  0  0
  191.5480  178.1740  143.8950 C   0  0  0  0  0  2  0  0  0  0  0  0
  188.6400  178.4600  140.4760 C   0  0  0  0  0  2  0  0  0  0  0  0
  187.1300  178.4010  140.3030 C   0  0  0  0  0  2  0  0  0  0  0  0
  185.1780  179.1390  141.8250 C   0  0  0  0  0  0  0  0  0  0  0  0
  187.0070  177.7690  142.6660 C   0  0  0  0  0  3  0  0  0  0  0  0
  184.7400  179.3680  143.0330 N   0  0  0  0  0  0  0  0  0  0  0  0
  185.5140  179.0030  144.2230 C   0  0  2  0  0  3  0  0  0  0  0  0
  186.3090  177.7120  143.9950 C   0  0  0  0  0  2  0  0  0  0  0  0
  186.4460  178.4030  141.6310 C   0  0  0  0  0  0  0  0  0  0  0  0
  184.4480  179.5640  140.7090 O   0  0  0  0  0  0  0  0  0  0  0  0
  183.3450  178.8350  140.1850 C   0  0  0  0  0  2  0  0  0  0  0  0
  183.8100  177.8820  139.1010 C   0  0  0  0  0  1  0  0  0  0  0  0
  184.6170  178.9110  145.4510 C   0  0  0  0  0  2  0  0  0  0  0  0
  185.2530  178.0860  146.5590 C   0  0  0  0  0  2  0  0  0  0  0  0
  186.1170  178.9800  147.4210 C   0  0  0  0  0  2  0  0  0  0  0  0
  188.1840  178.2710  148.5680 C   0  0  0  0  0  2  0  0  0  0  0  0
  187.5740  178.6170  147.2250 C   0  0  0  0  0  3  0  0  0  0  0  0
  187.7800  177.1690  147.6150 C   0  0  0  0  0  2  0  0  0  0  0  0
  1 27  1  1  0  0  0
  1 18  1  0  0  0  0
  2  5  2  0  0  0  0
  2  8  1  0  0  0  0
  3  1  1  1  0  0  0
  4  7  1  0  0  0  0
  4 12  1  0  0  0  0
  5  9  1  0  0  0  0
  6  2  1  0  0  0  0
  7 10  1  0  0  0  0
  8  4  2  0  0  0  0
  9  7  2  0  0  0  0
 10  3  1  0  0  0  0
 11  3  1  0  0  0  0
 12 11  1  0  0  0  0
 14 15  1  0  0  0  0
 15 10  1  0  0  0  0
 15 16  1  0  0  0  0
 15 13  1  0  0  0  0
 16 17  1  0  0  0  0
 18 24  1  0  0  0  0
 19 20  1  0  0  0  0
 20 25  1  0  0  0  0
 20 21  1  0  0  0  0
 22 26  1  0  0  0  0
 23 19  1  0  0  0  0
 24 22  1  0  0  0  0
 24 23  1  0  0  0  0
 26 20  1  0  0  0  0
 28 27  1  0  0  0  0
 28 34  1  0  0  0  0
 29 31  2  0  0  0  0
 30 33  1  0  0  0  0
 31 32  1  0  0  0  0
 32 38  1  1  0  0  0
 33 32  1  0  0  0  0
 34 29  1  0  0  0  0
 34 30  2  0  0  0  0
 35 29  1  0  0  0  0
 36 35  1  0  0  0  0
 37 36  1  0  0  0  0
 38 39  1  0  0  0  0
 39 40  1  0  0  0  0
 42 40  1  0  0  0  0
 42 43  1  0  0  0  0
 42 41  1  0  0  0  0
 43 41  1  0  0  0  0
M  END
>  <MODEL>
1

>  <REMARK>
 VINA RESULT:      -8.4      0.000      0.000
  Name = 
  14 active torsions:
  status: ('A' for Active; 'I' for Inactive)
    1  A    between atoms: C_1  and  C_34
    2  A    between atoms: C_1  and  N_35
    3  A    between atoms: C_2  and  C_27
    4  A    between atoms: O_3  and  C_4
    5  A    between atoms: O_3  and  C_12
    6  A    between atoms: C_8  and  C_34
    7  A    between atoms: C_11  and  C_22
    8  A    between atoms: C_11  and  C_36
    9  A    between atoms: C_15  and  C_38
   10  A    between atoms: C_15  and  C_42
   11  A    between atoms: C_27  and  N_30
   12  A    between atoms: C_29  and  C_31
   13  A    between atoms: C_29  and  C_36
   14  A    between atoms: C_34  and  C_38
                            x       y       z     vdW  Elec       q    Type
                         _______ _______ _______ _____ _____    ______ ____

>  <TORSDO>
F 14

$$$$
=
 OpenBabel10272414133D

 43 47  0  0  1  0  0  0  0  0999 V2000
  188.9800  177.3660  139.7780 C   0  0  1  0  0  3  0  0  0  0  0  0
  185.3950  174.5020  136.3570 C   0  0  0  0  0  0  0  0  0  0  0  0
  189.1280  177.4580  138.2500 C   0  0  1  0  0  3  0  0  0  0  0  0
  186.7200  176.4030  137.0720 C   0  0  0  0  0  0  0  0  0  0  0  0
  186.5130  173.6770  136.4630 C   0  0  0  0  0  3  0  0  0  0  0  0
  184.0910  173.9360  135.9220 C   0  0  0  0  0  1  0  0  0  0  0  0
  187.8590  175.5730  137.1920 C   0  0  0  0  0  0  0  0  0  0  0  0
  185.4970  175.8600  136.6670 C   0  0  0  0  0  3  0  0  0  0  0  0
  187.7350  174.2100  136.8780 C   0  0  0  0  0  3  0  0  0  0  0  0
  189.1270  176.1330  137.6220 N   0  0  0  0  0  0  0  0  0  0  0  0
  188.1700  178.4170  137.5360 C   0  0  0  0  0  2  0  0  0  0  0  0
  186.7530  177.8530  137.4620 C   0  0  0  0  0  2  0  0  0  0  0  0
  191.4490  176.4890  137.4460 O   0  0  0  0  0  1  0  0  0  0  0  0
  190.7290  174.4380  138.0520 O   0  0  0  0  0  1  0  0  0  0  0  0
  190.4350  175.5470  137.2540 C   0  0  0  0  0  0  0  0  0  0  0  0
  190.4530  175.1510  135.7740 C   0  0  0  0  0  2  0  0  0  0  0  0
  190.5460  176.3430  134.8340 C   0  0  0  0  0  1  0  0  0  0  0  0
  190.3100  177.0460  140.4450 C   0  0  0  0  0  2  0  0  0  0  0  0
  189.7870  176.3920  144.0600 C   0  0  0  0  0  2  0  0  0  0  0  0
  191.1180  176.9160  144.5970 C   0  0  0  0  0  0  0  0  0  0  0  0
  190.9490  177.3230  145.9060 F   0  0  0  0  0  0  0  0  0  0  0  0
  191.5960  177.7470  142.2790 C   0  0  0  0  0  2  0  0  0  0  0  0
  189.8860  176.1310  142.5560 C   0  0  0  0  0  2  0  0  0  0  0  0
  190.2470  177.3650  141.8630 N   0  0  0  0  0  0  0  0  0  0  0  0
  192.0650  175.9070  144.5600 F   0  0  0  0  0  0  0  0  0  0  0  0
  191.6010  178.1040  143.7640 C   0  0  0  0  0  2  0  0  0  0  0  0
  188.3560  178.6040  140.4090 C   0  0  0  0  0  2  0  0  0  0  0  0
  187.6230  178.2470  141.6930 C   0  0  0  0  0  2  0  0  0  0  0  0
  185.3140  178.6520  142.7790 C   0  0  0  0  0  0  0  0  0  0  0  0
  185.6210  178.7230  140.3650 C   0  0  0  0  0  3  0  0  0  0  0  0
  184.0160  178.6470  142.6550 N   0  0  0  0  0  0  0  0  0  0  0  0
  183.3580  178.4580  141.3580 C   0  0  2  0  0  3  0  0  0  0  0  0
  184.1720  179.0940  140.2250 C   0  0  0  0  0  2  0  0  0  0  0  0
  186.1670  178.5620  141.5740 C   0  0  0  0  0  0  0  0  0  0  0  0
  185.9100  178.7640  144.0400 O   0  0  0  0  0  0  0  0  0  0  0  0
  185.6500  177.8530  145.1010 C   0  0  0  0  0  2  0  0  0  0  0  0
  184.9960  178.5730  146.2650 C   0  0  0  0  0  1  0  0  0  0  0  0
  181.9260  178.9740  141.3920 C   0  0  0  0  0  2  0  0  0  0  0  0
  180.9210  177.8850  141.0490 C   0  0  0  0  0  2  0  0  0  0  0  0
  181.1560  177.4090  139.6330 C   0  0  0  0  0  2  0  0  0  0  0  0
  181.5260  175.4230  138.2160 C   0  0  0  0  0  2  0  0  0  0  0  0
  181.4770  175.9280  139.6430 C   0  0  0  0  0  3  0  0  0  0  0  0
  182.8110  175.7070  138.9630 C   0  0  0  0  0  2  0  0  0  0  0  0
  1 27  1  1  0  0  0
  1 18  1  0  0  0  0
  2  5  2  0  0  0  0
  2  8  1  0  0  0  0
  3  1  1  1  0  0  0
  4  7  1  0  0  0  0
  4 12  1  0  0  0  0
  5  9  1  0  0  0  0
  6  2  1  0  0  0  0
  7 10  1  0  0  0  0
  8  4  2  0  0  0  0
  9  7  2  0  0  0  0
 10  3  1  0  0  0  0
 11  3  1  0  0  0  0
 12 11  1  0  0  0  0
 15 13  1  0  0  0  0
 15 10  1  0  0  0  0
 15 14  1  0  0  0  0
 16 15  1  0  0  0  0
 17 16  1  0  0  0  0
 18 24  1  0  0  0  0
 19 20  1  0  0  0  0
 20 21  1  0  0  0  0
 22 26  1  0  0  0  0
 23 19  1  0  0  0  0
 24 22  1  0  0  0  0
 24 23  1  0  0  0  0
 25 20  1  0  0  0  0
 26 20  1  0  0  0  0
 27 28  1  0  0  0  0
 29 35  1  0  0  0  0
 30 34  2  0  0  0  0
 31 29  2  0  0  0  0
 32 38  1  1  0  0  0
 32 31  1  0  0  0  0
 33 30  1  0  0  0  0
 33 32  1  0  0  0  0
 34 28  1  0  0  0  0
 34 29  1  0  0  0  0
 35 36  1  0  0  0  0
 36 37  1  0  0  0  0
 39 38  1  0  0  0  0
 40 42  1  0  0  0  0
 40 39  1  0  0  0  0
 41 43  1  0  0  0  0
 41 42  1  0  0  0  0
 43 42  1  0  0  0  0
M  END
>  <MODEL>
2

>  <REMARK>
 VINA RESULT:      -7.2      1.543      4.106
  Name = 
  14 active torsions:
  status: ('A' for Active; 'I' for Inactive)
    1  A    between atoms: C_1  and  C_34
    2  A    between atoms: C_1  and  N_35
    3  A    between atoms: C_2  and  C_27
    4  A    between atoms: O_3  and  C_4
    5  A    between atoms: O_3  and  C_12
    6  A    between atoms: C_8  and  C_34
    7  A    between atoms: C_11  and  C_22
    8  A    between atoms: C_11  and  C_36
    9  A    between atoms: C_15  and  C_38
   10  A    between atoms: C_15  and  C_42
   11  A    between atoms: C_27  and  N_30
   12  A    between atoms: C_29  and  C_31
   13  A    between atoms: C_29  and  C_36
   14  A    between atoms: C_34  and  C_38
                            x       y       z     vdW  Elec       q    Type
                         _______ _______ _______ _____ _____    ______ ____

>  <TORSDO>
F 14

$$$$
=
 OpenBabel10272414133D

 43 47  0  0  1  0  0  0  0  0999 V2000
  188.8400  176.4460  137.4400 C   0  0  1  0  0  3  0  0  0  0  0  0
  183.2030  175.9650  138.3070 C   0  0  0  0  0  0  0  0  0  0  0  0
  187.8680  176.4700  136.2480 C   0  0  1  0  0  3  0  0  0  0  0  0
  185.2120  176.8660  137.2920 C   0  0  0  0  0  0  0  0  0  0  0  0
  183.6230  174.6720  138.0000 C   0  0  0  0  0  3  0  0  0  0  0  0
  181.9120  176.1800  139.0120 C   0  0  0  0  0  1  0  0  0  0  0  0
  185.6520  175.5580  136.9830 C   0  0  0  0  0  0  0  0  0  0  0  0
  184.0000  177.0580  137.9600 C   0  0  0  0  0  3  0  0  0  0  0  0
  184.8380  174.4710  137.3440 C   0  0  0  0  0  3  0  0  0  0  0  0
  186.9160  175.3560  136.3000 N   0  0  0  0  0  0  0  0  0  0  0  0
  187.1580  177.8020  135.9840 C   0  0  0  0  0  2  0  0  0  0  0  0
  186.0600  178.0730  137.0090 C   0  0  0  0  0  2  0  0  0  0  0  0
  186.0750  173.8570  134.6870 O   0  0  0  0  0  1  0  0  0  0  0  0
  188.2570  174.4240  134.5790 O   0  0  0  0  0  1  0  0  0  0  0  0
  187.1980  174.1720  135.4560 C   0  0  0  0  0  0  0  0  0  0  0  0
  187.5130  172.9520  136.3270 C   0  0  0  0  0  2  0  0  0  0  0  0
  186.9210  171.6600  135.7880 C   0  0  0  0  0  1  0  0  0  0  0  0
  189.8170  175.2850  137.3340 C   0  0  0  0  0  2  0  0  0  0  0  0
  193.4660  175.7870  137.7910 C   0  0  0  0  0  2  0  0  0  0  0  0
  193.9510  175.2980  136.4270 C   0  0  0  0  0  0  0  0  0  0  0  0
  195.1520  175.9100  136.1280 F   0  0  0  0  0  0  0  0  0  0  0  0
  191.5410  175.1600  135.7450 C   0  0  0  0  0  2  0  0  0  0  0  0
  192.0430  175.2930  138.0570 C   0  0  0  0  0  2  0  0  0  0  0  0
  191.1470  175.7790  137.0110 N   0  0  0  0  0  0  0  0  0  0  0  0
  194.1440  173.9280  136.4650 F   0  0  0  0  0  0  0  0  0  0  0  0
  192.9320  175.6440  135.3410 C   0  0  0  0  0  2  0  0  0  0  0  0
  189.5930  177.7540  137.6430 C   0  0  0  0  0  2  0  0  0  0  0  0
  188.8620  178.6540  138.6270 C   0  0  0  0  0  2  0  0  0  0  0  0
  187.9450  178.3720  141.0260 C   0  0  0  0  0  0  0  0  0  0  0  0
  190.1240  177.4970  140.3780 C   0  0  0  0  0  3  0  0  0  0  0  0
  188.1950  178.1720  142.2900 N   0  0  0  0  0  0  0  0  0  0  0  0
  189.5320  177.8100  142.7720 C   0  0  2  0  0  3  0  0  0  0  0  0
  190.2660  176.9240  141.7590 C   0  0  0  0  0  2  0  0  0  0  0  0
  189.0060  178.1390  140.0220 C   0  0  0  0  0  0  0  0  0  0  0  0
  186.6760  178.7860  140.6060 O   0  0  0  0  0  0  0  0  0  0  0  0
  185.6480  179.1630  141.5130 C   0  0  0  0  0  2  0  0  0  0  0  0
  184.5730  178.0950  141.5650 C   0  0  0  0  0  1  0  0  0  0  0  0
  189.4610  177.1650  144.1500 C   0  0  0  0  0  2  0  0  0  0  0  0
  188.0250  176.9670  144.6110 C   0  0  0  0  0  2  0  0  0  0  0  0
  187.8210  177.6640  145.9390 C   0  0  0  0  0  2  0  0  0  0  0  0
  185.9310  179.0670  146.6750 C   0  0  0  0  0  2  0  0  0  0  0  0
  186.3480  177.6630  146.2900 C   0  0  0  0  0  3  0  0  0  0  0  0
  185.6030  178.5310  145.2990 C   0  0  0  0  0  2  0  0  0  0  0  0
  1 18  1  6  0  0  0
  1 27  1  0  0  0  0
  2  6  1  0  0  0  0
  3 10  1  0  0  0  0
  3  1  1  1  0  0  0
  4  8  1  0  0  0  0
  5  2  1  0  0  0  0
  7  4  2  0  0  0  0
  7  9  1  0  0  0  0
  8  2  2  0  0  0  0
  9  5  2  0  0  0  0
 10  7  1  0  0  0  0
 11  3  1  0  0  0  0
 11 12  1  0  0  0  0
 12  4  1  0  0  0  0
 13 15  1  0  0  0  0
 14 15  1  0  0  0  0
 15 10  1  0  0  0  0
 15 16  1  0  0  0  0
 17 16  1  0  0  0  0
 19 23  1  0  0  0  0
 20 25  1  0  0  0  0
 20 19  1  0  0  0  0
 21 20  1  0  0  0  0
 22 24  1  0  0  0  0
 24 18  1  0  0  0  0
 24 23  1  0  0  0  0
 26 22  1  0  0  0  0
 26 20  1  0  0  0  0
 27 28  1  0  0  0  0
 28 34  1  0  0  0  0
 29 31  2  0  0  0  0
 30 33  1  0  0  0  0
 31 32  1  0  0  0  0
 32 38  1  1  0  0  0
 33 32  1  0  0  0  0
 34 30  2  0  0  0  0
 34 29  1  0  0  0  0
 35 29  1  0  0  0  0
 35 36  1  0  0  0  0
 36 37  1  0  0  0  0
 38 39  1  0  0  0  0
 39 40  1  0  0  0  0
 40 42  1  0  0  0  0
 42 41  1  0  0  0  0
 43 42  1  0  0  0  0
 43 41  1  0  0  0  0
M  END
>  <MODEL>
3

>  <REMARK>
 VINA RESULT:      -7.2      2.757      4.925
  Name = 
  14 active torsions:
  status: ('A' for Active; 'I' for Inactive)
    1  A    between atoms: C_1  and  C_34
    2  A    between atoms: C_1  and  N_35
    3  A    between atoms: C_2  and  C_27
    4  A    between atoms: O_3  and  C_4
    5  A    between atoms: O_3  and  C_12
    6  A    between atoms: C_8  and  C_34
    7  A    between atoms: C_11  and  C_22
    8  A    between atoms: C_11  and  C_36
    9  A    between atoms: C_15  and  C_38
   10  A    between atoms: C_15  and  C_42
   11  A    between atoms: C_27  and  N_30
   12  A    between atoms: C_29  and  C_31
   13  A    between atoms: C_29  and  C_36
   14  A    between atoms: C_34  and  C_38
                            x       y       z     vdW  Elec       q    Type
                         _______ _______ _______ _____ _____    ______ ____

>  <TORSDO>
F 14

$$$$
=
 OpenBabel10272414133D

 43 47  0  0  1  0  0  0  0  0999 V2000
  190.2120  177.5800  142.2130 C   0  0  1  0  0  3  0  0  0  0  0  0
  186.2740  178.0820  146.3360 C   0  0  0  0  0  0  0  0  0  0  0  0
  190.0250  176.4560  143.2470 C   0  0  1  0  0  3  0  0  0  0  0  0
  187.5340  176.9300  144.6140 C   0  0  0  0  0  0  0  0  0  0  0  0
  187.4630  178.4990  146.9320 C   0  0  0  0  0  3  0  0  0  0  0  0
  184.9680  178.4720  146.9280 C   0  0  0  0  0  1  0  0  0  0  0  0
  188.7460  177.3550  145.2060 C   0  0  0  0  0  0  0  0  0  0  0  0
  186.3110  177.3050  145.1760 C   0  0  0  0  0  3  0  0  0  0  0  0
  188.6880  178.1380  146.3710 C   0  0  0  0  0  3  0  0  0  0  0  0
  190.0170  176.9750  144.6180 N   0  0  0  0  0  0  0  0  0  0  0  0
  188.8520  175.5030  143.0020 C   0  0  0  0  0  2  0  0  0  0  0  0
  187.5110  176.1560  143.3270 C   0  0  0  0  0  2  0  0  0  0  0  0
  192.0530  175.8220  144.8990 O   0  0  0  0  0  1  0  0  0  0  0  0
  192.0190  178.0390  145.3170 O   0  0  0  0  0  1  0  0  0  0  0  0
  191.2690  176.8630  145.4020 C   0  0  0  0  0  0  0  0  0  0  0  0
  190.9610  176.5380  146.8660 C   0  0  0  0  0  2  0  0  0  0  0  0
  191.9860  175.6160  147.5060 C   0  0  0  0  0  1  0  0  0  0  0  0
  191.5860  177.5120  141.5620 C   0  0  0  0  0  2  0  0  0  0  0  0
  192.7270  176.9170  138.0820 C   0  0  0  0  0  2  0  0  0  0  0  0
  191.7910  175.7660  137.7120 C   0  0  0  0  0  0  0  0  0  0  0  0
  191.6040  175.7580  136.3440 F   0  0  0  0  0  0  0  0  0  0  0  0
  190.6260  176.1630  139.8990 C   0  0  0  0  0  2  0  0  0  0  0  0
  192.7880  177.0850  139.6010 C   0  0  0  0  0  2  0  0  0  0  0  0
  191.4500  177.3500  140.1230 N   0  0  0  0  0  0  0  0  0  0  0  0
  192.3570  174.5630  138.0950 F   0  0  0  0  0  0  0  0  0  0  0  0
  190.4360  175.9380  138.3990 C   0  0  0  0  0  2  0  0  0  0  0  0
  189.1240  177.6190  141.1470 C   0  0  0  0  0  2  0  0  0  0  0  0
  188.4110  178.9620  141.1480 C   0  0  0  0  0  2  0  0  0  0  0  0
  186.4970  178.4130  139.5030 C   0  0  0  0  0  0  0  0  0  0  0  0
  186.0570  179.0150  141.8210 C   0  0  0  0  0  3  0  0  0  0  0  0
  185.2370  178.5350  139.1890 N   0  0  0  0  0  0  0  0  0  0  0  0
  184.2600  179.1290  140.1080 C   0  0  2  0  0  3  0  0  0  0  0  0
  184.5930  178.7920  141.5650 C   0  0  0  0  0  2  0  0  0  0  0  0
  186.9560  178.7880  140.8580 C   0  0  0  0  0  0  0  0  0  0  0  0
  187.4170  177.9080  138.5770 O   0  0  0  0  0  0  0  0  0  0  0  0
  187.5940  178.4660  137.2810 C   0  0  0  0  0  2  0  0  0  0  0  0
  188.9840  179.0590  137.1480 C   0  0  0  0  0  1  0  0  0  0  0  0
  182.8410  178.7170  139.7360 C   0  0  0  0  0  2  0  0  0  0  0  0
  182.5630  177.2620  140.0810 C   0  0  0  0  0  2  0  0  0  0  0  0
  182.4770  176.4500  138.8070 C   0  0  0  0  0  2  0  0  0  0  0  0
  180.9470  174.6420  138.1160 C   0  0  0  0  0  2  0  0  0  0  0  0
  181.0310  176.0970  138.5280 C   0  0  0  0  0  3  0  0  0  0  0  0
  180.5760  175.0520  139.5240 C   0  0  0  0  0  2  0  0  0  0  0  0
  1 27  1  6  0  0  0
  2  6  1  0  0  0  0
  2  5  1  0  0  0  0
  3  1  1  6  0  0  0
  3 10  1  0  0  0  0
  4  8  1  0  0  0  0
  4  7  2  0  0  0  0
  7  9  1  0  0  0  0
  8  2  2  0  0  0  0
  9  5  2  0  0  0  0
 10  7  1  0  0  0  0
 10 15  1  0  0  0  0
 11  3  1  0  0  0  0
 11 12  1  0  0  0  0
 12  4  1  0  0  0  0
 13 15  1  0  0  0  0
 14 15  1  0  0  0  0
 15 16  1  0  0  0  0
 16 17  1  0  0  0  0
 18  1  1  0  0  0  0
 19 23  1  0  0  0  0
 20 19  1  0  0  0  0
 20 25  1  0  0  0  0
 20 26  1  0  0  0  0
 21 20  1  0  0  0  0
 22 24  1  0  0  0  0
 23 24  1  0  0  0  0
 24 18  1  0  0  0  0
 26 22  1  0  0  0  0
 27 28  1  0  0  0  0
 29 34  1  0  0  0  0
 31 29  2  0  0  0  0
 31 32  1  0  0  0  0
 32 38  1  6  0  0  0
 32 33  1  0  0  0  0
 33 30  1  0  0  0  0
 34 28  1  0  0  0  0
 34 30  2  0  0  0  0
 35 29  1  0  0  0  0
 36 35  1  0  0  0  0
 37 36  1  0  0  0  0
 38 39  1  0  0  0  0
 40 39  1  0  0  0  0
 41 42  1  0  0  0  0
 41 43  1  0  0  0  0
 42 40  1  0  0  0  0
 42 43  1  0  0  0  0
M  END
>  <MODEL>
4

>  <REMARK>
 VINA RESULT:      -6.9      3.000      7.452
  Name = 
  14 active torsions:
  status: ('A' for Active; 'I' for Inactive)
    1  A    between atoms: C_1  and  C_34
    2  A    between atoms: C_1  and  N_35
    3  A    between atoms: C_2  and  C_27
    4  A    between atoms: O_3  and  C_4
    5  A    between atoms: O_3  and  C_12
    6  A    between atoms: C_8  and  C_34
    7  A    between atoms: C_11  and  C_22
    8  A    between atoms: C_11  and  C_36
    9  A    between atoms: C_15  and  C_38
   10  A    between atoms: C_15  and  C_42
   11  A    between atoms: C_27  and  N_30
   12  A    between atoms: C_29  and  C_31
   13  A    between atoms: C_29  and  C_36
   14  A    between atoms: C_34  and  C_38
                            x       y       z     vdW  Elec       q    Type
                         _______ _______ _______ _____ _____    ______ ____

>  <TORSDO>
F 14

$$$$
=
 OpenBabel10272414133D

 43 47  0  0  1  0  0  0  0  0999 V2000
  190.2410  176.5830  137.9560 C   0  0  1  0  0  3  0  0  0  0  0  0
  184.5570  176.9070  137.3680 C   0  0  0  0  0  0  0  0  0  0  0  0
  189.6070  176.6010  136.5540 C   0  0  1  0  0  3  0  0  0  0  0  0
  186.8640  177.4360  136.8450 C   0  0  0  0  0  0  0  0  0  0  0  0
  184.8430  175.5470  137.2740 C   0  0  0  0  0  3  0  0  0  0  0  0
  183.1790  177.3570  137.6980 C   0  0  0  0  0  1  0  0  0  0  0  0
  187.1680  176.0580  136.7550 C   0  0  0  0  0  0  0  0  0  0  0  0
  185.5670  177.8490  137.1610 C   0  0  0  0  0  3  0  0  0  0  0  0
  186.1380  175.1270  136.9700 C   0  0  0  0  0  3  0  0  0  0  0  0
  188.5160  175.6270  136.4380 N   0  0  0  0  0  0  0  0  0  0  0  0
  189.1890  177.9750  136.0210 C   0  0  0  0  0  2  0  0  0  0  0  0
  187.9250  178.4910  136.7050 C   0  0  0  0  0  2  0  0  0  0  0  0
  187.7160  173.9080  135.0390 O   0  0  0  0  0  1  0  0  0  0  0  0
  189.9010  174.4580  134.9070 O   0  0  0  0  0  1  0  0  0  0  0  0
  188.8190  174.3340  135.7830 C   0  0  0  0  0  0  0  0  0  0  0  0
  189.1090  173.2540  136.8300 C   0  0  0  0  0  2  0  0  0  0  0  0
  188.0070  172.2130  136.9410 C   0  0  0  0  0  1  0  0  0  0  0  0
  191.7600  176.5850  137.8760 C   0  0  0  0  0  2  0  0  0  0  0  0
  194.0070  175.2140  135.2600 C   0  0  0  0  0  2  0  0  0  0  0  0
  194.2050  173.8070  135.8230 C   0  0  0  0  0  0  0  0  0  0  0  0
  194.4970  172.9430  134.7870 F   0  0  0  0  0  0  0  0  0  0  0  0
  192.4650  174.3720  137.5400 C   0  0  0  0  0  2  0  0  0  0  0  0
  193.4770  176.1510  136.3470 C   0  0  0  0  0  2  0  0  0  0  0  0
  192.2090  175.6430  136.8630 N   0  0  0  0  0  0  0  0  0  0  0  0
  195.2610  173.8070  136.7180 F   0  0  0  0  0  0  0  0  0  0  0  0
  192.9350  173.3280  136.5270 C   0  0  0  0  0  2  0  0  0  0  0  0
  189.7570  177.7090  138.8610 C   0  0  0  0  0  2  0  0  0  0  0  0
  188.8310  177.1750  139.9430 C   0  0  0  0  0  2  0  0  0  0  0  0
  188.8940  178.0470  142.3740 C   0  0  0  0  0  0  0  0  0  0  0  0
  190.6460  176.6080  141.4860 C   0  0  0  0  0  3  0  0  0  0  0  0
  189.6040  178.3270  143.4310 N   0  0  0  0  0  0  0  0  0  0  0  0
  191.0170  177.9530  143.5420 C   0  0  2  0  0  3  0  0  0  0  0  0
  191.2950  176.6190  142.8400 C   0  0  0  0  0  2  0  0  0  0  0  0
  189.4880  177.2440  141.2830 C   0  0  0  0  0  0  0  0  0  0  0  0
  187.5670  178.4800  142.2690 O   0  0  0  0  0  0  0  0  0  0  0  0
  186.4680  177.7310  142.7720 C   0  0  0  0  0  2  0  0  0  0  0  0
  185.7310  178.5250  143.8330 C   0  0  0  0  0  1  0  0  0  0  0  0
  191.4650  177.9370  144.9980 C   0  0  0  0  0  2  0  0  0  0  0  0
  190.9700  176.7000  145.7320 C   0  0  0  0  0  2  0  0  0  0  0  0
  190.6220  177.0660  147.1580 C   0  0  0  0  0  2  0  0  0  0  0  0
  188.5280  177.8950  148.1670 C   0  0  0  0  0  2  0  0  0  0  0  0
  189.1670  176.7400  147.4240 C   0  0  0  0  0  3  0  0  0  0  0  0
  188.2940  177.7300  146.6820 C   0  0  0  0  0  2  0  0  0  0  0  0
  1 18  1  6  0  0  0
  1 27  1  0  0  0  0
  2  6  1  0  0  0  0
  3  1  1  1  0  0  0
  4  8  1  0  0  0  0
  5  2  1  0  0  0  0
  7  4  2  0  0  0  0
  7  9  1  0  0  0  0
  8  2  2  0  0  0  0
  9  5  2  0  0  0  0
 10  3  1  0  0  0  0
 10  7  1  0  0  0  0
 11  3  1  0  0  0  0
 11 12  1  0  0  0  0
 12  4  1  0  0  0  0
 13 15  1  0  0  0  0
 14 15  1  0  0  0  0
 15 10  1  0  0  0  0
 15 16  1  0  0  0  0
 16 17  1  0  0  0  0
 19 20  1  0  0  0  0
 19 23  1  0  0  0  0
 20 26  1  0  0  0  0
 20 25  1  0  0  0  0
 21 20  1  0  0  0  0
 23 24  1  0  0  0  0
 24 22  1  0  0  0  0
 24 18  1  0  0  0  0
 26 22  1  0  0  0  0
 27 28  1  0  0  0  0
 28 34  1  0  0  0  0
 29 31  2  0  0  0  0
 30 33  1  0  0  0  0
 31 32  1  0  0  0  0
 32 38  1  1  0  0  0
 33 32  1  0  0  0  0
 34 30  2  0  0  0  0
 34 29  1  0  0  0  0
 35 29  1  0  0  0  0
 35 36  1  0  0  0  0
 36 37  1  0  0  0  0
 38 39  1  0  0  0  0
 39 40  1  0  0  0  0
 40 42  1  0  0  0  0
 42 41  1  0  0  0  0
 43 42  1  0  0  0  0
 43 41  1  0  0  0  0
M  END
>  <MODEL>
5

>  <REMARK>
 VINA RESULT:      -6.9      2.844      5.114
  Name = 
  14 active torsions:
  status: ('A' for Active; 'I' for Inactive)
    1  A    between atoms: C_1  and  C_34
    2  A    between atoms: C_1  and  N_35
    3  A    between atoms: C_2  and  C_27
    4  A    between atoms: O_3  and  C_4
    5  A    between atoms: O_3  and  C_12
    6  A    between atoms: C_8  and  C_34
    7  A    between atoms: C_11  and  C_22
    8  A    between atoms: C_11  and  C_36
    9  A    between atoms: C_15  and  C_38
   10  A    between atoms: C_15  and  C_42
   11  A    between atoms: C_27  and  N_30
   12  A    between atoms: C_29  and  C_31
   13  A    between atoms: C_29  and  C_36
   14  A    between atoms: C_34  and  C_38
                            x       y       z     vdW  Elec       q    Type
                         _______ _______ _______ _____ _____    ______ ____

>  <TORSDO>
F 14

$$$$
=
 OpenBabel10272414133D

 43 47  0  0  1  0  0  0  0  0999 V2000
  189.4310  177.6730  141.6980 C   0  0  1  0  0  3  0  0  0  0  0  0
  186.9070  178.2600  146.8010 C   0  0  0  0  0  0  0  0  0  0  0  0
  189.6090  176.5930  142.7790 C   0  0  1  0  0  3  0  0  0  0  0  0
  187.6300  177.0630  144.8210 C   0  0  0  0  0  0  0  0  0  0  0  0
  188.2030  178.7340  146.9940 C   0  0  0  0  0  3  0  0  0  0  0  0
  185.8260  178.6410  147.7480 C   0  0  0  0  0  1  0  0  0  0  0  0
  188.9480  177.5460  145.0010 C   0  0  0  0  0  0  0  0  0  0  0  0
  186.6210  177.4320  145.7130 C   0  0  0  0  0  3  0  0  0  0  0  0
  189.2140  178.3800  146.1000 C   0  0  0  0  0  3  0  0  0  0  0  0
  189.9950  177.1730  144.0690 N   0  0  0  0  0  0  0  0  0  0  0  0
  188.4540  175.5990  142.9360 C   0  0  0  0  0  2  0  0  0  0  0  0
  187.2490  176.2310  143.6290 C   0  0  0  0  0  2  0  0  0  0  0  0
  192.0520  176.0560  143.7990 O   0  0  0  0  0  1  0  0  0  0  0  0
  192.0830  178.2990  144.0440 O   0  0  0  0  0  1  0  0  0  0  0  0
  191.4280  177.1290  144.4390 C   0  0  0  0  0  0  0  0  0  0  0  0
  191.5900  176.9180  145.9480 C   0  0  0  0  0  2  0  0  0  0  0  0
  192.0790  175.5260  146.3110 C   0  0  0  0  0  1  0  0  0  0  0  0
  190.5320  177.5960  140.6520 C   0  0  0  0  0  2  0  0  0  0  0  0
  189.5380  177.5450  137.0770 C   0  0  0  0  0  2  0  0  0  0  0  0
  190.3400  176.3270  136.6190 C   0  0  0  0  0  0  0  0  0  0  0  0
  189.7140  175.7590  135.5270 F   0  0  0  0  0  0  0  0  0  0  0  0
  190.9200  175.9440  139.0300 C   0  0  0  0  0  2  0  0  0  0  0  0
  190.0840  178.0720  138.4050 C   0  0  0  0  0  2  0  0  0  0  0  0
  190.0120  177.0240  139.4200 N   0  0  0  0  0  0  0  0  0  0  0  0
  191.6140  176.7200  136.2500 F   0  0  0  0  0  0  0  0  0  0  0  0
  190.4260  175.2910  137.7400 C   0  0  0  0  0  2  0  0  0  0  0  0
  188.0630  177.6500  141.0290 C   0  0  0  0  0  2  0  0  0  0  0  0
  187.2680  178.9000  141.3730 C   0  0  0  0  0  2  0  0  0  0  0  0
  184.7490  178.6150  141.8690 C   0  0  0  0  0  0  0  0  0  0  0  0
  185.5950  178.7670  139.5900 C   0  0  0  0  0  3  0  0  0  0  0  0
  183.5750  178.2310  141.4510 N   0  0  0  0  0  0  0  0  0  0  0  0
  183.3300  177.8550  140.0550 C   0  0  2  0  0  3  0  0  0  0  0  0
  184.1780  178.6980  139.0960 C   0  0  0  0  0  2  0  0  0  0  0  0
  185.8560  178.7750  140.9020 C   0  0  0  0  0  0  0  0  0  0  0  0
  184.9680  178.8980  143.2220 O   0  0  0  0  0  0  0  0  0  0  0  0
  184.1160  179.7470  143.9800 C   0  0  0  0  0  2  0  0  0  0  0  0
  183.3530  178.9410  145.0140 C   0  0  0  0  0  1  0  0  0  0  0  0
  181.8460  177.9300  139.7210 C   0  0  0  0  0  2  0  0  0  0  0  0
  181.2790  179.3210  139.9590 C   0  0  0  0  0  2  0  0  0  0  0  0
  180.6110  179.8170  138.6950 C   0  0  0  0  0  2  0  0  0  0  0  0
  180.7500  181.4420  136.8440 C   0  0  0  0  0  2  0  0  0  0  0  0
  181.3670  181.0150  138.1600 C   0  0  0  0  0  3  0  0  0  0  0  0
  180.4340  182.2060  138.1100 C   0  0  0  0  0  2  0  0  0  0  0  0
  1 18  1  6  0  0  0
  2  5  1  0  0  0  0
  2  6  1  0  0  0  0
  3  1  1  6  0  0  0
  3 11  1  0  0  0  0
  3 10  1  0  0  0  0
  4  7  2  0  0  0  0
  4  8  1  0  0  0  0
  7  9  1  0  0  0  0
  8  2  2  0  0  0  0
  9  5  2  0  0  0  0
 10 15  1  0  0  0  0
 10  7  1  0  0  0  0
 11 12  1  0  0  0  0
 12  4  1  0  0  0  0
 13 15  1  0  0  0  0
 14 15  1  0  0  0  0
 15 16  1  0  0  0  0
 16 17  1  0  0  0  0
 19 23  1  0  0  0  0
 20 19  1  0  0  0  0
 20 26  1  0  0  0  0
 21 20  1  0  0  0  0
 22 24  1  0  0  0  0
 23 24  1  0  0  0  0
 24 18  1  0  0  0  0
 25 20  1  0  0  0  0
 26 22  1  0  0  0  0
 27 28  1  0  0  0  0
 27  1  1  0  0  0  0
 29 35  1  0  0  0  0
 30 34  2  0  0  0  0
 31 29  2  0  0  0  0
 32 38  1  6  0  0  0
 32 31  1  0  0  0  0
 33 30  1  0  0  0  0
 33 32  1  0  0  0  0
 34 28  1  0  0  0  0
 34 29  1  0  0  0  0
 35 36  1  0  0  0  0
 36 37  1  0  0  0  0
 38 39  1  0  0  0  0
 40 39  1  0  0  0  0
 41 43  1  0  0  0  0
 41 42  1  0  0  0  0
 42 40  1  0  0  0  0
 43 42  1  0  0  0  0
M  END
>  <MODEL>
6

>  <REMARK>
 VINA RESULT:      -6.9      3.199      7.669
  Name = 
  14 active torsions:
  status: ('A' for Active; 'I' for Inactive)
    1  A    between atoms: C_1  and  C_34
    2  A    between atoms: C_1  and  N_35
    3  A    between atoms: C_2  and  C_27
    4  A    between atoms: O_3  and  C_4
    5  A    between atoms: O_3  and  C_12
    6  A    between atoms: C_8  and  C_34
    7  A    between atoms: C_11  and  C_22
    8  A    between atoms: C_11  and  C_36
    9  A    between atoms: C_15  and  C_38
   10  A    between atoms: C_15  and  C_42
   11  A    between atoms: C_27  and  N_30
   12  A    between atoms: C_29  and  C_31
   13  A    between atoms: C_29  and  C_36
   14  A    between atoms: C_34  and  C_38
                            x       y       z     vdW  Elec       q    Type
                         _______ _______ _______ _____ _____    ______ ____

>  <TORSDO>
F 14

$$$$
=
 OpenBabel10272414133D

 43 47  0  0  1  0  0  0  0  0999 V2000
  186.6310  177.9800  136.8880 C   0  0  1  0  0  3  0  0  0  0  0  0
  184.3510  172.7310  136.7580 C   0  0  0  0  0  0  0  0  0  0  0  0
  186.8100  177.0880  135.6470 C   0  0  1  0  0  3  0  0  0  0  0  0
  184.9410  174.9060  135.8610 C   0  0  0  0  0  0  0  0  0  0  0  0
  185.6730  172.5310  137.1520 C   0  0  0  0  0  3  0  0  0  0  0  0
  183.3290  171.6860  137.0240 C   0  0  0  0  0  1  0  0  0  0  0  0
  186.2830  174.7170  136.2650 C   0  0  0  0  0  0  0  0  0  0  0  0
  183.9860  173.9190  136.1200 C   0  0  0  0  0  3  0  0  0  0  0  0
  186.6300  173.5170  136.9080 C   0  0  0  0  0  3  0  0  0  0  0  0
  187.2740  175.7440  136.0060 N   0  0  0  0  0  0  0  0  0  0  0  0
  185.6230  177.0310  134.6810 C   0  0  0  0  0  2  0  0  0  0  0  0
  184.4760  176.1910  135.2380 C   0  0  0  0  0  2  0  0  0  0  0  0
  188.9150  174.5380  134.8210 O   0  0  0  0  0  1  0  0  0  0  0  0
  189.4310  176.6140  135.5380 O   0  0  0  0  0  1  0  0  0  0  0  0
  188.7190  175.4550  135.8570 C   0  0  0  0  0  0  0  0  0  0  0  0
  189.2780  174.8260  137.1370 C   0  0  0  0  0  2  0  0  0  0  0  0
  190.7350  174.4100  137.0150 C   0  0  0  0  0  1  0  0  0  0  0  0
  185.1610  178.2740  137.1510 C   0  0  0  0  0  2  0  0  0  0  0  0
  184.4590  179.1580  140.6860 C   0  0  0  0  0  2  0  0  0  0  0  0
  183.1300  178.4220  140.8610 C   0  0  0  0  0  0  0  0  0  0  0  0
  182.9610  178.1060  142.1940 F   0  0  0  0  0  0  0  0  0  0  0  0
  183.5140  177.4250  138.5910 C   0  0  0  0  0  2  0  0  0  0  0  0
  184.7760  179.3350  139.2000 C   0  0  0  0  0  2  0  0  0  0  0  0
  184.8450  178.0300  138.5490 N   0  0  0  0  0  0  0  0  0  0  0  0
  182.0880  179.2390  140.4590 F   0  0  0  0  0  0  0  0  0  0  0  0
  183.1200  177.1330  140.0380 C   0  0  0  0  0  2  0  0  0  0  0  0
  187.2910  177.4240  138.1430 C   0  0  0  0  0  2  0  0  0  0  0  0
  188.3820  178.3580  138.6420 C   0  0  0  0  0  2  0  0  0  0  0  0
  190.0810  177.4340  140.3540 C   0  0  0  0  0  0  0  0  0  0  0  0
  187.8820  178.2260  141.0350 C   0  0  0  0  0  3  0  0  0  0  0  0
  190.2940  176.8940  141.5220 N   0  0  0  0  0  0  0  0  0  0  0  0
  189.2320  176.7640  142.5240 C   0  0  2  0  0  3  0  0  0  0  0  0
  188.2620  177.9500  142.4620 C   0  0  0  0  0  2  0  0  0  0  0  0
  188.7610  178.0250  140.0480 C   0  0  0  0  0  0  0  0  0  0  0  0
  191.0970  177.4780  139.3920 O   0  0  0  0  0  0  0  0  0  0  0  0
  192.4420  177.1100  139.6720 C   0  0  0  0  0  2  0  0  0  0  0  0
  193.1030  176.5450  138.4290 C   0  0  0  0  0  1  0  0  0  0  0  0
  189.8170  176.5780  143.9190 C   0  0  0  0  0  2  0  0  0  0  0  0
  188.8590  177.0450  145.0040 C   0  0  0  0  0  2  0  0  0  0  0  0
  189.6450  177.6760  146.1330 C   0  0  0  0  0  2  0  0  0  0  0  0
  188.9830  178.2380  148.4420 C   0  0  0  0  0  2  0  0  0  0  0  0
  189.1780  177.1060  147.4560 C   0  0  0  0  0  3  0  0  0  0  0  0
  187.7860  177.6210  147.7530 C   0  0  0  0  0  2  0  0  0  0  0  0
  1 18  1  1  0  0  0
  1 27  1  0  0  0  0
  2  6  1  0  0  0  0
  2  5  1  0  0  0  0
  3 10  1  0  0  0  0
  3  1  1  1  0  0  0
  4  8  1  0  0  0  0
  4  7  2  0  0  0  0
  7  9  1  0  0  0  0
  8  2  2  0  0  0  0
  9  5  2  0  0  0  0
 10  7  1  0  0  0  0
 11 12  1  0  0  0  0
 11  3  1  0  0  0  0
 12  4  1  0  0  0  0
 13 15  1  0  0  0  0
 14 15  1  0  0  0  0
 15 10  1  0  0  0  0
 15 16  1  0  0  0  0
 17 16  1  0  0  0  0
 18 24  1  0  0  0  0
 19 20  1  0  0  0  0
 20 21  1  0  0  0  0
 22 26  1  0  0  0  0
 23 19  1  0  0  0  0
 24 22  1  0  0  0  0
 24 23  1  0  0  0  0
 25 20  1  0  0  0  0
 26 20  1  0  0  0  0
 27 28  1  0  0  0  0
 28 34  1  0  0  0  0
 29 31  2  0  0  0  0
 30 33  1  0  0  0  0
 31 32  1  0  0  0  0
 32 38  1  1  0  0  0
 33 32  1  0  0  0  0
 34 29  1  0  0  0  0
 34 30  2  0  0  0  0
 35 36  1  0  0  0  0
 35 29  1  0  0  0  0
 37 36  1  0  0  0  0
 38 39  1  0  0  0  0
 39 40  1  0  0  0  0
 40 42  1  0  0  0  0
 42 43  1  0  0  0  0
 42 41  1  0  0  0  0
 43 41  1  0  0  0  0
M  END
>  <MODEL>
7

>  <REMARK>
 VINA RESULT:      -6.7      2.895      5.439
  Name = 
  14 active torsions:
  status: ('A' for Active; 'I' for Inactive)
    1  A    between atoms: C_1  and  C_34
    2  A    between atoms: C_1  and  N_35
    3  A    between atoms: C_2  and  C_27
    4  A    between atoms: O_3  and  C_4
    5  A    between atoms: O_3  and  C_12
    6  A    between atoms: C_8  and  C_34
    7  A    between atoms: C_11  and  C_22
    8  A    between atoms: C_11  and  C_36
    9  A    between atoms: C_15  and  C_38
   10  A    between atoms: C_15  and  C_42
   11  A    between atoms: C_27  and  N_30
   12  A    between atoms: C_29  and  C_31
   13  A    between atoms: C_29  and  C_36
   14  A    between atoms: C_34  and  C_38
                            x       y       z     vdW  Elec       q    Type
                         _______ _______ _______ _____ _____    ______ ____

>  <TORSDO>
F 14

$$$$
=
 OpenBabel10272414133D

 43 47  0  0  1  0  0  0  0  0999 V2000
  186.5500  177.7390  136.9510 C   0  0  1  0  0  3  0  0  0  0  0  0
  185.6580  172.2110  135.7670 C   0  0  0  0  0  0  0  0  0  0  0  0
  187.1930  177.0990  135.7080 C   0  0  1  0  0  3  0  0  0  0  0  0
  185.8920  174.5690  135.2540 C   0  0  0  0  0  0  0  0  0  0  0  0
  186.8760  172.2330  136.4430 C   0  0  0  0  0  3  0  0  0  0  0  0
  184.8800  170.9480  135.6770 C   0  0  0  0  0  1  0  0  0  0  0  0
  187.1250  174.6050  135.9460 C   0  0  0  0  0  0  0  0  0  0  0  0
  185.1650  173.3780  135.1800 C   0  0  0  0  0  3  0  0  0  0  0  0
  187.6030  173.4210  136.5320 C   0  0  0  0  0  3  0  0  0  0  0  0
  187.8760  175.8430  136.0340 N   0  0  0  0  0  0  0  0  0  0  0  0
  186.2840  176.9420  134.4850 C   0  0  0  0  0  2  0  0  0  0  0  0
  185.2770  175.8080  134.6680 C   0  0  0  0  0  2  0  0  0  0  0  0
  189.7910  177.2100  136.1630 O   0  0  0  0  0  1  0  0  0  0  0  0
  189.7200  175.3520  137.4420 O   0  0  0  0  0  1  0  0  0  0  0  0
  189.3460  175.8860  136.2060 C   0  0  0  0  0  0  0  0  0  0  0  0
  190.0440  175.1320  135.0710 C   0  0  0  0  0  2  0  0  0  0  0  0
  191.1730  174.2350  135.5510 C   0  0  0  0  0  1  0  0  0  0  0  0
  185.0460  177.5130  136.9760 C   0  0  0  0  0  2  0  0  0  0  0  0
  183.4180  179.3810  139.7380 C   0  0  0  0  0  2  0  0  0  0  0  0
  182.3380  178.3670  140.1140 C   0  0  0  0  0  0  0  0  0  0  0  0
  181.9940  178.5450  141.4390 F   0  0  0  0  0  0  0  0  0  0  0  0
  183.4380  176.7740  138.5180 C   0  0  0  0  0  2  0  0  0  0  0  0
  183.9710  179.0770  138.3450 C   0  0  0  0  0  2  0  0  0  0  0  0
  184.5300  177.7270  138.3180 N   0  0  0  0  0  0  0  0  0  0  0  0
  181.2160  178.5680  139.3290 F   0  0  0  0  0  0  0  0  0  0  0  0
  182.8530  176.9410  139.9200 C   0  0  0  0  0  2  0  0  0  0  0  0
  187.1740  177.2850  138.2650 C   0  0  0  0  0  2  0  0  0  0  0  0
  187.9940  178.4030  138.8910 C   0  0  0  0  0  2  0  0  0  0  0  0
  187.8810  178.3050  141.4700 C   0  0  0  0  0  0  0  0  0  0  0  0
  189.7250  177.3060  140.2320 C   0  0  0  0  0  3  0  0  0  0  0  0
  188.5150  178.1720  142.6020 N   0  0  0  0  0  0  0  0  0  0  0  0
  189.9290  177.7890  142.6620 C   0  0  2  0  0  3  0  0  0  0  0  0
  190.2870  176.8130  141.5350 C   0  0  0  0  0  2  0  0  0  0  0  0
  188.5640  177.9690  140.2020 C   0  0  0  0  0  0  0  0  0  0  0  0
  186.5520  178.7420  141.4430 O   0  0  0  0  0  0  0  0  0  0  0  0
  185.5220  178.1300  142.2100 C   0  0  0  0  0  2  0  0  0  0  0  0
  185.1500  179.0090  143.3890 C   0  0  0  0  0  1  0  0  0  0  0  0
  190.2860  177.2320  144.0340 C   0  0  0  0  0  2  0  0  0  0  0  0
  189.0600  177.0780  144.9210 C   0  0  0  0  0  2  0  0  0  0  0  0
  189.2550  177.8730  146.1940 C   0  0  0  0  0  2  0  0  0  0  0  0
  188.6920  178.0110  148.5920 C   0  0  0  0  0  2  0  0  0  0  0  0
  188.4000  177.2830  147.2960 C   0  0  0  0  0  3  0  0  0  0  0  0
  187.4450  178.3420  147.8020 C   0  0  0  0  0  2  0  0  0  0  0  0
  1 18  1  1  0  0  0
  1 27  1  0  0  0  0
  2  5  1  0  0  0  0
  3 10  1  0  0  0  0
  3  1  1  1  0  0  0
  4  7  2  0  0  0  0
  5  9  2  0  0  0  0
  6  2  1  0  0  0  0
  7 10  1  0  0  0  0
  7  9  1  0  0  0  0
  8  4  1  0  0  0  0
  8  2  2  0  0  0  0
 10 15  1  0  0  0  0
 11 12  1  0  0  0  0
 11  3  1  0  0  0  0
 12  4  1  0  0  0  0
 13 15  1  0  0  0  0
 15 14  1  0  0  0  0
 16 17  1  0  0  0  0
 16 15  1  0  0  0  0
 18 24  1  0  0  0  0
 19 20  1  0  0  0  0
 20 21  1  0  0  0  0
 22 26  1  0  0  0  0
 23 19  1  0  0  0  0
 24 23  1  0  0  0  0
 24 22  1  0  0  0  0
 25 20  1  0  0  0  0
 26 20  1  0  0  0  0
 27 28  1  0  0  0  0
 28 34  1  0  0  0  0
 29 31  2  0  0  0  0
 30 33  1  0  0  0  0
 31 32  1  0  0  0  0
 32 38  1  1  0  0  0
 33 32  1  0  0  0  0
 34 30  2  0  0  0  0
 34 29  1  0  0  0  0
 35 29  1  0  0  0  0
 35 36  1  0  0  0  0
 36 37  1  0  0  0  0
 38 39  1  0  0  0  0
 39 40  1  0  0  0  0
 40 42  1  0  0  0  0
 42 43  1  0  0  0  0
 42 41  1  0  0  0  0
 43 41  1  0  0  0  0
M  END
>  <MODEL>
8

>  <REMARK>
 VINA RESULT:      -6.4      2.959      5.194
  Name = 
  14 active torsions:
  status: ('A' for Active; 'I' for Inactive)
    1  A    between atoms: C_1  and  C_34
    2  A    between atoms: C_1  and  N_35
    3  A    between atoms: C_2  and  C_27
    4  A    between atoms: O_3  and  C_4
    5  A    between atoms: O_3  and  C_12
    6  A    between atoms: C_8  and  C_34
    7  A    between atoms: C_11  and  C_22
    8  A    between atoms: C_11  and  C_36
    9  A    between atoms: C_15  and  C_38
   10  A    between atoms: C_15  and  C_42
   11  A    between atoms: C_27  and  N_30
   12  A    between atoms: C_29  and  C_31
   13  A    between atoms: C_29  and  C_36
   14  A    between atoms: C_34  and  C_38
                            x       y       z     vdW  Elec       q    Type
                         _______ _______ _______ _____ _____    ______ ____

>  <TORSDO>
F 14

$$$$
=
 OpenBabel10272414133D

 43 47  0  0  1  0  0  0  0  0999 V2000
  188.0890  178.5040  142.0100 C   0  0  1  0  0  3  0  0  0  0  0  0
  188.0610  177.7250  147.6800 C   0  0  0  0  0  0  0  0  0  0  0  0
  188.8440  177.3170  142.6330 C   0  0  1  0  0  3  0  0  0  0  0  0
  187.9470  177.0410  145.3570 C   0  0  0  0  0  0  0  0  0  0  0  0
  189.2490  178.4080  147.4250 C   0  0  0  0  0  3  0  0  0  0  0  0
  187.4830  177.7220  149.0500 C   0  0  0  0  0  1  0  0  0  0  0  0
  189.1470  177.7390  145.0840 C   0  0  0  0  0  0  0  0  0  0  0  0
  187.4090  177.0490  146.6460 C   0  0  0  0  0  3  0  0  0  0  0  0
  189.7860  178.4150  146.1370 C   0  0  0  0  0  3  0  0  0  0  0  0
  189.7020  177.7410  143.7440 N   0  0  0  0  0  0  0  0  0  0  0  0
  187.9930  176.1020  143.0140 C   0  0  0  0  0  2  0  0  0  0  0  0
  187.1650  176.3590  144.2710 C   0  0  0  0  0  2  0  0  0  0  0  0
  191.4080  177.6500  142.1220 O   0  0  0  0  0  1  0  0  0  0  0  0
  191.5420  179.2370  143.7210 O   0  0  0  0  0  1  0  0  0  0  0  0
  191.1450  177.9210  143.4670 C   0  0  0  0  0  0  0  0  0  0  0  0
  191.9810  176.9470  144.3020 C   0  0  0  0  0  2  0  0  0  0  0  0
  191.6170  175.4900  144.0700 C   0  0  0  0  0  1  0  0  0  0  0  0
  188.5940  178.8070  140.6070 C   0  0  0  0  0  2  0  0  0  0  0  0
  187.7020  176.5600  137.7920 C   0  0  0  0  0  2  0  0  0  0  0  0
  189.1080  176.2220  137.2960 C   0  0  0  0  0  0  0  0  0  0  0  0
  189.0820  174.9930  136.6680 F   0  0  0  0  0  0  0  0  0  0  0  0
  189.9870  177.4340  139.3090 C   0  0  0  0  0  2  0  0  0  0  0  0
  187.7360  177.8100  138.6720 C   0  0  0  0  0  2  0  0  0  0  0  0
  188.6220  177.5900  139.8120 N   0  0  0  0  0  0  0  0  0  0  0  0
  189.5240  177.1800  136.3880 F   0  0  0  0  0  0  0  0  0  0  0  0
  190.0890  176.1630  138.4670 C   0  0  0  0  0  2  0  0  0  0  0  0
  186.5760  178.3310  142.0020 C   0  0  0  0  0  2  0  0  0  0  0  0
  185.8980  179.5170  141.3320 C   0  0  0  0  0  2  0  0  0  0  0  0
  183.4280  179.0260  141.9080 C   0  0  0  0  0  0  0  0  0  0  0  0
  184.2520  178.9220  139.6190 C   0  0  0  0  0  3  0  0  0  0  0  0
  182.3060  178.4510  141.5730 N   0  0  0  0  0  0  0  0  0  0  0  0
  182.1070  177.8400  140.2550 C   0  0  2  0  0  3  0  0  0  0  0  0
  182.8530  178.6180  139.1650 C   0  0  0  0  0  2  0  0  0  0  0  0
  184.5100  179.1610  140.9090 C   0  0  0  0  0  0  0  0  0  0  0  0
  183.6110  179.5370  143.1980 O   0  0  0  0  0  0  0  0  0  0  0  0
  183.3140  178.7930  144.3730 C   0  0  0  0  0  2  0  0  0  0  0  0
  184.4560  178.8960  145.3650 C   0  0  0  0  0  1  0  0  0  0  0  0
  180.6240  177.6940  139.9390 C   0  0  0  0  0  2  0  0  0  0  0  0
  180.2710  176.2780  139.5100 C   0  0  0  0  0  2  0  0  0  0  0  0
  180.4190  176.1540  138.0090 C   0  0  0  0  0  2  0  0  0  0  0  0
  182.2280  175.1890  136.6360 C   0  0  0  0  0  2  0  0  0  0  0  0
  181.1720  174.8820  137.6780 C   0  0  0  0  0  3  0  0  0  0  0  0
  182.6200  175.0430  138.0900 C   0  0  0  0  0  2  0  0  0  0  0  0
  1 18  1  6  0  0  0
  2  6  1  0  0  0  0
  3  1  1  1  0  0  0
  3 11  1  0  0  0  0
  3 10  1  0  0  0  0
  4  8  1  0  0  0  0
  5  2  1  0  0  0  0
  7  4  2  0  0  0  0
  7  9  1  0  0  0  0
  8  2  2  0  0  0  0
  9  5  2  0  0  0  0
 10  7  1  0  0  0  0
 11 12  1  0  0  0  0
 12  4  1  0  0  0  0
 13 15  1  0  0  0  0
 15 14  1  0  0  0  0
 15 10  1  0  0  0  0
 15 16  1  0  0  0  0
 17 16  1  0  0  0  0
 19 23  1  0  0  0  0
 20 19  1  0  0  0  0
 20 26  1  0  0  0  0
 21 20  1  0  0  0  0
 22 24  1  0  0  0  0
 23 24  1  0  0  0  0
 24 18  1  0  0  0  0
 25 20  1  0  0  0  0
 26 22  1  0  0  0  0
 27  1  1  0  0  0  0
 28 27  1  0  0  0  0
 29 35  1  0  0  0  0
 30 34  2  0  0  0  0
 31 29  2  0  0  0  0
 32 38  1  6  0  0  0
 32 31  1  0  0  0  0
 33 30  1  0  0  0  0
 33 32  1  0  0  0  0
 34 28  1  0  0  0  0
 34 29  1  0  0  0  0
 35 36  1  0  0  0  0
 36 37  1  0  0  0  0
 39 38  1  0  0  0  0
 40 39  1  0  0  0  0
 41 42  1  0  0  0  0
 41 43  1  0  0  0  0
 42 40  1  0  0  0  0
 42 43  1  0  0  0  0
M  END
>  <MODEL>
9

>  <REMARK>
 VINA RESULT:      -6.4      3.054      7.737
  Name = 
  14 active torsions:
  status: ('A' for Active; 'I' for Inactive)
    1  A    between atoms: C_1  and  C_34
    2  A    between atoms: C_1  and  N_35
    3  A    between atoms: C_2  and  C_27
    4  A    between atoms: O_3  and  C_4
    5  A    between atoms: O_3  and  C_12
    6  A    between atoms: C_8  and  C_34
    7  A    between atoms: C_11  and  C_22
    8  A    between atoms: C_11  and  C_36
    9  A    between atoms: C_15  and  C_38
   10  A    between atoms: C_15  and  C_42
   11  A    between atoms: C_27  and  N_30
   12  A    between atoms: C_29  and  C_31
   13  A    between atoms: C_29  and  C_36
   14  A    between atoms: C_34  and  C_38
                            x       y       z     vdW  Elec       q    Type
                         _______ _______ _______ _____ _____    ______ ____

>  <TORSDO>
F 14

$$$$
