=
 OpenBabel10272413593D

 30 30  0  0  1  0  0  0  0  0999 V2000
  188.3430  177.9150  141.5020 C   0  0  2  0  0  3  0  0  0  0  0  0
  186.9190  178.3590  141.6780 C   0  0  0  0  0  0  0  0  0  0  0  0
  186.3710  179.0340  140.7630 O   0  0  0  0  0  0  0  0  0  0  0  0
  186.2090  178.0240  142.8340 O   0  0  0  0  0  0  0  0  0  0  0  0
  184.9880  178.6610  143.1790 C   0  0  0  0  0  2  0  0  0  0  0  0
  185.0010  179.0030  144.6530 C   0  0  0  0  0  1  0  0  0  0  0  0
  188.8610  177.7380  140.0660 C   0  0  1  0  0  3  0  0  0  0  0  0
  189.0110  178.9670  139.4190 O   0  0  0  0  0  1  0  0  0  0  0  0
  190.1860  176.9590  140.0210 C   0  0  0  0  0  2  0  0  0  0  0  0
  190.5110  176.2340  138.7030 C   0  0  1  0  0  3  0  0  0  0  0  0
  189.2690  175.9850  137.8580 C   0  0  0  0  0  2  0  0  0  0  0  0
  188.7760  174.6150  135.9790 O   0  0  0  0  0  0  0  0  0  0  0  0
  190.2360  173.7140  137.4970 O   0  0  0  0  0  1  0  0  0  0  0  0
  189.4150  174.7420  137.0540 C   0  0  0  0  0  0  0  0  0  0  0  0
  191.5050  176.9270  137.9540 O   0  0  0  0  0  0  0  0  0  0  0  0
  193.7200  176.6130  138.5340 O   0  0  0  0  0  1  0  0  0  0  0  0
  193.0080  175.6230  136.5920 O   0  0  0  0  0  0  0  0  0  0  0  0
  192.7770  176.3940  137.7280 C   0  0  0  0  0  0  0  0  0  0  0  0
  188.8600  176.6200  142.7020 S   0  0  0  0  0  0  0  0  0  0  0  0
  189.8390  177.5690  143.9960 C   0  0  1  0  0  0  0  0  0  0  0  0
  188.9400  178.0390  145.1630 C   0  0  2  0  0  3  0  0  0  0  0  0
  188.9800  177.0830  146.3020 C   0  0  2  0  0  3  0  0  0  0  0  0
  187.8700  177.1670  145.4450 O   0  0  0  0  0  0  0  0  0  0  0  0
  188.7090  177.7980  147.5850 C   0  0  0  0  0  0  0  0  0  0  0  0
  187.4180  178.1750  147.9440 O   0  0  0  0  0  0  0  0  0  0  0  0
  189.6710  178.0650  148.3520 O   0  0  0  0  0  1  0  0  0  0  0  0
  190.8530  176.7630  144.5900 O   0  0  0  0  0  0  0  0  0  0  0  0
  191.3950  175.8540  143.6680 C   0  0  0  0  0  1  0  0  0  0  0  0
  190.4590  178.8620  143.4410 C   0  0  0  0  0  2  0  0  0  0  0  0
  191.6390  179.2100  144.1000 O   0  0  0  0  0  1  0  0  0  0  0  0
  1  2  1  6  0  0  0
  1 19  1  0  0  0  0
  2  4  1  0  0  0  0
  3  2  2  0  0  0  0
  4  5  1  0  0  0  0
  5  6  1  0  0  0  0
  7  8  1  1  0  0  0
  7  1  1  0  0  0  0
  9  7  1  0  0  0  0
 10 11  1  6  0  0  0
 10  9  1  0  0  0  0
 12 14  2  0  0  0  0
 14 13  1  0  0  0  0
 14 11  1  0  0  0  0
 15 10  1  0  0  0  0
 17 18  2  0  0  0  0
 18 15  1  0  0  0  0
 18 16  1  0  0  0  0
 19 20  1  0  0  0  0
 20 29  1  6  0  0  0
 20 27  1  0  0  0  0
 21 20  1  6  0  0  0
 21 23  1  0  0  0  0
 21 22  1  0  0  0  0
 22 24  1  1  0  0  0
 23 22  1  0  0  0  0
 24 25  2  0  0  0  0
 24 26  1  0  0  0  0
 28 27  1  0  0  0  0
 29 30  1  0  0  0  0
M  END
>  <MODEL>
1

>  <REMARK>
 VINA RESULT:      -6.0      0.000      0.000
  Name = 
  16 active torsions:
  status: ('A' for Active; 'I' for Inactive)
    1  A    between atoms: C_1  and  C_4
    2  A    between atoms: C_1  and  C_22
    3  A    between atoms: C_2  and  O_20
    4  A    between atoms: C_2  and  C_22
    5  A    between atoms: C_3  and  C_23
    6  A    between atoms: C_4  and  C_12
    7  A    between atoms: C_7  and  C_23
    8  A    between atoms: O_8  and  C_12
    9  A    between atoms: O_8  and  C_30
   10  A    between atoms: C_9  and  C_12
   11  A    between atoms: C_9  and  C_21
   12  A    between atoms: C_10  and  C_15
   13  A    between atoms: O_11  and  C_23
   14  A    between atoms: C_14  and  O_20
   15  A    between atoms: C_22  and  S_29
   16  A    between atoms: C_23  and  S_29
                            x       y       z     vdW  Elec       q    Type
                         _______ _______ _______ _____ _____    ______ ____

>  <TORSDO>
F 16

$$$$
=
 OpenBabel10272413593D

 30 30  0  0  1  0  0  0  0  0999 V2000
  188.3990  177.5570  140.8150 C   0  0  2  0  0  3  0  0  0  0  0  0
  187.1080  178.3150  140.9420 C   0  0  0  0  0  0  0  0  0  0  0  0
  186.5840  178.8080  139.9060 O   0  0  0  0  0  0  0  0  0  0  0  0
  186.4940  178.4650  142.1880 O   0  0  0  0  0  0  0  0  0  0  0  0
  185.1190  178.1740  142.3890 C   0  0  0  0  0  2  0  0  0  0  0  0
  184.7570  178.4450  143.8330 C   0  0  0  0  0  1  0  0  0  0  0  0
  188.9950  176.9470  142.0940 C   0  0  1  0  0  3  0  0  0  0  0  0
  190.0500  176.0780  141.8050 O   0  0  0  0  0  1  0  0  0  0  0  0
  189.4640  178.0270  143.0840 C   0  0  0  0  0  2  0  0  0  0  0  0
  189.7350  177.5630  144.5260 C   0  0  1  0  0  3  0  0  0  0  0  0
  191.1880  177.7680  144.9350 C   0  0  0  0  0  2  0  0  0  0  0  0
  191.9670  175.5420  144.6340 O   0  0  0  0  0  0  0  0  0  0  0  0
  192.1170  176.3570  146.7710 O   0  0  0  0  0  1  0  0  0  0  0  0
  191.7840  176.4980  145.4300 C   0  0  0  0  0  0  0  0  0  0  0  0
  188.8530  178.1860  145.4540 O   0  0  0  0  0  0  0  0  0  0  0  0
  188.8080  176.7740  147.2820 O   0  0  0  0  0  1  0  0  0  0  0  0
  186.7850  177.5040  146.4870 O   0  0  0  0  0  0  0  0  0  0  0  0
  188.1750  177.4660  146.4410 C   0  0  0  0  0  0  0  0  0  0  0  0
  189.6040  178.3470  139.6700 S   0  0  0  0  0  0  0  0  0  0  0  0
  189.3280  177.4560  138.0390 C   0  0  1  0  0  0  0  0  0  0  0  0
  190.6140  176.7570  137.5430 C   0  0  2  0  0  3  0  0  0  0  0  0
  190.8590  175.4840  138.2700 C   0  0  2  0  0  3  0  0  0  0  0  0
  191.6150  176.6400  138.5270 O   0  0  0  0  0  0  0  0  0  0  0  0
  191.6250  174.5350  137.4070 C   0  0  0  0  0  0  0  0  0  0  0  0
  192.9740  174.7400  137.1280 O   0  0  0  0  0  1  0  0  0  0  0  0
  191.0350  173.5350  136.9230 O   0  0  0  0  0  0  0  0  0  0  0  0
  188.3500  176.4270  138.1560 O   0  0  0  0  0  0  0  0  0  0  0  0
  187.3130  176.5920  137.2240 C   0  0  0  0  0  1  0  0  0  0  0  0
  188.9430  178.4130  136.8970 C   0  0  0  0  0  2  0  0  0  0  0  0
  188.9260  179.7470  137.3060 O   0  0  0  0  0  1  0  0  0  0  0  0
  1 19  1  1  0  0  0
  1  2  1  0  0  0  0
  1  7  1  0  0  0  0
  2  4  1  0  0  0  0
  3  2  2  0  0  0  0
  4  5  1  0  0  0  0
  5  6  1  0  0  0  0
  7  8  1  6  0  0  0
  7  9  1  0  0  0  0
 10  9  1  6  0  0  0
 10 11  1  0  0  0  0
 10 15  1  0  0  0  0
 11 14  1  0  0  0  0
 12 14  2  0  0  0  0
 14 13  1  0  0  0  0
 15 18  1  0  0  0  0
 18 17  2  0  0  0  0
 18 16  1  0  0  0  0
 20 29  1  6  0  0  0
 20 27  1  0  0  0  0
 20 19  1  0  0  0  0
 21 20  1  1  0  0  0
 21 22  1  0  0  0  0
 21 23  1  0  0  0  0
 22 24  1  6  0  0  0
 22 23  1  0  0  0  0
 25 24  1  0  0  0  0
 26 24  2  0  0  0  0
 28 27  1  0  0  0  0
 29 30  1  0  0  0  0
M  END
>  <MODEL>
2

>  <REMARK>
 VINA RESULT:      -5.8      1.734      7.481
  Name = 
  16 active torsions:
  status: ('A' for Active; 'I' for Inactive)
    1  A    between atoms: C_1  and  C_4
    2  A    between atoms: C_1  and  C_22
    3  A    between atoms: C_2  and  O_20
    4  A    between atoms: C_2  and  C_22
    5  A    between atoms: C_3  and  C_23
    6  A    between atoms: C_4  and  C_12
    7  A    between atoms: C_7  and  C_23
    8  A    between atoms: O_8  and  C_12
    9  A    between atoms: O_8  and  C_30
   10  A    between atoms: C_9  and  C_12
   11  A    between atoms: C_9  and  C_21
   12  A    between atoms: C_10  and  C_15
   13  A    between atoms: O_11  and  C_23
   14  A    between atoms: C_14  and  O_20
   15  A    between atoms: C_22  and  S_29
   16  A    between atoms: C_23  and  S_29
                            x       y       z     vdW  Elec       q    Type
                         _______ _______ _______ _____ _____    ______ ____

>  <TORSDO>
F 16

$$$$
=
 OpenBabel10272413593D

 30 30  0  0  1  0  0  0  0  0999 V2000
  187.2010  177.7950  144.8050 C   0  0  2  0  0  3  0  0  0  0  0  0
  187.5420  177.4910  146.2360 C   0  0  0  0  0  0  0  0  0  0  0  0
  186.7210  177.8070  147.1400 O   0  0  0  0  0  0  0  0  0  0  0  0
  188.7470  176.8610  146.5600 O   0  0  0  0  0  0  0  0  0  0  0  0
  189.5920  177.3420  147.5940 C   0  0  0  0  0  2  0  0  0  0  0  0
  190.9800  176.7670  147.4130 C   0  0  0  0  0  1  0  0  0  0  0  0
  185.7640  178.2460  144.4950 C   0  0  1  0  0  3  0  0  0  0  0  0
  185.4610  179.4580  145.1200 O   0  0  0  0  0  1  0  0  0  0  0  0
  185.5070  178.3580  142.9830 C   0  0  0  0  0  2  0  0  0  0  0  0
  184.0770  178.7340  142.5570 C   0  0  1  0  0  3  0  0  0  0  0  0
  183.6620  178.0500  141.2610 C   0  0  0  0  0  2  0  0  0  0  0  0
  184.3300  179.8090  139.8080 O   0  0  0  0  0  1  0  0  0  0  0  0
  182.1360  179.1690  139.6350 O   0  0  0  0  0  0  0  0  0  0  0  0
  183.4020  179.0520  140.1920 C   0  0  0  0  0  0  0  0  0  0  0  0
  183.1340  178.4750  143.5930 O   0  0  0  0  0  0  0  0  0  0  0  0
  180.8730  178.1540  143.9460 O   0  0  0  0  0  1  0  0  0  0  0  0
  181.4950  180.1120  142.9280 O   0  0  0  0  0  0  0  0  0  0  0  0
  181.8010  178.8860  143.5100 C   0  0  0  0  0  0  0  0  0  0  0  0
  187.9400  176.6080  143.6080 S   0  0  0  0  0  0  0  0  0  0  0  0
  189.6150  177.3590  143.2040 C   0  0  1  0  0  0  0  0  0  0  0  0
  189.5840  178.1470  141.8740 C   0  0  2  0  0  3  0  0  0  0  0  0
  188.8840  177.3860  140.8050 C   0  0  2  0  0  3  0  0  0  0  0  0
  190.2820  177.5190  140.8230 O   0  0  0  0  0  0  0  0  0  0  0  0
  188.2790  178.3260  139.8150 C   0  0  0  0  0  0  0  0  0  0  0  0
  186.9040  178.5470  139.7720 O   0  0  0  0  0  1  0  0  0  0  0  0
  189.0290  178.9260  139.0020 O   0  0  0  0  0  0  0  0  0  0  0  0
  190.0300  178.2920  144.1960 O   0  0  0  0  0  0  0  0  0  0  0  0
  191.0920  179.0900  143.7420 C   0  0  0  0  0  1  0  0  0  0  0  0
  190.7080  176.2960  142.9980 C   0  0  0  0  0  2  0  0  0  0  0  0
  191.2470  175.8490  144.2050 O   0  0  0  0  0  1  0  0  0  0  0  0
  1 19  1  6  0  0  0
  1  2  1  0  0  0  0
  2  4  1  0  0  0  0
  2  3  2  0  0  0  0
  4  5  1  0  0  0  0
  6  5  1  0  0  0  0
  7  1  1  0  0  0  0
  7  8  1  1  0  0  0
  9  7  1  0  0  0  0
 10 11  1  6  0  0  0
 10  9  1  0  0  0  0
 10 15  1  0  0  0  0
 12 14  1  0  0  0  0
 13 14  2  0  0  0  0
 14 11  1  0  0  0  0
 17 18  2  0  0  0  0
 18 15  1  0  0  0  0
 18 16  1  0  0  0  0
 20 29  1  6  0  0  0
 20 19  1  0  0  0  0
 20 27  1  0  0  0  0
 21 20  1  1  0  0  0
 22 24  1  6  0  0  0
 22 23  1  0  0  0  0
 22 21  1  0  0  0  0
 23 21  1  0  0  0  0
 25 24  1  0  0  0  0
 26 24  2  0  0  0  0
 28 27  1  0  0  0  0
 29 30  1  0  0  0  0
M  END
>  <MODEL>
3

>  <REMARK>
 VINA RESULT:      -5.7      2.700      7.316
  Name = 
  16 active torsions:
  status: ('A' for Active; 'I' for Inactive)
    1  A    between atoms: C_1  and  C_4
    2  A    between atoms: C_1  and  C_22
    3  A    between atoms: C_2  and  O_20
    4  A    between atoms: C_2  and  C_22
    5  A    between atoms: C_3  and  C_23
    6  A    between atoms: C_4  and  C_12
    7  A    between atoms: C_7  and  C_23
    8  A    between atoms: O_8  and  C_12
    9  A    between atoms: O_8  and  C_30
   10  A    between atoms: C_9  and  C_12
   11  A    between atoms: C_9  and  C_21
   12  A    between atoms: C_10  and  C_15
   13  A    between atoms: O_11  and  C_23
   14  A    between atoms: C_14  and  O_20
   15  A    between atoms: C_22  and  S_29
   16  A    between atoms: C_23  and  S_29
                            x       y       z     vdW  Elec       q    Type
                         _______ _______ _______ _____ _____    ______ ____

>  <TORSDO>
F 16

$$$$
=
 OpenBabel10272413593D

 30 30  0  0  1  0  0  0  0  0999 V2000
  188.2560  177.9440  141.4980 C   0  0  2  0  0  3  0  0  0  0  0  0
  186.9210  178.5240  141.8720 C   0  0  0  0  0  0  0  0  0  0  0  0
  186.5990  179.6570  141.4210 O   0  0  0  0  0  0  0  0  0  0  0  0
  186.0470  177.8150  142.7000 O   0  0  0  0  0  0  0  0  0  0  0  0
  184.6960  178.2120  142.8830 C   0  0  0  0  0  2  0  0  0  0  0  0
  184.5080  178.7030  144.3020 C   0  0  0  0  0  1  0  0  0  0  0  0
  188.5250  177.6800  140.0070 C   0  0  1  0  0  3  0  0  0  0  0  0
  187.9880  178.6880  139.2020 O   0  0  0  0  0  1  0  0  0  0  0  0
  190.0250  177.5170  139.7110 C   0  0  0  0  0  2  0  0  0  0  0  0
  190.3920  176.9170  138.3430 C   0  0  1  0  0  3  0  0  0  0  0  0
  191.5570  175.9400  138.4340 C   0  0  0  0  0  2  0  0  0  0  0  0
  193.6640  176.8990  137.8950 O   0  0  0  0  0  1  0  0  0  0  0  0
  192.5000  176.0250  136.1260 O   0  0  0  0  0  0  0  0  0  0  0  0
  192.6360  176.3090  137.4780 C   0  0  0  0  0  0  0  0  0  0  0  0
  189.2670  176.3100  137.7150 O   0  0  0  0  0  0  0  0  0  0  0  0
  189.3920  177.6190  135.8150 O   0  0  0  0  0  0  0  0  0  0  0  0
  187.7880  175.9810  135.8400 O   0  0  0  0  0  1  0  0  0  0  0  0
  188.8410  176.6700  136.4340 C   0  0  0  0  0  0  0  0  0  0  0  0
  188.8390  176.6390  142.6570 S   0  0  0  0  0  0  0  0  0  0  0  0
  189.8020  177.5910  143.9600 C   0  0  1  0  0  0  0  0  0  0  0  0
  188.8880  178.0700  145.1110 C   0  0  2  0  0  3  0  0  0  0  0  0
  188.8700  177.0970  146.2350 C   0  0  2  0  0  3  0  0  0  0  0  0
  187.7850  177.2270  145.3520 O   0  0  0  0  0  0  0  0  0  0  0  0
  188.5870  177.8000  147.5230 C   0  0  0  0  0  0  0  0  0  0  0  0
  189.6190  178.2410  148.3480 O   0  0  0  0  0  1  0  0  0  0  0  0
  187.3920  177.9930  147.8660 O   0  0  0  0  0  0  0  0  0  0  0  0
  190.8040  176.7840  144.5730 O   0  0  0  0  0  0  0  0  0  0  0  0
  191.3960  175.9080  143.6500 C   0  0  0  0  0  1  0  0  0  0  0  0
  190.4350  178.8790  143.4080 C   0  0  0  0  0  2  0  0  0  0  0  0
  191.4560  179.3620  144.2280 O   0  0  0  0  0  1  0  0  0  0  0  0
  1  2  1  6  0  0  0
  1 19  1  0  0  0  0
  2  4  1  0  0  0  0
  3  2  2  0  0  0  0
  4  5  1  0  0  0  0
  5  6  1  0  0  0  0
  7  8  1  6  0  0  0
  7  1  1  0  0  0  0
  9  7  1  0  0  0  0
 10 11  1  1  0  0  0
 10  9  1  0  0  0  0
 13 14  2  0  0  0  0
 14 12  1  0  0  0  0
 14 11  1  0  0  0  0
 15 10  1  0  0  0  0
 16 18  2  0  0  0  0
 17 18  1  0  0  0  0
 18 15  1  0  0  0  0
 19 20  1  0  0  0  0
 20 29  1  6  0  0  0
 20 27  1  0  0  0  0
 21 20  1  6  0  0  0
 21 23  1  0  0  0  0
 21 22  1  0  0  0  0
 22 24  1  1  0  0  0
 23 22  1  0  0  0  0
 24 26  2  0  0  0  0
 24 25  1  0  0  0  0
 28 27  1  0  0  0  0
 29 30  1  0  0  0  0
M  END
>  <MODEL>
4

>  <REMARK>
 VINA RESULT:      -5.5      0.961      2.282
  Name = 
  16 active torsions:
  status: ('A' for Active; 'I' for Inactive)
    1  A    between atoms: C_1  and  C_4
    2  A    between atoms: C_1  and  C_22
    3  A    between atoms: C_2  and  O_20
    4  A    between atoms: C_2  and  C_22
    5  A    between atoms: C_3  and  C_23
    6  A    between atoms: C_4  and  C_12
    7  A    between atoms: C_7  and  C_23
    8  A    between atoms: O_8  and  C_12
    9  A    between atoms: O_8  and  C_30
   10  A    between atoms: C_9  and  C_12
   11  A    between atoms: C_9  and  C_21
   12  A    between atoms: C_10  and  C_15
   13  A    between atoms: O_11  and  C_23
   14  A    between atoms: C_14  and  O_20
   15  A    between atoms: C_22  and  S_29
   16  A    between atoms: C_23  and  S_29
                            x       y       z     vdW  Elec       q    Type
                         _______ _______ _______ _____ _____    ______ ____

>  <TORSDO>
F 16

$$$$
=
 OpenBabel10272413593D

 30 30  0  0  1  0  0  0  0  0999 V2000
  189.1400  176.9280  142.0900 C   0  0  2  0  0  3  0  0  0  0  0  0
  190.2260  176.9710  141.0540 C   0  0  0  0  0  0  0  0  0  0  0  0
  191.4080  177.2200  141.4170 O   0  0  0  0  0  0  0  0  0  0  0  0
  189.9320  176.7290  139.7090 O   0  0  0  0  0  0  0  0  0  0  0  0
  190.9490  176.4730  138.7510 C   0  0  0  0  0  2  0  0  0  0  0  0
  190.4940  175.3690  137.8230 C   0  0  0  0  0  1  0  0  0  0  0  0
  188.2150  178.1520  142.2030 C   0  0  1  0  0  3  0  0  0  0  0  0
  188.2410  178.9240  141.0390 O   0  0  0  0  0  1  0  0  0  0  0  0
  186.7680  177.7530  142.5340 C   0  0  0  0  0  2  0  0  0  0  0  0
  185.9570  178.7530  143.3780 C   0  0  1  0  0  3  0  0  0  0  0  0
  185.0490  179.6280  142.5230 C   0  0  0  0  0  2  0  0  0  0  0  0
  185.1040  179.3990  140.1580 O   0  0  0  0  0  0  0  0  0  0  0  0
  183.8870  177.8090  141.2720 O   0  0  0  0  0  1  0  0  0  0  0  0
  184.6920  178.9400  141.2530 C   0  0  0  0  0  0  0  0  0  0  0  0
  185.2140  178.0970  144.4010 O   0  0  0  0  0  0  0  0  0  0  0  0
  183.3830  179.0480  145.4430 O   0  0  0  0  0  0  0  0  0  0  0  0
  185.3970  179.2220  146.5250 O   0  0  0  0  0  1  0  0  0  0  0  0
  184.6170  178.7940  145.4550 C   0  0  0  0  0  0  0  0  0  0  0  0
  189.6770  176.1850  143.6860 S   0  0  0  0  0  0  0  0  0  0  0  0
  189.9920  177.6720  144.7920 C   0  0  1  0  0  0  0  0  0  0  0  0
  191.1850  177.4330  145.7460 C   0  0  2  0  0  3  0  0  0  0  0  0
  190.9280  176.2940  146.6670 C   0  0  2  0  0  3  0  0  0  0  0  0
  190.8740  177.6270  147.1070 O   0  0  0  0  0  0  0  0  0  0  0  0
  192.2170  175.6580  147.0730 C   0  0  0  0  0  0  0  0  0  0  0  0
  192.8540  176.0090  148.2610 O   0  0  0  0  0  1  0  0  0  0  0  0
  192.7360  174.7920  146.3220 O   0  0  0  0  0  0  0  0  0  0  0  0
  190.3270  178.8320  144.0370 O   0  0  0  0  0  0  0  0  0  0  0  0
  191.6940  179.1350  144.1370 C   0  0  0  0  0  1  0  0  0  0  0  0
  188.8080  177.9800  145.7240 C   0  0  0  0  0  2  0  0  0  0  0  0
  187.8380  176.9760  145.7000 O   0  0  0  0  0  1  0  0  0  0  0  0
  1  2  1  1  0  0  0
  1  7  1  0  0  0  0
  1 19  1  0  0  0  0
  2  3  2  0  0  0  0
  4  2  1  0  0  0  0
  5  4  1  0  0  0  0
  6  5  1  0  0  0  0
  7  8  1  6  0  0  0
  7  9  1  0  0  0  0
  9 10  1  0  0  0  0
 10 11  1  6  0  0  0
 10 15  1  0  0  0  0
 12 14  2  0  0  0  0
 14 13  1  0  0  0  0
 14 11  1  0  0  0  0
 15 18  1  0  0  0  0
 16 18  2  0  0  0  0
 18 17  1  0  0  0  0
 19 20  1  0  0  0  0
 20 29  1  1  0  0  0
 21 20  1  6  0  0  0
 21 22  1  0  0  0  0
 21 23  1  0  0  0  0
 22 24  1  1  0  0  0
 22 23  1  0  0  0  0
 24 25  1  0  0  0  0
 26 24  2  0  0  0  0
 27 28  1  0  0  0  0
 27 20  1  0  0  0  0
 30 29  1  0  0  0  0
M  END
>  <MODEL>
5

>  <REMARK>
 VINA RESULT:      -5.5      2.098      6.384
  Name = 
  16 active torsions:
  status: ('A' for Active; 'I' for Inactive)
    1  A    between atoms: C_1  and  C_4
    2  A    between atoms: C_1  and  C_22
    3  A    between atoms: C_2  and  O_20
    4  A    between atoms: C_2  and  C_22
    5  A    between atoms: C_3  and  C_23
    6  A    between atoms: C_4  and  C_12
    7  A    between atoms: C_7  and  C_23
    8  A    between atoms: O_8  and  C_12
    9  A    between atoms: O_8  and  C_30
   10  A    between atoms: C_9  and  C_12
   11  A    between atoms: C_9  and  C_21
   12  A    between atoms: C_10  and  C_15
   13  A    between atoms: O_11  and  C_23
   14  A    between atoms: C_14  and  O_20
   15  A    between atoms: C_22  and  S_29
   16  A    between atoms: C_23  and  S_29
                            x       y       z     vdW  Elec       q    Type
                         _______ _______ _______ _____ _____    ______ ____

>  <TORSDO>
F 16

$$$$
=
 OpenBabel10272413593D

 30 30  0  0  1  0  0  0  0  0999 V2000
  189.2430  177.5830  140.6500 C   0  0  2  0  0  3  0  0  0  0  0  0
  190.5610  177.0620  140.1530 C   0  0  0  0  0  0  0  0  0  0  0  0
  191.6210  177.6540  140.4960 O   0  0  0  0  0  0  0  0  0  0  0  0
  190.6130  175.9340  139.3300 O   0  0  0  0  0  0  0  0  0  0  0  0
  191.4500  175.8770  138.1840 C   0  0  0  0  0  2  0  0  0  0  0  0
  190.7770  176.5970  137.0360 C   0  0  0  0  0  1  0  0  0  0  0  0
  188.3670  178.3650  139.6580 C   0  0  1  0  0  3  0  0  0  0  0  0
  189.1390  179.1560  138.8040 O   0  0  0  0  0  1  0  0  0  0  0  0
  187.4600  177.4370  138.8330 C   0  0  0  0  0  2  0  0  0  0  0  0
  186.2300  178.0870  138.1760 C   0  0  1  0  0  3  0  0  0  0  0  0
  185.9000  177.4670  136.8240 C   0  0  0  0  0  2  0  0  0  0  0  0
  187.4680  175.9910  135.8170 O   0  0  0  0  0  1  0  0  0  0  0  0
  187.9490  178.2230  135.6180 O   0  0  0  0  0  0  0  0  0  0  0  0
  187.1400  177.1810  136.0540 C   0  0  0  0  0  0  0  0  0  0  0  0
  185.0960  178.0590  139.0380 O   0  0  0  0  0  0  0  0  0  0  0  0
  184.3760  180.2550  139.0790 O   0  0  0  0  0  0  0  0  0  0  0  0
  184.4850  179.1630  141.0920 O   0  0  0  0  0  1  0  0  0  0  0  0
  184.6400  179.1970  139.7100 C   0  0  0  0  0  0  0  0  0  0  0  0
  189.3220  178.2690  142.3560 S   0  0  0  0  0  0  0  0  0  0  0  0
  189.0450  176.7710  143.4570 C   0  0  1  0  0  0  0  0  0  0  0  0
  189.5880  177.0020  144.8860 C   0  0  2  0  0  3  0  0  0  0  0  0
  188.6830  177.8750  145.6790 C   0  0  2  0  0  3  0  0  0  0  0  0
  189.9030  178.3460  145.1660 O   0  0  0  0  0  0  0  0  0  0  0  0
  188.8100  177.5640  147.1340 C   0  0  0  0  0  0  0  0  0  0  0  0
  190.0510  177.5580  147.7670 O   0  0  0  0  0  0  0  0  0  0  0  0
  187.7740  177.2990  147.7970 O   0  0  0  0  0  1  0  0  0  0  0  0
  187.6600  176.4760  143.6130 O   0  0  0  0  0  0  0  0  0  0  0  0
  186.8530  177.5050  143.1030 C   0  0  0  0  0  1  0  0  0  0  0  0
  189.7910  175.5210  142.9580 C   0  0  0  0  0  2  0  0  0  0  0  0
  191.1310  175.5120  143.3480 O   0  0  0  0  0  1  0  0  0  0  0  0
  1  2  1  6  0  0  0
  1 19  1  0  0  0  0
  2  3  2  0  0  0  0
  4  2  1  0  0  0  0
  5  4  1  0  0  0  0
  6  5  1  0  0  0  0
  7  8  1  6  0  0  0
  7  1  1  0  0  0  0
  9  7  1  0  0  0  0
 10 11  1  6  0  0  0
 10  9  1  0  0  0  0
 10 15  1  0  0  0  0
 12 14  1  0  0  0  0
 13 14  2  0  0  0  0
 14 11  1  0  0  0  0
 15 18  1  0  0  0  0
 16 18  2  0  0  0  0
 18 17  1  0  0  0  0
 19 20  1  0  0  0  0
 20 29  1  6  0  0  0
 20 27  1  0  0  0  0
 21 20  1  6  0  0  0
 21 23  1  0  0  0  0
 21 22  1  0  0  0  0
 22 24  1  1  0  0  0
 23 22  1  0  0  0  0
 24 25  2  0  0  0  0
 24 26  1  0  0  0  0
 28 27  1  0  0  0  0
 29 30  1  0  0  0  0
M  END
>  <MODEL>
6

>  <REMARK>
 VINA RESULT:      -5.4      2.037      5.040
  Name = 
  16 active torsions:
  status: ('A' for Active; 'I' for Inactive)
    1  A    between atoms: C_1  and  C_4
    2  A    between atoms: C_1  and  C_22
    3  A    between atoms: C_2  and  O_20
    4  A    between atoms: C_2  and  C_22
    5  A    between atoms: C_3  and  C_23
    6  A    between atoms: C_4  and  C_12
    7  A    between atoms: C_7  and  C_23
    8  A    between atoms: O_8  and  C_12
    9  A    between atoms: O_8  and  C_30
   10  A    between atoms: C_9  and  C_12
   11  A    between atoms: C_9  and  C_21
   12  A    between atoms: C_10  and  C_15
   13  A    between atoms: O_11  and  C_23
   14  A    between atoms: C_14  and  O_20
   15  A    between atoms: C_22  and  S_29
   16  A    between atoms: C_23  and  S_29
                            x       y       z     vdW  Elec       q    Type
                         _______ _______ _______ _____ _____    ______ ____

>  <TORSDO>
F 16

$$$$
=
 OpenBabel10272413593D

 30 30  0  0  1  0  0  0  0  0999 V2000
  188.7250  177.9800  144.6580 C   0  0  2  0  0  3  0  0  0  0  0  0
  189.4180  177.2820  145.7930 C   0  0  0  0  0  0  0  0  0  0  0  0
  188.7710  177.0430  146.8500 O   0  0  0  0  0  0  0  0  0  0  0  0
  190.7560  176.8950  145.6770 O   0  0  0  0  0  0  0  0  0  0  0  0
  191.6210  176.8330  146.8020 C   0  0  0  0  0  2  0  0  0  0  0  0
  192.0980  175.4090  146.9870 C   0  0  0  0  0  1  0  0  0  0  0  0
  187.3810  177.4040  144.1820 C   0  0  1  0  0  3  0  0  0  0  0  0
  186.5980  176.9730  145.2560 O   0  0  0  0  0  1  0  0  0  0  0  0
  186.5910  178.4110  143.3300 C   0  0  0  0  0  2  0  0  0  0  0  0
  185.0720  178.1840  143.2340 C   0  0  1  0  0  3  0  0  0  0  0  0
  184.2760  179.3980  143.6960 C   0  0  0  0  0  2  0  0  0  0  0  0
  183.7220  178.9000  145.9540 O   0  0  0  0  0  1  0  0  0  0  0  0
  181.9820  178.7910  144.4670 O   0  0  0  0  0  0  0  0  0  0  0  0
  183.3170  179.0240  144.7710 C   0  0  0  0  0  0  0  0  0  0  0  0
  184.6810  177.7900  141.9220 O   0  0  0  0  0  0  0  0  0  0  0  0
  182.9900  178.7760  140.6940 O   0  0  0  0  0  1  0  0  0  0  0  0
  185.1190  179.5410  140.3230 O   0  0  0  0  0  0  0  0  0  0  0  0
  184.2160  178.7060  140.9740 C   0  0  0  0  0  0  0  0  0  0  0  0
  189.8710  178.5330  143.3290 S   0  0  0  0  0  0  0  0  0  0  0  0
  189.8250  177.1280  142.0800 C   0  0  1  0  0  0  0  0  0  0  0  0
  188.7950  177.3930  140.9580 C   0  0  2  0  0  3  0  0  0  0  0  0
  189.3780  178.2160  139.8660 C   0  0  2  0  0  3  0  0  0  0  0  0
  188.4690  178.7530  140.7930 O   0  0  0  0  0  0  0  0  0  0  0  0
  188.6930  177.9160  138.5720 C   0  0  0  0  0  0  0  0  0  0  0  0
  189.3650  177.2860  137.5270 O   0  0  0  0  0  0  0  0  0  0  0  0
  187.4870  178.2440  138.4270 O   0  0  0  0  0  1  0  0  0  0  0  0
  191.0780  176.9620  141.4230 O   0  0  0  0  0  0  0  0  0  0  0  0
  192.1030  177.6580  142.0830 C   0  0  0  0  0  1  0  0  0  0  0  0
  189.3820  175.7940  142.7040 C   0  0  0  0  0  2  0  0  0  0  0  0
  190.4610  174.9510  142.9760 O   0  0  0  0  0  1  0  0  0  0  0  0
  1 19  1  6  0  0  0
  1  2  1  0  0  0  0
  2  3  2  0  0  0  0
  4  2  1  0  0  0  0
  4  5  1  0  0  0  0
  5  6  1  0  0  0  0
  7  1  1  0  0  0  0
  7  8  1  1  0  0  0
  9  7  1  0  0  0  0
 10  9  1  6  0  0  0
 10 11  1  0  0  0  0
 11 14  1  0  0  0  0
 13 14  2  0  0  0  0
 14 12  1  0  0  0  0
 15 10  1  0  0  0  0
 16 18  1  0  0  0  0
 17 18  2  0  0  0  0
 18 15  1  0  0  0  0
 20 29  1  1  0  0  0
 20 19  1  0  0  0  0
 21 20  1  1  0  0  0
 22 24  1  6  0  0  0
 22 23  1  0  0  0  0
 22 21  1  0  0  0  0
 23 21  1  0  0  0  0
 25 24  2  0  0  0  0
 26 24  1  0  0  0  0
 27 20  1  0  0  0  0
 27 28  1  0  0  0  0
 29 30  1  0  0  0  0
M  END
>  <MODEL>
7

>  <REMARK>
 VINA RESULT:      -5.2      2.319      7.447
  Name = 
  16 active torsions:
  status: ('A' for Active; 'I' for Inactive)
    1  A    between atoms: C_1  and  C_4
    2  A    between atoms: C_1  and  C_22
    3  A    between atoms: C_2  and  O_20
    4  A    between atoms: C_2  and  C_22
    5  A    between atoms: C_3  and  C_23
    6  A    between atoms: C_4  and  C_12
    7  A    between atoms: C_7  and  C_23
    8  A    between atoms: O_8  and  C_12
    9  A    between atoms: O_8  and  C_30
   10  A    between atoms: C_9  and  C_12
   11  A    between atoms: C_9  and  C_21
   12  A    between atoms: C_10  and  C_15
   13  A    between atoms: O_11  and  C_23
   14  A    between atoms: C_14  and  O_20
   15  A    between atoms: C_22  and  S_29
   16  A    between atoms: C_23  and  S_29
                            x       y       z     vdW  Elec       q    Type
                         _______ _______ _______ _____ _____    ______ ____

>  <TORSDO>
F 16

$$$$
=
 OpenBabel10272413593D

 30 30  0  0  1  0  0  0  0  0999 V2000
  186.5830  178.4090  142.9080 C   0  0  2  0  0  3  0  0  0  0  0  0
  185.3770  178.9040  143.6550 C   0  0  0  0  0  0  0  0  0  0  0  0
  185.5090  179.8670  144.4590 O   0  0  0  0  0  0  0  0  0  0  0  0
  184.1270  178.3120  143.4550 O   0  0  0  0  0  0  0  0  0  0  0  0
  182.9660  179.0820  143.1770 C   0  0  0  0  0  2  0  0  0  0  0  0
  181.8520  178.6600  144.1100 C   0  0  0  0  0  1  0  0  0  0  0  0
  186.5630  178.5150  141.3740 C   0  0  1  0  0  3  0  0  0  0  0  0
  185.6740  179.5010  140.9390 O   0  0  0  0  0  1  0  0  0  0  0  0
  187.9630  178.7800  140.7960 C   0  0  0  0  0  2  0  0  0  0  0  0
  188.4690  177.7810  139.7400 C   0  0  1  0  0  3  0  0  0  0  0  0
  187.5780  177.7430  138.5060 C   0  0  0  0  0  2  0  0  0  0  0  0
  189.1170  177.7480  136.6940 O   0  0  0  0  0  0  0  0  0  0  0  0
  187.9450  179.6940  136.9940 O   0  0  0  0  0  1  0  0  0  0  0  0
  188.2510  178.3860  137.3450 C   0  0  0  0  0  0  0  0  0  0  0  0
  189.8230  178.0370  139.3810 O   0  0  0  0  0  0  0  0  0  0  0  0
  191.8860  177.6580  140.3530 O   0  0  0  0  0  1  0  0  0  0  0  0
  190.7960  175.8340  139.4930 O   0  0  0  0  0  0  0  0  0  0  0  0
  190.8710  177.1960  139.7680 C   0  0  0  0  0  0  0  0  0  0  0  0
  187.2780  176.8470  143.5900 S   0  0  0  0  0  0  0  0  0  0  0  0
  188.9880  177.3410  144.1940 C   0  0  1  0  0  0  0  0  0  0  0  0
  188.9320  178.0200  145.5810 C   0  0  2  0  0  3  0  0  0  0  0  0
  188.7230  177.0260  146.6670 C   0  0  2  0  0  3  0  0  0  0  0  0
  187.6920  177.8780  146.2360 O   0  0  0  0  0  0  0  0  0  0  0  0
  189.3170  177.5240  147.9440 C   0  0  0  0  0  0  0  0  0  0  0  0
  188.5390  178.1770  148.8980 O   0  0  0  0  0  1  0  0  0  0  0  0
  190.5450  177.3520  148.1570 O   0  0  0  0  0  0  0  0  0  0  0  0
  189.8410  176.2110  144.3510 O   0  0  0  0  0  0  0  0  0  0  0  0
  190.7950  176.1370  143.3240 C   0  0  0  0  0  1  0  0  0  0  0  0
  189.6620  178.3800  143.2820 C   0  0  0  0  0  2  0  0  0  0  0  0
  190.4830  179.2570  143.9930 O   0  0  0  0  0  1  0  0  0  0  0  0
  1 19  1  6  0  0  0
  1  2  1  0  0  0  0
  2  3  2  0  0  0  0
  4  2  1  0  0  0  0
  5  4  1  0  0  0  0
  5  6  1  0  0  0  0
  7  8  1  1  0  0  0
  7  1  1  0  0  0  0
  9  7  1  0  0  0  0
 10 11  1  6  0  0  0
 10  9  1  0  0  0  0
 12 14  2  0  0  0  0
 13 14  1  0  0  0  0
 14 11  1  0  0  0  0
 15 10  1  0  0  0  0
 15 18  1  0  0  0  0
 17 18  2  0  0  0  0
 18 16  1  0  0  0  0
 19 20  1  0  0  0  0
 20 29  1  6  0  0  0
 20 27  1  0  0  0  0
 21 20  1  6  0  0  0
 21 23  1  0  0  0  0
 21 22  1  0  0  0  0
 22 24  1  1  0  0  0
 23 22  1  0  0  0  0
 24 26  2  0  0  0  0
 24 25  1  0  0  0  0
 28 27  1  0  0  0  0
 29 30  1  0  0  0  0
M  END
>  <MODEL>
8

>  <REMARK>
 VINA RESULT:      -5.2      1.835      2.624
  Name = 
  16 active torsions:
  status: ('A' for Active; 'I' for Inactive)
    1  A    between atoms: C_1  and  C_4
    2  A    between atoms: C_1  and  C_22
    3  A    between atoms: C_2  and  O_20
    4  A    between atoms: C_2  and  C_22
    5  A    between atoms: C_3  and  C_23
    6  A    between atoms: C_4  and  C_12
    7  A    between atoms: C_7  and  C_23
    8  A    between atoms: O_8  and  C_12
    9  A    between atoms: O_8  and  C_30
   10  A    between atoms: C_9  and  C_12
   11  A    between atoms: C_9  and  C_21
   12  A    between atoms: C_10  and  C_15
   13  A    between atoms: O_11  and  C_23
   14  A    between atoms: C_14  and  O_20
   15  A    between atoms: C_22  and  S_29
   16  A    between atoms: C_23  and  S_29
                            x       y       z     vdW  Elec       q    Type
                         _______ _______ _______ _____ _____    ______ ____

>  <TORSDO>
F 16

$$$$
=
 OpenBabel10272413593D

 30 30  0  0  1  0  0  0  0  0999 V2000
  188.3570  177.6370  140.6480 C   0  0  2  0  0  3  0  0  0  0  0  0
  187.0660  178.3870  140.8080 C   0  0  0  0  0  0  0  0  0  0  0  0
  186.4610  178.7920  139.7780 O   0  0  0  0  0  0  0  0  0  0  0  0
  186.5370  178.6250  142.0800 O   0  0  0  0  0  0  0  0  0  0  0  0
  185.2810  179.2600  142.2660 C   0  0  0  0  0  2  0  0  0  0  0  0
  184.4200  178.4080  143.1730 C   0  0  0  0  0  1  0  0  0  0  0  0
  188.9830  177.0180  141.9080 C   0  0  1  0  0  3  0  0  0  0  0  0
  190.0270  176.1470  141.5890 O   0  0  0  0  0  1  0  0  0  0  0  0
  189.4780  178.0900  142.8930 C   0  0  0  0  0  2  0  0  0  0  0  0
  189.6290  177.6550  144.3610 C   0  0  1  0  0  3  0  0  0  0  0  0
  191.0510  177.8370  144.8750 C   0  0  0  0  0  2  0  0  0  0  0  0
  191.9210  176.3290  146.4950 O   0  0  0  0  0  1  0  0  0  0  0  0
  191.8960  175.5510  144.3390 O   0  0  0  0  0  0  0  0  0  0  0  0
  191.6380  176.5330  145.2870 C   0  0  0  0  0  0  0  0  0  0  0  0
  188.6950  178.3200  145.2060 O   0  0  0  0  0  0  0  0  0  0  0  0
  186.9700  176.8270  144.8360 O   0  0  0  0  0  0  0  0  0  0  0  0
  186.7190  178.2850  146.5870 O   0  0  0  0  0  1  0  0  0  0  0  0
  187.4470  177.7720  145.5180 C   0  0  0  0  0  0  0  0  0  0  0  0
  189.5350  178.4470  139.4880 S   0  0  0  0  0  0  0  0  0  0  0  0
  189.6300  177.2550  138.0380 C   0  0  1  0  0  0  0  0  0  0  0  0
  188.6120  176.1000  138.1770 C   0  0  2  0  0  3  0  0  0  0  0  0
  188.2260  175.5500  136.8510 C   0  0  2  0  0  3  0  0  0  0  0  0
  187.3600  176.3710  137.5920 O   0  0  0  0  0  0  0  0  0  0  0  0
  187.8320  174.1150  136.9820 C   0  0  0  0  0  0  0  0  0  0  0  0
  188.7850  173.0990  136.9740 O   0  0  0  0  0  0  0  0  0  0  0  0
  186.6140  173.8230  137.0990 O   0  0  0  0  0  1  0  0  0  0  0  0
  189.3200  177.8970  136.8040 O   0  0  0  0  0  0  0  0  0  0  0  0
  188.9490  179.2370  136.9980 C   0  0  0  0  0  1  0  0  0  0  0  0
  190.9960  176.5560  137.9320 C   0  0  0  0  0  2  0  0  0  0  0  0
  191.8370  176.8680  139.0010 O   0  0  0  0  0  1  0  0  0  0  0  0
  1 19  1  1  0  0  0
  1  2  1  0  0  0  0
  1  7  1  0  0  0  0
  2  4  1  0  0  0  0
  3  2  2  0  0  0  0
  4  5  1  0  0  0  0
  5  6  1  0  0  0  0
  7  8  1  6  0  0  0
  7  9  1  0  0  0  0
 10  9  1  6  0  0  0
 10 11  1  0  0  0  0
 10 15  1  0  0  0  0
 11 14  1  0  0  0  0
 13 14  2  0  0  0  0
 14 12  1  0  0  0  0
 15 18  1  0  0  0  0
 16 18  2  0  0  0  0
 18 17  1  0  0  0  0
 20 29  1  6  0  0  0
 20 19  1  0  0  0  0
 21 20  1  6  0  0  0
 22 24  1  1  0  0  0
 22 23  1  0  0  0  0
 22 21  1  0  0  0  0
 23 21  1  0  0  0  0
 24 26  1  0  0  0  0
 25 24  2  0  0  0  0
 27 28  1  0  0  0  0
 27 20  1  0  0  0  0
 29 30  1  0  0  0  0
M  END
>  <MODEL>
9

>  <REMARK>
 VINA RESULT:      -5.2      1.851      7.401
  Name = 
  16 active torsions:
  status: ('A' for Active; 'I' for Inactive)
    1  A    between atoms: C_1  and  C_4
    2  A    between atoms: C_1  and  C_22
    3  A    between atoms: C_2  and  O_20
    4  A    between atoms: C_2  and  C_22
    5  A    between atoms: C_3  and  C_23
    6  A    between atoms: C_4  and  C_12
    7  A    between atoms: C_7  and  C_23
    8  A    between atoms: O_8  and  C_12
    9  A    between atoms: O_8  and  C_30
   10  A    between atoms: C_9  and  C_12
   11  A    between atoms: C_9  and  C_21
   12  A    between atoms: C_10  and  C_15
   13  A    between atoms: O_11  and  C_23
   14  A    between atoms: C_14  and  O_20
   15  A    between atoms: C_22  and  S_29
   16  A    between atoms: C_23  and  S_29
                            x       y       z     vdW  Elec       q    Type
                         _______ _______ _______ _____ _____    ______ ____

>  <TORSDO>
F 16

$$$$
