=
 OpenBabel10272401443D

 28 31  0  0  1  0  0  0  0  0999 V2000
  189.0170  177.8970  140.1550 C   0  0  1  0  0  3  0  0  0  0  0  0
  184.3280  178.2810  141.7880 C   0  0  0  0  0  3  0  0  0  0  0  0
  188.4160  175.4430  143.3280 O   0  0  0  0  0  0  0  0  0  0  0  0
  184.4960  178.6340  144.1860 C   0  0  0  0  0  0  0  0  0  0  0  0
  186.4840  178.0160  142.9090 C   0  0  0  0  0  0  0  0  0  0  0  0
  182.3670  178.9090  143.0660 C   0  0  0  0  0  0  0  0  0  0  0  0
  185.1060  178.2980  142.9540 C   0  0  0  0  0  0  0  0  0  0  0  0
  186.6150  178.3560  145.3200 C   0  0  0  0  0  3  0  0  0  0  0  0
  183.1320  178.9360  144.2340 C   0  0  0  0  0  3  0  0  0  0  0  0
  189.1310  176.4720  143.4610 C   0  0  0  0  0  0  0  0  0  0  0  0
  187.1190  177.7510  141.6500 N   0  0  0  0  0  0  0  0  0  0  0  0
  185.2560  178.6740  145.3550 C   0  0  0  0  0  3  0  0  0  0  0  0
  190.4820  176.2180  141.3770 C   0  0  0  0  0  2  0  0  0  0  0  0
  188.6170  177.6230  144.1440 N   0  0  0  0  0  2  0  0  0  0  0  0
  190.5070  176.5050  142.8800 C   0  0  0  0  0  2  0  0  0  0  0  0
  180.9170  179.2290  143.1210 C   0  0  0  0  0  1  0  0  0  0  0  0
  182.9640  178.5820  141.8440 C   0  0  0  0  0  3  0  0  0  0  0  0
  187.2310  177.9990  144.1190 C   0  0  0  0  0  0  0  0  0  0  0  0
  190.4410  177.4980  140.5430 C   0  0  0  0  0  2  0  0  0  0  0  0
  188.2420  178.3180  141.3480 C   0  0  0  0  0  3  0  0  0  0  0  0
  188.9600  178.9180  139.0080 C   0  0  0  0  0  2  0  0  0  0  0  0
  188.3420  178.5140  137.6500 C   0  0  2  0  0  3  0  0  0  0  0  0
  188.0600  176.5340  136.8860 C   0  0  1  0  0  3  0  0  0  0  0  0
  187.2330  177.4820  137.7390 C   0  0  2  0  0  3  0  0  0  0  0  0
  189.3160  178.0390  135.5320 O   0  0  0  0  0  1  0  0  0  0  0  0
  189.1870  177.5530  136.8330 C   0  0  1  0  0  3  0  0  0  0  0  0
  188.4540  175.4350  137.6500 O   0  0  0  0  0  1  0  0  0  0  0  0
  186.1280  177.9220  137.0090 O   0  0  0  0  0  1  0  0  0  0  0  0
  1 21  1  6  0  0  0
  1 19  1  0  0  0  0
  1 20  1  0  0  0  0
  2 17  2  0  0  0  0
  2  7  1  0  0  0  0
  3 10  2  0  0  0  0
  4  9  1  0  0  0  0
  4 12  1  0  0  0  0
  5  7  1  0  0  0  0
  5 18  2  0  0  0  0
  6 16  1  0  0  0  0
  6  9  2  0  0  0  0
  7  4  2  0  0  0  0
  8 12  2  0  0  0  0
 10 14  1  0  0  0  0
 11  5  1  0  0  0  0
 13 15  1  0  0  0  0
 15 10  1  0  0  0  0
 17  6  1  0  0  0  0
 18 14  1  0  0  0  0
 18  8  1  0  0  0  0
 19 13  1  0  0  0  0
 20 11  2  0  0  0  0
 22 24  1  0  0  0  0
 22 21  1  1  0  0  0
 23 27  1  1  0  0  0
 23 24  1  0  0  0  0
 24 28  1  6  0  0  0
 26 25  1  6  0  0  0
 26 23  1  0  0  0  0
 26 22  1  0  0  0  0
M  END
>  <MODEL>
1

>  <REMARK>
 VINA RESULT:      -9.0      0.000      0.000
  Name = 
  2 active torsions:
  status: ('A' for Active; 'I' for Inactive)
    1  A    between atoms: C_1  and  C_2
    2  A    between atoms: C_2  and  C_3
                            x       y       z     vdW  Elec       q    Type
                         _______ _______ _______ _____ _____    ______ ____

>  <TORSDO>
F 2

$$$$
=
 OpenBabel10272401443D

 28 31  0  0  1  0  0  0  0  0999 V2000
  187.3930  177.4690  137.7620 C   0  0  1  0  0  3  0  0  0  0  0  0
  188.1480  176.9820  142.6600 C   0  0  0  0  0  3  0  0  0  0  0  0
  190.5880  175.0740  138.4710 O   0  0  0  0  0  0  0  0  0  0  0  0
  190.5060  177.4570  143.0090 C   0  0  0  0  0  0  0  0  0  0  0  0
  189.6460  177.1950  140.7390 C   0  0  0  0  0  0  0  0  0  0  0  0
  189.0140  177.2600  144.9060 C   0  0  0  0  0  0  0  0  0  0  0  0
  189.4280  177.2000  142.1290 C   0  0  0  0  0  0  0  0  0  0  0  0
  192.0100  177.6510  141.1250 C   0  0  0  0  0  3  0  0  0  0  0  0
  190.2920  177.4850  144.3910 C   0  0  0  0  0  3  0  0  0  0  0  0
  190.7660  176.2300  137.9990 C   0  0  0  0  0  0  0  0  0  0  0  0
  188.5400  177.0110  139.8430 N   0  0  0  0  0  0  0  0  0  0  0  0
  191.7830  177.6940  142.5010 C   0  0  0  0  0  3  0  0  0  0  0  0
  188.9750  176.1640  136.2610 C   0  0  0  0  0  2  0  0  0  0  0  0
  191.2600  177.2820  138.8380 N   0  0  0  0  0  2  0  0  0  0  0  0
  190.4330  176.5110  136.5700 C   0  0  0  0  0  2  0  0  0  0  0  0
  188.7900  177.2880  146.3750 C   0  0  0  0  0  1  0  0  0  0  0  0
  187.9430  177.0090  144.0430 C   0  0  0  0  0  3  0  0  0  0  0  0
  190.9650  177.3740  140.2400 C   0  0  0  0  0  0  0  0  0  0  0  0
  188.0520  177.3770  136.3860 C   0  0  0  0  0  2  0  0  0  0  0  0
  188.3970  177.7760  138.8100 C   0  0  0  0  0  3  0  0  0  0  0  0
  186.1790  178.4120  137.7950 C   0  0  0  0  0  2  0  0  0  0  0  0
  185.0160  178.1330  138.7730 C   0  0  2  0  0  3  0  0  0  0  0  0
  183.4610  179.4800  139.3660 C   0  0  1  0  0  3  0  0  0  0  0  0
  183.6390  178.4770  138.2370 C   0  0  2  0  0  3  0  0  0  0  0  0
  184.7680  178.5150  141.1090 O   0  0  0  0  0  1  0  0  0  0  0  0
  184.8580  179.1630  139.8770 C   0  0  1  0  0  3  0  0  0  0  0  0
  183.4310  180.7740  138.8460 O   0  0  0  0  0  1  0  0  0  0  0  0
  182.7790  177.3960  138.4350 O   0  0  0  0  0  1  0  0  0  0  0  0
  1 21  1  6  0  0  0
  1 20  1  0  0  0  0
  2 17  1  0  0  0  0
  4  9  2  0  0  0  0
  5  7  1  0  0  0  0
  6 16  1  0  0  0  0
  7  2  2  0  0  0  0
  7  4  1  0  0  0  0
  8 12  2  0  0  0  0
  9  6  1  0  0  0  0
 10  3  2  0  0  0  0
 10 14  1  0  0  0  0
 11  5  1  0  0  0  0
 12  4  1  0  0  0  0
 13 19  1  0  0  0  0
 13 15  1  0  0  0  0
 14 18  1  0  0  0  0
 15 10  1  0  0  0  0
 17  6  2  0  0  0  0
 18  5  2  0  0  0  0
 18  8  1  0  0  0  0
 19  1  1  0  0  0  0
 20 11  2  0  0  0  0
 22 21  1  6  0  0  0
 22 26  1  0  0  0  0
 23 27  1  6  0  0  0
 23 26  1  0  0  0  0
 24 28  1  1  0  0  0
 24 22  1  0  0  0  0
 24 23  1  0  0  0  0
 26 25  1  1  0  0  0
M  END
>  <MODEL>
2

>  <REMARK>
 VINA RESULT:      -8.5      2.822      5.556
  Name = 
  2 active torsions:
  status: ('A' for Active; 'I' for Inactive)
    1  A    between atoms: C_1  and  C_2
    2  A    between atoms: C_2  and  C_3
                            x       y       z     vdW  Elec       q    Type
                         _______ _______ _______ _____ _____    ______ ____

>  <TORSDO>
F 2

$$$$
=
 OpenBabel10272401443D

 28 31  0  0  1  0  0  0  0  0999 V2000
  188.8320  177.8050  140.6420 C   0  0  1  0  0  3  0  0  0  0  0  0
  183.9280  178.1800  141.4220 C   0  0  0  0  0  3  0  0  0  0  0  0
  187.7600  175.7150  143.9480 O   0  0  0  0  0  0  0  0  0  0  0  0
  183.6830  178.8160  143.7540 C   0  0  0  0  0  0  0  0  0  0  0  0
  185.8710  178.1380  142.9060 C   0  0  0  0  0  0  0  0  0  0  0  0
  181.7670  178.8690  142.2730 C   0  0  0  0  0  0  0  0  0  0  0  0
  184.4990  178.3660  142.6890 C   0  0  0  0  0  0  0  0  0  0  0  0
  185.5860  178.7630  145.2460 C   0  0  0  0  0  3  0  0  0  0  0  0
  182.3240  179.0650  143.5400 C   0  0  0  0  0  3  0  0  0  0  0  0
  188.4200  176.7820  144.0700 C   0  0  0  0  0  0  0  0  0  0  0  0
  186.7140  177.7550  141.8100 N   0  0  0  0  0  0  0  0  0  0  0  0
  184.2340  179.0250  145.0180 C   0  0  0  0  0  3  0  0  0  0  0  0
  190.1080  176.3430  142.2840 C   0  0  0  0  0  2  0  0  0  0  0  0
  187.7730  177.9820  144.5140 N   0  0  0  0  0  2  0  0  0  0  0  0
  189.8730  176.8050  143.7240 C   0  0  0  0  0  2  0  0  0  0  0  0
  180.3220  179.1330  142.0490 C   0  0  0  0  0  1  0  0  0  0  0  0
  182.5680  178.4280  141.2160 C   0  0  0  0  0  3  0  0  0  0  0  0
  186.4040  178.2930  144.2150 C   0  0  0  0  0  0  0  0  0  0  0  0
  190.1790  177.5140  141.3040 C   0  0  0  0  0  2  0  0  0  0  0  0
  187.8590  178.3290  141.6310 C   0  0  0  0  0  3  0  0  0  0  0  0
  188.9470  178.6820  139.3850 C   0  0  0  0  0  2  0  0  0  0  0  0
  189.4430  178.0630  138.0590 C   0  0  2  0  0  3  0  0  0  0  0  0
  188.6130  176.3900  137.0130 C   0  0  1  0  0  3  0  0  0  0  0  0
  188.3720  177.8910  136.9980 C   0  0  2  0  0  3  0  0  0  0  0  0
  190.9180  176.2540  137.5960 O   0  0  0  0  0  1  0  0  0  0  0  0
  189.6560  176.5600  138.1050 C   0  0  1  0  0  3  0  0  0  0  0  0
  187.4920  175.7380  137.5280 O   0  0  0  0  0  1  0  0  0  0  0  0
  188.8240  178.4230  135.7900 O   0  0  0  0  0  1  0  0  0  0  0  0
  1 21  1  6  0  0  0
  1 19  1  0  0  0  0
  1 20  1  0  0  0  0
  2  7  1  0  0  0  0
  3 10  2  0  0  0  0
  4 12  1  0  0  0  0
  5 18  2  0  0  0  0
  6  9  2  0  0  0  0
  7  5  1  0  0  0  0
  7  4  2  0  0  0  0
  9  4  1  0  0  0  0
 10 14  1  0  0  0  0
 11  5  1  0  0  0  0
 12  8  2  0  0  0  0
 13 15  1  0  0  0  0
 15 10  1  0  0  0  0
 16  6  1  0  0  0  0
 17  2  2  0  0  0  0
 17  6  1  0  0  0  0
 18 14  1  0  0  0  0
 18  8  1  0  0  0  0
 19 13  1  0  0  0  0
 20 11  2  0  0  0  0
 22 26  1  0  0  0  0
 22 21  1  1  0  0  0
 23 27  1  1  0  0  0
 23 26  1  0  0  0  0
 24 28  1  6  0  0  0
 24 23  1  0  0  0  0
 24 22  1  0  0  0  0
 26 25  1  6  0  0  0
M  END
>  <MODEL>
3

>  <REMARK>
 VINA RESULT:      -8.4      0.969      1.238
  Name = 
  2 active torsions:
  status: ('A' for Active; 'I' for Inactive)
    1  A    between atoms: C_1  and  C_2
    2  A    between atoms: C_2  and  C_3
                            x       y       z     vdW  Elec       q    Type
                         _______ _______ _______ _____ _____    ______ ____

>  <TORSDO>
F 2

$$$$
=
 OpenBabel10272401443D

 28 31  0  0  1  0  0  0  0  0999 V2000
  183.6730  178.3580  142.0570 C   0  0  1  0  0  3  0  0  0  0  0  0
  188.5530  178.1310  141.0920 C   0  0  0  0  0  3  0  0  0  0  0  0
  185.7960  179.9990  145.0980 O   0  0  0  0  0  0  0  0  0  0  0  0
  189.5710  177.1770  143.0820 C   0  0  0  0  0  0  0  0  0  0  0  0
  187.2250  177.8550  143.1260 C   0  0  0  0  0  0  0  0  0  0  0  0
  190.8750  177.4400  141.0580 C   0  0  0  0  0  0  0  0  0  0  0  0
  188.4430  177.7340  142.4320 C   0  0  0  0  0  0  0  0  0  0  0  0
  188.2820  176.9130  145.1110 C   0  0  0  0  0  3  0  0  0  0  0  0
  190.7780  177.0340  142.3910 C   0  0  0  0  0  3  0  0  0  0  0  0
  185.2170  178.8920  145.2670 C   0  0  0  0  0  0  0  0  0  0  0  0
  186.0620  178.3480  142.4460 N   0  0  0  0  0  0  0  0  0  0  0  0
  189.4780  176.7580  144.4090 C   0  0  0  0  0  3  0  0  0  0  0  0
  183.0250  179.4970  144.2350 C   0  0  0  0  0  2  0  0  0  0  0  0
  185.9760  177.6760  145.2790 N   0  0  0  0  0  2  0  0  0  0  0  0
  183.7320  178.8440  145.4250 C   0  0  0  0  0  2  0  0  0  0  0  0
  192.1600  177.2880  140.3280 C   0  0  0  0  0  1  0  0  0  0  0  0
  189.7640  177.9880  140.4090 C   0  0  0  0  0  3  0  0  0  0  0  0
  187.1650  177.4830  144.4970 C   0  0  0  0  0  0  0  0  0  0  0  0
  182.6280  178.4770  143.1670 C   0  0  0  0  0  2  0  0  0  0  0  0
  184.9240  177.7470  142.5720 C   0  0  0  0  0  3  0  0  0  0  0  0
  183.1420  177.6670  140.7910 C   0  0  0  0  0  2  0  0  0  0  0  0
  183.2390  178.3860  139.4260 C   0  0  2  0  0  3  0  0  0  0  0  0
  185.0100  178.8080  138.3000 C   0  0  1  0  0  3  0  0  0  0  0  0
  184.0370  177.6420  138.3710 C   0  0  2  0  0  3  0  0  0  0  0  0
  183.6180  180.6620  138.8460 O   0  0  0  0  0  1  0  0  0  0  0  0
  184.2330  179.5330  139.3870 C   0  0  1  0  0  3  0  0  0  0  0  0
  186.2540  178.4130  138.7930 O   0  0  0  0  0  1  0  0  0  0  0  0
  183.2990  177.5790  137.1890 O   0  0  0  0  0  1  0  0  0  0  0  0
  1 21  1  6  0  0  0
  1 20  1  0  0  0  0
  1 19  1  0  0  0  0
  2  7  1  0  0  0  0
  3 10  2  0  0  0  0
  4 12  1  0  0  0  0
  5 18  2  0  0  0  0
  6  9  2  0  0  0  0
  7  4  2  0  0  0  0
  7  5  1  0  0  0  0
  9  4  1  0  0  0  0
 10 14  1  0  0  0  0
 10 15  1  0  0  0  0
 11 20  2  0  0  0  0
 11  5  1  0  0  0  0
 12  8  2  0  0  0  0
 13 15  1  0  0  0  0
 16  6  1  0  0  0  0
 17  6  1  0  0  0  0
 17  2  2  0  0  0  0
 18  8  1  0  0  0  0
 18 14  1  0  0  0  0
 19 13  1  0  0  0  0
 22 21  1  1  0  0  0
 23 24  1  0  0  0  0
 23 27  1  1  0  0  0
 23 26  1  0  0  0  0
 24 28  1  6  0  0  0
 24 22  1  0  0  0  0
 26 25  1  6  0  0  0
 26 22  1  0  0  0  0
M  END
>  <MODEL>
4

>  <REMARK>
 VINA RESULT:      -8.3      2.273      5.775
  Name = 
  2 active torsions:
  status: ('A' for Active; 'I' for Inactive)
    1  A    between atoms: C_1  and  C_2
    2  A    between atoms: C_2  and  C_3
                            x       y       z     vdW  Elec       q    Type
                         _______ _______ _______ _____ _____    ______ ____

>  <TORSDO>
F 2

$$$$
=
 OpenBabel10272401443D

 28 31  0  0  1  0  0  0  0  0999 V2000
  186.7560  178.0670  139.9680 C   0  0  1  0  0  3  0  0  0  0  0  0
  187.4050  177.3520  144.8530 C   0  0  0  0  0  3  0  0  0  0  0  0
  190.0650  175.8200  140.6430 O   0  0  0  0  0  0  0  0  0  0  0  0
  189.7210  177.9390  145.2990 C   0  0  0  0  0  0  0  0  0  0  0  0
  188.9390  177.7550  142.9930 C   0  0  0  0  0  0  0  0  0  0  0  0
  188.1910  177.5520  147.1360 C   0  0  0  0  0  0  0  0  0  0  0  0
  188.6830  177.6710  144.3740 C   0  0  0  0  0  0  0  0  0  0  0  0
  191.2610  178.3210  143.4740 C   0  0  0  0  0  3  0  0  0  0  0  0
  189.4680  177.8780  146.6730 C   0  0  0  0  0  3  0  0  0  0  0  0
  190.1880  177.0080  140.2400 C   0  0  0  0  0  0  0  0  0  0  0  0
  187.8710  177.5590  142.0550 N   0  0  0  0  0  0  0  0  0  0  0  0
  190.9950  178.2750  144.8440 C   0  0  0  0  0  3  0  0  0  0  0  0
  188.4520  176.9390  138.4470 C   0  0  0  0  0  2  0  0  0  0  0  0
  190.5970  178.0390  141.1490 N   0  0  0  0  0  2  0  0  0  0  0  0
  189.8780  177.3500  138.8180 C   0  0  0  0  0  2  0  0  0  0  0  0
  187.9260  177.4870  148.5970 C   0  0  0  0  0  1  0  0  0  0  0  0
  187.1600  177.2900  146.2280 C   0  0  0  0  0  3  0  0  0  0  0  0
  190.2590  178.0360  142.5440 C   0  0  0  0  0  0  0  0  0  0  0  0
  187.4570  178.0880  138.6090 C   0  0  0  0  0  2  0  0  0  0  0  0
  187.7120  178.3710  141.0610 C   0  0  0  0  0  3  0  0  0  0  0  0
  185.4890  178.9370  140.0150 C   0  0  0  0  0  2  0  0  0  0  0  0
  184.1750  178.4130  139.3930 C   0  0  2  0  0  3  0  0  0  0  0  0
  182.2120  178.4880  140.2450 C   0  0  1  0  0  3  0  0  0  0  0  0
  183.0380  179.4180  139.3710 C   0  0  2  0  0  3  0  0  0  0  0  0
  183.0240  176.3420  139.6060 O   0  0  0  0  0  1  0  0  0  0  0  0
  183.3680  177.5020  140.3000 C   0  0  1  0  0  3  0  0  0  0  0  0
  182.0240  179.0660  141.5010 O   0  0  0  0  0  1  0  0  0  0  0  0
  182.4860  179.4670  138.0910 O   0  0  0  0  0  1  0  0  0  0  0  0
  1 21  1  6  0  0  0
  1 20  1  0  0  0  0
  2 17  1  0  0  0  0
  4  9  2  0  0  0  0
  5  7  1  0  0  0  0
  6 16  1  0  0  0  0
  7  2  2  0  0  0  0
  7  4  1  0  0  0  0
  8 12  2  0  0  0  0
  9  6  1  0  0  0  0
 10  3  2  0  0  0  0
 10 14  1  0  0  0  0
 11  5  1  0  0  0  0
 12  4  1  0  0  0  0
 13 19  1  0  0  0  0
 13 15  1  0  0  0  0
 14 18  1  0  0  0  0
 15 10  1  0  0  0  0
 17  6  2  0  0  0  0
 18  5  2  0  0  0  0
 18  8  1  0  0  0  0
 19  1  1  0  0  0  0
 20 11  2  0  0  0  0
 22 21  1  1  0  0  0
 22 26  1  0  0  0  0
 23 26  1  0  0  0  0
 23 27  1  1  0  0  0
 24 28  1  6  0  0  0
 24 22  1  0  0  0  0
 24 23  1  0  0  0  0
 26 25  1  6  0  0  0
M  END
>  <MODEL>
5

>  <REMARK>
 VINA RESULT:      -8.2      2.605      5.152
  Name = 
  2 active torsions:
  status: ('A' for Active; 'I' for Inactive)
    1  A    between atoms: C_1  and  C_2
    2  A    between atoms: C_2  and  C_3
                            x       y       z     vdW  Elec       q    Type
                         _______ _______ _______ _____ _____    ______ ____

>  <TORSDO>
F 2

$$$$
=
 OpenBabel10272401443D

 28 31  0  0  1  0  0  0  0  0999 V2000
  190.3680  175.8690  136.8440 C   0  0  1  0  0  3  0  0  0  0  0  0
  191.1740  177.0960  141.6020 C   0  0  0  0  0  3  0  0  0  0  0  0
  189.0370  179.6280  137.5810 O   0  0  0  0  0  0  0  0  0  0  0  0
  189.0530  177.9510  142.4260 C   0  0  0  0  0  0  0  0  0  0  0  0
  189.3450  177.5310  140.0380 C   0  0  0  0  0  0  0  0  0  0  0  0
  190.8640  177.5040  143.9700 C   0  0  0  0  0  0  0  0  0  0  0  0
  189.8660  177.5320  141.3450 C   0  0  0  0  0  0  0  0  0  0  0  0
  187.2380  178.4080  140.8950 C   0  0  0  0  0  3  0  0  0  0  0  0
  189.5570  177.9340  143.7300 C   0  0  0  0  0  3  0  0  0  0  0  0
  188.2080  178.6990  137.3860 C   0  0  0  0  0  0  0  0  0  0  0  0
  190.1410  177.0340  138.9530 N   0  0  0  0  0  0  0  0  0  0  0  0
  187.7430  178.3710  142.1950 C   0  0  0  0  0  3  0  0  0  0  0  0
  189.3130  177.6720  135.3960 C   0  0  0  0  0  2  0  0  0  0  0  0
  187.4850  178.1340  138.4880 N   0  0  0  0  0  2  0  0  0  0  0  0
  187.9980  178.1630  136.0060 C   0  0  0  0  0  2  0  0  0  0  0  0
  191.3970  177.4890  145.3570 C   0  0  0  0  0  1  0  0  0  0  0  0
  191.6710  177.0840  142.9080 C   0  0  0  0  0  3  0  0  0  0  0  0
  188.0310  178.0220  139.8110 C   0  0  0  0  0  0  0  0  0  0  0  0
  189.5240  176.1730  135.6060 C   0  0  0  0  0  2  0  0  0  0  0  0
  189.6340  176.2210  138.0840 C   0  0  0  0  0  3  0  0  0  0  0  0
  190.9310  174.4380  136.8620 C   0  0  0  0  0  2  0  0  0  0  0  0
  192.4210  174.1960  136.5320 C   0  0  2  0  0  3  0  0  0  0  0  0
  194.0510  175.5580  136.7980 C   0  0  1  0  0  3  0  0  0  0  0  0
  193.3810  174.5060  137.6670 C   0  0  2  0  0  3  0  0  0  0  0  0
  193.7290  174.6840  134.6060 O   0  0  0  0  0  1  0  0  0  0  0  0
  193.0620  175.2750  135.6790 C   0  0  1  0  0  3  0  0  0  0  0  0
  193.8140  176.8270  137.3280 O   0  0  0  0  0  1  0  0  0  0  0  0
  194.2500  173.4300  137.8480 O   0  0  0  0  0  1  0  0  0  0  0  0
  1 21  1  1  0  0  0
  1 20  1  0  0  0  0
  2 17  1  0  0  0  0
  4  9  2  0  0  0  0
  5  7  1  0  0  0  0
  6 16  1  0  0  0  0
  7  2  2  0  0  0  0
  7  4  1  0  0  0  0
  8 12  2  0  0  0  0
  9  6  1  0  0  0  0
 10  3  2  0  0  0  0
 10 14  1  0  0  0  0
 11  5  1  0  0  0  0
 12  4  1  0  0  0  0
 13 19  1  0  0  0  0
 13 15  1  0  0  0  0
 14 18  1  0  0  0  0
 15 10  1  0  0  0  0
 17  6  2  0  0  0  0
 18  5  2  0  0  0  0
 18  8  1  0  0  0  0
 19  1  1  0  0  0  0
 20 11  2  0  0  0  0
 22 21  1  1  0  0  0
 22 24  1  0  0  0  0
 23 27  1  1  0  0  0
 23 24  1  0  0  0  0
 24 28  1  6  0  0  0
 26 25  1  6  0  0  0
 26 22  1  0  0  0  0
 26 23  1  0  0  0  0
M  END
>  <MODEL>
6

>  <REMARK>
 VINA RESULT:      -8.1      3.431      6.282
  Name = 
  2 active torsions:
  status: ('A' for Active; 'I' for Inactive)
    1  A    between atoms: C_1  and  C_2
    2  A    between atoms: C_2  and  C_3
                            x       y       z     vdW  Elec       q    Type
                         _______ _______ _______ _____ _____    ______ ____

>  <TORSDO>
F 2

$$$$
=
 OpenBabel10272401443D

 28 31  0  0  1  0  0  0  0  0999 V2000
  183.0630  178.0210  137.7020 C   0  0  1  0  0  3  0  0  0  0  0  0
  184.7180  178.8080  142.3330 C   0  0  0  0  0  3  0  0  0  0  0  0
  180.9440  180.9880  139.4780 O   0  0  0  0  0  0  0  0  0  0  0  0
  182.7410  178.7900  143.7460 C   0  0  0  0  0  0  0  0  0  0  0  0
  182.4940  178.8100  141.3170 C   0  0  0  0  0  0  0  0  0  0  0  0
  184.9480  178.7740  144.7440 C   0  0  0  0  0  0  0  0  0  0  0  0
  183.3210  178.8120  142.4550 C   0  0  0  0  0  0  0  0  0  0  0  0
  180.5310  178.8120  142.7640 C   0  0  0  0  0  3  0  0  0  0  0  0
  183.5580  178.7710  144.8810 C   0  0  0  0  0  3  0  0  0  0  0  0
  180.4000  179.8690  139.2710 C   0  0  0  0  0  0  0  0  0  0  0  0
  183.0800  178.7550  140.0080 N   0  0  0  0  0  0  0  0  0  0  0  0
  181.3540  178.7750  143.8910 C   0  0  0  0  0  3  0  0  0  0  0  0
  181.1820  179.5420  136.9230 C   0  0  0  0  0  2  0  0  0  0  0  0
  180.1950  178.9560  140.3570 N   0  0  0  0  0  2  0  0  0  0  0  0
  179.9950  179.4820  137.8860 C   0  0  0  0  0  2  0  0  0  0  0  0
  185.8130  178.7550  145.9530 C   0  0  0  0  0  1  0  0  0  0  0  0
  185.5280  178.7920  143.4720 C   0  0  0  0  0  3  0  0  0  0  0  0
  181.0830  178.8590  141.4810 C   0  0  0  0  0  0  0  0  0  0  0  0
  181.8680  178.1850  136.7630 C   0  0  0  0  0  2  0  0  0  0  0  0
  182.6180  177.9410  139.1150 C   0  0  0  0  0  3  0  0  0  0  0  0
  184.0020  176.8710  137.3000 C   0  0  0  0  0  2  0  0  0  0  0  0
  185.4660  176.8670  137.7950 C   0  0  2  0  0  3  0  0  0  0  0  0
  187.1670  177.7420  136.8340 C   0  0  1  0  0  3  0  0  0  0  0  0
  186.1280  178.2320  137.8310 C   0  0  2  0  0  3  0  0  0  0  0  0
  187.2980  175.4190  137.3420 O   0  0  0  0  0  1  0  0  0  0  0  0
  186.4770  176.3890  136.7680 C   0  0  1  0  0  3  0  0  0  0  0  0
  187.0080  178.4130  135.6210 O   0  0  0  0  0  1  0  0  0  0  0  0
  186.7300  178.4240  139.0750 O   0  0  0  0  0  1  0  0  0  0  0  0
  1 21  1  6  0  0  0
  1 20  1  0  0  0  0
  2  7  2  0  0  0  0
  2 17  1  0  0  0  0
  4 12  1  0  0  0  0
  4  9  2  0  0  0  0
  5 18  2  0  0  0  0
  5  7  1  0  0  0  0
  6  9  1  0  0  0  0
  6 16  1  0  0  0  0
  7  4  1  0  0  0  0
  8 12  2  0  0  0  0
 10  3  2  0  0  0  0
 10 14  1  0  0  0  0
 11  5  1  0  0  0  0
 13 15  1  0  0  0  0
 14 18  1  0  0  0  0
 15 10  1  0  0  0  0
 17  6  2  0  0  0  0
 18  8  1  0  0  0  0
 19 13  1  0  0  0  0
 19  1  1  0  0  0  0
 20 11  2  0  0  0  0
 22 21  1  6  0  0  0
 22 24  1  0  0  0  0
 23 27  1  6  0  0  0
 23 24  1  0  0  0  0
 24 28  1  1  0  0  0
 26 23  1  0  0  0  0
 26 25  1  1  0  0  0
 26 22  1  0  0  0  0
M  END
>  <MODEL>
7

>  <REMARK>
 VINA RESULT:      -8.0      3.120      6.026
  Name = 
  2 active torsions:
  status: ('A' for Active; 'I' for Inactive)
    1  A    between atoms: C_1  and  C_2
    2  A    between atoms: C_2  and  C_3
                            x       y       z     vdW  Elec       q    Type
                         _______ _______ _______ _____ _____    ______ ____

>  <TORSDO>
F 2

$$$$
=
 OpenBabel10272401443D

 28 31  0  0  1  0  0  0  0  0999 V2000
  185.2190  178.5120  144.5790 C   0  0  1  0  0  3  0  0  0  0  0  0
  188.1790  178.3750  140.5770 C   0  0  0  0  0  3  0  0  0  0  0  0
  189.1100  178.7960  145.6860 O   0  0  0  0  0  0  0  0  0  0  0  0
  189.8690  176.6990  141.0700 C   0  0  0  0  0  0  0  0  0  0  0  0
  188.3540  177.4480  142.8330 C   0  0  0  0  0  0  0  0  0  0  0  0
  189.6800  177.6120  138.8350 C   0  0  0  0  0  0  0  0  0  0  0  0
  188.7990  177.5200  141.5000 C   0  0  0  0  0  0  0  0  0  0  0  0
  190.0740  175.7840  143.2990 C   0  0  0  0  0  3  0  0  0  0  0  0
  190.3020  176.7510  139.7410 C   0  0  0  0  0  3  0  0  0  0  0  0
  188.4660  177.7410  145.9300 C   0  0  0  0  0  0  0  0  0  0  0  0
  187.2210  178.2230  143.2510 N   0  0  0  0  0  0  0  0  0  0  0  0
  190.4880  175.8290  141.9670 C   0  0  0  0  0  3  0  0  0  0  0  0
  186.3900  178.8070  146.8160 C   0  0  0  0  0  2  0  0  0  0  0  0
  188.6870  176.5640  145.1430 N   0  0  0  0  0  2  0  0  0  0  0  0
  187.4490  177.7230  147.0250 C   0  0  0  0  0  2  0  0  0  0  0  0
  190.1430  177.6650  137.4240 C   0  0  0  0  0  1  0  0  0  0  0  0
  188.6190  178.4230  139.2510 C   0  0  0  0  0  3  0  0  0  0  0  0
  189.0370  176.6030  143.7500 C   0  0  0  0  0  0  0  0  0  0  0  0
  185.1540  178.2760  146.0880 C   0  0  0  0  0  2  0  0  0  0  0  0
  186.2820  177.6840  143.9590 C   0  0  0  0  0  3  0  0  0  0  0  0
  183.8570  178.3670  143.8800 C   0  0  0  0  0  2  0  0  0  0  0  0
  183.5960  179.1050  142.5480 C   0  0  2  0  0  3  0  0  0  0  0  0
  183.0440  178.2410  140.6680 C   0  0  1  0  0  3  0  0  0  0  0  0
  182.2800  178.7570  141.8770 C   0  0  2  0  0  3  0  0  0  0  0  0
  185.0030  179.5950  140.6930 O   0  0  0  0  0  1  0  0  0  0  0  0
  184.3620  178.5510  141.3600 C   0  0  1  0  0  3  0  0  0  0  0  0
  182.8800  176.8590  140.5630 O   0  0  0  0  0  1  0  0  0  0  0  0
  181.6070  179.9310  141.5360 O   0  0  0  0  0  1  0  0  0  0  0  0
  1 21  1  6  0  0  0
  1 19  1  0  0  0  0
  2  7  1  0  0  0  0
  3 10  2  0  0  0  0
  4  7  2  0  0  0  0
  4 12  1  0  0  0  0
  5 11  1  0  0  0  0
  5 18  2  0  0  0  0
  6 17  1  0  0  0  0
  6  9  2  0  0  0  0
  7  5  1  0  0  0  0
  8 18  1  0  0  0  0
  9  4  1  0  0  0  0
 10 15  1  0  0  0  0
 11 20  2  0  0  0  0
 12  8  2  0  0  0  0
 13 15  1  0  0  0  0
 14 10  1  0  0  0  0
 16  6  1  0  0  0  0
 17  2  2  0  0  0  0
 18 14  1  0  0  0  0
 19 13  1  0  0  0  0
 20  1  1  0  0  0  0
 22 21  1  1  0  0  0
 23 27  1  1  0  0  0
 23 26  1  0  0  0  0
 23 24  1  0  0  0  0
 24 28  1  6  0  0  0
 24 22  1  0  0  0  0
 26 25  1  6  0  0  0
 26 22  1  0  0  0  0
M  END
>  <MODEL>
8

>  <REMARK>
 VINA RESULT:      -7.9      2.397      6.094
  Name = 
  2 active torsions:
  status: ('A' for Active; 'I' for Inactive)
    1  A    between atoms: C_1  and  C_2
    2  A    between atoms: C_2  and  C_3
                            x       y       z     vdW  Elec       q    Type
                         _______ _______ _______ _____ _____    ______ ____

>  <TORSDO>
F 2

$$$$
=
 OpenBabel10272401443D

 28 31  0  0  1  0  0  0  0  0999 V2000
  187.7340  177.5060  144.3570 C   0  0  1  0  0  3  0  0  0  0  0  0
  187.4650  178.2820  139.4460 C   0  0  0  0  0  3  0  0  0  0  0  0
  191.2490  178.9710  142.9600 O   0  0  0  0  0  0  0  0  0  0  0  0
  189.4300  177.2050  138.5040 C   0  0  0  0  0  0  0  0  0  0  0  0
  189.2270  177.4540  140.9250 C   0  0  0  0  0  0  0  0  0  0  0  0
  187.6730  178.0150  137.0460 C   0  0  0  0  0  0  0  0  0  0  0  0
  188.7070  177.6580  139.6340 C   0  0  0  0  0  0  0  0  0  0  0  0
  191.1950  176.3980  139.9470 C   0  0  0  0  0  3  0  0  0  0  0  0
  188.9090  177.3860  137.2190 C   0  0  0  0  0  3  0  0  0  0  0  0
  191.1760  177.7690  143.3320 C   0  0  0  0  0  0  0  0  0  0  0  0
  188.4610  177.8440  142.0740 N   0  0  0  0  0  0  0  0  0  0  0  0
  190.6590  176.5670  138.6690 C   0  0  0  0  0  3  0  0  0  0  0  0
  189.9320  178.1470  145.4630 C   0  0  0  0  0  2  0  0  0  0  0  0
  191.1300  176.7160  142.3600 N   0  0  0  0  0  2  0  0  0  0  0  0
  191.1090  177.4400  144.7880 C   0  0  0  0  0  2  0  0  0  0  0  0
  187.1230  178.2070  135.6790 C   0  0  0  0  0  1  0  0  0  0  0  0
  186.9520  178.4610  138.1580 C   0  0  0  0  0  3  0  0  0  0  0  0
  190.5100  176.8600  141.0730 C   0  0  0  0  0  0  0  0  0  0  0  0
  188.6860  177.2620  145.5280 C   0  0  0  0  0  2  0  0  0  0  0  0
  188.3360  177.0440  143.0820 C   0  0  0  0  0  3  0  0  0  0  0  0
  186.3210  176.9500  144.5940 C   0  0  0  0  0  2  0  0  0  0  0  0
  185.2300  177.8590  145.2030 C   0  0  2  0  0  3  0  0  0  0  0  0
  184.7200  179.8540  144.6130 C   0  0  1  0  0  3  0  0  0  0  0  0
  184.2710  178.4630  144.1930 C   0  0  2  0  0  3  0  0  0  0  0  0
  185.3060  179.5270  146.8990 O   0  0  0  0  0  1  0  0  0  0  0  0
  185.7100  179.2460  145.5930 C   0  0  1  0  0  3  0  0  0  0  0  0
  185.4090  180.4630  143.5640 O   0  0  0  0  0  1  0  0  0  0  0  0
  182.9580  178.2510  144.6150 O   0  0  0  0  0  1  0  0  0  0  0  0
  1 21  1  1  0  0  0
  1 19  1  0  0  0  0
  2  7  1  0  0  0  0
  3 10  2  0  0  0  0
  4 12  2  0  0  0  0
  4  7  1  0  0  0  0
  5 18  1  0  0  0  0
  5 11  1  0  0  0  0
  6  9  2  0  0  0  0
  6 17  1  0  0  0  0
  7  5  2  0  0  0  0
  8 18  2  0  0  0  0
  9  4  1  0  0  0  0
 10 15  1  0  0  0  0
 11 20  2  0  0  0  0
 12  8  1  0  0  0  0
 13 19  1  0  0  0  0
 14 10  1  0  0  0  0
 15 13  1  0  0  0  0
 16  6  1  0  0  0  0
 17  2  2  0  0  0  0
 18 14  1  0  0  0  0
 20  1  1  0  0  0  0
 22 21  1  6  0  0  0
 22 26  1  0  0  0  0
 23 27  1  6  0  0  0
 23 26  1  0  0  0  0
 24 23  1  0  0  0  0
 24 28  1  1  0  0  0
 24 22  1  0  0  0  0
 26 25  1  1  0  0  0
M  END
>  <MODEL>
9

>  <REMARK>
 VINA RESULT:      -7.7      2.926      6.745
  Name = 
  2 active torsions:
  status: ('A' for Active; 'I' for Inactive)
    1  A    between atoms: C_1  and  C_2
    2  A    between atoms: C_2  and  C_3
                            x       y       z     vdW  Elec       q    Type
                         _______ _______ _______ _____ _____    ______ ____

>  <TORSDO>
F 2

$$$$
