=
 OpenBabel10272400433D

 25 28  0  0  1  0  0  0  0  0999 V2000
  187.0960  177.9670  145.6550 C   0  0  0  0  0  0  0  0  0  0  0  0
  188.3560  177.5010  145.2830 C   0  0  2  0  0  3  0  0  0  0  0  0
  187.7830  178.2000  147.9480 C   0  0  0  0  0  3  0  0  0  0  0  0
  185.9360  178.1900  144.9540 C   0  0  0  0  0  0  0  0  0  0  0  0
  183.3680  178.8280  144.1450 C   0  0  0  0  0  3  0  0  0  0  0  0
  189.0210  177.7430  147.5950 N   0  0  0  0  0  0  0  0  0  0  0  0
  185.0190  178.6560  145.8750 C   0  0  0  0  0  0  0  0  0  0  0  0
  183.7190  178.9840  145.4980 C   0  0  0  0  0  3  0  0  0  0  0  0
  190.6090  176.9240  145.9710 C   0  0  0  0  0  0  0  0  0  0  0  0
  191.6180  176.7950  146.9690 N   0  0  0  0  0  1  0  0  0  0  0  0
  188.6760  177.1450  143.9720 C   0  0  0  0  0  3  0  0  0  0  0  0
  184.3090  178.3510  143.2070 C   0  0  0  0  0  3  0  0  0  0  0  0
  186.8110  178.3110  146.9580 C   0  0  0  0  0  0  0  0  0  0  0  0
  185.5380  178.7390  147.1220 N   0  0  0  0  0  0  0  0  0  0  0  0
  190.8890  176.5830  144.6830 N   0  0  0  0  0  0  0  0  0  0  0  0
  185.6170  178.0230  143.6070 C   0  0  0  0  0  3  0  0  0  0  0  0
  189.9660  176.6890  143.6890 C   0  0  0  0  0  0  0  0  0  0  0  0
  189.3310  177.3940  146.3050 C   0  0  0  0  0  0  0  0  0  0  0  0
  190.3150  176.2750  142.3020 C   0  0  0  0  0  2  0  0  0  0  0  0
  190.0650  177.3770  141.3760 N   0  0  0  0  0  0  0  0  0  0  0  0
  188.6220  177.4320  141.1560 C   0  0  0  0  0  1  0  0  0  0  0  0
  190.1290  178.0190  139.0030 C   0  0  0  0  0  1  0  0  0  0  0  0
  190.7760  177.1770  140.0930 C   0  0  0  0  0  0  0  0  0  0  0  0
  190.6770  175.8380  139.7060 O   0  0  0  0  0  1  0  0  0  0  0  0
  192.2560  177.5500  140.1790 C   0  0  0  0  0  1  0  0  0  0  0  0
  1 13  1  0  0  0  0
  2 11  1  1  0  0  0
  2  1  1  0  0  0  0
  2 18  1  0  0  0  0
  4  1  2  0  0  0  0
  4  7  1  0  0  0  0
  5  8  2  0  0  0  0
  6  3  1  0  0  0  0
  7 14  2  0  0  0  0
  8  7  1  0  0  0  0
  9 18  1  0  0  0  0
  9 10  1  0  0  0  0
 12 16  2  0  0  0  0
 12  5  1  0  0  0  0
 13 14  1  0  0  0  0
 13  3  2  0  0  0  0
 15  9  2  0  0  0  0
 16  4  1  0  0  0  0
 17 11  2  0  0  0  0
 17 15  1  0  0  0  0
 18  6  2  0  0  0  0
 19 17  1  0  0  0  0
 20 19  1  0  0  0  0
 21 20  1  0  0  0  0
 22 23  1  0  0  0  0
 23 25  1  0  0  0  0
 23 20  1  0  0  0  0
 24 23  1  0  0  0  0
M  END
>  <MODEL>
1

>  <REMARK>
 VINA RESULT:     -10.4      0.000      0.000
  Name = 
  3 active torsions:
  status: ('A' for Active; 'I' for Inactive)
    1  A    between atoms: C_6  and  N_15
    2  A    between atoms: C_6  and  C_23
    3  A    between atoms: C_7  and  N_15
                            x       y       z     vdW  Elec       q    Type
                         _______ _______ _______ _____ _____    ______ ____

>  <TORSDO>
F 3

$$$$
=
 OpenBabel10272400433D

 25 28  0  0  1  0  0  0  0  0999 V2000
  185.3620  178.2200  144.7190 C   0  0  0  0  0  0  0  0  0  0  0  0
  186.6630  177.7310  144.8350 C   0  0  2  0  0  3  0  0  0  0  0  0
  185.2750  178.7350  147.0670 C   0  0  0  0  0  3  0  0  0  0  0  0
  184.4980  178.3410  143.6590 C   0  0  0  0  0  0  0  0  0  0  0  0
  182.3480  178.8410  141.9910 C   0  0  0  0  0  3  0  0  0  0  0  0
  186.5490  178.2560  147.1920 N   0  0  0  0  0  0  0  0  0  0  0  0
  183.3450  178.9000  144.1710 C   0  0  0  0  0  0  0  0  0  0  0  0
  182.2460  179.1630  143.3560 C   0  0  0  0  0  3  0  0  0  0  0  0
  188.5550  177.2720  146.2800 C   0  0  0  0  0  0  0  0  0  0  0  0
  189.1830  177.2770  147.5590 N   0  0  0  0  0  1  0  0  0  0  0  0
  187.3810  177.2240  143.7510 C   0  0  0  0  0  3  0  0  0  0  0  0
  183.5300  178.2690  141.4720 C   0  0  0  0  0  3  0  0  0  0  0  0
  184.6790  178.7130  145.8100 C   0  0  0  0  0  0  0  0  0  0  0  0
  183.4330  179.1390  145.5000 N   0  0  0  0  0  0  0  0  0  0  0  0
  189.2290  176.7830  145.2030 N   0  0  0  0  0  0  0  0  0  0  0  0
  184.6290  178.0100  142.3110 C   0  0  0  0  0  3  0  0  0  0  0  0
  188.6810  176.7570  143.9570 C   0  0  0  0  0  0  0  0  0  0  0  0
  187.2510  177.7610  146.1240 C   0  0  0  0  0  0  0  0  0  0  0  0
  189.4500  176.1840  142.8180 C   0  0  0  0  0  2  0  0  0  0  0  0
  190.0990  177.2570  142.0680 N   0  0  0  0  0  0  0  0  0  0  0  0
  190.0240  176.8960  140.6550 C   0  0  0  0  0  1  0  0  0  0  0  0
  192.3950  177.6020  141.2570 C   0  0  0  0  0  1  0  0  0  0  0  0
  191.5090  177.4300  142.4830 C   0  0  0  0  0  0  0  0  0  0  0  0
  191.9430  176.2870  143.1580 O   0  0  0  0  0  1  0  0  0  0  0  0
  191.7070  178.6400  143.3970 C   0  0  0  0  0  1  0  0  0  0  0  0
  1  2  1  0  0  0  0
  1 13  1  0  0  0  0
  2 11  1  1  0  0  0
  2 18  1  0  0  0  0
  3  6  1  0  0  0  0
  4  7  1  0  0  0  0
  4  1  2  0  0  0  0
  5  8  2  0  0  0  0
  7 14  2  0  0  0  0
  8  7  1  0  0  0  0
  9 10  1  0  0  0  0
 11 17  2  0  0  0  0
 12  5  1  0  0  0  0
 12 16  2  0  0  0  0
 13  3  2  0  0  0  0
 14 13  1  0  0  0  0
 15  9  2  0  0  0  0
 16  4  1  0  0  0  0
 17 15  1  0  0  0  0
 18  9  1  0  0  0  0
 18  6  2  0  0  0  0
 19 17  1  0  0  0  0
 20 23  1  0  0  0  0
 20 19  1  0  0  0  0
 21 20  1  0  0  0  0
 22 23  1  0  0  0  0
 23 24  1  0  0  0  0
 23 25  1  0  0  0  0
M  END
>  <MODEL>
2

>  <REMARK>
 VINA RESULT:     -10.2      1.508      2.287
  Name = 
  3 active torsions:
  status: ('A' for Active; 'I' for Inactive)
    1  A    between atoms: C_6  and  N_15
    2  A    between atoms: C_6  and  C_23
    3  A    between atoms: C_7  and  N_15
                            x       y       z     vdW  Elec       q    Type
                         _______ _______ _______ _____ _____    ______ ____

>  <TORSDO>
F 3

$$$$
=
 OpenBabel10272400433D

 25 28  0  0  0  0  0  0  0  0999 V2000
  188.0290  177.7450  144.3190 C   0  0  0  0  0  0  0  0  0  0  0  0
  187.7050  178.0360  142.9950 C   0  0  0  0  0  0  0  0  0  0  0  0
  185.7850  178.2220  145.0440 C   0  0  0  0  0  3  0  0  0  0  0  0
  189.1910  177.3450  144.9330 C   0  0  0  0  0  0  0  0  0  0  0  0
  191.1480  176.5570  146.7220 C   0  0  0  0  0  3  0  0  0  0  0  0
  185.4580  178.5120  143.7490 N   0  0  0  0  0  0  0  0  0  0  0  0
  188.8870  177.2170  146.2730 C   0  0  0  0  0  0  0  0  0  0  0  0
  189.8510  176.8220  147.1980 C   0  0  0  0  0  3  0  0  0  0  0  0
  186.0090  178.7380  141.4100 C   0  0  0  0  0  0  0  0  0  0  0  0
  184.6800  179.1450  141.0990 N   0  0  0  0  0  1  0  0  0  0  0  0
  188.6300  177.9560  141.9530 C   0  0  0  0  0  2  0  0  0  0  0  0
  191.4530  176.6910  145.3500 C   0  0  0  0  0  3  0  0  0  0  0  0
  187.0920  177.8340  145.3260 C   0  0  0  0  0  0  0  0  0  0  0  0
  187.5940  177.5140  146.5410 N   0  0  0  0  0  0  0  0  0  0  0  0
  186.9360  178.6520  140.4160 N   0  0  0  0  0  0  0  0  0  0  0  0
  190.4660  177.0910  144.4320 C   0  0  0  0  0  3  0  0  0  0  0  0
  188.2190  178.2650  140.6550 C   0  0  0  0  0  0  0  0  0  0  0  0
  186.3710  178.4310  142.7290 C   0  0  0  0  0  0  0  0  0  0  0  0
  189.2010  178.2150  139.5360 C   0  0  0  0  0  2  0  0  0  0  0  0
  188.6400  177.4610  138.4160 N   0  0  0  0  0  0  0  0  0  0  0  0
  189.5600  176.3620  138.1380 C   0  0  0  0  0  1  0  0  0  0  0  0
  189.2700  177.7350  136.0550 C   0  0  0  0  0  1  0  0  0  0  0  0
  188.4780  178.3150  137.2180 C   0  0  0  0  0  0  0  0  0  0  0  0
  188.9870  179.5900  137.4790 O   0  0  0  0  0  1  0  0  0  0  0  0
  187.0170  178.4530  136.7890 C   0  0  0  0  0  1  0  0  0  0  0  0
  1  4  1  0  0  0  0
  1 13  1  0  0  0  0
  2  1  2  0  0  0  0
  3 13  1  0  0  0  0
  4  7  1  0  0  0  0
  5  8  1  0  0  0  0
  6  3  2  0  0  0  0
  7 14  1  0  0  0  0
  7  8  2  0  0  0  0
  9 18  2  0  0  0  0
 10  9  1  0  0  0  0
 11  2  1  0  0  0  0
 12  5  2  0  0  0  0
 13 14  2  0  0  0  0
 15 17  2  0  0  0  0
 15  9  1  0  0  0  0
 16  4  2  0  0  0  0
 16 12  1  0  0  0  0
 17 11  1  0  0  0  0
 18  2  1  0  0  0  0
 18  6  1  0  0  0  0
 19 17  1  0  0  0  0
 20 19  1  0  0  0  0
 21 20  1  0  0  0  0
 22 23  1  0  0  0  0
 23 24  1  0  0  0  0
 23 20  1  0  0  0  0
 25 23  1  0  0  0  0
M  END
>  <MODEL>
3

>  <REMARK>
 VINA RESULT:     -10.1      2.412      4.987
  Name = 
  3 active torsions:
  status: ('A' for Active; 'I' for Inactive)
    1  A    between atoms: C_6  and  N_15
    2  A    between atoms: C_6  and  C_23
    3  A    between atoms: C_7  and  N_15
                            x       y       z     vdW  Elec       q    Type
                         _______ _______ _______ _____ _____    ______ ____

>  <TORSDO>
F 3

$$$$
=
 OpenBabel10272400433D

 25 28  0  0  0  0  0  0  0  0999 V2000
  186.7810  178.0890  144.2700 C   0  0  0  0  0  0  0  0  0  0  0  0
  186.7170  178.3100  142.8950 C   0  0  0  0  0  0  0  0  0  0  0  0
  184.4510  178.6240  144.5330 C   0  0  0  0  0  3  0  0  0  0  0  0
  187.8000  177.7140  145.1120 C   0  0  0  0  0  0  0  0  0  0  0  0
  189.3720  177.0110  147.2760 C   0  0  0  0  0  3  0  0  0  0  0  0
  184.3770  178.8450  143.1870 N   0  0  0  0  0  0  0  0  0  0  0  0
  187.2480  177.6630  146.3760 C   0  0  0  0  0  0  0  0  0  0  0  0
  188.0140  177.3120  147.4850 C   0  0  0  0  0  3  0  0  0  0  0  0
  185.3610  178.9370  140.9850 C   0  0  0  0  0  0  0  0  0  0  0  0
  184.1220  179.3370  140.4080 N   0  0  0  0  0  1  0  0  0  0  0  0
  187.8190  178.1650  142.0520 C   0  0  0  0  0  2  0  0  0  0  0  0
  189.9320  177.0660  145.9810 C   0  0  0  0  0  3  0  0  0  0  0  0
  185.6740  178.2420  145.0760 C   0  0  0  0  0  0  0  0  0  0  0  0
  185.9330  177.9840  146.3790 N   0  0  0  0  0  0  0  0  0  0  0  0
  186.4560  178.7880  140.1890 N   0  0  0  0  0  0  0  0  0  0  0  0
  189.1420  177.4230  144.8740 C   0  0  0  0  0  3  0  0  0  0  0  0
  187.6650  178.4050  140.6850 C   0  0  0  0  0  0  0  0  0  0  0  0
  185.4640  178.7000  142.3620 C   0  0  0  0  0  0  0  0  0  0  0  0
  188.8370  178.2850  139.7750 C   0  0  0  0  0  2  0  0  0  0  0  0
  188.4850  177.4730  138.6130 N   0  0  0  0  0  0  0  0  0  0  0  0
  189.4690  176.3980  138.5280 C   0  0  0  0  0  1  0  0  0  0  0  0
  189.4120  177.6400  136.3420 C   0  0  0  0  0  1  0  0  0  0  0  0
  188.4890  178.2780  137.3700 C   0  0  0  0  0  0  0  0  0  0  0  0
  188.9820  179.5560  137.6420 O   0  0  0  0  0  1  0  0  0  0  0  0
  187.0970  178.4130  136.7540 C   0  0  0  0  0  1  0  0  0  0  0  0
  1 13  1  0  0  0  0
  1  4  1  0  0  0  0
  2  1  2  0  0  0  0
  3 13  1  0  0  0  0
  4  7  1  0  0  0  0
  5  8  1  0  0  0  0
  6  3  2  0  0  0  0
  7 14  1  0  0  0  0
  7  8  2  0  0  0  0
  9 18  2  0  0  0  0
 10  9  1  0  0  0  0
 11  2  1  0  0  0  0
 12  5  2  0  0  0  0
 13 14  2  0  0  0  0
 15 17  2  0  0  0  0
 15  9  1  0  0  0  0
 16  4  2  0  0  0  0
 16 12  1  0  0  0  0
 17 11  1  0  0  0  0
 18  2  1  0  0  0  0
 18  6  1  0  0  0  0
 19 17  1  0  0  0  0
 20 19  1  0  0  0  0
 21 20  1  0  0  0  0
 22 23  1  0  0  0  0
 23 24  1  0  0  0  0
 23 20  1  0  0  0  0
 25 23  1  0  0  0  0
M  END
>  <MODEL>
4

>  <REMARK>
 VINA RESULT:     -10.1      2.532      4.886
  Name = 
  3 active torsions:
  status: ('A' for Active; 'I' for Inactive)
    1  A    between atoms: C_6  and  N_15
    2  A    between atoms: C_6  and  C_23
    3  A    between atoms: C_7  and  N_15
                            x       y       z     vdW  Elec       q    Type
                         _______ _______ _______ _____ _____    ______ ____

>  <TORSDO>
F 3

$$$$
=
 OpenBabel10272400433D

 25 28  0  0  1  0  0  0  0  0999 V2000
  185.8720  178.5330  142.3890 C   0  0  0  0  0  0  0  0  0  0  0  0
  187.0910  178.3420  141.7400 C   0  0  0  0  0  0  0  0  0  0  0  0
  184.7440  178.9280  140.3010 C   0  0  0  0  0  3  0  0  0  0  0  0
  185.4990  178.5010  143.7110 C   0  0  0  0  0  0  0  0  0  0  0  0
  184.1420  178.5820  146.1210 C   0  0  0  0  0  3  0  0  0  0  0  0
  185.9350  178.7450  139.6560 N   0  0  0  0  0  0  0  0  0  0  0  0
  184.1460  178.7700  143.7300 C   0  0  1  0  0  3  0  0  0  0  0  0
  183.4360  178.8180  144.9280 C   0  0  0  0  0  3  0  0  0  0  0  0
  188.3030  178.2790  139.6410 C   0  0  0  0  0  0  0  0  0  0  0  0
  188.3540  178.3930  138.2220 N   0  0  0  0  0  1  0  0  0  0  0  0
  188.2740  178.0510  142.4210 C   0  0  0  0  0  3  0  0  0  0  0  0
  185.5270  178.3070  146.0950 C   0  0  0  0  0  3  0  0  0  0  0  0
  184.7200  178.8190  141.6890 C   0  0  0  0  0  0  0  0  0  0  0  0
  183.6410  178.9700  142.4910 N   0  0  0  0  0  0  0  0  0  0  0  0
  189.4410  177.9980  140.3350 N   0  0  0  0  0  0  0  0  0  0  0  0
  186.2270  178.2650  144.8760 C   0  0  0  0  0  3  0  0  0  0  0  0
  189.4510  177.8740  141.6900 C   0  0  0  0  0  0  0  0  0  0  0  0
  187.0950  178.4580  140.3290 C   0  0  0  0  0  0  0  0  0  0  0  0
  190.7280  177.5940  142.4020 C   0  0  0  0  0  2  0  0  0  0  0  0
  190.6590  178.1080  143.7680 N   0  0  0  0  0  0  0  0  0  0  0  0
  191.6500  179.1750  143.8750 C   0  0  0  0  0  1  0  0  0  0  0  0
  189.6650  176.7070  145.5270 C   0  0  0  0  0  1  0  0  0  0  0  0
  190.9350  177.0450  144.7600 C   0  0  0  0  0  0  0  0  0  0  0  0
  191.8770  177.5000  145.6860 O   0  0  0  0  0  1  0  0  0  0  0  0
  191.4660  175.7650  144.1150 C   0  0  0  0  0  1  0  0  0  0  0  0
  1  4  2  0  0  0  0
  2  1  1  0  0  0  0
  2 11  1  0  0  0  0
  3 13  1  0  0  0  0
  4  7  1  0  0  0  0
  4 16  1  0  0  0  0
  6  3  2  0  0  0  0
  6 18  1  0  0  0  0
  7  8  1  1  0  0  0
  8  5  2  0  0  0  0
  9 18  1  0  0  0  0
  9 15  2  0  0  0  0
 10  9  1  0  0  0  0
 12  5  1  0  0  0  0
 13  1  1  0  0  0  0
 13 14  2  0  0  0  0
 14  7  1  0  0  0  0
 15 17  1  0  0  0  0
 16 12  2  0  0  0  0
 17 19  1  0  0  0  0
 17 11  2  0  0  0  0
 18  2  2  0  0  0  0
 19 20  1  0  0  0  0
 20 21  1  0  0  0  0
 20 23  1  0  0  0  0
 23 22  1  0  0  0  0
 23 24  1  0  0  0  0
 25 23  1  0  0  0  0
M  END
>  <MODEL>
5

>  <REMARK>
 VINA RESULT:     -10.0      2.472      4.961
  Name = 
  3 active torsions:
  status: ('A' for Active; 'I' for Inactive)
    1  A    between atoms: C_6  and  N_15
    2  A    between atoms: C_6  and  C_23
    3  A    between atoms: C_7  and  N_15
                            x       y       z     vdW  Elec       q    Type
                         _______ _______ _______ _____ _____    ______ ____

>  <TORSDO>
F 3

$$$$
=
 OpenBabel10272400433D

 25 28  0  0  1  0  0  0  0  0999 V2000
  189.6790  177.4700  143.7210 C   0  0  0  0  0  0  0  0  0  0  0  0
  188.9470  177.8350  142.5920 C   0  0  0  0  0  0  0  0  0  0  0  0
  191.5770  176.8570  142.3760 C   0  0  0  0  0  3  0  0  0  0  0  0
  189.3920  177.4720  145.0640 C   0  0  0  0  0  0  0  0  0  0  0  0
  189.4400  177.2330  147.8200 C   0  0  0  0  0  3  0  0  0  0  0  0
  190.8670  177.2100  141.2630 N   0  0  0  0  0  0  0  0  0  0  0  0
  190.5240  176.9940  145.6950 C   0  0  1  0  0  3  0  0  0  0  0  0
  190.5770  176.8630  147.0810 C   0  0  0  0  0  3  0  0  0  0  0  0
  188.8780  178.0400  140.1770 C   0  0  0  0  0  0  0  0  0  0  0  0
  189.4780  177.9040  138.8920 N   0  0  0  0  0  1  0  0  0  0  0  0
  187.6410  178.3220  142.6610 C   0  0  0  0  0  3  0  0  0  0  0  0
  188.2850  177.7200  147.1700 C   0  0  0  0  0  3  0  0  0  0  0  0
  190.9670  176.9910  143.6200 C   0  0  0  0  0  0  0  0  0  0  0  0
  191.5120  176.6900  144.8220 N   0  0  0  0  0  0  0  0  0  0  0  0
  187.6040  178.5110  140.2780 N   0  0  0  0  0  0  0  0  0  0  0  0
  188.2490  177.8450  145.7700 C   0  0  0  0  0  3  0  0  0  0  0  0
  186.9820  178.6650  141.4780 C   0  0  0  0  0  0  0  0  0  0  0  0
  189.5840  177.6890  141.3350 C   0  0  0  0  0  0  0  0  0  0  0  0
  185.5780  179.1570  141.5300 C   0  0  0  0  0  2  0  0  0  0  0  0
  184.7610  178.2450  142.3280 N   0  0  0  0  0  0  0  0  0  0  0  0
  183.6350  177.8380  141.4930 C   0  0  0  0  0  1  0  0  0  0  0  0
  182.7560  178.9450  143.5680 C   0  0  0  0  0  1  0  0  0  0  0  0
  184.2770  178.8960  143.5670 C   0  0  0  0  0  0  0  0  0  0  0  0
  184.7410  180.2130  143.6150 O   0  0  0  0  0  1  0  0  0  0  0  0
  184.7400  178.1700  144.8300 C   0  0  0  0  0  1  0  0  0  0  0  0
  1  4  2  0  0  0  0
  2 11  1  0  0  0  0
  2  1  1  0  0  0  0
  3 13  1  0  0  0  0
  4  7  1  0  0  0  0
  4 16  1  0  0  0  0
  6 18  1  0  0  0  0
  6  3  2  0  0  0  0
  7  8  1  6  0  0  0
  8  5  2  0  0  0  0
  9 15  2  0  0  0  0
  9 18  1  0  0  0  0
 10  9  1  0  0  0  0
 12  5  1  0  0  0  0
 13  1  1  0  0  0  0
 13 14  2  0  0  0  0
 14  7  1  0  0  0  0
 15 17  1  0  0  0  0
 16 12  2  0  0  0  0
 17 19  1  0  0  0  0
 17 11  2  0  0  0  0
 18  2  2  0  0  0  0
 19 20  1  0  0  0  0
 20 23  1  0  0  0  0
 21 20  1  0  0  0  0
 23 22  1  0  0  0  0
 23 24  1  0  0  0  0
 23 25  1  0  0  0  0
M  END
>  <MODEL>
6

>  <REMARK>
 VINA RESULT:     -10.0      2.420      6.125
  Name = 
  3 active torsions:
  status: ('A' for Active; 'I' for Inactive)
    1  A    between atoms: C_6  and  N_15
    2  A    between atoms: C_6  and  C_23
    3  A    between atoms: C_7  and  N_15
                            x       y       z     vdW  Elec       q    Type
                         _______ _______ _______ _____ _____    ______ ____

>  <TORSDO>
F 3

$$$$
=
 OpenBabel10272400433D

 25 28  0  0  0  0  0  0  0  0999 V2000
  187.3520  177.8740  143.9860 C   0  0  0  0  0  0  0  0  0  0  0  0
  188.2780  177.7780  142.9480 C   0  0  0  0  0  0  0  0  0  0  0  0
  188.9590  177.0720  145.5860 C   0  0  0  0  0  3  0  0  0  0  0  0
  186.0380  178.2740  144.0350 C   0  0  0  0  0  0  0  0  0  0  0  0
  183.4600  178.9350  144.7870 C   0  0  0  0  0  3  0  0  0  0  0  0
  189.8730  176.9720  144.5760 N   0  0  0  0  0  0  0  0  0  0  0  0
  185.6520  178.1480  145.3540 C   0  0  0  0  0  0  0  0  0  0  0  0
  184.3610  178.4730  145.7630 C   0  0  0  0  0  3  0  0  0  0  0  0
  190.5290  177.1930  142.2640 C   0  0  0  0  0  0  0  0  0  0  0  0
  191.8420  176.7190  142.5530 N   0  0  0  0  0  1  0  0  0  0  0  0
  187.9760  178.1180  141.6290 C   0  0  0  0  0  2  0  0  0  0  0  0
  183.8600  179.0620  143.4390 C   0  0  0  0  0  3  0  0  0  0  0  0
  187.6800  177.5300  145.2790 C   0  0  0  0  0  0  0  0  0  0  0  0
  186.6510  177.6900  146.1430 N   0  0  0  0  0  0  0  0  0  0  0  0
  190.2030  177.5310  140.9860 N   0  0  0  0  0  0  0  0  0  0  0  0
  185.1680  178.7280  143.0450 C   0  0  0  0  0  3  0  0  0  0  0  0
  188.9670  177.9930  140.6520 C   0  0  0  0  0  0  0  0  0  0  0  0
  189.5720  177.3090  143.2810 C   0  0  0  0  0  0  0  0  0  0  0  0
  188.6530  178.3210  139.2340 C   0  0  0  0  0  2  0  0  0  0  0  0
  187.7270  177.3310  138.6880 N   0  0  0  0  0  0  0  0  0  0  0  0
  188.5160  176.4140  137.8700 C   0  0  0  0  0  1  0  0  0  0  0  0
  186.2160  177.0230  136.7730 C   0  0  0  0  0  1  0  0  0  0  0  0
  186.6700  177.9710  137.8740 C   0  0  0  0  0  0  0  0  0  0  0  0
  187.1820  179.1160  137.2580 O   0  0  0  0  0  1  0  0  0  0  0  0
  185.4500  178.3690  138.7050 C   0  0  0  0  0  1  0  0  0  0  0  0
  1  4  1  0  0  0  0
  1 13  1  0  0  0  0
  2 18  1  0  0  0  0
  2  1  2  0  0  0  0
  4  7  1  0  0  0  0
  5  8  1  0  0  0  0
  6  3  2  0  0  0  0
  7  8  2  0  0  0  0
  7 14  1  0  0  0  0
  9 10  1  0  0  0  0
  9 18  2  0  0  0  0
 11  2  1  0  0  0  0
 12  5  2  0  0  0  0
 13  3  1  0  0  0  0
 13 14  2  0  0  0  0
 15  9  1  0  0  0  0
 16 12  1  0  0  0  0
 16  4  2  0  0  0  0
 17 15  2  0  0  0  0
 17 11  1  0  0  0  0
 18  6  1  0  0  0  0
 19 17  1  0  0  0  0
 20 19  1  0  0  0  0
 21 20  1  0  0  0  0
 22 23  1  0  0  0  0
 23 20  1  0  0  0  0
 23 25  1  0  0  0  0
 24 23  1  0  0  0  0
M  END
>  <MODEL>
7

>  <REMARK>
 VINA RESULT:      -9.6      2.220      3.338
  Name = 
  3 active torsions:
  status: ('A' for Active; 'I' for Inactive)
    1  A    between atoms: C_6  and  N_15
    2  A    between atoms: C_6  and  C_23
    3  A    between atoms: C_7  and  N_15
                            x       y       z     vdW  Elec       q    Type
                         _______ _______ _______ _____ _____    ______ ____

>  <TORSDO>
F 3

$$$$
=
 OpenBabel10272400433D

 25 28  0  0  0  0  0  0  0  0999 V2000
  187.6310  177.8680  144.3090 C   0  0  0  0  0  0  0  0  0  0  0  0
  188.4040  177.7420  143.1550 C   0  0  0  0  0  0  0  0  0  0  0  0
  189.5170  177.3520  145.7110 C   0  0  0  0  0  3  0  0  0  0  0  0
  186.3080  178.1680  144.5210 C   0  0  0  0  0  0  0  0  0  0  0  0
  183.8140  178.6980  145.5950 C   0  0  0  0  0  3  0  0  0  0  0  0
  190.2830  177.2250  144.5860 N   0  0  0  0  0  0  0  0  0  0  0  0
  186.1280  178.1420  145.8890 C   0  0  0  0  0  0  0  0  0  0  0  0
  184.8840  178.4040  146.4590 C   0  0  0  0  0  3  0  0  0  0  0  0
  190.5780  177.2690  142.1910 C   0  0  0  0  0  0  0  0  0  0  0  0
  191.9560  176.9280  142.3180 N   0  0  0  0  0  1  0  0  0  0  0  0
  187.8870  177.9280  141.8720 C   0  0  0  0  0  2  0  0  0  0  0  0
  184.0040  178.7230  144.1960 C   0  0  0  0  0  3  0  0  0  0  0  0
  188.1720  177.6770  145.5620 C   0  0  0  0  0  0  0  0  0  0  0  0
  187.2670  177.8410  146.5550 N   0  0  0  0  0  0  0  0  0  0  0  0
  190.0430  177.4540  140.9530 N   0  0  0  0  0  0  0  0  0  0  0  0
  185.2670  178.4540  143.6390 C   0  0  0  0  0  3  0  0  0  0  0  0
  188.7350  177.7840  140.7720 C   0  0  0  0  0  0  0  0  0  0  0  0
  189.7700  177.4090  143.3270 C   0  0  0  0  0  0  0  0  0  0  0  0
  188.1930  177.9470  139.3950 C   0  0  0  0  0  2  0  0  0  0  0  0
  189.2850  177.9210  138.4240 N   0  0  0  0  0  0  0  0  0  0  0  0
  189.1330  179.1010  137.5770 C   0  0  0  0  0  1  0  0  0  0  0  0
  189.4300  177.0370  136.1340 C   0  0  0  0  0  1  0  0  0  0  0  0
  189.2500  176.6890  137.6050 C   0  0  0  0  0  0  0  0  0  0  0  0
  188.0050  176.0700  137.7420 O   0  0  0  0  0  1  0  0  0  0  0  0
  190.3370  175.6900  138.0020 C   0  0  0  0  0  1  0  0  0  0  0  0
  1  4  1  0  0  0  0
  1 13  1  0  0  0  0
  2 18  1  0  0  0  0
  2  1  2  0  0  0  0
  4  7  1  0  0  0  0
  5  8  1  0  0  0  0
  6  3  2  0  0  0  0
  7  8  2  0  0  0  0
  7 14  1  0  0  0  0
  9 10  1  0  0  0  0
  9 18  2  0  0  0  0
 11  2  1  0  0  0  0
 12  5  2  0  0  0  0
 13  3  1  0  0  0  0
 13 14  2  0  0  0  0
 15  9  1  0  0  0  0
 16 12  1  0  0  0  0
 16  4  2  0  0  0  0
 17 15  2  0  0  0  0
 17 11  1  0  0  0  0
 18  6  1  0  0  0  0
 19 17  1  0  0  0  0
 20 19  1  0  0  0  0
 21 20  1  0  0  0  0
 22 23  1  0  0  0  0
 23 24  1  0  0  0  0
 23 25  1  0  0  0  0
 23 20  1  0  0  0  0
M  END
>  <MODEL>
8

>  <REMARK>
 VINA RESULT:      -9.6      1.648      2.850
  Name = 
  3 active torsions:
  status: ('A' for Active; 'I' for Inactive)
    1  A    between atoms: C_6  and  N_15
    2  A    between atoms: C_6  and  C_23
    3  A    between atoms: C_7  and  N_15
                            x       y       z     vdW  Elec       q    Type
                         _______ _______ _______ _____ _____    ______ ____

>  <TORSDO>
F 3

$$$$
=
 OpenBabel10272400433D

 25 28  0  0  1  0  0  0  0  0999 V2000
  187.7560  177.6690  144.9240 C   0  0  0  0  0  0  0  0  0  0  0  0
  186.5690  178.0230  144.2830 C   0  0  2  0  0  3  0  0  0  0  0  0
  186.7810  178.0570  147.0890 C   0  0  0  0  0  3  0  0  0  0  0  0
  188.9840  177.2640  144.4630 C   0  0  0  0  0  0  0  0  0  0  0  0
  191.6070  176.4260  144.1910 C   0  0  0  0  0  3  0  0  0  0  0  0
  185.6140  178.4080  146.4700 N   0  0  0  0  0  0  0  0  0  0  0  0
  189.7610  177.0580  145.5860 C   0  0  0  0  0  0  0  0  0  0  0  0
  191.0850  176.6360  145.4800 C   0  0  0  0  0  3  0  0  0  0  0  0
  184.2720  178.7700  144.4970 C   0  0  0  0  0  0  0  0  0  0  0  0
  183.1530  179.1630  145.2850 N   0  0  0  0  0  1  0  0  0  0  0  0
  186.4280  178.0200  142.8950 C   0  0  0  0  0  3  0  0  0  0  0  0
  190.8080  176.6390  143.0470 C   0  0  0  0  0  3  0  0  0  0  0  0
  187.8640  177.6840  146.2980 C   0  0  0  0  0  0  0  0  0  0  0  0
  189.0890  177.3110  146.7330 N   0  0  0  0  0  0  0  0  0  0  0  0
  184.1670  178.7570  143.1390 N   0  0  0  0  0  0  0  0  0  0  0  0
  189.4740  177.0660  143.1740 C   0  0  0  0  0  3  0  0  0  0  0  0
  185.2020  178.3870  142.3360 C   0  0  0  0  0  0  0  0  0  0  0  0
  185.4800  178.4020  145.1050 C   0  0  0  0  0  0  0  0  0  0  0  0
  185.0430  178.4190  140.8560 C   0  0  0  0  0  2  0  0  0  0  0  0
  183.6360  178.6160  140.5110 N   0  0  0  0  0  0  0  0  0  0  0  0
  183.0210  177.2920  140.4540 C   0  0  0  0  0  1  0  0  0  0  0  0
  183.6800  178.3220  138.0710 C   0  0  0  0  0  1  0  0  0  0  0  0
  183.4910  179.3100  139.2120 C   0  0  0  0  0  0  0  0  0  0  0  0
  184.4810  180.2880  139.0910 O   0  0  0  0  0  1  0  0  0  0  0  0
  182.1250  179.9780  139.0540 C   0  0  0  0  0  1  0  0  0  0  0  0
  1 13  1  0  0  0  0
  2 11  1  6  0  0  0
  2  1  1  0  0  0  0
  2 18  1  0  0  0  0
  4  1  2  0  0  0  0
  4  7  1  0  0  0  0
  5  8  2  0  0  0  0
  6  3  1  0  0  0  0
  7 14  2  0  0  0  0
  8  7  1  0  0  0  0
  9 18  1  0  0  0  0
  9 10  1  0  0  0  0
 12 16  2  0  0  0  0
 12  5  1  0  0  0  0
 13 14  1  0  0  0  0
 13  3  2  0  0  0  0
 15  9  2  0  0  0  0
 16  4  1  0  0  0  0
 17 11  2  0  0  0  0
 17 15  1  0  0  0  0
 18  6  2  0  0  0  0
 19 17  1  0  0  0  0
 20 19  1  0  0  0  0
 21 20  1  0  0  0  0
 22 23  1  0  0  0  0
 23 20  1  0  0  0  0
 24 23  1  0  0  0  0
 25 23  1  0  0  0  0
M  END
>  <MODEL>
9

>  <REMARK>
 VINA RESULT:      -9.5      3.026      5.921
  Name = 
  3 active torsions:
  status: ('A' for Active; 'I' for Inactive)
    1  A    between atoms: C_6  and  N_15
    2  A    between atoms: C_6  and  C_23
    3  A    between atoms: C_7  and  N_15
                            x       y       z     vdW  Elec       q    Type
                         _______ _______ _______ _____ _____    ______ ____

>  <TORSDO>
F 3

$$$$
