=
 OpenBabel10272415053D

 37 40  0  0  1  0  0  0  0  0999 V2000
  190.1320  177.5300  137.0650 C   0  0  0  0  0  2  0  0  0  0  0  0
  187.6780  177.3710  137.7990 C   0  0  2  0  0  3  0  0  0  0  0  0
  191.1590  176.7120  137.8400 C   0  0  2  0  0  3  0  0  0  0  0  0
  189.0710  177.9930  138.0530 C   0  0  1  0  0  3  0  0  0  0  0  0
  191.1870  175.2660  137.3200 C   0  0  2  0  0  3  0  0  0  0  0  0
  187.6530  175.8320  137.8250 C   0  0  0  0  0  2  0  0  0  0  0  0
  189.6520  177.7880  139.4530 C   0  0  2  0  0  3  0  0  0  0  0  0
  188.0340  173.6900  136.6380 C   0  0  0  0  0  2  0  0  0  0  0  0
  187.9770  175.1960  136.4710 C   0  0  2  0  0  3  0  0  0  0  0  0
  189.3210  174.4610  136.4230 C   0  0  1  0  0  3  0  0  0  0  0  0
  190.7920  176.7960  139.3180 C   0  0  2  0  0  3  0  0  0  0  0  0
  190.0150  174.5680  137.6340 O   0  0  0  0  0  0  0  0  0  0  0  0
  185.4730  177.7060  136.6490 C   0  0  0  0  0  1  0  0  0  0  0  0
  186.9620  177.9910  136.5920 C   0  0  1  0  0  3  0  0  0  0  0  0
  187.1530  179.3730  136.5730 O   0  0  0  0  0  1  0  0  0  0  0  0
  187.6900  178.3480  140.7050 O   0  0  0  0  0  0  0  0  0  0  0  0
  188.7050  178.2630  141.6780 C   0  0  2  0  0  3  0  0  0  0  0  0
  188.6540  177.3440  140.5170 C   0  0  2  0  0  3  0  0  0  0  0  0
  188.1770  177.5910  142.9080 C   0  0  0  0  0  0  0  0  0  0  0  0
  186.8620  177.6080  143.1460 C   0  0  0  0  0  2  0  0  0  0  0  0
  189.1450  177.0880  143.9470 C   0  0  2  0  0  3  0  0  0  0  0  0
  188.6390  177.3970  145.3470 C   0  0  0  0  0  1  0  0  0  0  0  0
  190.5410  177.6610  143.7280 C   0  0  0  0  0  2  0  0  0  0  0  0
  191.5930  176.8450  144.4670 C   0  0  0  0  0  2  0  0  0  0  0  0
  191.7760  175.6110  143.8450 O   0  0  0  0  0  1  0  0  0  0  0  0
  192.4380  174.4820  137.7340 C   0  0  0  0  0  2  0  0  0  0  0  0
  193.4750  174.3100  136.6260 C   0  0  0  0  0  2  0  0  0  0  0  0
  194.6490  175.2600  136.7960 C   0  0  2  0  0  3  0  0  0  0  0  0
  194.7510  176.1480  135.5640 C   0  0  0  0  0  2  0  0  0  0  0  0
  193.6150  175.8600  134.6010 C   0  0  0  0  0  1  0  0  0  0  0  0
  195.9200  174.4360  136.9540 C   0  0  0  0  0  2  0  0  0  0  0  0
  195.6170  173.1840  139.0890 O   0  0  0  0  0  1  0  0  0  0  0  0
  197.0890  174.9380  138.9720 O   0  0  0  0  0  0  0  0  0  0  0  0
  196.2370  174.2120  138.3930 C   0  0  0  0  0  0  0  0  0  0  0  0
  191.9900  177.2270  140.1600 C   0  0  0  0  0  2  0  0  0  0  0  0
  193.1240  177.4100  139.3640 O   0  0  0  0  0  0  0  0  0  0  0  0
  194.1570  176.8140  140.0870 C   0  0  0  0  0  1  0  0  0  0  0  0
  2 14  1  6  0  0  0
  2  6  1  0  0  0  0
  2  4  1  0  0  0  0
  3  1  1  6  0  0  0
  3 11  1  0  0  0  0
  4  1  1  6  0  0  0
  4  7  1  0  0  0  0
  5 12  1  0  0  0  0
  5 26  1  1  0  0  0
  5  3  1  0  0  0  0
  7 18  1  1  0  0  0
  9  8  1  1  0  0  0
  9  6  1  0  0  0  0
 10  9  1  0  0  0  0
 10  8  1  1  0  0  0
 10 12  1  0  0  0  0
 11  7  1  0  0  0  0
 11 35  1  1  0  0  0
 14 13  1  1  0  0  0
 15 14  1  0  0  0  0
 16 17  1  0  0  0  0
 17 19  1  1  0  0  0
 18 16  1  6  0  0  0
 18 17  1  0  0  0  0
 19 20  2  0  0  0  0
 19 21  1  0  0  0  0
 21 22  1  1  0  0  0
 23 21  1  0  0  0  0
 23 24  1  0  0  0  0
 25 24  1  0  0  0  0
 27 28  1  0  0  0  0
 27 26  1  0  0  0  0
 28 29  1  6  0  0  0
 28 31  1  0  0  0  0
 30 29  1  0  0  0  0
 31 34  1  0  0  0  0
 34 33  2  0  0  0  0
 34 32  1  0  0  0  0
 36 37  1  0  0  0  0
 36 35  1  0  0  0  0
M  END
>  <MODEL>
1

>  <REMARK>
 VINA RESULT:      -6.1      0.000      0.000
  Name = 
  14 active torsions:
  status: ('A' for Active; 'I' for Inactive)
    1  A    between atoms: C_1  and  C_5
    2  A    between atoms: C_1  and  C_23
    3  A    between atoms: C_2  and  C_6
    4  A    between atoms: C_5  and  C_26
    5  A    between atoms: C_6  and  C_8
    6  A    between atoms: C_6  and  C_31
    7  A    between atoms: C_7  and  C_14
    8  A    between atoms: C_7  and  C_31
    9  A    between atoms: C_8  and  C_19
   10  A    between atoms: C_9  and  C_30
   11  A    between atoms: C_11  and  C_26
   12  A    between atoms: C_20  and  C_25
   13  A    between atoms: O_27  and  C_33
   14  A    between atoms: C_29  and  C_33
                            x       y       z     vdW  Elec       q    Type
                         _______ _______ _______ _____ _____    ______ ____

>  <TORSDO>
F 14

$$$$
=
 OpenBabel10272415053D

 37 40  0  0  1  0  0  0  0  0999 V2000
  190.1520  177.6940  137.2770 C   0  0  0  0  0  2  0  0  0  0  0  0
  187.6610  177.4470  137.8400 C   0  0  2  0  0  3  0  0  0  0  0  0
  191.1500  176.8890  138.1030 C   0  0  2  0  0  3  0  0  0  0  0  0
  189.0140  178.1030  138.2000 C   0  0  1  0  0  3  0  0  0  0  0  0
  191.2570  175.4570  137.5570 C   0  0  2  0  0  3  0  0  0  0  0  0
  187.6810  175.9080  137.8330 C   0  0  0  0  0  2  0  0  0  0  0  0
  189.5050  177.8850  139.6320 C   0  0  2  0  0  3  0  0  0  0  0  0
  188.2070  173.8050  136.6310 C   0  0  0  0  0  2  0  0  0  0  0  0
  188.1160  175.3120  136.4910 C   0  0  2  0  0  3  0  0  0  0  0  0
  189.4810  174.6180  136.5200 C   0  0  1  0  0  3  0  0  0  0  0  0
  190.6820  176.9300  139.5540 C   0  0  2  0  0  3  0  0  0  0  0  0
  190.0890  174.7180  137.7770 O   0  0  0  0  0  0  0  0  0  0  0  0
  185.5210  177.7760  136.5700 C   0  0  0  0  0  1  0  0  0  0  0  0
  187.0090  178.0730  136.5990 C   0  0  1  0  0  3  0  0  0  0  0  0
  187.1900  179.4560  136.6040 O   0  0  0  0  0  1  0  0  0  0  0  0
  187.4970  178.3950  140.8310 O   0  0  0  0  0  0  0  0  0  0  0  0
  188.4650  178.2230  141.8400 C   0  0  2  0  0  3  0  0  0  0  0  0
  188.4520  177.3870  140.6160 C   0  0  2  0  0  3  0  0  0  0  0  0
  187.8700  177.4780  142.9950 C   0  0  0  0  0  0  0  0  0  0  0  0
  188.2450  176.2140  143.2170 C   0  0  0  0  0  2  0  0  0  0  0  0
  186.7230  178.0900  143.7560 C   0  0  2  0  0  3  0  0  0  0  0  0
  186.6650  177.5420  145.1730 C   0  0  0  0  0  1  0  0  0  0  0  0
  185.3990  177.8760  143.0300 C   0  0  0  0  0  2  0  0  0  0  0  0
  184.5640  179.1480  143.0230 C   0  0  0  0  0  2  0  0  0  0  0  0
  183.2220  178.8470  142.7890 O   0  0  0  0  0  1  0  0  0  0  0  0
  192.5010  174.7010  138.0400 C   0  0  0  0  0  2  0  0  0  0  0  0
  193.8280  175.3580  137.6630 C   0  0  0  0  0  2  0  0  0  0  0  0
  194.9000  174.3290  137.3480 C   0  0  2  0  0  3  0  0  0  0  0  0
  194.2860  173.2120  136.5150 C   0  0  0  0  0  2  0  0  0  0  0  0
  194.9810  171.8940  136.7910 C   0  0  0  0  0  1  0  0  0  0  0  0
  195.4360  173.7690  138.6590 C   0  0  0  0  0  2  0  0  0  0  0  0
  197.6370  174.9410  138.6870 O   0  0  0  0  0  0  0  0  0  0  0  0
  196.1010  175.3190  140.3470 O   0  0  0  0  0  1  0  0  0  0  0  0
  196.4070  174.7110  139.2860 C   0  0  0  0  0  0  0  0  0  0  0  0
  191.8070  177.3770  140.4850 C   0  0  0  0  0  2  0  0  0  0  0  0
  191.7010  176.7590  141.7330 O   0  0  0  0  0  0  0  0  0  0  0  0
  191.7850  177.8060  142.6490 C   0  0  0  0  0  1  0  0  0  0  0  0
  2 14  1  6  0  0  0
  2  4  1  0  0  0  0
  3  1  1  6  0  0  0
  3 11  1  0  0  0  0
  4  1  1  6  0  0  0
  4  7  1  0  0  0  0
  5 12  1  0  0  0  0
  5 26  1  1  0  0  0
  5  3  1  0  0  0  0
  6  2  1  0  0  0  0
  7 18  1  1  0  0  0
  9 10  1  0  0  0  0
  9  8  1  1  0  0  0
  9  6  1  0  0  0  0
 10  8  1  1  0  0  0
 10 12  1  0  0  0  0
 11  7  1  0  0  0  0
 11 35  1  1  0  0  0
 14 13  1  1  0  0  0
 14 15  1  0  0  0  0
 16 17  1  0  0  0  0
 17 19  1  1  0  0  0
 18 16  1  6  0  0  0
 18 17  1  0  0  0  0
 19 20  2  0  0  0  0
 19 21  1  0  0  0  0
 21 22  1  1  0  0  0
 23 21  1  0  0  0  0
 24 23  1  0  0  0  0
 25 24  1  0  0  0  0
 27 26  1  0  0  0  0
 28 29  1  6  0  0  0
 28 27  1  0  0  0  0
 28 31  1  0  0  0  0
 29 30  1  0  0  0  0
 31 34  1  0  0  0  0
 32 34  2  0  0  0  0
 34 33  1  0  0  0  0
 35 36  1  0  0  0  0
 36 37  1  0  0  0  0
M  END
>  <MODEL>
2

>  <REMARK>
 VINA RESULT:      -5.8      1.357      2.633
  Name = 
  14 active torsions:
  status: ('A' for Active; 'I' for Inactive)
    1  A    between atoms: C_1  and  C_5
    2  A    between atoms: C_1  and  C_23
    3  A    between atoms: C_2  and  C_6
    4  A    between atoms: C_5  and  C_26
    5  A    between atoms: C_6  and  C_8
    6  A    between atoms: C_6  and  C_31
    7  A    between atoms: C_7  and  C_14
    8  A    between atoms: C_7  and  C_31
    9  A    between atoms: C_8  and  C_19
   10  A    between atoms: C_9  and  C_30
   11  A    between atoms: C_11  and  C_26
   12  A    between atoms: C_20  and  C_25
   13  A    between atoms: O_27  and  C_33
   14  A    between atoms: C_29  and  C_33
                            x       y       z     vdW  Elec       q    Type
                         _______ _______ _______ _____ _____    ______ ____

>  <TORSDO>
F 14

$$$$
=
 OpenBabel10272415053D

 37 40  0  0  1  0  0  0  0  0999 V2000
  182.4130  178.5890  137.6280 C   0  0  0  0  0  2  0  0  0  0  0  0
  181.8350  178.9640  140.1000 C   0  0  2  0  0  3  0  0  0  0  0  0
  183.3630  177.4470  137.2870 C   0  0  2  0  0  3  0  0  0  0  0  0
  182.8570  179.1760  138.9600 C   0  0  1  0  0  3  0  0  0  0  0  0
  182.5930  176.1190  137.2190 C   0  0  2  0  0  3  0  0  0  0  0  0
  181.4800  177.4910  140.3720 C   0  0  0  0  0  2  0  0  0  0  0  0
  184.2710  178.6560  139.2220 C   0  0  2  0  0  3  0  0  0  0  0  0
  180.1460  175.4910  139.7700 C   0  0  0  0  0  2  0  0  0  0  0  0
  180.3350  176.9700  139.4990 C   0  0  2  0  0  3  0  0  0  0  0  0
  180.7570  175.9320  138.4560 C   0  0  1  0  0  3  0  0  0  0  0  0
  184.4630  177.4330  138.3440 C   0  0  2  0  0  3  0  0  0  0  0  0
  182.1380  175.7050  138.4770 O   0  0  0  0  0  0  0  0  0  0  0  0
  180.0270  180.1700  141.3560 C   0  0  0  0  0  1  0  0  0  0  0  0
  180.6180  179.8930  139.9870 C   0  0  1  0  0  3  0  0  0  0  0  0
  180.9880  181.1060  139.4050 O   0  0  0  0  0  1  0  0  0  0  0  0
  184.6180  179.5410  141.4190 O   0  0  0  0  0  0  0  0  0  0  0  0
  185.8690  178.9970  141.0670 C   0  0  2  0  0  3  0  0  0  0  0  0
  184.5950  178.3470  140.6800 C   0  0  2  0  0  3  0  0  0  0  0  0
  186.4760  178.3090  142.2500 C   0  0  0  0  0  0  0  0  0  0  0  0
  185.7630  178.1970  143.3760 C   0  0  0  0  0  2  0  0  0  0  0  0
  187.9360  177.9370  142.2190 C   0  0  2  0  0  3  0  0  0  0  0  0
  188.4500  177.9020  140.7880 C   0  0  0  0  0  1  0  0  0  0  0  0
  188.1860  176.6100  142.9260 C   0  0  0  0  0  2  0  0  0  0  0  0
  189.6460  176.4710  143.3340 C   0  0  0  0  0  2  0  0  0  0  0  0
  190.1930  175.3070  142.7930 O   0  0  0  0  0  1  0  0  0  0  0  0
  183.3520  174.9980  136.4980 C   0  0  0  0  0  2  0  0  0  0  0  0
  183.7360  173.8170  137.3870 C   0  0  0  0  0  2  0  0  0  0  0  0
  184.6980  172.8710  136.6880 C   0  0  2  0  0  3  0  0  0  0  0  0
  184.1000  171.4720  136.6800 C   0  0  0  0  0  2  0  0  0  0  0  0
  184.2220  170.8460  135.3050 C   0  0  0  0  0  1  0  0  0  0  0  0
  186.0170  172.8720  137.4500 C   0  0  0  0  0  2  0  0  0  0  0  0
  188.4640  173.0950  137.0230 O   0  0  0  0  0  1  0  0  0  0  0  0
  186.9680  173.2220  135.2900 O   0  0  0  0  0  0  0  0  0  0  0  0
  187.1690  173.0820  136.5260 C   0  0  0  0  0  0  0  0  0  0  0  0
  185.8470  177.4370  137.7010 C   0  0  0  0  0  2  0  0  0  0  0  0
  186.3660  178.7320  137.6350 O   0  0  0  0  0  0  0  0  0  0  0  0
  187.5970  178.5820  136.9980 C   0  0  0  0  0  1  0  0  0  0  0  0
  2 14  1  6  0  0  0
  2  6  1  0  0  0  0
  3  1  1  1  0  0  0
  3 11  1  0  0  0  0
  4  1  1  6  0  0  0
  4  7  1  0  0  0  0
  4  2  1  0  0  0  0
  5 26  1  1  0  0  0
  5  3  1  0  0  0  0
  5 12  1  0  0  0  0
  7 18  1  1  0  0  0
  9  8  1  1  0  0  0
  9  6  1  0  0  0  0
 10 12  1  0  0  0  0
 10  9  1  0  0  0  0
 10  8  1  1  0  0  0
 11 35  1  6  0  0  0
 11  7  1  0  0  0  0
 14 13  1  1  0  0  0
 15 14  1  0  0  0  0
 17 16  1  0  0  0  0
 17 19  1  1  0  0  0
 18 17  1  0  0  0  0
 18 16  1  1  0  0  0
 19 20  2  0  0  0  0
 21 22  1  6  0  0  0
 21 19  1  0  0  0  0
 21 23  1  0  0  0  0
 23 24  1  0  0  0  0
 25 24  1  0  0  0  0
 26 27  1  0  0  0  0
 28 29  1  1  0  0  0
 28 27  1  0  0  0  0
 28 31  1  0  0  0  0
 30 29  1  0  0  0  0
 33 34  2  0  0  0  0
 34 32  1  0  0  0  0
 34 31  1  0  0  0  0
 36 35  1  0  0  0  0
 37 36  1  0  0  0  0
M  END
>  <MODEL>
3

>  <REMARK>
 VINA RESULT:      -5.5      4.341      7.322
  Name = 
  14 active torsions:
  status: ('A' for Active; 'I' for Inactive)
    1  A    between atoms: C_1  and  C_5
    2  A    between atoms: C_1  and  C_23
    3  A    between atoms: C_2  and  C_6
    4  A    between atoms: C_5  and  C_26
    5  A    between atoms: C_6  and  C_8
    6  A    between atoms: C_6  and  C_31
    7  A    between atoms: C_7  and  C_14
    8  A    between atoms: C_7  and  C_31
    9  A    between atoms: C_8  and  C_19
   10  A    between atoms: C_9  and  C_30
   11  A    between atoms: C_11  and  C_26
   12  A    between atoms: C_20  and  C_25
   13  A    between atoms: O_27  and  C_33
   14  A    between atoms: C_29  and  C_33
                            x       y       z     vdW  Elec       q    Type
                         _______ _______ _______ _____ _____    ______ ____

>  <TORSDO>
F 14

$$$$
=
 OpenBabel10272415053D

 37 40  0  0  1  0  0  0  0  0999 V2000
  189.7020  176.1900  135.6180 C   0  0  0  0  0  2  0  0  0  0  0  0
  187.3180  176.1560  136.5650 C   0  0  2  0  0  3  0  0  0  0  0  0
  190.8400  175.7750  136.5450 C   0  0  2  0  0  3  0  0  0  0  0  0
  188.6610  176.9130  136.4610 C   0  0  1  0  0  3  0  0  0  0  0  0
  190.9660  174.2440  136.5760 C   0  0  2  0  0  3  0  0  0  0  0  0
  187.4300  174.7330  137.1410 C   0  0  0  0  0  2  0  0  0  0  0  0
  189.3360  177.2680  137.7870 C   0  0  2  0  0  3  0  0  0  0  0  0
  187.9320  172.3350  136.7710 C   0  0  0  0  0  2  0  0  0  0  0  0
  187.7330  173.6700  136.0820 C   0  0  2  0  0  3  0  0  0  0  0  0
  189.1320  173.0540  136.1870 C   0  0  1  0  0  3  0  0  0  0  0  0
  190.5500  176.3680  137.9200 C   0  0  2  0  0  3  0  0  0  0  0  0
  189.8810  173.6360  137.2160 O   0  0  0  0  0  0  0  0  0  0  0  0
  185.0050  176.1020  135.5900 C   0  0  0  0  0  1  0  0  0  0  0  0
  186.4820  176.2490  135.2800 C   0  0  1  0  0  3  0  0  0  0  0  0
  186.6880  177.4810  134.6570 O   0  0  0  0  0  1  0  0  0  0  0  0
  187.6480  178.3340  139.1080 O   0  0  0  0  0  0  0  0  0  0  0  0
  188.7660  178.2740  139.9630 C   0  0  2  0  0  3  0  0  0  0  0  0
  188.4420  177.1780  139.0190 C   0  0  2  0  0  3  0  0  0  0  0  0
  188.3290  177.9230  141.3510 C   0  0  0  0  0  0  0  0  0  0  0  0
  187.2310  178.4970  141.8530 C   0  0  0  0  0  2  0  0  0  0  0  0
  189.2350  177.0920  142.2230 C   0  0  2  0  0  3  0  0  0  0  0  0
  188.4250  176.3020  143.2400 C   0  0  0  0  0  1  0  0  0  0  0  0
  190.2880  177.9550  142.9090 C   0  0  0  0  0  2  0  0  0  0  0  0
  191.4550  177.1110  143.4000 C   0  0  0  0  0  2  0  0  0  0  0  0
  191.6300  177.2750  144.7740 O   0  0  0  0  0  1  0  0  0  0  0  0
  192.3040  173.7440  137.1360 C   0  0  0  0  0  2  0  0  0  0  0  0
  193.3300  173.3550  136.0740 C   0  0  0  0  0  2  0  0  0  0  0  0
  194.7050  173.1170  136.6760 C   0  0  2  0  0  3  0  0  0  0  0  0
  195.0700  171.6480  136.5140 C   0  0  0  0  0  2  0  0  0  0  0  0
  195.3540  171.0160  137.8620 C   0  0  0  0  0  1  0  0  0  0  0  0
  194.6580  173.4850  138.1540 C   0  0  0  0  0  2  0  0  0  0  0  0
  196.5670  174.9520  137.5030 O   0  0  0  0  0  0  0  0  0  0  0  0
  195.7550  174.9880  139.6480 O   0  0  0  0  0  1  0  0  0  0  0  0
  195.6920  174.5070  138.4840 C   0  0  0  0  0  0  0  0  0  0  0  0
  191.7500  177.1490  138.4480 C   0  0  0  0  0  2  0  0  0  0  0  0
  191.8740  177.0050  139.8320 O   0  0  0  0  0  0  0  0  0  0  0  0
  193.2130  177.2880  140.0940 C   0  0  0  0  0  1  0  0  0  0  0  0
  2 14  1  6  0  0  0
  2  6  1  0  0  0  0
  3  1  1  6  0  0  0
  3  5  1  0  0  0  0
  3 11  1  0  0  0  0
  4  1  1  6  0  0  0
  4  2  1  0  0  0  0
  4  7  1  0  0  0  0
  5 26  1  1  0  0  0
  5 12  1  0  0  0  0
  7 11  1  0  0  0  0
  7 18  1  1  0  0  0
  9 10  1  0  0  0  0
  9  8  1  1  0  0  0
  9  6  1  0  0  0  0
 10  8  1  1  0  0  0
 10 12  1  0  0  0  0
 11 35  1  6  0  0  0
 14 13  1  1  0  0  0
 15 14  1  0  0  0  0
 16 17  1  0  0  0  0
 17 19  1  1  0  0  0
 18 16  1  6  0  0  0
 18 17  1  0  0  0  0
 19 20  2  0  0  0  0
 19 21  1  0  0  0  0
 21 23  1  0  0  0  0
 21 22  1  1  0  0  0
 23 24  1  0  0  0  0
 24 25  1  0  0  0  0
 27 26  1  0  0  0  0
 28 27  1  1  0  0  0
 28 31  1  0  0  0  0
 29 28  1  0  0  0  0
 29 30  1  0  0  0  0
 31 34  1  0  0  0  0
 32 34  2  0  0  0  0
 34 33  1  0  0  0  0
 35 36  1  0  0  0  0
 36 37  1  0  0  0  0
M  END
>  <MODEL>
4

>  <REMARK>
 VINA RESULT:      -5.5      1.556      2.066
  Name = 
  14 active torsions:
  status: ('A' for Active; 'I' for Inactive)
    1  A    between atoms: C_1  and  C_5
    2  A    between atoms: C_1  and  C_23
    3  A    between atoms: C_2  and  C_6
    4  A    between atoms: C_5  and  C_26
    5  A    between atoms: C_6  and  C_8
    6  A    between atoms: C_6  and  C_31
    7  A    between atoms: C_7  and  C_14
    8  A    between atoms: C_7  and  C_31
    9  A    between atoms: C_8  and  C_19
   10  A    between atoms: C_9  and  C_30
   11  A    between atoms: C_11  and  C_26
   12  A    between atoms: C_20  and  C_25
   13  A    between atoms: O_27  and  C_33
   14  A    between atoms: C_29  and  C_33
                            x       y       z     vdW  Elec       q    Type
                         _______ _______ _______ _____ _____    ______ ____

>  <TORSDO>
F 14

$$$$
=
 OpenBabel10272415053D

 37 40  0  0  1  0  0  0  0  0999 V2000
  190.1610  177.5280  137.0480 C   0  0  0  0  0  2  0  0  0  0  0  0
  187.7030  177.3470  137.7610 C   0  0  2  0  0  3  0  0  0  0  0  0
  191.1910  176.7350  137.8440 C   0  0  2  0  0  3  0  0  0  0  0  0
  189.0840  177.9910  138.0190 C   0  0  1  0  0  3  0  0  0  0  0  0
  191.2430  175.2820  137.3440 C   0  0  2  0  0  3  0  0  0  0  0  0
  187.6970  175.8080  137.8080 C   0  0  0  0  0  2  0  0  0  0  0  0
  189.6550  177.8130  139.4270 C   0  0  2  0  0  3  0  0  0  0  0  0
  188.1180  173.6560  136.6540 C   0  0  0  0  0  2  0  0  0  0  0  0
  188.0440  175.1570  136.4660 C   0  0  2  0  0  3  0  0  0  0  0  0
  189.3970  174.4400  136.4410 C   0  0  1  0  0  3  0  0  0  0  0  0
  190.8090  176.8350  139.3170 C   0  0  2  0  0  3  0  0  0  0  0  0
  190.0780  174.5730  137.6570 O   0  0  0  0  0  0  0  0  0  0  0  0
  185.5100  177.6090  136.5680 C   0  0  0  0  0  1  0  0  0  0  0  0
  186.9900  177.9400  136.5380 C   0  0  1  0  0  3  0  0  0  0  0  0
  187.1380  179.3280  136.5180 O   0  0  0  0  0  1  0  0  0  0  0  0
  187.6700  178.3620  140.6490 O   0  0  0  0  0  0  0  0  0  0  0  0
  188.6760  178.3090  141.6340 C   0  0  2  0  0  3  0  0  0  0  0  0
  188.6520  177.3700  140.4870 C   0  0  2  0  0  3  0  0  0  0  0  0
  188.1460  177.6490  142.8690 C   0  0  0  0  0  0  0  0  0  0  0  0
  186.8320  177.6850  143.1140 C   0  0  0  0  0  2  0  0  0  0  0  0
  189.1120  177.1360  143.9050 C   0  0  2  0  0  3  0  0  0  0  0  0
  188.5240  177.2690  145.3010 C   0  0  0  0  0  1  0  0  0  0  0  0
  190.4590  177.8460  143.8060 C   0  0  0  0  0  2  0  0  0  0  0  0
  191.5770  176.9860  144.3780 C   0  0  0  0  0  2  0  0  0  0  0  0
  191.5920  175.7350  143.7610 O   0  0  0  0  0  1  0  0  0  0  0  0
  192.5010  174.5210  137.7810 C   0  0  0  0  0  2  0  0  0  0  0  0
  193.0660  173.5700  136.7280 C   0  0  0  0  0  2  0  0  0  0  0  0
  194.4770  173.1240  137.0660 C   0  0  2  0  0  3  0  0  0  0  0  0
  195.2480  174.3060  137.6370 C   0  0  0  0  0  2  0  0  0  0  0  0
  196.0220  173.8940  138.8740 C   0  0  0  0  0  1  0  0  0  0  0  0
  195.1480  172.6270  135.7920 C   0  0  0  0  0  2  0  0  0  0  0  0
  195.0930  170.4520  137.0100 O   0  0  0  0  0  1  0  0  0  0  0  0
  196.0560  170.5940  134.9340 O   0  0  0  0  0  0  0  0  0  0  0  0
  195.4680  171.1740  135.8860 C   0  0  0  0  0  0  0  0  0  0  0  0
  191.9930  177.2930  140.1640 C   0  0  0  0  0  2  0  0  0  0  0  0
  193.1580  177.3750  139.3970 O   0  0  0  0  0  0  0  0  0  0  0  0
  194.1540  176.8490  140.2180 C   0  0  0  0  0  1  0  0  0  0  0  0
  2 14  1  6  0  0  0
  2  6  1  0  0  0  0
  2  4  1  0  0  0  0
  3  1  1  6  0  0  0
  3 11  1  0  0  0  0
  4  1  1  6  0  0  0
  4  7  1  0  0  0  0
  5 12  1  0  0  0  0
  5 26  1  1  0  0  0
  5  3  1  0  0  0  0
  7 18  1  1  0  0  0
  9  8  1  1  0  0  0
  9  6  1  0  0  0  0
 10  9  1  0  0  0  0
 10  8  1  1  0  0  0
 10 12  1  0  0  0  0
 11  7  1  0  0  0  0
 11 35  1  1  0  0  0
 14 13  1  1  0  0  0
 15 14  1  0  0  0  0
 16 17  1  0  0  0  0
 17 19  1  1  0  0  0
 18 16  1  6  0  0  0
 18 17  1  0  0  0  0
 19 20  2  0  0  0  0
 19 21  1  0  0  0  0
 21 22  1  1  0  0  0
 23 21  1  0  0  0  0
 23 24  1  0  0  0  0
 25 24  1  0  0  0  0
 27 28  1  0  0  0  0
 27 26  1  0  0  0  0
 28 31  1  6  0  0  0
 28 29  1  0  0  0  0
 29 30  1  0  0  0  0
 31 34  1  0  0  0  0
 33 34  2  0  0  0  0
 34 32  1  0  0  0  0
 36 35  1  0  0  0  0
 36 37  1  0  0  0  0
M  END
>  <MODEL>
5

>  <REMARK>
 VINA RESULT:      -5.4      1.256      1.733
  Name = 
  14 active torsions:
  status: ('A' for Active; 'I' for Inactive)
    1  A    between atoms: C_1  and  C_5
    2  A    between atoms: C_1  and  C_23
    3  A    between atoms: C_2  and  C_6
    4  A    between atoms: C_5  and  C_26
    5  A    between atoms: C_6  and  C_8
    6  A    between atoms: C_6  and  C_31
    7  A    between atoms: C_7  and  C_14
    8  A    between atoms: C_7  and  C_31
    9  A    between atoms: C_8  and  C_19
   10  A    between atoms: C_9  and  C_30
   11  A    between atoms: C_11  and  C_26
   12  A    between atoms: C_20  and  C_25
   13  A    between atoms: O_27  and  C_33
   14  A    between atoms: C_29  and  C_33
                            x       y       z     vdW  Elec       q    Type
                         _______ _______ _______ _____ _____    ______ ____

>  <TORSDO>
F 14

$$$$
=
 OpenBabel10272415053D

 37 40  0  0  1  0  0  0  0  0999 V2000
  184.0690  179.0790  138.1060 C   0  0  0  0  0  2  0  0  0  0  0  0
  182.5870  178.7690  140.1770 C   0  0  2  0  0  3  0  0  0  0  0  0
  185.2880  178.1740  137.9640 C   0  0  2  0  0  3  0  0  0  0  0  0
  183.8820  179.3720  139.5870 C   0  0  1  0  0  3  0  0  0  0  0  0
  184.8770  176.8210  137.3610 C   0  0  2  0  0  3  0  0  0  0  0  0
  182.4620  177.2430  140.0170 C   0  0  0  0  0  2  0  0  0  0  0  0
  185.1840  178.9730  140.2840 C   0  0  2  0  0  3  0  0  0  0  0  0
  181.8630  175.3080  138.5910 C   0  0  0  0  0  2  0  0  0  0  0  0
  181.8330  176.8200  138.6880 C   0  0  2  0  0  3  0  0  0  0  0  0
  182.7990  176.1240  137.7240 C   0  0  1  0  0  3  0  0  0  0  0  0
  185.9180  178.0330  139.3460 C   0  0  2  0  0  3  0  0  0  0  0  0
  184.0980  176.0640  138.2430 O   0  0  0  0  0  0  0  0  0  0  0  0
  180.3380  179.6100  140.9130 C   0  0  0  0  0  1  0  0  0  0  0  0
  181.3290  179.5480  139.7660 C   0  0  1  0  0  3  0  0  0  0  0  0
  181.6660  180.8510  139.3950 O   0  0  0  0  0  1  0  0  0  0  0  0
  184.7340  179.3700  142.6010 O   0  0  0  0  0  0  0  0  0  0  0  0
  186.0590  178.8910  142.5860 C   0  0  2  0  0  3  0  0  0  0  0  0
  185.0230  178.3590  141.6700 C   0  0  2  0  0  3  0  0  0  0  0  0
  186.2770  177.9590  143.7370 C   0  0  0  0  0  0  0  0  0  0  0  0
  185.4910  178.0590  144.8140 C   0  0  0  0  0  2  0  0  0  0  0  0
  187.4920  177.0680  143.7460 C   0  0  2  0  0  3  0  0  0  0  0  0
  188.3050  177.2820  145.0130 C   0  0  0  0  0  1  0  0  0  0  0  0
  188.3460  177.2840  142.5010 C   0  0  0  0  0  2  0  0  0  0  0  0
  189.6950  176.5900  142.6330 C   0  0  0  0  0  2  0  0  0  0  0  0
  190.7290  177.4770  142.3330 O   0  0  0  0  0  1  0  0  0  0  0  0
  186.0520  176.0070  136.8050 C   0  0  0  0  0  2  0  0  0  0  0  0
  185.6500  174.7180  136.0910 C   0  0  0  0  0  2  0  0  0  0  0  0
  186.7360  173.6600  136.1800 C   0  0  2  0  0  3  0  0  0  0  0  0
  186.1770  172.4350  136.8900 C   0  0  0  0  0  2  0  0  0  0  0  0
  184.9620  172.8040  137.7190 C   0  0  0  0  0  1  0  0  0  0  0  0
  187.9080  174.2320  136.9670 C   0  0  0  0  0  2  0  0  0  0  0  0
  189.3020  172.8960  135.3880 O   0  0  0  0  0  0  0  0  0  0  0  0
  190.1560  173.5630  137.4090 O   0  0  0  0  0  1  0  0  0  0  0  0
  189.1800  173.5400  136.6110 C   0  0  0  0  0  0  0  0  0  0  0  0
  187.4090  178.3560  139.3080 C   0  0  0  0  0  2  0  0  0  0  0  0
  187.7920  178.8150  138.0450 O   0  0  0  0  0  0  0  0  0  0  0  0
  189.0790  178.3100  137.8660 C   0  0  0  0  0  1  0  0  0  0  0  0
  2 14  1  6  0  0  0
  3  1  1  1  0  0  0
  3 11  1  0  0  0  0
  4  1  1  6  0  0  0
  4  2  1  0  0  0  0
  4  7  1  0  0  0  0
  5 26  1  1  0  0  0
  5  3  1  0  0  0  0
  5 12  1  0  0  0  0
  6  2  1  0  0  0  0
  7 18  1  1  0  0  0
  9  8  1  1  0  0  0
  9  6  1  0  0  0  0
 10 12  1  0  0  0  0
 10  8  1  1  0  0  0
 10  9  1  0  0  0  0
 11 35  1  6  0  0  0
 11  7  1  0  0  0  0
 14 13  1  1  0  0  0
 15 14  1  0  0  0  0
 17 16  1  0  0  0  0
 17 19  1  1  0  0  0
 18 17  1  0  0  0  0
 18 16  1  1  0  0  0
 19 21  1  0  0  0  0
 19 20  2  0  0  0  0
 21 22  1  1  0  0  0
 23 24  1  0  0  0  0
 23 21  1  0  0  0  0
 25 24  1  0  0  0  0
 27 26  1  0  0  0  0
 28 27  1  1  0  0  0
 28 29  1  0  0  0  0
 28 31  1  0  0  0  0
 29 30  1  0  0  0  0
 32 34  2  0  0  0  0
 34 31  1  0  0  0  0
 34 33  1  0  0  0  0
 36 35  1  0  0  0  0
 37 36  1  0  0  0  0
M  END
>  <MODEL>
6

>  <REMARK>
 VINA RESULT:      -5.3      3.488      5.945
  Name = 
  14 active torsions:
  status: ('A' for Active; 'I' for Inactive)
    1  A    between atoms: C_1  and  C_5
    2  A    between atoms: C_1  and  C_23
    3  A    between atoms: C_2  and  C_6
    4  A    between atoms: C_5  and  C_26
    5  A    between atoms: C_6  and  C_8
    6  A    between atoms: C_6  and  C_31
    7  A    between atoms: C_7  and  C_14
    8  A    between atoms: C_7  and  C_31
    9  A    between atoms: C_8  and  C_19
   10  A    between atoms: C_9  and  C_30
   11  A    between atoms: C_11  and  C_26
   12  A    between atoms: C_20  and  C_25
   13  A    between atoms: O_27  and  C_33
   14  A    between atoms: C_29  and  C_33
                            x       y       z     vdW  Elec       q    Type
                         _______ _______ _______ _____ _____    ______ ____

>  <TORSDO>
F 14

$$$$
=
 OpenBabel10272415053D

 37 40  0  0  1  0  0  0  0  0999 V2000
  182.7560  178.4780  137.6840 C   0  0  0  0  0  2  0  0  0  0  0  0
  181.9920  178.8280  140.1080 C   0  0  2  0  0  3  0  0  0  0  0  0
  183.7770  177.3780  137.4140 C   0  0  2  0  0  3  0  0  0  0  0  0
  183.0810  179.0850  139.0420 C   0  0  1  0  0  3  0  0  0  0  0  0
  183.0720  176.0180  137.2980 C   0  0  2  0  0  3  0  0  0  0  0  0
  181.6830  177.3420  140.3610 C   0  0  0  0  0  2  0  0  0  0  0  0
  184.4940  178.6270  139.4030 C   0  0  2  0  0  3  0  0  0  0  0  0
  180.4830  175.2840  139.6750 C   0  0  0  0  0  2  0  0  0  0  0  0
  180.6250  176.7700  139.4120 C   0  0  2  0  0  3  0  0  0  0  0  0
  181.1650  175.7510  138.4040 C   0  0  1  0  0  3  0  0  0  0  0  0
  184.8000  177.4140  138.5450 C   0  0  2  0  0  3  0  0  0  0  0  0
  182.5490  175.5860  138.5220 O   0  0  0  0  0  0  0  0  0  0  0  0
  180.0470  179.9520  141.2310 C   0  0  0  0  0  1  0  0  0  0  0  0
  180.7460  179.7030  139.9080 C   0  0  1  0  0  3  0  0  0  0  0  0
  181.1030  180.9320  139.3520 O   0  0  0  0  0  1  0  0  0  0  0  0
  184.9000  179.5410  141.5790 O   0  0  0  0  0  0  0  0  0  0  0  0
  186.0700  178.8130  141.2890 C   0  0  2  0  0  3  0  0  0  0  0  0
  184.7290  178.3340  140.8810 C   0  0  2  0  0  3  0  0  0  0  0  0
  186.5400  178.0930  142.5150 C   0  0  0  0  0  0  0  0  0  0  0  0
  185.9290  178.3270  143.6810 C   0  0  0  0  0  2  0  0  0  0  0  0
  187.8060  177.2800  142.4540 C   0  0  2  0  0  3  0  0  0  0  0  0
  188.1180  176.6690  143.8110 C   0  0  0  0  0  1  0  0  0  0  0  0
  188.9770  178.1140  141.9440 C   0  0  0  0  0  2  0  0  0  0  0  0
  190.1810  177.2380  141.6310 C   0  0  0  0  0  2  0  0  0  0  0  0
  191.2960  177.6680  142.3510 O   0  0  0  0  0  1  0  0  0  0  0  0
  183.9280  174.9310  136.6350 C   0  0  0  0  0  2  0  0  0  0  0  0
  184.5010  173.8970  137.6020 C   0  0  0  0  0  2  0  0  0  0  0  0
  184.9630  172.6420  136.8800 C   0  0  2  0  0  3  0  0  0  0  0  0
  186.2260  172.9600  136.0920 C   0  0  0  0  0  2  0  0  0  0  0  0
  187.4480  172.8820  136.9860 C   0  0  0  0  0  1  0  0  0  0  0  0
  183.8560  172.1900  135.9360 C   0  0  0  0  0  2  0  0  0  0  0  0
  183.3890  169.7570  136.2180 O   0  0  0  0  0  0  0  0  0  0  0  0
  182.1320  171.3160  137.3360 O   0  0  0  0  0  1  0  0  0  0  0  0
  183.0700  171.0710  136.5290 C   0  0  0  0  0  0  0  0  0  0  0  0
  186.2240  177.4780  138.0000 C   0  0  0  0  0  2  0  0  0  0  0  0
  186.7450  178.7690  138.1080 O   0  0  0  0  0  0  0  0  0  0  0  0
  188.1270  178.5870  138.1310 C   0  0  0  0  0  1  0  0  0  0  0  0
  2 14  1  6  0  0  0
  2  6  1  0  0  0  0
  3  1  1  1  0  0  0
  3 11  1  0  0  0  0
  4  1  1  6  0  0  0
  4  7  1  0  0  0  0
  4  2  1  0  0  0  0
  5 26  1  1  0  0  0
  5  3  1  0  0  0  0
  5 12  1  0  0  0  0
  7 18  1  1  0  0  0
  9  8  1  1  0  0  0
  9  6  1  0  0  0  0
 10 12  1  0  0  0  0
 10  9  1  0  0  0  0
 10  8  1  1  0  0  0
 11 35  1  6  0  0  0
 11  7  1  0  0  0  0
 14 13  1  1  0  0  0
 15 14  1  0  0  0  0
 17 16  1  0  0  0  0
 17 19  1  1  0  0  0
 18 17  1  0  0  0  0
 18 16  1  1  0  0  0
 19 20  2  0  0  0  0
 21 19  1  0  0  0  0
 21 22  1  1  0  0  0
 23 21  1  0  0  0  0
 24 23  1  0  0  0  0
 24 25  1  0  0  0  0
 26 27  1  0  0  0  0
 28 31  1  6  0  0  0
 28 27  1  0  0  0  0
 29 28  1  0  0  0  0
 29 30  1  0  0  0  0
 31 34  1  0  0  0  0
 32 34  2  0  0  0  0
 34 33  1  0  0  0  0
 35 36  1  0  0  0  0
 36 37  1  0  0  0  0
M  END
>  <MODEL>
7

>  <REMARK>
 VINA RESULT:      -5.1      4.213      7.561
  Name = 
  14 active torsions:
  status: ('A' for Active; 'I' for Inactive)
    1  A    between atoms: C_1  and  C_5
    2  A    between atoms: C_1  and  C_23
    3  A    between atoms: C_2  and  C_6
    4  A    between atoms: C_5  and  C_26
    5  A    between atoms: C_6  and  C_8
    6  A    between atoms: C_6  and  C_31
    7  A    between atoms: C_7  and  C_14
    8  A    between atoms: C_7  and  C_31
    9  A    between atoms: C_8  and  C_19
   10  A    between atoms: C_9  and  C_30
   11  A    between atoms: C_11  and  C_26
   12  A    between atoms: C_20  and  C_25
   13  A    between atoms: O_27  and  C_33
   14  A    between atoms: C_29  and  C_33
                            x       y       z     vdW  Elec       q    Type
                         _______ _______ _______ _____ _____    ______ ____

>  <TORSDO>
F 14

$$$$
=
 OpenBabel10272415053D

 37 40  0  0  1  0  0  0  0  0999 V2000
  189.4160  178.3490  137.6440 C   0  0  0  0  0  2  0  0  0  0  0  0
  190.7450  176.1550  137.6290 C   0  0  2  0  0  3  0  0  0  0  0  0
  187.9940  178.3140  138.1920 C   0  0  2  0  0  3  0  0  0  0  0  0
  189.6710  177.0260  136.9380 C   0  0  1  0  0  3  0  0  0  0  0  0
  188.0140  178.4150  139.7250 C   0  0  2  0  0  3  0  0  0  0  0  0
  190.4390  175.8100  139.0970 C   0  0  0  0  0  2  0  0  0  0  0  0
  188.3070  176.3670  136.7280 C   0  0  2  0  0  3  0  0  0  0  0  0
  190.4810  176.4870  141.4810 C   0  0  0  0  0  2  0  0  0  0  0  0
  190.9310  176.8710  140.0860 C   0  0  2  0  0  3  0  0  0  0  0  0
  189.8130  177.6530  140.7820 C   0  0  1  0  0  3  0  0  0  0  0  0
  187.3440  177.0250  137.6980 C   0  0  2  0  0  3  0  0  0  0  0  0
  188.5470  177.2690  140.3250 O   0  0  0  0  0  0  0  0  0  0  0  0
  193.1860  175.7700  138.0690 C   0  0  0  0  0  1  0  0  0  0  0  0
  192.1710  176.6680  137.3880 C   0  0  1  0  0  3  0  0  0  0  0  0
  192.4500  176.7010  136.0200 O   0  0  0  0  0  1  0  0  0  0  0  0
  188.9880  174.2680  135.8010 O   0  0  0  0  0  0  0  0  0  0  0  0
  187.5820  174.2410  135.7150 C   0  0  2  0  0  3  0  0  0  0  0  0
  188.2850  174.8490  136.8690 C   0  0  2  0  0  3  0  0  0  0  0  0
  187.0760  172.8750  136.0640 C   0  0  0  0  0  0  0  0  0  0  0  0
  187.9170  171.8370  136.0150 C   0  0  0  0  0  2  0  0  0  0  0  0
  185.5970  172.6650  136.2650 C   0  0  2  0  0  3  0  0  0  0  0  0
  185.2360  172.7620  137.7390 C   0  0  0  0  0  1  0  0  0  0  0  0
  185.1410  171.3360  135.6730 C   0  0  0  0  0  2  0  0  0  0  0  0
  183.6780  171.0650  135.9930 C   0  0  0  0  0  2  0  0  0  0  0  0
  183.5240  169.7810  136.5140 O   0  0  0  0  0  1  0  0  0  0  0  0
  186.6600  178.7950  140.3390 C   0  0  0  0  0  2  0  0  0  0  0  0
  186.6990  179.0700  141.8410 C   0  0  0  0  0  2  0  0  0  0  0  0
  185.8430  178.0860  142.6190 C   0  0  2  0  0  3  0  0  0  0  0  0
  184.3960  178.5580  142.5930 C   0  0  0  0  0  2  0  0  0  0  0  0
  183.8970  178.8300  143.9980 C   0  0  0  0  0  1  0  0  0  0  0  0
  186.3500  178.0310  144.0550 C   0  0  0  0  0  2  0  0  0  0  0  0
  187.8360  176.1450  143.3830 O   0  0  0  0  0  0  0  0  0  0  0  0
  188.5700  177.7240  144.8750 O   0  0  0  0  0  1  0  0  0  0  0  0
  187.6420  177.2930  144.1390 C   0  0  0  0  0  0  0  0  0  0  0  0
  186.0020  177.3060  137.0270 C   0  0  0  0  0  2  0  0  0  0  0  0
  184.9430  176.8240  137.8000 O   0  0  0  0  0  0  0  0  0  0  0  0
  184.2200  177.9630  138.1500 C   0  0  0  0  0  1  0  0  0  0  0  0
  2 14  1  1  0  0  0
  2  6  1  0  0  0  0
  3  1  1  1  0  0  0
  3  5  1  0  0  0  0
  4  2  1  0  0  0  0
  4  1  1  1  0  0  0
  5 12  1  0  0  0  0
  5 26  1  1  0  0  0
  7 18  1  1  0  0  0
  7  4  1  0  0  0  0
  7 11  1  0  0  0  0
  9  6  1  6  0  0  0
  9 10  1  0  0  0  0
  9  8  1  0  0  0  0
 10  8  1  1  0  0  0
 11 35  1  6  0  0  0
 11  3  1  0  0  0  0
 12 10  1  0  0  0  0
 14 13  1  1  0  0  0
 15 14  1  0  0  0  0
 17 16  1  0  0  0  0
 17 19  1  1  0  0  0
 17 18  1  0  0  0  0
 18 16  1  6  0  0  0
 19 21  1  0  0  0  0
 20 19  2  0  0  0  0
 21 22  1  1  0  0  0
 23 24  1  0  0  0  0
 23 21  1  0  0  0  0
 24 25  1  0  0  0  0
 26 27  1  0  0  0  0
 28 27  1  6  0  0  0
 28 31  1  0  0  0  0
 29 28  1  0  0  0  0
 29 30  1  0  0  0  0
 31 34  1  0  0  0  0
 32 34  2  0  0  0  0
 34 33  1  0  0  0  0
 35 36  1  0  0  0  0
 36 37  1  0  0  0  0
M  END
>  <MODEL>
8

>  <REMARK>
 VINA RESULT:      -5.0      2.581      8.316
  Name = 
  14 active torsions:
  status: ('A' for Active; 'I' for Inactive)
    1  A    between atoms: C_1  and  C_5
    2  A    between atoms: C_1  and  C_23
    3  A    between atoms: C_2  and  C_6
    4  A    between atoms: C_5  and  C_26
    5  A    between atoms: C_6  and  C_8
    6  A    between atoms: C_6  and  C_31
    7  A    between atoms: C_7  and  C_14
    8  A    between atoms: C_7  and  C_31
    9  A    between atoms: C_8  and  C_19
   10  A    between atoms: C_9  and  C_30
   11  A    between atoms: C_11  and  C_26
   12  A    between atoms: C_20  and  C_25
   13  A    between atoms: O_27  and  C_33
   14  A    between atoms: C_29  and  C_33
                            x       y       z     vdW  Elec       q    Type
                         _______ _______ _______ _____ _____    ______ ____

>  <TORSDO>
F 14

$$$$
=
 OpenBabel10272415053D

 37 40  0  0  1  0  0  0  0  0999 V2000
  186.6140  178.6260  137.1370 C   0  0  0  0  0  2  0  0  0  0  0  0
  188.1940  176.6750  136.6080 C   0  0  2  0  0  3  0  0  0  0  0  0
  185.5770  178.4210  138.2360 C   0  0  2  0  0  3  0  0  0  0  0  0
  186.7920  177.2970  136.4170 C   0  0  1  0  0  3  0  0  0  0  0  0
  186.2080  178.6710  139.6140 C   0  0  2  0  0  3  0  0  0  0  0  0
  188.5900  176.4300  138.0750 C   0  0  0  0  0  2  0  0  0  0  0  0
  185.6080  176.4160  136.8180 C   0  0  2  0  0  3  0  0  0  0  0  0
  189.4860  177.3300  140.2030 C   0  0  0  0  0  2  0  0  0  0  0  0
  189.2430  177.6440  138.7400 C   0  0  2  0  0  3  0  0  0  0  0  0
  188.3890  178.3050  139.8270 C   0  0  1  0  0  3  0  0  0  0  0  0
  185.0280  177.0050  138.0900 C   0  0  2  0  0  3  0  0  0  0  0  0
  187.1410  177.6850  139.9560 O   0  0  0  0  0  0  0  0  0  0  0  0
  190.4960  176.4920  135.6210 C   0  0  0  0  0  1  0  0  0  0  0  0
  189.2750  177.3800  135.7760 C   0  0  1  0  0  3  0  0  0  0  0  0
  188.7830  177.6890  134.5070 O   0  0  0  0  0  1  0  0  0  0  0  0
  186.3870  174.4100  135.7700 O   0  0  0  0  0  0  0  0  0  0  0  0
  185.0500  174.1230  136.1060 C   0  0  2  0  0  3  0  0  0  0  0  0
  185.9230  174.9340  136.9880 C   0  0  2  0  0  3  0  0  0  0  0  0
  184.9410  172.7190  136.6150 C   0  0  0  0  0  0  0  0  0  0  0  0
  186.0120  171.9210  136.5560 C   0  0  0  0  0  2  0  0  0  0  0  0
  183.5890  172.1740  136.9930 C   0  0  2  0  0  3  0  0  0  0  0  0
  183.3690  170.8040  136.3700 C   0  0  0  0  0  1  0  0  0  0  0  0
  182.4740  173.1390  136.6080 C   0  0  0  0  0  2  0  0  0  0  0  0
  181.5040  172.4950  135.6270 C   0  0  0  0  0  2  0  0  0  0  0  0
  180.2300  173.0440  135.7720 O   0  0  0  0  0  1  0  0  0  0  0  0
  185.1840  178.8920  140.7340 C   0  0  0  0  0  2  0  0  0  0  0  0
  185.6030  178.3410  142.0960 C   0  0  0  0  0  2  0  0  0  0  0  0
  184.4780  178.4270  143.1120 C   0  0  2  0  0  3  0  0  0  0  0  0
  183.1850  178.7840  142.3920 C   0  0  0  0  0  2  0  0  0  0  0  0
  182.1020  179.1510  143.3880 C   0  0  0  0  0  1  0  0  0  0  0  0
  184.8260  179.5060  144.1300 C   0  0  0  0  0  2  0  0  0  0  0  0
  184.4830  178.7900  146.4940 O   0  0  0  0  0  1  0  0  0  0  0  0
  186.5090  178.4720  145.4690 O   0  0  0  0  0  0  0  0  0  0  0  0
  185.3270  178.9030  145.3990 C   0  0  0  0  0  0  0  0  0  0  0  0
  183.5030  177.0070  138.0430 C   0  0  0  0  0  2  0  0  0  0  0  0
  182.9800  175.8720  138.6680 O   0  0  0  0  0  0  0  0  0  0  0  0
  181.9700  176.3620  139.4940 C   0  0  0  0  0  1  0  0  0  0  0  0
  2 14  1  1  0  0  0
  2  6  1  0  0  0  0
  3  1  1  6  0  0  0
  3  5  1  0  0  0  0
  4  2  1  0  0  0  0
  4  7  1  0  0  0  0
  4  1  1  1  0  0  0
  5 12  1  0  0  0  0
  5 26  1  1  0  0  0
  7 18  1  1  0  0  0
  7 11  1  0  0  0  0
  9  6  1  6  0  0  0
  9 10  1  0  0  0  0
  9  8  1  0  0  0  0
 10 12  1  0  0  0  0
 10  8  1  1  0  0  0
 11 35  1  6  0  0  0
 11  3  1  0  0  0  0
 14 13  1  6  0  0  0
 15 14  1  0  0  0  0
 16 17  1  0  0  0  0
 17 19  1  1  0  0  0
 17 18  1  0  0  0  0
 18 16  1  6  0  0  0
 19 21  1  0  0  0  0
 20 19  2  0  0  0  0
 21 22  1  6  0  0  0
 23 21  1  0  0  0  0
 24 25  1  0  0  0  0
 24 23  1  0  0  0  0
 26 27  1  0  0  0  0
 28 27  1  6  0  0  0
 28 31  1  0  0  0  0
 29 28  1  0  0  0  0
 29 30  1  0  0  0  0
 31 34  1  0  0  0  0
 34 33  2  0  0  0  0
 34 32  1  0  0  0  0
 35 36  1  0  0  0  0
 36 37  1  0  0  0  0
M  END
>  <MODEL>
9

>  <REMARK>
 VINA RESULT:      -5.0      3.990      9.329
  Name = 
  14 active torsions:
  status: ('A' for Active; 'I' for Inactive)
    1  A    between atoms: C_1  and  C_5
    2  A    between atoms: C_1  and  C_23
    3  A    between atoms: C_2  and  C_6
    4  A    between atoms: C_5  and  C_26
    5  A    between atoms: C_6  and  C_8
    6  A    between atoms: C_6  and  C_31
    7  A    between atoms: C_7  and  C_14
    8  A    between atoms: C_7  and  C_31
    9  A    between atoms: C_8  and  C_19
   10  A    between atoms: C_9  and  C_30
   11  A    between atoms: C_11  and  C_26
   12  A    between atoms: C_20  and  C_25
   13  A    between atoms: O_27  and  C_33
   14  A    between atoms: C_29  and  C_33
                            x       y       z     vdW  Elec       q    Type
                         _______ _______ _______ _____ _____    ______ ____

>  <TORSDO>
F 14

$$$$
