=
 OpenBabel10272401033D

 27 31  0  0  1  0  0  0  0  0999 V2000
  186.8990  178.5790  141.6070 C   0  0  0  0  0  3  0  0  0  0  0  0
  187.0980  178.0060  144.0570 C   0  0  0  0  0  0  0  0  0  0  0  0
  189.1270  176.9900  142.8990 C   0  0  0  0  0  3  0  0  0  0  0  0
  189.3300  177.3980  147.8640 S   0  0  0  0  0  0  0  0  0  0  0  0
  191.8630  176.2070  147.5870 C   0  0  0  0  0  1  0  0  0  0  0  0
  186.4820  178.4130  145.2640 C   0  0  0  0  0  3  0  0  0  0  0  0
  190.2840  176.7190  145.6350 C   0  0  0  0  0  0  0  0  0  0  0  0
  190.1990  177.3020  139.4840 C   0  0  0  0  0  3  0  0  0  0  0  0
  191.1510  176.2190  144.6670 O   0  0  0  0  0  1  0  0  0  0  0  0
  189.3190  178.2500  138.9720 C   0  0  0  0  0  0  0  0  0  0  0  0
  189.0150  177.2700  145.3570 C   0  0  0  0  0  0  0  0  0  0  0  0
  186.3450  178.1070  142.8400 N   0  0  0  0  0  0  0  0  0  0  0  0
  190.6010  176.7200  146.9900 C   0  0  0  0  0  0  0  0  0  0  0  0
  188.3720  177.6910  146.5160 C   0  0  0  0  0  0  0  0  0  0  0  0
  188.0660  178.2360  141.0610 C   0  0  0  0  0  0  0  0  0  0  0  0
  188.3930  177.4330  144.0950 C   0  0  0  0  0  0  0  0  0  0  0  0
  190.0490  176.8590  140.7970 C   0  0  0  0  0  3  0  0  0  0  0  0
  187.1130  178.2670  146.4990 C   0  0  0  0  0  3  0  0  0  0  0  0
  189.4690  178.7040  137.7050 F   0  0  0  0  0  0  0  0  0  0  0  0
  188.2540  178.6990  139.7530 C   0  0  0  0  0  3  0  0  0  0  0  0
  189.0170  177.3380  141.6150 C   0  0  0  0  0  0  0  0  0  0  0  0
  182.1260  178.5390  142.8670 C   0  0  0  0  0  2  0  0  0  0  0  0
  184.8840  178.0140  142.9170 C   0  0  2  0  0  3  0  0  0  0  0  0
  184.2430  178.0400  141.5130 C   0  0  0  0  0  2  0  0  0  0  0  0
  182.7840  178.5370  141.4850 C   0  0  0  0  0  2  0  0  0  0  0  0
  182.9950  179.2940  143.8300 C   0  0  0  0  0  3  0  0  0  0  0  0
  184.3100  179.0520  143.8480 C   0  0  0  0  0  3  0  0  0  0  0  0
  1 12  1  0  0  0  0
  2 16  2  0  0  0  0
  2  6  1  0  0  0  0
  3 16  1  0  0  0  0
  6 18  2  0  0  0  0
  7 13  2  0  0  0  0
  8 17  2  0  0  0  0
  9  7  1  0  0  0  0
 10  8  1  0  0  0  0
 10 20  2  0  0  0  0
 11  7  1  0  0  0  0
 11 14  2  0  0  0  0
 12 23  1  0  0  0  0
 12  2  1  0  0  0  0
 13  5  1  0  0  0  0
 13  4  1  0  0  0  0
 14  4  1  0  0  0  0
 15  1  2  0  0  0  0
 15 21  1  0  0  0  0
 16 11  1  0  0  0  0
 17 21  1  0  0  0  0
 18 14  1  0  0  0  0
 19 10  1  0  0  0  0
 20 15  1  0  0  0  0
 21  3  2  0  0  0  0
 22 26  1  0  0  0  0
 23 24  1  6  0  0  0
 23 27  1  0  0  0  0
 25 24  1  0  0  0  0
 25 22  1  0  0  0  0
 26 27  2  0  0  0  0
M  END
>  <MODEL>
1

>  <REMARK>
 VINA RESULT:     -10.8      0.000      0.000
  Name = 
  1 active torsions:
  status: ('A' for Active; 'I' for Inactive)
    1  A    between atoms: C_9  and  N_15
                            x       y       z     vdW  Elec       q    Type
                         _______ _______ _______ _____ _____    ______ ____

>  <TORSDO>
F 1

$$$$
=
 OpenBabel10272401033D

 27 31  0  0  1  0  0  0  0  0999 V2000
  186.5470  178.7870  140.4500 C   0  0  0  0  0  3  0  0  0  0  0  0
  185.6050  178.7190  142.7900 C   0  0  0  0  0  0  0  0  0  0  0  0
  187.7540  177.3520  142.8240 C   0  0  0  0  0  3  0  0  0  0  0  0
  185.9030  178.7580  147.2350 S   0  0  0  0  0  0  0  0  0  0  0  0
  188.1040  177.3680  148.2970 C   0  0  0  0  0  1  0  0  0  0  0  0
  184.6060  179.4060  143.5190 C   0  0  0  0  0  3  0  0  0  0  0  0
  187.5940  177.5720  145.7950 C   0  0  0  0  0  0  0  0  0  0  0  0
  190.2000  176.8810  140.2350 C   0  0  0  0  0  3  0  0  0  0  0  0
  188.7020  176.8260  145.4020 O   0  0  0  0  0  1  0  0  0  0  0  0
  189.7720  177.7600  139.2460 C   0  0  0  0  0  0  0  0  0  0  0  0
  186.6590  178.1390  144.9020 C   0  0  0  0  0  0  0  0  0  0  0  0
  185.4600  178.6180  141.3660 N   0  0  0  0  0  0  0  0  0  0  0  0
  187.3050  177.8310  147.1310 C   0  0  0  0  0  0  0  0  0  0  0  0
  185.6590  178.8320  145.5750 C   0  0  0  0  0  0  0  0  0  0  0  0
  187.7680  178.2610  140.5380 C   0  0  0  0  0  0  0  0  0  0  0  0
  186.6600  178.0800  143.4870 C   0  0  0  0  0  0  0  0  0  0  0  0
  189.4460  176.7280  141.3980 C   0  0  0  0  0  3  0  0  0  0  0  0
  184.6280  179.4750  144.9130 C   0  0  0  0  0  3  0  0  0  0  0  0
  190.5100  177.9320  138.1230 F   0  0  0  0  0  0  0  0  0  0  0  0
  188.5590  178.4310  139.3940 C   0  0  0  0  0  3  0  0  0  0  0  0
  188.2500  177.4340  141.5880 C   0  0  0  0  0  0  0  0  0  0  0  0
  181.8600  178.4040  139.1360 C   0  0  0  0  0  2  0  0  0  0  0  0
  184.1080  178.6410  140.8020 C   0  0  2  0  0  3  0  0  0  0  0  0
  183.5230  177.2180  140.6830 C   0  0  0  0  0  2  0  0  0  0  0  0
  182.4290  177.0640  139.6070 C   0  0  0  0  0  2  0  0  0  0  0  0
  182.9870  179.3030  138.7170 C   0  0  0  0  0  3  0  0  0  0  0  0
  184.0610  179.4090  139.5040 C   0  0  0  0  0  3  0  0  0  0  0  0
  1 15  2  0  0  0  0
  1 12  1  0  0  0  0
  2 16  2  0  0  0  0
  2  6  1  0  0  0  0
  3 16  1  0  0  0  0
  6 18  2  0  0  0  0
  7 13  2  0  0  0  0
  8 17  2  0  0  0  0
  9  7  1  0  0  0  0
 10 20  2  0  0  0  0
 10  8  1  0  0  0  0
 11 14  2  0  0  0  0
 11  7  1  0  0  0  0
 12  2  1  0  0  0  0
 13  4  1  0  0  0  0
 13  5  1  0  0  0  0
 14  4  1  0  0  0  0
 15 21  1  0  0  0  0
 16 11  1  0  0  0  0
 17 21  1  0  0  0  0
 18 14  1  0  0  0  0
 19 10  1  0  0  0  0
 20 15  1  0  0  0  0
 21  3  2  0  0  0  0
 22 25  1  0  0  0  0
 23 27  1  6  0  0  0
 23 12  1  0  0  0  0
 24 23  1  0  0  0  0
 25 24  1  0  0  0  0
 26 22  1  0  0  0  0
 26 27  2  0  0  0  0
M  END
>  <MODEL>
2

>  <REMARK>
 VINA RESULT:     -10.3      1.782      2.604
  Name = 
  1 active torsions:
  status: ('A' for Active; 'I' for Inactive)
    1  A    between atoms: C_9  and  N_15
                            x       y       z     vdW  Elec       q    Type
                         _______ _______ _______ _____ _____    ______ ____

>  <TORSDO>
F 1

$$$$
=
 OpenBabel10272401033D

 27 31  0  0  1  0  0  0  0  0999 V2000
  185.3800  177.9800  141.4380 C   0  0  0  0  0  3  0  0  0  0  0  0
  187.3670  177.8090  142.9840 C   0  0  0  0  0  0  0  0  0  0  0  0
  185.4530  178.7820  144.3540 C   0  0  0  0  0  3  0  0  0  0  0  0
  189.3510  176.9780  146.8860 S   0  0  0  0  0  0  0  0  0  0  0  0
  187.9080  177.7930  149.1580 C   0  0  0  0  0  1  0  0  0  0  0  0
  188.6350  177.1820  142.9680 C   0  0  0  0  0  3  0  0  0  0  0  0
  187.0990  178.0960  146.7450 C   0  0  0  0  0  0  0  0  0  0  0  0
  182.0130  179.2750  143.4410 C   0  0  0  0  0  3  0  0  0  0  0  0
  185.9040  178.7070  147.1130 O   0  0  0  0  0  1  0  0  0  0  0  0
  181.9340  178.6550  142.1980 C   0  0  0  0  0  0  0  0  0  0  0  0
  187.4880  177.8470  145.4120 C   0  0  0  0  0  0  0  0  0  0  0  0
  186.7690  178.1690  141.7310 N   0  0  0  0  0  0  0  0  0  0  0  0
  188.0360  177.6680  147.6810 C   0  0  0  0  0  0  0  0  0  0  0  0
  188.7290  177.2240  145.3450 C   0  0  0  0  0  0  0  0  0  0  0  0
  184.3410  178.2780  142.2180 C   0  0  0  0  0  0  0  0  0  0  0  0
  186.7710  178.1410  144.2260 C   0  0  0  0  0  0  0  0  0  0  0  0
  183.2400  179.3510  144.0990 C   0  0  0  0  0  3  0  0  0  0  0  0
  189.3220  176.8770  144.1430 C   0  0  0  0  0  3  0  0  0  0  0  0
  180.7430  178.5560  141.5620 F   0  0  0  0  0  0  0  0  0  0  0  0
  183.0940  178.1760  141.5900 C   0  0  0  0  0  3  0  0  0  0  0  0
  184.4070  178.8280  143.5270 C   0  0  0  0  0  0  0  0  0  0  0  0
  189.2390  178.3110  138.2870 C   0  0  0  0  0  2  0  0  0  0  0  0
  187.6510  178.4620  140.5980 C   0  0  2  0  0  3  0  0  0  0  0  0
  186.8760  178.4600  139.2640 C   0  0  0  0  0  2  0  0  0  0  0  0
  187.7390  178.1640  138.0220 C   0  0  0  0  0  2  0  0  0  0  0  0
  189.6150  177.4890  139.4850 C   0  0  0  0  0  3  0  0  0  0  0  0
  188.8550  177.5520  140.5830 C   0  0  0  0  0  3  0  0  0  0  0  0
  1 12  1  0  0  0  0
  1 15  2  0  0  0  0
  2 16  1  0  0  0  0
  4 13  1  0  0  0  0
  6  2  2  0  0  0  0
  6 18  1  0  0  0  0
  7  9  1  0  0  0  0
  7 13  2  0  0  0  0
  8 17  2  0  0  0  0
 10  8  1  0  0  0  0
 11  7  1  0  0  0  0
 12  2  1  0  0  0  0
 13  5  1  0  0  0  0
 14 11  1  0  0  0  0
 14  4  1  0  0  0  0
 15 21  1  0  0  0  0
 16  3  1  0  0  0  0
 16 11  2  0  0  0  0
 18 14  2  0  0  0  0
 19 10  1  0  0  0  0
 20 10  2  0  0  0  0
 20 15  1  0  0  0  0
 21 17  1  0  0  0  0
 21  3  2  0  0  0  0
 22 26  1  0  0  0  0
 23 24  1  6  0  0  0
 23 12  1  0  0  0  0
 25 22  1  0  0  0  0
 25 24  1  0  0  0  0
 26 27  2  0  0  0  0
 27 23  1  0  0  0  0
M  END
>  <MODEL>
3

>  <REMARK>
 VINA RESULT:      -9.5      2.527      5.271
  Name = 
  1 active torsions:
  status: ('A' for Active; 'I' for Inactive)
    1  A    between atoms: C_9  and  N_15
                            x       y       z     vdW  Elec       q    Type
                         _______ _______ _______ _____ _____    ______ ____

>  <TORSDO>
F 1

$$$$
=
 OpenBabel10272401033D

 27 31  0  0  1  0  0  0  0  0999 V2000
  189.1670  177.0730  142.6870 C   0  0  0  0  0  3  0  0  0  0  0  0
  186.8490  177.9560  143.1540 C   0  0  0  0  0  0  0  0  0  0  0  0
  187.3960  178.5670  140.7420 C   0  0  0  0  0  3  0  0  0  0  0  0
  182.6090  178.8350  142.1090 S   0  0  0  0  0  0  0  0  0  0  0  0
  182.1810  179.6840  139.4630 C   0  0  0  0  0  1  0  0  0  0  0  0
  185.8680  177.7940  144.1590 C   0  0  0  0  0  3  0  0  0  0  0  0
  184.4740  179.0850  140.4360 C   0  0  0  0  0  0  0  0  0  0  0  0
  190.2460  177.6630  138.7480 C   0  0  0  0  0  3  0  0  0  0  0  0
  185.1600  179.3450  139.2530 O   0  0  0  0  0  1  0  0  0  0  0  0
  190.9160  176.7580  139.5650 C   0  0  0  0  0  0  0  0  0  0  0  0
  185.0860  178.6470  141.6300 C   0  0  0  0  0  0  0  0  0  0  0  0
  188.2270  177.7710  143.5110 N   0  0  0  0  0  0  0  0  0  0  0  0
  183.0950  179.2370  140.5470 C   0  0  0  0  0  0  0  0  0  0  0  0
  184.1560  178.4660  142.6490 C   0  0  0  0  0  0  0  0  0  0  0  0
  189.3450  177.2040  141.3730 C   0  0  0  0  0  0  0  0  0  0  0  0
  186.4580  178.3800  141.8600 C   0  0  0  0  0  0  0  0  0  0  0  0
  189.0980  178.3000  139.2190 C   0  0  0  0  0  3  0  0  0  0  0  0
  184.5160  178.0380  143.9150 C   0  0  0  0  0  3  0  0  0  0  0  0
  192.0190  176.1180  139.1090 F   0  0  0  0  0  0  0  0  0  0  0  0
  190.4740  176.5450  140.8700 C   0  0  0  0  0  3  0  0  0  0  0  0
  188.6080  178.0580  140.5090 C   0  0  0  0  0  0  0  0  0  0  0  0
  189.3570  177.8190  147.5980 C   0  0  0  0  0  2  0  0  0  0  0  0
  188.6280  178.0380  144.8950 C   0  0  2  0  0  3  0  0  0  0  0  0
  190.0880  177.6100  145.1510 C   0  0  0  0  0  2  0  0  0  0  0  0
  190.4120  177.2890  146.6240 C   0  0  0  0  0  2  0  0  0  0  0  0
  188.0000  177.3440  147.1670 C   0  0  0  0  0  3  0  0  0  0  0  0
  187.6550  177.4390  145.8800 C   0  0  0  0  0  3  0  0  0  0  0  0
  1 12  1  0  0  0  0
  2 12  1  0  0  0  0
  2  6  1  0  0  0  0
  3 16  1  0  0  0  0
  4 14  1  0  0  0  0
  5 13  1  0  0  0  0
  7 13  2  0  0  0  0
  7 11  1  0  0  0  0
  8 17  2  0  0  0  0
  8 10  1  0  0  0  0
  9  7  1  0  0  0  0
 10 20  2  0  0  0  0
 11 16  1  0  0  0  0
 11 14  2  0  0  0  0
 13  4  1  0  0  0  0
 14 18  1  0  0  0  0
 15  1  2  0  0  0  0
 16  2  2  0  0  0  0
 17 21  1  0  0  0  0
 18  6  2  0  0  0  0
 19 10  1  0  0  0  0
 20 15  1  0  0  0  0
 21  3  2  0  0  0  0
 21 15  1  0  0  0  0
 23 12  1  6  0  0  0
 23 24  1  0  0  0  0
 23 27  1  0  0  0  0
 24 25  1  0  0  0  0
 25 22  1  0  0  0  0
 26 22  1  0  0  0  0
 27 26  2  0  0  0  0
M  END
>  <MODEL>
4

>  <REMARK>
 VINA RESULT:      -9.5      2.740      5.893
  Name = 
  1 active torsions:
  status: ('A' for Active; 'I' for Inactive)
    1  A    between atoms: C_9  and  N_15
                            x       y       z     vdW  Elec       q    Type
                         _______ _______ _______ _____ _____    ______ ____

>  <TORSDO>
F 1

$$$$
=
 OpenBabel10272401033D

 27 31  0  0  1  0  0  0  0  0999 V2000
  189.8220  176.8720  141.2270 C   0  0  0  0  0  3  0  0  0  0  0  0
  187.6650  177.8050  142.1460 C   0  0  0  0  0  0  0  0  0  0  0  0
  187.7340  178.4140  139.6730 C   0  0  0  0  0  3  0  0  0  0  0  0
  183.3220  178.7850  141.9670 S   0  0  0  0  0  0  0  0  0  0  0  0
  182.3960  179.6540  139.4590 C   0  0  0  0  0  1  0  0  0  0  0  0
  186.9000  177.6610  143.3260 C   0  0  0  0  0  3  0  0  0  0  0  0
  184.8230  179.0000  139.9560 C   0  0  0  0  0  0  0  0  0  0  0  0
  190.1070  177.4540  137.1520 C   0  0  0  0  0  3  0  0  0  0  0  0
  185.2650  179.2490  138.6600 O   0  0  0  0  0  1  0  0  0  0  0  0
  190.9050  176.5300  137.8180 C   0  0  0  0  0  0  0  0  0  0  0  0
  185.6490  178.5420  141.0040 C   0  0  0  0  0  0  0  0  0  0  0  0
  189.0810  177.5880  142.2210 N   0  0  0  0  0  0  0  0  0  0  0  0
  183.4970  179.1830  140.3400 C   0  0  0  0  0  0  0  0  0  0  0  0
  184.9370  178.3790  142.1880 C   0  0  0  0  0  0  0  0  0  0  0  0
  189.7370  177.0040  139.9030 C   0  0  0  0  0  0  0  0  0  0  0  0
  187.0330  178.2430  140.9560 C   0  0  0  0  0  0  0  0  0  0  0  0
  189.0910  178.1140  137.8410 C   0  0  0  0  0  3  0  0  0  0  0  0
  185.5330  177.9370  143.3570 C   0  0  0  0  0  3  0  0  0  0  0  0
  191.8800  175.8680  137.1520 F   0  0  0  0  0  0  0  0  0  0  0  0
  190.7280  176.3220  139.1850 C   0  0  0  0  0  3  0  0  0  0  0  0
  188.8620  177.8780  139.2040 C   0  0  0  0  0  0  0  0  0  0  0  0
  191.6070  177.9870  145.6040 C   0  0  0  0  0  2  0  0  0  0  0  0
  189.7560  177.8390  143.4970 C   0  0  2  0  0  3  0  0  0  0  0  0
  190.8210  178.9480  143.3620 C   0  0  0  0  0  2  0  0  0  0  0  0
  191.9500  178.8820  144.4100 C   0  0  0  0  0  2  0  0  0  0  0  0
  191.1740  176.6390  145.1060 C   0  0  0  0  0  3  0  0  0  0  0  0
  190.3010  176.5660  144.0970 C   0  0  0  0  0  3  0  0  0  0  0  0
  1 12  1  0  0  0  0
  2 12  1  0  0  0  0
  2  6  1  0  0  0  0
  3 16  1  0  0  0  0
  4 14  1  0  0  0  0
  5 13  1  0  0  0  0
  6 18  2  0  0  0  0
  7 13  2  0  0  0  0
  7 11  1  0  0  0  0
  8 10  1  0  0  0  0
  8 17  2  0  0  0  0
  9  7  1  0  0  0  0
 10 20  2  0  0  0  0
 11 14  2  0  0  0  0
 13  4  1  0  0  0  0
 14 18  1  0  0  0  0
 15  1  2  0  0  0  0
 16 11  1  0  0  0  0
 16  2  2  0  0  0  0
 17 21  1  0  0  0  0
 19 10  1  0  0  0  0
 20 15  1  0  0  0  0
 21  3  2  0  0  0  0
 21 15  1  0  0  0  0
 23 12  1  6  0  0  0
 23 27  1  0  0  0  0
 24 23  1  0  0  0  0
 24 25  1  0  0  0  0
 25 22  1  0  0  0  0
 26 22  1  0  0  0  0
 27 26  2  0  0  0  0
M  END
>  <MODEL>
5

>  <REMARK>
 VINA RESULT:      -9.1      3.028      6.265
  Name = 
  1 active torsions:
  status: ('A' for Active; 'I' for Inactive)
    1  A    between atoms: C_9  and  N_15
                            x       y       z     vdW  Elec       q    Type
                         _______ _______ _______ _____ _____    ______ ____

>  <TORSDO>
F 1

$$$$
=
 OpenBabel10272401033D

 27 31  0  0  1  0  0  0  0  0999 V2000
  189.3430  177.9140  144.0200 C   0  0  0  0  0  3  0  0  0  0  0  0
  187.3830  178.0470  142.4360 C   0  0  0  0  0  0  0  0  0  0  0  0
  186.4260  177.5930  144.7530 C   0  0  0  0  0  3  0  0  0  0  0  0
  183.2420  179.2050  141.2700 S   0  0  0  0  0  0  0  0  0  0  0  0
  181.3200  178.9840  143.3110 C   0  0  0  0  0  1  0  0  0  0  0  0
  187.1600  178.4750  141.1070 C   0  0  0  0  0  3  0  0  0  0  0  0
  183.8020  178.4130  143.5950 C   0  0  0  0  0  0  0  0  0  0  0  0
  188.1020  177.4580  147.9290 C   0  0  0  0  0  3  0  0  0  0  0  0
  183.6730  178.0490  144.9320 O   0  0  0  0  0  1  0  0  0  0  0  0
  189.3910  177.8740  147.6120 C   0  0  0  0  0  0  0  0  0  0  0  0
  185.0170  178.3850  142.8760 C   0  0  0  0  0  0  0  0  0  0  0  0
  188.6930  177.5780  142.7900 N   0  0  0  0  0  0  0  0  0  0  0  0
  182.7220  178.8490  142.8330 C   0  0  0  0  0  0  0  0  0  0  0  0
  184.8470  178.8040  141.5610 C   0  0  0  0  0  0  0  0  0  0  0  0
  188.8170  177.8990  145.2440 C   0  0  0  0  0  0  0  0  0  0  0  0
  186.2980  178.0090  143.3470 C   0  0  0  0  0  0  0  0  0  0  0  0
  187.1540  177.3140  146.9160 C   0  0  0  0  0  3  0  0  0  0  0  0
  185.8960  178.8630  140.6600 C   0  0  0  0  0  3  0  0  0  0  0  0
  190.3120  178.0380  148.5920 F   0  0  0  0  0  0  0  0  0  0  0  0
  189.7450  178.0760  146.2790 C   0  0  0  0  0  3  0  0  0  0  0  0
  187.4760  177.5650  145.5750 C   0  0  0  0  0  0  0  0  0  0  0  0
  191.1630  176.5370  139.5050 C   0  0  0  0  0  2  0  0  0  0  0  0
  189.5240  176.9830  141.7410 C   0  0  2  0  0  3  0  0  0  0  0  0
  191.0140  177.3360  141.9340 C   0  0  0  0  0  2  0  0  0  0  0  0
  191.8560  177.2880  140.6440 C   0  0  0  0  0  2  0  0  0  0  0  0
  189.7880  177.1020  139.3010 C   0  0  0  0  0  3  0  0  0  0  0  0
  189.0100  177.3240  140.3640 C   0  0  0  0  0  3  0  0  0  0  0  0
  1 15  2  0  0  0  0
  2 12  1  0  0  0  0
  2 16  1  0  0  0  0
  3 21  2  0  0  0  0
  4 14  1  0  0  0  0
  4 13  1  0  0  0  0
  6  2  2  0  0  0  0
  7  9  1  0  0  0  0
 10  8  1  0  0  0  0
 10 19  1  0  0  0  0
 11 16  2  0  0  0  0
 11  7  1  0  0  0  0
 12  1  1  0  0  0  0
 13  5  1  0  0  0  0
 13  7  2  0  0  0  0
 14 11  1  0  0  0  0
 15 21  1  0  0  0  0
 15 20  1  0  0  0  0
 16  3  1  0  0  0  0
 17  8  2  0  0  0  0
 18  6  1  0  0  0  0
 18 14  2  0  0  0  0
 20 10  2  0  0  0  0
 21 17  1  0  0  0  0
 22 25  1  0  0  0  0
 23 27  1  6  0  0  0
 23 24  1  0  0  0  0
 23 12  1  0  0  0  0
 25 24  1  0  0  0  0
 26 22  1  0  0  0  0
 26 27  2  0  0  0  0
M  END
>  <MODEL>
6

>  <REMARK>
 VINA RESULT:      -9.0      3.356      7.003
  Name = 
  1 active torsions:
  status: ('A' for Active; 'I' for Inactive)
    1  A    between atoms: C_9  and  N_15
                            x       y       z     vdW  Elec       q    Type
                         _______ _______ _______ _____ _____    ______ ____

>  <TORSDO>
F 1

$$$$
=
 OpenBabel10272401033D

 27 31  0  0  1  0  0  0  0  0999 V2000
  187.1230  177.6460  142.9750 C   0  0  0  0  0  3  0  0  0  0  0  0
  189.5090  177.0380  143.5270 C   0  0  0  0  0  0  0  0  0  0  0  0
  188.4760  177.9680  145.6620 C   0  0  0  0  0  3  0  0  0  0  0  0
  192.7320  175.4130  146.1390 S   0  0  0  0  0  0  0  0  0  0  0  0
  192.4600  175.9990  148.8750 C   0  0  0  0  0  1  0  0  0  0  0  0
  190.5510  176.3000  142.9190 C   0  0  0  0  0  3  0  0  0  0  0  0
  190.8130  176.7560  147.0650 C   0  0  0  0  0  0  0  0  0  0  0  0
  185.0780  178.9330  146.3200 C   0  0  0  0  0  3  0  0  0  0  0  0
  189.9730  177.4150  147.9580 O   0  0  0  0  0  1  0  0  0  0  0  0
  184.4160  178.5270  145.1670 C   0  0  0  0  0  0  0  0  0  0  0  0
  190.5940  176.6830  145.6730 C   0  0  0  0  0  0  0  0  0  0  0  0
  188.5240  177.6480  142.6810 N   0  0  0  0  0  0  0  0  0  0  0  0
  191.9670  176.0960  147.4760 C   0  0  0  0  0  0  0  0  0  0  0  0
  191.5930  175.9590  145.0310 C   0  0  0  0  0  0  0  0  0  0  0  0
  186.5410  177.9180  144.1430 C   0  0  0  0  0  0  0  0  0  0  0  0
  189.5180  177.2290  144.9310 C   0  0  0  0  0  0  0  0  0  0  0  0
  186.4620  178.7850  146.4110 C   0  0  0  0  0  3  0  0  0  0  0  0
  191.5950  175.7490  143.6630 C   0  0  0  0  0  3  0  0  0  0  0  0
  183.0700  178.6470  145.0780 F   0  0  0  0  0  0  0  0  0  0  0  0
  185.1470  178.0380  144.0850 C   0  0  0  0  0  3  0  0  0  0  0  0
  187.2080  178.2460  145.3540 C   0  0  0  0  0  0  0  0  0  0  0  0
  189.3550  178.1090  138.5480 C   0  0  0  0  0  2  0  0  0  0  0  0
  188.9140  178.0270  141.3200 C   0  0  2  0  0  3  0  0  0  0  0  0
  187.6870  178.4130  140.4680 C   0  0  0  0  0  2  0  0  0  0  0  0
  187.8850  178.2480  138.9490 C   0  0  0  0  0  2  0  0  0  0  0  0
  189.9890  177.0140  139.3560 C   0  0  0  0  0  3  0  0  0  0  0  0
  189.7720  176.9680  140.6730 C   0  0  0  0  0  3  0  0  0  0  0  0
  1 15  2  0  0  0  0
  2 16  1  0  0  0  0
  4 13  1  0  0  0  0
  6  2  2  0  0  0  0
  6 18  1  0  0  0  0
  7 13  2  0  0  0  0
  7  9  1  0  0  0  0
  8 17  2  0  0  0  0
 10  8  1  0  0  0  0
 11  7  1  0  0  0  0
 12  1  1  0  0  0  0
 12  2  1  0  0  0  0
 13  5  1  0  0  0  0
 14 11  1  0  0  0  0
 14  4  1  0  0  0  0
 15 21  1  0  0  0  0
 16  3  1  0  0  0  0
 16 11  2  0  0  0  0
 18 14  2  0  0  0  0
 19 10  1  0  0  0  0
 20 15  1  0  0  0  0
 20 10  2  0  0  0  0
 21  3  2  0  0  0  0
 21 17  1  0  0  0  0
 22 25  1  0  0  0  0
 22 26  1  0  0  0  0
 23 24  1  6  0  0  0
 23 12  1  0  0  0  0
 25 24  1  0  0  0  0
 26 27  2  0  0  0  0
 27 23  1  0  0  0  0
M  END
>  <MODEL>
7

>  <REMARK>
 VINA RESULT:      -9.0      2.584      5.230
  Name = 
  1 active torsions:
  status: ('A' for Active; 'I' for Inactive)
    1  A    between atoms: C_9  and  N_15
                            x       y       z     vdW  Elec       q    Type
                         _______ _______ _______ _____ _____    ______ ____

>  <TORSDO>
F 1

$$$$
=
 OpenBabel10272401033D

 27 31  0  0  1  0  0  0  0  0999 V2000
  185.8030  178.0990  141.8340 C   0  0  0  0  0  3  0  0  0  0  0  0
  188.2300  177.5680  142.2770 C   0  0  0  0  0  0  0  0  0  0  0  0
  187.2390  178.3660  144.4840 C   0  0  0  0  0  3  0  0  0  0  0  0
  191.6070  175.9710  144.7040 S   0  0  0  0  0  0  0  0  0  0  0  0
  191.4120  176.4310  147.4710 C   0  0  0  0  0  1  0  0  0  0  0  0
  189.2780  176.8990  141.6020 C   0  0  0  0  0  3  0  0  0  0  0  0
  189.6710  177.1940  145.7530 C   0  0  0  0  0  0  0  0  0  0  0  0
  183.8320  179.1630  145.3000 C   0  0  0  0  0  3  0  0  0  0  0  0
  188.8390  177.7810  146.7010 O   0  0  0  0  0  1  0  0  0  0  0  0
  183.1440  178.7780  144.1530 C   0  0  0  0  0  0  0  0  0  0  0  0
  189.4040  177.1700  144.3670 C   0  0  0  0  0  0  0  0  0  0  0  0
  187.1910  178.1710  141.4920 N   0  0  0  0  0  0  0  0  0  0  0  0
  190.8650  176.5660  146.0950 C   0  0  0  0  0  0  0  0  0  0  0  0
  190.4080  176.5140  143.6610 C   0  0  0  0  0  0  0  0  0  0  0  0
  185.2540  178.2990  143.0320 C   0  0  0  0  0  0  0  0  0  0  0  0
  188.2820  177.7010  143.6860 C   0  0  0  0  0  0  0  0  0  0  0  0
  185.2220  179.0680  145.3360 C   0  0  0  0  0  3  0  0  0  0  0  0
  190.3680  176.3610  142.2860 C   0  0  0  0  0  3  0  0  0  0  0  0
  181.7920  178.8460  144.1160 F   0  0  0  0  0  0  0  0  0  0  0  0
  183.8540  178.3640  143.0270 C   0  0  0  0  0  3  0  0  0  0  0  0
  185.9500  178.6040  144.2320 C   0  0  0  0  0  0  0  0  0  0  0  0
  188.3550  178.7880  137.4610 C   0  0  0  0  0  2  0  0  0  0  0  0
  187.5170  178.6220  140.1360 C   0  0  2  0  0  3  0  0  0  0  0  0
  186.5290  178.0470  139.0990 C   0  0  0  0  0  2  0  0  0  0  0  0
  187.0900  177.9510  137.6660 C   0  0  0  0  0  2  0  0  0  0  0  0
  189.3590  178.4380  138.5200 C   0  0  0  0  0  3  0  0  0  0  0  0
  188.9600  178.3480  139.7920 C   0  0  0  0  0  3  0  0  0  0  0  0
  1 15  2  0  0  0  0
  2 16  1  0  0  0  0
  4 13  1  0  0  0  0
  6  2  2  0  0  0  0
  6 18  1  0  0  0  0
  7 13  2  0  0  0  0
  7  9  1  0  0  0  0
  8 17  2  0  0  0  0
 10  8  1  0  0  0  0
 11  7  1  0  0  0  0
 12  1  1  0  0  0  0
 12  2  1  0  0  0  0
 13  5  1  0  0  0  0
 14 11  1  0  0  0  0
 14  4  1  0  0  0  0
 15 21  1  0  0  0  0
 16 11  2  0  0  0  0
 16  3  1  0  0  0  0
 18 14  2  0  0  0  0
 19 10  1  0  0  0  0
 20 15  1  0  0  0  0
 20 10  2  0  0  0  0
 21  3  2  0  0  0  0
 21 17  1  0  0  0  0
 22 25  1  0  0  0  0
 22 26  1  0  0  0  0
 23 24  1  6  0  0  0
 23 12  1  0  0  0  0
 25 24  1  0  0  0  0
 26 27  2  0  0  0  0
 27 23  1  0  0  0  0
M  END
>  <MODEL>
8

>  <REMARK>
 VINA RESULT:      -8.9      2.474      5.112
  Name = 
  1 active torsions:
  status: ('A' for Active; 'I' for Inactive)
    1  A    between atoms: C_9  and  N_15
                            x       y       z     vdW  Elec       q    Type
                         _______ _______ _______ _____ _____    ______ ____

>  <TORSDO>
F 1

$$$$
=
 OpenBabel10272401033D

 27 31  0  0  1  0  0  0  0  0999 V2000
  189.2730  178.3180  141.3490 C   0  0  0  0  0  3  0  0  0  0  0  0
  186.8370  178.3440  140.6880 C   0  0  0  0  0  0  0  0  0  0  0  0
  186.9190  177.7610  143.1670 C   0  0  0  0  0  3  0  0  0  0  0  0
  182.5170  179.2180  141.3330 S   0  0  0  0  0  0  0  0  0  0  0  0
  181.5930  178.8030  143.9560 C   0  0  0  0  0  1  0  0  0  0  0  0
  186.0740  178.7870  139.5820 C   0  0  0  0  0  3  0  0  0  0  0  0
  184.0080  178.4120  143.1960 C   0  0  0  0  0  0  0  0  0  0  0  0
  189.7340  177.6720  145.3990 C   0  0  0  0  0  3  0  0  0  0  0  0
  184.4480  178.0050  144.4520 O   0  0  0  0  0  1  0  0  0  0  0  0
  190.7610  178.1900  144.6170 C   0  0  0  0  0  0  0  0  0  0  0  0
  184.8310  178.4930  142.0520 C   0  0  0  0  0  0  0  0  0  0  0  0
  188.2040  177.9650  140.4650 N   0  0  0  0  0  0  0  0  0  0  0  0
  182.6890  178.7850  142.9520 C   0  0  0  0  0  0  0  0  0  0  0  0
  184.1240  178.9310  140.9380 C   0  0  0  0  0  0  0  0  0  0  0  0
  189.2840  178.2320  142.6790 C   0  0  0  0  0  0  0  0  0  0  0  0
  186.2140  178.2020  141.9520 C   0  0  0  0  0  0  0  0  0  0  0  0
  188.4690  177.4830  144.8410 C   0  0  0  0  0  3  0  0  0  0  0  0
  184.7180  179.0910  139.6980 C   0  0  0  0  0  3  0  0  0  0  0  0
  191.9860  178.3990  145.1550 F   0  0  0  0  0  0  0  0  0  0  0  0
  190.5370  178.4520  143.2660 C   0  0  0  0  0  3  0  0  0  0  0  0
  188.2110  177.7910  143.4990 C   0  0  0  0  0  0  0  0  0  0  0  0
  189.8590  176.9500  136.6950 C   0  0  0  0  0  2  0  0  0  0  0  0
  188.5770  177.4600  139.1410 C   0  0  2  0  0  3  0  0  0  0  0  0
  189.8000  176.5220  139.2210 C   0  0  0  0  0  2  0  0  0  0  0  0
  190.6150  176.4220  137.9160 C   0  0  0  0  0  2  0  0  0  0  0  0
  189.3590  178.3350  136.9820 C   0  0  0  0  0  3  0  0  0  0  0  0
  188.7570  178.5830  138.1490 C   0  0  0  0  0  3  0  0  0  0  0  0
  1 15  2  0  0  0  0
  2 16  1  0  0  0  0
  3 21  2  0  0  0  0
  4 13  1  0  0  0  0
  6 18  1  0  0  0  0
  6  2  2  0  0  0  0
  7  9  1  0  0  0  0
 10 19  1  0  0  0  0
 10  8  1  0  0  0  0
 11  7  1  0  0  0  0
 12  2  1  0  0  0  0
 12  1  1  0  0  0  0
 13  7  2  0  0  0  0
 13  5  1  0  0  0  0
 14  4  1  0  0  0  0
 14 11  1  0  0  0  0
 15 20  1  0  0  0  0
 15 21  1  0  0  0  0
 16 11  2  0  0  0  0
 16  3  1  0  0  0  0
 17  8  2  0  0  0  0
 18 14  2  0  0  0  0
 20 10  2  0  0  0  0
 21 17  1  0  0  0  0
 22 26  1  0  0  0  0
 22 25  1  0  0  0  0
 23 27  1  6  0  0  0
 23 24  1  0  0  0  0
 23 12  1  0  0  0  0
 25 24  1  0  0  0  0
 26 27  2  0  0  0  0
M  END
>  <MODEL>
9

>  <REMARK>
 VINA RESULT:      -8.8      3.113      6.577
  Name = 
  1 active torsions:
  status: ('A' for Active; 'I' for Inactive)
    1  A    between atoms: C_9  and  N_15
                            x       y       z     vdW  Elec       q    Type
                         _______ _______ _______ _____ _____    ______ ____

>  <TORSDO>
F 1

$$$$
