=
 OpenBabel10272414193D

 43 49  0  0  1  0  0  0  0  0999 V2000
  187.9210  177.4130  147.5310 C   0  0  0  0  0  0  0  0  0  0  0  0
  186.3840  178.4600  142.8270 C   0  0  0  0  0  0  0  0  0  0  0  0
  188.5490  177.8510  141.1880 C   0  0  0  0  0  0  0  0  0  0  0  0
  186.6250  178.0820  145.6010 C   0  0  0  0  0  0  0  0  0  0  0  0
  189.0000  177.0970  146.7010 C   0  0  0  0  0  3  0  0  0  0  0  0
  188.0280  177.2400  148.9030 O   0  0  0  0  0  1  0  0  0  0  0  0
  187.7140  177.7670  144.7540 C   0  0  0  0  0  0  0  0  0  0  0  0
  186.7350  177.9040  146.9820 C   0  0  0  0  0  3  0  0  0  0  0  0
  188.8980  177.2730  145.3180 C   0  0  0  0  0  3  0  0  0  0  0  0
  188.6320  177.6670  142.5310 N   0  0  0  0  0  0  0  0  0  0  0  0
  187.5940  177.9570  143.3650 C   0  0  0  0  0  0  0  0  0  0  0  0
  185.3160  178.7630  143.6840 C   0  0  0  0  0  3  0  0  0  0  0  0
  186.2830  178.6450  141.4360 C   0  0  0  0  0  0  0  0  0  0  0  0
  187.3740  178.3410  140.6190 C   0  0  0  0  0  3  0  0  0  0  0  0
  185.4370  178.5740  145.0610 C   0  0  0  0  0  3  0  0  0  0  0  0
  185.0470  179.2000  140.8000 C   0  0  0  0  0  2  0  0  0  0  0  0
  182.1060  178.7390  140.8450 C   0  0  0  0  0  2  0  0  0  0  0  0
  181.7640  179.3570  139.5590 N   0  0  0  0  0  0  0  0  0  0  0  0
  184.0110  178.6890  138.6950 C   0  0  0  0  0  2  0  0  0  0  0  0
  183.2010  177.6710  140.7160 C   0  0  0  0  0  2  0  0  0  0  0  0
  184.3850  178.1650  140.0100 N   0  0  0  0  0  0  0  0  0  0  0  0
  182.9350  179.7800  138.7820 C   0  0  0  0  0  2  0  0  0  0  0  0
  180.7780  178.9260  137.2930 C   0  0  0  0  0  1  0  0  0  0  0  0
  180.7940  178.5780  138.7780 C   0  0  0  0  0  2  0  0  0  0  0  0
  189.7070  177.5090  140.3210 C   0  0  0  0  0  2  0  0  0  0  0  0
  189.3680  177.7550  138.9300 N   0  0  0  0  0  2  0  0  0  0  0  0
  189.5190  176.4930  138.2250 C   0  0  0  0  0  2  0  0  0  0  0  0
  190.5880  176.6240  136.1070 F   0  0  0  0  0  0  0  0  0  0  0  0
  190.8340  176.4780  137.4600 C   0  0  2  0  0  3  0  0  0  0  0  0
  191.5580  175.1630  137.6950 C   0  0  0  0  0  2  0  0  0  0  0  0
  192.2970  174.7700  136.5010 N   0  0  0  0  0  0  0  0  0  0  0  0
  194.4830  173.7060  136.4600 C   0  0  2  0  0  3  0  0  0  0  0  0
  194.3990  174.2270  137.8940 C   0  0  2  0  0  3  0  0  0  0  0  0
  192.0820  173.3430  136.2860 C   0  0  0  0  0  3  0  0  0  0  0  0
  193.7270  174.9800  136.7400 C   0  0  2  0  0  0  0  0  0  0  0  0
  194.3710  176.1890  136.0780 C   0  0  0  0  0  1  0  0  0  0  0  0
  193.4290  172.6490  136.2320 C   0  0  0  0  0  3  0  0  0  0  0  0
  195.6600  174.8520  138.2710 N   0  0  2  0  0  0  0  0  0  0  0  0
  197.1200  175.2210  140.1940 C   0  0  0  0  0  3  0  0  0  0  0  0
  198.0770  174.6840  138.0410 C   0  0  0  0  0  2  0  0  0  0  0  0
  198.1530  175.1240  139.4240 N   0  0  0  0  0  0  0  0  0  0  0  0
  196.7340  174.0210  137.7330 C   0  0  0  0  0  2  0  0  0  0  0  0
  195.7550  174.7830  139.7300 C   0  0  0  0  0  2  0  0  0  0  0  0
  1  6  1  0  0  0  0
  2 11  1  0  0  0  0
  2 12  1  0  0  0  0
  3 10  1  0  0  0  0
  4  8  2  0  0  0  0
  5  1  2  0  0  0  0
  7  9  2  0  0  0  0
  7  4  1  0  0  0  0
  8  1  1  0  0  0  0
  9  5  1  0  0  0  0
 10 11  2  0  0  0  0
 11  7  1  0  0  0  0
 12 15  2  0  0  0  0
 13  2  2  0  0  0  0
 14  3  2  0  0  0  0
 14 13  1  0  0  0  0
 15  4  1  0  0  0  0
 16 13  1  0  0  0  0
 18 17  1  0  0  0  0
 19 22  1  0  0  0  0
 19 21  1  0  0  0  0
 20 17  1  0  0  0  0
 21 20  1  0  0  0  0
 21 16  1  0  0  0  0
 22 18  1  0  0  0  0
 23 24  1  0  0  0  0
 24 18  1  0  0  0  0
 25  3  1  0  0  0  0
 26 25  1  0  0  0  0
 27 26  1  0  0  0  0
 29 28  1  6  0  0  0
 29 30  1  0  0  0  0
 29 27  1  0  0  0  0
 31 35  1  0  0  0  0
 31 30  1  0  0  0  0
 32 37  1  1  0  0  0
 32 35  1  0  0  0  0
 32 33  1  0  0  0  0
 33 38  1  6  0  0  0
 34 31  1  0  0  0  0
 35 36  1  6  0  0  0
 35 33  1  0  0  0  0
 37 34  2  0  0  0  0
 38 42  1  6  0  0  0
 38 43  1  0  0  0  0
 40 41  1  0  0  0  0
 41 39  2  0  0  0  0
 42 40  1  0  0  0  0
 43 39  1  0  0  0  0
M  END
>  <MODEL>
1

>  <REMARK>
 VINA RESULT:      -9.0      0.000      0.000
  Name = 
  10 active torsions:
  status: ('A' for Active; 'I' for Inactive)
    1  A    between atoms: C_1  and  C_34
    2  A    between atoms: C_1  and  N_35
    3  A    between atoms: C_2  and  N_7
    4  A    between atoms: C_2  and  C_13
    5  A    between atoms: C_3  and  N_4
    6  A    between atoms: C_3  and  C_12
    7  A    between atoms: N_7  and  C_17
    8  A    between atoms: N_11  and  C_14
    9  A    between atoms: C_12  and  C_17
   10  A    between atoms: N_19  and  C_37
                            x       y       z     vdW  Elec       q    Type
                         _______ _______ _______ _____ _____    ______ ____

>  <TORSDO>
F 10

$$$$
=
 OpenBabel10272414193D

 43 49  0  0  1  0  0  0  0  0999 V2000
  191.1430  176.9090  146.9540 C   0  0  0  0  0  0  0  0  0  0  0  0
  187.0800  177.6940  144.0430 C   0  0  0  0  0  0  0  0  0  0  0  0
  188.0800  178.1780  141.4920 C   0  0  0  0  0  0  0  0  0  0  0  0
  188.8810  177.1790  146.1390 C   0  0  0  0  0  0  0  0  0  0  0  0
  191.6370  177.1400  145.6670 C   0  0  0  0  0  3  0  0  0  0  0  0
  192.0190  176.6620  147.9990 O   0  0  0  0  0  1  0  0  0  0  0  0
  189.3740  177.4160  144.8330 C   0  0  0  0  0  0  0  0  0  0  0  0
  189.7670  176.9270  147.1890 C   0  0  0  0  0  3  0  0  0  0  0  0
  190.7580  177.3930  144.6110 C   0  0  0  0  0  3  0  0  0  0  0  0
  188.9260  177.9140  142.5220 N   0  0  0  0  0  0  0  0  0  0  0  0
  188.4730  177.6750  143.7850 C   0  0  0  0  0  0  0  0  0  0  0  0
  186.6120  177.4520  145.3430 C   0  0  0  0  0  3  0  0  0  0  0  0
  186.1940  177.9560  142.9830 C   0  0  0  0  0  0  0  0  0  0  0  0
  186.7020  178.2020  141.7060 C   0  0  0  0  0  3  0  0  0  0  0  0
  187.5080  177.1970  146.3830 C   0  0  0  0  0  3  0  0  0  0  0  0
  184.7130  178.0210  143.1870 C   0  0  0  0  0  2  0  0  0  0  0  0
  182.2530  178.3120  141.5340 C   0  0  0  0  0  2  0  0  0  0  0  0
  181.3390  178.7880  142.5780 N   0  0  0  0  0  0  0  0  0  0  0  0
  183.2810  179.8740  143.7160 C   0  0  0  0  0  2  0  0  0  0  0  0
  183.5310  179.1560  141.4350 C   0  0  0  0  0  2  0  0  0  0  0  0
  184.2020  179.3100  142.7280 N   0  0  0  0  0  0  0  0  0  0  0  0
  181.9990  179.0420  143.8640 C   0  0  0  0  0  2  0  0  0  0  0  0
  179.9830  179.7510  140.6990 C   0  0  0  0  0  1  0  0  0  0  0  0
  180.4750  179.8900  142.1370 C   0  0  0  0  0  2  0  0  0  0  0  0
  188.6240  178.4200  140.1300 C   0  0  0  0  0  2  0  0  0  0  0  0
  189.1060  177.1720  139.5650 N   0  0  0  0  0  2  0  0  0  0  0  0
  190.5510  177.2830  139.4570 C   0  0  0  0  0  2  0  0  0  0  0  0
  189.9370  176.9460  137.1870 F   0  0  0  0  0  0  0  0  0  0  0  0
  191.0030  176.8690  138.0650 C   0  0  2  0  0  3  0  0  0  0  0  0
  191.5250  175.4430  138.0900 C   0  0  0  0  0  2  0  0  0  0  0  0
  192.1010  175.0900  136.7970 N   0  0  0  0  0  0  0  0  0  0  0  0
  194.2060  173.9260  136.4400 C   0  0  2  0  0  3  0  0  0  0  0  0
  194.3140  174.3600  137.9010 C   0  0  2  0  0  3  0  0  0  0  0  0
  191.7840  173.6920  136.5280 C   0  0  0  0  0  3  0  0  0  0  0  0
  193.5580  175.2150  136.8780 C   0  0  2  0  0  0  0  0  0  0  0  0
  194.1880  176.4310  136.2160 C   0  0  0  0  0  1  0  0  0  0  0  0
  193.0760  172.9370  136.2780 C   0  0  0  0  0  3  0  0  0  0  0  0
  195.6430  174.8970  138.1630 N   0  0  2  0  0  0  0  0  0  0  0  0
  197.3480  175.0370  139.9060 C   0  0  0  0  0  3  0  0  0  0  0  0
  198.0000  174.6540  137.6110 C   0  0  0  0  0  2  0  0  0  0  0  0
  198.2710  174.9670  139.0040 N   0  0  0  0  0  0  0  0  0  0  0  0
  196.5980  174.0760  137.4240 C   0  0  0  0  0  2  0  0  0  0  0  0
  195.9160  174.6970  139.5870 C   0  0  0  0  0  2  0  0  0  0  0  0
  1  8  1  0  0  0  0
  1  6  1  0  0  0  0
  2 12  1  0  0  0  0
  3 14  2  0  0  0  0
  3 10  1  0  0  0  0
  4 15  1  0  0  0  0
  4  8  2  0  0  0  0
  5  1  2  0  0  0  0
  7  4  1  0  0  0  0
  9  7  2  0  0  0  0
  9  5  1  0  0  0  0
 10 11  2  0  0  0  0
 11  2  1  0  0  0  0
 11  7  1  0  0  0  0
 12 15  2  0  0  0  0
 13 16  1  0  0  0  0
 13  2  2  0  0  0  0
 14 13  1  0  0  0  0
 17 18  1  0  0  0  0
 18 22  1  0  0  0  0
 19 22  1  0  0  0  0
 20 17  1  0  0  0  0
 20 21  1  0  0  0  0
 21 16  1  0  0  0  0
 21 19  1  0  0  0  0
 23 24  1  0  0  0  0
 24 18  1  0  0  0  0
 25  3  1  0  0  0  0
 26 25  1  0  0  0  0
 27 26  1  0  0  0  0
 29 28  1  6  0  0  0
 29 30  1  0  0  0  0
 29 27  1  0  0  0  0
 31 35  1  0  0  0  0
 31 30  1  0  0  0  0
 32 37  1  1  0  0  0
 32 35  1  0  0  0  0
 32 33  1  0  0  0  0
 33 38  1  6  0  0  0
 34 31  1  0  0  0  0
 35 36  1  6  0  0  0
 35 33  1  0  0  0  0
 37 34  2  0  0  0  0
 38 42  1  6  0  0  0
 38 43  1  0  0  0  0
 40 41  1  0  0  0  0
 41 39  2  0  0  0  0
 42 40  1  0  0  0  0
 43 39  1  0  0  0  0
M  END
>  <MODEL>
2

>  <REMARK>
 VINA RESULT:      -9.0      1.500      2.167
  Name = 
  10 active torsions:
  status: ('A' for Active; 'I' for Inactive)
    1  A    between atoms: C_1  and  C_34
    2  A    between atoms: C_1  and  N_35
    3  A    between atoms: C_2  and  N_7
    4  A    between atoms: C_2  and  C_13
    5  A    between atoms: C_3  and  N_4
    6  A    between atoms: C_3  and  C_12
    7  A    between atoms: N_7  and  C_17
    8  A    between atoms: N_11  and  C_14
    9  A    between atoms: C_12  and  C_17
   10  A    between atoms: N_19  and  C_37
                            x       y       z     vdW  Elec       q    Type
                         _______ _______ _______ _____ _____    ______ ____

>  <TORSDO>
F 10

$$$$
=
 OpenBabel10272414193D

 43 49  0  0  1  0  0  0  0  0999 V2000
  191.2910  176.6360  146.9190 C   0  0  0  0  0  0  0  0  0  0  0  0
  188.8850  177.9460  142.6650 C   0  0  0  0  0  0  0  0  0  0  0  0
  186.2010  178.1520  143.3670 C   0  0  0  0  0  0  0  0  0  0  0  0
  190.7600  177.2360  144.6360 C   0  0  0  0  0  0  0  0  0  0  0  0
  189.9420  176.7530  147.2670 C   0  0  0  0  0  3  0  0  0  0  0  0
  192.2260  176.2780  147.8770 O   0  0  0  0  0  1  0  0  0  0  0  0
  189.3920  177.3550  144.9800 C   0  0  0  0  0  0  0  0  0  0  0  0
  191.6990  176.8780  145.6050 C   0  0  0  0  0  3  0  0  0  0  0  0
  188.9960  177.1110  146.3030 C   0  0  0  0  0  3  0  0  0  0  0  0
  187.1310  177.8220  144.3010 N   0  0  0  0  0  0  0  0  0  0  0  0
  188.4540  177.7090  143.9930 C   0  0  0  0  0  0  0  0  0  0  0  0
  190.2460  177.8270  142.3460 C   0  0  0  0  0  3  0  0  0  0  0  0
  187.9330  178.2990  141.6920 C   0  0  0  0  0  0  0  0  0  0  0  0
  186.5870  178.3960  142.0490 C   0  0  0  0  0  3  0  0  0  0  0  0
  191.1760  177.4750  143.3260 C   0  0  0  0  0  3  0  0  0  0  0  0
  188.3120  178.5350  140.2640 C   0  0  0  0  0  2  0  0  0  0  0  0
  187.9570  178.5750  137.3080 C   0  0  0  0  0  2  0  0  0  0  0  0
  189.2640  178.0340  136.9200 N   0  0  0  0  0  0  0  0  0  0  0  0
  189.2950  176.7170  139.0430 C   0  0  0  0  0  2  0  0  0  0  0  0
  187.2180  177.6780  138.3090 C   0  0  0  0  0  2  0  0  0  0  0  0
  188.0410  177.3380  139.4720 N   0  0  0  0  0  0  0  0  0  0  0  0
  190.0790  177.5960  138.0590 C   0  0  0  0  0  2  0  0  0  0  0  0
  188.1230  177.3510  134.7920 C   0  0  0  0  0  1  0  0  0  0  0  0
  189.1860  177.0400  135.8410 C   0  0  0  0  0  2  0  0  0  0  0  0
  184.7710  178.2730  143.7560 C   0  0  0  0  0  2  0  0  0  0  0  0
  183.9490  178.4130  142.5670 N   0  0  0  0  0  2  0  0  0  0  0  0
  182.9800  179.4610  142.8400 C   0  0  0  0  0  2  0  0  0  0  0  0
  181.1840  178.0230  143.4310 F   0  0  0  0  0  0  0  0  0  0  0  0
  181.5780  178.9730  142.5080 C   0  0  2  0  0  3  0  0  0  0  0  0
  181.5570  178.3570  141.1190 C   0  0  0  0  0  2  0  0  0  0  0  0
  181.6590  179.3980  140.1010 N   0  0  0  0  0  0  0  0  0  0  0  0
  181.9420  179.0370  137.7140 C   0  0  2  0  0  3  0  0  0  0  0  0
  182.2950  177.6700  138.2960 C   0  0  2  0  0  3  0  0  0  0  0  0
  180.3470  179.5500  139.4800 C   0  0  0  0  0  3  0  0  0  0  0  0
  182.5990  178.9580  139.0680 C   0  0  2  0  0  0  0  0  0  0  0  0
  183.9820  179.5910  139.0750 C   0  0  0  0  0  1  0  0  0  0  0  0
  180.4900  179.3540  137.9830 C   0  0  0  0  0  3  0  0  0  0  0  0
  183.4900  177.1460  137.6470 N   0  0  2  0  0  0  0  0  0  0  0  0
  184.6780  175.0570  137.2090 C   0  0  0  0  0  3  0  0  0  0  0  0
  184.5290  176.7430  135.4840 C   0  0  0  0  0  2  0  0  0  0  0  0
  185.0510  175.5140  136.0590 N   0  0  0  0  0  0  0  0  0  0  0  0
  183.2660  177.2130  136.2050 C   0  0  0  0  0  2  0  0  0  0  0  0
  183.5870  175.7290  138.0010 C   0  0  0  0  0  2  0  0  0  0  0  0
  1  5  1  0  0  0  0
  1  6  1  0  0  0  0
  2 11  1  0  0  0  0
  3 25  1  0  0  0  0
  3 10  1  0  0  0  0
  4  7  2  0  0  0  0
  4  8  1  0  0  0  0
  7  9  1  0  0  0  0
  8  1  2  0  0  0  0
  9  5  2  0  0  0  0
 11 10  2  0  0  0  0
 11  7  1  0  0  0  0
 12  2  1  0  0  0  0
 12 15  2  0  0  0  0
 13 14  1  0  0  0  0
 13  2  2  0  0  0  0
 14  3  2  0  0  0  0
 15  4  1  0  0  0  0
 16 13  1  0  0  0  0
 17 20  1  0  0  0  0
 18 17  1  0  0  0  0
 18 22  1  0  0  0  0
 19 21  1  0  0  0  0
 20 21  1  0  0  0  0
 21 16  1  0  0  0  0
 22 19  1  0  0  0  0
 23 24  1  0  0  0  0
 24 18  1  0  0  0  0
 26 27  1  0  0  0  0
 26 25  1  0  0  0  0
 29 27  1  0  0  0  0
 29 28  1  1  0  0  0
 30 29  1  0  0  0  0
 31 30  1  0  0  0  0
 32 37  1  1  0  0  0
 32 33  1  0  0  0  0
 32 35  1  0  0  0  0
 33 38  1  6  0  0  0
 33 35  1  0  0  0  0
 34 31  1  0  0  0  0
 35 36  1  1  0  0  0
 35 31  1  0  0  0  0
 37 34  2  0  0  0  0
 38 42  1  6  0  0  0
 38 43  1  0  0  0  0
 39 43  1  0  0  0  0
 40 41  1  0  0  0  0
 40 42  1  0  0  0  0
 41 39  2  0  0  0  0
M  END
>  <MODEL>
3

>  <REMARK>
 VINA RESULT:      -9.0      4.279      8.779
  Name = 
  10 active torsions:
  status: ('A' for Active; 'I' for Inactive)
    1  A    between atoms: C_1  and  C_34
    2  A    between atoms: C_1  and  N_35
    3  A    between atoms: C_2  and  N_7
    4  A    between atoms: C_2  and  C_13
    5  A    between atoms: C_3  and  N_4
    6  A    between atoms: C_3  and  C_12
    7  A    between atoms: N_7  and  C_17
    8  A    between atoms: N_11  and  C_14
    9  A    between atoms: C_12  and  C_17
   10  A    between atoms: N_19  and  C_37
                            x       y       z     vdW  Elec       q    Type
                         _______ _______ _______ _____ _____    ______ ____

>  <TORSDO>
F 10

$$$$
=
 OpenBabel10272414193D

 43 49  0  0  1  0  0  0  0  0999 V2000
  183.6790  179.1970  144.0200 C   0  0  0  0  0  0  0  0  0  0  0  0
  183.4950  177.9700  139.1150 C   0  0  0  0  0  0  0  0  0  0  0  0
  186.1090  178.2110  138.1930 C   0  0  0  0  0  0  0  0  0  0  0  0
  182.9430  178.5290  141.8140 C   0  0  0  0  0  0  0  0  0  0  0  0
  184.9930  179.3030  143.5530 C   0  0  0  0  0  3  0  0  0  0  0  0
  183.3900  179.4770  145.3470 O   0  0  0  0  0  1  0  0  0  0  0  0
  184.2700  178.6360  141.3330 C   0  0  0  0  0  0  0  0  0  0  0  0
  182.6560  178.8090  143.1520 C   0  0  0  0  0  3  0  0  0  0  0  0
  185.2880  179.0250  142.2160 C   0  0  0  0  0  3  0  0  0  0  0  0
  185.8150  178.4630  139.4960 N   0  0  0  0  0  0  0  0  0  0  0  0
  184.5460  178.3580  139.9820 C   0  0  0  0  0  0  0  0  0  0  0  0
  182.1870  177.8650  139.6140 C   0  0  0  0  0  3  0  0  0  0  0  0
  183.7890  177.6970  137.7670 C   0  0  0  0  0  0  0  0  0  0  0  0
  185.1020  177.8230  137.3100 C   0  0  0  0  0  3  0  0  0  0  0  0
  181.9150  178.1430  140.9540 C   0  0  0  0  0  3  0  0  0  0  0  0
  182.7250  177.3110  136.7880 C   0  0  0  0  0  2  0  0  0  0  0  0
  181.3850  174.8090  137.6890 C   0  0  0  0  0  2  0  0  0  0  0  0
  180.4660  174.6300  136.5590 N   0  0  0  0  0  0  0  0  0  0  0  0
  182.1520  175.7270  135.0770 C   0  0  0  0  0  2  0  0  0  0  0  0
  182.8470  174.9590  137.2460 C   0  0  0  0  0  2  0  0  0  0  0  0
  183.0190  175.9950  136.2250 N   0  0  0  0  0  0  0  0  0  0  0  0
  180.6750  175.5960  135.4750 C   0  0  0  0  0  2  0  0  0  0  0  0
  180.4270  172.2090  137.2190 C   0  0  0  0  0  1  0  0  0  0  0  0
  180.3790  173.2390  136.0940 C   0  0  0  0  0  2  0  0  0  0  0  0
  187.5110  178.3290  137.7150 C   0  0  0  0  0  2  0  0  0  0  0  0
  188.3720  177.4620  138.5020 N   0  0  0  0  0  2  0  0  0  0  0  0
  189.2760  178.3230  139.2460 C   0  0  0  0  0  2  0  0  0  0  0  0
  190.1680  176.1640  139.6750 F   0  0  0  0  0  0  0  0  0  0  0  0
  190.2190  177.4800  140.0930 C   0  0  2  0  0  3  0  0  0  0  0  0
  189.8120  177.5560  141.5550 C   0  0  0  0  0  2  0  0  0  0  0  0
  190.9940  177.6390  142.4060 N   0  0  0  0  0  0  0  0  0  0  0  0
  191.1040  177.0390  144.7600 C   0  0  2  0  0  3  0  0  0  0  0  0
  189.5980  177.1310  144.5150 C   0  0  2  0  0  3  0  0  0  0  0  0
  191.5860  176.3080  142.4880 C   0  0  0  0  0  3  0  0  0  0  0  0
  190.5780  178.0320  143.7550 C   0  0  2  0  0  0  0  0  0  0  0  0
  190.8450  179.4700  144.1710 C   0  0  0  0  0  1  0  0  0  0  0  0
  191.6910  175.9100  143.9480 C   0  0  0  0  0  3  0  0  0  0  0  0
  188.9580  177.8480  145.6100 N   0  0  2  0  0  0  0  0  0  0  0  0
  186.8030  178.1230  146.7250 C   0  0  0  0  0  3  0  0  0  0  0  0
  188.8320  178.0160  148.0340 C   0  0  0  0  0  2  0  0  0  0  0  0
  187.4110  178.2640  147.8570 N   0  0  0  0  0  0  0  0  0  0  0  0
  189.4210  177.2410  146.8550 C   0  0  0  0  0  2  0  0  0  0  0  0
  187.5220  177.5890  145.5140 C   0  0  0  0  0  2  0  0  0  0  0  0
  1  6  1  0  0  0  0
  2 12  1  0  0  0  0
  2 11  1  0  0  0  0
  3 10  1  0  0  0  0
  4  8  1  0  0  0  0
  5  1  1  0  0  0  0
  7  4  2  0  0  0  0
  7  9  1  0  0  0  0
  8  1  2  0  0  0  0
  9  5  2  0  0  0  0
 10 11  2  0  0  0  0
 11  7  1  0  0  0  0
 12 15  2  0  0  0  0
 13  2  2  0  0  0  0
 14 13  1  0  0  0  0
 14  3  2  0  0  0  0
 15  4  1  0  0  0  0
 16 13  1  0  0  0  0
 18 17  1  0  0  0  0
 19 22  1  0  0  0  0
 19 21  1  0  0  0  0
 20 17  1  0  0  0  0
 21 16  1  0  0  0  0
 21 20  1  0  0  0  0
 22 18  1  0  0  0  0
 24 18  1  0  0  0  0
 24 23  1  0  0  0  0
 25  3  1  0  0  0  0
 25 26  1  0  0  0  0
 26 27  1  0  0  0  0
 27 29  1  0  0  0  0
 29 28  1  6  0  0  0
 29 30  1  0  0  0  0
 30 31  1  0  0  0  0
 31 34  1  0  0  0  0
 31 35  1  0  0  0  0
 32 37  1  6  0  0  0
 33 32  1  0  0  0  0
 33 38  1  1  0  0  0
 34 37  2  0  0  0  0
 35 36  1  1  0  0  0
 35 33  1  0  0  0  0
 35 32  1  0  0  0  0
 38 43  1  6  0  0  0
 38 42  1  0  0  0  0
 39 41  2  0  0  0  0
 41 40  1  0  0  0  0
 42 40  1  0  0  0  0
 43 39  1  0  0  0  0
M  END
>  <MODEL>
4

>  <REMARK>
 VINA RESULT:      -8.8      4.025      7.013
  Name = 
  10 active torsions:
  status: ('A' for Active; 'I' for Inactive)
    1  A    between atoms: C_1  and  C_34
    2  A    between atoms: C_1  and  N_35
    3  A    between atoms: C_2  and  N_7
    4  A    between atoms: C_2  and  C_13
    5  A    between atoms: C_3  and  N_4
    6  A    between atoms: C_3  and  C_12
    7  A    between atoms: N_7  and  C_17
    8  A    between atoms: N_11  and  C_14
    9  A    between atoms: C_12  and  C_17
   10  A    between atoms: N_19  and  C_37
                            x       y       z     vdW  Elec       q    Type
                         _______ _______ _______ _____ _____    ______ ____

>  <TORSDO>
F 10

$$$$
=
 OpenBabel10272414193D

 43 49  0  0  1  0  0  0  0  0999 V2000
  191.2140  176.7180  146.8650 C   0  0  0  0  0  0  0  0  0  0  0  0
  189.1360  177.8900  142.4040 C   0  0  0  0  0  0  0  0  0  0  0  0
  186.4090  178.1370  142.9000 C   0  0  0  0  0  0  0  0  0  0  0  0
  190.8550  177.2390  144.5300 C   0  0  0  0  0  0  0  0  0  0  0  0
  189.8440  176.8570  147.1090 C   0  0  0  0  0  3  0  0  0  0  0  0
  192.0730  176.3890  147.9020 O   0  0  0  0  0  1  0  0  0  0  0  0
  189.4670  177.3790  144.7690 C   0  0  0  0  0  0  0  0  0  0  0  0
  191.7180  176.9110  145.5770 C   0  0  0  0  0  3  0  0  0  0  0  0
  188.9740  177.1850  146.0670 C   0  0  0  0  0  3  0  0  0  0  0  0
  187.2650  177.8350  143.9100 N   0  0  0  0  0  0  0  0  0  0  0  0
  188.6060  177.7040  143.7040 C   0  0  0  0  0  0  0  0  0  0  0  0
  190.5150  177.7520  142.1900 C   0  0  0  0  0  3  0  0  0  0  0  0
  188.2600  178.2140  141.3520 C   0  0  0  0  0  0  0  0  0  0  0  0
  186.8920  178.3320  141.6060 C   0  0  0  0  0  3  0  0  0  0  0  0
  191.3680  177.4280  143.2460 C   0  0  0  0  0  3  0  0  0  0  0  0
  188.7440  178.3960  139.9480 C   0  0  0  0  0  2  0  0  0  0  0  0
  188.2430  178.7320  137.0320 C   0  0  0  0  0  2  0  0  0  0  0  0
  189.4060  177.9980  136.5200 N   0  0  0  0  0  0  0  0  0  0  0  0
  189.3110  176.5340  138.5430 C   0  0  0  0  0  2  0  0  0  0  0  0
  187.4070  177.9040  138.0180 C   0  0  0  0  0  2  0  0  0  0  0  0
  188.2160  177.3330  139.0960 N   0  0  0  0  0  0  0  0  0  0  0  0
  190.1880  177.3350  137.5700 C   0  0  0  0  0  2  0  0  0  0  0  0
  190.2790  176.3100  134.8820 C   0  0  0  0  0  1  0  0  0  0  0  0
  189.0900  177.1220  135.3850 C   0  0  0  0  0  2  0  0  0  0  0  0
  184.9560  178.2810  143.1790 C   0  0  0  0  0  2  0  0  0  0  0  0
  184.3330  179.0770  142.1360 N   0  0  0  0  0  2  0  0  0  0  0  0
  183.2210  178.3000  141.6140 C   0  0  0  0  0  2  0  0  0  0  0  0
  182.8000  179.0900  139.4130 F   0  0  0  0  0  0  0  0  0  0  0  0
  183.4040  178.0680  140.1210 C   0  0  2  0  0  3  0  0  0  0  0  0
  182.7730  176.7450  139.7200 C   0  0  0  0  0  2  0  0  0  0  0  0
  182.1080  176.8710  138.4270 N   0  0  0  0  0  0  0  0  0  0  0  0
  181.9730  175.1490  136.7170 C   0  0  2  0  0  3  0  0  0  0  0  0
  183.0800  174.6200  137.6280 C   0  0  2  0  0  3  0  0  0  0  0  0
  180.7910  176.2540  138.5360 C   0  0  0  0  0  3  0  0  0  0  0  0
  182.8750  176.1250  137.4270 C   0  0  2  0  0  0  0  0  0  0  0  0
  183.7230  176.9350  136.4580 C   0  0  0  0  0  1  0  0  0  0  0  0
  180.6620  175.1860  137.4660 C   0  0  0  0  0  3  0  0  0  0  0  0
  184.1900  174.1230  136.8250 N   0  0  2  0  0  0  0  0  0  0  0  0
  186.1180  172.6290  136.9320 C   0  0  0  0  0  3  0  0  0  0  0  0
  184.7600  172.7020  134.9340 C   0  0  0  0  0  2  0  0  0  0  0  0
  185.9390  172.3140  135.6910 N   0  0  0  0  0  0  0  0  0  0  0  0
  183.6360  173.1880  135.8490 C   0  0  0  0  0  2  0  0  0  0  0  0
  185.0550  173.3500  137.7170 C   0  0  0  0  0  2  0  0  0  0  0  0
  1  5  1  0  0  0  0
  1  6  1  0  0  0  0
  2 11  1  0  0  0  0
  3 25  1  0  0  0  0
  3 10  1  0  0  0  0
  4  7  2  0  0  0  0
  4  8  1  0  0  0  0
  7  9  1  0  0  0  0
  8  1  2  0  0  0  0
  9  5  2  0  0  0  0
 11 10  2  0  0  0  0
 11  7  1  0  0  0  0
 12  2  1  0  0  0  0
 12 15  2  0  0  0  0
 13 14  1  0  0  0  0
 13  2  2  0  0  0  0
 14  3  2  0  0  0  0
 15  4  1  0  0  0  0
 16 13  1  0  0  0  0
 17 20  1  0  0  0  0
 18 17  1  0  0  0  0
 18 22  1  0  0  0  0
 19 21  1  0  0  0  0
 20 21  1  0  0  0  0
 21 16  1  0  0  0  0
 22 19  1  0  0  0  0
 23 24  1  0  0  0  0
 24 18  1  0  0  0  0
 26 25  1  0  0  0  0
 27 26  1  0  0  0  0
 29 28  1  6  0  0  0
 29 27  1  0  0  0  0
 30 29  1  0  0  0  0
 31 34  1  0  0  0  0
 31 30  1  0  0  0  0
 32 35  1  0  0  0  0
 32 37  1  1  0  0  0
 32 33  1  0  0  0  0
 33 38  1  6  0  0  0
 35 36  1  6  0  0  0
 35 33  1  0  0  0  0
 35 31  1  0  0  0  0
 37 34  2  0  0  0  0
 38 42  1  6  0  0  0
 38 43  1  0  0  0  0
 39 43  1  0  0  0  0
 40 41  1  0  0  0  0
 40 42  1  0  0  0  0
 41 39  2  0  0  0  0
M  END
>  <MODEL>
5

>  <REMARK>
 VINA RESULT:      -8.8      3.982      8.154
  Name = 
  10 active torsions:
  status: ('A' for Active; 'I' for Inactive)
    1  A    between atoms: C_1  and  C_34
    2  A    between atoms: C_1  and  N_35
    3  A    between atoms: C_2  and  N_7
    4  A    between atoms: C_2  and  C_13
    5  A    between atoms: C_3  and  N_4
    6  A    between atoms: C_3  and  C_12
    7  A    between atoms: N_7  and  C_17
    8  A    between atoms: N_11  and  C_14
    9  A    between atoms: C_12  and  C_17
   10  A    between atoms: N_19  and  C_37
                            x       y       z     vdW  Elec       q    Type
                         _______ _______ _______ _____ _____    ______ ____

>  <TORSDO>
F 10

$$$$
=
 OpenBabel10272414193D

 43 49  0  0  1  0  0  0  0  0999 V2000
  181.6030  178.8400  142.5250 C   0  0  0  0  0  0  0  0  0  0  0  0
  186.6490  178.4810  142.4840 C   0  0  0  0  0  0  0  0  0  0  0  0
  187.3640  178.4110  139.7960 C   0  0  0  0  0  0  0  0  0  0  0  0
  183.9300  178.6790  143.1670 C   0  0  0  0  0  0  0  0  0  0  0  0
  181.9710  178.8170  141.1770 C   0  0  0  0  0  3  0  0  0  0  0  0
  180.2650  178.9290  142.8780 O   0  0  0  0  0  1  0  0  0  0  0  0
  184.3100  178.6530  141.8040 C   0  0  0  0  0  0  0  0  0  0  0  0
  182.5820  178.7720  143.5190 C   0  0  0  0  0  3  0  0  0  0  0  0
  183.3180  178.7240  140.8170 C   0  0  0  0  0  3  0  0  0  0  0  0
  186.0590  178.5190  140.1560 N   0  0  0  0  0  0  0  0  0  0  0  0
  185.6710  178.5530  141.4630 C   0  0  0  0  0  0  0  0  0  0  0  0
  186.2510  178.5120  143.8290 C   0  0  0  0  0  3  0  0  0  0  0  0
  188.0050  178.3800  142.1240 C   0  0  0  0  0  0  0  0  0  0  0  0
  188.3570  178.3410  140.7730 C   0  0  0  0  0  3  0  0  0  0  0  0
  184.9010  178.6110  144.1670 C   0  0  0  0  0  3  0  0  0  0  0  0
  189.0900  178.2690  143.1480 C   0  0  0  0  0  2  0  0  0  0  0  0
  191.6390  176.8750  143.7990 C   0  0  0  0  0  2  0  0  0  0  0  0
  191.5870  176.9880  145.2610 N   0  0  0  0  0  0  0  0  0  0  0  0
  189.0930  176.9140  145.1300 C   0  0  0  0  0  2  0  0  0  0  0  0
  190.3720  176.2430  143.2090 C   0  0  0  0  0  2  0  0  0  0  0  0
  189.1490  176.9050  143.6670 N   0  0  0  0  0  0  0  0  0  0  0  0
  190.3330  177.5640  145.7600 C   0  0  0  0  0  2  0  0  0  0  0  0
  191.7150  175.7810  147.4570 C   0  0  0  0  0  1  0  0  0  0  0  0
  191.9820  175.7550  145.9550 C   0  0  0  0  0  2  0  0  0  0  0  0
  187.7360  178.3890  138.3570 C   0  0  0  0  0  2  0  0  0  0  0  0
  186.5490  178.5790  137.5410 N   0  0  0  0  0  2  0  0  0  0  0  0
  186.7410  177.8060  136.3250 C   0  0  0  0  0  2  0  0  0  0  0  0
  185.0320  176.5150  137.3540 F   0  0  0  0  0  0  0  0  0  0  0  0
  186.0940  176.4370  136.4720 C   0  0  2  0  0  3  0  0  0  0  0  0
  187.1090  175.4370  137.0020 C   0  0  0  0  0  2  0  0  0  0  0  0
  187.8680  174.8540  135.9010 N   0  0  0  0  0  0  0  0  0  0  0  0
  190.1400  173.9970  136.0290 C   0  0  2  0  0  3  0  0  0  0  0  0
  190.0240  174.8140  137.3150 C   0  0  2  0  0  3  0  0  0  0  0  0
  187.7790  173.4020  136.0120 C   0  0  0  0  0  3  0  0  0  0  0  0
  189.2760  175.2320  136.0450 C   0  0  2  0  0  0  0  0  0  0  0  0
  189.8010  176.3150  135.1150 C   0  0  0  0  0  1  0  0  0  0  0  0
  189.1830  172.8300  136.0710 C   0  0  0  0  0  3  0  0  0  0  0  0
  191.2290  175.6110  137.5090 N   0  0  2  0  0  0  0  0  0  0  0  0
  192.4120  176.9230  139.1940 C   0  0  0  0  0  3  0  0  0  0  0  0
  193.6510  175.4900  137.6950 C   0  0  0  0  0  2  0  0  0  0  0  0
  193.5410  176.5330  138.7010 N   0  0  0  0  0  0  0  0  0  0  0  0
  192.3570  174.6860  137.5700 C   0  0  0  0  0  2  0  0  0  0  0  0
  191.1200  176.2440  138.8240 C   0  0  0  0  0  2  0  0  0  0  0  0
  1  6  1  0  0  0  0
  1  8  1  0  0  0  0
  2 12  1  0  0  0  0
  3 10  2  0  0  0  0
  3 14  1  0  0  0  0
  4  8  2  0  0  0  0
  4 15  1  0  0  0  0
  5  1  2  0  0  0  0
  7  4  1  0  0  0  0
  9  5  1  0  0  0  0
  9  7  2  0  0  0  0
 10 11  1  0  0  0  0
 11  7  1  0  0  0  0
 11  2  2  0  0  0  0
 12 15  2  0  0  0  0
 13  2  1  0  0  0  0
 13 16  1  0  0  0  0
 14 13  2  0  0  0  0
 16 21  1  0  0  0  0
 17 18  1  0  0  0  0
 18 22  1  0  0  0  0
 18 24  1  0  0  0  0
 19 22  1  0  0  0  0
 20 21  1  0  0  0  0
 20 17  1  0  0  0  0
 21 19  1  0  0  0  0
 24 23  1  0  0  0  0
 25  3  1  0  0  0  0
 26 25  1  0  0  0  0
 27 29  1  0  0  0  0
 27 26  1  0  0  0  0
 29 30  1  0  0  0  0
 29 28  1  1  0  0  0
 31 34  1  0  0  0  0
 31 35  1  0  0  0  0
 31 30  1  0  0  0  0
 32 35  1  0  0  0  0
 32 37  1  1  0  0  0
 32 33  1  0  0  0  0
 33 38  1  6  0  0  0
 34 37  2  0  0  0  0
 35 36  1  6  0  0  0
 35 33  1  0  0  0  0
 38 42  1  1  0  0  0
 38 43  1  0  0  0  0
 40 41  1  0  0  0  0
 41 39  2  0  0  0  0
 42 40  1  0  0  0  0
 43 39  1  0  0  0  0
M  END
>  <MODEL>
6

>  <REMARK>
 VINA RESULT:      -8.6      2.892      6.350
  Name = 
  10 active torsions:
  status: ('A' for Active; 'I' for Inactive)
    1  A    between atoms: C_1  and  C_34
    2  A    between atoms: C_1  and  N_35
    3  A    between atoms: C_2  and  N_7
    4  A    between atoms: C_2  and  C_13
    5  A    between atoms: C_3  and  N_4
    6  A    between atoms: C_3  and  C_12
    7  A    between atoms: N_7  and  C_17
    8  A    between atoms: N_11  and  C_14
    9  A    between atoms: C_12  and  C_17
   10  A    between atoms: N_19  and  C_37
                            x       y       z     vdW  Elec       q    Type
                         _______ _______ _______ _____ _____    ______ ____

>  <TORSDO>
F 10

$$$$
=
 OpenBabel10272414193D

 43 49  0  0  1  0  0  0  0  0999 V2000
  188.1250  177.4830  147.2460 C   0  0  0  0  0  0  0  0  0  0  0  0
  186.1190  178.3070  142.6760 C   0  0  0  0  0  0  0  0  0  0  0  0
  188.2500  178.1480  140.8930 C   0  0  0  0  0  0  0  0  0  0  0  0
  186.6050  177.9300  145.4180 C   0  0  0  0  0  0  0  0  0  0  0  0
  189.1890  177.3920  146.3430 C   0  0  0  0  0  3  0  0  0  0  0  0
  188.3500  177.3080  148.6030 O   0  0  0  0  0  1  0  0  0  0  0  0
  187.6770  177.8420  144.4980 C   0  0  0  0  0  0  0  0  0  0  0  0
  186.8350  177.7510  146.7840 C   0  0  0  0  0  3  0  0  0  0  0  0
  188.9670  177.5710  144.9750 C   0  0  0  0  0  3  0  0  0  0  0  0
  188.4520  177.9590  142.2220 N   0  0  0  0  0  0  0  0  0  0  0  0
  187.4340  178.0320  143.1250 C   0  0  0  0  0  0  0  0  0  0  0  0
  185.0700  178.3860  143.6040 C   0  0  0  0  0  3  0  0  0  0  0  0
  185.8950  178.4950  141.2990 C   0  0  0  0  0  0  0  0  0  0  0  0
  186.9690  178.4180  140.4100 C   0  0  0  0  0  3  0  0  0  0  0  0
  185.3130  178.1990  144.9650 C   0  0  0  0  0  3  0  0  0  0  0  0
  184.5390  178.8180  140.7550 C   0  0  0  0  0  2  0  0  0  0  0  0
  182.6790  177.3950  138.9170 C   0  0  0  0  0  2  0  0  0  0  0  0
  181.8130  178.5240  138.5590 N   0  0  0  0  0  0  0  0  0  0  0  0
  183.7690  180.0520  138.8450 C   0  0  0  0  0  2  0  0  0  0  0  0
  184.1650  177.6870  138.6730 C   0  0  0  0  0  2  0  0  0  0  0  0
  184.6010  178.9370  139.3010 N   0  0  0  0  0  0  0  0  0  0  0  0
  182.2740  179.8090  139.0960 C   0  0  0  0  0  2  0  0  0  0  0  0
  180.8400  179.8860  136.6890 C   0  0  0  0  0  1  0  0  0  0  0  0
  181.4810  178.5730  137.1290 C   0  0  0  0  0  2  0  0  0  0  0  0
  189.3930  178.0470  139.9480 C   0  0  0  0  0  2  0  0  0  0  0  0
  189.8240  176.6630  139.8470 N   0  0  0  0  0  2  0  0  0  0  0  0
  190.9480  176.6340  138.9250 C   0  0  0  0  0  2  0  0  0  0  0  0
  191.1420  176.3080  136.5800 F   0  0  0  0  0  0  0  0  0  0  0  0
  190.6200  175.7500  137.7310 C   0  0  2  0  0  3  0  0  0  0  0  0
  189.1130  175.6180  137.5820 C   0  0  0  0  0  2  0  0  0  0  0  0
  188.6810  176.1650  136.3000 N   0  0  0  0  0  0  0  0  0  0  0  0
  186.3820  176.3660  135.5350 C   0  0  2  0  0  3  0  0  0  0  0  0
  186.2530  175.3980  136.7110 C   0  0  2  0  0  3  0  0  0  0  0  0
  188.2720  177.5480  136.5150 C   0  0  0  0  0  3  0  0  0  0  0  0
  187.5120  175.4150  135.8360 C   0  0  2  0  0  0  0  0  0  0  0  0
  187.7320  174.4090  134.7160 C   0  0  0  0  0  1  0  0  0  0  0  0
  186.8450  177.7170  136.0270 C   0  0  0  0  0  3  0  0  0  0  0  0
  185.3720  174.2940  136.3520 N   0  0  2  0  0  0  0  0  0  0  0  0
  184.2580  172.3410  137.3040 C   0  0  0  0  0  3  0  0  0  0  0  0
  183.0930  173.7340  135.7110 C   0  0  0  0  0  2  0  0  0  0  0  0
  183.2500  172.5370  136.5190 N   0  0  0  0  0  0  0  0  0  0  0  0
  184.0340  174.8500  136.1640 C   0  0  0  0  0  2  0  0  0  0  0  0
  185.3070  173.4020  137.5100 C   0  0  0  0  0  2  0  0  0  0  0  0
  1  6  1  0  0  0  0
  2 11  1  0  0  0  0
  2 12  1  0  0  0  0
  3 10  1  0  0  0  0
  4  8  2  0  0  0  0
  5  1  2  0  0  0  0
  7  9  2  0  0  0  0
  7  4  1  0  0  0  0
  8  1  1  0  0  0  0
  9  5  1  0  0  0  0
 10 11  2  0  0  0  0
 11  7  1  0  0  0  0
 12 15  2  0  0  0  0
 13  2  2  0  0  0  0
 14  3  2  0  0  0  0
 14 13  1  0  0  0  0
 15  4  1  0  0  0  0
 16 13  1  0  0  0  0
 18 17  1  0  0  0  0
 18 22  1  0  0  0  0
 19 22  1  0  0  0  0
 19 21  1  0  0  0  0
 20 17  1  0  0  0  0
 20 21  1  0  0  0  0
 21 16  1  0  0  0  0
 23 24  1  0  0  0  0
 24 18  1  0  0  0  0
 25  3  1  0  0  0  0
 26 25  1  0  0  0  0
 27 26  1  0  0  0  0
 29 28  1  6  0  0  0
 29 27  1  0  0  0  0
 30 29  1  0  0  0  0
 31 34  1  0  0  0  0
 31 30  1  0  0  0  0
 32 35  1  0  0  0  0
 32 37  1  1  0  0  0
 32 33  1  0  0  0  0
 33 38  1  6  0  0  0
 35 36  1  6  0  0  0
 35 31  1  0  0  0  0
 35 33  1  0  0  0  0
 37 34  2  0  0  0  0
 38 42  1  1  0  0  0
 38 43  1  0  0  0  0
 39 43  1  0  0  0  0
 40 42  1  0  0  0  0
 40 41  1  0  0  0  0
 41 39  2  0  0  0  0
M  END
>  <MODEL>
7

>  <REMARK>
 VINA RESULT:      -8.6      3.095      5.756
  Name = 
  10 active torsions:
  status: ('A' for Active; 'I' for Inactive)
    1  A    between atoms: C_1  and  C_34
    2  A    between atoms: C_1  and  N_35
    3  A    between atoms: C_2  and  N_7
    4  A    between atoms: C_2  and  C_13
    5  A    between atoms: C_3  and  N_4
    6  A    between atoms: C_3  and  C_12
    7  A    between atoms: N_7  and  C_17
    8  A    between atoms: N_11  and  C_14
    9  A    between atoms: C_12  and  C_17
   10  A    between atoms: N_19  and  C_37
                            x       y       z     vdW  Elec       q    Type
                         _______ _______ _______ _____ _____    ______ ____

>  <TORSDO>
F 10

$$$$
=
 OpenBabel10272414193D

 43 49  0  0  1  0  0  0  0  0999 V2000
  182.0030  178.7110  139.6440 C   0  0  0  0  0  0  0  0  0  0  0  0
  186.8540  178.5110  141.0680 C   0  0  0  0  0  0  0  0  0  0  0  0
  188.3120  178.3250  138.7050 C   0  0  0  0  0  0  0  0  0  0  0  0
  184.0500  178.6590  140.9330 C   0  0  0  0  0  0  0  0  0  0  0  0
  182.7430  178.6300  138.4610 C   0  0  0  0  0  3  0  0  0  0  0  0
  180.6190  178.7760  139.5940 O   0  0  0  0  0  1  0  0  0  0  0  0
  184.8060  178.5740  139.7390 C   0  0  0  0  0  0  0  0  0  0  0  0
  182.6560  178.7270  140.8790 C   0  0  0  0  0  3  0  0  0  0  0  0
  184.1380  178.5620  138.5070 C   0  0  0  0  0  3  0  0  0  0  0  0
  186.9560  178.4100  138.6710 N   0  0  0  0  0  0  0  0  0  0  0  0
  186.2090  178.5000  139.8070 C   0  0  0  0  0  0  0  0  0  0  0  0
  186.0860  178.6000  142.2390 C   0  0  0  0  0  3  0  0  0  0  0  0
  188.2580  178.4350  141.1170 C   0  0  0  0  0  0  0  0  0  0  0  0
  188.9830  178.3380  139.9280 C   0  0  0  0  0  3  0  0  0  0  0  0
  184.6940  178.6730  142.1710 C   0  0  0  0  0  3  0  0  0  0  0  0
  189.0040  178.4130  142.4130 C   0  0  0  0  0  2  0  0  0  0  0  0
  191.5940  177.5180  143.5790 C   0  0  0  0  0  2  0  0  0  0  0  0
  191.1790  177.4060  144.9820 N   0  0  0  0  0  0  0  0  0  0  0  0
  188.8780  176.8200  144.2060 C   0  0  0  0  0  2  0  0  0  0  0  0
  190.6900  176.7200  142.6290 C   0  0  0  0  0  2  0  0  0  0  0  0
  189.2710  177.0330  142.8110 N   0  0  0  0  0  0  0  0  0  0  0  0
  189.7420  177.6230  145.1880 C   0  0  0  0  0  2  0  0  0  0  0  0
  191.7890  176.3270  147.1640 C   0  0  0  0  0  1  0  0  0  0  0  0
  191.6900  176.2000  145.6460 C   0  0  0  0  0  2  0  0  0  0  0  0
  189.0810  178.2410  137.4360 C   0  0  0  0  0  2  0  0  0  0  0  0
  188.8650  176.9440  136.8170 N   0  0  0  0  0  2  0  0  0  0  0  0
  190.1770  176.3650  136.5750 C   0  0  0  0  0  2  0  0  0  0  0  0
  191.6380  176.8420  138.3860 F   0  0  0  0  0  0  0  0  0  0  0  0
  190.7810  175.8800  137.8840 C   0  0  2  0  0  3  0  0  0  0  0  0
  191.5570  174.5940  137.6530 C   0  0  0  0  0  2  0  0  0  0  0  0
  192.2460  174.6410  136.3680 N   0  0  0  0  0  0  0  0  0  0  0  0
  194.5360  173.9400  135.9500 C   0  0  2  0  0  3  0  0  0  0  0  0
  194.4980  174.0420  137.4740 C   0  0  2  0  0  3  0  0  0  0  0  0
  192.1910  173.3080  135.7780 C   0  0  0  0  0  3  0  0  0  0  0  0
  193.6530  174.9740  136.5990 C   0  0  2  0  0  0  0  0  0  0  0  0
  194.0920  176.3940  136.2700 C   0  0  0  0  0  1  0  0  0  0  0  0
  193.6060  172.8460  135.4820 C   0  0  0  0  0  3  0  0  0  0  0  0
  195.6990  174.7110  137.9580 N   0  0  2  0  0  0  0  0  0  0  0  0
  197.0410  175.0240  139.9740 C   0  0  0  0  0  3  0  0  0  0  0  0
  198.1290  174.7050  137.8400 C   0  0  0  0  0  2  0  0  0  0  0  0
  198.1130  175.0460  139.2520 N   0  0  0  0  0  0  0  0  0  0  0  0
  196.8470  173.9880  137.4170 C   0  0  0  0  0  2  0  0  0  0  0  0
  195.7300  174.5410  139.4110 C   0  0  0  0  0  2  0  0  0  0  0  0
  1  8  1  0  0  0  0
  2 13  1  0  0  0  0
  2 12  1  0  0  0  0
  3 14  1  0  0  0  0
  4 15  1  0  0  0  0
  5  9  1  0  0  0  0
  5  1  2  0  0  0  0
  6  1  1  0  0  0  0
  7 11  1  0  0  0  0
  7  4  1  0  0  0  0
  8  4  2  0  0  0  0
  9  7  2  0  0  0  0
 10  3  2  0  0  0  0
 10 11  1  0  0  0  0
 11  2  2  0  0  0  0
 13 16  1  0  0  0  0
 14 13  2  0  0  0  0
 15 12  2  0  0  0  0
 16 21  1  0  0  0  0
 17 18  1  0  0  0  0
 18 22  1  0  0  0  0
 18 24  1  0  0  0  0
 19 22  1  0  0  0  0
 20 21  1  0  0  0  0
 20 17  1  0  0  0  0
 21 19  1  0  0  0  0
 24 23  1  0  0  0  0
 25  3  1  0  0  0  0
 26 25  1  0  0  0  0
 27 26  1  0  0  0  0
 27 29  1  0  0  0  0
 29 28  1  6  0  0  0
 30 29  1  0  0  0  0
 31 35  1  0  0  0  0
 31 30  1  0  0  0  0
 32 37  1  1  0  0  0
 32 35  1  0  0  0  0
 32 33  1  0  0  0  0
 33 38  1  6  0  0  0
 34 31  1  0  0  0  0
 35 36  1  6  0  0  0
 35 33  1  0  0  0  0
 37 34  2  0  0  0  0
 38 42  1  6  0  0  0
 38 43  1  0  0  0  0
 40 41  1  0  0  0  0
 41 39  2  0  0  0  0
 42 40  1  0  0  0  0
 43 39  1  0  0  0  0
M  END
>  <MODEL>
8

>  <REMARK>
 VINA RESULT:      -8.6      2.481      5.924
  Name = 
  10 active torsions:
  status: ('A' for Active; 'I' for Inactive)
    1  A    between atoms: C_1  and  C_34
    2  A    between atoms: C_1  and  N_35
    3  A    between atoms: C_2  and  N_7
    4  A    between atoms: C_2  and  C_13
    5  A    between atoms: C_3  and  N_4
    6  A    between atoms: C_3  and  C_12
    7  A    between atoms: N_7  and  C_17
    8  A    between atoms: N_11  and  C_14
    9  A    between atoms: C_12  and  C_17
   10  A    between atoms: N_19  and  C_37
                            x       y       z     vdW  Elec       q    Type
                         _______ _______ _______ _____ _____    ______ ____

>  <TORSDO>
F 10

$$$$
=
 OpenBabel10272414193D

 43 49  0  0  1  0  0  0  0  0999 V2000
  181.7850  178.8340  142.6750 C   0  0  0  0  0  0  0  0  0  0  0  0
  186.6690  178.4050  143.9230 C   0  0  0  0  0  0  0  0  0  0  0  0
  188.0430  178.2900  141.5070 C   0  0  0  0  0  0  0  0  0  0  0  0
  183.8690  178.6500  143.8900 C   0  0  0  0  0  0  0  0  0  0  0  0
  182.4840  178.7890  141.4640 C   0  0  0  0  0  3  0  0  0  0  0  0
  180.4030  178.9460  142.6740 O   0  0  0  0  0  1  0  0  0  0  0  0
  184.5830  178.6010  142.6680 C   0  0  0  0  0  0  0  0  0  0  0  0
  182.4770  178.7660  143.8850 C   0  0  0  0  0  3  0  0  0  0  0  0
  183.8760  178.6730  141.4600 C   0  0  0  0  0  3  0  0  0  0  0  0
  186.6910  178.4210  141.5220 N   0  0  0  0  0  0  0  0  0  0  0  0
  185.9840  178.4770  142.6860 C   0  0  0  0  0  0  0  0  0  0  0  0
  185.9420  178.4590  145.1220 C   0  0  0  0  0  3  0  0  0  0  0  0
  188.0700  178.2800  143.9210 C   0  0  0  0  0  0  0  0  0  0  0  0
  188.7540  178.2190  142.7050 C   0  0  0  0  0  3  0  0  0  0  0  0
  184.5520  178.5810  145.1040 C   0  0  0  0  0  3  0  0  0  0  0  0
  188.8560  178.1690  145.1890 C   0  0  0  0  0  2  0  0  0  0  0  0
  191.6070  177.0380  145.3400 C   0  0  0  0  0  2  0  0  0  0  0  0
  191.7260  176.9380  146.7990 N   0  0  0  0  0  0  0  0  0  0  0  0
  189.2600  176.5620  146.9270 C   0  0  0  0  0  2  0  0  0  0  0  0
  190.3540  176.3360  144.7990 C   0  0  0  0  0  2  0  0  0  0  0  0
  189.1320  176.7640  145.4830 N   0  0  0  0  0  0  0  0  0  0  0  0
  190.4880  177.2710  147.5130 C   0  0  0  0  0  2  0  0  0  0  0  0
  193.0480  175.7880  148.5960 C   0  0  0  0  0  1  0  0  0  0  0  0
  192.3400  175.6810  147.2480 C   0  0  0  0  0  2  0  0  0  0  0  0
  188.7690  178.2450  140.2100 C   0  0  0  0  0  2  0  0  0  0  0  0
  187.8200  178.3430  139.1140 N   0  0  0  0  0  2  0  0  0  0  0  0
  188.2550  177.4060  138.0900 C   0  0  0  0  0  2  0  0  0  0  0  0
  186.6960  178.6380  136.7880 F   0  0  0  0  0  0  0  0  0  0  0  0
  187.2510  177.3820  136.9470 C   0  0  2  0  0  3  0  0  0  0  0  0
  186.1470  176.3830  137.2470 C   0  0  0  0  0  2  0  0  0  0  0  0
  184.8530  176.9190  136.8360 N   0  0  0  0  0  0  0  0  0  0  0  0
  182.7060  175.8030  137.0700 C   0  0  2  0  0  3  0  0  0  0  0  0
  183.6950  174.6580  137.2830 C   0  0  2  0  0  3  0  0  0  0  0  0
  184.2010  177.4760  138.0160 C   0  0  0  0  0  3  0  0  0  0  0  0
  184.0230  175.8200  136.3380 C   0  0  2  0  0  0  0  0  0  0  0  0
  183.8450  175.7130  134.8310 C   0  0  0  0  0  1  0  0  0  0  0  0
  182.8440  176.8180  138.1800 C   0  0  0  0  0  3  0  0  0  0  0  0
  183.2580  173.4800  136.5440 N   0  0  2  0  0  0  0  0  0  0  0  0
  183.5830  171.0630  136.4200 C   0  0  0  0  0  3  0  0  0  0  0  0
  181.3690  171.9960  136.1590 C   0  0  0  0  0  2  0  0  0  0  0  0
  182.3400  170.9160  136.0990 N   0  0  0  0  0  0  0  0  0  0  0  0
  181.8930  173.1820  136.9690 C   0  0  0  0  0  2  0  0  0  0  0  0
  184.0970  172.3640  136.9800 C   0  0  0  0  0  2  0  0  0  0  0  0
  1  8  1  0  0  0  0
  2 12  1  0  0  0  0
  3 10  2  0  0  0  0
  3 14  1  0  0  0  0
  4 15  1  0  0  0  0
  5  1  2  0  0  0  0
  6  1  1  0  0  0  0
  7 11  1  0  0  0  0
  7  4  1  0  0  0  0
  8  4  2  0  0  0  0
  9  5  1  0  0  0  0
  9  7  2  0  0  0  0
 10 11  1  0  0  0  0
 11  2  2  0  0  0  0
 13  2  1  0  0  0  0
 13 16  1  0  0  0  0
 14 13  2  0  0  0  0
 15 12  2  0  0  0  0
 16 21  1  0  0  0  0
 17 18  1  0  0  0  0
 18 24  1  0  0  0  0
 18 22  1  0  0  0  0
 19 22  1  0  0  0  0
 20 17  1  0  0  0  0
 20 21  1  0  0  0  0
 21 19  1  0  0  0  0
 24 23  1  0  0  0  0
 25  3  1  0  0  0  0
 26 25  1  0  0  0  0
 27 26  1  0  0  0  0
 29 28  1  1  0  0  0
 29 30  1  0  0  0  0
 29 27  1  0  0  0  0
 31 30  1  0  0  0  0
 31 34  1  0  0  0  0
 32 33  1  0  0  0  0
 32 37  1  1  0  0  0
 33 38  1  6  0  0  0
 34 37  2  0  0  0  0
 35 36  1  6  0  0  0
 35 31  1  0  0  0  0
 35 32  1  0  0  0  0
 35 33  1  0  0  0  0
 38 42  1  1  0  0  0
 38 43  1  0  0  0  0
 39 43  1  0  0  0  0
 40 42  1  0  0  0  0
 41 40  1  0  0  0  0
 41 39  2  0  0  0  0
M  END
>  <MODEL>
9

>  <REMARK>
 VINA RESULT:      -8.4      4.860      9.224
  Name = 
  10 active torsions:
  status: ('A' for Active; 'I' for Inactive)
    1  A    between atoms: C_1  and  C_34
    2  A    between atoms: C_1  and  N_35
    3  A    between atoms: C_2  and  N_7
    4  A    between atoms: C_2  and  C_13
    5  A    between atoms: C_3  and  N_4
    6  A    between atoms: C_3  and  C_12
    7  A    between atoms: N_7  and  C_17
    8  A    between atoms: N_11  and  C_14
    9  A    between atoms: C_12  and  C_17
   10  A    between atoms: N_19  and  C_37
                            x       y       z     vdW  Elec       q    Type
                         _______ _______ _______ _____ _____    ______ ____

>  <TORSDO>
F 10

$$$$
