=
 OpenBabel10272402123D

 32 37  0  0  1  0  0  0  0  0999 V2000
  189.4060  177.3930  143.5960 C   0  0  0  0  0  0  0  0  0  0  0  0
  187.4880  177.9550  145.0330 N   0  0  0  0  0  0  0  0  0  0  0  0
  190.7350  176.9580  143.4750 C   0  0  0  0  0  3  0  0  0  0  0  0
  188.8120  177.4230  144.8740 C   0  0  0  0  0  0  0  0  0  0  0  0
  186.9000  178.0520  146.3460 C   0  0  0  0  0  0  0  0  0  0  0  0
  183.2590  178.8580  142.9440 C   0  0  0  0  0  3  0  0  0  0  0  0
  186.7380  178.2970  143.8550 C   0  0  0  0  0  0  0  0  0  0  0  0
  183.3960  178.6710  145.3900 C   0  0  0  0  0  3  0  0  0  0  0  0
  184.8620  178.9910  145.3170 C   0  0  0  0  0  0  0  0  0  0  0  0
  189.5090  176.9220  145.9890 C   0  0  0  0  0  0  0  0  0  0  0  0
  185.6490  178.4920  146.4930 C   0  0  0  0  0  3  0  0  0  0  0  0
  188.8010  176.7220  147.2970 C   0  0  0  0  0  2  0  0  0  0  0  0
  190.8200  176.4650  145.8420 C   0  0  0  0  0  3  0  0  0  0  0  0
  187.3630  178.1890  142.5690 N   0  0  0  0  0  0  0  0  0  0  0  0
  188.5960  177.7980  142.4070 C   0  0  0  0  0  0  0  0  0  0  0  0
  185.4570  178.6730  143.9640 C   0  0  0  0  0  0  0  0  0  0  0  0
  187.7330  177.7830  147.5660 C   0  0  1  0  0  3  0  0  0  0  0  0
  191.4410  176.5060  144.5920 C   0  0  0  0  0  3  0  0  0  0  0  0
  182.6490  178.6620  144.2790 C   0  0  0  0  0  3  0  0  0  0  0  0
  184.5880  178.8500  142.7860 C   0  0  0  0  0  2  0  0  0  0  0  0
  188.8280  177.9180  138.6160 C   0  0  0  0  0  0  0  0  0  0  0  0
  188.0480  178.2140  137.5490 F   0  0  0  0  0  0  0  0  0  0  0  0
  189.1320  177.7260  141.0250 C   0  0  0  0  0  0  0  0  0  0  0  0
  190.1470  177.5080  138.4140 C   0  0  0  0  0  3  0  0  0  0  0  0
  190.4520  177.3060  140.8030 C   0  0  0  0  0  3  0  0  0  0  0  0
  188.3160  178.0240  139.9140 C   0  0  0  0  0  0  0  0  0  0  0  0
  187.0350  178.4380  140.0870 F   0  0  0  0  0  0  0  0  0  0  0  0
  190.9670  177.1990  139.5080 C   0  0  0  0  0  0  0  0  0  0  0  0
  192.8270  176.4250  138.0720 C   0  0  0  0  0  1  0  0  0  0  0  0
  192.2910  176.7840  139.3380 O   0  0  0  0  0  0  0  0  0  0  0  0
  188.3420  178.9660  147.9880 O   0  0  0  0  0  0  0  0  0  0  0  0
  189.2920  178.5770  148.8110 O   0  0  0  0  0  1  0  0  0  0  0  0
  1  4  1  0  0  0  0
  2  5  1  0  0  0  0
  3  1  2  0  0  0  0
  3 18  1  0  0  0  0
  4  2  1  0  0  0  0
  4 10  2  0  0  0  0
  5 11  2  0  0  0  0
  5 17  1  0  0  0  0
  6 19  2  0  0  0  0
  7 16  2  0  0  0  0
  7  2  1  0  0  0  0
  9  8  2  0  0  0  0
  9 11  1  0  0  0  0
 10 12  1  0  0  0  0
 12 17  1  0  0  0  0
 13 10  1  0  0  0  0
 14  7  1  0  0  0  0
 15 14  2  0  0  0  0
 15  1  1  0  0  0  0
 16  9  1  0  0  0  0
 17 31  1  6  0  0  0
 18 13  2  0  0  0  0
 19  8  1  0  0  0  0
 20  6  1  0  0  0  0
 20 16  1  0  0  0  0
 21 26  1  0  0  0  0
 22 21  1  0  0  0  0
 23 15  1  0  0  0  0
 24 21  2  0  0  0  0
 24 28  1  0  0  0  0
 25 23  1  0  0  0  0
 26 27  1  0  0  0  0
 26 23  2  0  0  0  0
 28 25  2  0  0  0  0
 29 30  1  0  0  0  0
 30 28  1  0  0  0  0
 31 32  1  0  0  0  0
M  END
>  <MODEL>
1

>  <REMARK>
 VINA RESULT:     -11.3      0.000      0.000
  Name = 
  3 active torsions:
  status: ('A' for Active; 'I' for Inactive)
    1  A    between atoms: O_13  and  C_29
    2  A    between atoms: O_15  and  C_26
    3  A    between atoms: C_16  and  C_27
                            x       y       z     vdW  Elec       q    Type
                         _______ _______ _______ _____ _____    ______ ____

>  <TORSDO>
F 3

$$$$
=
 OpenBabel10272402123D

 32 37  0  0  1  0  0  0  0  0999 V2000
  187.1680  177.9230  143.6750 C   0  0  0  0  0  0  0  0  0  0  0  0
  187.1830  178.0370  141.2170 N   0  0  0  0  0  0  0  0  0  0  0  0
  186.4630  178.0420  144.8830 C   0  0  0  0  0  3  0  0  0  0  0  0
  186.4670  178.0580  142.4600 C   0  0  0  0  0  0  0  0  0  0  0  0
  186.4820  178.2420  139.9730 C   0  0  0  0  0  0  0  0  0  0  0  0
  191.1180  176.5660  138.8890 C   0  0  0  0  0  3  0  0  0  0  0  0
  188.5850  177.7160  141.2350 C   0  0  0  0  0  0  0  0  0  0  0  0
  189.0870  177.1200  137.6220 C   0  0  0  0  0  3  0  0  0  0  0  0
  188.6200  177.9680  138.7710 C   0  0  1  0  0  3  0  0  0  0  0  0
  185.0660  178.2010  142.4650 C   0  0  0  0  0  0  0  0  0  0  0  0
  187.1330  178.1650  138.8110 C   0  0  0  0  0  3  0  0  0  0  0  0
  184.2910  178.0970  141.1840 C   0  0  0  0  0  2  0  0  0  0  0  0
  184.3800  178.2870  143.6770 C   0  0  0  0  0  3  0  0  0  0  0  0
  189.2430  177.5230  142.4940 N   0  0  0  0  0  0  0  0  0  0  0  0
  188.6330  177.6310  143.6410 C   0  0  0  0  0  0  0  0  0  0  0  0
  189.2500  177.5610  140.0840 C   0  0  0  0  0  0  0  0  0  0  0  0
  185.0430  178.6700  139.9830 C   0  0  1  0  0  3  0  0  0  0  0  0
  185.0800  178.2320  144.8850 C   0  0  0  0  0  3  0  0  0  0  0  0
  190.2790  176.5120  137.6700 C   0  0  0  0  0  3  0  0  0  0  0  0
  190.6330  177.0490  140.0390 C   0  0  0  0  0  3  0  0  0  0  0  0
  191.3140  176.4030  146.0390 C   0  0  0  0  0  0  0  0  0  0  0  0
  192.4510  175.6650  146.0180 F   0  0  0  0  0  0  0  0  0  0  0  0
  189.4230  177.4070  144.8780 C   0  0  0  0  0  0  0  0  0  0  0  0
  190.8590  176.9360  147.2460 C   0  0  0  0  0  3  0  0  0  0  0  0
  188.9760  177.9270  146.1020 C   0  0  0  0  0  3  0  0  0  0  0  0
  190.6000  176.6310  144.8570 C   0  0  0  0  0  0  0  0  0  0  0  0
  191.0690  176.1150  143.6920 F   0  0  0  0  0  0  0  0  0  0  0  0
  189.6860  177.7010  147.2850 C   0  0  0  0  0  0  0  0  0  0  0  0
  187.8960  177.9850  148.9680 C   0  0  0  0  0  1  0  0  0  0  0  0
  189.2040  178.2460  148.4780 O   0  0  0  0  0  0  0  0  0  0  0  0
  184.9700  180.0640  140.0050 O   0  0  0  0  0  0  0  0  0  0  0  0
  184.2360  180.3760  138.9570 O   0  0  0  0  0  1  0  0  0  0  0  0
  1  3  2  0  0  0  0
  2  7  1  0  0  0  0
  2  4  1  0  0  0  0
  3 18  1  0  0  0  0
  4 10  2  0  0  0  0
  4  1  1  0  0  0  0
  5 17  1  0  0  0  0
  5  2  1  0  0  0  0
  6 20  2  0  0  0  0
  7 14  1  0  0  0  0
  8 19  2  0  0  0  0
  9  8  1  6  0  0  0
  9 11  1  0  0  0  0
  9 16  1  0  0  0  0
 10 13  1  0  0  0  0
 11  5  2  0  0  0  0
 12 10  1  0  0  0  0
 13 18  2  0  0  0  0
 14 15  2  0  0  0  0
 15  1  1  0  0  0  0
 15 23  1  0  0  0  0
 16  7  2  0  0  0  0
 17 31  1  1  0  0  0
 17 12  1  0  0  0  0
 19  6  1  0  0  0  0
 20 16  1  0  0  0  0
 21 24  1  0  0  0  0
 22 21  1  0  0  0  0
 23 25  2  0  0  0  0
 24 28  2  0  0  0  0
 25 28  1  0  0  0  0
 26 23  1  0  0  0  0
 26 21  2  0  0  0  0
 27 26  1  0  0  0  0
 28 30  1  0  0  0  0
 30 29  1  0  0  0  0
 32 31  1  0  0  0  0
M  END
>  <MODEL>
2

>  <REMARK>
 VINA RESULT:     -11.2      3.034      7.292
  Name = 
  3 active torsions:
  status: ('A' for Active; 'I' for Inactive)
    1  A    between atoms: O_13  and  C_29
    2  A    between atoms: O_15  and  C_26
    3  A    between atoms: C_16  and  C_27
                            x       y       z     vdW  Elec       q    Type
                         _______ _______ _______ _____ _____    ______ ____

>  <TORSDO>
F 3

$$$$
=
 OpenBabel10272402123D

 32 37  0  0  1  0  0  0  0  0999 V2000
  189.8760  177.0640  144.2390 C   0  0  0  0  0  0  0  0  0  0  0  0
  187.7780  177.8020  145.2940 N   0  0  0  0  0  0  0  0  0  0  0  0
  191.1830  176.5710  144.3710 C   0  0  0  0  0  3  0  0  0  0  0  0
  189.0810  177.2090  145.3940 C   0  0  0  0  0  0  0  0  0  0  0  0
  186.9860  178.0160  146.4800 C   0  0  0  0  0  0  0  0  0  0  0  0
  184.0020  178.7130  142.4700 C   0  0  0  0  0  3  0  0  0  0  0  0
  187.2500  178.0870  143.9870 C   0  0  0  0  0  0  0  0  0  0  0  0
  183.7230  178.6970  144.9120 C   0  0  0  0  0  3  0  0  0  0  0  0
  185.1960  178.9550  145.0650 C   0  0  0  0  0  0  0  0  0  0  0  0
  189.5600  176.7640  146.6400 C   0  0  0  0  0  0  0  0  0  0  0  0
  185.7510  178.5120  146.3860 C   0  0  0  0  0  3  0  0  0  0  0  0
  188.6360  176.6860  147.8210 C   0  0  0  0  0  2  0  0  0  0  0  0
  190.8520  176.2480  146.7460 C   0  0  0  0  0  3  0  0  0  0  0  0
  188.0720  177.8620  142.8340 N   0  0  0  0  0  0  0  0  0  0  0  0
  189.2940  177.4130  142.9070 C   0  0  0  0  0  0  0  0  0  0  0  0
  185.9890  178.5180  143.8550 C   0  0  0  0  0  0  0  0  0  0  0  0
  187.5920  177.8030  147.8370 C   0  0  1  0  0  3  0  0  0  0  0  0
  191.6720  176.1740  145.6170 C   0  0  0  0  0  3  0  0  0  0  0  0
  183.1700  178.6370  143.6930 C   0  0  0  0  0  3  0  0  0  0  0  0
  185.3360  178.6430  142.5380 C   0  0  0  0  0  2  0  0  0  0  0  0
  192.0710  177.4810  140.3130 C   0  0  0  0  0  0  0  0  0  0  0  0
  193.3630  177.8740  140.2020 F   0  0  0  0  0  0  0  0  0  0  0  0
  190.0460  177.2210  141.6420 C   0  0  0  0  0  0  0  0  0  0  0  0
  191.4250  176.9150  139.2130 C   0  0  0  0  0  3  0  0  0  0  0  0
  189.4100  176.6620  140.5230 C   0  0  0  0  0  3  0  0  0  0  0  0
  191.3870  177.6400  141.5240 C   0  0  0  0  0  0  0  0  0  0  0  0
  192.0410  178.1790  142.5850 F   0  0  0  0  0  0  0  0  0  0  0  0
  190.0890  176.5020  139.3120 C   0  0  0  0  0  0  0  0  0  0  0  0
  188.2170  176.4840  137.6950 C   0  0  0  0  0  1  0  0  0  0  0  0
  189.4140  175.9340  138.2280 O   0  0  0  0  0  0  0  0  0  0  0  0
  188.1820  178.9900  148.2780 O   0  0  0  0  0  0  0  0  0  0  0  0
  189.2350  178.6030  148.9660 O   0  0  0  0  0  1  0  0  0  0  0  0
  1  3  2  0  0  0  0
  1  4  1  0  0  0  0
  2  4  1  0  0  0  0
  2  5  1  0  0  0  0
  3 18  1  0  0  0  0
  4 10  2  0  0  0  0
  5 17  1  0  0  0  0
  6 20  1  0  0  0  0
  6 19  2  0  0  0  0
  7  2  1  0  0  0  0
  8  9  2  0  0  0  0
  9 11  1  0  0  0  0
 10 13  1  0  0  0  0
 10 12  1  0  0  0  0
 11  5  2  0  0  0  0
 12 17  1  0  0  0  0
 14 15  2  0  0  0  0
 14  7  1  0  0  0  0
 15  1  1  0  0  0  0
 16  7  2  0  0  0  0
 16  9  1  0  0  0  0
 17 31  1  6  0  0  0
 18 13  2  0  0  0  0
 19  8  1  0  0  0  0
 20 16  1  0  0  0  0
 21 26  1  0  0  0  0
 22 21  1  0  0  0  0
 23 15  1  0  0  0  0
 24 28  1  0  0  0  0
 24 21  2  0  0  0  0
 25 23  1  0  0  0  0
 26 23  2  0  0  0  0
 26 27  1  0  0  0  0
 28 25  2  0  0  0  0
 29 30  1  0  0  0  0
 30 28  1  0  0  0  0
 31 32  1  0  0  0  0
M  END
>  <MODEL>
3

>  <REMARK>
 VINA RESULT:     -11.0      1.771      2.103
  Name = 
  3 active torsions:
  status: ('A' for Active; 'I' for Inactive)
    1  A    between atoms: O_13  and  C_29
    2  A    between atoms: O_15  and  C_26
    3  A    between atoms: C_16  and  C_27
                            x       y       z     vdW  Elec       q    Type
                         _______ _______ _______ _____ _____    ______ ____

>  <TORSDO>
F 3

$$$$
=
 OpenBabel10272402123D

 32 37  0  0  1  0  0  0  0  0999 V2000
  186.3990  178.1120  145.0500 C   0  0  0  0  0  0  0  0  0  0  0  0
  188.7590  177.5350  144.6580 N   0  0  0  0  0  0  0  0  0  0  0  0
  185.3600  178.3910  145.9500 C   0  0  0  0  0  3  0  0  0  0  0  0
  187.7010  177.9160  145.5500 C   0  0  0  0  0  0  0  0  0  0  0  0
  190.0790  177.2670  145.1730 C   0  0  0  0  0  0  0  0  0  0  0  0
  190.4030  177.5860  140.1460 C   0  0  0  0  0  3  0  0  0  0  0  0
  188.4960  177.5190  143.2450 C   0  0  0  0  0  0  0  0  0  0  0  0
  191.9730  177.2880  142.0120 C   0  0  0  0  0  3  0  0  0  0  0  0
  190.8380  176.8050  142.8700 C   0  0  0  0  0  0  0  0  0  0  0  0
  187.9670  178.1050  146.9200 C   0  0  0  0  0  0  0  0  0  0  0  0
  191.0800  176.9690  144.3410 C   0  0  0  0  0  3  0  0  0  0  0  0
  189.3830  178.1420  147.4170 C   0  0  0  0  0  2  0  0  0  0  0  0
  186.9250  178.4120  147.7950 C   0  0  0  0  0  3  0  0  0  0  0  0
  187.1670  177.7890  142.7760 N   0  0  0  0  0  0  0  0  0  0  0  0
  186.1680  178.0450  143.5740 C   0  0  0  0  0  0  0  0  0  0  0  0
  189.4940  177.2950  142.3810 C   0  0  0  0  0  0  0  0  0  0  0  0
  190.3090  177.1930  146.6540 C   0  0  1  0  0  3  0  0  0  0  0  0
  185.6180  178.5300  147.3150 C   0  0  0  0  0  3  0  0  0  0  0  0
  191.7650  177.6010  140.7270 C   0  0  0  0  0  3  0  0  0  0  0  0
  189.3220  177.4550  140.9240 C   0  0  0  0  0  2  0  0  0  0  0  0
  183.4440  178.7890  141.0320 C   0  0  0  0  0  0  0  0  0  0  0  0
  183.3080  178.9710  139.6960 F   0  0  0  0  0  0  0  0  0  0  0  0
  184.8390  178.3090  142.9700 C   0  0  0  0  0  0  0  0  0  0  0  0
  182.3230  178.8820  141.8580 C   0  0  0  0  0  3  0  0  0  0  0  0
  183.7030  178.4150  143.7860 C   0  0  0  0  0  3  0  0  0  0  0  0
  184.7000  178.5080  141.5810 C   0  0  0  0  0  0  0  0  0  0  0  0
  185.7740  178.4080  140.7560 F   0  0  0  0  0  0  0  0  0  0  0  0
  182.4460  178.6960  143.2420 C   0  0  0  0  0  0  0  0  0  0  0  0
  180.0310  178.4160  143.6950 C   0  0  0  0  0  1  0  0  0  0  0  0
  181.3440  178.7850  144.0960 O   0  0  0  0  0  0  0  0  0  0  0  0
  190.1060  175.8840  147.0950 O   0  0  0  0  0  0  0  0  0  0  0  0
  191.2960  175.4740  147.4800 O   0  0  0  0  0  1  0  0  0  0  0  0
  1  4  1  0  0  0  0
  1  3  2  0  0  0  0
  2  5  1  0  0  0  0
  2  4  1  0  0  0  0
  3 18  1  0  0  0  0
  4 10  2  0  0  0  0
  5 17  1  0  0  0  0
  6 19  2  0  0  0  0
  6 20  1  0  0  0  0
  7  2  1  0  0  0  0
  8  9  2  0  0  0  0
  9 11  1  0  0  0  0
 10 12  1  0  0  0  0
 10 13  1  0  0  0  0
 11  5  2  0  0  0  0
 14  7  1  0  0  0  0
 14 15  2  0  0  0  0
 15  1  1  0  0  0  0
 16  9  1  0  0  0  0
 16  7  2  0  0  0  0
 17 31  1  1  0  0  0
 17 12  1  0  0  0  0
 18 13  2  0  0  0  0
 19  8  1  0  0  0  0
 20 16  1  0  0  0  0
 21 26  2  0  0  0  0
 21 24  1  0  0  0  0
 22 21  1  0  0  0  0
 23 15  1  0  0  0  0
 23 25  2  0  0  0  0
 24 28  2  0  0  0  0
 26 23  1  0  0  0  0
 27 26  1  0  0  0  0
 28 25  1  0  0  0  0
 28 30  1  0  0  0  0
 29 30  1  0  0  0  0
 31 32  1  0  0  0  0
M  END
>  <MODEL>
4

>  <REMARK>
 VINA RESULT:     -10.6      2.166      6.207
  Name = 
  3 active torsions:
  status: ('A' for Active; 'I' for Inactive)
    1  A    between atoms: O_13  and  C_29
    2  A    between atoms: O_15  and  C_26
    3  A    between atoms: C_16  and  C_27
                            x       y       z     vdW  Elec       q    Type
                         _______ _______ _______ _____ _____    ______ ____

>  <TORSDO>
F 3

$$$$
=
 OpenBabel10272402123D

 32 37  0  0  1  0  0  0  0  0999 V2000
  188.0280  177.8930  143.0150 C   0  0  0  0  0  0  0  0  0  0  0  0
  185.8020  178.4320  143.9190 N   0  0  0  0  0  0  0  0  0  0  0  0
  189.3750  177.5750  143.2410 C   0  0  0  0  0  3  0  0  0  0  0  0
  187.1600  178.0120  144.1190 C   0  0  0  0  0  0  0  0  0  0  0  0
  184.9280  178.6210  145.0500 C   0  0  0  0  0  0  0  0  0  0  0  0
  182.1020  178.6870  140.8680 C   0  0  0  0  0  3  0  0  0  0  0  0
  185.3150  178.5650  142.5730 C   0  0  0  0  0  0  0  0  0  0  0  0
  181.6960  178.7930  143.2900 C   0  0  0  0  0  3  0  0  0  0  0  0
  183.1160  179.2400  143.4920 C   0  0  0  0  0  0  0  0  0  0  0  0
  187.6200  177.7090  145.4150 C   0  0  0  0  0  0  0  0  0  0  0  0
  183.6490  178.9540  144.8650 C   0  0  0  0  0  3  0  0  0  0  0  0
  186.6500  177.5930  146.5540 C   0  0  0  0  0  2  0  0  0  0  0  0
  188.9580  177.3650  145.6150 C   0  0  0  0  0  3  0  0  0  0  0  0
  186.2200  178.3710  141.4770 N   0  0  0  0  0  0  0  0  0  0  0  0
  187.4810  178.0820  141.6370 C   0  0  0  0  0  0  0  0  0  0  0  0
  184.0200  178.8280  142.3530 C   0  0  0  0  0  0  0  0  0  0  0  0
  185.4800  178.5720  146.4450 C   0  0  1  0  0  3  0  0  0  0  0  0
  189.8400  177.3210  144.5330 C   0  0  0  0  0  3  0  0  0  0  0  0
  181.2210  178.5870  142.0540 C   0  0  0  0  0  3  0  0  0  0  0  0
  183.4290  178.7870  141.0020 C   0  0  0  0  0  2  0  0  0  0  0  0
  188.5620  177.8440  138.0020 C   0  0  0  0  0  0  0  0  0  0  0  0
  188.0350  177.9920  136.7620 F   0  0  0  0  0  0  0  0  0  0  0  0
  188.3180  177.9040  140.4240 C   0  0  0  0  0  0  0  0  0  0  0  0
  189.9050  177.4880  138.1430 C   0  0  0  0  0  3  0  0  0  0  0  0
  189.6670  177.5370  140.5470 C   0  0  0  0  0  3  0  0  0  0  0  0
  187.7660  178.0480  139.1350 C   0  0  0  0  0  0  0  0  0  0  0  0
  186.4670  178.4080  138.9730 F   0  0  0  0  0  0  0  0  0  0  0  0
  190.4650  177.3320  139.4180 C   0  0  0  0  0  0  0  0  0  0  0  0
  192.6300  176.5450  138.5190 C   0  0  0  0  0  1  0  0  0  0  0  0
  191.8050  176.9750  139.5930 O   0  0  0  0  0  0  0  0  0  0  0  0
  185.8980  179.8480  146.8280 O   0  0  0  0  0  0  0  0  0  0  0  0
  185.8910  179.8190  148.1440 O   0  0  0  0  0  1  0  0  0  0  0  0
  1  3  2  0  0  0  0
  1  4  1  0  0  0  0
  2  4  1  0  0  0  0
  2  5  1  0  0  0  0
  3 18  1  0  0  0  0
  4 10  2  0  0  0  0
  5 17  1  0  0  0  0
  6 20  1  0  0  0  0
  6 19  2  0  0  0  0
  7  2  1  0  0  0  0
  8  9  2  0  0  0  0
  9 11  1  0  0  0  0
 10 13  1  0  0  0  0
 10 12  1  0  0  0  0
 11  5  2  0  0  0  0
 14 15  2  0  0  0  0
 14  7  1  0  0  0  0
 15  1  1  0  0  0  0
 16  7  2  0  0  0  0
 16  9  1  0  0  0  0
 17 12  1  0  0  0  0
 17 31  1  6  0  0  0
 18 13  2  0  0  0  0
 19  8  1  0  0  0  0
 20 16  1  0  0  0  0
 21 24  2  0  0  0  0
 21 26  1  0  0  0  0
 22 21  1  0  0  0  0
 23 25  1  0  0  0  0
 23 15  1  0  0  0  0
 24 28  1  0  0  0  0
 26 23  2  0  0  0  0
 27 26  1  0  0  0  0
 28 30  1  0  0  0  0
 28 25  2  0  0  0  0
 29 30  1  0  0  0  0
 31 32  1  0  0  0  0
M  END
>  <MODEL>
5

>  <REMARK>
 VINA RESULT:     -10.6      1.294      1.955
  Name = 
  3 active torsions:
  status: ('A' for Active; 'I' for Inactive)
    1  A    between atoms: O_13  and  C_29
    2  A    between atoms: O_15  and  C_26
    3  A    between atoms: C_16  and  C_27
                            x       y       z     vdW  Elec       q    Type
                         _______ _______ _______ _____ _____    ______ ____

>  <TORSDO>
F 3

$$$$
=
 OpenBabel10272402123D

 32 37  0  0  1  0  0  0  0  0999 V2000
  185.7650  178.3270  144.3700 C   0  0  0  0  0  0  0  0  0  0  0  0
  188.1150  177.6330  144.6080 N   0  0  0  0  0  0  0  0  0  0  0  0
  184.5550  178.7100  144.9680 C   0  0  0  0  0  3  0  0  0  0  0  0
  186.8940  178.1190  145.1870 C   0  0  0  0  0  0  0  0  0  0  0  0
  189.2540  177.3540  145.4470 C   0  0  0  0  0  0  0  0  0  0  0  0
  190.8050  177.2890  140.6450 C   0  0  0  0  0  3  0  0  0  0  0  0
  188.2020  177.5240  143.1770 C   0  0  0  0  0  0  0  0  0  0  0  0
  191.8560  177.0710  142.8550 C   0  0  0  0  0  3  0  0  0  0  0  0
  190.5220  176.6950  143.4350 C   0  0  0  0  0  0  0  0  0  0  0  0
  186.8300  178.3980  146.5650 C   0  0  0  0  0  0  0  0  0  0  0  0
  190.4080  176.9590  144.9080 C   0  0  0  0  0  3  0  0  0  0  0  0
  188.0820  178.4190  147.3920 C   0  0  0  0  0  2  0  0  0  0  0  0
  185.6240  178.8080  147.1360 C   0  0  0  0  0  3  0  0  0  0  0  0
  187.0440  177.8080  142.3800 N   0  0  0  0  0  0  0  0  0  0  0  0
  185.8960  178.1600  142.8910 C   0  0  0  0  0  0  0  0  0  0  0  0
  189.3660  177.1980  142.6010 C   0  0  0  0  0  0  0  0  0  0  0  0
  189.1120  177.3810  146.9410 C   0  0  1  0  0  3  0  0  0  0  0  0
  184.4820  178.9400  146.3440 C   0  0  0  0  0  3  0  0  0  0  0  0
  191.9840  177.2960  141.5410 C   0  0  0  0  0  3  0  0  0  0  0  0
  189.5620  177.2570  141.1400 C   0  0  0  0  0  2  0  0  0  0  0  0
  183.9330  179.0440  139.7600 C   0  0  0  0  0  0  0  0  0  0  0  0
  184.1590  179.3550  138.4600 F   0  0  0  0  0  0  0  0  0  0  0  0
  184.7700  178.4280  141.9620 C   0  0  0  0  0  0  0  0  0  0  0  0
  182.6250  179.0070  140.2430 C   0  0  0  0  0  3  0  0  0  0  0  0
  183.4490  178.4050  142.4330 C   0  0  0  0  0  3  0  0  0  0  0  0
  185.0060  178.7610  140.6130 C   0  0  0  0  0  0  0  0  0  0  0  0
  186.2700  178.7890  140.1170 F   0  0  0  0  0  0  0  0  0  0  0  0
  182.3750  178.6870  141.5850 C   0  0  0  0  0  0  0  0  0  0  0  0
  180.7940  178.7860  143.4840 C   0  0  0  0  0  1  0  0  0  0  0  0
  181.0760  178.6430  142.0990 O   0  0  0  0  0  0  0  0  0  0  0  0
  188.7370  176.1170  147.4000 O   0  0  0  0  0  0  0  0  0  0  0  0
  188.2310  176.3330  148.5950 O   0  0  0  0  0  1  0  0  0  0  0  0
  1  3  2  0  0  0  0
  1  4  1  0  0  0  0
  2  4  1  0  0  0  0
  2  5  1  0  0  0  0
  3 18  1  0  0  0  0
  4 10  2  0  0  0  0
  5 17  1  0  0  0  0
  6 20  1  0  0  0  0
  6 19  2  0  0  0  0
  7  2  1  0  0  0  0
  8  9  2  0  0  0  0
  9 11  1  0  0  0  0
 10 13  1  0  0  0  0
 10 12  1  0  0  0  0
 11  5  2  0  0  0  0
 14 15  2  0  0  0  0
 14  7  1  0  0  0  0
 15  1  1  0  0  0  0
 16  7  2  0  0  0  0
 16  9  1  0  0  0  0
 17 12  1  0  0  0  0
 17 31  1  6  0  0  0
 18 13  2  0  0  0  0
 19  8  1  0  0  0  0
 20 16  1  0  0  0  0
 21 24  2  0  0  0  0
 21 26  1  0  0  0  0
 22 21  1  0  0  0  0
 23 25  1  0  0  0  0
 23 15  1  0  0  0  0
 24 28  1  0  0  0  0
 26 23  2  0  0  0  0
 27 26  1  0  0  0  0
 28 30  1  0  0  0  0
 28 25  2  0  0  0  0
 30 29  1  0  0  0  0
 31 32  1  0  0  0  0
M  END
>  <MODEL>
6

>  <REMARK>
 VINA RESULT:     -10.4      2.247      5.998
  Name = 
  3 active torsions:
  status: ('A' for Active; 'I' for Inactive)
    1  A    between atoms: O_13  and  C_29
    2  A    between atoms: O_15  and  C_26
    3  A    between atoms: C_16  and  C_27
                            x       y       z     vdW  Elec       q    Type
                         _______ _______ _______ _____ _____    ______ ____

>  <TORSDO>
F 3

$$$$
=
 OpenBabel10272402123D

 32 37  0  0  1  0  0  0  0  0999 V2000
  186.5120  178.1220  143.8860 C   0  0  0  0  0  0  0  0  0  0  0  0
  186.7900  178.2240  141.4420 N   0  0  0  0  0  0  0  0  0  0  0  0
  185.6800  178.2350  145.0100 C   0  0  0  0  0  3  0  0  0  0  0  0
  185.9440  178.2390  142.6020 C   0  0  0  0  0  0  0  0  0  0  0  0
  186.2240  178.4110  140.1290 C   0  0  0  0  0  0  0  0  0  0  0  0
  190.9760  176.8100  139.5600 C   0  0  0  0  0  3  0  0  0  0  0  0
  188.1870  177.9280  141.6130 C   0  0  0  0  0  0  0  0  0  0  0  0
  189.0840  177.3230  138.0790 C   0  0  0  0  0  3  0  0  0  0  0  0
  188.4830  178.1680  139.1650 C   0  0  1  0  0  3  0  0  0  0  0  0
  184.5490  178.3590  142.4550 C   0  0  0  0  0  0  0  0  0  0  0  0
  186.9970  178.3400  139.0440 C   0  0  0  0  0  3  0  0  0  0  0  0
  183.9180  178.2340  141.0990 C   0  0  0  0  0  2  0  0  0  0  0  0
  183.7350  178.4380  143.5860 C   0  0  0  0  0  3  0  0  0  0  0  0
  188.7090  177.7520  142.9370 N   0  0  0  0  0  0  0  0  0  0  0  0
  187.9780  177.8550  144.0110 C   0  0  0  0  0  0  0  0  0  0  0  0
  188.9750  177.7780  140.5410 C   0  0  0  0  0  0  0  0  0  0  0  0
  184.7850  178.8150  139.9810 C   0  0  1  0  0  3  0  0  0  0  0  0
  184.3020  178.4010  144.8620 C   0  0  0  0  0  3  0  0  0  0  0  0
  190.2740  176.7350  138.2580 C   0  0  0  0  0  3  0  0  0  0  0  0
  190.3620  177.2900  140.6480 C   0  0  0  0  0  3  0  0  0  0  0  0
  188.7050  177.9810  147.7390 C   0  0  0  0  0  0  0  0  0  0  0  0
  188.1470  178.4550  148.8790 F   0  0  0  0  0  0  0  0  0  0  0  0
  188.6340  177.6510  145.3270 C   0  0  0  0  0  0  0  0  0  0  0  0
  189.9320  177.3180  147.7960 C   0  0  0  0  0  3  0  0  0  0  0  0
  189.8720  176.9950  145.4020 C   0  0  0  0  0  3  0  0  0  0  0  0
  188.0570  178.1540  146.5110 C   0  0  0  0  0  0  0  0  0  0  0  0
  186.8570  178.7890  146.4820 F   0  0  0  0  0  0  0  0  0  0  0  0
  190.5230  176.8200  146.6270 C   0  0  0  0  0  0  0  0  0  0  0  0
  192.3930  175.7710  147.8590 C   0  0  0  0  0  1  0  0  0  0  0  0
  191.7510  176.1540  146.6510 O   0  0  0  0  0  0  0  0  0  0  0  0
  184.6870  180.2080  139.9860 O   0  0  0  0  0  0  0  0  0  0  0  0
  184.1010  180.5040  138.8450 O   0  0  0  0  0  1  0  0  0  0  0  0
  1 15  1  0  0  0  0
  1  3  2  0  0  0  0
  2  7  1  0  0  0  0
  2  4  1  0  0  0  0
  4  1  1  0  0  0  0
  5  2  1  0  0  0  0
  6 20  2  0  0  0  0
  7 14  1  0  0  0  0
  8 19  2  0  0  0  0
  9  8  1  6  0  0  0
  9 16  1  0  0  0  0
 10  4  2  0  0  0  0
 10 13  1  0  0  0  0
 11  9  1  0  0  0  0
 11  5  2  0  0  0  0
 12 10  1  0  0  0  0
 13 18  2  0  0  0  0
 14 15  2  0  0  0  0
 15 23  1  0  0  0  0
 16 20  1  0  0  0  0
 16  7  2  0  0  0  0
 17 31  1  1  0  0  0
 17  5  1  0  0  0  0
 17 12  1  0  0  0  0
 18  3  1  0  0  0  0
 19  6  1  0  0  0  0
 21 24  1  0  0  0  0
 21 22  1  0  0  0  0
 23 25  2  0  0  0  0
 23 26  1  0  0  0  0
 25 28  1  0  0  0  0
 26 21  2  0  0  0  0
 27 26  1  0  0  0  0
 28 30  1  0  0  0  0
 28 24  2  0  0  0  0
 30 29  1  0  0  0  0
 32 31  1  0  0  0  0
M  END
>  <MODEL>
7

>  <REMARK>
 VINA RESULT:     -10.0      3.226      7.230
  Name = 
  3 active torsions:
  status: ('A' for Active; 'I' for Inactive)
    1  A    between atoms: O_13  and  C_29
    2  A    between atoms: O_15  and  C_26
    3  A    between atoms: C_16  and  C_27
                            x       y       z     vdW  Elec       q    Type
                         _______ _______ _______ _____ _____    ______ ____

>  <TORSDO>
F 3

$$$$
=
 OpenBabel10272402123D

 32 37  0  0  1  0  0  0  0  0999 V2000
  187.0630  178.2280  141.8710 C   0  0  0  0  0  0  0  0  0  0  0  0
  186.5250  178.2950  144.2720 N   0  0  0  0  0  0  0  0  0  0  0  0
  186.6700  178.4470  140.5420 C   0  0  0  0  0  3  0  0  0  0  0  0
  186.1860  178.5980  142.9110 C   0  0  0  0  0  0  0  0  0  0  0  0
  185.6030  178.6090  145.3360 C   0  0  0  0  0  0  0  0  0  0  0  0
  190.0470  177.4350  147.4230 C   0  0  0  0  0  3  0  0  0  0  0  0
  187.8320  177.7640  144.5540 C   0  0  0  0  0  0  0  0  0  0  0  0
  187.8580  178.2170  148.2230 C   0  0  0  0  0  3  0  0  0  0  0  0
  187.2310  177.7060  146.9570 C   0  0  0  0  0  0  0  0  0  0  0  0
  184.9860  179.2720  142.6170 C   0  0  0  0  0  0  0  0  0  0  0  0
  185.9390  178.3830  146.6070 C   0  0  0  0  0  3  0  0  0  0  0  0
  184.1730  179.8850  143.7190 C   0  0  0  0  0  2  0  0  0  0  0  0
  184.6280  179.5070  141.2880 C   0  0  0  0  0  3  0  0  0  0  0  0
  188.7160  177.4630  143.4660 N   0  0  0  0  0  0  0  0  0  0  0  0
  188.3930  177.6410  142.2150 C   0  0  0  0  0  0  0  0  0  0  0  0
  188.2250  177.5930  145.8230 C   0  0  0  0  0  0  0  0  0  0  0  0
  184.2120  179.0710  145.0130 C   0  0  1  0  0  3  0  0  0  0  0  0
  185.4570  179.0730  140.2510 C   0  0  0  0  0  3  0  0  0  0  0  0
  189.1660  178.0390  148.4500 C   0  0  0  0  0  3  0  0  0  0  0  0
  189.6120  177.2340  146.1740 C   0  0  0  0  0  2  0  0  0  0  0  0
  191.7050  177.1470  140.4180 C   0  0  0  0  0  0  0  0  0  0  0  0
  193.0320  177.2880  140.6530 F   0  0  0  0  0  0  0  0  0  0  0  0
  189.3950  177.2930  141.1780 C   0  0  0  0  0  0  0  0  0  0  0  0
  191.2690  176.6980  139.1700 C   0  0  0  0  0  3  0  0  0  0  0  0
  188.9750  176.8480  139.9140 C   0  0  0  0  0  3  0  0  0  0  0  0
  190.7750  177.4490  141.4200 C   0  0  0  0  0  0  0  0  0  0  0  0
  191.2230  177.8710  142.6310 F   0  0  0  0  0  0  0  0  0  0  0  0
  189.9000  176.5460  138.9110 C   0  0  0  0  0  0  0  0  0  0  0  0
  188.0630  176.1630  137.3010 C   0  0  0  0  0  1  0  0  0  0  0  0
  189.4330  176.1000  137.6720 O   0  0  0  0  0  0  0  0  0  0  0  0
  183.3660  177.9650  144.8980 O   0  0  0  0  0  0  0  0  0  0  0  0
  182.2250  178.4620  144.4700 O   0  0  0  0  0  1  0  0  0  0  0  0
  1 15  1  0  0  0  0
  1  4  2  0  0  0  0
  2  7  1  0  0  0  0
  2  5  1  0  0  0  0
  3  1  1  0  0  0  0
  4  2  1  0  0  0  0
  5 11  2  0  0  0  0
  6 19  2  0  0  0  0
  7 16  2  0  0  0  0
  8 19  1  0  0  0  0
  9  8  2  0  0  0  0
 10  4  1  0  0  0  0
 10 12  1  0  0  0  0
 11  9  1  0  0  0  0
 12 17  1  0  0  0  0
 13 10  2  0  0  0  0
 14  7  1  0  0  0  0
 15 14  2  0  0  0  0
 16 20  1  0  0  0  0
 16  9  1  0  0  0  0
 17 31  1  6  0  0  0
 17  5  1  0  0  0  0
 18  3  2  0  0  0  0
 18 13  1  0  0  0  0
 20  6  1  0  0  0  0
 21 22  1  0  0  0  0
 21 26  1  0  0  0  0
 23 26  2  0  0  0  0
 23 15  1  0  0  0  0
 24 21  2  0  0  0  0
 25 23  1  0  0  0  0
 26 27  1  0  0  0  0
 28 24  1  0  0  0  0
 28 25  2  0  0  0  0
 29 30  1  0  0  0  0
 30 28  1  0  0  0  0
 32 31  1  0  0  0  0
M  END
>  <MODEL>
8

>  <REMARK>
 VINA RESULT:     -10.0      2.525      4.795
  Name = 
  3 active torsions:
  status: ('A' for Active; 'I' for Inactive)
    1  A    between atoms: O_13  and  C_29
    2  A    between atoms: O_15  and  C_26
    3  A    between atoms: C_16  and  C_27
                            x       y       z     vdW  Elec       q    Type
                         _______ _______ _______ _____ _____    ______ ____

>  <TORSDO>
F 3

$$$$
=
 OpenBabel10272402123D

 32 37  0  0  1  0  0  0  0  0999 V2000
  188.1870  177.8860  143.2040 C   0  0  0  0  0  0  0  0  0  0  0  0
  185.9390  178.4130  144.0580 N   0  0  0  0  0  0  0  0  0  0  0  0
  189.5360  177.5990  143.4600 C   0  0  0  0  0  3  0  0  0  0  0  0
  187.3010  178.0240  144.2910 C   0  0  0  0  0  0  0  0  0  0  0  0
  185.0440  178.6220  145.1690 C   0  0  0  0  0  0  0  0  0  0  0  0
  182.2810  178.5090  140.9470 C   0  0  0  0  0  3  0  0  0  0  0  0
  185.4700  178.4960  142.7010 C   0  0  0  0  0  0  0  0  0  0  0  0
  181.8370  178.6820  143.3570 C   0  0  0  0  0  3  0  0  0  0  0  0
  183.2460  179.1600  143.5670 C   0  0  0  0  0  0  0  0  0  0  0  0
  187.7460  177.7700  145.6020 C   0  0  0  0  0  0  0  0  0  0  0  0
  183.7630  178.9260  144.9560 C   0  0  0  0  0  3  0  0  0  0  0  0
  186.7610  177.6710  146.7300 C   0  0  0  0  0  2  0  0  0  0  0  0
  189.0860  177.4550  145.8320 C   0  0  0  0  0  3  0  0  0  0  0  0
  186.3950  178.2840  141.6250 N   0  0  0  0  0  0  0  0  0  0  0  0
  187.6580  178.0230  141.8130 C   0  0  0  0  0  0  0  0  0  0  0  0
  184.1740  178.7290  142.4540 C   0  0  0  0  0  0  0  0  0  0  0  0
  185.5760  178.6250  146.5730 C   0  0  1  0  0  3  0  0  0  0  0  0
  189.9860  177.3940  144.7660 C   0  0  0  0  0  3  0  0  0  0  0  0
  181.3840  178.4300  142.1220 C   0  0  0  0  0  3  0  0  0  0  0  0
  183.6050  178.6370  141.0970 C   0  0  0  0  0  2  0  0  0  0  0  0
  190.4140  176.7630  139.5200 C   0  0  0  0  0  0  0  0  0  0  0  0
  191.4450  175.8840  139.5400 F   0  0  0  0  0  0  0  0  0  0  0  0
  188.5160  177.8230  140.6190 C   0  0  0  0  0  0  0  0  0  0  0  0
  190.1720  177.5160  138.3700 C   0  0  0  0  0  3  0  0  0  0  0  0
  188.2940  178.5780  139.4570 C   0  0  0  0  0  3  0  0  0  0  0  0
  189.5950  176.9150  140.6440 C   0  0  0  0  0  0  0  0  0  0  0  0
  189.8400  176.1610  141.7460 F   0  0  0  0  0  0  0  0  0  0  0  0
  189.1100  178.4300  138.3320 C   0  0  0  0  0  0  0  0  0  0  0  0
  187.5990  179.1530  136.5120 C   0  0  0  0  0  1  0  0  0  0  0  0
  188.8430  179.2000  137.1970 O   0  0  0  0  0  0  0  0  0  0  0  0
  185.9660  179.9200  146.9230 O   0  0  0  0  0  0  0  0  0  0  0  0
  185.9830  179.9180  148.2390 O   0  0  0  0  0  1  0  0  0  0  0  0
  1  3  2  0  0  0  0
  1  4  1  0  0  0  0
  2  4  1  0  0  0  0
  2  5  1  0  0  0  0
  3 18  1  0  0  0  0
  4 10  2  0  0  0  0
  5 17  1  0  0  0  0
  6 20  1  0  0  0  0
  6 19  2  0  0  0  0
  7  2  1  0  0  0  0
  8  9  2  0  0  0  0
  9 11  1  0  0  0  0
 10 13  1  0  0  0  0
 10 12  1  0  0  0  0
 11  5  2  0  0  0  0
 14 15  2  0  0  0  0
 14  7  1  0  0  0  0
 15  1  1  0  0  0  0
 16  7  2  0  0  0  0
 16  9  1  0  0  0  0
 17 12  1  0  0  0  0
 17 31  1  6  0  0  0
 18 13  2  0  0  0  0
 19  8  1  0  0  0  0
 20 16  1  0  0  0  0
 21 22  1  0  0  0  0
 21 26  1  0  0  0  0
 23 26  2  0  0  0  0
 23 15  1  0  0  0  0
 24 21  2  0  0  0  0
 25 23  1  0  0  0  0
 26 27  1  0  0  0  0
 28 24  1  0  0  0  0
 28 25  2  0  0  0  0
 29 30  1  0  0  0  0
 30 28  1  0  0  0  0
 31 32  1  0  0  0  0
M  END
>  <MODEL>
9

>  <REMARK>
 VINA RESULT:      -9.9      1.890      2.633
  Name = 
  3 active torsions:
  status: ('A' for Active; 'I' for Inactive)
    1  A    between atoms: O_13  and  C_29
    2  A    between atoms: O_15  and  C_26
    3  A    between atoms: C_16  and  C_27
                            x       y       z     vdW  Elec       q    Type
                         _______ _______ _______ _____ _____    ______ ____

>  <TORSDO>
F 3

$$$$
