=
 OpenBabel10272400263D

 31 36  0  0  1  0  0  0  0  0999 V2000
  190.0780  177.0350  145.9490 C   0  0  0  0  0  0  0  0  0  0  0  0
  187.3730  177.6700  143.3420 C   0  0  2  0  0  3  0  0  0  0  0  0
  188.7240  177.5420  144.0000 C   0  0  0  0  0  0  0  0  0  0  0  0
  191.2370  177.1570  145.1790 C   0  0  0  0  0  3  0  0  0  0  0  0
  188.6870  178.2120  141.2390 C   0  0  0  0  0  0  0  0  0  0  0  0
  190.1770  176.7050  147.3950 C   0  0  0  0  0  1  0  0  0  0  0  0
  189.8160  177.9550  141.8270 N   0  0  0  0  0  0  0  0  0  0  0  0
  187.4600  178.1840  141.9750 N   0  0  0  0  0  2  0  0  0  0  0  0
  188.8240  177.2160  145.3600 C   0  0  0  0  0  3  0  0  0  0  0  0
  189.8930  177.6440  143.2230 C   0  0  0  0  0  0  0  0  0  0  0  0
  191.1440  177.4580  143.8180 C   0  0  0  0  0  3  0  0  0  0  0  0
  186.3460  178.4520  144.1740 C   0  0  2  0  0  3  0  0  0  0  0  0
  185.3510  178.2190  146.4090 C   0  0  0  0  0  3  0  0  0  0  0  0
  186.3680  177.9750  145.5930 C   0  0  0  0  0  3  0  0  0  0  0  0
  184.1840  178.8240  145.9380 O   0  0  0  0  0  0  0  0  0  0  0  0
  183.7600  178.7530  144.5730 C   0  0  2  0  0  3  0  0  0  0  0  0
  184.9180  178.5840  143.5860 C   0  0  1  0  0  0  0  0  0  0  0  0
  184.2930  179.9490  143.8030 C   0  0  0  0  0  2  0  0  0  0  0  0
  184.3450  178.9960  140.8920 S   0  0  0  0  0  1  0  0  0  0  0  0
  184.4870  177.8610  142.3100 C   0  0  0  0  0  2  0  0  0  0  0  0
  188.6700  178.5440  139.7870 C   0  0  0  0  0  2  0  0  0  0  0  0
  191.9920  175.0380  137.6150 C   0  0  0  0  0  0  0  0  0  0  0  0
  191.3710  176.9780  138.9810 C   0  0  0  0  0  3  0  0  0  0  0  0
  188.3920  175.6470  137.6980 O   0  0  0  0  0  0  0  0  0  0  0  0
  187.8510  176.6350  138.3620 N   0  0  0  0  0  0  0  0  0  0  0  0
  193.0470  174.1490  137.0640 C   0  0  0  0  0  1  0  0  0  0  0  0
  188.8550  177.3060  138.9750 C   0  0  0  0  0  0  0  0  0  0  0  0
  192.3540  176.1240  138.4470 C   0  0  0  0  0  3  0  0  0  0  0  0
  189.6940  175.6580  137.8470 C   0  0  0  0  0  0  0  0  0  0  0  0
  190.0460  176.7010  138.6530 C   0  0  0  0  0  0  0  0  0  0  0  0
  190.6400  174.7940  137.3040 C   0  0  0  0  0  3  0  0  0  0  0  0
  1  6  1  0  0  0  0
  2  8  1  6  0  0  0
  2  3  1  0  0  0  0
  2 12  1  0  0  0  0
  3  9  2  0  0  0  0
  4  1  2  0  0  0  0
  5  7  2  0  0  0  0
  5  8  1  0  0  0  0
  7 10  1  0  0  0  0
  9  1  1  0  0  0  0
 10 11  2  0  0  0  0
 10  3  1  0  0  0  0
 11  4  1  0  0  0  0
 12 14  1  1  0  0  0
 14 13  2  0  0  0  0
 15 13  1  0  0  0  0
 16 18  1  6  0  0  0
 16 15  1  0  0  0  0
 17 20  1  6  0  0  0
 17 18  1  0  0  0  0
 17 12  1  0  0  0  0
 17 16  1  0  0  0  0
 19 20  1  0  0  0  0
 21  5  1  0  0  0  0
 22 28  1  0  0  0  0
 24 29  1  0  0  0  0
 24 25  1  0  0  0  0
 25 27  2  0  0  0  0
 26 22  1  0  0  0  0
 27 21  1  0  0  0  0
 28 23  2  0  0  0  0
 29 30  2  0  0  0  0
 30 27  1  0  0  0  0
 30 23  1  0  0  0  0
 31 22  2  0  0  0  0
 31 29  1  0  0  0  0
M  END
>  <MODEL>
1

>  <REMARK>
 VINA RESULT:      -9.8      0.000      0.000
  Name = 
  4 active torsions:
  status: ('A' for Active; 'I' for Inactive)
    1  A    between atoms: C_4  and  C_5
    2  A    between atoms: C_9  and  C_23
    3  A    between atoms: C_15  and  C_23
    4  A    between atoms: C_29  and  C_30
                            x       y       z     vdW  Elec       q    Type
                         _______ _______ _______ _____ _____    ______ ____

>  <TORSDO>
F 4

$$$$
=
 OpenBabel10272400263D

 31 36  0  0  1  0  0  0  0  0999 V2000
  190.1840  177.1510  146.0600 C   0  0  0  0  0  0  0  0  0  0  0  0
  187.4210  177.6200  143.4790 C   0  0  2  0  0  3  0  0  0  0  0  0
  188.7850  177.5440  144.1160 C   0  0  0  0  0  0  0  0  0  0  0  0
  191.3270  177.2530  145.2620 C   0  0  0  0  0  3  0  0  0  0  0  0
  188.6860  178.0800  141.3270 C   0  0  0  0  0  0  0  0  0  0  0  0
  190.3160  176.8920  147.5180 C   0  0  0  0  0  1  0  0  0  0  0  0
  189.8300  177.8690  141.9040 N   0  0  0  0  0  0  0  0  0  0  0  0
  187.4730  178.0690  142.0880 N   0  0  0  0  0  2  0  0  0  0  0  0
  188.9170  177.2840  145.4870 C   0  0  0  0  0  3  0  0  0  0  0  0
  189.9380  177.6270  143.3120 C   0  0  0  0  0  0  0  0  0  0  0  0
  191.2030  177.4880  143.8900 C   0  0  0  0  0  3  0  0  0  0  0  0
  186.3970  178.4250  144.2930 C   0  0  2  0  0  3  0  0  0  0  0  0
  185.3580  178.2160  146.5100 C   0  0  0  0  0  3  0  0  0  0  0  0
  186.3830  177.9490  145.7120 C   0  0  0  0  0  3  0  0  0  0  0  0
  184.2140  178.8470  146.0190 O   0  0  0  0  0  0  0  0  0  0  0  0
  183.8120  178.7840  144.6470 C   0  0  2  0  0  3  0  0  0  0  0  0
  184.9820  178.5890  143.6800 C   0  0  1  0  0  0  0  0  0  0  0  0
  184.3850  179.9670  143.8870 C   0  0  0  0  0  2  0  0  0  0  0  0
  184.4390  179.0180  140.9830 S   0  0  0  0  0  1  0  0  0  0  0  0
  184.5580  177.8750  142.3970 C   0  0  0  0  0  2  0  0  0  0  0  0
  188.6360  178.3430  139.8620 C   0  0  0  0  0  2  0  0  0  0  0  0
  188.0880  174.6760  136.0800 C   0  0  0  0  0  0  0  0  0  0  0  0
  187.4300  176.6290  137.4110 C   0  0  0  0  0  3  0  0  0  0  0  0
  190.5710  175.6090  138.5900 O   0  0  0  0  0  0  0  0  0  0  0  0
  190.4130  176.6160  139.4090 N   0  0  0  0  0  0  0  0  0  0  0  0
  187.7800  173.7060  134.9970 C   0  0  0  0  0  1  0  0  0  0  0  0
  189.2240  177.1930  139.1150 C   0  0  0  0  0  0  0  0  0  0  0  0
  187.1600  175.6980  136.3900 C   0  0  0  0  0  3  0  0  0  0  0  0
  189.5360  175.5060  137.7920 C   0  0  0  0  0  0  0  0  0  0  0  0
  188.6410  176.4930  138.0860 C   0  0  0  0  0  0  0  0  0  0  0  0
  189.3000  174.5710  136.7890 C   0  0  0  0  0  3  0  0  0  0  0  0
  1  6  1  0  0  0  0
  2  8  1  6  0  0  0
  2  3  1  0  0  0  0
  2 12  1  0  0  0  0
  3  9  2  0  0  0  0
  4  1  2  0  0  0  0
  5  7  2  0  0  0  0
  5  8  1  0  0  0  0
  7 10  1  0  0  0  0
  9  1  1  0  0  0  0
 10 11  2  0  0  0  0
 10  3  1  0  0  0  0
 11  4  1  0  0  0  0
 12 14  1  1  0  0  0
 14 13  2  0  0  0  0
 15 13  1  0  0  0  0
 16 18  1  6  0  0  0
 16 15  1  0  0  0  0
 17 20  1  6  0  0  0
 17 18  1  0  0  0  0
 17 12  1  0  0  0  0
 17 16  1  0  0  0  0
 19 20  1  0  0  0  0
 21  5  1  0  0  0  0
 22 28  2  0  0  0  0
 22 31  1  0  0  0  0
 23 30  2  0  0  0  0
 24 25  1  0  0  0  0
 26 22  1  0  0  0  0
 27 25  2  0  0  0  0
 27 21  1  0  0  0  0
 28 23  1  0  0  0  0
 29 30  1  0  0  0  0
 29 24  1  0  0  0  0
 30 27  1  0  0  0  0
 31 29  2  0  0  0  0
M  END
>  <MODEL>
2

>  <REMARK>
 VINA RESULT:      -9.6      1.299      1.949
  Name = 
  4 active torsions:
  status: ('A' for Active; 'I' for Inactive)
    1  A    between atoms: C_4  and  C_5
    2  A    between atoms: C_9  and  C_23
    3  A    between atoms: C_15  and  C_23
    4  A    between atoms: C_29  and  C_30
                            x       y       z     vdW  Elec       q    Type
                         _______ _______ _______ _____ _____    ______ ____

>  <TORSDO>
F 4

$$$$
=
 OpenBabel10272400263D

 31 36  0  0  1  0  0  0  0  0999 V2000
  182.5500  178.8450  142.9920 C   0  0  0  0  0  0  0  0  0  0  0  0
  184.8320  178.1560  140.0200 C   0  0  2  0  0  3  0  0  0  0  0  0
  184.3470  178.5840  141.3820 C   0  0  0  0  0  0  0  0  0  0  0  0
  183.4740  179.2370  143.9640 C   0  0  0  0  0  3  0  0  0  0  0  0
  187.1350  178.8000  140.8740 C   0  0  0  0  0  0  0  0  0  0  0  0
  181.1030  178.7780  143.3250 C   0  0  0  0  0  1  0  0  0  0  0  0
  186.6760  179.0240  142.0670 N   0  0  0  0  0  0  0  0  0  0  0  0
  186.2450  178.4670  139.8020 N   0  0  0  0  0  2  0  0  0  0  0  0
  182.9860  178.5080  141.7080 C   0  0  0  0  0  3  0  0  0  0  0  0
  185.2770  178.9610  142.3700 C   0  0  0  0  0  0  0  0  0  0  0  0
  184.8350  179.2920  143.6530 C   0  0  0  0  0  3  0  0  0  0  0  0
  183.9600  178.6570  138.8610 C   0  0  2  0  0  3  0  0  0  0  0  0
  182.2960  180.4410  138.5580 C   0  0  0  0  0  3  0  0  0  0  0  0
  183.3530  179.9800  139.2130 C   0  0  0  0  0  3  0  0  0  0  0  0
  181.6490  179.6560  137.6010 O   0  0  0  0  0  0  0  0  0  0  0  0
  181.6840  178.2260  137.6070 C   0  0  2  0  0  3  0  0  0  0  0  0
  182.9460  177.6530  138.2560 C   0  0  1  0  0  0  0  0  0  0  0  0
  182.8340  177.7350  136.7450 C   0  0  0  0  0  2  0  0  0  0  0  0
  183.4960  174.9490  137.8780 S   0  0  0  0  0  1  0  0  0  0  0  0
  182.7070  176.2670  138.8570 C   0  0  0  0  0  2  0  0  0  0  0  0
  188.5980  178.8960  140.6150 C   0  0  0  0  0  2  0  0  0  0  0  0
  191.0700  176.9050  144.8540 C   0  0  0  0  0  0  0  0  0  0  0  0
  189.7990  178.5800  143.5910 C   0  0  0  0  0  3  0  0  0  0  0  0
  190.2920  175.8510  141.4460 O   0  0  0  0  0  0  0  0  0  0  0  0
  189.6280  176.5970  140.6030 N   0  0  0  0  0  0  0  0  0  0  0  0
  191.7430  176.4960  146.1150 C   0  0  0  0  0  1  0  0  0  0  0  0
  189.3070  177.7450  141.2460 C   0  0  0  0  0  0  0  0  0  0  0  0
  190.4430  178.1710  144.7740 C   0  0  0  0  0  3  0  0  0  0  0  0
  190.4220  176.4680  142.5950 C   0  0  0  0  0  0  0  0  0  0  0  0
  189.8120  177.6870  142.5230 C   0  0  0  0  0  0  0  0  0  0  0  0
  191.0660  176.0320  143.7490 C   0  0  0  0  0  3  0  0  0  0  0  0
  1  6  1  0  0  0  0
  1  4  1  0  0  0  0
  2  8  1  6  0  0  0
  2  3  1  0  0  0  0
  3  9  1  0  0  0  0
  3 10  2  0  0  0  0
  5  7  2  0  0  0  0
  7 10  1  0  0  0  0
  8  5  1  0  0  0  0
  9  1  2  0  0  0  0
 10 11  1  0  0  0  0
 11  4  2  0  0  0  0
 12 14  1  1  0  0  0
 12  2  1  0  0  0  0
 13 14  2  0  0  0  0
 15 16  1  0  0  0  0
 15 13  1  0  0  0  0
 16 18  1  6  0  0  0
 16 17  1  0  0  0  0
 17 20  1  1  0  0  0
 17 12  1  0  0  0  0
 18 17  1  0  0  0  0
 19 20  1  0  0  0  0
 21  5  1  0  0  0  0
 21 27  1  0  0  0  0
 22 26  1  0  0  0  0
 23 28  2  0  0  0  0
 24 29  1  0  0  0  0
 25 27  2  0  0  0  0
 25 24  1  0  0  0  0
 27 30  1  0  0  0  0
 28 22  1  0  0  0  0
 29 31  1  0  0  0  0
 30 29  2  0  0  0  0
 30 23  1  0  0  0  0
 31 22  2  0  0  0  0
M  END
>  <MODEL>
3

>  <REMARK>
 VINA RESULT:      -9.2      3.239      6.174
  Name = 
  4 active torsions:
  status: ('A' for Active; 'I' for Inactive)
    1  A    between atoms: C_4  and  C_5
    2  A    between atoms: C_9  and  C_23
    3  A    between atoms: C_15  and  C_23
    4  A    between atoms: C_29  and  C_30
                            x       y       z     vdW  Elec       q    Type
                         _______ _______ _______ _____ _____    ______ ____

>  <TORSDO>
F 4

$$$$
=
 OpenBabel10272400263D

 31 36  0  0  1  0  0  0  0  0999 V2000
  184.2240  178.7210  143.2530 C   0  0  0  0  0  0  0  0  0  0  0  0
  187.9210  178.4950  142.3610 C   0  0  2  0  0  3  0  0  0  0  0  0
  186.4200  178.5450  142.2340 C   0  0  0  0  0  0  0  0  0  0  0  0
  183.6390  178.7900  141.9860 C   0  0  0  0  0  3  0  0  0  0  0  0
  187.9190  178.4120  139.8240 C   0  0  0  0  0  0  0  0  0  0  0  0
  183.3720  178.7720  144.4700 C   0  0  0  0  0  1  0  0  0  0  0  0
  186.6340  178.5940  139.7770 N   0  0  0  0  0  0  0  0  0  0  0  0
  188.5870  178.2550  141.0800 N   0  0  0  0  0  2  0  0  0  0  0  0
  185.6110  178.6100  143.3780 C   0  0  0  0  0  3  0  0  0  0  0  0
  185.8280  178.6350  140.9600 C   0  0  0  0  0  0  0  0  0  0  0  0
  184.4400  178.7500  140.8420 C   0  0  0  0  0  3  0  0  0  0  0  0
  188.4240  177.5320  143.4460 C   0  0  2  0  0  3  0  0  0  0  0  0
  188.0940  177.2890  145.8700 C   0  0  0  0  0  3  0  0  0  0  0  0
  187.6330  177.7210  144.7040 C   0  0  0  0  0  3  0  0  0  0  0  0
  189.3770  176.7500  145.9770 O   0  0  0  0  0  0  0  0  0  0  0  0
  190.4410  177.0750  145.0770 C   0  0  2  0  0  3  0  0  0  0  0  0
  189.9550  177.4720  143.6810 C   0  0  1  0  0  0  0  0  0  0  0  0
  190.4780  176.0720  143.9380 C   0  0  0  0  0  2  0  0  0  0  0  0
  191.9000  177.5700  141.6900 S   0  0  0  0  0  1  0  0  0  0  0  0
  190.9290  178.4180  142.9780 C   0  0  0  0  0  2  0  0  0  0  0  0
  188.7050  178.3620  138.5600 C   0  0  0  0  0  2  0  0  0  0  0  0
  191.7860  174.3040  137.1170 C   0  0  0  0  0  0  0  0  0  0  0  0
  191.3070  176.5450  137.9910 C   0  0  0  0  0  3  0  0  0  0  0  0
  188.2150  175.0490  137.2870 O   0  0  0  0  0  0  0  0  0  0  0  0
  187.7450  176.1910  137.7170 N   0  0  0  0  0  0  0  0  0  0  0  0
  192.7800  173.2670  136.7360 C   0  0  0  0  0  1  0  0  0  0  0  0
  188.8040  176.9550  138.0740 C   0  0  0  0  0  0  0  0  0  0  0  0
  192.2300  175.5480  137.6240 C   0  0  0  0  0  3  0  0  0  0  0  0
  189.5250  175.0480  137.3400 C   0  0  0  0  0  0  0  0  0  0  0  0
  189.9560  176.2450  137.8340 C   0  0  0  0  0  0  0  0  0  0  0  0
  190.4100  174.0410  136.9690 C   0  0  0  0  0  3  0  0  0  0  0  0
  1  9  1  0  0  0  0
  1  6  1  0  0  0  0
  2  8  1  6  0  0  0
  2 12  1  0  0  0  0
  3  2  1  0  0  0  0
  3  9  2  0  0  0  0
  4  1  2  0  0  0  0
  5  8  1  0  0  0  0
  7  5  2  0  0  0  0
  7 10  1  0  0  0  0
 10  3  1  0  0  0  0
 11 10  2  0  0  0  0
 11  4  1  0  0  0  0
 12 17  1  0  0  0  0
 12 14  1  1  0  0  0
 13 15  1  0  0  0  0
 14 13  2  0  0  0  0
 16 18  1  6  0  0  0
 16 15  1  0  0  0  0
 17 20  1  6  0  0  0
 17 18  1  0  0  0  0
 17 16  1  0  0  0  0
 19 20  1  0  0  0  0
 21  5  1  0  0  0  0
 22 28  1  0  0  0  0
 24 29  1  0  0  0  0
 24 25  1  0  0  0  0
 25 27  2  0  0  0  0
 26 22  1  0  0  0  0
 27 21  1  0  0  0  0
 28 23  2  0  0  0  0
 29 30  2  0  0  0  0
 30 23  1  0  0  0  0
 30 27  1  0  0  0  0
 31 22  2  0  0  0  0
 31 29  1  0  0  0  0
M  END
>  <MODEL>
4

>  <REMARK>
 VINA RESULT:      -8.9      2.066      4.351
  Name = 
  4 active torsions:
  status: ('A' for Active; 'I' for Inactive)
    1  A    between atoms: C_4  and  C_5
    2  A    between atoms: C_9  and  C_23
    3  A    between atoms: C_15  and  C_23
    4  A    between atoms: C_29  and  C_30
                            x       y       z     vdW  Elec       q    Type
                         _______ _______ _______ _____ _____    ______ ____

>  <TORSDO>
F 4

$$$$
=
 OpenBabel10272400263D

 31 36  0  0  1  0  0  0  0  0999 V2000
  190.7190  177.0090  138.8400 C   0  0  0  0  0  0  0  0  0  0  0  0
  188.4700  177.1900  141.9090 C   0  0  2  0  0  3  0  0  0  0  0  0
  189.0140  177.4060  140.5200 C   0  0  0  0  0  0  0  0  0  0  0  0
  189.9460  177.6840  137.8910 C   0  0  0  0  0  3  0  0  0  0  0  0
  186.4960  178.5790  141.1230 C   0  0  0  0  0  0  0  0  0  0  0  0
  192.0390  176.4420  138.4560 C   0  0  0  0  0  1  0  0  0  0  0  0
  186.9520  178.6150  139.9070 N   0  0  0  0  0  0  0  0  0  0  0  0
  187.2620  177.9730  142.1700 N   0  0  0  0  0  2  0  0  0  0  0  0
  190.2500  176.8610  140.1470 C   0  0  0  0  0  3  0  0  0  0  0  0
  188.2290  178.0680  139.5570 C   0  0  0  0  0  0  0  0  0  0  0  0
  188.7020  178.2100  138.2490 C   0  0  0  0  0  3  0  0  0  0  0  0
  189.5120  177.3750  143.0220 C   0  0  2  0  0  3  0  0  0  0  0  0
  191.5640  176.2150  143.7190 C   0  0  0  0  0  3  0  0  0  0  0  0
  190.7080  176.5150  142.7520 C   0  0  0  0  0  3  0  0  0  0  0  0
  191.3150  176.5950  145.0390 O   0  0  0  0  0  0  0  0  0  0  0  0
  190.0010  176.8290  145.5520 C   0  0  2  0  0  3  0  0  0  0  0  0
  189.0040  177.2870  144.4840 C   0  0  1  0  0  0  0  0  0  0  0  0
  189.6460  178.2990  145.4140 C   0  0  0  0  0  2  0  0  0  0  0  0
  186.7280  178.1740  145.8220 S   0  0  0  0  0  1  0  0  0  0  0  0
  187.5670  176.8970  144.8300 C   0  0  0  0  0  2  0  0  0  0  0  0
  185.1690  179.1780  141.4310 C   0  0  0  0  0  2  0  0  0  0  0  0
  181.6640  176.6710  138.3520 C   0  0  0  0  0  0  0  0  0  0  0  0
  183.0920  176.9740  140.3230 C   0  0  0  0  0  3  0  0  0  0  0  0
  183.5040  179.8260  138.3260 O   0  0  0  0  0  0  0  0  0  0  0  0
  184.3260  180.1790  139.2790 N   0  0  0  0  0  0  0  0  0  0  0  0
  180.6970  175.8380  137.5910 C   0  0  0  0  0  1  0  0  0  0  0  0
  184.3160  179.1940  140.2080 C   0  0  0  0  0  0  0  0  0  0  0  0
  182.1750  176.2020  139.5860 C   0  0  0  0  0  3  0  0  0  0  0  0
  182.9760  178.6560  138.5920 C   0  0  0  0  0  0  0  0  0  0  0  0
  183.4620  178.2030  139.7840 C   0  0  0  0  0  0  0  0  0  0  0  0
  182.0680  177.9190  137.8380 C   0  0  0  0  0  3  0  0  0  0  0  0
  1  9  1  0  0  0  0
  2  3  1  6  0  0  0
  2  8  1  0  0  0  0
  2 12  1  0  0  0  0
  4 11  1  0  0  0  0
  4  1  2  0  0  0  0
  5 21  1  0  0  0  0
  5  8  1  0  0  0  0
  6  1  1  0  0  0  0
  7  5  2  0  0  0  0
  9  3  2  0  0  0  0
 10  7  1  0  0  0  0
 10  3  1  0  0  0  0
 11 10  2  0  0  0  0
 12 14  1  1  0  0  0
 12 17  1  0  0  0  0
 13 15  1  0  0  0  0
 14 13  2  0  0  0  0
 15 16  1  0  0  0  0
 16 18  1  1  0  0  0
 17 20  1  1  0  0  0
 17 18  1  0  0  0  0
 17 16  1  0  0  0  0
 20 19  1  0  0  0  0
 22 28  1  0  0  0  0
 24 29  1  0  0  0  0
 24 25  1  0  0  0  0
 25 27  2  0  0  0  0
 26 22  1  0  0  0  0
 27 21  1  0  0  0  0
 28 23  2  0  0  0  0
 29 30  2  0  0  0  0
 30 27  1  0  0  0  0
 30 23  1  0  0  0  0
 31 22  2  0  0  0  0
 31 29  1  0  0  0  0
M  END
>  <MODEL>
5

>  <REMARK>
 VINA RESULT:      -8.7      3.237      6.556
  Name = 
  4 active torsions:
  status: ('A' for Active; 'I' for Inactive)
    1  A    between atoms: C_4  and  C_5
    2  A    between atoms: C_9  and  C_23
    3  A    between atoms: C_15  and  C_23
    4  A    between atoms: C_29  and  C_30
                            x       y       z     vdW  Elec       q    Type
                         _______ _______ _______ _____ _____    ______ ____

>  <TORSDO>
F 4

$$$$
=
 OpenBabel10272400263D

 31 36  0  0  1  0  0  0  0  0999 V2000
  187.3450  177.6860  144.9370 C   0  0  0  0  0  0  0  0  0  0  0  0
  187.6380  178.5460  141.2360 C   0  0  2  0  0  3  0  0  0  0  0  0
  187.0530  178.2460  142.5930 C   0  0  0  0  0  0  0  0  0  0  0  0
  185.9720  177.8400  145.1470 C   0  0  0  0  0  3  0  0  0  0  0  0
  185.2330  178.9310  140.5210 C   0  0  0  0  0  0  0  0  0  0  0  0
  188.2320  177.3030  146.0660 C   0  0  0  0  0  1  0  0  0  0  0  0
  184.8040  178.7950  141.7390 N   0  0  0  0  0  0  0  0  0  0  0  0
  186.6130  178.7150  140.2060 N   0  0  0  0  0  2  0  0  0  0  0  0
  187.8860  177.9000  143.6660 C   0  0  0  0  0  3  0  0  0  0  0  0
  185.6730  178.4200  142.8140 C   0  0  0  0  0  0  0  0  0  0  0  0
  185.1390  178.2090  144.0880 C   0  0  0  0  0  3  0  0  0  0  0  0
  188.7230  177.5540  140.7930 C   0  0  2  0  0  3  0  0  0  0  0  0
  190.9550  176.9150  141.6000 C   0  0  0  0  0  3  0  0  0  0  0  0
  189.7550  177.4100  141.8690 C   0  0  0  0  0  3  0  0  0  0  0  0
  191.3320  176.6230  140.2870 O   0  0  0  0  0  0  0  0  0  0  0  0
  190.7590  177.2680  139.1460 C   0  0  2  0  0  3  0  0  0  0  0  0
  189.3270  177.7570  139.3790 C   0  0  1  0  0  0  0  0  0  0  0  0
  189.5790  176.4600  138.6330 C   0  0  0  0  0  2  0  0  0  0  0  0
  188.1990  178.4640  136.9330 S   0  0  0  0  0  1  0  0  0  0  0  0
  188.9780  178.9600  138.5040 C   0  0  0  0  0  2  0  0  0  0  0  0
  184.2800  179.3080  139.4400 C   0  0  0  0  0  2  0  0  0  0  0  0
  180.9810  175.1950  138.9420 C   0  0  0  0  0  0  0  0  0  0  0  0
  181.8290  177.2710  139.9350 C   0  0  0  0  0  3  0  0  0  0  0  0
  183.9320  176.5050  137.2360 O   0  0  0  0  0  0  0  0  0  0  0  0
  184.5440  177.5980  137.6090 N   0  0  0  0  0  0  0  0  0  0  0  0
  179.9860  174.0910  138.9460 C   0  0  0  0  0  1  0  0  0  0  0  0
  183.8700  178.0960  138.6730 C   0  0  0  0  0  0  0  0  0  0  0  0
  180.8980  176.2160  139.9190 C   0  0  0  0  0  3  0  0  0  0  0  0
  182.9030  176.2720  138.0150 C   0  0  0  0  0  0  0  0  0  0  0  0
  182.8180  177.2580  138.9540 C   0  0  0  0  0  0  0  0  0  0  0  0
  181.9990  175.2160  137.9690 C   0  0  0  0  0  3  0  0  0  0  0  0
  1  4  1  0  0  0  0
  1  6  1  0  0  0  0
  2  8  1  6  0  0  0
  2  3  1  0  0  0  0
  3 10  2  0  0  0  0
  3  9  1  0  0  0  0
  5  7  2  0  0  0  0
  7 10  1  0  0  0  0
  8  5  1  0  0  0  0
  9  1  2  0  0  0  0
 10 11  1  0  0  0  0
 11  4  2  0  0  0  0
 12  2  1  0  0  0  0
 12 14  1  1  0  0  0
 13 14  2  0  0  0  0
 15 13  1  0  0  0  0
 16 18  1  6  0  0  0
 16 17  1  0  0  0  0
 16 15  1  0  0  0  0
 17 20  1  6  0  0  0
 17 12  1  0  0  0  0
 18 17  1  0  0  0  0
 19 20  1  0  0  0  0
 21  5  1  0  0  0  0
 22 26  1  0  0  0  0
 22 28  1  0  0  0  0
 24 25  1  0  0  0  0
 24 29  1  0  0  0  0
 25 27  2  0  0  0  0
 27 30  1  0  0  0  0
 27 21  1  0  0  0  0
 28 23  2  0  0  0  0
 29 30  2  0  0  0  0
 30 23  1  0  0  0  0
 31 29  1  0  0  0  0
 31 22  2  0  0  0  0
M  END
>  <MODEL>
6

>  <REMARK>
 VINA RESULT:      -8.6      3.207      6.651
  Name = 
  4 active torsions:
  status: ('A' for Active; 'I' for Inactive)
    1  A    between atoms: C_4  and  C_5
    2  A    between atoms: C_9  and  C_23
    3  A    between atoms: C_15  and  C_23
    4  A    between atoms: C_29  and  C_30
                            x       y       z     vdW  Elec       q    Type
                         _______ _______ _______ _____ _____    ______ ____

>  <TORSDO>
F 4

$$$$
=
 OpenBabel10272400263D

 31 36  0  0  1  0  0  0  0  0999 V2000
  188.1370  177.7020  146.6800 C   0  0  0  0  0  0  0  0  0  0  0  0
  187.4270  178.0730  142.9560 C   0  0  2  0  0  3  0  0  0  0  0  0
  187.2260  177.9560  144.4450 C   0  0  0  0  0  0  0  0  0  0  0  0
  186.8640  177.8910  147.2240 C   0  0  0  0  0  3  0  0  0  0  0  0
  184.9090  178.3800  142.8550 C   0  0  0  0  0  0  0  0  0  0  0  0
  189.2990  177.4610  147.5750 C   0  0  0  0  0  1  0  0  0  0  0  0
  184.8180  178.4060  144.1500 N   0  0  0  0  0  0  0  0  0  0  0  0
  186.1640  178.1150  142.2190 N   0  0  0  0  0  2  0  0  0  0  0  0
  188.3200  177.7450  145.2960 C   0  0  0  0  0  3  0  0  0  0  0  0
  185.9480  178.1660  144.9980 C   0  0  0  0  0  0  0  0  0  0  0  0
  185.7720  178.1260  146.3840 C   0  0  0  0  0  3  0  0  0  0  0  0
  188.3850  177.0250  142.3720 C   0  0  2  0  0  3  0  0  0  0  0  0
  190.4280  175.8910  143.1360 C   0  0  0  0  0  3  0  0  0  0  0  0
  189.2960  176.5110  143.4430 C   0  0  0  0  0  3  0  0  0  0  0  0
  190.8580  175.8020  141.8110 O   0  0  0  0  0  0  0  0  0  0  0  0
  190.4790  176.7390  140.7990 C   0  0  2  0  0  3  0  0  0  0  0  0
  189.1210  177.3970  141.0590 C   0  0  1  0  0  0  0  0  0  0  0  0
  189.2370  176.2470  140.0770 C   0  0  0  0  0  2  0  0  0  0  0  0
  188.7090  178.7110  138.6380 S   0  0  0  0  0  1  0  0  0  0  0  0
  189.0240  178.7880  140.4310 C   0  0  0  0  0  2  0  0  0  0  0  0
  183.6970  178.6210  142.0250 C   0  0  0  0  0  2  0  0  0  0  0  0
  183.4650  176.1860  137.3280 C   0  0  0  0  0  0  0  0  0  0  0  0
  182.9510  176.5100  139.7040 C   0  0  0  0  0  3  0  0  0  0  0  0
  185.0000  179.1850  138.7360 O   0  0  0  0  0  0  0  0  0  0  0  0
  184.8580  179.5380  139.9870 N   0  0  0  0  0  0  0  0  0  0  0  0
  183.3190  175.3800  136.0870 C   0  0  0  0  0  1  0  0  0  0  0  0
  184.0580  178.6190  140.5780 C   0  0  0  0  0  0  0  0  0  0  0  0
  182.8280  175.7620  138.5180 C   0  0  0  0  0  3  0  0  0  0  0  0
  184.3390  178.0790  138.4980 C   0  0  0  0  0  0  0  0  0  0  0  0
  183.7190  177.6700  139.6440 C   0  0  0  0  0  0  0  0  0  0  0  0
  184.2370  177.3640  137.3090 C   0  0  0  0  0  3  0  0  0  0  0  0
  1  4  1  0  0  0  0
  1  6  1  0  0  0  0
  2  8  1  6  0  0  0
  2  3  1  0  0  0  0
  3 10  2  0  0  0  0
  3  9  1  0  0  0  0
  5  7  2  0  0  0  0
  7 10  1  0  0  0  0
  8  5  1  0  0  0  0
  9  1  2  0  0  0  0
 10 11  1  0  0  0  0
 11  4  2  0  0  0  0
 12  2  1  0  0  0  0
 12 14  1  1  0  0  0
 13 14  2  0  0  0  0
 15 13  1  0  0  0  0
 16 18  1  6  0  0  0
 16 17  1  0  0  0  0
 16 15  1  0  0  0  0
 17 20  1  6  0  0  0
 17 12  1  0  0  0  0
 18 17  1  0  0  0  0
 19 20  1  0  0  0  0
 21  5  1  0  0  0  0
 22 28  1  0  0  0  0
 24 25  1  0  0  0  0
 25 27  2  0  0  0  0
 26 22  1  0  0  0  0
 27 21  1  0  0  0  0
 28 23  2  0  0  0  0
 29 24  1  0  0  0  0
 29 30  2  0  0  0  0
 30 23  1  0  0  0  0
 30 27  1  0  0  0  0
 31 22  2  0  0  0  0
 31 29  1  0  0  0  0
M  END
>  <MODEL>
7

>  <REMARK>
 VINA RESULT:      -8.6      3.002      5.752
  Name = 
  4 active torsions:
  status: ('A' for Active; 'I' for Inactive)
    1  A    between atoms: C_4  and  C_5
    2  A    between atoms: C_9  and  C_23
    3  A    between atoms: C_15  and  C_23
    4  A    between atoms: C_29  and  C_30
                            x       y       z     vdW  Elec       q    Type
                         _______ _______ _______ _____ _____    ______ ____

>  <TORSDO>
F 4

$$$$
=
 OpenBabel10272400263D

 31 36  0  0  1  0  0  0  0  0999 V2000
  185.0750  178.4270  144.8890 C   0  0  0  0  0  0  0  0  0  0  0  0
  188.5330  178.3440  143.2910 C   0  0  2  0  0  3  0  0  0  0  0  0
  187.0350  178.3570  143.4580 C   0  0  0  0  0  0  0  0  0  0  0  0
  184.2540  178.5360  143.7640 C   0  0  0  0  0  3  0  0  0  0  0  0
  188.0400  178.3720  140.8000 C   0  0  0  0  0  0  0  0  0  0  0  0
  184.4750  178.4020  146.2480 C   0  0  0  0  0  1  0  0  0  0  0  0
  186.7670  178.5200  141.0110 N   0  0  0  0  0  0  0  0  0  0  0  0
  188.9420  178.1780  141.8960 N   0  0  0  0  0  2  0  0  0  0  0  0
  186.4620  178.3490  144.7380 C   0  0  0  0  0  3  0  0  0  0  0  0
  186.2050  178.4870  142.3280 C   0  0  0  0  0  0  0  0  0  0  0  0
  184.8190  178.5690  142.4860 C   0  0  0  0  0  3  0  0  0  0  0  0
  189.2540  177.3490  144.2110 C   0  0  2  0  0  3  0  0  0  0  0  0
  189.5520  177.0960  146.6370 C   0  0  0  0  0  3  0  0  0  0  0  0
  188.8250  177.5600  145.6300 C   0  0  0  0  0  3  0  0  0  0  0  0
  190.7940  176.5000  146.4100 O   0  0  0  0  0  0  0  0  0  0  0  0
  191.6020  176.7850  145.2640 C   0  0  2  0  0  3  0  0  0  0  0  0
  190.7900  177.2180  144.0410 C   0  0  1  0  0  0  0  0  0  0  0  0
  191.2960  175.7920  144.1560 C   0  0  0  0  0  2  0  0  0  0  0  0
  191.9840  177.3090  141.5270 S   0  0  0  0  0  1  0  0  0  0  0  0
  191.5910  178.1250  143.1070 C   0  0  0  0  0  2  0  0  0  0  0  0
  188.5660  178.3990  139.4070 C   0  0  0  0  0  2  0  0  0  0  0  0
  187.2450  174.6180  135.9430 C   0  0  0  0  0  0  0  0  0  0  0  0
  188.6610  175.7200  137.6150 C   0  0  0  0  0  3  0  0  0  0  0  0
  185.7870  177.6960  137.2590 O   0  0  0  0  0  0  0  0  0  0  0  0
  186.3810  178.4410  138.1550 N   0  0  0  0  0  0  0  0  0  0  0  0
  187.0270  173.4950  134.9940 C   0  0  0  0  0  1  0  0  0  0  0  0
  187.5540  177.8390  138.4660 C   0  0  0  0  0  0  0  0  0  0  0  0
  188.4340  174.6670  136.7100 C   0  0  0  0  0  3  0  0  0  0  0  0
  186.5260  176.6520  136.9730 C   0  0  0  0  0  0  0  0  0  0  0  0
  187.6700  176.6940  137.7150 C   0  0  0  0  0  0  0  0  0  0  0  0
  186.2690  175.6250  136.0710 C   0  0  0  0  0  3  0  0  0  0  0  0
  1  6  1  0  0  0  0
  2  8  1  6  0  0  0
  2  3  1  0  0  0  0
  2 12  1  0  0  0  0
  3  9  2  0  0  0  0
  4  1  2  0  0  0  0
  5  7  2  0  0  0  0
  5  8  1  0  0  0  0
  7 10  1  0  0  0  0
  9  1  1  0  0  0  0
 10 11  2  0  0  0  0
 10  3  1  0  0  0  0
 11  4  1  0  0  0  0
 12 14  1  1  0  0  0
 14 13  2  0  0  0  0
 15 13  1  0  0  0  0
 16 18  1  6  0  0  0
 16 15  1  0  0  0  0
 17 20  1  6  0  0  0
 17 18  1  0  0  0  0
 17 12  1  0  0  0  0
 17 16  1  0  0  0  0
 19 20  1  0  0  0  0
 21  5  1  0  0  0  0
 22 31  2  0  0  0  0
 22 28  1  0  0  0  0
 23 30  1  0  0  0  0
 24 25  1  0  0  0  0
 25 27  2  0  0  0  0
 26 22  1  0  0  0  0
 27 21  1  0  0  0  0
 28 23  2  0  0  0  0
 29 24  1  0  0  0  0
 29 30  2  0  0  0  0
 30 27  1  0  0  0  0
 31 29  1  0  0  0  0
M  END
>  <MODEL>
8

>  <REMARK>
 VINA RESULT:      -8.5      2.612      4.832
  Name = 
  4 active torsions:
  status: ('A' for Active; 'I' for Inactive)
    1  A    between atoms: C_4  and  C_5
    2  A    between atoms: C_9  and  C_23
    3  A    between atoms: C_15  and  C_23
    4  A    between atoms: C_29  and  C_30
                            x       y       z     vdW  Elec       q    Type
                         _______ _______ _______ _____ _____    ______ ____

>  <TORSDO>
F 4

$$$$
=
 OpenBabel10272400263D

 31 36  0  0  1  0  0  0  0  0999 V2000
  192.7080  175.8080  135.8580 C   0  0  0  0  0  0  0  0  0  0  0  0
  189.3460  176.3590  137.5630 C   0  0  2  0  0  3  0  0  0  0  0  0
  190.8310  176.2240  137.3380 C   0  0  0  0  0  0  0  0  0  0  0  0
  193.5960  176.1240  136.8900 C   0  0  0  0  0  3  0  0  0  0  0  0
  189.9770  176.9490  139.9500 C   0  0  0  0  0  0  0  0  0  0  0  0
  193.2300  175.4130  134.5240 C   0  0  0  0  0  1  0  0  0  0  0  0
  191.2420  176.9500  139.6610 N   0  0  0  0  0  0  0  0  0  0  0  0
  189.0060  176.5640  138.9710 N   0  0  0  0  0  2  0  0  0  0  0  0
  191.3300  175.8680  136.0780 C   0  0  0  0  0  3  0  0  0  0  0  0
  191.7280  176.5610  138.3700 C   0  0  0  0  0  0  0  0  0  0  0  0
  193.1060  176.5020  138.1430 C   0  0  0  0  0  3  0  0  0  0  0  0
  188.5160  175.2270  136.9410 C   0  0  2  0  0  3  0  0  0  0  0  0
  188.9620  172.9320  136.1850 C   0  0  0  0  0  3  0  0  0  0  0  0
  189.2930  173.9480  136.9710 C   0  0  0  0  0  3  0  0  0  0  0  0
  187.9550  173.0660  135.2270 O   0  0  0  0  0  0  0  0  0  0  0  0
  187.5840  174.3210  134.6500 C   0  0  2  0  0  3  0  0  0  0  0  0
  187.8460  175.5140  135.5730 C   0  0  1  0  0  0  0  0  0  0  0  0
  186.4480  174.9400  135.4460 C   0  0  0  0  0  2  0  0  0  0  0  0
  186.7320  177.9950  134.9700 S   0  0  0  0  0  1  0  0  0  0  0  0
  188.0990  176.8040  134.7910 C   0  0  0  0  0  2  0  0  0  0  0  0
  189.5310  177.3480  141.3140 C   0  0  0  0  0  2  0  0  0  0  0  0
  184.9650  178.5650  143.7050 C   0  0  0  0  0  0  0  0  0  0  0  0
  187.2300  177.6360  143.5550 C   0  0  0  0  0  3  0  0  0  0  0  0
  186.4990  179.0340  140.4240 O   0  0  0  0  0  0  0  0  0  0  0  0
  187.6990  178.6080  140.1310 N   0  0  0  0  0  0  0  0  0  0  0  0
  183.7380  178.8160  144.5050 C   0  0  0  0  0  1  0  0  0  0  0  0
  188.2030  178.0220  141.2430 C   0  0  0  0  0  0  0  0  0  0  0  0
  186.0580  177.8840  144.2930 C   0  0  0  0  0  3  0  0  0  0  0  0
  186.2030  178.7410  141.6680 C   0  0  0  0  0  0  0  0  0  0  0  0
  187.2570  178.0890  142.2390 C   0  0  0  0  0  0  0  0  0  0  0  0
  185.0310  179.0040  142.3680 C   0  0  0  0  0  3  0  0  0  0  0  0
  1  9  2  0  0  0  0
  1  4  1  0  0  0  0
  2  3  1  1  0  0  0
  2  8  1  0  0  0  0
  3 10  2  0  0  0  0
  4 11  2  0  0  0  0
  5 21  1  0  0  0  0
  6  1  1  0  0  0  0
  7  5  2  0  0  0  0
  8  5  1  0  0  0  0
  9  3  1  0  0  0  0
 10  7  1  0  0  0  0
 11 10  1  0  0  0  0
 12 14  1  6  0  0  0
 12  2  1  0  0  0  0
 13 14  2  0  0  0  0
 15 13  1  0  0  0  0
 16 15  1  0  0  0  0
 16 18  1  1  0  0  0
 16 17  1  0  0  0  0
 17 20  1  6  0  0  0
 17 12  1  0  0  0  0
 18 17  1  0  0  0  0
 20 19  1  0  0  0  0
 22 28  1  0  0  0  0
 22 26  1  0  0  0  0
 23 28  2  0  0  0  0
 24 29  1  0  0  0  0
 25 24  1  0  0  0  0
 25 27  2  0  0  0  0
 27 21  1  0  0  0  0
 27 30  1  0  0  0  0
 29 30  2  0  0  0  0
 29 31  1  0  0  0  0
 30 23  1  0  0  0  0
 31 22  2  0  0  0  0
M  END
>  <MODEL>
9

>  <REMARK>
 VINA RESULT:      -8.4      2.605      8.213
  Name = 
  4 active torsions:
  status: ('A' for Active; 'I' for Inactive)
    1  A    between atoms: C_4  and  C_5
    2  A    between atoms: C_9  and  C_23
    3  A    between atoms: C_15  and  C_23
    4  A    between atoms: C_29  and  C_30
                            x       y       z     vdW  Elec       q    Type
                         _______ _______ _______ _____ _____    ______ ____

>  <TORSDO>
F 4

$$$$
