=
 OpenBabel10272401063D

 27 31  0  0  1  0  0  0  0  0999 V2000
  189.0460  176.0060  143.2210 N   0  0  0  0  0  2  0  0  0  0  0  0
  188.0960  177.6100  141.6440 C   0  0  0  0  0  0  0  0  0  0  0  0
  190.2990  176.9780  140.7390 N   0  0  0  0  0  2  0  0  0  0  0  0
  186.7560  178.5570  137.7110 C   0  0  0  0  0  3  0  0  0  0  0  0
  187.5610  178.2480  136.6110 C   0  0  0  0  0  0  0  0  0  0  0  0
  186.6270  177.9180  141.4160 C   0  0  0  0  0  2  0  0  0  0  0  0
  189.2450  177.3400  138.0950 C   0  0  0  0  0  3  0  0  0  0  0  0
  191.6790  178.3170  143.9900 C   0  0  0  0  0  0  0  0  0  0  0  0
  188.8020  177.6370  136.8020 C   0  0  0  0  0  3  0  0  0  0  0  0
  192.1100  179.3780  144.5130 O   0  0  0  0  0  0  0  0  0  0  0  0
  188.4420  177.6420  139.2040 C   0  0  0  0  0  0  0  0  0  0  0  0
  188.5740  177.3760  143.0590 C   0  0  1  0  0  3  0  0  0  0  0  0
  187.1250  178.5480  135.3280 O   0  0  0  0  0  1  0  0  0  0  0  0
  187.1920  178.2460  139.0030 C   0  0  0  0  0  0  0  0  0  0  0  0
  190.4910  175.8970  142.9730 C   0  0  2  0  0  3  0  0  0  0  0  0
  188.9290  177.4070  140.5860 C   0  0  0  0  0  0  0  0  0  0  0  0
  191.3380  178.3120  142.5300 C   0  0  0  0  0  2  0  0  0  0  0  0
  186.3820  178.5590  140.1300 N   0  0  0  0  0  2  0  0  0  0  0  0
  191.4270  177.2080  144.8010 O   0  0  0  0  0  0  0  0  0  0  0  0
  191.2840  175.8930  144.2730 C   0  0  0  0  0  2  0  0  0  0  0  0
  191.0850  176.9060  141.9670 C   0  0  2  0  0  3  0  0  0  0  0  0
  185.8290  178.4660  146.1870 C   0  0  0  0  0  3  0  0  0  0  0  0
  187.6000  177.7470  144.1400 C   0  0  0  0  0  0  0  0  0  0  0  0
  188.0350  177.7720  145.4690 C   0  0  0  0  0  3  0  0  0  0  0  0
  187.1510  178.1290  146.4920 C   0  0  0  0  0  3  0  0  0  0  0  0
  185.3900  178.4480  144.8590 C   0  0  0  0  0  3  0  0  0  0  0  0
  186.2740  178.0910  143.8360 C   0  0  0  0  0  3  0  0  0  0  0  0
  2 12  1  0  0  0  0
  3 21  1  0  0  0  0
  4 14  1  0  0  0  0
  5  9  1  0  0  0  0
  5  4  2  0  0  0  0
  6  2  1  0  0  0  0
  7 11  1  0  0  0  0
  8 10  2  0  0  0  0
  8 19  1  0  0  0  0
  9  7  2  0  0  0  0
 11 16  1  0  0  0  0
 12  1  1  0  0  0  0
 12 23  1  1  0  0  0
 13  5  1  0  0  0  0
 14 11  2  0  0  0  0
 14 18  1  0  0  0  0
 15  1  1  0  0  0  0
 15 20  1  1  0  0  0
 16  3  1  0  0  0  0
 16  2  2  0  0  0  0
 17  8  1  0  0  0  0
 18  6  1  0  0  0  0
 20 19  1  0  0  0  0
 21 17  1  1  0  0  0
 21 15  1  0  0  0  0
 22 25  1  0  0  0  0
 23 24  1  0  0  0  0
 24 25  2  0  0  0  0
 26 22  2  0  0  0  0
 27 23  2  0  0  0  0
 27 26  1  0  0  0  0
M  END
>  <MODEL>
1

>  <REMARK>
 VINA RESULT:      -9.2      0.000      0.000
  Name = 
  1 active torsions:
  status: ('A' for Active; 'I' for Inactive)
    1  A    between atoms: C_9  and  C_15
                            x       y       z     vdW  Elec       q    Type
                         _______ _______ _______ _____ _____    ______ ____

>  <TORSDO>
F 1

$$$$
=
 OpenBabel10272401063D

 27 31  0  0  1  0  0  0  0  0999 V2000
  188.7320  176.2150  143.9380 N   0  0  0  0  0  2  0  0  0  0  0  0
  187.1200  177.9550  143.3600 C   0  0  0  0  0  0  0  0  0  0  0  0
  188.5550  177.6620  141.3790 N   0  0  0  0  0  2  0  0  0  0  0  0
  183.9730  179.3780  140.8640 C   0  0  0  0  0  3  0  0  0  0  0  0
  184.1060  179.3130  139.4740 C   0  0  0  0  0  0  0  0  0  0  0  0
  185.7400  178.1670  143.9560 C   0  0  0  0  0  2  0  0  0  0  0  0
  186.3070  178.3360  139.7290 C   0  0  0  0  0  3  0  0  0  0  0  0
  191.4010  178.5980  143.6800 C   0  0  0  0  0  0  0  0  0  0  0  0
  185.2700  178.7880  138.9060 C   0  0  0  0  0  3  0  0  0  0  0  0
  192.0420  179.5980  144.0960 O   0  0  0  0  0  0  0  0  0  0  0  0
  186.1800  178.3930  141.1240 C   0  0  0  0  0  0  0  0  0  0  0  0
  188.2490  177.5480  144.2790 C   0  0  1  0  0  3  0  0  0  0  0  0
  183.0810  179.7680  138.6570 O   0  0  0  0  0  1  0  0  0  0  0  0
  185.0030  178.9100  141.6850 C   0  0  0  0  0  0  0  0  0  0  0  0
  189.8510  176.2700  142.9870 C   0  0  2  0  0  3  0  0  0  0  0  0
  187.3000  177.9910  142.0100 C   0  0  0  0  0  0  0  0  0  0  0  0
  190.3660  178.7890  142.6130 C   0  0  0  0  0  2  0  0  0  0  0  0
  184.8790  178.9750  143.1010 N   0  0  0  0  0  2  0  0  0  0  0  0
  191.5910  177.3590  144.2990 O   0  0  0  0  0  0  0  0  0  0  0  0
  191.1940  176.1350  143.6910 C   0  0  0  0  0  2  0  0  0  0  0  0
  189.8560  177.4700  142.0140 C   0  0  2  0  0  3  0  0  0  0  0  0
  187.4820  177.8840  148.4990 C   0  0  0  0  0  3  0  0  0  0  0  0
  187.9600  177.6630  145.7480 C   0  0  0  0  0  0  0  0  0  0  0  0
  188.8780  177.1390  146.6650 C   0  0  0  0  0  3  0  0  0  0  0  0
  188.6380  177.2470  148.0390 C   0  0  0  0  0  3  0  0  0  0  0  0
  186.5640  178.4130  147.5860 C   0  0  0  0  0  3  0  0  0  0  0  0
  186.8030  178.3060  146.2130 C   0  0  0  0  0  3  0  0  0  0  0  0
  1 12  1  0  0  0  0
  2  6  1  0  0  0  0
  2 12  1  0  0  0  0
  3 16  1  0  0  0  0
  3 21  1  0  0  0  0
  4 14  1  0  0  0  0
  5  4  2  0  0  0  0
  7 11  1  0  0  0  0
  8 10  2  0  0  0  0
  8 19  1  0  0  0  0
  9  5  1  0  0  0  0
  9  7  2  0  0  0  0
 11 14  2  0  0  0  0
 11 16  1  0  0  0  0
 12 23  1  1  0  0  0
 13  5  1  0  0  0  0
 14 18  1  0  0  0  0
 15 20  1  1  0  0  0
 15  1  1  0  0  0  0
 16  2  2  0  0  0  0
 17  8  1  0  0  0  0
 18  6  1  0  0  0  0
 20 19  1  0  0  0  0
 21 17  1  1  0  0  0
 21 15  1  0  0  0  0
 23 27  2  0  0  0  0
 23 24  1  0  0  0  0
 24 25  2  0  0  0  0
 25 22  1  0  0  0  0
 26 22  2  0  0  0  0
 27 26  1  0  0  0  0
M  END
>  <MODEL>
2

>  <REMARK>
 VINA RESULT:      -9.1      1.954      2.675
  Name = 
  1 active torsions:
  status: ('A' for Active; 'I' for Inactive)
    1  A    between atoms: C_9  and  C_15
                            x       y       z     vdW  Elec       q    Type
                         _______ _______ _______ _____ _____    ______ ____

>  <TORSDO>
F 1

$$$$
=
 OpenBabel10272401063D

 27 31  0  0  1  0  0  0  0  0999 V2000
  189.6520  178.9810  142.2100 N   0  0  0  0  0  2  0  0  0  0  0  0
  187.3620  178.2180  141.8460 C   0  0  0  0  0  0  0  0  0  0  0  0
  187.7520  178.0870  144.2750 N   0  0  0  0  0  2  0  0  0  0  0  0
  183.1800  178.6490  142.5440 C   0  0  0  0  0  3  0  0  0  0  0  0
  182.7090  178.8190  143.8490 C   0  0  0  0  0  0  0  0  0  0  0  0
  186.4490  178.5670  140.6840 C   0  0  0  0  0  2  0  0  0  0  0  0
  184.9760  178.6830  144.6880 C   0  0  0  0  0  3  0  0  0  0  0  0
  190.5550  175.7160  143.3870 C   0  0  0  0  0  0  0  0  0  0  0  0
  183.6060  178.8400  144.9200 C   0  0  0  0  0  3  0  0  0  0  0  0
  190.7890  174.4930  143.2030 O   0  0  0  0  0  0  0  0  0  0  0  0
  185.4580  178.5180  143.3820 C   0  0  0  0  0  0  0  0  0  0  0  0
  188.8260  177.9680  141.5630 C   0  0  1  0  0  3  0  0  0  0  0  0
  181.3480  178.9670  144.0810 O   0  0  0  0  0  1  0  0  0  0  0  0
  184.5520  178.5100  142.3120 C   0  0  0  0  0  0  0  0  0  0  0  0
  190.0870  178.5540  143.5470 C   0  0  2  0  0  3  0  0  0  0  0  0
  186.8990  178.2720  143.1250 C   0  0  0  0  0  0  0  0  0  0  0  0
  189.1970  176.1340  143.8650 C   0  0  0  0  0  2  0  0  0  0  0  0
  185.0420  178.3340  140.9880 N   0  0  0  0  0  2  0  0  0  0  0  0
  191.5280  176.6570  143.0400 O   0  0  0  0  0  0  0  0  0  0  0  0
  191.5030  177.9950  143.5260 C   0  0  0  0  0  2  0  0  0  0  0  0
  189.1300  177.6050  144.3010 C   0  0  2  0  0  3  0  0  0  0  0  0
  189.8510  177.4680  137.4150 C   0  0  0  0  0  3  0  0  0  0  0  0
  189.1880  177.8150  140.1150 C   0  0  0  0  0  0  0  0  0  0  0  0
  189.7990  176.6310  139.6870 C   0  0  0  0  0  3  0  0  0  0  0  0
  190.1320  176.4580  138.3400 C   0  0  0  0  0  3  0  0  0  0  0  0
  189.2350  178.6510  137.8360 C   0  0  0  0  0  3  0  0  0  0  0  0
  188.9020  178.8240  139.1830 C   0  0  0  0  0  3  0  0  0  0  0  0
  1 15  1  0  0  0  0
  2 16  2  0  0  0  0
  3 21  1  0  0  0  0
  4  5  1  0  0  0  0
  5 13  1  0  0  0  0
  5  9  2  0  0  0  0
  6 18  1  0  0  0  0
  6  2  1  0  0  0  0
  7  9  1  0  0  0  0
  8 17  1  0  0  0  0
 10  8  2  0  0  0  0
 11  7  2  0  0  0  0
 12 23  1  6  0  0  0
 12  2  1  0  0  0  0
 12  1  1  0  0  0  0
 14  4  2  0  0  0  0
 14 11  1  0  0  0  0
 15 20  1  6  0  0  0
 15 21  1  0  0  0  0
 16 11  1  0  0  0  0
 16  3  1  0  0  0  0
 18 14  1  0  0  0  0
 19  8  1  0  0  0  0
 19 20  1  0  0  0  0
 21 17  1  6  0  0  0
 22 26  2  0  0  0  0
 22 25  1  0  0  0  0
 24 23  1  0  0  0  0
 25 24  2  0  0  0  0
 26 27  1  0  0  0  0
 27 23  2  0  0  0  0
M  END
>  <MODEL>
3

>  <REMARK>
 VINA RESULT:      -8.9      2.607      5.674
  Name = 
  1 active torsions:
  status: ('A' for Active; 'I' for Inactive)
    1  A    between atoms: C_9  and  C_15
                            x       y       z     vdW  Elec       q    Type
                         _______ _______ _______ _____ _____    ______ ____

>  <TORSDO>
F 1

$$$$
=
 OpenBabel10272401063D

 27 31  0  0  1  0  0  0  0  0999 V2000
  188.0130  176.2200  144.4230 N   0  0  0  0  0  2  0  0  0  0  0  0
  186.2790  177.9380  144.4790 C   0  0  0  0  0  0  0  0  0  0  0  0
  186.7960  177.5600  142.1000 N   0  0  0  0  0  2  0  0  0  0  0  0
  182.3710  179.2640  143.4160 C   0  0  0  0  0  3  0  0  0  0  0  0
  181.9320  179.1400  142.0940 C   0  0  0  0  0  0  0  0  0  0  0  0
  185.2550  178.1770  145.5740 C   0  0  0  0  0  2  0  0  0  0  0  0
  184.0630  178.1700  141.4750 C   0  0  0  0  0  3  0  0  0  0  0  0
  190.3140  178.5840  143.0170 C   0  0  0  0  0  0  0  0  0  0  0  0
  182.7760  178.5910  141.1260 C   0  0  0  0  0  3  0  0  0  0  0  0
  191.0540  179.6000  143.0990 O   0  0  0  0  0  0  0  0  0  0  0  0
  184.5090  178.2850  142.8000 C   0  0  0  0  0  0  0  0  0  0  0  0
  187.6890  177.5670  144.8790 C   0  0  1  0  0  3  0  0  0  0  0  0
  180.6580  179.5640  141.7450 O   0  0  0  0  0  1  0  0  0  0  0  0
  183.6520  178.8270  143.7680 C   0  0  0  0  0  0  0  0  0  0  0  0
  188.6510  176.2340  143.0990 C   0  0  2  0  0  3  0  0  0  0  0  0
  185.8970  177.9170  143.1720 C   0  0  0  0  0  0  0  0  0  0  0  0
  188.9340  178.7330  142.4520 C   0  0  0  0  0  2  0  0  0  0  0  0
  184.1100  178.9510  145.1100 N   0  0  0  0  0  2  0  0  0  0  0  0
  190.7560  177.3720  143.5530 O   0  0  0  0  0  0  0  0  0  0  0  0
  190.1660  176.1240  143.2050 C   0  0  0  0  0  2  0  0  0  0  0  0
  188.2450  177.3920  142.1630 C   0  0  2  0  0  3  0  0  0  0  0  0
  188.6830  178.0920  149.0310 C   0  0  0  0  0  3  0  0  0  0  0  0
  188.0170  177.7420  146.3330 C   0  0  0  0  0  0  0  0  0  0  0  0
  189.3280  177.5220  146.7680 C   0  0  0  0  0  3  0  0  0  0  0  0
  189.6610  177.6940  148.1150 C   0  0  0  0  0  3  0  0  0  0  0  0
  187.3720  178.3180  148.6020 C   0  0  0  0  0  3  0  0  0  0  0  0
  187.0380  178.1470  147.2550 C   0  0  0  0  0  3  0  0  0  0  0  0
  1 12  1  0  0  0  0
  2 12  1  0  0  0  0
  2  6  1  0  0  0  0
  3 21  1  0  0  0  0
  3 16  1  0  0  0  0
  4 14  1  0  0  0  0
  5  4  2  0  0  0  0
  7 11  1  0  0  0  0
  8 10  2  0  0  0  0
  8 19  1  0  0  0  0
  9  7  2  0  0  0  0
  9  5  1  0  0  0  0
 11 16  1  0  0  0  0
 11 14  2  0  0  0  0
 12 23  1  1  0  0  0
 13  5  1  0  0  0  0
 14 18  1  0  0  0  0
 15 20  1  1  0  0  0
 15  1  1  0  0  0  0
 16  2  2  0  0  0  0
 17  8  1  0  0  0  0
 18  6  1  0  0  0  0
 20 19  1  0  0  0  0
 21 17  1  1  0  0  0
 21 15  1  0  0  0  0
 23 24  2  0  0  0  0
 23 27  1  0  0  0  0
 24 25  1  0  0  0  0
 25 22  2  0  0  0  0
 26 22  1  0  0  0  0
 27 26  2  0  0  0  0
M  END
>  <MODEL>
4

>  <REMARK>
 VINA RESULT:      -8.9      3.020      4.508
  Name = 
  1 active torsions:
  status: ('A' for Active; 'I' for Inactive)
    1  A    between atoms: C_9  and  C_15
                            x       y       z     vdW  Elec       q    Type
                         _______ _______ _______ _____ _____    ______ ____

>  <TORSDO>
F 1

$$$$
=
 OpenBabel10272401063D

 27 31  0  0  1  0  0  0  0  0999 V2000
  184.8530  179.7900  140.3900 N   0  0  0  0  0  2  0  0  0  0  0  0
  186.7280  178.2400  140.5900 C   0  0  0  0  0  0  0  0  0  0  0  0
  186.0430  178.1900  138.2240 N   0  0  0  0  0  2  0  0  0  0  0  0
  190.6680  177.0610  139.4710 C   0  0  0  0  0  3  0  0  0  0  0  0
  191.0160  177.0030  138.1180 C   0  0  0  0  0  0  0  0  0  0  0  0
  187.8310  178.2590  141.6320 C   0  0  0  0  0  2  0  0  0  0  0  0
  188.7780  177.6970  137.5090 C   0  0  0  0  0  3  0  0  0  0  0  0
  182.6860  177.0620  139.5370 C   0  0  0  0  0  0  0  0  0  0  0  0
  190.0740  177.3240  137.1380 C   0  0  0  0  0  3  0  0  0  0  0  0
  182.0420  176.0200  139.8280 O   0  0  0  0  0  0  0  0  0  0  0  0
  188.4200  177.7630  138.8630 C   0  0  0  0  0  0  0  0  0  0  0  0
  185.3170  178.5630  141.0260 C   0  0  1  0  0  3  0  0  0  0  0  0
  192.3000  176.6260  137.7490 O   0  0  0  0  0  1  0  0  0  0  0  0
  189.3760  177.4500  139.8410 C   0  0  0  0  0  0  0  0  0  0  0  0
  184.1420  179.5150  139.1340 C   0  0  2  0  0  3  0  0  0  0  0  0
  187.0300  178.0790  139.2720 C   0  0  0  0  0  0  0  0  0  0  0  0
  184.0390  176.9300  138.9050 C   0  0  0  0  0  2  0  0  0  0  0  0
  189.0100  177.5090  141.2140 N   0  0  0  0  0  2  0  0  0  0  0  0
  182.1730  178.3080  139.9070 O   0  0  0  0  0  0  0  0  0  0  0  0
  182.6320  179.5250  139.3280 C   0  0  0  0  0  2  0  0  0  0  0  0
  184.5910  178.2550  138.3620 C   0  0  2  0  0  3  0  0  0  0  0  0
  184.6090  178.6590  145.2680 C   0  0  0  0  0  3  0  0  0  0  0  0
  185.0910  178.5990  142.5090 C   0  0  0  0  0  0  0  0  0  0  0  0
  183.9160  179.1740  143.0060 C   0  0  0  0  0  3  0  0  0  0  0  0
  183.6760  179.2060  144.3830 C   0  0  0  0  0  3  0  0  0  0  0  0
  185.7820  178.0790  144.7770 C   0  0  0  0  0  3  0  0  0  0  0  0
  186.0240  178.0460  143.4010 C   0  0  0  0  0  3  0  0  0  0  0  0
  1 12  1  0  0  0  0
  2 12  1  0  0  0  0
  2  6  1  0  0  0  0
  3 21  1  0  0  0  0
  3 16  1  0  0  0  0
  4 14  1  0  0  0  0
  5  4  2  0  0  0  0
  7 11  1  0  0  0  0
  8 10  2  0  0  0  0
  8 19  1  0  0  0  0
  9  7  2  0  0  0  0
  9  5  1  0  0  0  0
 11 16  1  0  0  0  0
 11 14  2  0  0  0  0
 12 23  1  1  0  0  0
 13  5  1  0  0  0  0
 14 18  1  0  0  0  0
 15 20  1  1  0  0  0
 15  1  1  0  0  0  0
 16  2  2  0  0  0  0
 17  8  1  0  0  0  0
 18  6  1  0  0  0  0
 20 19  1  0  0  0  0
 21 17  1  1  0  0  0
 21 15  1  0  0  0  0
 23 24  2  0  0  0  0
 23 27  1  0  0  0  0
 24 25  1  0  0  0  0
 25 22  2  0  0  0  0
 26 22  1  0  0  0  0
 27 26  2  0  0  0  0
M  END
>  <MODEL>
5

>  <REMARK>
 VINA RESULT:      -8.6      3.088      5.749
  Name = 
  1 active torsions:
  status: ('A' for Active; 'I' for Inactive)
    1  A    between atoms: C_9  and  C_15
                            x       y       z     vdW  Elec       q    Type
                         _______ _______ _______ _____ _____    ______ ____

>  <TORSDO>
F 1

$$$$
=
 OpenBabel10272401063D

 27 31  0  0  1  0  0  0  0  0999 V2000
  189.0140  176.1910  142.8510 N   0  0  0  0  0  2  0  0  0  0  0  0
  188.9890  177.2480  140.6500 C   0  0  0  0  0  0  0  0  0  0  0  0
  191.3300  176.6140  141.0830 N   0  0  0  0  0  2  0  0  0  0  0  0
  189.7110  177.0400  136.4560 C   0  0  0  0  0  3  0  0  0  0  0  0
  190.9280  176.5380  135.9850 C   0  0  0  0  0  0  0  0  0  0  0  0
  187.8170  177.3510  139.6910 C   0  0  0  0  0  2  0  0  0  0  0  0
  191.6710  176.1960  138.2650 C   0  0  0  0  0  3  0  0  0  0  0  0
  191.0580  178.8550  144.1110 C   0  0  0  0  0  0  0  0  0  0  0  0
  191.9050  176.1130  136.8880 C   0  0  0  0  0  3  0  0  0  0  0  0
  191.2320  180.0490  144.4710 O   0  0  0  0  0  0  0  0  0  0  0  0
  190.4510  176.6940  138.7460 C   0  0  0  0  0  0  0  0  0  0  0  0
  188.7300  177.4260  142.1290 C   0  0  1  0  0  3  0  0  0  0  0  0
  191.1650  176.4620  134.6200 O   0  0  0  0  0  1  0  0  0  0  0  0
  189.4710  177.1080  137.8320 C   0  0  0  0  0  0  0  0  0  0  0  0
  190.3970  176.1580  143.3450 C   0  0  2  0  0  3  0  0  0  0  0  0
  190.2150  176.8630  140.2000 C   0  0  0  0  0  0  0  0  0  0  0  0
  191.4500  178.4490  142.7220 C   0  0  0  0  0  2  0  0  0  0  0  0
  188.2370  177.6200  138.3210 N   0  0  0  0  0  2  0  0  0  0  0  0
  190.4080  177.9690  144.9740 O   0  0  0  0  0  0  0  0  0  0  0  0
  190.4800  176.5570  144.8120 C   0  0  0  0  0  2  0  0  0  0  0  0
  191.4370  176.9300  142.5050 C   0  0  2  0  0  3  0  0  0  0  0  0
  184.8690  178.9810  143.2160 C   0  0  0  0  0  3  0  0  0  0  0  0
  187.3760  177.9670  142.4880 C   0  0  0  0  0  0  0  0  0  0  0  0
  186.8310  177.6630  143.7400 C   0  0  0  0  0  3  0  0  0  0  0  0
  185.5790  178.1680  144.1030 C   0  0  0  0  0  3  0  0  0  0  0  0
  185.4110  179.2920  141.9650 C   0  0  0  0  0  3  0  0  0  0  0  0
  186.6630  178.7880  141.6010 C   0  0  0  0  0  3  0  0  0  0  0  0
  1 15  1  0  0  0  0
  2 12  1  0  0  0  0
  3 21  1  0  0  0  0
  4 14  1  0  0  0  0
  5  4  2  0  0  0  0
  5  9  1  0  0  0  0
  6  2  1  0  0  0  0
  7 11  1  0  0  0  0
  8 10  2  0  0  0  0
  8 19  1  0  0  0  0
  9  7  2  0  0  0  0
 11 16  1  0  0  0  0
 12 23  1  6  0  0  0
 12  1  1  0  0  0  0
 13  5  1  0  0  0  0
 14 18  1  0  0  0  0
 14 11  2  0  0  0  0
 15 20  1  1  0  0  0
 16  2  2  0  0  0  0
 16  3  1  0  0  0  0
 17  8  1  0  0  0  0
 18  6  1  0  0  0  0
 20 19  1  0  0  0  0
 21 17  1  6  0  0  0
 21 15  1  0  0  0  0
 22 25  1  0  0  0  0
 23 24  1  0  0  0  0
 24 25  2  0  0  0  0
 26 22  2  0  0  0  0
 27 26  1  0  0  0  0
 27 23  2  0  0  0  0
M  END
>  <MODEL>
6

>  <REMARK>
 VINA RESULT:      -8.4      1.687      2.319
  Name = 
  1 active torsions:
  status: ('A' for Active; 'I' for Inactive)
    1  A    between atoms: C_9  and  C_15
                            x       y       z     vdW  Elec       q    Type
                         _______ _______ _______ _____ _____    ______ ____

>  <TORSDO>
F 1

$$$$
=
 OpenBabel10272401063D

 27 31  0  0  1  0  0  0  0  0999 V2000
  188.1830  178.9810  137.9060 N   0  0  0  0  0  2  0  0  0  0  0  0
  188.0040  177.9620  140.1180 C   0  0  0  0  0  0  0  0  0  0  0  0
  190.2550  177.4060  139.2840 N   0  0  0  0  0  2  0  0  0  0  0  0
  189.4010  177.5920  144.1270 C   0  0  0  0  0  3  0  0  0  0  0  0
  190.7660  177.4210  144.3730 C   0  0  0  0  0  0  0  0  0  0  0  0
  187.1010  178.3920  141.2590 C   0  0  0  0  0  2  0  0  0  0  0  0
  191.2040  177.4710  141.9910 C   0  0  0  0  0  3  0  0  0  0  0  0
  188.4480  175.7250  136.4250 C   0  0  0  0  0  0  0  0  0  0  0  0
  191.6680  177.3640  143.3070 C   0  0  0  0  0  3  0  0  0  0  0  0
  187.9610  174.6150  136.0850 O   0  0  0  0  0  0  0  0  0  0  0  0
  189.8360  177.6490  141.7360 C   0  0  0  0  0  0  0  0  0  0  0  0
  187.4570  178.0040  138.7090 C   0  0  1  0  0  3  0  0  0  0  0  0
  191.2260  177.3070  145.6770 O   0  0  0  0  0  1  0  0  0  0  0  0
  188.9400  177.7160  142.8120 C   0  0  0  0  0  0  0  0  0  0  0  0
  189.3100  178.3650  137.1910 C   0  0  2  0  0  3  0  0  0  0  0  0
  189.3180  177.6850  140.3460 C   0  0  0  0  0  0  0  0  0  0  0  0
  189.2050  175.8240  137.7150 C   0  0  0  0  0  2  0  0  0  0  0  0
  187.5520  177.8880  142.5510 N   0  0  0  0  0  2  0  0  0  0  0  0
  188.1790  176.8560  135.6490 O   0  0  0  0  0  0  0  0  0  0  0  0
  188.9510  178.0480  135.7450 C   0  0  0  0  0  2  0  0  0  0  0  0
  189.9650  177.1480  137.8770 C   0  0  2  0  0  3  0  0  0  0  0  0
  183.1980  178.5140  138.3770 C   0  0  0  0  0  3  0  0  0  0  0  0
  185.9730  178.2030  138.5970 C   0  0  0  0  0  0  0  0  0  0  0  0
  185.2540  177.4530  137.6610 C   0  0  0  0  0  3  0  0  0  0  0  0
  183.8690  177.6090  137.5490 C   0  0  0  0  0  3  0  0  0  0  0  0
  183.9120  179.2630  139.3180 C   0  0  0  0  0  3  0  0  0  0  0  0
  185.2970  179.1070  139.4310 C   0  0  0  0  0  3  0  0  0  0  0  0
  1 12  1  0  0  0  0
  2 16  2  0  0  0  0
  2  6  1  0  0  0  0
  3 16  1  0  0  0  0
  4  5  1  0  0  0  0
  5 13  1  0  0  0  0
  6 18  1  0  0  0  0
  7  9  1  0  0  0  0
  8 17  1  0  0  0  0
  9  5  2  0  0  0  0
 10  8  2  0  0  0  0
 11  7  2  0  0  0  0
 11 14  1  0  0  0  0
 12 23  1  1  0  0  0
 12  2  1  0  0  0  0
 14  4  2  0  0  0  0
 15 20  1  6  0  0  0
 15 21  1  0  0  0  0
 15  1  1  0  0  0  0
 16 11  1  0  0  0  0
 18 14  1  0  0  0  0
 19 20  1  0  0  0  0
 19  8  1  0  0  0  0
 21 17  1  1  0  0  0
 21  3  1  0  0  0  0
 22 26  1  0  0  0  0
 23 27  1  0  0  0  0
 24 23  2  0  0  0  0
 25 24  1  0  0  0  0
 25 22  2  0  0  0  0
 26 27  2  0  0  0  0
M  END
>  <MODEL>
7

>  <REMARK>
 VINA RESULT:      -8.3      1.976      6.625
  Name = 
  1 active torsions:
  status: ('A' for Active; 'I' for Inactive)
    1  A    between atoms: C_9  and  C_15
                            x       y       z     vdW  Elec       q    Type
                         _______ _______ _______ _____ _____    ______ ____

>  <TORSDO>
F 1

$$$$
=
 OpenBabel10272401063D

 27 31  0  0  1  0  0  0  0  0999 V2000
  186.9550  178.9110  137.3540 N   0  0  0  0  0  2  0  0  0  0  0  0
  187.2300  178.0310  139.6150 C   0  0  0  0  0  0  0  0  0  0  0  0
  189.1860  177.2560  138.3330 N   0  0  0  0  0  2  0  0  0  0  0  0
  189.4920  177.7700  143.2170 C   0  0  0  0  0  3  0  0  0  0  0  0
  190.8640  177.5060  143.1570 C   0  0  0  0  0  0  0  0  0  0  0  0
  186.6450  178.5910  140.8980 C   0  0  0  0  0  2  0  0  0  0  0  0
  190.7390  177.3930  140.7410 C   0  0  0  0  0  3  0  0  0  0  0  0
  186.6630  175.5690  136.0850 C   0  0  0  0  0  0  0  0  0  0  0  0
  191.4880  177.3220  141.9210 C   0  0  0  0  0  3  0  0  0  0  0  0
  186.0410  174.4840  135.9440 O   0  0  0  0  0  0  0  0  0  0  0  0
  189.3640  177.6630  140.7910 C   0  0  0  0  0  0  0  0  0  0  0  0
  186.3750  178.0380  138.3680 C   0  0  1  0  0  3  0  0  0  0  0  0
  191.6060  177.4280  144.3270 O   0  0  0  0  0  1  0  0  0  0  0  0
  188.7480  177.8580  142.0360 C   0  0  0  0  0  0  0  0  0  0  0  0
  187.8440  178.1720  136.4460 C   0  0  2  0  0  3  0  0  0  0  0  0
  188.5400  177.6650  139.5570 C   0  0  0  0  0  0  0  0  0  0  0  0
  187.7030  175.6780  137.1590 C   0  0  0  0  0  2  0  0  0  0  0  0
  187.3510  178.1240  142.0860 N   0  0  0  0  0  2  0  0  0  0  0  0
  186.2930  176.6740  135.3130 O   0  0  0  0  0  0  0  0  0  0  0  0
  187.1400  177.8060  135.1470 C   0  0  0  0  0  2  0  0  0  0  0  0
  188.5620  176.9460  137.0490 C   0  0  2  0  0  3  0  0  0  0  0  0
  182.2030  178.8670  139.0130 C   0  0  0  0  0  3  0  0  0  0  0  0
  184.9210  178.3460  138.5830 C   0  0  0  0  0  0  0  0  0  0  0  0
  183.9910  177.3020  138.5440 C   0  0  0  0  0  3  0  0  0  0  0  0
  182.6330  177.5620  138.7560 C   0  0  0  0  0  3  0  0  0  0  0  0
  183.1290  179.9130  139.0590 C   0  0  0  0  0  3  0  0  0  0  0  0
  184.4870  179.6550  138.8460 C   0  0  0  0  0  3  0  0  0  0  0  0
  1 12  1  0  0  0  0
  2  6  1  0  0  0  0
  3 16  1  0  0  0  0
  5  4  1  0  0  0  0
  5 13  1  0  0  0  0
  6 18  1  0  0  0  0
  7 11  2  0  0  0  0
  7  9  1  0  0  0  0
  8 17  1  0  0  0  0
  9  5  2  0  0  0  0
 10  8  2  0  0  0  0
 11 14  1  0  0  0  0
 12 23  1  1  0  0  0
 12  2  1  0  0  0  0
 14 18  1  0  0  0  0
 14  4  2  0  0  0  0
 15 20  1  6  0  0  0
 15 21  1  0  0  0  0
 15  1  1  0  0  0  0
 16  2  2  0  0  0  0
 16 11  1  0  0  0  0
 19  8  1  0  0  0  0
 20 19  1  0  0  0  0
 21 17  1  1  0  0  0
 21  3  1  0  0  0  0
 22 26  1  0  0  0  0
 23 27  1  0  0  0  0
 24 23  2  0  0  0  0
 24 25  1  0  0  0  0
 25 22  2  0  0  0  0
 27 26  2  0  0  0  0
M  END
>  <MODEL>
8

>  <REMARK>
 VINA RESULT:      -8.1      2.334      6.806
  Name = 
  1 active torsions:
  status: ('A' for Active; 'I' for Inactive)
    1  A    between atoms: C_9  and  C_15
                            x       y       z     vdW  Elec       q    Type
                         _______ _______ _______ _____ _____    ______ ____

>  <TORSDO>
F 1

$$$$
=
 OpenBabel10272401063D

 27 31  0  0  1  0  0  0  0  0999 V2000
  190.0380  177.0870  136.0260 N   0  0  0  0  0  2  0  0  0  0  0  0
  188.9820  177.0650  138.2270 C   0  0  0  0  0  0  0  0  0  0  0  0
  191.2080  176.0530  138.5240 N   0  0  0  0  0  2  0  0  0  0  0  0
  188.9750  178.2430  142.3220 C   0  0  0  0  0  3  0  0  0  0  0  0
  190.1310  178.0840  143.0920 C   0  0  0  0  0  0  0  0  0  0  0  0
  187.8850  177.9850  138.7310 C   0  0  0  0  0  2  0  0  0  0  0  0
  191.2760  177.1350  141.1800 C   0  0  0  0  0  3  0  0  0  0  0  0
  190.0490  173.5000  135.9930 C   0  0  0  0  0  0  0  0  0  0  0  0
  191.2820  177.5350  142.5210 C   0  0  0  0  0  3  0  0  0  0  0  0
  189.4670  172.3870  135.9140 O   0  0  0  0  0  0  0  0  0  0  0  0
  190.1220  177.2960  140.3990 C   0  0  0  0  0  0  0  0  0  0  0  0
  188.9130  176.5740  136.7990 C   0  0  1  0  0  3  0  0  0  0  0  0
  190.1360  178.4730  144.4240 O   0  0  0  0  0  1  0  0  0  0  0  0
  188.9750  177.8590  140.9780 C   0  0  0  0  0  0  0  0  0  0  0  0
  191.1730  176.1520  136.0360 C   0  0  2  0  0  3  0  0  0  0  0  0
  190.0730  176.8070  139.0000 C   0  0  0  0  0  0  0  0  0  0  0  0
  190.3790  174.0550  137.3460 C   0  0  0  0  0  2  0  0  0  0  0  0
  187.8030  178.0140  140.1870 N   0  0  0  0  0  2  0  0  0  0  0  0
  190.2750  174.2370  134.8280 O   0  0  0  0  0  0  0  0  0  0  0  0
  191.2150  175.3060  134.7710 C   0  0  0  0  0  2  0  0  0  0  0  0
  191.3150  175.2700  137.2960 C   0  0  2  0  0  3  0  0  0  0  0  0
  185.2140  177.2930  134.7220 C   0  0  0  0  0  3  0  0  0  0  0  0
  187.6110  176.8210  136.0920 C   0  0  0  0  0  0  0  0  0  0  0  0
  187.5520  177.8000  135.0950 C   0  0  0  0  0  3  0  0  0  0  0  0
  186.3560  178.0380  134.4130 C   0  0  0  0  0  3  0  0  0  0  0  0
  185.2690  176.3090  135.7140 C   0  0  0  0  0  3  0  0  0  0  0  0
  186.4650  176.0700  136.3970 C   0  0  0  0  0  3  0  0  0  0  0  0
  1 15  1  0  0  0  0
  1 12  1  0  0  0  0
  2  6  1  0  0  0  0
  2 16  2  0  0  0  0
  3 16  1  0  0  0  0
  4  5  1  0  0  0  0
  5 13  1  0  0  0  0
  6 18  1  0  0  0  0
  7  9  1  0  0  0  0
  8 17  1  0  0  0  0
  9  5  2  0  0  0  0
 10  8  2  0  0  0  0
 11 14  1  0  0  0  0
 11  7  2  0  0  0  0
 12 23  1  6  0  0  0
 12  2  1  0  0  0  0
 14  4  2  0  0  0  0
 15 20  1  6  0  0  0
 15 21  1  0  0  0  0
 16 11  1  0  0  0  0
 18 14  1  0  0  0  0
 19  8  1  0  0  0  0
 20 19  1  0  0  0  0
 21 17  1  1  0  0  0
 21  3  1  0  0  0  0
 22 26  1  0  0  0  0
 23 27  1  0  0  0  0
 24 23  2  0  0  0  0
 25 22  2  0  0  0  0
 25 24  1  0  0  0  0
 26 27  2  0  0  0  0
M  END
>  <MODEL>
9

>  <REMARK>
 VINA RESULT:      -7.6      2.849      7.452
  Name = 
  1 active torsions:
  status: ('A' for Active; 'I' for Inactive)
    1  A    between atoms: C_9  and  C_15
                            x       y       z     vdW  Elec       q    Type
                         _______ _______ _______ _____ _____    ______ ____

>  <TORSDO>
F 1

$$$$
