=
 OpenBabel10272402093D

 32 36  0  0  1  0  0  0  0  0999 V2000
  181.9110  177.9690  138.2330 C   0  0  2  0  0  3  0  0  0  0  0  0
  181.8110  174.4370  135.4070 C   0  0  0  0  0  2  0  0  0  0  0  0
  182.9900  177.6440  137.1800 C   0  0  1  0  0  3  0  0  0  0  0  0
  183.4930  173.5340  136.5160 O   0  0  0  0  0  0  0  0  0  0  0  0
  183.4810  174.8580  136.8340 C   0  0  0  0  0  0  0  0  0  0  0  0
  184.3010  177.0130  137.7230 C   0  0  1  0  0  3  0  0  0  0  0  0
  184.4010  175.5150  137.5330 C   0  0  0  0  0  3  0  0  0  0  0  0
  182.3840  175.4740  136.2520 N   0  0  0  0  0  0  0  0  0  0  0  0
  182.4720  173.2010  135.6970 O   0  0  0  0  0  0  0  0  0  0  0  0
  182.3820  176.9020  135.9810 C   0  0  0  0  0  2  0  0  0  0  0  0
  185.5160  177.6800  137.0960 C   0  0  0  0  0  2  0  0  0  0  0  0
  186.5690  178.0060  138.1420 C   0  0  0  0  0  2  0  0  0  0  0  0
  187.8990  178.3170  137.4800 C   0  0  0  0  0  1  0  0  0  0  0  0
  181.5070  179.4630  138.2610 C   0  0  0  0  0  0  0  0  0  0  0  0
  182.6130  180.3170  138.8550 C   0  0  0  0  0  1  0  0  0  0  0  0
  180.2320  179.6740  139.0590 C   0  0  0  0  0  1  0  0  0  0  0  0
  181.2350  179.9510  136.8490 C   0  0  0  0  0  1  0  0  0  0  0  0
  180.9080  176.3220  139.9550 N   0  0  0  0  0  0  0  0  0  0  0  0
  182.1470  175.8790  139.5110 O   0  0  0  0  0  0  0  0  0  0  0  0
  181.9960  177.2270  139.6060 C   0  0  1  0  0  0  0  0  0  0  0  0
  182.5690  178.9780  142.9720 C   0  0  0  0  0  3  0  0  0  0  0  0
  184.7040  178.4080  141.9960 C   0  0  0  0  0  3  0  0  0  0  0  0
  182.6510  177.8400  140.8220 C   0  0  0  0  0  0  0  0  0  0  0  0
  183.9680  178.9810  143.0370 C   0  0  0  0  0  0  0  0  0  0  0  0
  184.0500  177.8530  140.8950 C   0  0  0  0  0  3  0  0  0  0  0  0
  181.9090  178.4280  141.8700 C   0  0  0  0  0  0  0  0  0  0  0  0
  180.5230  178.4920  141.8250 O   0  0  0  0  0  1  0  0  0  0  0  0
  184.6660  179.5260  144.2470 C   0  0  0  0  0  3  0  0  0  0  0  0
  185.5740  178.4710  144.8580 C   0  0  0  0  0  2  0  0  0  0  0  0
  184.2360  178.7710  145.4940 C   0  0  0  0  0  2  0  0  0  0  0  0
  179.9820  176.0720  138.8570 C   0  0  0  0  0  2  0  0  0  0  0  0
  180.0410  174.7260  138.4980 O   0  0  0  0  0  1  0  0  0  0  0  0
  1 14  1  1  0  0  0
  2  9  1  0  0  0  0
  2  8  1  0  0  0  0
  3  6  1  0  0  0  0
  3  1  1  1  0  0  0
  4  5  1  0  0  0  0
  5  7  2  0  0  0  0
  6 11  1  6  0  0  0
  7  6  1  0  0  0  0
  8  5  1  0  0  0  0
  9  4  1  0  0  0  0
 10  8  1  0  0  0  0
 10  3  1  0  0  0  0
 11 12  1  0  0  0  0
 13 12  1  0  0  0  0
 14 15  1  0  0  0  0
 14 16  1  0  0  0  0
 17 14  1  0  0  0  0
 19 20  1  0  0  0  0
 19 18  1  0  0  0  0
 20  1  1  6  0  0  0
 20 18  1  0  0  0  0
 20 23  1  0  0  0  0
 21 24  1  0  0  0  0
 22 24  2  0  0  0  0
 23 25  2  0  0  0  0
 23 26  1  0  0  0  0
 24 28  1  0  0  0  0
 25 22  1  0  0  0  0
 26 21  2  0  0  0  0
 27 26  1  0  0  0  0
 28 29  1  0  0  0  0
 28 30  1  0  0  0  0
 29 30  1  0  0  0  0
 31 18  1  0  0  0  0
 32 31  1  0  0  0  0
M  END
>  <MODEL>
1

>  <REMARK>
 VINA RESULT:      -5.7      0.000      0.000
  Name = 
  8 active torsions:
  status: ('A' for Active; 'I' for Inactive)
    1  A    between atoms: N_1  and  C_4
    2  A    between atoms: C_2  and  C_5
    3  A    between atoms: C_5  and  C_10
    4  A    between atoms: C_5  and  C_27
    5  A    between atoms: C_6  and  C_13
    6  A    between atoms: C_6  and  C_25
    7  A    between atoms: C_7  and  C_19
    8  A    between atoms: C_16  and  C_27
                            x       y       z     vdW  Elec       q    Type
                         _______ _______ _______ _____ _____    ______ ____

>  <TORSDO>
F 8

$$$$
=
 OpenBabel10272402093D

 32 36  0  0  1  0  0  0  0  0999 V2000
  188.2070  176.3900  135.9150 C   0  0  2  0  0  3  0  0  0  0  0  0
  187.1850  172.2650  134.3630 C   0  0  0  0  0  2  0  0  0  0  0  0
  189.2350  175.3040  135.5380 C   0  0  1  0  0  3  0  0  0  0  0  0
  187.8860  171.4010  136.2710 O   0  0  0  0  0  0  0  0  0  0  0  0
  188.4190  172.6520  136.1880 C   0  0  0  0  0  0  0  0  0  0  0  0
  189.8980  174.5560  136.7260 C   0  0  1  0  0  3  0  0  0  0  0  0
  189.3230  173.1840  137.0030 C   0  0  0  0  0  3  0  0  0  0  0  0
  187.9390  173.2970  135.0590 N   0  0  0  0  0  0  0  0  0  0  0  0
  187.0810  171.1240  135.2220 O   0  0  0  0  0  0  0  0  0  0  0  0
  188.6830  174.3820  134.4410 C   0  0  0  0  0  2  0  0  0  0  0  0
  191.4000  174.4360  136.5110 C   0  0  0  0  0  2  0  0  0  0  0  0
  192.1730  174.9580  137.7120 C   0  0  0  0  0  2  0  0  0  0  0  0
  192.5860  176.4020  137.4930 C   0  0  0  0  0  1  0  0  0  0  0  0
  188.6450  177.8200  135.5140 C   0  0  0  0  0  0  0  0  0  0  0  0
  187.4470  178.6760  135.1450 C   0  0  0  0  0  1  0  0  0  0  0  0
  189.6150  177.7920  134.3460 C   0  0  0  0  0  1  0  0  0  0  0  0
  189.3650  178.4840  136.6750 C   0  0  0  0  0  1  0  0  0  0  0  0
  185.9990  176.1280  137.2330 N   0  0  0  0  0  0  0  0  0  0  0  0
  186.8280  175.0330  137.4360 O   0  0  0  0  0  0  0  0  0  0  0  0
  187.4520  176.2300  137.2740 C   0  0  1  0  0  0  0  0  0  0  0  0
  187.8240  178.4780  140.3610 C   0  0  0  0  0  3  0  0  0  0  0  0
  189.6160  176.8580  140.3340 C   0  0  0  0  0  3  0  0  0  0  0  0
  187.9520  176.8470  138.5590 C   0  0  0  0  0  0  0  0  0  0  0  0
  188.9800  177.9430  140.9440 C   0  0  0  0  0  0  0  0  0  0  0  0
  189.1110  176.3230  139.1480 C   0  0  0  0  0  3  0  0  0  0  0  0
  187.3170  177.9500  139.1710 C   0  0  0  0  0  0  0  0  0  0  0  0
  186.1970  178.5430  138.6040 O   0  0  0  0  0  1  0  0  0  0  0  0
  189.4860  178.4820  142.2480 C   0  0  0  0  0  3  0  0  0  0  0  0
  190.4440  177.4950  142.8960 C   0  0  0  0  0  2  0  0  0  0  0  0
  189.0240  177.6060  143.4000 C   0  0  0  0  0  2  0  0  0  0  0  0
  185.4610  175.9730  135.8870 C   0  0  0  0  0  2  0  0  0  0  0  0
  184.8720  174.7150  135.7630 O   0  0  0  0  0  1  0  0  0  0  0  0
  1 14  1  1  0  0  0
  2  8  1  0  0  0  0
  2  9  1  0  0  0  0
  3  1  1  1  0  0  0
  3  6  1  0  0  0  0
  5  4  1  0  0  0  0
  5  7  2  0  0  0  0
  6 11  1  6  0  0  0
  6  7  1  0  0  0  0
  8  5  1  0  0  0  0
  9  4  1  0  0  0  0
 10  8  1  0  0  0  0
 10  3  1  0  0  0  0
 11 12  1  0  0  0  0
 13 12  1  0  0  0  0
 14 17  1  0  0  0  0
 15 14  1  0  0  0  0
 16 14  1  0  0  0  0
 18 20  1  0  0  0  0
 18 19  1  0  0  0  0
 20  1  1  6  0  0  0
 20 19  1  0  0  0  0
 20 23  1  0  0  0  0
 21 24  1  0  0  0  0
 22 24  2  0  0  0  0
 23 25  2  0  0  0  0
 23 26  1  0  0  0  0
 24 28  1  0  0  0  0
 25 22  1  0  0  0  0
 26 21  2  0  0  0  0
 27 26  1  0  0  0  0
 28 29  1  0  0  0  0
 28 30  1  0  0  0  0
 29 30  1  0  0  0  0
 31 18  1  0  0  0  0
 32 31  1  0  0  0  0
M  END
>  <MODEL>
2

>  <REMARK>
 VINA RESULT:      -4.2      4.555      6.246
  Name = 
  8 active torsions:
  status: ('A' for Active; 'I' for Inactive)
    1  A    between atoms: N_1  and  C_4
    2  A    between atoms: C_2  and  C_5
    3  A    between atoms: C_5  and  C_10
    4  A    between atoms: C_5  and  C_27
    5  A    between atoms: C_6  and  C_13
    6  A    between atoms: C_6  and  C_25
    7  A    between atoms: C_7  and  C_19
    8  A    between atoms: C_16  and  C_27
                            x       y       z     vdW  Elec       q    Type
                         _______ _______ _______ _____ _____    ______ ____

>  <TORSDO>
F 8

$$$$
=
 OpenBabel10272402093D

 32 36  0  0  1  0  0  0  0  0999 V2000
  181.7290  176.9160  137.8170 C   0  0  2  0  0  3  0  0  0  0  0  0
  179.9820  181.0690  138.2260 C   0  0  0  0  0  2  0  0  0  0  0  0
  181.7050  177.7450  139.1170 C   0  0  1  0  0  3  0  0  0  0  0  0
  182.0220  181.8760  138.4710 O   0  0  0  0  0  0  0  0  0  0  0  0
  182.0970  180.5410  138.7260 C   0  0  0  0  0  0  0  0  0  0  0  0
  183.0490  178.4060  139.5260 C   0  0  1  0  0  3  0  0  0  0  0  0
  183.1480  179.8800  139.1990 C   0  0  0  0  0  3  0  0  0  0  0  0
  180.8660  179.9450  138.4900 N   0  0  0  0  0  0  0  0  0  0  0  0
  180.7780  182.2540  138.1070 O   0  0  0  0  0  0  0  0  0  0  0  0
  180.5010  178.6980  139.1400 C   0  0  0  0  0  2  0  0  0  0  0  0
  183.3160  178.2020  141.0100 C   0  0  0  0  0  2  0  0  0  0  0  0
  184.6620  178.7830  141.4140 C   0  0  0  0  0  2  0  0  0  0  0  0
  184.6870  179.0820  142.9010 C   0  0  0  0  0  1  0  0  0  0  0  0
  181.7330  175.3870  138.0600 C   0  0  0  0  0  0  0  0  0  0  0  0
  183.1170  174.8990  138.4490 C   0  0  0  0  0  1  0  0  0  0  0  0
  181.2670  174.6320  136.8280 C   0  0  0  0  0  1  0  0  0  0  0  0
  180.7730  175.0400  139.1840 C   0  0  0  0  0  1  0  0  0  0  0  0
  181.9270  177.7290  135.3710 N   0  0  0  0  0  0  0  0  0  0  0  0
  182.3130  178.7270  136.2560 O   0  0  0  0  0  0  0  0  0  0  0  0
  182.5990  177.4530  136.6350 C   0  0  1  0  0  0  0  0  0  0  0  0
  185.8100  175.7820  135.3610 C   0  0  0  0  0  3  0  0  0  0  0  0
  186.3620  177.3160  137.1440 C   0  0  0  0  0  3  0  0  0  0  0  0
  184.0450  177.0600  136.4460 C   0  0  0  0  0  0  0  0  0  0  0  0
  186.7690  176.3760  136.1920 C   0  0  0  0  0  0  0  0  0  0  0  0
  185.0120  177.6450  137.2760 C   0  0  0  0  0  3  0  0  0  0  0  0
  184.4570  176.1040  135.4910 C   0  0  0  0  0  0  0  0  0  0  0  0
  183.5370  175.4530  134.6810 O   0  0  0  0  0  1  0  0  0  0  0  0
  188.2230  176.0640  136.0090 C   0  0  0  0  0  3  0  0  0  0  0  0
  189.0820  177.2120  136.5150 C   0  0  0  0  0  2  0  0  0  0  0  0
  188.8570  177.0390  135.0310 C   0  0  0  0  0  2  0  0  0  0  0  0
  180.4730  177.6650  135.4560 C   0  0  0  0  0  2  0  0  0  0  0  0
  179.9820  176.8680  134.4220 O   0  0  0  0  0  1  0  0  0  0  0  0
  1 14  1  1  0  0  0
  2  8  1  0  0  0  0
  3  1  1  6  0  0  0
  3 10  1  0  0  0  0
  3  6  1  0  0  0  0
  4  5  1  0  0  0  0
  5  7  2  0  0  0  0
  6 11  1  1  0  0  0
  7  6  1  0  0  0  0
  8  5  1  0  0  0  0
  8 10  1  0  0  0  0
  9  2  1  0  0  0  0
  9  4  1  0  0  0  0
 11 12  1  0  0  0  0
 12 13  1  0  0  0  0
 14 15  1  0  0  0  0
 14 17  1  0  0  0  0
 16 14  1  0  0  0  0
 18 31  1  0  0  0  0
 18 19  1  0  0  0  0
 18 20  1  0  0  0  0
 19 20  1  0  0  0  0
 20  1  1  1  0  0  0
 21 26  2  0  0  0  0
 21 24  1  0  0  0  0
 22 25  1  0  0  0  0
 23 20  1  0  0  0  0
 23 25  2  0  0  0  0
 24 22  2  0  0  0  0
 26 23  1  0  0  0  0
 27 26  1  0  0  0  0
 28 24  1  0  0  0  0
 28 29  1  0  0  0  0
 30 28  1  0  0  0  0
 30 29  1  0  0  0  0
 32 31  1  0  0  0  0
M  END
>  <MODEL>
3

>  <REMARK>
 VINA RESULT:      -4.0      2.405      6.241
  Name = 
  8 active torsions:
  status: ('A' for Active; 'I' for Inactive)
    1  A    between atoms: N_1  and  C_4
    2  A    between atoms: C_2  and  C_5
    3  A    between atoms: C_5  and  C_10
    4  A    between atoms: C_5  and  C_27
    5  A    between atoms: C_6  and  C_13
    6  A    between atoms: C_6  and  C_25
    7  A    between atoms: C_7  and  C_19
    8  A    between atoms: C_16  and  C_27
                            x       y       z     vdW  Elec       q    Type
                         _______ _______ _______ _____ _____    ______ ____

>  <TORSDO>
F 8

$$$$
=
 OpenBabel10272402093D

 32 36  0  0  1  0  0  0  0  0999 V2000
  189.7370  177.3970  143.9300 C   0  0  2  0  0  3  0  0  0  0  0  0
  189.0510  178.3310  148.3030 C   0  0  0  0  0  2  0  0  0  0  0  0
  188.5380  178.1890  144.4910 C   0  0  1  0  0  3  0  0  0  0  0  0
  187.3440  176.9300  148.3090 O   0  0  0  0  0  0  0  0  0  0  0  0
  187.5900  177.2420  147.0060 C   0  0  0  0  0  0  0  0  0  0  0  0
  187.1940  177.4170  144.5740 C   0  0  1  0  0  3  0  0  0  0  0  0
  186.8450  176.9120  145.9570 C   0  0  0  0  0  3  0  0  0  0  0  0
  188.7190  178.0420  146.9160 N   0  0  0  0  0  0  0  0  0  0  0  0
  188.2300  177.5130  149.1450 O   0  0  0  0  0  0  0  0  0  0  0  0
  188.9220  178.9270  145.7810 C   0  0  0  0  0  2  0  0  0  0  0  0
  186.0510  178.2740  144.0500 C   0  0  0  0  0  2  0  0  0  0  0  0
  185.2020  178.8180  145.1880 C   0  0  0  0  0  2  0  0  0  0  0  0
  183.7340  178.8130  144.8050 C   0  0  0  0  0  1  0  0  0  0  0  0
  191.0800  178.1600  144.0290 C   0  0  0  0  0  0  0  0  0  0  0  0
  190.8530  179.6600  144.0950 C   0  0  0  0  0  1  0  0  0  0  0  0
  191.9820  177.8460  142.8480 C   0  0  0  0  0  1  0  0  0  0  0  0
  191.8250  177.7360  145.2820 C   0  0  0  0  0  1  0  0  0  0  0  0
  190.1060  175.2140  142.5960 N   0  0  0  0  0  0  0  0  0  0  0  0
  188.7560  175.4160  142.8490 O   0  0  0  0  0  0  0  0  0  0  0  0
  189.4970  176.5370  142.6470 C   0  0  1  0  0  0  0  0  0  0  0  0
  190.0530  177.5320  138.9830 C   0  0  0  0  0  3  0  0  0  0  0  0
  188.0340  178.5810  139.7970 C   0  0  0  0  0  3  0  0  0  0  0  0
  189.3320  177.1510  141.2760 C   0  0  0  0  0  0  0  0  0  0  0  0
  188.9480  178.3630  138.7600 C   0  0  0  0  0  0  0  0  0  0  0  0
  188.2330  177.9870  141.0450 C   0  0  0  0  0  3  0  0  0  0  0  0
  190.2590  176.9400  140.2320 C   0  0  0  0  0  0  0  0  0  0  0  0
  191.3950  176.1650  140.4210 O   0  0  0  0  0  1  0  0  0  0  0  0
  188.7070  178.9520  137.4030 C   0  0  0  0  0  3  0  0  0  0  0  0
  187.2830  178.6760  136.9480 C   0  0  0  0  0  2  0  0  0  0  0  0
  188.4230  177.8540  136.3910 C   0  0  0  0  0  2  0  0  0  0  0  0
  190.6870  174.7890  143.8640 C   0  0  0  0  0  2  0  0  0  0  0  0
  192.0690  174.6620  143.7220 O   0  0  0  0  0  1  0  0  0  0  0  0
  1 14  1  6  0  0  0
  2  9  1  0  0  0  0
  3  1  1  1  0  0  0
  3  6  1  0  0  0  0
  3 10  1  0  0  0  0
  4  9  1  0  0  0  0
  5  4  1  0  0  0  0
  6 11  1  1  0  0  0
  6  7  1  0  0  0  0
  7  5  2  0  0  0  0
  8  5  1  0  0  0  0
  8  2  1  0  0  0  0
 10  8  1  0  0  0  0
 11 12  1  0  0  0  0
 13 12  1  0  0  0  0
 14 15  1  0  0  0  0
 14 17  1  0  0  0  0
 16 14  1  0  0  0  0
 18 20  1  0  0  0  0
 18 19  1  0  0  0  0
 18 31  1  0  0  0  0
 20 19  1  0  0  0  0
 20  1  1  1  0  0  0
 21 26  1  0  0  0  0
 22 25  2  0  0  0  0
 23 20  1  0  0  0  0
 24 21  2  0  0  0  0
 24 22  1  0  0  0  0
 25 23  1  0  0  0  0
 26 27  1  0  0  0  0
 26 23  2  0  0  0  0
 28 24  1  0  0  0  0
 29 28  1  0  0  0  0
 30 29  1  0  0  0  0
 30 28  1  0  0  0  0
 32 31  1  0  0  0  0
M  END
>  <MODEL>
4

>  <REMARK>
 VINA RESULT:      -4.0      5.818     10.104
  Name = 
  8 active torsions:
  status: ('A' for Active; 'I' for Inactive)
    1  A    between atoms: N_1  and  C_4
    2  A    between atoms: C_2  and  C_5
    3  A    between atoms: C_5  and  C_10
    4  A    between atoms: C_5  and  C_27
    5  A    between atoms: C_6  and  C_13
    6  A    between atoms: C_6  and  C_25
    7  A    between atoms: C_7  and  C_19
    8  A    between atoms: C_16  and  C_27
                            x       y       z     vdW  Elec       q    Type
                         _______ _______ _______ _____ _____    ______ ____

>  <TORSDO>
F 8

$$$$
=
 OpenBabel10272402093D

 32 36  0  0  1  0  0  0  0  0999 V2000
  184.1720  177.4960  139.2620 C   0  0  2  0  0  3  0  0  0  0  0  0
  184.2670  173.7250  136.7650 C   0  0  0  0  0  2  0  0  0  0  0  0
  184.6890  177.4050  137.8120 C   0  0  1  0  0  3  0  0  0  0  0  0
  186.4710  173.7190  136.9030 O   0  0  0  0  0  0  0  0  0  0  0  0
  186.0630  174.9800  137.2150 C   0  0  0  0  0  0  0  0  0  0  0  0
  186.2320  177.4080  137.6400 C   0  0  1  0  0  3  0  0  0  0  0  0
  186.8390  176.0440  137.3940 C   0  0  0  0  0  3  0  0  0  0  0  0
  184.6780  175.0350  137.2480 N   0  0  0  0  0  0  0  0  0  0  0  0
  185.4280  172.8920  136.6740 O   0  0  0  0  0  0  0  0  0  0  0  0
  183.9710  176.2870  137.0420 C   0  0  0  0  0  2  0  0  0  0  0  0
  186.6440  178.3490  136.5170 C   0  0  0  0  0  2  0  0  0  0  0  0
  188.1320  178.2430  136.2240 C   0  0  0  0  0  2  0  0  0  0  0  0
  188.9300  179.0610  137.2210 C   0  0  0  0  0  1  0  0  0  0  0  0
  182.6460  177.2700  139.3880 C   0  0  0  0  0  0  0  0  0  0  0  0
  181.9110  177.8140  138.1760 C   0  0  0  0  0  1  0  0  0  0  0  0
  182.0930  177.9260  140.6410 C   0  0  0  0  0  1  0  0  0  0  0  0
  182.3510  175.7850  139.4950 C   0  0  0  0  0  1  0  0  0  0  0  0
  184.8050  179.9600  139.7240 N   0  0  0  0  0  0  0  0  0  0  0  0
  183.9320  179.4840  140.6930 O   0  0  0  0  0  0  0  0  0  0  0  0
  184.8120  178.5790  140.1900 C   0  0  1  0  0  0  0  0  0  0  0  0
  186.9510  177.7530  143.2670 C   0  0  0  0  0  3  0  0  0  0  0  0
  188.3900  178.0310  141.3470 C   0  0  0  0  0  3  0  0  0  0  0  0
  185.9830  178.2820  141.0970 C   0  0  0  0  0  0  0  0  0  0  0  0
  188.2360  177.7650  142.7110 C   0  0  0  0  0  0  0  0  0  0  0  0
  187.2740  178.2960  140.5520 C   0  0  0  0  0  3  0  0  0  0  0  0
  185.8300  178.0230  142.4770 C   0  0  0  0  0  0  0  0  0  0  0  0
  184.5810  178.0490  143.0820 O   0  0  0  0  0  1  0  0  0  0  0  0
  189.4270  177.4220  143.5550 C   0  0  0  0  0  3  0  0  0  0  0  0
  189.2360  177.9270  144.9760 C   0  0  0  0  0  2  0  0  0  0  0  0
  190.1280  178.6870  144.0230 C   0  0  0  0  0  2  0  0  0  0  0  0
  183.9940  180.1690  138.5310 C   0  0  0  0  0  2  0  0  0  0  0  0
  183.0160  181.1270  138.7960 O   0  0  0  0  0  1  0  0  0  0  0  0
  1 14  1  6  0  0  0
  2  8  1  0  0  0  0
  3  1  1  1  0  0  0
  4  5  1  0  0  0  0
  5  8  1  0  0  0  0
  5  7  2  0  0  0  0
  6 11  1  6  0  0  0
  6  3  1  0  0  0  0
  7  6  1  0  0  0  0
  9  2  1  0  0  0  0
  9  4  1  0  0  0  0
 10  8  1  0  0  0  0
 10  3  1  0  0  0  0
 12 11  1  0  0  0  0
 12 13  1  0  0  0  0
 14 17  1  0  0  0  0
 14 16  1  0  0  0  0
 15 14  1  0  0  0  0
 18 20  1  0  0  0  0
 18 19  1  0  0  0  0
 20  1  1  6  0  0  0
 20 19  1  0  0  0  0
 20 23  1  0  0  0  0
 22 24  2  0  0  0  0
 23 26  1  0  0  0  0
 24 21  1  0  0  0  0
 24 28  1  0  0  0  0
 25 23  2  0  0  0  0
 25 22  1  0  0  0  0
 26 27  1  0  0  0  0
 26 21  2  0  0  0  0
 28 30  1  0  0  0  0
 28 29  1  0  0  0  0
 30 29  1  0  0  0  0
 31 32  1  0  0  0  0
 31 18  1  0  0  0  0
M  END
>  <MODEL>
5

>  <REMARK>
 VINA RESULT:      -3.9      2.640      3.757
  Name = 
  8 active torsions:
  status: ('A' for Active; 'I' for Inactive)
    1  A    between atoms: N_1  and  C_4
    2  A    between atoms: C_2  and  C_5
    3  A    between atoms: C_5  and  C_10
    4  A    between atoms: C_5  and  C_27
    5  A    between atoms: C_6  and  C_13
    6  A    between atoms: C_6  and  C_25
    7  A    between atoms: C_7  and  C_19
    8  A    between atoms: C_16  and  C_27
                            x       y       z     vdW  Elec       q    Type
                         _______ _______ _______ _____ _____    ______ ____

>  <TORSDO>
F 8

$$$$
=
 OpenBabel10272402093D

 32 36  0  0  1  0  0  0  0  0999 V2000
  195.6850  174.3860  136.6770 C   0  0  2  0  0  3  0  0  0  0  0  0
  191.9750  176.6000  138.0180 C   0  0  0  0  0  2  0  0  0  0  0  0
  194.3920  174.5340  135.8490 C   0  0  1  0  0  3  0  0  0  0  0  0
  190.9170  174.6700  138.1930 O   0  0  0  0  0  0  0  0  0  0  0  0
  192.0010  174.4510  137.3990 C   0  0  0  0  0  0  0  0  0  0  0  0
  193.4750  173.2820  135.7960 C   0  0  1  0  0  3  0  0  0  0  0  0
  192.2770  173.3430  136.7180 C   0  0  0  0  0  3  0  0  0  0  0  0
  192.7740  175.6000  137.3260 N   0  0  0  0  0  0  0  0  0  0  0  0
  190.8710  175.9400  138.6480 O   0  0  0  0  0  0  0  0  0  0  0  0
  193.6610  175.8380  136.2000 C   0  0  0  0  0  2  0  0  0  0  0  0
  192.9990  173.0280  134.3730 C   0  0  0  0  0  2  0  0  0  0  0  0
  191.8170  172.0730  134.3480 C   0  0  0  0  0  2  0  0  0  0  0  0
  192.2960  170.6330  134.3480 C   0  0  0  0  0  1  0  0  0  0  0  0
  196.9670  174.7450  135.8860 C   0  0  0  0  0  0  0  0  0  0  0  0
  196.8980  176.1620  135.3460 C   0  0  0  0  0  1  0  0  0  0  0  0
  197.1900  173.7840  134.7320 C   0  0  0  0  0  1  0  0  0  0  0  0
  198.1800  174.6400  136.7930 C   0  0  0  0  0  1  0  0  0  0  0  0
  195.8970  173.4880  139.0920 N   0  0  0  0  0  0  0  0  0  0  0  0
  194.7090  173.0660  138.5090 O   0  0  0  0  0  0  0  0  0  0  0  0
  195.7730  173.1840  137.6710 C   0  0  1  0  0  0  0  0  0  0  0  0
  196.3300  169.5250  136.6600 C   0  0  0  0  0  3  0  0  0  0  0  0
  198.4700  170.6020  136.9690 C   0  0  0  0  0  3  0  0  0  0  0  0
  196.4220  171.8700  137.3030 C   0  0  0  0  0  0  0  0  0  0  0  0
  197.7290  169.4580  136.6550 C   0  0  0  0  0  0  0  0  0  0  0  0
  197.8210  171.7920  137.3000 C   0  0  0  0  0  3  0  0  0  0  0  0
  195.6750  170.7120  136.9960 C   0  0  0  0  0  0  0  0  0  0  0  0
  194.2870  170.7170  137.0360 O   0  0  0  0  0  1  0  0  0  0  0  0
  198.4230  168.1960  136.2430 C   0  0  0  0  0  3  0  0  0  0  0  0
  199.6050  168.5080  135.3390 C   0  0  0  0  0  2  0  0  0  0  0  0
  198.3160  167.9960  134.7400 C   0  0  0  0  0  2  0  0  0  0  0  0
  195.7030  174.8990  139.4060 C   0  0  0  0  0  2  0  0  0  0  0  0
  196.8520  175.4000  140.0160 O   0  0  0  0  0  1  0  0  0  0  0  0
  1 14  1  6  0  0  0
  2  9  1  0  0  0  0
  3 10  1  0  0  0  0
  3  1  1  1  0  0  0
  4  9  1  0  0  0  0
  5  4  1  0  0  0  0
  6 11  1  6  0  0  0
  6  3  1  0  0  0  0
  6  7  1  0  0  0  0
  7  5  2  0  0  0  0
  8  5  1  0  0  0  0
  8  2  1  0  0  0  0
 10  8  1  0  0  0  0
 12 13  1  0  0  0  0
 12 11  1  0  0  0  0
 14 17  1  0  0  0  0
 15 14  1  0  0  0  0
 16 14  1  0  0  0  0
 18 31  1  0  0  0  0
 19 18  1  0  0  0  0
 20  1  1  6  0  0  0
 20 19  1  0  0  0  0
 20 18  1  0  0  0  0
 21 26  1  0  0  0  0
 22 25  2  0  0  0  0
 23 20  1  0  0  0  0
 24 21  2  0  0  0  0
 24 22  1  0  0  0  0
 25 23  1  0  0  0  0
 26 27  1  0  0  0  0
 26 23  2  0  0  0  0
 28 24  1  0  0  0  0
 29 28  1  0  0  0  0
 30 29  1  0  0  0  0
 30 28  1  0  0  0  0
 31 32  1  0  0  0  0
M  END
>  <MODEL>
6

>  <REMARK>
 VINA RESULT:      -3.6     10.543     14.550
  Name = 
  8 active torsions:
  status: ('A' for Active; 'I' for Inactive)
    1  A    between atoms: N_1  and  C_4
    2  A    between atoms: C_2  and  C_5
    3  A    between atoms: C_5  and  C_10
    4  A    between atoms: C_5  and  C_27
    5  A    between atoms: C_6  and  C_13
    6  A    between atoms: C_6  and  C_25
    7  A    between atoms: C_7  and  C_19
    8  A    between atoms: C_16  and  C_27
                            x       y       z     vdW  Elec       q    Type
                         _______ _______ _______ _____ _____    ______ ____

>  <TORSDO>
F 8

$$$$
=
 OpenBabel10272402093D

 32 36  0  0  1  0  0  0  0  0999 V2000
  188.1830  176.6310  137.8940 C   0  0  2  0  0  3  0  0  0  0  0  0
  188.4330  173.2330  134.9190 C   0  0  0  0  0  2  0  0  0  0  0  0
  189.3460  176.3990  136.9080 C   0  0  1  0  0  3  0  0  0  0  0  0
  190.0700  172.3470  136.1060 O   0  0  0  0  0  0  0  0  0  0  0  0
  189.9790  173.6530  136.4790 C   0  0  0  0  0  0  0  0  0  0  0  0
  190.6410  175.7960  137.5170 C   0  0  1  0  0  3  0  0  0  0  0  0
  190.8190  174.3130  137.2690 C   0  0  0  0  0  3  0  0  0  0  0  0
  188.9000  174.2510  135.8460 N   0  0  0  0  0  0  0  0  0  0  0  0
  189.1250  172.0110  135.2020 O   0  0  0  0  0  0  0  0  0  0  0  0
  188.8560  175.6890  135.6380 C   0  0  0  0  0  2  0  0  0  0  0  0
  191.8670  176.5390  137.0080 C   0  0  0  0  0  2  0  0  0  0  0  0
  193.1090  176.1640  137.8000 C   0  0  0  0  0  2  0  0  0  0  0  0
  193.1460  176.9140  139.1180 C   0  0  0  0  0  1  0  0  0  0  0  0
  186.7850  176.4810  137.2460 C   0  0  0  0  0  0  0  0  0  0  0  0
  186.2890  175.0490  137.3420 C   0  0  0  0  0  1  0  0  0  0  0  0
  186.8060  176.9030  135.7870 C   0  0  0  0  0  1  0  0  0  0  0  0
  185.7870  177.3790  137.9550 C   0  0  0  0  0  1  0  0  0  0  0  0
  188.8760  179.0430  138.5130 N   0  0  0  0  0  0  0  0  0  0  0  0
  187.5340  178.8270  138.7970 O   0  0  0  0  0  0  0  0  0  0  0  0
  188.3570  177.7580  138.9630 C   0  0  1  0  0  0  0  0  0  0  0  0
  188.2390  177.5090  142.7910 C   0  0  0  0  0  3  0  0  0  0  0  0
  190.3160  176.5690  141.9940 C   0  0  0  0  0  3  0  0  0  0  0  0
  188.7090  177.4650  140.4030 C   0  0  0  0  0  0  0  0  0  0  0  0
  189.4710  176.9000  143.0580 C   0  0  0  0  0  0  0  0  0  0  0  0
  189.9420  176.8590  140.6810 C   0  0  0  0  0  3  0  0  0  0  0  0
  187.8610  177.8070  141.4790 C   0  0  0  0  0  0  0  0  0  0  0  0
  186.6530  178.4570  141.2660 O   0  0  0  0  0  1  0  0  0  0  0  0
  189.8450  176.5370  144.4630 C   0  0  0  0  0  3  0  0  0  0  0  0
  189.0910  177.4060  145.4560 C   0  0  0  0  0  2  0  0  0  0  0  0
  190.5390  177.7030  145.1460 C   0  0  0  0  0  2  0  0  0  0  0  0
  188.9590  179.1640  137.0620 C   0  0  0  0  0  2  0  0  0  0  0  0
  187.8790  179.9130  136.5960 O   0  0  0  0  0  1  0  0  0  0  0  0
  1 14  1  6  0  0  0
  2  9  1  0  0  0  0
  2  8  1  0  0  0  0
  3  6  1  0  0  0  0
  3  1  1  1  0  0  0
  4  5  1  0  0  0  0
  5  7  2  0  0  0  0
  6 11  1  6  0  0  0
  7  6  1  0  0  0  0
  8  5  1  0  0  0  0
  9  4  1  0  0  0  0
 10  8  1  0  0  0  0
 10  3  1  0  0  0  0
 11 12  1  0  0  0  0
 12 13  1  0  0  0  0
 14 15  1  0  0  0  0
 14 17  1  0  0  0  0
 16 14  1  0  0  0  0
 18 19  1  0  0  0  0
 18 20  1  0  0  0  0
 19 20  1  0  0  0  0
 20  1  1  6  0  0  0
 20 23  1  0  0  0  0
 21 24  1  0  0  0  0
 22 24  2  0  0  0  0
 23 25  2  0  0  0  0
 23 26  1  0  0  0  0
 24 28  1  0  0  0  0
 25 22  1  0  0  0  0
 26 21  2  0  0  0  0
 27 26  1  0  0  0  0
 28 30  1  0  0  0  0
 28 29  1  0  0  0  0
 30 29  1  0  0  0  0
 31 18  1  0  0  0  0
 32 31  1  0  0  0  0
M  END
>  <MODEL>
7

>  <REMARK>
 VINA RESULT:      -3.6      4.856      6.628
  Name = 
  8 active torsions:
  status: ('A' for Active; 'I' for Inactive)
    1  A    between atoms: N_1  and  C_4
    2  A    between atoms: C_2  and  C_5
    3  A    between atoms: C_5  and  C_10
    4  A    between atoms: C_5  and  C_27
    5  A    between atoms: C_6  and  C_13
    6  A    between atoms: C_6  and  C_25
    7  A    between atoms: C_7  and  C_19
    8  A    between atoms: C_16  and  C_27
                            x       y       z     vdW  Elec       q    Type
                         _______ _______ _______ _____ _____    ______ ____

>  <TORSDO>
F 8

$$$$
=
 OpenBabel10272402093D

 32 36  0  0  1  0  0  0  0  0999 V2000
  188.7460  176.3720  136.6860 C   0  0  2  0  0  3  0  0  0  0  0  0
  184.6300  174.6070  137.3240 C   0  0  0  0  0  2  0  0  0  0  0  0
  188.1200  175.2500  135.8330 C   0  0  1  0  0  3  0  0  0  0  0  0
  185.5690  172.7280  138.0050 O   0  0  0  0  0  0  0  0  0  0  0  0
  186.5220  173.4140  137.3150 C   0  0  0  0  0  0  0  0  0  0  0  0
  188.6420  173.8150  136.1110 C   0  0  1  0  0  3  0  0  0  0  0  0
  187.7250  172.9690  136.9660 C   0  0  0  0  0  3  0  0  0  0  0  0
  186.0330  174.6570  136.9420 N   0  0  0  0  0  0  0  0  0  0  0  0
  184.4130  173.4200  138.0960 O   0  0  0  0  0  0  0  0  0  0  0  0
  186.5890  175.3710  135.8050 C   0  0  0  0  0  2  0  0  0  0  0  0
  188.9240  173.0860  134.8050 C   0  0  0  0  0  2  0  0  0  0  0  0
  190.2560  172.3550  134.8560 C   0  0  0  0  0  2  0  0  0  0  0  0
  190.0800  170.9000  134.4630 C   0  0  0  0  0  1  0  0  0  0  0  0
  188.5450  177.7860  136.0890 C   0  0  0  0  0  0  0  0  0  0  0  0
  188.8450  177.7990  134.6000 C   0  0  0  0  0  1  0  0  0  0  0  0
  189.4270  178.8090  136.7830 C   0  0  0  0  0  1  0  0  0  0  0  0
  187.1070  178.2310  136.2870 C   0  0  0  0  0  1  0  0  0  0  0  0
  190.2650  176.4370  138.7770 N   0  0  0  0  0  0  0  0  0  0  0  0
  190.0700  175.1310  138.3480 O   0  0  0  0  0  0  0  0  0  0  0  0
  190.1190  176.0770  137.3720 C   0  0  1  0  0  0  0  0  0  0  0  0
  193.8350  176.4830  136.5070 C   0  0  0  0  0  3  0  0  0  0  0  0
  192.6080  175.9120  134.5060 C   0  0  0  0  0  3  0  0  0  0  0  0
  191.4300  176.1280  136.6230 C   0  0  0  0  0  0  0  0  0  0  0  0
  193.8200  176.2240  135.1310 C   0  0  0  0  0  0  0  0  0  0  0  0
  191.4250  175.8750  135.2450 C   0  0  0  0  0  3  0  0  0  0  0  0
  192.6530  176.4530  137.2510 C   0  0  0  0  0  0  0  0  0  0  0  0
  192.7090  176.7650  138.6020 O   0  0  0  0  0  1  0  0  0  0  0  0
  195.1000  176.2070  134.3520 C   0  0  0  0  0  3  0  0  0  0  0  0
  196.2940  176.1440  135.2900 C   0  0  0  0  0  2  0  0  0  0  0  0
  195.9160  177.4550  134.6430 C   0  0  0  0  0  2  0  0  0  0  0  0
  189.0140  176.8360  139.4110 C   0  0  0  0  0  2  0  0  0  0  0  0
  189.2880  177.4670  140.6240 O   0  0  0  0  0  1  0  0  0  0  0  0
  1 14  1  6  0  0  0
  2  9  1  0  0  0  0
  3  6  1  0  0  0  0
  3  1  1  1  0  0  0
  4  9  1  0  0  0  0
  5  4  1  0  0  0  0
  6 11  1  6  0  0  0
  6  7  1  0  0  0  0
  7  5  2  0  0  0  0
  8  5  1  0  0  0  0
  8  2  1  0  0  0  0
 10  3  1  0  0  0  0
 10  8  1  0  0  0  0
 11 12  1  0  0  0  0
 13 12  1  0  0  0  0
 14 17  1  0  0  0  0
 14 16  1  0  0  0  0
 15 14  1  0  0  0  0
 18 31  1  0  0  0  0
 19 18  1  0  0  0  0
 20  1  1  6  0  0  0
 20 19  1  0  0  0  0
 20 18  1  0  0  0  0
 21 26  1  0  0  0  0
 22 24  1  0  0  0  0
 22 25  2  0  0  0  0
 23 26  2  0  0  0  0
 23 20  1  0  0  0  0
 24 21  2  0  0  0  0
 25 23  1  0  0  0  0
 26 27  1  0  0  0  0
 28 30  1  0  0  0  0
 28 24  1  0  0  0  0
 28 29  1  0  0  0  0
 30 29  1  0  0  0  0
 31 32  1  0  0  0  0
M  END
>  <MODEL>
8

>  <REMARK>
 VINA RESULT:      -3.5      5.479      9.135
  Name = 
  8 active torsions:
  status: ('A' for Active; 'I' for Inactive)
    1  A    between atoms: N_1  and  C_4
    2  A    between atoms: C_2  and  C_5
    3  A    between atoms: C_5  and  C_10
    4  A    between atoms: C_5  and  C_27
    5  A    between atoms: C_6  and  C_13
    6  A    between atoms: C_6  and  C_25
    7  A    between atoms: C_7  and  C_19
    8  A    between atoms: C_16  and  C_27
                            x       y       z     vdW  Elec       q    Type
                         _______ _______ _______ _____ _____    ______ ____

>  <TORSDO>
F 8

$$$$
=
 OpenBabel10272402093D

 32 36  0  0  1  0  0  0  0  0999 V2000
  187.5860  176.6730  136.8810 C   0  0  2  0  0  3  0  0  0  0  0  0
  184.1170  173.8520  136.1910 C   0  0  0  0  0  2  0  0  0  0  0  0
  187.6770  175.3150  136.1550 C   0  0  1  0  0  3  0  0  0  0  0  0
  185.0050  172.4440  137.6420 O   0  0  0  0  0  0  0  0  0  0  0  0
  186.0010  173.2900  137.2570 C   0  0  0  0  0  0  0  0  0  0  0  0
  188.3000  174.1500  136.9710 C   0  0  1  0  0  3  0  0  0  0  0  0
  187.2920  173.1840  137.5550 C   0  0  0  0  0  3  0  0  0  0  0  0
  185.4920  174.2710  136.4190 N   0  0  0  0  0  0  0  0  0  0  0  0
  183.8220  172.7650  137.0740 O   0  0  0  0  0  0  0  0  0  0  0  0
  186.3470  174.9660  135.4720 C   0  0  0  0  0  2  0  0  0  0  0  0
  189.3000  173.3770  136.1230 C   0  0  0  0  0  2  0  0  0  0  0  0
  190.7160  173.5420  136.6510 C   0  0  0  0  0  2  0  0  0  0  0  0
  191.7240  173.0350  135.6360 C   0  0  0  0  0  1  0  0  0  0  0  0
  186.5770  177.6510  136.2330 C   0  0  0  0  0  0  0  0  0  0  0  0
  185.2070  177.5280  136.8760 C   0  0  0  0  0  1  0  0  0  0  0  0
  186.4500  177.4050  134.7400 C   0  0  0  0  0  1  0  0  0  0  0  0
  187.0580  179.0810  136.4090 C   0  0  0  0  0  1  0  0  0  0  0  0
  190.0860  177.2600  136.5780 N   0  0  0  0  0  0  0  0  0  0  0  0
  189.3330  178.4050  136.8030 O   0  0  0  0  0  0  0  0  0  0  0  0
  188.9120  177.2810  137.4420 C   0  0  1  0  0  0  0  0  0  0  0  0
  188.8490  177.7250  141.2530 C   0  0  0  0  0  3  0  0  0  0  0  0
  190.8570  176.5400  140.6210 C   0  0  0  0  0  3  0  0  0  0  0  0
  189.2730  177.2290  138.9080 C   0  0  0  0  0  0  0  0  0  0  0  0
  190.0500  177.1020  141.6150 C   0  0  0  0  0  0  0  0  0  0  0  0
  190.4750  176.6130  139.2810 C   0  0  0  0  0  3  0  0  0  0  0  0
  188.4640  177.8060  139.9120 C   0  0  0  0  0  0  0  0  0  0  0  0
  187.2900  178.4760  139.5960 O   0  0  0  0  0  1  0  0  0  0  0  0
  190.4280  176.9740  143.0600 C   0  0  0  0  0  3  0  0  0  0  0  0
  189.7260  178.0360  143.8900 C   0  0  0  0  0  2  0  0  0  0  0  0
  191.1810  178.2110  143.5230 C   0  0  0  0  0  2  0  0  0  0  0  0
  189.7940  176.8590  135.2070 C   0  0  0  0  0  2  0  0  0  0  0  0
  190.9630  176.4020  134.5990 O   0  0  0  0  0  1  0  0  0  0  0  0
  1 14  1  6  0  0  0
  2  8  1  0  0  0  0
  2  9  1  0  0  0  0
  3  1  1  1  0  0  0
  3  6  1  0  0  0  0
  5  7  2  0  0  0  0
  5  4  1  0  0  0  0
  6 11  1  6  0  0  0
  6  7  1  0  0  0  0
  8  5  1  0  0  0  0
  9  4  1  0  0  0  0
 10  3  1  0  0  0  0
 10  8  1  0  0  0  0
 11 12  1  0  0  0  0
 13 12  1  0  0  0  0
 14 17  1  0  0  0  0
 14 15  1  0  0  0  0
 16 14  1  0  0  0  0
 18 19  1  0  0  0  0
 18 20  1  0  0  0  0
 19 20  1  0  0  0  0
 20  1  1  6  0  0  0
 20 23  1  0  0  0  0
 21 24  1  0  0  0  0
 22 24  2  0  0  0  0
 23 25  2  0  0  0  0
 23 26  1  0  0  0  0
 24 28  1  0  0  0  0
 25 22  1  0  0  0  0
 26 21  2  0  0  0  0
 27 26  1  0  0  0  0
 28 30  1  0  0  0  0
 28 29  1  0  0  0  0
 30 29  1  0  0  0  0
 31 18  1  0  0  0  0
 32 31  1  0  0  0  0
M  END
>  <MODEL>
9

>  <REMARK>
 VINA RESULT:      -3.5      4.315      6.423
  Name = 
  8 active torsions:
  status: ('A' for Active; 'I' for Inactive)
    1  A    between atoms: N_1  and  C_4
    2  A    between atoms: C_2  and  C_5
    3  A    between atoms: C_5  and  C_10
    4  A    between atoms: C_5  and  C_27
    5  A    between atoms: C_6  and  C_13
    6  A    between atoms: C_6  and  C_25
    7  A    between atoms: C_7  and  C_19
    8  A    between atoms: C_16  and  C_27
                            x       y       z     vdW  Elec       q    Type
                         _______ _______ _______ _____ _____    ______ ____

>  <TORSDO>
F 8

$$$$
