=
 OpenBabel10272401493D

 28 29  0  0  1  0  0  0  0  0999 V2000
  190.2440  176.5840  143.9540 C   0  0  1  0  0  3  0  0  0  0  0  0
  191.7330  176.3010  143.8100 C   0  0  0  0  0  2  0  0  0  0  0  0
  192.0420  175.0600  144.3680 O   0  0  0  0  0  1  0  0  0  0  0  0
  190.2680  178.9300  144.2660 O   0  0  0  0  0  0  0  0  0  0  0  0
  190.0000  177.8390  144.7460 C   0  0  0  0  0  0  0  0  0  0  0  0
  189.3970  177.7740  146.1210 C   0  0  1  0  0  3  0  0  0  0  0  0
  187.9080  177.9760  146.0820 C   0  0  0  0  0  0  0  0  0  0  0  0
  185.1380  178.4200  146.0060 C   0  0  0  0  0  3  0  0  0  0  0  0
  187.1890  177.7840  144.8910 C   0  0  0  0  0  3  0  0  0  0  0  0
  187.9140  178.6120  148.4260 O   0  0  0  0  0  1  0  0  0  0  0  0
  187.2270  178.4020  147.2360 C   0  0  0  0  0  0  0  0  0  0  0  0
  185.8470  178.6190  147.1940 C   0  0  0  0  0  3  0  0  0  0  0  0
  185.8090  178.0030  144.8550 C   0  0  0  0  0  3  0  0  0  0  0  0
  189.7840  176.5010  146.8640 C   0  0  0  0  0  2  0  0  0  0  0  0
  191.0570  176.6380  147.4160 O   0  0  0  0  0  1  0  0  0  0  0  0
  189.5930  176.7000  142.5860 C   0  0  0  0  0  2  0  0  0  0  0  0
  190.4750  176.1430  141.5650 N   0  0  0  0  0  2  0  0  0  0  0  0
  191.7700  177.7260  140.3950 O   0  0  0  0  0  1  0  0  0  0  0  0
  190.5500  177.0440  140.4150 C   0  0  1  0  0  3  0  0  0  0  0  0
  190.3230  176.2960  139.1050 C   0  0  0  0  0  2  0  0  0  0  0  0
  189.7450  177.5260  137.2030 C   0  0  0  0  0  2  0  0  0  0  0  0
  188.6730  177.9360  139.2290 C   0  0  0  0  0  2  0  0  0  0  0  0
  187.4990  178.5310  136.5180 C   0  0  1  0  0  3  0  0  0  0  0  0
  189.1990  176.8730  138.3860 N   0  0  0  0  0  0  0  0  0  0  0  0
  186.6500  177.8880  137.6190 C   0  0  0  0  0  2  0  0  0  0  0  0
  187.1630  178.0980  139.0500 C   0  0  0  0  0  2  0  0  0  0  0  0
  187.9110  179.8210  136.8630 O   0  0  0  0  0  1  0  0  0  0  0  0
  188.6820  177.6500  136.1140 C   0  0  0  0  0  2  0  0  0  0  0  0
  1 16  1  6  0  0  0
  1  5  1  0  0  0  0
  2  1  1  0  0  0  0
  2  3  1  0  0  0  0
  4  5  2  0  0  0  0
  5  6  1  0  0  0  0
  6 14  1  6  0  0  0
  7  6  1  0  0  0  0
  7 11  1  0  0  0  0
  8 12  1  0  0  0  0
  9  7  2  0  0  0  0
 11 10  1  0  0  0  0
 12 11  2  0  0  0  0
 13  9  1  0  0  0  0
 13  8  2  0  0  0  0
 14 15  1  0  0  0  0
 17 16  1  0  0  0  0
 19 18  1  6  0  0  0
 19 17  1  0  0  0  0
 20 19  1  0  0  0  0
 21 24  1  0  0  0  0
 23 27  1  1  0  0  0
 23 25  1  0  0  0  0
 24 20  1  0  0  0  0
 24 22  1  0  0  0  0
 25 26  1  0  0  0  0
 26 22  1  0  0  0  0
 28 23  1  0  0  0  0
 28 21  1  0  0  0  0
M  END
>  <MODEL>
1

>  <REMARK>
 VINA RESULT:      -7.5      0.000      0.000
  Name = 
  10 active torsions:
  status: ('A' for Active; 'I' for Inactive)
    1  A    between atoms: C_1  and  C_2
    2  A    between atoms: C_1  and  C_3
    3  A    between atoms: C_1  and  C_27
    4  A    between atoms: C_5  and  N_20
    5  A    between atoms: C_5  and  C_21
    6  A    between atoms: C_10  and  N_13
    7  A    between atoms: C_10  and  C_25
    8  A    between atoms: C_16  and  C_21
    9  A    between atoms: N_20  and  C_25
   10  A    between atoms: C_21  and  C_27
                            x       y       z     vdW  Elec       q    Type
                         _______ _______ _______ _____ _____    ______ ____

>  <TORSDO>
F 10

$$$$
=
 OpenBabel10272401493D

 28 29  0  0  1  0  0  0  0  0999 V2000
  188.1640  177.8210  141.5580 C   0  0  1  0  0  3  0  0  0  0  0  0
  188.8330  178.0410  140.2080 C   0  0  0  0  0  2  0  0  0  0  0  0
  190.0880  177.4330  140.1910 O   0  0  0  0  0  1  0  0  0  0  0  0
  189.5530  179.2700  142.8110 O   0  0  0  0  0  0  0  0  0  0  0  0
  189.0990  178.1420  142.6910 C   0  0  0  0  0  0  0  0  0  0  0  0
  189.4650  177.0950  143.7050 C   0  0  1  0  0  3  0  0  0  0  0  0
  188.8030  177.3540  145.0300 C   0  0  0  0  0  0  0  0  0  0  0  0
  187.5890  177.9000  147.5000 C   0  0  0  0  0  3  0  0  0  0  0  0
  187.4180  177.5760  145.1090 C   0  0  0  0  0  3  0  0  0  0  0  0
  190.9510  177.2110  146.1530 O   0  0  0  0  0  1  0  0  0  0  0  0
  189.5770  177.4150  146.2020 C   0  0  0  0  0  0  0  0  0  0  0  0
  188.9670  177.6850  147.4300 C   0  0  0  0  0  3  0  0  0  0  0  0
  186.8140  177.8460  146.3390 C   0  0  0  0  0  3  0  0  0  0  0  0
  189.2030  175.6810  143.2000 C   0  0  0  0  0  2  0  0  0  0  0  0
  190.4000  175.0870  142.8030 O   0  0  0  0  0  1  0  0  0  0  0  0
  186.9060  178.6660  141.6690 C   0  0  0  0  0  2  0  0  0  0  0  0
  186.2830  178.8080  140.3570 N   0  0  0  0  0  2  0  0  0  0  0  0
  184.4680  180.0170  139.4650 O   0  0  0  0  0  1  0  0  0  0  0  0
  184.8730  179.1720  140.5030 C   0  0  1  0  0  3  0  0  0  0  0  0
  183.9820  177.9370  140.5790 C   0  0  0  0  0  2  0  0  0  0  0  0
  181.7850  178.6980  140.8110 C   0  0  0  0  0  2  0  0  0  0  0  0
  183.3710  179.1990  142.4390 C   0  0  0  0  0  2  0  0  0  0  0  0
  180.3980  179.0950  142.9200 C   0  0  1  0  0  3  0  0  0  0  0  0
  182.9160  178.1460  141.5450 N   0  0  0  0  0  0  0  0  0  0  0  0
  181.3790  178.4770  143.9210 C   0  0  0  0  0  2  0  0  0  0  0  0
  182.8150  179.0160  143.8510 C   0  0  0  0  0  2  0  0  0  0  0  0
  180.5530  180.4800  142.8250 O   0  0  0  0  0  1  0  0  0  0  0  0
  180.4760  178.4230  141.5480 C   0  0  0  0  0  2  0  0  0  0  0  0
  1  2  1  6  0  0  0
  1 16  1  0  0  0  0
  1  5  1  0  0  0  0
  3  2  1  0  0  0  0
  5  4  2  0  0  0  0
  5  6  1  0  0  0  0
  6 14  1  6  0  0  0
  6  7  1  0  0  0  0
  7  9  2  0  0  0  0
  7 11  1  0  0  0  0
  9 13  1  0  0  0  0
 10 11  1  0  0  0  0
 11 12  2  0  0  0  0
 12  8  1  0  0  0  0
 13  8  2  0  0  0  0
 15 14  1  0  0  0  0
 17 19  1  0  0  0  0
 17 16  1  0  0  0  0
 19 18  1  6  0  0  0
 19 20  1  0  0  0  0
 20 24  1  0  0  0  0
 21 24  1  0  0  0  0
 21 28  1  0  0  0  0
 22 26  1  0  0  0  0
 23 27  1  6  0  0  0
 23 25  1  0  0  0  0
 24 22  1  0  0  0  0
 26 25  1  0  0  0  0
 28 23  1  0  0  0  0
M  END
>  <MODEL>
2

>  <REMARK>
 VINA RESULT:      -7.4      3.676      5.677
  Name = 
  10 active torsions:
  status: ('A' for Active; 'I' for Inactive)
    1  A    between atoms: C_1  and  C_2
    2  A    between atoms: C_1  and  C_3
    3  A    between atoms: C_1  and  C_27
    4  A    between atoms: C_5  and  N_20
    5  A    between atoms: C_5  and  C_21
    6  A    between atoms: C_10  and  N_13
    7  A    between atoms: C_10  and  C_25
    8  A    between atoms: C_16  and  C_21
    9  A    between atoms: N_20  and  C_25
   10  A    between atoms: C_21  and  C_27
                            x       y       z     vdW  Elec       q    Type
                         _______ _______ _______ _____ _____    ______ ____

>  <TORSDO>
F 10

$$$$
=
 OpenBabel10272401493D

 28 29  0  0  1  0  0  0  0  0999 V2000
  188.7020  177.1910  141.4780 C   0  0  1  0  0  3  0  0  0  0  0  0
  189.8280  177.4590  140.4890 C   0  0  0  0  0  2  0  0  0  0  0  0
  190.4390  176.2600  140.1210 O   0  0  0  0  0  1  0  0  0  0  0  0
  189.4680  175.7860  143.2220 O   0  0  0  0  0  0  0  0  0  0  0  0
  189.2380  176.9290  142.8580 C   0  0  0  0  0  0  0  0  0  0  0  0
  189.5270  178.0670  143.7980 C   0  0  1  0  0  3  0  0  0  0  0  0
  189.1120  177.7390  145.2060 C   0  0  0  0  0  0  0  0  0  0  0  0
  188.3150  177.0690  147.8120 C   0  0  0  0  0  3  0  0  0  0  0  0
  190.0580  177.3080  146.1510 C   0  0  0  0  0  3  0  0  0  0  0  0
  186.7990  178.2380  144.6600 O   0  0  0  0  0  1  0  0  0  0  0  0
  187.7580  177.8250  145.5770 C   0  0  0  0  0  0  0  0  0  0  0  0
  187.3670  177.4930  146.8770 C   0  0  0  0  0  3  0  0  0  0  0  0
  189.6600  176.9760  147.4490 C   0  0  0  0  0  3  0  0  0  0  0  0
  190.9770  178.5280  143.7210 C   0  0  0  0  0  2  0  0  0  0  0  0
  191.0630  179.8860  144.0270 O   0  0  0  0  0  1  0  0  0  0  0  0
  187.7360  178.3620  141.5110 C   0  0  0  0  0  2  0  0  0  0  0  0
  187.4110  178.7790  140.1500 N   0  0  0  0  0  2  0  0  0  0  0  0
  185.1940  179.5600  140.3160 O   0  0  0  0  0  1  0  0  0  0  0  0
  186.0000  178.5120  139.8630 C   0  0  1  0  0  3  0  0  0  0  0  0
  185.7720  178.2530  138.3770 C   0  0  0  0  0  2  0  0  0  0  0  0
  187.4300  178.5440  136.7550 C   0  0  0  0  0  2  0  0  0  0  0  0
  186.4880  176.4420  137.0980 C   0  0  0  0  0  2  0  0  0  0  0  0
  189.2260  176.9240  135.9340 C   0  0  1  0  0  3  0  0  0  0  0  0
  186.9500  177.6360  137.7900 N   0  0  0  0  0  0  0  0  0  0  0  0
  188.9970  175.8270  136.9780 C   0  0  0  0  0  2  0  0  0  0  0  0
  187.5480  175.3400  137.1120 C   0  0  0  0  0  2  0  0  0  0  0  0
  188.5290  176.6690  134.7490 O   0  0  0  0  0  1  0  0  0  0  0  0
  188.9140  178.3170  136.4830 C   0  0  0  0  0  2  0  0  0  0  0  0
  1  2  1  6  0  0  0
  1 16  1  0  0  0  0
  1  5  1  0  0  0  0
  3  2  1  0  0  0  0
  5  4  2  0  0  0  0
  5  6  1  0  0  0  0
  6 14  1  1  0  0  0
  6  7  1  0  0  0  0
  7 11  2  0  0  0  0
  7  9  1  0  0  0  0
  9 13  2  0  0  0  0
 10 11  1  0  0  0  0
 11 12  1  0  0  0  0
 12  8  2  0  0  0  0
 13  8  1  0  0  0  0
 14 15  1  0  0  0  0
 17 16  1  0  0  0  0
 19 17  1  0  0  0  0
 19 18  1  6  0  0  0
 20 19  1  0  0  0  0
 21 24  1  0  0  0  0
 22 26  1  0  0  0  0
 22 24  1  0  0  0  0
 23 27  1  6  0  0  0
 23 28  1  0  0  0  0
 23 25  1  0  0  0  0
 24 20  1  0  0  0  0
 25 26  1  0  0  0  0
 28 21  1  0  0  0  0
M  END
>  <MODEL>
3

>  <REMARK>
 VINA RESULT:      -7.3      2.156      3.620
  Name = 
  10 active torsions:
  status: ('A' for Active; 'I' for Inactive)
    1  A    between atoms: C_1  and  C_2
    2  A    between atoms: C_1  and  C_3
    3  A    between atoms: C_1  and  C_27
    4  A    between atoms: C_5  and  N_20
    5  A    between atoms: C_5  and  C_21
    6  A    between atoms: C_10  and  N_13
    7  A    between atoms: C_10  and  C_25
    8  A    between atoms: C_16  and  C_21
    9  A    between atoms: N_20  and  C_25
   10  A    between atoms: C_21  and  C_27
                            x       y       z     vdW  Elec       q    Type
                         _______ _______ _______ _____ _____    ______ ____

>  <TORSDO>
F 10

$$$$
=
 OpenBabel10272401493D

 28 29  0  0  1  0  0  0  0  0999 V2000
  190.1010  176.4820  143.9330 C   0  0  1  0  0  3  0  0  0  0  0  0
  191.5670  176.3040  143.5620 C   0  0  0  0  0  2  0  0  0  0  0  0
  192.1010  175.2040  144.2340 O   0  0  0  0  0  1  0  0  0  0  0  0
  190.1480  178.8380  144.1520 O   0  0  0  0  0  0  0  0  0  0  0  0
  189.8770  177.7690  144.6780 C   0  0  0  0  0  0  0  0  0  0  0  0
  189.2920  177.7630  146.0620 C   0  0  1  0  0  3  0  0  0  0  0  0
  187.8040  177.9750  146.0340 C   0  0  0  0  0  0  0  0  0  0  0  0
  185.0360  178.4350  145.9770 C   0  0  0  0  0  3  0  0  0  0  0  0
  187.0760  177.7920  144.8460 C   0  0  0  0  0  3  0  0  0  0  0  0
  187.8280  178.5990  148.3800 O   0  0  0  0  0  1  0  0  0  0  0  0
  187.1320  178.3990  147.1940 C   0  0  0  0  0  0  0  0  0  0  0  0
  185.7530  178.6240  147.1610 C   0  0  0  0  0  3  0  0  0  0  0  0
  185.6970  178.0190  144.8200 C   0  0  0  0  0  3  0  0  0  0  0  0
  189.6790  176.5170  146.8500 C   0  0  0  0  0  2  0  0  0  0  0  0
  190.9860  176.6360  147.3190 O   0  0  0  0  0  1  0  0  0  0  0  0
  189.2320  176.4480  142.6870 C   0  0  0  0  0  2  0  0  0  0  0  0
  190.0390  176.7490  141.5080 N   0  0  0  0  0  2  0  0  0  0  0  0
  188.6280  178.5410  140.9150 O   0  0  0  0  0  1  0  0  0  0  0  0
  189.2070  177.3510  140.4650 C   0  0  1  0  0  3  0  0  0  0  0  0
  189.9990  177.5810  139.1820 C   0  0  0  0  0  2  0  0  0  0  0  0
  191.5510  176.3180  137.9740 C   0  0  0  0  0  2  0  0  0  0  0  0
  189.3240  176.3860  137.3000 C   0  0  0  0  0  2  0  0  0  0  0  0
  191.2380  174.1470  136.6650 C   0  0  1  0  0  3  0  0  0  0  0  0
  190.1820  176.3260  138.4730 N   0  0  0  0  0  0  0  0  0  0  0  0
  189.8030  173.8520  137.1100 C   0  0  0  0  0  2  0  0  0  0  0  0
  188.8050  175.0010  136.9120 C   0  0  0  0  0  2  0  0  0  0  0  0
  191.2770  174.8190  135.4390 O   0  0  0  0  0  1  0  0  0  0  0  0
  192.0340  174.8890  137.7400 C   0  0  0  0  0  2  0  0  0  0  0  0
  1 16  1  6  0  0  0
  1  5  1  0  0  0  0
  2  1  1  0  0  0  0
  2  3  1  0  0  0  0
  4  5  2  0  0  0  0
  5  6  1  0  0  0  0
  6 14  1  6  0  0  0
  7  6  1  0  0  0  0
  7 11  1  0  0  0  0
  8 12  1  0  0  0  0
  9  7  2  0  0  0  0
 11 10  1  0  0  0  0
 12 11  2  0  0  0  0
 13  9  1  0  0  0  0
 13  8  2  0  0  0  0
 14 15  1  0  0  0  0
 17 16  1  0  0  0  0
 19 18  1  1  0  0  0
 19 17  1  0  0  0  0
 20 19  1  0  0  0  0
 21 24  1  0  0  0  0
 22 24  1  0  0  0  0
 23 27  1  6  0  0  0
 23 25  1  0  0  0  0
 23 28  1  0  0  0  0
 24 20  1  0  0  0  0
 26 25  1  0  0  0  0
 26 22  1  0  0  0  0
 28 21  1  0  0  0  0
M  END
>  <MODEL>
4

>  <REMARK>
 VINA RESULT:      -7.2      1.794      2.429
  Name = 
  10 active torsions:
  status: ('A' for Active; 'I' for Inactive)
    1  A    between atoms: C_1  and  C_2
    2  A    between atoms: C_1  and  C_3
    3  A    between atoms: C_1  and  C_27
    4  A    between atoms: C_5  and  N_20
    5  A    between atoms: C_5  and  C_21
    6  A    between atoms: C_10  and  N_13
    7  A    between atoms: C_10  and  C_25
    8  A    between atoms: C_16  and  C_21
    9  A    between atoms: N_20  and  C_25
   10  A    between atoms: C_21  and  C_27
                            x       y       z     vdW  Elec       q    Type
                         _______ _______ _______ _____ _____    ______ ____

>  <TORSDO>
F 10

$$$$
=
 OpenBabel10272401493D

 28 29  0  0  1  0  0  0  0  0999 V2000
  190.0270  177.2180  141.5560 C   0  0  1  0  0  3  0  0  0  0  0  0
  191.0630  177.5160  140.4810 C   0  0  0  0  0  2  0  0  0  0  0  0
  192.3480  177.4240  141.0160 O   0  0  0  0  0  1  0  0  0  0  0  0
  190.4110  179.0360  143.0210 O   0  0  0  0  0  0  0  0  0  0  0  0
  190.4180  177.8230  142.8750 C   0  0  0  0  0  0  0  0  0  0  0  0
  190.7940  176.9500  144.0400 C   0  0  1  0  0  3  0  0  0  0  0  0
  189.8500  177.1340  145.1960 C   0  0  0  0  0  0  0  0  0  0  0  0
  188.1070  177.5410  147.3570 C   0  0  0  0  0  3  0  0  0  0  0  0
  188.4740  177.3160  144.9760 C   0  0  0  0  0  3  0  0  0  0  0  0
  191.7050  177.0000  146.7570 O   0  0  0  0  0  1  0  0  0  0  0  0
  190.3470  177.1650  146.5100 C   0  0  0  0  0  0  0  0  0  0  0  0
  189.4740  177.3660  147.5840 C   0  0  0  0  0  3  0  0  0  0  0  0
  187.6070  177.5160  146.0540 C   0  0  0  0  0  3  0  0  0  0  0  0
  190.9360  175.4850  143.6440 C   0  0  0  0  0  2  0  0  0  0  0  0
  192.1470  174.9790  144.1160 O   0  0  0  0  0  1  0  0  0  0  0  0
  188.6620  177.7360  141.1340 C   0  0  0  0  0  2  0  0  0  0  0  0
  188.7820  178.5090  139.9010 N   0  0  0  0  0  2  0  0  0  0  0  0
  186.5720  178.5900  139.0870 O   0  0  0  0  0  1  0  0  0  0  0  0
  187.8340  178.0170  138.9010 C   0  0  1  0  0  3  0  0  0  0  0  0
  188.3400  178.2620  137.4830 C   0  0  0  0  0  2  0  0  0  0  0  0
  188.1130  175.9420  137.6540 C   0  0  0  0  0  2  0  0  0  0  0  0
  190.1580  176.8730  137.0440 C   0  0  0  0  0  2  0  0  0  0  0  0
  189.2720  174.0790  136.3460 C   0  0  1  0  0  3  0  0  0  0  0  0
  188.7200  177.0040  136.8620 N   0  0  0  0  0  0  0  0  0  0  0  0
  189.9650  174.9660  135.3080 C   0  0  0  0  0  2  0  0  0  0  0  0
  190.8040  176.1160  135.8830 C   0  0  0  0  0  2  0  0  0  0  0  0
  190.1140  173.7770  137.4200 O   0  0  0  0  0  1  0  0  0  0  0  0
  187.9460  174.6740  136.8200 C   0  0  0  0  0  2  0  0  0  0  0  0
  1  2  1  6  0  0  0
  1  5  1  0  0  0  0
  2  3  1  0  0  0  0
  5  4  2  0  0  0  0
  5  6  1  0  0  0  0
  6 14  1  6  0  0  0
  6  7  1  0  0  0  0
  7 11  1  0  0  0  0
  8 12  1  0  0  0  0
  9  7  2  0  0  0  0
  9 13  1  0  0  0  0
 11 10  1  0  0  0  0
 11 12  2  0  0  0  0
 13  8  2  0  0  0  0
 14 15  1  0  0  0  0
 16  1  1  0  0  0  0
 17 16  1  0  0  0  0
 19 18  1  6  0  0  0
 19 17  1  0  0  0  0
 20 19  1  0  0  0  0
 23 28  1  0  0  0  0
 23 27  1  1  0  0  0
 24 22  1  0  0  0  0
 24 20  1  0  0  0  0
 24 21  1  0  0  0  0
 25 26  1  0  0  0  0
 25 23  1  0  0  0  0
 26 22  1  0  0  0  0
 28 21  1  0  0  0  0
M  END
>  <MODEL>
5

>  <REMARK>
 VINA RESULT:      -7.1      1.964      3.557
  Name = 
  10 active torsions:
  status: ('A' for Active; 'I' for Inactive)
    1  A    between atoms: C_1  and  C_2
    2  A    between atoms: C_1  and  C_3
    3  A    between atoms: C_1  and  C_27
    4  A    between atoms: C_5  and  N_20
    5  A    between atoms: C_5  and  C_21
    6  A    between atoms: C_10  and  N_13
    7  A    between atoms: C_10  and  C_25
    8  A    between atoms: C_16  and  C_21
    9  A    between atoms: N_20  and  C_25
   10  A    between atoms: C_21  and  C_27
                            x       y       z     vdW  Elec       q    Type
                         _______ _______ _______ _____ _____    ______ ____

>  <TORSDO>
F 10

$$$$
=
 OpenBabel10272401493D

 28 29  0  0  1  0  0  0  0  0999 V2000
  187.7470  178.3350  141.7650 C   0  0  1  0  0  3  0  0  0  0  0  0
  186.2250  178.3290  141.7990 C   0  0  0  0  0  2  0  0  0  0  0  0
  185.7400  179.6370  141.7940 O   0  0  0  0  0  1  0  0  0  0  0  0
  188.1450  176.4130  143.0870 O   0  0  0  0  0  0  0  0  0  0  0  0
  188.3230  177.6140  142.9520 C   0  0  0  0  0  0  0  0  0  0  0  0
  189.1500  178.3490  143.9700 C   0  0  1  0  0  3  0  0  0  0  0  0
  188.8760  177.8570  145.3640 C   0  0  0  0  0  0  0  0  0  0  0  0
  188.3320  176.8850  147.9400 C   0  0  0  0  0  3  0  0  0  0  0  0
  189.8710  177.1900  146.0980 C   0  0  0  0  0  3  0  0  0  0  0  0
  186.5930  178.6720  145.2240 O   0  0  0  0  0  1  0  0  0  0  0  0
  187.6000  178.0260  145.9300 C   0  0  0  0  0  0  0  0  0  0  0  0
  187.3350  177.5430  147.2150 C   0  0  0  0  0  3  0  0  0  0  0  0
  189.6000  176.7080  147.3810 C   0  0  0  0  0  3  0  0  0  0  0  0
  190.6370  178.3250  143.6360 C   0  0  0  0  0  2  0  0  0  0  0  0
  191.2030  179.5730  143.8930 O   0  0  0  0  0  1  0  0  0  0  0  0
  188.2500  177.7010  140.4800 C   0  0  0  0  0  2  0  0  0  0  0  0
  187.8490  178.5110  139.3340 N   0  0  0  0  0  2  0  0  0  0  0  0
  188.9890  179.5400  137.5460 O   0  0  0  0  0  1  0  0  0  0  0  0
  188.7990  178.3380  138.2340 C   0  0  1  0  0  3  0  0  0  0  0  0
  190.1290  177.7770  138.7290 C   0  0  0  0  0  2  0  0  0  0  0  0
  189.8770  175.7840  137.5350 C   0  0  0  0  0  2  0  0  0  0  0  0
  191.9870  176.4520  138.2570 C   0  0  0  0  0  2  0  0  0  0  0  0
  191.4770  174.6260  135.9150 C   0  0  1  0  0  3  0  0  0  0  0  0
  190.7370  176.9480  137.7010 N   0  0  0  0  0  0  0  0  0  0  0  0
  192.5160  175.7480  135.8260 C   0  0  0  0  0  2  0  0  0  0  0  0
  193.0470  176.2590  137.1730 C   0  0  0  0  0  2  0  0  0  0  0  0
  191.8280  173.6640  136.8660 O   0  0  0  0  0  1  0  0  0  0  0  0
  190.0660  175.1650  136.1520 C   0  0  0  0  0  2  0  0  0  0  0  0
  1 16  1  6  0  0  0
  1  2  1  0  0  0  0
  1  5  1  0  0  0  0
  3  2  1  0  0  0  0
  5  4  2  0  0  0  0
  5  6  1  0  0  0  0
  6 14  1  6  0  0  0
  6  7  1  0  0  0  0
  7 11  2  0  0  0  0
  7  9  1  0  0  0  0
  9 13  2  0  0  0  0
 10 11  1  0  0  0  0
 11 12  1  0  0  0  0
 12  8  2  0  0  0  0
 13  8  1  0  0  0  0
 14 15  1  0  0  0  0
 17 16  1  0  0  0  0
 19 18  1  1  0  0  0
 19 20  1  0  0  0  0
 19 17  1  0  0  0  0
 21 24  1  0  0  0  0
 23 28  1  0  0  0  0
 23 27  1  1  0  0  0
 24 22  1  0  0  0  0
 24 20  1  0  0  0  0
 25 23  1  0  0  0  0
 25 26  1  0  0  0  0
 26 22  1  0  0  0  0
 28 21  1  0  0  0  0
M  END
>  <MODEL>
6

>  <REMARK>
 VINA RESULT:      -7.0      2.497      4.216
  Name = 
  10 active torsions:
  status: ('A' for Active; 'I' for Inactive)
    1  A    between atoms: C_1  and  C_2
    2  A    between atoms: C_1  and  C_3
    3  A    between atoms: C_1  and  C_27
    4  A    between atoms: C_5  and  N_20
    5  A    between atoms: C_5  and  C_21
    6  A    between atoms: C_10  and  N_13
    7  A    between atoms: C_10  and  C_25
    8  A    between atoms: C_16  and  C_21
    9  A    between atoms: N_20  and  C_25
   10  A    between atoms: C_21  and  C_27
                            x       y       z     vdW  Elec       q    Type
                         _______ _______ _______ _____ _____    ______ ____

>  <TORSDO>
F 10

$$$$
=
 OpenBabel10272401493D

 28 29  0  0  1  0  0  0  0  0999 V2000
  190.6000  176.5730  143.2020 C   0  0  1  0  0  3  0  0  0  0  0  0
  191.8470  176.3290  144.0420 C   0  0  0  0  0  2  0  0  0  0  0  0
  192.0960  174.9600  144.1440 O   0  0  0  0  0  1  0  0  0  0  0  0
  189.8140  178.6290  144.0700 O   0  0  0  0  0  0  0  0  0  0  0  0
  189.6080  177.4320  143.9340 C   0  0  0  0  0  0  0  0  0  0  0  0
  188.3370  176.8440  144.4810 C   0  0  1  0  0  3  0  0  0  0  0  0
  188.0010  177.4140  145.8310 C   0  0  0  0  0  0  0  0  0  0  0  0
  187.4160  178.5260  148.3400 C   0  0  0  0  0  3  0  0  0  0  0  0
  186.8400  178.1840  146.0150 C   0  0  0  0  0  3  0  0  0  0  0  0
  190.0330  176.4640  146.7600 O   0  0  0  0  0  1  0  0  0  0  0  0
  188.8720  177.2120  146.9160 C   0  0  0  0  0  0  0  0  0  0  0  0
  188.5750  177.7660  148.1640 C   0  0  0  0  0  3  0  0  0  0  0  0
  186.5490  178.7350  147.2660 C   0  0  0  0  0  3  0  0  0  0  0  0
  187.1750  176.9620  143.5020 C   0  0  0  0  0  2  0  0  0  0  0  0
  187.6000  177.5860  142.3310 O   0  0  0  0  0  1  0  0  0  0  0  0
  190.9720  177.2220  141.8800 C   0  0  0  0  0  2  0  0  0  0  0  0
  190.4980  176.3990  140.7710 N   0  0  0  0  0  2  0  0  0  0  0  0
  192.3880  177.0400  139.5170 O   0  0  0  0  0  1  0  0  0  0  0  0
  190.9950  176.9290  139.5000 C   0  0  1  0  0  3  0  0  0  0  0  0
  190.5300  176.0800  138.3210 C   0  0  0  0  0  2  0  0  0  0  0  0
  189.4290  178.1320  138.1300 C   0  0  0  0  0  2  0  0  0  0  0  0
  188.2730  176.1480  137.7480 C   0  0  0  0  0  2  0  0  0  0  0  0
  187.5030  178.8260  136.6030 C   0  0  1  0  0  3  0  0  0  0  0  0
  189.5510  176.8090  137.5320 N   0  0  0  0  0  0  0  0  0  0  0  0
  187.4690  177.5620  135.7380 C   0  0  0  0  0  2  0  0  0  0  0  0
  187.3770  176.2400  136.5120 C   0  0  0  0  0  2  0  0  0  0  0  0
  186.5800  178.7670  137.6510 O   0  0  0  0  0  1  0  0  0  0  0  0
  188.9110  179.1420  137.1090 C   0  0  0  0  0  2  0  0  0  0  0  0
  1 16  1  6  0  0  0
  1  5  1  0  0  0  0
  1  2  1  0  0  0  0
  2  3  1  0  0  0  0
  5  4  2  0  0  0  0
  5  6  1  0  0  0  0
  6 14  1  6  0  0  0
  6  7  1  0  0  0  0
  7  9  2  0  0  0  0
  7 11  1  0  0  0  0
  9 13  1  0  0  0  0
 10 11  1  0  0  0  0
 11 12  2  0  0  0  0
 12  8  1  0  0  0  0
 13  8  2  0  0  0  0
 15 14  1  0  0  0  0
 17 16  1  0  0  0  0
 19 18  1  1  0  0  0
 19 17  1  0  0  0  0
 20 19  1  0  0  0  0
 23 28  1  0  0  0  0
 23 27  1  1  0  0  0
 24 22  1  0  0  0  0
 24 21  1  0  0  0  0
 24 20  1  0  0  0  0
 25 26  1  0  0  0  0
 25 23  1  0  0  0  0
 26 22  1  0  0  0  0
 28 21  1  0  0  0  0
M  END
>  <MODEL>
7

>  <REMARK>
 VINA RESULT:      -6.9      1.384      2.269
  Name = 
  10 active torsions:
  status: ('A' for Active; 'I' for Inactive)
    1  A    between atoms: C_1  and  C_2
    2  A    between atoms: C_1  and  C_3
    3  A    between atoms: C_1  and  C_27
    4  A    between atoms: C_5  and  N_20
    5  A    between atoms: C_5  and  C_21
    6  A    between atoms: C_10  and  N_13
    7  A    between atoms: C_10  and  C_25
    8  A    between atoms: C_16  and  C_21
    9  A    between atoms: N_20  and  C_25
   10  A    between atoms: C_21  and  C_27
                            x       y       z     vdW  Elec       q    Type
                         _______ _______ _______ _____ _____    ______ ____

>  <TORSDO>
F 10

$$$$
=
 OpenBabel10272401493D

 28 29  0  0  1  0  0  0  0  0999 V2000
  189.8350  177.4560  143.5500 C   0  0  1  0  0  3  0  0  0  0  0  0
  190.3480  178.6600  144.3280 C   0  0  0  0  0  2  0  0  0  0  0  0
  191.4940  179.1710  143.7180 O   0  0  0  0  0  1  0  0  0  0  0  0
  188.0050  175.9580  143.6580 O   0  0  0  0  0  0  0  0  0  0  0  0
  188.5060  176.9910  144.0770 C   0  0  0  0  0  0  0  0  0  0  0  0
  187.7880  177.7680  145.1460 C   0  0  1  0  0  3  0  0  0  0  0  0
  186.3870  178.1180  144.7290 C   0  0  0  0  0  0  0  0  0  0  0  0
  183.7890  178.8350  143.9480 C   0  0  0  0  0  3  0  0  0  0  0  0
  185.9700  177.9450  143.3980 C   0  0  0  0  0  3  0  0  0  0  0  0
  185.8780  178.8550  146.9860 O   0  0  0  0  0  1  0  0  0  0  0  0
  185.4910  178.6620  145.6650 C   0  0  0  0  0  0  0  0  0  0  0  0
  184.1960  179.0150  145.2720 C   0  0  0  0  0  3  0  0  0  0  0  0
  184.6760  178.3000  143.0110 C   0  0  0  0  0  3  0  0  0  0  0  0
  187.8250  177.0650  146.4980 C   0  0  0  0  0  2  0  0  0  0  0  0
  189.0030  177.3870  147.1710 O   0  0  0  0  0  1  0  0  0  0  0  0
  189.7170  177.7900  142.0730 C   0  0  0  0  0  2  0  0  0  0  0  0
  190.3000  176.7180  141.2720 N   0  0  0  0  0  2  0  0  0  0  0  0
  192.2430  177.5170  140.2060 O   0  0  0  0  0  1  0  0  0  0  0  0
  190.8780  177.2610  140.0420 C   0  0  1  0  0  3  0  0  0  0  0  0
  190.6360  176.3360  138.8540 C   0  0  0  0  0  2  0  0  0  0  0  0
  189.4640  178.3070  138.3980 C   0  0  0  0  0  2  0  0  0  0  0  0
  188.4420  176.2400  138.0740 C   0  0  0  0  0  2  0  0  0  0  0  0
  187.6630  178.7780  136.6500 C   0  0  1  0  0  3  0  0  0  0  0  0
  189.7030  176.9500  137.9230 N   0  0  0  0  0  0  0  0  0  0  0  0
  187.7700  177.4520  135.8910 C   0  0  0  0  0  2  0  0  0  0  0  0
  187.6650  176.1900  136.7580 C   0  0  0  0  0  2  0  0  0  0  0  0
  186.6480  178.7500  137.6100 O   0  0  0  0  0  1  0  0  0  0  0  0
  189.0000  179.2060  137.2550 C   0  0  0  0  0  2  0  0  0  0  0  0
  1 16  1  6  0  0  0
  1  5  1  0  0  0  0
  1  2  1  0  0  0  0
  3  2  1  0  0  0  0
  4  5  2  0  0  0  0
  5  6  1  0  0  0  0
  6 14  1  1  0  0  0
  7  6  1  0  0  0  0
  7 11  1  0  0  0  0
  8 12  1  0  0  0  0
  9  7  2  0  0  0  0
 11 10  1  0  0  0  0
 12 11  2  0  0  0  0
 13  9  1  0  0  0  0
 13  8  2  0  0  0  0
 14 15  1  0  0  0  0
 17 16  1  0  0  0  0
 19 18  1  1  0  0  0
 19 17  1  0  0  0  0
 20 19  1  0  0  0  0
 23 28  1  0  0  0  0
 23 27  1  1  0  0  0
 24 22  1  0  0  0  0
 24 21  1  0  0  0  0
 24 20  1  0  0  0  0
 25 23  1  0  0  0  0
 25 26  1  0  0  0  0
 26 22  1  0  0  0  0
 28 21  1  0  0  0  0
M  END
>  <MODEL>
8

>  <REMARK>
 VINA RESULT:      -6.9      1.579      2.109
  Name = 
  10 active torsions:
  status: ('A' for Active; 'I' for Inactive)
    1  A    between atoms: C_1  and  C_2
    2  A    between atoms: C_1  and  C_3
    3  A    between atoms: C_1  and  C_27
    4  A    between atoms: C_5  and  N_20
    5  A    between atoms: C_5  and  C_21
    6  A    between atoms: C_10  and  N_13
    7  A    between atoms: C_10  and  C_25
    8  A    between atoms: C_16  and  C_21
    9  A    between atoms: N_20  and  C_25
   10  A    between atoms: C_21  and  C_27
                            x       y       z     vdW  Elec       q    Type
                         _______ _______ _______ _____ _____    ______ ____

>  <TORSDO>
F 10

$$$$
=
 OpenBabel10272401493D

 28 29  0  0  1  0  0  0  0  0999 V2000
  188.4730  176.9450  141.9770 C   0  0  1  0  0  3  0  0  0  0  0  0
  188.9630  177.2870  140.5770 C   0  0  0  0  0  2  0  0  0  0  0  0
  188.8310  178.6560  140.3430 O   0  0  0  0  0  1  0  0  0  0  0  0
  190.2510  175.6910  142.9080 O   0  0  0  0  0  0  0  0  0  0  0  0
  189.6230  176.7390  142.9230 C   0  0  0  0  0  0  0  0  0  0  0  0
  190.0370  177.8250  143.8780 C   0  0  1  0  0  3  0  0  0  0  0  0
  190.3920  177.2680  145.2280 C   0  0  0  0  0  0  0  0  0  0  0  0
  191.0210  176.1730  147.7340 C   0  0  0  0  0  3  0  0  0  0  0  0
  191.6550  176.6980  145.4590 C   0  0  0  0  0  3  0  0  0  0  0  0
  188.1800  177.8240  146.0610 O   0  0  0  0  0  1  0  0  0  0  0  0
  189.4410  177.2770  146.2640 C   0  0  0  0  0  0  0  0  0  0  0  0
  189.7600  176.7330  147.5110 C   0  0  0  0  0  3  0  0  0  0  0  0
  191.9680  176.1550  146.7080 C   0  0  0  0  0  3  0  0  0  0  0  0
  191.1450  178.7040  143.3100 C   0  0  0  0  0  2  0  0  0  0  0  0
  191.2360  179.8880  144.0400 O   0  0  0  0  0  1  0  0  0  0  0  0
  187.5620  178.0420  142.5010 C   0  0  0  0  0  2  0  0  0  0  0  0
  186.4760  177.4570  143.2830 N   0  0  0  0  0  2  0  0  0  0  0  0
  185.1700  178.9400  144.5660 O   0  0  0  0  0  1  0  0  0  0  0  0
  185.3250  178.3600  143.3040 C   0  0  1  0  0  3  0  0  0  0  0  0
  185.4340  179.4290  142.2220 C   0  0  0  0  0  2  0  0  0  0  0  0
  183.4330  178.2900  141.8200 C   0  0  0  0  0  2  0  0  0  0  0  0
  184.8660  178.7890  140.0550 C   0  0  0  0  0  2  0  0  0  0  0  0
  181.9000  178.3330  139.7770 C   0  0  1  0  0  3  0  0  0  0  0  0
  184.3200  179.3200  141.2940 N   0  0  0  0  0  0  0  0  0  0  0  0
  182.5920  179.4800  139.0340 C   0  0  0  0  0  2  0  0  0  0  0  0
  184.1060  179.3140  138.8360 C   0  0  0  0  0  2  0  0  0  0  0  0
  182.3520  177.0830  139.3460 O   0  0  0  0  0  1  0  0  0  0  0  0
  182.0120  178.4800  141.2950 C   0  0  0  0  0  2  0  0  0  0  0  0
  1  2  1  6  0  0  0
  1 16  1  0  0  0  0
  1  5  1  0  0  0  0
  3  2  1  0  0  0  0
  4  5  2  0  0  0  0
  5  6  1  0  0  0  0
  6 14  1  6  0  0  0
  6  7  1  0  0  0  0
  7  9  2  0  0  0  0
  7 11  1  0  0  0  0
  9 13  1  0  0  0  0
 10 11  1  0  0  0  0
 11 12  2  0  0  0  0
 12  8  1  0  0  0  0
 13  8  2  0  0  0  0
 14 15  1  0  0  0  0
 16 17  1  0  0  0  0
 17 19  1  0  0  0  0
 19 18  1  1  0  0  0
 20 19  1  0  0  0  0
 22 24  1  0  0  0  0
 23 27  1  6  0  0  0
 23 28  1  0  0  0  0
 24 21  1  0  0  0  0
 24 20  1  0  0  0  0
 25 23  1  0  0  0  0
 26 25  1  0  0  0  0
 26 22  1  0  0  0  0
 28 21  1  0  0  0  0
M  END
>  <MODEL>
9

>  <REMARK>
 VINA RESULT:      -6.9      3.248      5.191
  Name = 
  10 active torsions:
  status: ('A' for Active; 'I' for Inactive)
    1  A    between atoms: C_1  and  C_2
    2  A    between atoms: C_1  and  C_3
    3  A    between atoms: C_1  and  C_27
    4  A    between atoms: C_5  and  N_20
    5  A    between atoms: C_5  and  C_21
    6  A    between atoms: C_10  and  N_13
    7  A    between atoms: C_10  and  C_25
    8  A    between atoms: C_16  and  C_21
    9  A    between atoms: N_20  and  C_25
   10  A    between atoms: C_21  and  C_27
                            x       y       z     vdW  Elec       q    Type
                         _______ _______ _______ _____ _____    ______ ____

>  <TORSDO>
F 10

$$$$
