=
 OpenBabel10272400573D

 27 31  0  0  1  0  0  0  0  0999 V2000
  190.4680  177.9460  143.4660 C   0  0  0  0  0  2  0  0  0  0  0  0
  188.3970  177.5330  144.7860 C   0  0  0  0  0  0  0  0  0  0  0  0
  187.5310  177.3420  142.4020 N   0  0  0  0  0  0  0  0  0  0  0  0
  184.5930  178.8290  145.7110 N   0  0  0  0  0  0  0  0  0  0  0  0
  182.6370  179.1050  144.2630 C   0  0  0  0  0  1  0  0  0  0  0  0
  188.1160  177.8960  146.1310 C   0  0  0  0  0  3  0  0  0  0  0  0
  184.9130  178.3090  143.5960 C   0  0  0  0  0  0  0  0  0  0  0  0
  189.8230  177.1980  139.8990 C   0  0  0  0  0  0  0  0  0  0  0  0
  184.6190  178.1090  142.1460 C   0  0  0  0  0  1  0  0  0  0  0  0
  190.2420  177.0030  138.5530 N   0  0  0  0  0  1  0  0  0  0  0  0
  186.1130  178.0890  144.2440 C   0  0  0  0  0  0  0  0  0  0  0  0
  189.7670  177.0080  144.4260 C   0  0  2  0  0  3  0  0  0  0  0  0
  184.0240  178.7510  144.5140 N   0  0  0  0  0  0  0  0  0  0  0  0
  185.8670  178.4270  145.5500 C   0  0  0  0  0  0  0  0  0  0  0  0
  189.9730  177.6600  142.0960 C   0  0  0  0  0  0  0  0  0  0  0  0
  187.3690  177.6560  143.7990 C   0  0  0  0  0  0  0  0  0  0  0  0
  188.5970  177.0400  140.2830 N   0  0  0  0  0  0  0  0  0  0  0  0
  186.8490  178.3490  146.5250 C   0  0  0  0  0  3  0  0  0  0  0  0
  192.1100  177.7850  140.9170 N   0  0  0  0  0  1  0  0  0  0  0  0
  190.7010  177.5870  140.9970 C   0  0  0  0  0  0  0  0  0  0  0  0
  188.6140  177.3210  141.6810 C   0  0  0  0  0  0  0  0  0  0  0  0
  192.2750  175.8830  147.7410 C   0  0  0  0  0  3  0  0  0  0  0  0
  190.6420  176.6390  145.5910 C   0  0  0  0  0  0  0  0  0  0  0  0
  190.4530  177.2130  146.8590 C   0  0  0  0  0  3  0  0  0  0  0  0
  191.2710  176.8370  147.9290 C   0  0  0  0  0  3  0  0  0  0  0  0
  192.4620  175.3040  146.4810 C   0  0  0  0  0  3  0  0  0  0  0  0
  191.6450  175.6800  145.4100 C   0  0  0  0  0  3  0  0  0  0  0  0
  1 12  1  0  0  0  0
  2  6  1  0  0  0  0
  3 16  1  0  0  0  0
  5 13  1  0  0  0  0
  6 18  2  0  0  0  0
  7 11  2  0  0  0  0
  7 13  1  0  0  0  0
  8 17  2  0  0  0  0
  8 20  1  0  0  0  0
  9  7  1  0  0  0  0
 10  8  1  0  0  0  0
 11 14  1  0  0  0  0
 12  2  1  0  0  0  0
 12 23  1  1  0  0  0
 13  4  1  0  0  0  0
 14  4  2  0  0  0  0
 14 18  1  0  0  0  0
 15  1  1  0  0  0  0
 16 11  1  0  0  0  0
 16  2  2  0  0  0  0
 17 21  1  0  0  0  0
 19 20  1  0  0  0  0
 20 15  2  0  0  0  0
 21 15  1  0  0  0  0
 21  3  2  0  0  0  0
 22 25  1  0  0  0  0
 23 24  1  0  0  0  0
 24 25  2  0  0  0  0
 26 22  2  0  0  0  0
 27 23  2  0  0  0  0
 27 26  1  0  0  0  0
M  END
>  <MODEL>
1

>  <REMARK>
 VINA RESULT:     -10.7      0.000      0.000
  Name = 
  1 active torsions:
  status: ('A' for Active; 'I' for Inactive)
    1  A    between atoms: C_9  and  C_15
                            x       y       z     vdW  Elec       q    Type
                         _______ _______ _______ _____ _____    ______ ____

>  <TORSDO>
F 1

$$$$
=
 OpenBabel10272400573D

 27 31  0  0  1  0  0  0  0  0999 V2000
  187.8320  178.7960  140.8360 C   0  0  0  0  0  2  0  0  0  0  0  0
  189.5150  177.4790  142.1140 C   0  0  0  0  0  0  0  0  0  0  0  0
  187.5230  177.4320  143.6940 N   0  0  0  0  0  0  0  0  0  0  0  0
  191.8100  177.2250  145.5310 N   0  0  0  0  0  0  0  0  0  0  0  0
  191.1180  177.0750  147.8750 C   0  0  0  0  0  1  0  0  0  0  0  0
  190.9300  177.4800  141.9780 C   0  0  0  0  0  3  0  0  0  0  0  0
  189.6350  177.2280  145.8660 C   0  0  0  0  0  0  0  0  0  0  0  0
  184.5360  178.5190  142.4980 C   0  0  0  0  0  0  0  0  0  0  0  0
  188.3330  177.2020  146.5970 C   0  0  0  0  0  1  0  0  0  0  0  0
  183.1280  178.7200  142.5540 N   0  0  0  0  0  1  0  0  0  0  0  0
  189.8250  177.3160  144.5010 C   0  0  0  0  0  0  0  0  0  0  0  0
  188.6480  177.5200  140.8780 C   0  0  2  0  0  3  0  0  0  0  0  0
  190.8540  177.1730  146.4490 N   0  0  0  0  0  0  0  0  0  0  0  0
  191.1870  177.3120  144.3410 C   0  0  0  0  0  0  0  0  0  0  0  0
  186.6370  178.6070  141.6960 C   0  0  0  0  0  0  0  0  0  0  0  0
  188.9390  177.4200  143.4210 C   0  0  0  0  0  0  0  0  0  0  0  0
  185.1920  177.8900  143.4190 N   0  0  0  0  0  0  0  0  0  0  0  0
  191.7790  177.3990  143.0910 C   0  0  0  0  0  3  0  0  0  0  0  0
  184.9820  179.6550  140.2350 N   0  0  0  0  0  1  0  0  0  0  0  0
  185.4020  178.9810  141.4180 C   0  0  0  0  0  0  0  0  0  0  0  0
  186.5480  177.9080  142.9750 C   0  0  0  0  0  0  0  0  0  0  0  0
  190.6360  176.8120  137.1240 C   0  0  0  0  0  3  0  0  0  0  0  0
  189.3630  177.2690  139.5800 C   0  0  0  0  0  0  0  0  0  0  0  0
  190.3340  176.2590  139.4620 C   0  0  0  0  0  3  0  0  0  0  0  0
  190.9690  176.0350  138.2370 C   0  0  0  0  0  3  0  0  0  0  0  0
  189.6660  177.8130  137.2350 C   0  0  0  0  0  3  0  0  0  0  0  0
  189.0300  178.0390  138.4600 C   0  0  0  0  0  3  0  0  0  0  0  0
  1 12  1  0  0  0  0
  1 15  1  0  0  0  0
  2 16  2  0  0  0  0
  4 13  1  0  0  0  0
  6  2  1  0  0  0  0
  6 18  2  0  0  0  0
  7 13  1  0  0  0  0
  7  9  1  0  0  0  0
  8 10  1  0  0  0  0
  8 17  2  0  0  0  0
 11  7  2  0  0  0  0
 12 23  1  6  0  0  0
 12  2  1  0  0  0  0
 13  5  1  0  0  0  0
 14 11  1  0  0  0  0
 14  4  2  0  0  0  0
 15 21  1  0  0  0  0
 16  3  1  0  0  0  0
 16 11  1  0  0  0  0
 18 14  1  0  0  0  0
 19 20  1  0  0  0  0
 20 15  2  0  0  0  0
 20  8  1  0  0  0  0
 21 17  1  0  0  0  0
 21  3  2  0  0  0  0
 22 26  2  0  0  0  0
 22 25  1  0  0  0  0
 24 23  1  0  0  0  0
 25 24  2  0  0  0  0
 26 27  1  0  0  0  0
 27 23  2  0  0  0  0
M  END
>  <MODEL>
2

>  <REMARK>
 VINA RESULT:     -10.6      2.166      6.399
  Name = 
  1 active torsions:
  status: ('A' for Active; 'I' for Inactive)
    1  A    between atoms: C_9  and  C_15
                            x       y       z     vdW  Elec       q    Type
                         _______ _______ _______ _____ _____    ______ ____

>  <TORSDO>
F 1

$$$$
=
 OpenBabel10272400573D

 27 31  0  0  1  0  0  0  0  0999 V2000
  184.8670  177.7440  142.5220 C   0  0  0  0  0  2  0  0  0  0  0  0
  187.3550  177.7940  142.4280 C   0  0  0  0  0  0  0  0  0  0  0  0
  186.7380  178.7500  140.1530 N   0  0  0  0  0  0  0  0  0  0  0  0
  190.7530  176.4030  140.5520 N   0  0  0  0  0  0  0  0  0  0  0  0
  191.4750  176.6590  138.2260 C   0  0  0  0  0  1  0  0  0  0  0  0
  188.2860  177.0390  143.1910 C   0  0  0  0  0  3  0  0  0  0  0  0
  189.3800  177.5470  139.2670 C   0  0  0  0  0  0  0  0  0  0  0  0
  183.4900  179.5910  139.6250 C   0  0  0  0  0  0  0  0  0  0  0  0
  188.8300  178.1990  138.0420 C   0  0  0  0  0  1  0  0  0  0  0  0
  182.4200  180.1830  138.8960 N   0  0  0  0  0  1  0  0  0  0  0  0
  188.8100  177.5120  140.5240 C   0  0  0  0  0  0  0  0  0  0  0  0
  186.1250  178.3590  143.0990 C   0  0  2  0  0  3  0  0  0  0  0  0
  190.5500  176.8700  139.3260 N   0  0  0  0  0  0  0  0  0  0  0  0
  189.6940  176.7920  141.2850 C   0  0  0  0  0  0  0  0  0  0  0  0
  184.5380  178.4610  141.2640 C   0  0  0  0  0  0  0  0  0  0  0  0
  187.6100  178.0200  141.0390 C   0  0  0  0  0  0  0  0  0  0  0  0
  184.7240  179.6630  139.2430 N   0  0  0  0  0  0  0  0  0  0  0  0
  189.4630  176.5280  142.6260 C   0  0  0  0  0  3  0  0  0  0  0  0
  182.1210  178.6380  141.5820 N   0  0  0  0  0  1  0  0  0  0  0  0
  183.3390  178.8490  140.8720 C   0  0  0  0  0  0  0  0  0  0  0  0
  185.4560  178.9580  140.2430 C   0  0  0  0  0  0  0  0  0  0  0  0
  186.1070  178.2930  147.4040 C   0  0  0  0  0  3  0  0  0  0  0  0
  186.1330  178.3160  144.6010 C   0  0  0  0  0  0  0  0  0  0  0  0
  187.2900  177.9620  145.3170 C   0  0  0  0  0  3  0  0  0  0  0  0
  187.2740  177.9490  146.7150 C   0  0  0  0  0  3  0  0  0  0  0  0
  184.9560  178.6510  146.6960 C   0  0  0  0  0  3  0  0  0  0  0  0
  184.9710  178.6640  145.2970 C   0  0  0  0  0  3  0  0  0  0  0  0
  1 12  1  0  0  0  0
  2 12  1  0  0  0  0
  2  6  1  0  0  0  0
  3 21  2  0  0  0  0
  3 16  1  0  0  0  0
  4 14  2  0  0  0  0
  5 13  1  0  0  0  0
  7 13  1  0  0  0  0
  7 11  2  0  0  0  0
  8 20  1  0  0  0  0
  9  7  1  0  0  0  0
 10  8  1  0  0  0  0
 11 16  1  0  0  0  0
 11 14  1  0  0  0  0
 12 23  1  1  0  0  0
 13  4  1  0  0  0  0
 14 18  1  0  0  0  0
 15  1  1  0  0  0  0
 16  2  2  0  0  0  0
 17  8  2  0  0  0  0
 17 21  1  0  0  0  0
 18  6  2  0  0  0  0
 20 15  2  0  0  0  0
 20 19  1  0  0  0  0
 21 15  1  0  0  0  0
 23 27  2  0  0  0  0
 23 24  1  0  0  0  0
 24 25  2  0  0  0  0
 25 22  1  0  0  0  0
 26 22  2  0  0  0  0
 27 26  1  0  0  0  0
M  END
>  <MODEL>
3

>  <REMARK>
 VINA RESULT:     -10.4      2.638      6.279
  Name = 
  1 active torsions:
  status: ('A' for Active; 'I' for Inactive)
    1  A    between atoms: C_9  and  C_15
                            x       y       z     vdW  Elec       q    Type
                         _______ _______ _______ _____ _____    ______ ____

>  <TORSDO>
F 1

$$$$
=
 OpenBabel10272400573D

 27 31  0  0  1  0  0  0  0  0999 V2000
  185.7810  179.1180  144.5590 C   0  0  0  0  0  2  0  0  0  0  0  0
  186.5550  178.1360  142.4060 C   0  0  0  0  0  0  0  0  0  0  0  0
  188.2570  177.1890  144.0420 N   0  0  0  0  0  0  0  0  0  0  0  0
  189.5940  177.9060  139.6270 N   0  0  0  0  0  0  0  0  0  0  0  0
  191.8910  177.0980  139.8810 C   0  0  0  0  0  1  0  0  0  0  0  0
  186.2950  178.5840  141.0820 C   0  0  0  0  0  3  0  0  0  0  0  0
  190.1180  177.1960  141.6430 C   0  0  0  0  0  0  0  0  0  0  0  0
  187.6270  177.5530  147.3590 C   0  0  0  0  0  0  0  0  0  0  0  0
  190.9390  176.6410  142.7600 C   0  0  0  0  0  1  0  0  0  0  0  0
  187.8560  177.3100  148.7430 N   0  0  0  0  0  1  0  0  0  0  0  0
  188.8000  177.6050  141.6980 C   0  0  0  0  0  0  0  0  0  0  0  0
  185.4480  178.1610  143.4330 C   0  0  2  0  0  3  0  0  0  0  0  0
  190.5580  177.3920  140.3790 N   0  0  0  0  0  0  0  0  0  0  0  0
  188.5200  178.0380  140.4270 C   0  0  0  0  0  0  0  0  0  0  0  0
  186.6790  178.4170  145.5110 C   0  0  0  0  0  0  0  0  0  0  0  0
  187.8600  177.6520  142.7350 C   0  0  0  0  0  0  0  0  0  0  0  0
  188.3110  176.9780  146.4230 N   0  0  0  0  0  0  0  0  0  0  0  0
  187.2760  178.5420  140.0810 C   0  0  0  0  0  3  0  0  0  0  0  0
  185.6600  179.1930  147.5920 N   0  0  0  0  0  1  0  0  0  0  0  0
  186.6100  178.4540  146.8280 C   0  0  0  0  0  0  0  0  0  0  0  0
  187.7620  177.4850  145.2080 C   0  0  0  0  0  0  0  0  0  0  0  0
  181.4650  178.8120  141.9310 C   0  0  0  0  0  3  0  0  0  0  0  0
  184.0670  178.3950  142.8870 C   0  0  0  0  0  0  0  0  0  0  0  0
  183.7310  178.0380  141.5700 C   0  0  0  0  0  3  0  0  0  0  0  0
  182.4340  178.2500  141.0940 C   0  0  0  0  0  3  0  0  0  0  0  0
  181.7940  179.1620  143.2450 C   0  0  0  0  0  3  0  0  0  0  0  0
  183.0920  178.9510  143.7210 C   0  0  0  0  0  3  0  0  0  0  0  0
  1 15  1  0  0  0  0
  2 16  2  0  0  0  0
  2 12  1  0  0  0  0
  3 21  2  0  0  0  0
  4 13  1  0  0  0  0
  4 14  2  0  0  0  0
  5 13  1  0  0  0  0
  6  2  1  0  0  0  0
  7 11  2  0  0  0  0
  7  9  1  0  0  0  0
  8 10  1  0  0  0  0
 11 16  1  0  0  0  0
 12 23  1  6  0  0  0
 12  1  1  0  0  0  0
 13  7  1  0  0  0  0
 14 11  1  0  0  0  0
 15 20  2  0  0  0  0
 16  3  1  0  0  0  0
 17  8  2  0  0  0  0
 18 14  1  0  0  0  0
 18  6  2  0  0  0  0
 20  8  1  0  0  0  0
 20 19  1  0  0  0  0
 21 15  1  0  0  0  0
 21 17  1  0  0  0  0
 22 26  1  0  0  0  0
 23 27  1  0  0  0  0
 24 23  2  0  0  0  0
 25 24  1  0  0  0  0
 25 22  2  0  0  0  0
 26 27  2  0  0  0  0
M  END
>  <MODEL>
4

>  <REMARK>
 VINA RESULT:     -10.3      2.169      7.476
  Name = 
  1 active torsions:
  status: ('A' for Active; 'I' for Inactive)
    1  A    between atoms: C_9  and  C_15
                            x       y       z     vdW  Elec       q    Type
                         _______ _______ _______ _____ _____    ______ ____

>  <TORSDO>
F 1

$$$$
=
 OpenBabel10272400573D

 27 31  0  0  1  0  0  0  0  0999 V2000
  188.9310  178.0460  144.8450 C   0  0  0  0  0  2  0  0  0  0  0  0
  187.8630  177.7860  142.6110 C   0  0  0  0  0  0  0  0  0  0  0  0
  189.9400  176.3410  142.3550 N   0  0  0  0  0  0  0  0  0  0  0  0
  188.1960  178.4000  138.5460 N   0  0  0  0  0  0  0  0  0  0  0  0
  189.8360  177.5160  136.9580 C   0  0  0  0  0  1  0  0  0  0  0  0
  186.9160  178.6340  141.9760 C   0  0  0  0  0  3  0  0  0  0  0  0
  189.7250  177.0790  139.4190 C   0  0  0  0  0  0  0  0  0  0  0  0
  191.7290  175.6440  145.1570 C   0  0  0  0  0  0  0  0  0  0  0  0
  190.9170  176.1850  139.5000 C   0  0  0  0  0  1  0  0  0  0  0  0
  192.7410  174.9710  145.8990 N   0  0  0  0  0  1  0  0  0  0  0  0
  188.9020  177.4700  140.4560 C   0  0  0  0  0  0  0  0  0  0  0  0
  187.7370  177.5010  144.0890 C   0  0  2  0  0  3  0  0  0  0  0  0
  189.2650  177.6580  138.2860 N   0  0  0  0  0  0  0  0  0  0  0  0
  187.9710  178.2880  139.8690 C   0  0  0  0  0  0  0  0  0  0  0  0
  190.0390  177.0650  144.7270 C   0  0  0  0  0  0  0  0  0  0  0  0
  188.9090  177.2000  141.8310 C   0  0  0  0  0  0  0  0  0  0  0  0
  191.4820  175.3850  143.9140 N   0  0  0  0  0  0  0  0  0  0  0  0
  186.9620  178.8960  140.6000 C   0  0  0  0  0  3  0  0  0  0  0  0
  190.8370  177.1570  147.0350 N   0  0  0  0  0  1  0  0  0  0  0  0
  190.8560  176.6830  145.6910 C   0  0  0  0  0  0  0  0  0  0  0  0
  190.4100  176.2600  143.5660 C   0  0  0  0  0  0  0  0  0  0  0  0
  184.0240  178.6500  145.9420 C   0  0  0  0  0  3  0  0  0  0  0  0
  186.4370  177.9190  144.7170 C   0  0  0  0  0  0  0  0  0  0  0  0
  185.3050  178.2080  143.9350 C   0  0  0  0  0  3  0  0  0  0  0  0
  184.1040  178.5750  144.5480 C   0  0  0  0  0  3  0  0  0  0  0  0
  185.1460  178.3570  146.7240 C   0  0  0  0  0  3  0  0  0  0  0  0
  186.3480  177.9900  146.1120 C   0  0  0  0  0  3  0  0  0  0  0  0
  2 12  1  0  0  0  0
  3 21  2  0  0  0  0
  4 14  2  0  0  0  0
  5 13  1  0  0  0  0
  6  2  1  0  0  0  0
  7  9  1  0  0  0  0
  7 11  2  0  0  0  0
  8 20  1  0  0  0  0
  8 10  1  0  0  0  0
 11 16  1  0  0  0  0
 12 23  1  1  0  0  0
 12  1  1  0  0  0  0
 13  4  1  0  0  0  0
 13  7  1  0  0  0  0
 14 11  1  0  0  0  0
 14 18  1  0  0  0  0
 15  1  1  0  0  0  0
 15 20  2  0  0  0  0
 16  3  1  0  0  0  0
 16  2  2  0  0  0  0
 17  8  2  0  0  0  0
 18  6  2  0  0  0  0
 20 19  1  0  0  0  0
 21 17  1  0  0  0  0
 21 15  1  0  0  0  0
 22 26  1  0  0  0  0
 23 27  1  0  0  0  0
 24 25  1  0  0  0  0
 24 23  2  0  0  0  0
 25 22  2  0  0  0  0
 27 26  2  0  0  0  0
M  END
>  <MODEL>
5

>  <REMARK>
 VINA RESULT:     -10.0      2.331      5.996
  Name = 
  1 active torsions:
  status: ('A' for Active; 'I' for Inactive)
    1  A    between atoms: C_9  and  C_15
                            x       y       z     vdW  Elec       q    Type
                         _______ _______ _______ _____ _____    ______ ____

>  <TORSDO>
F 1

$$$$
=
 OpenBabel10272400573D

 27 31  0  0  1  0  0  0  0  0999 V2000
  187.0870  177.1540  144.5280 C   0  0  0  0  0  2  0  0  0  0  0  0
  189.0060  177.3110  142.9490 C   0  0  0  0  0  0  0  0  0  0  0  0
  187.1850  178.5370  141.6640 N   0  0  0  0  0  0  0  0  0  0  0  0
  190.4930  176.3130  139.2350 N   0  0  0  0  0  0  0  0  0  0  0  0
  189.6670  176.9040  137.0060 C   0  0  0  0  0  1  0  0  0  0  0  0
  190.1690  176.4980  142.8840 C   0  0  0  0  0  3  0  0  0  0  0  0
  188.6830  177.5650  139.2090 C   0  0  0  0  0  0  0  0  0  0  0  0
  184.3310  179.3160  143.3320 C   0  0  0  0  0  0  0  0  0  0  0  0
  187.5360  178.3530  138.6680 C   0  0  0  0  0  1  0  0  0  0  0  0
  183.0700  179.9590  143.4870 N   0  0  0  0  0  1  0  0  0  0  0  0
  188.9910  177.3410  140.5370 C   0  0  0  0  0  0  0  0  0  0  0  0
  188.4660  177.7350  144.2950 C   0  0  2  0  0  3  0  0  0  0  0  0
  189.6120  176.9310  138.4580 N   0  0  0  0  0  0  0  0  0  0  0  0
  190.1180  176.5610  140.5030 C   0  0  0  0  0  0  0  0  0  0  0  0
  186.0990  178.0190  143.8350 C   0  0  0  0  0  0  0  0  0  0  0  0
  188.3770  177.7300  141.7350 C   0  0  0  0  0  0  0  0  0  0  0  0
  185.0820  179.4860  142.2920 N   0  0  0  0  0  0  0  0  0  0  0  0
  190.7350  176.1120  141.6600 C   0  0  0  0  0  3  0  0  0  0  0  0
  184.3840  178.0600  145.5750 N   0  0  0  0  0  1  0  0  0  0  0  0
  184.9300  178.4100  144.3060 C   0  0  0  0  0  0  0  0  0  0  0  0
  186.2340  178.6820  142.5400 C   0  0  0  0  0  0  0  0  0  0  0  0
  191.1220  176.9880  147.6010 C   0  0  0  0  0  3  0  0  0  0  0  0
  189.3820  177.4920  145.4620 C   0  0  0  0  0  0  0  0  0  0  0  0
  188.9170  177.5690  146.7860 C   0  0  0  0  0  3  0  0  0  0  0  0
  189.7880  177.3200  147.8510 C   0  0  0  0  0  3  0  0  0  0  0  0
  191.5870  176.9030  146.2850 C   0  0  0  0  0  3  0  0  0  0  0  0
  190.7180  177.1530  145.2180 C   0  0  0  0  0  3  0  0  0  0  0  0
  2 12  1  0  0  0  0
  3 16  1  0  0  0  0
  3 21  2  0  0  0  0
  4 14  2  0  0  0  0
  5 13  1  0  0  0  0
  6  2  1  0  0  0  0
  7 11  2  0  0  0  0
  8 10  1  0  0  0  0
  8 20  1  0  0  0  0
  9  7  1  0  0  0  0
 11 16  1  0  0  0  0
 12  1  1  0  0  0  0
 12 23  1  1  0  0  0
 13  7  1  0  0  0  0
 13  4  1  0  0  0  0
 14 11  1  0  0  0  0
 14 18  1  0  0  0  0
 15 20  2  0  0  0  0
 15  1  1  0  0  0  0
 16  2  2  0  0  0  0
 17 21  1  0  0  0  0
 17  8  2  0  0  0  0
 18  6  2  0  0  0  0
 20 19  1  0  0  0  0
 21 15  1  0  0  0  0
 22 25  1  0  0  0  0
 23 24  1  0  0  0  0
 24 25  2  0  0  0  0
 26 22  2  0  0  0  0
 27 23  2  0  0  0  0
 27 26  1  0  0  0  0
M  END
>  <MODEL>
6

>  <REMARK>
 VINA RESULT:      -9.6      1.408      5.426
  Name = 
  1 active torsions:
  status: ('A' for Active; 'I' for Inactive)
    1  A    between atoms: C_9  and  C_15
                            x       y       z     vdW  Elec       q    Type
                         _______ _______ _______ _____ _____    ______ ____

>  <TORSDO>
F 1

$$$$
=
 OpenBabel10272400573D

 27 31  0  0  1  0  0  0  0  0999 V2000
  188.7720  176.7940  139.9770 C   0  0  0  0  0  2  0  0  0  0  0  0
  188.1020  177.7760  142.1650 C   0  0  0  0  0  0  0  0  0  0  0  0
  190.6380  177.7790  142.3580 N   0  0  0  0  0  0  0  0  0  0  0  0
  188.1220  177.3660  146.2680 N   0  0  0  0  0  0  0  0  0  0  0  0
  190.0110  177.2550  147.8220 C   0  0  0  0  0  1  0  0  0  0  0  0
  186.8550  177.6720  142.8390 C   0  0  0  0  0  3  0  0  0  0  0  0
  190.1110  177.5050  145.3350 C   0  0  0  0  0  0  0  0  0  0  0  0
  192.4330  177.1240  139.5500 C   0  0  0  0  0  0  0  0  0  0  0  0
  191.5980  177.5430  145.2140 C   0  0  0  0  0  1  0  0  0  0  0  0
  193.6290  177.0400  138.7820 N   0  0  0  0  0  1  0  0  0  0  0  0
  189.1860  177.5860  144.3120 C   0  0  0  0  0  0  0  0  0  0  0  0
  188.1260  177.9770  140.6680 C   0  0  2  0  0  3  0  0  0  0  0  0
  189.4290  177.3750  146.4960 N   0  0  0  0  0  0  0  0  0  0  0  0
  187.9700  177.4940  144.9370 C   0  0  0  0  0  0  0  0  0  0  0  0
  190.2440  176.9660  140.0460 C   0  0  0  0  0  0  0  0  0  0  0  0
  189.3130  177.7060  142.9220 C   0  0  0  0  0  0  0  0  0  0  0  0
  192.4100  177.5640  140.7670 N   0  0  0  0  0  0  0  0  0  0  0  0
  186.7770  177.5270  144.2310 C   0  0  0  0  0  3  0  0  0  0  0  0
  190.7880  176.2720  137.7680 N   0  0  0  0  0  1  0  0  0  0  0  0
  191.1090  176.7410  139.0740 C   0  0  0  0  0  0  0  0  0  0  0  0
  191.0390  177.4900  141.1540 C   0  0  0  0  0  0  0  0  0  0  0  0
  184.3810  179.0370  138.8250 C   0  0  0  0  0  3  0  0  0  0  0  0
  186.8070  178.3390  140.0450 C   0  0  0  0  0  0  0  0  0  0  0  0
  185.7780  178.9280  140.8000 C   0  0  0  0  0  3  0  0  0  0  0  0
  184.5680  179.2730  140.1900 C   0  0  0  0  0  3  0  0  0  0  0  0
  185.4050  178.4570  138.0690 C   0  0  0  0  0  3  0  0  0  0  0  0
  186.6150  178.1110  138.6780 C   0  0  0  0  0  3  0  0  0  0  0  0
  1 15  1  0  0  0  0
  1 12  1  0  0  0  0
  2  6  1  0  0  0  0
  2 16  2  0  0  0  0
  3 16  1  0  0  0  0
  4 13  1  0  0  0  0
  6 18  2  0  0  0  0
  7 13  1  0  0  0  0
  8 17  2  0  0  0  0
  9  7  1  0  0  0  0
 10  8  1  0  0  0  0
 11 14  1  0  0  0  0
 11  7  2  0  0  0  0
 12 23  1  6  0  0  0
 12  2  1  0  0  0  0
 13  5  1  0  0  0  0
 14  4  2  0  0  0  0
 15 21  1  0  0  0  0
 16 11  1  0  0  0  0
 17 21  1  0  0  0  0
 18 14  1  0  0  0  0
 19 20  1  0  0  0  0
 20  8  1  0  0  0  0
 20 15  2  0  0  0  0
 21  3  2  0  0  0  0
 22 25  1  0  0  0  0
 23 24  1  0  0  0  0
 25 24  2  0  0  0  0
 26 27  1  0  0  0  0
 26 22  2  0  0  0  0
 27 23  2  0  0  0  0
M  END
>  <MODEL>
7

>  <REMARK>
 VINA RESULT:      -9.0      2.162      5.904
  Name = 
  1 active torsions:
  status: ('A' for Active; 'I' for Inactive)
    1  A    between atoms: C_9  and  C_15
                            x       y       z     vdW  Elec       q    Type
                         _______ _______ _______ _____ _____    ______ ____

>  <TORSDO>
F 1

$$$$
=
 OpenBabel10272400573D

 27 31  0  0  1  0  0  0  0  0999 V2000
  191.3860  177.6700  140.3720 C   0  0  0  0  0  2  0  0  0  0  0  0
  188.9810  177.3210  139.8300 C   0  0  0  0  0  0  0  0  0  0  0  0
  190.1200  176.1590  137.8750 N   0  0  0  0  0  0  0  0  0  0  0  0
  185.9130  178.0560  137.1740 N   0  0  0  0  0  0  0  0  0  0  0  0
  185.6930  177.4210  134.8190 C   0  0  0  0  0  1  0  0  0  0  0  0
  187.8530  178.0540  140.2870 C   0  0  0  0  0  3  0  0  0  0  0  0
  187.6100  176.9230  136.3490 C   0  0  0  0  0  0  0  0  0  0  0  0
  193.4700  175.6390  138.0850 C   0  0  0  0  0  0  0  0  0  0  0  0
  188.4490  176.1870  135.3570 C   0  0  0  0  0  1  0  0  0  0  0  0
  194.7120  175.0870  137.6620 N   0  0  0  0  0  1  0  0  0  0  0  0
  187.9140  177.1850  137.6700 C   0  0  0  0  0  0  0  0  0  0  0  0
  190.0980  176.9930  140.7920 C   0  0  2  0  0  3  0  0  0  0  0  0
  186.3960  177.4620  136.0910 N   0  0  0  0  0  0  0  0  0  0  0  0
  186.8350  177.8890  138.1400 C   0  0  0  0  0  0  0  0  0  0  0  0
  192.0210  176.8410  139.3170 C   0  0  0  0  0  0  0  0  0  0  0  0
  189.0280  176.8900  138.4670 C   0  0  0  0  0  0  0  0  0  0  0  0
  192.3480  175.3760  137.4970 N   0  0  0  0  0  0  0  0  0  0  0  0
  186.7710  178.3480  139.4460 C   0  0  0  0  0  3  0  0  0  0  0  0
  194.3320  176.9880  140.0980 N   0  0  0  0  0  1  0  0  0  0  0  0
  193.3040  176.5480  139.2150 C   0  0  0  0  0  0  0  0  0  0  0  0
  191.3710  176.1140  138.2300 C   0  0  0  0  0  0  0  0  0  0  0  0
  189.2780  177.6740  144.9640 C   0  0  0  0  0  3  0  0  0  0  0  0
  189.7870  177.2270  142.2440 C   0  0  0  0  0  0  0  0  0  0  0  0
  188.7890  176.4930  142.9070 C   0  0  0  0  0  3  0  0  0  0  0  0
  188.5350  176.7190  144.2630 C   0  0  0  0  0  3  0  0  0  0  0  0
  190.2760  178.4020  144.3090 C   0  0  0  0  0  3  0  0  0  0  0  0
  190.5310  178.1770  142.9530 C   0  0  0  0  0  3  0  0  0  0  0  0
  1 12  1  0  0  0  0
  2  6  1  0  0  0  0
  2 12  1  0  0  0  0
  3 21  2  0  0  0  0
  3 16  1  0  0  0  0
  4 14  2  0  0  0  0
  5 13  1  0  0  0  0
  7 11  2  0  0  0  0
  8 20  1  0  0  0  0
  9  7  1  0  0  0  0
 10  8  1  0  0  0  0
 11 14  1  0  0  0  0
 11 16  1  0  0  0  0
 12 23  1  1  0  0  0
 13  7  1  0  0  0  0
 13  4  1  0  0  0  0
 14 18  1  0  0  0  0
 15  1  1  0  0  0  0
 16  2  2  0  0  0  0
 17  8  2  0  0  0  0
 17 21  1  0  0  0  0
 18  6  2  0  0  0  0
 20 15  2  0  0  0  0
 20 19  1  0  0  0  0
 21 15  1  0  0  0  0
 23 24  2  0  0  0  0
 23 27  1  0  0  0  0
 24 25  1  0  0  0  0
 25 22  2  0  0  0  0
 26 22  1  0  0  0  0
 27 26  2  0  0  0  0
M  END
>  <MODEL>
8

>  <REMARK>
 VINA RESULT:      -8.7      3.628      5.778
  Name = 
  1 active torsions:
  status: ('A' for Active; 'I' for Inactive)
    1  A    between atoms: C_9  and  C_15
                            x       y       z     vdW  Elec       q    Type
                         _______ _______ _______ _____ _____    ______ ____

>  <TORSDO>
F 1

$$$$
=
 OpenBabel10272400573D

 27 31  0  0  1  0  0  0  0  0999 V2000
  191.1910  177.5810  140.0320 C   0  0  0  0  0  2  0  0  0  0  0  0
  188.8180  177.6270  140.7860 C   0  0  0  0  0  0  0  0  0  0  0  0
  188.5790  176.7850  138.3980 N   0  0  0  0  0  0  0  0  0  0  0  0
  185.0660  179.2490  140.2370 N   0  0  0  0  0  0  0  0  0  0  0  0
  183.5900  179.1560  138.2850 C   0  0  0  0  0  1  0  0  0  0  0  0
  188.2410  178.3690  141.8510 C   0  0  0  0  0  3  0  0  0  0  0  0
  185.8610  178.1320  138.5140 C   0  0  0  0  0  0  0  0  0  0  0  0
  191.4080  175.8580  136.7630 C   0  0  0  0  0  0  0  0  0  0  0  0
  185.9310  177.5340  137.1490 C   0  0  0  0  0  1  0  0  0  0  0  0
  192.1360  175.2710  135.6890 N   0  0  0  0  0  1  0  0  0  0  0  0
  186.8240  178.0720  139.5030 C   0  0  0  0  0  0  0  0  0  0  0  0
  190.1690  176.9790  140.9750 C   0  0  2  0  0  3  0  0  0  0  0  0
  184.8190  178.8470  138.9960 N   0  0  0  0  0  0  0  0  0  0  0  0
  186.2880  178.7780  140.5500 C   0  0  0  0  0  0  0  0  0  0  0  0
  191.0370  176.9280  138.7070 C   0  0  0  0  0  0  0  0  0  0  0  0
  188.0970  177.4920  139.5580 C   0  0  0  0  0  0  0  0  0  0  0  0
  190.1150  175.8540  136.8200 N   0  0  0  0  0  0  0  0  0  0  0  0
  186.9710  178.9550  141.7430 C   0  0  0  0  0  3  0  0  0  0  0  0
  193.4060  176.6440  138.1780 N   0  0  0  0  0  1  0  0  0  0  0  0
  192.0110  176.5200  137.9150 C   0  0  0  0  0  0  0  0  0  0  0  0
  189.8020  176.5250  138.0390 C   0  0  0  0  0  0  0  0  0  0  0  0
  191.6580  176.8950  145.0140 C   0  0  0  0  0  3  0  0  0  0  0  0
  190.6700  176.9350  142.3910 C   0  0  0  0  0  0  0  0  0  0  0  0
  190.6310  175.7490  143.1450 C   0  0  0  0  0  3  0  0  0  0  0  0
  191.1210  175.7330  144.4540 C   0  0  0  0  0  3  0  0  0  0  0  0
  191.7050  178.0750  144.2650 C   0  0  0  0  0  3  0  0  0  0  0  0
  191.2140  178.0930  142.9560 C   0  0  0  0  0  3  0  0  0  0  0  0
  1 12  1  0  0  0  0
  2 12  1  0  0  0  0
  2  6  1  0  0  0  0
  3 16  1  0  0  0  0
  4 14  2  0  0  0  0
  5 13  1  0  0  0  0
  7 13  1  0  0  0  0
  7 11  2  0  0  0  0
  8 17  2  0  0  0  0
  8 20  1  0  0  0  0
  9  7  1  0  0  0  0
 10  8  1  0  0  0  0
 11 16  1  0  0  0  0
 11 14  1  0  0  0  0
 12 23  1  1  0  0  0
 13  4  1  0  0  0  0
 14 18  1  0  0  0  0
 15  1  1  0  0  0  0
 16  2  2  0  0  0  0
 17 21  1  0  0  0  0
 18  6  2  0  0  0  0
 20 19  1  0  0  0  0
 20 15  2  0  0  0  0
 21  3  2  0  0  0  0
 21 15  1  0  0  0  0
 23 27  2  0  0  0  0
 23 24  1  0  0  0  0
 24 25  2  0  0  0  0
 25 22  1  0  0  0  0
 26 22  2  0  0  0  0
 27 26  1  0  0  0  0
M  END
>  <MODEL>
9

>  <REMARK>
 VINA RESULT:      -8.7      2.952      4.252
  Name = 
  1 active torsions:
  status: ('A' for Active; 'I' for Inactive)
    1  A    between atoms: C_9  and  C_15
                            x       y       z     vdW  Elec       q    Type
                         _______ _______ _______ _____ _____    ______ ____

>  <TORSDO>
F 1

$$$$
