=
 OpenBabel10272415023D

 37 42  0  0  1  0  0  0  0  0999 V2000
  186.6680  176.3080  137.3810 C   0  0  0  0  0  1  0  0  0  0  0  0
  190.1010  177.9480  139.7360 C   0  0  0  0  0  1  0  0  0  0  0  0
  185.1870  179.7240  140.0500 O   0  0  0  0  0  0  0  0  0  0  0  0
  187.7640  177.9480  138.8840 C   0  0  0  0  0  0  0  0  0  0  0  0
  185.7360  178.4560  139.7630 C   0  0  1  0  0  0  0  0  0  0  0  0
  186.6990  177.7540  137.8500 C   0  0  0  0  0  0  0  0  0  0  0  0
  187.1880  178.3990  140.1570 C   0  0  0  0  0  2  0  0  0  0  0  0
  186.9430  178.6650  136.6570 C   0  0  0  0  0  1  0  0  0  0  0  0
  184.6170  178.6220  140.7220 C   0  0  1  0  0  0  0  0  0  0  0  0
  189.0720  177.7390  138.6730 C   0  0  0  0  0  3  0  0  0  0  0  0
  185.4540  178.0780  138.4350 O   0  0  0  0  0  0  0  0  0  0  0  0
  184.1750  179.3060  143.0930 C   0  0  0  0  0  3  0  0  0  0  0  0
  184.9470  178.5780  142.1850 C   0  0  0  0  0  0  0  0  0  0  0  0
  186.0270  177.8160  142.6510 C   0  0  0  0  0  3  0  0  0  0  0  0
  185.5440  178.4900  144.9160 C   0  0  0  0  0  3  0  0  0  0  0  0
  184.4680  179.2570  144.4570 C   0  0  0  0  0  3  0  0  0  0  0  0
  186.3390  177.7750  144.0180 C   0  0  0  0  0  0  0  0  0  0  0  0
  187.4140  177.0280  144.5240 O   0  0  0  0  0  0  0  0  0  0  0  0
  189.2460  175.9960  143.2380 C   0  0  0  0  0  3  0  0  0  0  0  0
  188.7360  177.0250  144.0460 C   0  0  0  0  0  0  0  0  0  0  0  0
  189.5580  178.1160  144.3550 C   0  0  0  0  0  3  0  0  0  0  0  0
  191.6540  179.2400  144.1770 F   0  0  0  0  0  0  0  0  0  0  0  0
  191.3660  177.1510  143.0670 C   0  0  0  0  0  3  0  0  0  0  0  0
  190.8680  178.1790  143.8700 C   0  0  0  0  0  0  0  0  0  0  0  0
  190.5550  176.0580  142.7510 C   0  0  0  0  0  3  0  0  0  0  0  0
  183.2060  178.3100  140.2350 C   0  0  0  0  0  2  0  0  0  0  0  0
  182.4770  179.5690  139.7920 C   0  0  0  0  0  2  0  0  0  0  0  0
  181.3070  179.2180  139.0040 N   0  0  0  0  0  0  0  0  0  0  0  0
  180.8630  177.7950  137.0840 C   0  0  0  0  0  1  0  0  0  0  0  0
  181.7930  178.8210  137.6910 C   0  0  0  0  0  2  0  0  0  0  0  0
  180.5530  180.4480  138.8120 C   0  0  0  0  0  2  0  0  0  0  0  0
  180.5790  182.6440  137.7210 C   0  0  2  0  0  3  0  0  0  0  0  0
  181.3540  181.4110  137.9600 C   0  0  2  0  0  3  0  0  0  0  0  0
  180.6770  181.6340  136.7470 O   0  0  0  0  0  0  0  0  0  0  0  0
  180.7830  185.0820  137.4370 C   0  0  0  0  0  2  0  0  0  0  0  0
  181.0640  184.4510  136.0970 C   0  0  0  0  0  2  0  0  0  0  0  0
  181.5310  183.7680  137.3650 C   0  0  0  0  0  3  0  0  0  0  0  0
  1  6  1  0  0  0  0
  3  9  1  0  0  0  0
  4  7  1  0  0  0  0
  5  3  1  0  0  0  0
  5  7  1  1  0  0  0
  5  9  1  0  0  0  0
  6 11  1  0  0  0  0
  6  4  1  0  0  0  0
  8  6  1  0  0  0  0
  9 26  1  6  0  0  0
  9 13  1  0  0  0  0
 10  4  2  0  0  0  0
 10  2  1  0  0  0  0
 11  5  1  0  0  0  0
 12 16  1  0  0  0  0
 13 14  1  0  0  0  0
 13 12  2  0  0  0  0
 14 17  2  0  0  0  0
 16 15  2  0  0  0  0
 17 18  1  0  0  0  0
 17 15  1  0  0  0  0
 19 20  1  0  0  0  0
 20 21  2  0  0  0  0
 20 18  1  0  0  0  0
 23 24  2  0  0  0  0
 24 22  1  0  0  0  0
 24 21  1  0  0  0  0
 25 23  1  0  0  0  0
 25 19  2  0  0  0  0
 27 26  1  0  0  0  0
 28 27  1  0  0  0  0
 29 30  1  0  0  0  0
 30 28  1  0  0  0  0
 31 28  1  0  0  0  0
 32 37  1  6  0  0  0
 32 33  1  0  0  0  0
 33 31  1  1  0  0  0
 34 32  1  0  0  0  0
 34 33  1  0  0  0  0
 36 37  1  0  0  0  0
 36 35  1  0  0  0  0
 37 35  1  0  0  0  0
M  END
>  <MODEL>
1

>  <REMARK>
 VINA RESULT:      -8.2      0.000      0.000
  Name = 
  10 active torsions:
  status: ('A' for Active; 'I' for Inactive)
    1  A    between atoms: C_1  and  N_5
    2  A    between atoms: C_1  and  C_36
    3  A    between atoms: N_5  and  C_17
    4  A    between atoms: N_5  and  C_23
    5  A    between atoms: C_6  and  O_37
    6  A    between atoms: C_10  and  C_29
    7  A    between atoms: C_11  and  C_33
    8  A    between atoms: C_17  and  C_26
    9  A    between atoms: C_29  and  C_36
   10  A    between atoms: C_31  and  O_37
                            x       y       z     vdW  Elec       q    Type
                         _______ _______ _______ _____ _____    ______ ____

>  <TORSDO>
F 10

$$$$
=
 OpenBabel10272415023D

 37 42  0  0  1  0  0  0  0  0999 V2000
  188.0430  174.7370  136.6310 C   0  0  0  0  0  1  0  0  0  0  0  0
  192.4280  174.1970  137.3350 C   0  0  0  0  0  1  0  0  0  0  0  0
  189.6600  178.3290  138.9690 O   0  0  0  0  0  0  0  0  0  0  0  0
  190.2980  175.4820  137.3430 C   0  0  0  0  0  0  0  0  0  0  0  0
  189.3300  176.9740  138.7500 C   0  0  1  0  0  0  0  0  0  0  0  0
  188.9800  175.9240  136.7870 C   0  0  0  0  0  0  0  0  0  0  0  0
  190.5730  176.1320  138.6310 C   0  0  0  0  0  2  0  0  0  0  0  0
  189.1720  176.5970  135.4360 C   0  0  0  0  0  1  0  0  0  0  0  0
  188.9210  177.6870  139.9850 C   0  0  1  0  0  0  0  0  0  0  0  0
  191.1190  174.6080  136.7430 C   0  0  0  0  0  3  0  0  0  0  0  0
  188.4100  176.8490  137.6910 O   0  0  0  0  0  0  0  0  0  0  0  0
  191.0960  177.6390  141.2290 C   0  0  0  0  0  3  0  0  0  0  0  0
  189.7160  177.4280  141.2300 C   0  0  0  0  0  0  0  0  0  0  0  0
  189.0870  176.9700  142.3960 C   0  0  0  0  0  3  0  0  0  0  0  0
  191.2050  176.9620  143.5520 C   0  0  0  0  0  3  0  0  0  0  0  0
  191.8390  177.4140  142.3900 C   0  0  0  0  0  3  0  0  0  0  0  0
  189.8280  176.7250  143.5620 C   0  0  0  0  0  0  0  0  0  0  0  0
  189.2380  176.2620  144.7490 O   0  0  0  0  0  0  0  0  0  0  0  0
  187.2890  177.4740  145.6480 C   0  0  0  0  0  3  0  0  0  0  0  0
  188.6230  177.0430  145.7420 C   0  0  0  0  0  0  0  0  0  0  0  0
  189.3610  177.3660  146.8870 C   0  0  0  0  0  3  0  0  0  0  0  0
  189.5070  178.4130  149.0240 F   0  0  0  0  0  0  0  0  0  0  0  0
  187.4550  178.5300  147.8190 C   0  0  0  0  0  3  0  0  0  0  0  0
  188.7820  178.1080  147.9210 C   0  0  0  0  0  0  0  0  0  0  0  0
  186.7080  178.2140  146.6810 C   0  0  0  0  0  3  0  0  0  0  0  0
  187.4870  178.1990  140.0720 C   0  0  0  0  0  2  0  0  0  0  0  0
  187.1990  178.8260  141.4270 C   0  0  0  0  0  2  0  0  0  0  0  0
  185.7790  179.1100  141.5540 N   0  0  0  0  0  0  0  0  0  0  0  0
  184.5700  179.0090  143.6590 C   0  0  0  0  0  1  0  0  0  0  0  0
  185.2640  178.2140  142.5770 C   0  0  0  0  0  2  0  0  0  0  0  0
  185.1620  178.7040  140.2990 C   0  0  0  0  0  2  0  0  0  0  0  0
  183.3050  179.1560  138.7620 C   0  0  2  0  0  3  0  0  0  0  0  0
  183.9010  179.5100  140.0650 C   0  0  2  0  0  3  0  0  0  0  0  0
  184.0710  180.3240  138.9310 O   0  0  0  0  0  0  0  0  0  0  0  0
  181.0730  178.5070  137.9480 C   0  0  0  0  0  2  0  0  0  0  0  0
  181.3840  179.8630  137.3670 C   0  0  0  0  0  2  0  0  0  0  0  0
  181.8350  179.5240  138.7710 C   0  0  0  0  0  3  0  0  0  0  0  0
  1  6  1  0  0  0  0
  3  9  1  0  0  0  0
  4  7  1  0  0  0  0
  5  7  1  1  0  0  0
  5  3  1  0  0  0  0
  5  9  1  0  0  0  0
  6  4  1  0  0  0  0
  6 11  1  0  0  0  0
  8  6  1  0  0  0  0
  9 26  1  1  0  0  0
  9 13  1  0  0  0  0
 10  2  1  0  0  0  0
 10  4  2  0  0  0  0
 11  5  1  0  0  0  0
 12 13  2  0  0  0  0
 12 16  1  0  0  0  0
 13 14  1  0  0  0  0
 14 17  2  0  0  0  0
 15 17  1  0  0  0  0
 16 15  2  0  0  0  0
 17 18  1  0  0  0  0
 18 20  1  0  0  0  0
 19 20  2  0  0  0  0
 19 25  1  0  0  0  0
 20 21  1  0  0  0  0
 21 24  2  0  0  0  0
 23 24  1  0  0  0  0
 24 22  1  0  0  0  0
 25 23  2  0  0  0  0
 26 27  1  0  0  0  0
 27 28  1  0  0  0  0
 28 30  1  0  0  0  0
 30 29  1  0  0  0  0
 31 28  1  0  0  0  0
 32 37  1  1  0  0  0
 32 34  1  0  0  0  0
 32 33  1  0  0  0  0
 33 31  1  6  0  0  0
 34 33  1  0  0  0  0
 35 37  1  0  0  0  0
 36 35  1  0  0  0  0
 36 37  1  0  0  0  0
M  END
>  <MODEL>
2

>  <REMARK>
 VINA RESULT:      -8.2      2.514      4.805
  Name = 
  10 active torsions:
  status: ('A' for Active; 'I' for Inactive)
    1  A    between atoms: C_1  and  N_5
    2  A    between atoms: C_1  and  C_36
    3  A    between atoms: N_5  and  C_17
    4  A    between atoms: N_5  and  C_23
    5  A    between atoms: C_6  and  O_37
    6  A    between atoms: C_10  and  C_29
    7  A    between atoms: C_11  and  C_33
    8  A    between atoms: C_17  and  C_26
    9  A    between atoms: C_29  and  C_36
   10  A    between atoms: C_31  and  O_37
                            x       y       z     vdW  Elec       q    Type
                         _______ _______ _______ _____ _____    ______ ____

>  <TORSDO>
F 10

$$$$
=
 OpenBabel10272415023D

 37 42  0  0  1  0  0  0  0  0999 V2000
  182.0710  176.4710  139.7730 C   0  0  0  0  0  1  0  0  0  0  0  0
  184.2490  176.0570  135.8860 C   0  0  0  0  0  1  0  0  0  0  0  0
  185.3580  179.6520  139.5260 O   0  0  0  0  0  0  0  0  0  0  0  0
  183.6680  177.1960  138.0200 C   0  0  0  0  0  0  0  0  0  0  0  0
  184.8300  178.3450  139.5930 C   0  0  1  0  0  0  0  0  0  0  0  0
  182.7410  177.6590  139.1000 C   0  0  0  0  0  0  0  0  0  0  0  0
  185.0500  177.6110  138.2960 C   0  0  0  0  0  2  0  0  0  0  0  0
  181.6750  178.5800  138.5270 C   0  0  0  0  0  1  0  0  0  0  0  0
  185.9200  178.7930  140.4930 C   0  0  1  0  0  0  0  0  0  0  0  0
  183.2870  176.4960  136.9410 C   0  0  0  0  0  3  0  0  0  0  0  0
  183.5010  178.3670  140.0580 O   0  0  0  0  0  0  0  0  0  0  0  0
  187.8790  178.6940  138.9310 C   0  0  0  0  0  3  0  0  0  0  0  0
  187.3160  178.3520  140.1630 C   0  0  0  0  0  0  0  0  0  0  0  0
  188.0610  177.5960  141.0770 C   0  0  0  0  0  3  0  0  0  0  0  0
  189.9230  177.5490  139.5440 C   0  0  0  0  0  3  0  0  0  0  0  0
  189.1830  178.2990  138.6250 C   0  0  0  0  0  3  0  0  0  0  0  0
  189.3650  177.1800  140.7710 C   0  0  0  0  0  0  0  0  0  0  0  0
  190.1430  176.4180  141.6570 O   0  0  0  0  0  0  0  0  0  0  0  0
  190.2020  178.0190  143.5300 C   0  0  0  0  0  3  0  0  0  0  0  0
  190.5400  176.7830  142.9550 C   0  0  0  0  0  0  0  0  0  0  0  0
  191.2640  175.8560  143.7150 C   0  0  0  0  0  3  0  0  0  0  0  0
  192.3480  175.2510  145.7510 F   0  0  0  0  0  0  0  0  0  0  0  0
  191.3060  177.3880  145.5890 C   0  0  0  0  0  3  0  0  0  0  0  0
  191.6480  176.1560  145.0250 C   0  0  0  0  0  0  0  0  0  0  0  0
  190.5830  178.3210  144.8400 C   0  0  0  0  0  3  0  0  0  0  0  0
  185.5500  179.1980  141.9160 C   0  0  0  0  0  2  0  0  0  0  0  0
  185.4620  177.9910  142.8360 C   0  0  0  0  0  2  0  0  0  0  0  0
  184.5720  178.2760  143.9490 N   0  0  0  0  0  0  0  0  0  0  0  0
  182.1980  178.7920  144.0320 C   0  0  0  0  0  1  0  0  0  0  0  0
  183.5390  179.1650  143.4410 C   0  0  0  0  0  2  0  0  0  0  0  0
  185.3450  179.0470  144.9110 C   0  0  0  0  0  2  0  0  0  0  0  0
  187.1640  178.3730  146.4120 C   0  0  2  0  0  3  0  0  0  0  0  0
  185.7420  178.1630  146.0750 C   0  0  2  0  0  3  0  0  0  0  0  0
  186.7390  177.2630  145.6590 O   0  0  0  0  0  0  0  0  0  0  0  0
  188.8150  178.3170  148.2390 C   0  0  0  0  0  2  0  0  0  0  0  0
  188.4970  176.8880  147.8810 C   0  0  0  0  0  2  0  0  0  0  0  0
  187.4050  177.9360  147.8430 C   0  0  0  0  0  3  0  0  0  0  0  0
  2 10  1  0  0  0  0
  3  5  1  0  0  0  0
  3  9  1  0  0  0  0
  4  7  1  0  0  0  0
  4  6  1  0  0  0  0
  5  7  1  6  0  0  0
  5 11  1  0  0  0  0
  5  9  1  0  0  0  0
  6  1  1  0  0  0  0
  6 11  1  0  0  0  0
  8  6  1  0  0  0  0
  9 26  1  1  0  0  0
 10  4  2  0  0  0  0
 12 13  1  0  0  0  0
 13  9  1  0  0  0  0
 13 14  2  0  0  0  0
 15 17  2  0  0  0  0
 16 12  2  0  0  0  0
 16 15  1  0  0  0  0
 17 14  1  0  0  0  0
 17 18  1  0  0  0  0
 18 20  1  0  0  0  0
 19 25  1  0  0  0  0
 20 19  2  0  0  0  0
 20 21  1  0  0  0  0
 21 24  2  0  0  0  0
 24 23  1  0  0  0  0
 24 22  1  0  0  0  0
 25 23  2  0  0  0  0
 26 27  1  0  0  0  0
 27 28  1  0  0  0  0
 28 31  1  0  0  0  0
 30 28  1  0  0  0  0
 30 29  1  0  0  0  0
 32 37  1  1  0  0  0
 33 31  1  6  0  0  0
 33 32  1  0  0  0  0
 34 33  1  0  0  0  0
 34 32  1  0  0  0  0
 36 35  1  0  0  0  0
 37 36  1  0  0  0  0
 37 35  1  0  0  0  0
M  END
>  <MODEL>
3

>  <REMARK>
 VINA RESULT:      -8.1      2.731      6.760
  Name = 
  10 active torsions:
  status: ('A' for Active; 'I' for Inactive)
    1  A    between atoms: C_1  and  N_5
    2  A    between atoms: C_1  and  C_36
    3  A    between atoms: N_5  and  C_17
    4  A    between atoms: N_5  and  C_23
    5  A    between atoms: C_6  and  O_37
    6  A    between atoms: C_10  and  C_29
    7  A    between atoms: C_11  and  C_33
    8  A    between atoms: C_17  and  C_26
    9  A    between atoms: C_29  and  C_36
   10  A    between atoms: C_31  and  O_37
                            x       y       z     vdW  Elec       q    Type
                         _______ _______ _______ _____ _____    ______ ____

>  <TORSDO>
F 10

$$$$
=
 OpenBabel10272415023D

 37 42  0  0  1  0  0  0  0  0999 V2000
  187.3920  176.4510  137.8820 C   0  0  0  0  0  1  0  0  0  0  0  0
  190.5990  177.5320  140.8080 C   0  0  0  0  0  1  0  0  0  0  0  0
  185.9090  179.8460  140.5770 O   0  0  0  0  0  0  0  0  0  0  0  0
  188.4250  177.8570  139.6440 C   0  0  0  0  0  0  0  0  0  0  0  0
  186.3560  178.5430  140.2710 C   0  0  1  0  0  0  0  0  0  0  0  0
  187.5080  177.8520  138.4610 C   0  0  0  0  0  0  0  0  0  0  0  0
  187.7210  178.2930  140.8570 C   0  0  0  0  0  2  0  0  0  0  0  0
  188.0200  178.8010  137.3870 C   0  0  0  0  0  1  0  0  0  0  0  0
  185.1330  178.7790  141.0760 C   0  0  1  0  0  0  0  0  0  0  0  0
  189.7200  177.5100  139.6000 C   0  0  0  0  0  3  0  0  0  0  0  0
  186.2330  178.2830  138.8920 O   0  0  0  0  0  0  0  0  0  0  0  0
  184.3210  179.2420  143.4020 C   0  0  0  0  0  3  0  0  0  0  0  0
  185.2390  178.6070  142.5620 C   0  0  0  0  0  0  0  0  0  0  0  0
  186.2540  177.8180  143.1190 C   0  0  0  0  0  3  0  0  0  0  0  0
  185.4190  178.2800  145.3350 C   0  0  0  0  0  3  0  0  0  0  0  0
  184.4060  179.0730  144.7860 C   0  0  0  0  0  3  0  0  0  0  0  0
  186.3580  177.6560  144.5090 C   0  0  0  0  0  0  0  0  0  0  0  0
  187.3610  176.8780  145.1070 O   0  0  0  0  0  0  0  0  0  0  0  0
  189.5540  176.6440  146.2070 C   0  0  0  0  0  3  0  0  0  0  0  0
  188.7220  177.2090  145.2270 C   0  0  0  0  0  0  0  0  0  0  0  0
  189.2730  178.1060  144.3030 C   0  0  0  0  0  3  0  0  0  0  0  0
  191.1520  179.3050  143.4560 F   0  0  0  0  0  0  0  0  0  0  0  0
  191.4500  177.8690  145.3330 C   0  0  0  0  0  3  0  0  0  0  0  0
  190.6300  178.4360  144.3560 C   0  0  0  0  0  0  0  0  0  0  0  0
  190.9120  176.9730  146.2610 C   0  0  0  0  0  3  0  0  0  0  0  0
  183.7840  178.6640  140.3750 C   0  0  0  0  0  2  0  0  0  0  0  0
  183.2550  177.2390  140.4100 C   0  0  0  0  0  2  0  0  0  0  0  0
  182.3720  177.0060  139.2790 N   0  0  0  0  0  0  0  0  0  0  0  0
  180.1620  176.3960  140.0850 C   0  0  0  0  0  1  0  0  0  0  0  0
  181.5150  175.8880  139.6420 C   0  0  0  0  0  2  0  0  0  0  0  0
  183.2140  176.5440  138.1860 C   0  0  0  0  0  2  0  0  0  0  0  0
  184.3610  174.5520  137.3300 C   0  0  2  0  0  3  0  0  0  0  0  0
  183.2430  175.0290  138.1670 C   0  0  2  0  0  3  0  0  0  0  0  0
  183.0380  174.5760  136.8520 O   0  0  0  0  0  0  0  0  0  0  0  0
  186.1800  172.8950  137.4400 C   0  0  0  0  0  2  0  0  0  0  0  0
  185.1270  172.3420  136.5130 C   0  0  0  0  0  2  0  0  0  0  0  0
  184.7150  173.1350  137.7350 C   0  0  0  0  0  3  0  0  0  0  0  0
  1  6  1  0  0  0  0
  3  9  1  0  0  0  0
  4  7  1  0  0  0  0
  5  3  1  0  0  0  0
  5  7  1  1  0  0  0
  5  9  1  0  0  0  0
  6 11  1  0  0  0  0
  6  4  1  0  0  0  0
  8  6  1  0  0  0  0
  9 26  1  6  0  0  0
  9 13  1  0  0  0  0
 10  4  2  0  0  0  0
 10  2  1  0  0  0  0
 11  5  1  0  0  0  0
 12 16  1  0  0  0  0
 13 14  1  0  0  0  0
 13 12  2  0  0  0  0
 14 17  2  0  0  0  0
 16 15  2  0  0  0  0
 17 18  1  0  0  0  0
 17 15  1  0  0  0  0
 18 20  1  0  0  0  0
 19 25  1  0  0  0  0
 20 19  2  0  0  0  0
 21 24  2  0  0  0  0
 21 20  1  0  0  0  0
 22 24  1  0  0  0  0
 23 25  2  0  0  0  0
 24 23  1  0  0  0  0
 26 27  1  0  0  0  0
 28 30  1  0  0  0  0
 28 27  1  0  0  0  0
 30 29  1  0  0  0  0
 31 28  1  0  0  0  0
 32 37  1  1  0  0  0
 32 33  1  0  0  0  0
 33 31  1  6  0  0  0
 34 32  1  0  0  0  0
 34 33  1  0  0  0  0
 35 37  1  0  0  0  0
 36 35  1  0  0  0  0
 36 37  1  0  0  0  0
M  END
>  <MODEL>
4

>  <REMARK>
 VINA RESULT:      -7.9      2.967      4.494
  Name = 
  10 active torsions:
  status: ('A' for Active; 'I' for Inactive)
    1  A    between atoms: C_1  and  N_5
    2  A    between atoms: C_1  and  C_36
    3  A    between atoms: N_5  and  C_17
    4  A    between atoms: N_5  and  C_23
    5  A    between atoms: C_6  and  O_37
    6  A    between atoms: C_10  and  C_29
    7  A    between atoms: C_11  and  C_33
    8  A    between atoms: C_17  and  C_26
    9  A    between atoms: C_29  and  C_36
   10  A    between atoms: C_31  and  O_37
                            x       y       z     vdW  Elec       q    Type
                         _______ _______ _______ _____ _____    ______ ____

>  <TORSDO>
F 10

$$$$
=
 OpenBabel10272415023D

 37 42  0  0  1  0  0  0  0  0999 V2000
  188.1990  176.5470  138.7020 C   0  0  0  0  0  1  0  0  0  0  0  0
  190.7310  177.4370  142.2820 C   0  0  0  0  0  1  0  0  0  0  0  0
  186.3190  179.9830  141.0770 O   0  0  0  0  0  0  0  0  0  0  0  0
  188.8830  177.8820  140.6770 C   0  0  0  0  0  0  0  0  0  0  0  0
  186.7610  178.6630  140.8490 C   0  0  1  0  0  0  0  0  0  0  0  0
  188.2500  177.9350  139.3210 C   0  0  0  0  0  0  0  0  0  0  0  0
  187.9500  178.3390  141.7150 C   0  0  0  0  0  2  0  0  0  0  0  0
  189.0280  178.8680  138.4060 C   0  0  0  0  0  1  0  0  0  0  0  0
  185.4030  178.9510  141.3710 C   0  0  1  0  0  0  0  0  0  0  0  0
  190.1380  177.4720  140.9110 C   0  0  0  0  0  3  0  0  0  0  0  0
  186.9320  178.4240  139.4720 O   0  0  0  0  0  0  0  0  0  0  0  0
  184.1270  179.4370  143.4740 C   0  0  0  0  0  3  0  0  0  0  0  0
  185.1720  178.7590  142.8410 C   0  0  0  0  0  0  0  0  0  0  0  0
  185.9960  177.9080  143.5890 C   0  0  0  0  0  3  0  0  0  0  0  0
  184.7220  178.3950  145.5780 C   0  0  0  0  0  3  0  0  0  0  0  0
  183.8980  179.2500  144.8390 C   0  0  0  0  0  3  0  0  0  0  0  0
  185.7840  177.7270  144.9630 C   0  0  0  0  0  0  0  0  0  0  0  0
  186.5900  176.8880  145.7490 O   0  0  0  0  0  0  0  0  0  0  0  0
  187.7270  177.7400  147.7620 C   0  0  0  0  0  3  0  0  0  0  0  0
  187.7540  177.2520  146.4450 C   0  0  0  0  0  0  0  0  0  0  0  0
  188.9910  177.0790  145.8120 C   0  0  0  0  0  3  0  0  0  0  0  0
  191.3720  177.2160  145.8530 F   0  0  0  0  0  0  0  0  0  0  0  0
  190.1440  177.8730  147.7860 C   0  0  0  0  0  3  0  0  0  0  0  0
  190.1810  177.3890  146.4770 C   0  0  0  0  0  0  0  0  0  0  0  0
  188.9150  178.0500  148.4300 C   0  0  0  0  0  3  0  0  0  0  0  0
  184.2370  178.9110  140.3900 C   0  0  0  0  0  2  0  0  0  0  0  0
  183.3270  177.7210  140.6520 C   0  0  0  0  0  2  0  0  0  0  0  0
  181.9930  177.9910  140.1400 N   0  0  0  0  0  0  0  0  0  0  0  0
  182.4000  175.7850  139.2040 C   0  0  0  0  0  1  0  0  0  0  0  0
  181.3870  176.7000  139.8540 C   0  0  0  0  0  2  0  0  0  0  0  0
  182.1690  178.6580  138.8580 C   0  0  0  0  0  2  0  0  0  0  0  0
  181.3670  180.5220  137.4800 C   0  0  2  0  0  3  0  0  0  0  0  0
  181.0750  179.6870  138.6630 C   0  0  2  0  0  3  0  0  0  0  0  0
  181.6210  180.9770  138.7870 O   0  0  0  0  0  0  0  0  0  0  0  0
  180.2870  181.6270  135.5630 C   0  0  0  0  0  2  0  0  0  0  0  0
  180.2970  182.6160  136.7000 C   0  0  0  0  0  2  0  0  0  0  0  0
  180.0780  181.1450  136.9820 C   0  0  0  0  0  3  0  0  0  0  0  0
  1  6  1  0  0  0  0
  3  9  1  0  0  0  0
  4 10  2  0  0  0  0
  4  7  1  0  0  0  0
  5  3  1  0  0  0  0
  5  9  1  0  0  0  0
  5  7  1  1  0  0  0
  6 11  1  0  0  0  0
  6  4  1  0  0  0  0
  8  6  1  0  0  0  0
  9 26  1  6  0  0  0
  9 13  1  0  0  0  0
 10  2  1  0  0  0  0
 11  5  1  0  0  0  0
 12 16  1  0  0  0  0
 13 12  2  0  0  0  0
 13 14  1  0  0  0  0
 14 17  2  0  0  0  0
 16 15  2  0  0  0  0
 17 15  1  0  0  0  0
 17 18  1  0  0  0  0
 18 20  1  0  0  0  0
 19 25  1  0  0  0  0
 20 19  2  0  0  0  0
 21 20  1  0  0  0  0
 21 24  2  0  0  0  0
 22 24  1  0  0  0  0
 23 25  2  0  0  0  0
 24 23  1  0  0  0  0
 26 27  1  0  0  0  0
 28 27  1  0  0  0  0
 29 30  1  0  0  0  0
 30 28  1  0  0  0  0
 31 28  1  0  0  0  0
 32 37  1  1  0  0  0
 32 33  1  0  0  0  0
 32 34  1  0  0  0  0
 33 34  1  0  0  0  0
 33 31  1  6  0  0  0
 35 36  1  0  0  0  0
 35 37  1  0  0  0  0
 36 37  1  0  0  0  0
M  END
>  <MODEL>
5

>  <REMARK>
 VINA RESULT:      -7.9      1.851      2.578
  Name = 
  10 active torsions:
  status: ('A' for Active; 'I' for Inactive)
    1  A    between atoms: C_1  and  N_5
    2  A    between atoms: C_1  and  C_36
    3  A    between atoms: N_5  and  C_17
    4  A    between atoms: N_5  and  C_23
    5  A    between atoms: C_6  and  O_37
    6  A    between atoms: C_10  and  C_29
    7  A    between atoms: C_11  and  C_33
    8  A    between atoms: C_17  and  C_26
    9  A    between atoms: C_29  and  C_36
   10  A    between atoms: C_31  and  O_37
                            x       y       z     vdW  Elec       q    Type
                         _______ _______ _______ _____ _____    ______ ____

>  <TORSDO>
F 10

$$$$
=
 OpenBabel10272415023D

 37 42  0  0  1  0  0  0  0  0999 V2000
  189.0150  178.9430  147.9040 C   0  0  0  0  0  1  0  0  0  0  0  0
  192.0200  175.8790  146.6370 C   0  0  0  0  0  1  0  0  0  0  0  0
  187.3210  176.5040  144.4160 O   0  0  0  0  0  0  0  0  0  0  0  0
  189.7750  176.9520  146.6370 C   0  0  0  0  0  0  0  0  0  0  0  0
  188.2090  177.3940  145.0570 C   0  0  1  0  0  0  0  0  0  0  0  0
  188.5970  177.6280  147.2650 C   0  0  0  0  0  0  0  0  0  0  0  0
  189.5780  176.7810  145.1910 C   0  0  0  0  0  2  0  0  0  0  0  0
  187.9690  176.7310  148.3210 C   0  0  0  0  0  1  0  0  0  0  0  0
  187.5680  177.7290  143.7620 C   0  0  1  0  0  0  0  0  0  0  0  0
  190.8660  176.5530  147.3070 C   0  0  0  0  0  3  0  0  0  0  0  0
  187.6470  177.8870  146.2510 O   0  0  0  0  0  0  0  0  0  0  0  0
  189.4640  176.6830  142.4990 C   0  0  0  0  0  3  0  0  0  0  0  0
  188.4000  177.5870  142.5210 C   0  0  0  0  0  0  0  0  0  0  0  0
  188.1210  178.3560  141.3840 C   0  0  0  0  0  3  0  0  0  0  0  0
  189.9450  177.3020  140.2070 C   0  0  0  0  0  3  0  0  0  0  0  0
  190.2310  176.5350  141.3410 C   0  0  0  0  0  3  0  0  0  0  0  0
  188.8970  178.2270  140.2220 C   0  0  0  0  0  0  0  0  0  0  0  0
  188.6550  178.9810  139.0630 O   0  0  0  0  0  0  0  0  0  0  0  0
  189.0840  178.3030  136.7330 C   0  0  0  0  0  3  0  0  0  0  0  0
  188.2150  178.4950  137.8210 C   0  0  0  0  0  0  0  0  0  0  0  0
  186.8650  178.1510  137.6790 C   0  0  0  0  0  3  0  0  0  0  0  0
  185.0780  177.2970  136.3520 F   0  0  0  0  0  0  0  0  0  0  0  0
  187.2580  177.4370  135.4010 C   0  0  0  0  0  3  0  0  0  0  0  0
  186.3870  177.6260  136.4760 C   0  0  0  0  0  0  0  0  0  0  0  0
  188.6070  177.7770  135.5290 C   0  0  0  0  0  3  0  0  0  0  0  0
  186.3560  178.6540  143.7830 C   0  0  0  0  0  2  0  0  0  0  0  0
  185.1440  178.0020  143.1370 C   0  0  0  0  0  2  0  0  0  0  0  0
  184.3280  179.0080  142.4770 N   0  0  0  0  0  0  0  0  0  0  0  0
  182.7760  178.8310  144.3390 C   0  0  0  0  0  1  0  0  0  0  0  0
  182.9480  178.7290  142.8400 C   0  0  0  0  0  2  0  0  0  0  0  0
  184.4390  178.7570  141.0480 C   0  0  0  0  0  2  0  0  0  0  0  0
  183.5530  177.2920  139.2910 C   0  0  2  0  0  3  0  0  0  0  0  0
  183.2460  177.9510  140.5760 C   0  0  2  0  0  3  0  0  0  0  0  0
  182.7860  178.4700  139.3530 O   0  0  0  0  0  0  0  0  0  0  0  0
  183.2820  175.1170  138.1690 C   0  0  0  0  0  2  0  0  0  0  0  0
  182.1900  176.0220  137.6580 C   0  0  0  0  0  2  0  0  0  0  0  0
  182.6260  176.1080  139.1050 C   0  0  0  0  0  3  0  0  0  0  0  0
  2 10  1  0  0  0  0
  3  5  1  0  0  0  0
  4  6  1  0  0  0  0
  4 10  2  0  0  0  0
  5  7  1  6  0  0  0
  5 11  1  0  0  0  0
  6  1  1  0  0  0  0
  6  8  1  0  0  0  0
  7  4  1  0  0  0  0
  9 26  1  1  0  0  0
  9  3  1  0  0  0  0
  9  5  1  0  0  0  0
 11  6  1  0  0  0  0
 12 13  1  0  0  0  0
 13  9  1  0  0  0  0
 14 13  2  0  0  0  0
 15 17  2  0  0  0  0
 15 16  1  0  0  0  0
 16 12  2  0  0  0  0
 17 14  1  0  0  0  0
 18 17  1  0  0  0  0
 19 20  1  0  0  0  0
 20 18  1  0  0  0  0
 21 20  2  0  0  0  0
 22 24  1  0  0  0  0
 23 25  1  0  0  0  0
 23 24  2  0  0  0  0
 24 21  1  0  0  0  0
 25 19  2  0  0  0  0
 27 26  1  0  0  0  0
 28 30  1  0  0  0  0
 28 27  1  0  0  0  0
 30 29  1  0  0  0  0
 31 28  1  0  0  0  0
 32 37  1  1  0  0  0
 32 34  1  0  0  0  0
 32 33  1  0  0  0  0
 33 31  1  6  0  0  0
 34 33  1  0  0  0  0
 35 37  1  0  0  0  0
 36 35  1  0  0  0  0
 36 37  1  0  0  0  0
M  END
>  <MODEL>
6

>  <REMARK>
 VINA RESULT:      -7.9      3.609      7.179
  Name = 
  10 active torsions:
  status: ('A' for Active; 'I' for Inactive)
    1  A    between atoms: C_1  and  N_5
    2  A    between atoms: C_1  and  C_36
    3  A    between atoms: N_5  and  C_17
    4  A    between atoms: N_5  and  C_23
    5  A    between atoms: C_6  and  O_37
    6  A    between atoms: C_10  and  C_29
    7  A    between atoms: C_11  and  C_33
    8  A    between atoms: C_17  and  C_26
    9  A    between atoms: C_29  and  C_36
   10  A    between atoms: C_31  and  O_37
                            x       y       z     vdW  Elec       q    Type
                         _______ _______ _______ _____ _____    ______ ____

>  <TORSDO>
F 10

$$$$
=
 OpenBabel10272415023D

 37 42  0  0  1  0  0  0  0  0999 V2000
  191.5570  178.6350  142.9760 C   0  0  0  0  0  1  0  0  0  0  0  0
  190.5370  176.9990  138.9380 C   0  0  0  0  0  1  0  0  0  0  0  0
  187.5300  176.4610  143.1890 O   0  0  0  0  0  0  0  0  0  0  0  0
  190.2280  177.2660  141.3920 C   0  0  0  0  0  0  0  0  0  0  0  0
  188.4380  177.4580  142.7720 C   0  0  1  0  0  0  0  0  0  0  0  0
  190.6910  177.3960  142.8100 C   0  0  0  0  0  0  0  0  0  0  0  0
  188.7620  177.3090  141.3090 C   0  0  0  0  0  2  0  0  0  0  0  0
  191.4840  176.1670  143.2250 C   0  0  0  0  0  1  0  0  0  0  0  0
  187.0940  177.7980  143.2980 C   0  0  1  0  0  0  0  0  0  0  0  0
  191.0450  177.1280  140.3380 C   0  0  0  0  0  3  0  0  0  0  0  0
  189.5490  177.5140  143.6350 O   0  0  0  0  0  0  0  0  0  0  0  0
  184.6960  178.2220  142.7030 C   0  0  0  0  0  3  0  0  0  0  0  0
  186.0320  178.1630  142.3030 C   0  0  0  0  0  0  0  0  0  0  0  0
  186.3680  178.4410  140.9710 C   0  0  0  0  0  3  0  0  0  0  0  0
  184.0480  178.8590  140.4570 C   0  0  0  0  0  3  0  0  0  0  0  0
  183.7060  178.5770  141.7830 C   0  0  0  0  0  3  0  0  0  0  0  0
  185.3790  178.7810  140.0370 C   0  0  0  0  0  0  0  0  0  0  0  0
  185.6730  179.0630  138.6930 O   0  0  0  0  0  0  0  0  0  0  0  0
  185.6000  177.0210  137.3150 C   0  0  0  0  0  3  0  0  0  0  0  0
  186.2480  178.1870  137.7570 C   0  0  0  0  0  0  0  0  0  0  0  0
  187.4970  178.5160  137.2160 C   0  0  0  0  0  3  0  0  0  0  0  0
  189.3010  178.0280  135.7360 F   0  0  0  0  0  0  0  0  0  0  0  0
  187.4410  176.5420  135.8180 C   0  0  0  0  0  3  0  0  0  0  0  0
  188.0930  177.6980  136.2520 C   0  0  0  0  0  0  0  0  0  0  0  0
  186.1940  176.2020  136.3500 C   0  0  0  0  0  3  0  0  0  0  0  0
  186.9900  178.2590  144.7480 C   0  0  0  0  0  2  0  0  0  0  0  0
  186.8270  177.0830  145.6980 C   0  0  0  0  0  2  0  0  0  0  0  0
  186.7740  177.5550  147.0720 N   0  0  0  0  0  0  0  0  0  0  0  0
  184.5660  178.5010  146.7070 C   0  0  0  0  0  1  0  0  0  0  0  0
  186.0070  178.7900  147.0600 C   0  0  0  0  0  2  0  0  0  0  0  0
  188.1360  177.9170  147.4370 C   0  0  0  0  0  2  0  0  0  0  0  0
  190.3920  176.9690  147.6040 C   0  0  2  0  0  3  0  0  0  0  0  0
  189.1030  176.8870  146.8900 C   0  0  2  0  0  3  0  0  0  0  0  0
  190.2150  177.5420  146.3320 O   0  0  0  0  0  0  0  0  0  0  0  0
  192.4980  175.7850  148.0850 C   0  0  0  0  0  2  0  0  0  0  0  0
  192.3520  175.8460  146.5860 C   0  0  0  0  0  2  0  0  0  0  0  0
  191.1280  175.6520  147.4550 C   0  0  0  0  0  3  0  0  0  0  0  0
  2 10  1  0  0  0  0
  3  9  1  0  0  0  0
  4  6  1  0  0  0  0
  5  7  1  6  0  0  0
  5  3  1  0  0  0  0
  5  9  1  0  0  0  0
  5 11  1  0  0  0  0
  6  1  1  0  0  0  0
  6  8  1  0  0  0  0
  6 11  1  0  0  0  0
  7  4  1  0  0  0  0
  9 26  1  1  0  0  0
 10  4  2  0  0  0  0
 13 12  1  0  0  0  0
 13  9  1  0  0  0  0
 14 13  2  0  0  0  0
 15 16  1  0  0  0  0
 16 12  2  0  0  0  0
 17 15  2  0  0  0  0
 17 14  1  0  0  0  0
 18 17  1  0  0  0  0
 19 20  1  0  0  0  0
 20 18  1  0  0  0  0
 21 20  2  0  0  0  0
 22 24  1  0  0  0  0
 23 24  2  0  0  0  0
 23 25  1  0  0  0  0
 24 21  1  0  0  0  0
 25 19  2  0  0  0  0
 26 27  1  0  0  0  0
 27 28  1  0  0  0  0
 28 31  1  0  0  0  0
 29 30  1  0  0  0  0
 30 28  1  0  0  0  0
 32 37  1  6  0  0  0
 33 31  1  1  0  0  0
 33 32  1  0  0  0  0
 34 33  1  0  0  0  0
 34 32  1  0  0  0  0
 36 37  1  0  0  0  0
 36 35  1  0  0  0  0
 37 35  1  0  0  0  0
M  END
>  <MODEL>
7

>  <REMARK>
 VINA RESULT:      -7.7      3.749      8.786
  Name = 
  10 active torsions:
  status: ('A' for Active; 'I' for Inactive)
    1  A    between atoms: C_1  and  N_5
    2  A    between atoms: C_1  and  C_36
    3  A    between atoms: N_5  and  C_17
    4  A    between atoms: N_5  and  C_23
    5  A    between atoms: C_6  and  O_37
    6  A    between atoms: C_10  and  C_29
    7  A    between atoms: C_11  and  C_33
    8  A    between atoms: C_17  and  C_26
    9  A    between atoms: C_29  and  C_36
   10  A    between atoms: C_31  and  O_37
                            x       y       z     vdW  Elec       q    Type
                         _______ _______ _______ _____ _____    ______ ____

>  <TORSDO>
F 10

$$$$
=
 OpenBabel10272415023D

 37 42  0  0  1  0  0  0  0  0999 V2000
  183.9770  174.3550  137.6590 C   0  0  0  0  0  1  0  0  0  0  0  0
  187.4900  171.8450  136.4840 C   0  0  0  0  0  1  0  0  0  0  0  0
  187.3820  177.0740  136.2460 O   0  0  0  0  0  0  0  0  0  0  0  0
  186.2120  173.9720  136.6540 C   0  0  0  0  0  0  0  0  0  0  0  0
  186.7440  176.1350  137.0850 C   0  0  1  0  0  0  0  0  0  0  0  0
  184.9770  174.8180  136.6120 C   0  0  0  0  0  0  0  0  0  0  0  0
  187.3960  174.7820  136.9680 C   0  0  0  0  0  2  0  0  0  0  0  0
  184.3330  174.7510  135.2350 C   0  0  0  0  0  1  0  0  0  0  0  0
  187.4140  177.3390  137.6320 C   0  0  1  0  0  0  0  0  0  0  0  0
  186.2320  172.6500  136.4330 C   0  0  0  0  0  3  0  0  0  0  0  0
  185.3500  176.1540  136.8850 O   0  0  0  0  0  0  0  0  0  0  0  0
  189.9160  177.4280  137.4890 C   0  0  0  0  0  3  0  0  0  0  0  0
  188.7720  177.1580  138.2430 C   0  0  0  0  0  0  0  0  0  0  0  0
  188.9060  176.7160  139.5660 C   0  0  0  0  0  3  0  0  0  0  0  0
  191.3080  176.8390  139.3810 C   0  0  0  0  0  3  0  0  0  0  0  0
  191.1820  177.2760  138.0580 C   0  0  0  0  0  3  0  0  0  0  0  0
  190.1740  176.5430  140.1410 C   0  0  0  0  0  0  0  0  0  0  0  0
  190.3510  176.0980  141.4610 O   0  0  0  0  0  0  0  0  0  0  0  0
  190.5860  178.2780  142.5860 C   0  0  0  0  0  3  0  0  0  0  0  0
  190.7160  176.8800  142.5700 C   0  0  0  0  0  0  0  0  0  0  0  0
  191.1880  176.2300  143.7170 C   0  0  0  0  0  3  0  0  0  0  0  0
  191.9820  176.3180  145.9630 F   0  0  0  0  0  0  0  0  0  0  0  0
  191.3930  178.3490  144.8660 C   0  0  0  0  0  3  0  0  0  0  0  0
  191.5270  176.9590  144.8600 C   0  0  0  0  0  0  0  0  0  0  0  0
  190.9230  179.0100  143.7280 C   0  0  0  0  0  3  0  0  0  0  0  0
  186.5420  178.5300  138.0160 C   0  0  0  0  0  2  0  0  0  0  0  0
  186.1220  178.4670  139.4760 C   0  0  0  0  0  2  0  0  0  0  0  0
  184.6780  178.3330  139.5750 N   0  0  0  0  0  0  0  0  0  0  0  0
  182.6870  179.7030  139.3200 C   0  0  0  0  0  1  0  0  0  0  0  0
  184.1040  179.4580  138.8540 C   0  0  0  0  0  2  0  0  0  0  0  0
  184.3410  178.5250  140.9770 C   0  0  0  0  0  2  0  0  0  0  0  0
  185.6800  178.0010  142.9650 C   0  0  2  0  0  3  0  0  0  0  0  0
  185.5930  178.8560  141.7640 C   0  0  2  0  0  3  0  0  0  0  0  0
  185.2310  179.3320  143.0360 O   0  0  0  0  0  0  0  0  0  0  0  0
  187.4040  176.5520  143.9620 C   0  0  0  0  0  2  0  0  0  0  0  0
  187.1700  177.6930  144.9200 C   0  0  0  0  0  2  0  0  0  0  0  0
  187.1220  177.9400  143.4270 C   0  0  0  0  0  3  0  0  0  0  0  0
  3  5  1  0  0  0  0
  3  9  1  0  0  0  0
  4  7  1  0  0  0  0
  5  7  1  1  0  0  0
  5  9  1  0  0  0  0
  6  4  1  0  0  0  0
  6 11  1  0  0  0  0
  6  1  1  0  0  0  0
  8  6  1  0  0  0  0
  9 26  1  1  0  0  0
  9 13  1  0  0  0  0
 10  2  1  0  0  0  0
 10  4  2  0  0  0  0
 11  5  1  0  0  0  0
 12 16  2  0  0  0  0
 12 13  1  0  0  0  0
 13 14  2  0  0  0  0
 14 17  1  0  0  0  0
 15 17  2  0  0  0  0
 16 15  1  0  0  0  0
 17 18  1  0  0  0  0
 18 20  1  0  0  0  0
 19 25  1  0  0  0  0
 20 19  2  0  0  0  0
 20 21  1  0  0  0  0
 21 24  2  0  0  0  0
 24 23  1  0  0  0  0
 24 22  1  0  0  0  0
 25 23  2  0  0  0  0
 26 27  1  0  0  0  0
 27 28  1  0  0  0  0
 28 31  1  0  0  0  0
 30 29  1  0  0  0  0
 30 28  1  0  0  0  0
 32 34  1  0  0  0  0
 32 37  1  1  0  0  0
 33 31  1  6  0  0  0
 33 32  1  0  0  0  0
 33 34  1  0  0  0  0
 35 36  1  0  0  0  0
 37 35  1  0  0  0  0
 37 36  1  0  0  0  0
M  END
>  <MODEL>
8

>  <REMARK>
 VINA RESULT:      -7.7      2.739      5.962
  Name = 
  10 active torsions:
  status: ('A' for Active; 'I' for Inactive)
    1  A    between atoms: C_1  and  N_5
    2  A    between atoms: C_1  and  C_36
    3  A    between atoms: N_5  and  C_17
    4  A    between atoms: N_5  and  C_23
    5  A    between atoms: C_6  and  O_37
    6  A    between atoms: C_10  and  C_29
    7  A    between atoms: C_11  and  C_33
    8  A    between atoms: C_17  and  C_26
    9  A    between atoms: C_29  and  C_36
   10  A    between atoms: C_31  and  O_37
                            x       y       z     vdW  Elec       q    Type
                         _______ _______ _______ _____ _____    ______ ____

>  <TORSDO>
F 10

$$$$
=
 OpenBabel10272415023D

 37 42  0  0  1  0  0  0  0  0999 V2000
  183.7870  177.9630  140.4530 C   0  0  0  0  0  1  0  0  0  0  0  0
  182.2560  176.5530  136.4920 C   0  0  0  0  0  1  0  0  0  0  0  0
  186.8460  178.9710  137.1950 O   0  0  0  0  0  0  0  0  0  0  0  0
  183.8240  177.7850  137.9800 C   0  0  0  0  0  0  0  0  0  0  0  0
  186.0650  178.1300  138.0160 C   0  0  1  0  0  0  0  0  0  0  0  0
  184.1870  178.6420  139.1530 C   0  0  0  0  0  0  0  0  0  0  0  0
  185.0160  177.4140  137.2070 C   0  0  0  0  0  2  0  0  0  0  0  0
  183.4990  179.9950  139.0570 C   0  0  0  0  0  1  0  0  0  0  0  0
  187.5250  177.9260  137.8560 C   0  0  1  0  0  0  0  0  0  0  0  0
  182.5730  177.4080  137.6760 C   0  0  0  0  0  3  0  0  0  0  0  0
  185.5880  178.8310  139.1410 O   0  0  0  0  0  0  0  0  0  0  0  0
  188.6590  177.1470  135.7590 C   0  0  0  0  0  3  0  0  0  0  0  0
  187.9740  176.8300  136.9350 C   0  0  0  0  0  0  0  0  0  0  0  0
  187.7100  175.4880  137.2400 C   0  0  0  0  0  3  0  0  0  0  0  0
  188.8290  174.7920  135.2200 C   0  0  0  0  0  3  0  0  0  0  0  0
  189.0920  176.1300  134.9070 C   0  0  0  0  0  3  0  0  0  0  0  0
  188.1260  174.4600  136.3810 C   0  0  0  0  0  0  0  0  0  0  0  0
  187.8770  173.1050  136.6470 O   0  0  0  0  0  0  0  0  0  0  0  0
  186.7240  171.3740  135.3250 C   0  0  0  0  0  3  0  0  0  0  0  0
  186.7230  172.3790  136.3070 C   0  0  0  0  0  0  0  0  0  0  0  0
  185.5390  172.6440  137.0060 C   0  0  0  0  0  3  0  0  0  0  0  0
  183.2350  172.1870  137.4160 F   0  0  0  0  0  0  0  0  0  0  0  0
  184.3850  170.9240  135.7560 C   0  0  0  0  0  3  0  0  0  0  0  0
  184.3740  171.9220  136.7320 C   0  0  0  0  0  0  0  0  0  0  0  0
  185.5600  170.6500  135.0510 C   0  0  0  0  0  3  0  0  0  0  0  0
  188.4440  178.4370  138.9610 C   0  0  0  0  0  2  0  0  0  0  0  0
  189.0690  177.2910  139.7410 C   0  0  0  0  0  2  0  0  0  0  0  0
  190.5190  177.3710  139.6690 N   0  0  0  0  0  0  0  0  0  0  0  0
  191.7270  176.5530  137.7250 C   0  0  0  0  0  1  0  0  0  0  0  0
  190.9680  176.1730  138.9770 C   0  0  0  0  0  2  0  0  0  0  0  0
  191.0070  177.2670  141.0360 C   0  0  0  0  0  2  0  0  0  0  0  0
  189.7310  177.0630  143.1210 C   0  0  2  0  0  3  0  0  0  0  0  0
  190.0700  176.3960  141.8480 C   0  0  2  0  0  3  0  0  0  0  0  0
  190.6950  176.0410  143.0570 O   0  0  0  0  0  0  0  0  0  0  0  0
  187.3650  177.5570  143.5940 C   0  0  0  0  0  2  0  0  0  0  0  0
  188.0240  177.2260  144.9090 C   0  0  0  0  0  2  0  0  0  0  0  0
  188.4340  176.4870  143.6530 C   0  0  0  0  0  3  0  0  0  0  0  0
  2 10  1  0  0  0  0
  3  9  1  0  0  0  0
  3  5  1  0  0  0  0
  4  6  1  0  0  0  0
  5  7  1  6  0  0  0
  5 11  1  0  0  0  0
  6  1  1  0  0  0  0
  7  4  1  0  0  0  0
  8  6  1  0  0  0  0
  9  5  1  0  0  0  0
  9 26  1  1  0  0  0
 10  4  2  0  0  0  0
 11  6  1  0  0  0  0
 12 13  1  0  0  0  0
 13 14  2  0  0  0  0
 13  9  1  0  0  0  0
 15 17  2  0  0  0  0
 16 15  1  0  0  0  0
 16 12  2  0  0  0  0
 17 18  1  0  0  0  0
 17 14  1  0  0  0  0
 19 20  1  0  0  0  0
 20 18  1  0  0  0  0
 20 21  2  0  0  0  0
 23 24  2  0  0  0  0
 24 21  1  0  0  0  0
 24 22  1  0  0  0  0
 25 19  2  0  0  0  0
 25 23  1  0  0  0  0
 26 27  1  0  0  0  0
 28 27  1  0  0  0  0
 28 31  1  0  0  0  0
 29 30  1  0  0  0  0
 30 28  1  0  0  0  0
 32 37  1  1  0  0  0
 33 31  1  6  0  0  0
 33 34  1  0  0  0  0
 33 32  1  0  0  0  0
 34 32  1  0  0  0  0
 35 37  1  0  0  0  0
 35 36  1  0  0  0  0
 37 36  1  0  0  0  0
M  END
>  <MODEL>
9

>  <REMARK>
 VINA RESULT:      -7.6      3.867      9.000
  Name = 
  10 active torsions:
  status: ('A' for Active; 'I' for Inactive)
    1  A    between atoms: C_1  and  N_5
    2  A    between atoms: C_1  and  C_36
    3  A    between atoms: N_5  and  C_17
    4  A    between atoms: N_5  and  C_23
    5  A    between atoms: C_6  and  O_37
    6  A    between atoms: C_10  and  C_29
    7  A    between atoms: C_11  and  C_33
    8  A    between atoms: C_17  and  C_26
    9  A    between atoms: C_29  and  C_36
   10  A    between atoms: C_31  and  O_37
                            x       y       z     vdW  Elec       q    Type
                         _______ _______ _______ _____ _____    ______ ____

>  <TORSDO>
F 10

$$$$
