=
 OpenBabel10272415333D

 34 35  0  0  1  0  0  0  0  0999 V2000
  182.1840  178.3650  140.3580 C   0  0  0  0  0  2  0  0  0  0  0  0
  183.8350  177.9250  138.4540 C   0  0  1  0  0  3  0  0  0  0  0  0
  180.4220  178.1860  137.7160 S   0  0  0  0  0  0  0  0  0  0  0  0
  184.2950  175.1020  137.4090 C   0  0  0  0  0  2  0  0  0  0  0  0
  182.3420  180.0910  138.4390 C   0  0  2  0  0  3  0  0  0  0  0  0
  183.0390  178.9750  139.2470 C   0  0  1  0  0  3  0  0  0  0  0  0
  181.8200  174.3860  137.1220 C   0  0  2  0  0  3  0  0  0  0  0  0
  184.0250  176.2920  136.4860 C   0  0  0  0  0  2  0  0  0  0  0  0
  180.9740  173.3140  137.4120 O   0  0  0  0  0  1  0  0  0  0  0  0
  183.1670  177.3680  137.1760 C   0  0  1  0  0  3  0  0  0  0  0  0
  181.6340  180.9450  139.2910 O   0  0  0  0  0  1  0  0  0  0  0  0
  180.6640  180.6590  136.7960 O   0  0  0  0  0  1  0  0  0  0  0  0
  183.2870  173.9550  137.2480 C   0  0  0  0  0  2  0  0  0  0  0  0
  181.4760  175.5880  137.9510 C   0  0  0  0  0  0  0  0  0  0  0  0
  181.6890  176.9220  137.2970 C   0  0  1  0  0  3  0  0  0  0  0  0
  181.3470  175.4840  139.2770 C   0  0  0  0  0  2  0  0  0  0  0  0
  181.4600  179.6170  137.2750 C   0  0  2  0  0  3  0  0  0  0  0  0
  185.2020  178.5050  138.1310 C   0  0  0  0  0  1  0  0  0  0  0  0
  183.0470  177.6960  141.4230 C   0  0  0  0  0  2  0  0  0  0  0  0
  183.5460  178.7030  142.4550 C   0  0  0  0  0  2  0  0  0  0  0  0
  184.9300  178.3540  142.9860 C   0  0  0  0  0  2  0  0  0  0  0  0
  185.0340  178.6240  144.4770 C   0  0  0  0  0  2  0  0  0  0  0  0
  186.2520  177.9270  145.0560 C   0  0  0  0  0  2  0  0  0  0  0  0
  187.3240  177.7540  143.9880 C   0  0  0  0  0  2  0  0  0  0  0  0
  188.4130  176.7980  144.4600 C   0  0  1  0  0  3  0  0  0  0  0  0
  189.1030  176.1460  143.2730 C   0  0  0  0  0  1  0  0  0  0  0  0
  189.4130  177.5140  145.3200 C   0  0  0  0  0  0  0  0  0  0  0  0
  189.9110  178.5620  144.9390 O   0  0  0  0  0  0  0  0  0  0  0  0
  189.7920  176.9720  146.6690 C   0  0  1  0  0  3  0  0  0  0  0  0
  191.2520  176.6610  146.7270 C   0  0  0  0  0  0  0  0  0  0  0  0
  191.9880  176.9240  147.8760 O   0  0  0  0  0  1  0  0  0  0  0  0
  191.8280  176.1840  145.7140 O   0  0  0  0  0  0  0  0  0  0  0  0
  189.3910  177.9080  147.8050 C   0  0  0  0  0  2  0  0  0  0  0  0
  188.0320  177.5210  148.3560 C   0  0  0  0  0  1  0  0  0  0  0  0
  1 19  1  0  0  0  0
  2 18  1  6  0  0  0
  2  6  1  0  0  0  0
  5  6  1  0  0  0  0
  5 11  1  1  0  0  0
  6  1  1  6  0  0  0
  7 13  1  0  0  0  0
  7  9  1  1  0  0  0
  7 14  1  0  0  0  0
  8  4  1  0  0  0  0
 10  8  1  1  0  0  0
 10 15  1  0  0  0  0
 10  2  1  0  0  0  0
 13  4  1  0  0  0  0
 14 16  2  0  0  0  0
 15  3  1  1  0  0  0
 15 14  1  0  0  0  0
 17 12  1  1  0  0  0
 17  3  1  0  0  0  0
 17  5  1  0  0  0  0
 19 20  1  0  0  0  0
 20 21  1  0  0  0  0
 21 22  1  0  0  0  0
 22 23  1  0  0  0  0
 24 25  1  0  0  0  0
 24 23  1  0  0  0  0
 25 26  1  6  0  0  0
 25 27  1  0  0  0  0
 27 29  1  0  0  0  0
 28 27  2  0  0  0  0
 29 30  1  0  0  0  0
 29 33  1  1  0  0  0
 30 31  1  0  0  0  0
 32 30  2  0  0  0  0
 33 34  1  0  0  0  0
M  END
>  <MODEL>
1

>  <REMARK>
 VINA RESULT:      -7.0      0.000      0.000
  Name = 
  12 active torsions:
  status: ('A' for Active; 'I' for Inactive)
    1  A    between atoms: C_1  and  C_9
    2  A    between atoms: C_1  and  C_20
    3  A    between atoms: C_2  and  C_25
    4  A    between atoms: C_2  and  C_32
    5  A    between atoms: C_3  and  C_25
    6  A    between atoms: C_5  and  C_19
    7  A    between atoms: C_5  and  C_32
    8  A    between atoms: C_10  and  C_12
    9  A    between atoms: C_10  and  C_20
   10  A    between atoms: C_12  and  C_22
   11  A    between atoms: C_19  and  C_22
   12  A    between atoms: C_25  and  C_27
                            x       y       z     vdW  Elec       q    Type
                         _______ _______ _______ _____ _____    ______ ____

>  <TORSDO>
F 12

$$$$
=
 OpenBabel10272415333D

 34 35  0  0  1  0  0  0  0  0999 V2000
  182.1920  178.2730  140.4550 C   0  0  0  0  0  2  0  0  0  0  0  0
  183.8370  177.8610  138.5390 C   0  0  1  0  0  3  0  0  0  0  0  0
  180.4160  178.0780  137.8230 S   0  0  0  0  0  0  0  0  0  0  0  0
  184.3280  175.0460  137.4830 C   0  0  0  0  0  2  0  0  0  0  0  0
  182.3150  180.0060  138.5390 C   0  0  2  0  0  3  0  0  0  0  0  0
  183.0320  178.8970  139.3400 C   0  0  1  0  0  3  0  0  0  0  0  0
  181.8610  174.2980  137.2100 C   0  0  2  0  0  3  0  0  0  0  0  0
  184.0360  176.2350  136.5660 C   0  0  0  0  0  2  0  0  0  0  0  0
  181.0310  173.2140  137.5030 O   0  0  0  0  0  1  0  0  0  0  0  0
  183.1680  177.2970  137.2640 C   0  0  1  0  0  3  0  0  0  0  0  0
  181.6010  180.8480  139.3980 O   0  0  0  0  0  1  0  0  0  0  0  0
  180.6180  180.5550  136.9090 O   0  0  0  0  0  1  0  0  0  0  0  0
  183.3340  173.8870  137.3260 C   0  0  0  0  0  2  0  0  0  0  0  0
  181.5060  175.4930  138.0450 C   0  0  0  0  0  0  0  0  0  0  0  0
  181.6970  176.8320  137.3940 C   0  0  1  0  0  3  0  0  0  0  0  0
  181.3870  175.3840  139.3710 C   0  0  0  0  0  2  0  0  0  0  0  0
  181.4320  179.5230  137.3800 C   0  0  2  0  0  3  0  0  0  0  0  0
  185.1930  178.4600  138.2090 C   0  0  0  0  0  1  0  0  0  0  0  0
  182.6650  178.7280  141.8320 C   0  0  0  0  0  2  0  0  0  0  0  0
  184.1120  178.3220  142.0900 C   0  0  0  0  0  2  0  0  0  0  0  0
  184.7940  179.2180  143.1160 C   0  0  0  0  0  2  0  0  0  0  0  0
  184.4660  178.7850  144.5340 C   0  0  0  0  0  2  0  0  0  0  0  0
  185.7360  178.6640  145.3570 C   0  0  0  0  0  2  0  0  0  0  0  0
  186.4830  177.3850  144.9970 C   0  0  0  0  0  2  0  0  0  0  0  0
  187.9570  177.6720  144.7370 C   0  0  1  0  0  3  0  0  0  0  0  0
  188.8010  177.2590  145.9310 C   0  0  0  0  0  1  0  0  0  0  0  0
  188.4250  176.9680  143.4960 C   0  0  0  0  0  0  0  0  0  0  0  0
  187.9640  175.8770  143.1990 O   0  0  0  0  0  0  0  0  0  0  0  0
  189.4390  177.6050  142.5880 C   0  0  1  0  0  3  0  0  0  0  0  0
  190.7690  176.9400  142.7250 C   0  0  0  0  0  0  0  0  0  0  0  0
  190.8760  175.6820  143.3050 O   0  0  0  0  0  1  0  0  0  0  0  0
  191.8070  177.5390  142.3410 O   0  0  0  0  0  0  0  0  0  0  0  0
  188.9860  177.6200  141.1320 C   0  0  0  0  0  2  0  0  0  0  0  0
  187.7560  178.4930  140.9670 C   0  0  0  0  0  1  0  0  0  0  0  0
  1 19  1  0  0  0  0
  2 18  1  6  0  0  0
  2  6  1  0  0  0  0
  5  6  1  0  0  0  0
  5 11  1  1  0  0  0
  6  1  1  6  0  0  0
  7 13  1  0  0  0  0
  7  9  1  1  0  0  0
  7 14  1  0  0  0  0
  8  4  1  0  0  0  0
 10  8  1  1  0  0  0
 10 15  1  0  0  0  0
 10  2  1  0  0  0  0
 13  4  1  0  0  0  0
 14 16  2  0  0  0  0
 15  3  1  1  0  0  0
 15 14  1  0  0  0  0
 17 12  1  1  0  0  0
 17  3  1  0  0  0  0
 17  5  1  0  0  0  0
 19 20  1  0  0  0  0
 20 21  1  0  0  0  0
 21 22  1  0  0  0  0
 22 23  1  0  0  0  0
 24 23  1  0  0  0  0
 25 24  1  0  0  0  0
 25 26  1  1  0  0  0
 27 25  1  0  0  0  0
 28 27  2  0  0  0  0
 29 33  1  6  0  0  0
 29 30  1  0  0  0  0
 29 27  1  0  0  0  0
 30 31  1  0  0  0  0
 32 30  2  0  0  0  0
 34 33  1  0  0  0  0
M  END
>  <MODEL>
2

>  <REMARK>
 VINA RESULT:      -6.7      1.426      2.456
  Name = 
  12 active torsions:
  status: ('A' for Active; 'I' for Inactive)
    1  A    between atoms: C_1  and  C_9
    2  A    between atoms: C_1  and  C_20
    3  A    between atoms: C_2  and  C_25
    4  A    between atoms: C_2  and  C_32
    5  A    between atoms: C_3  and  C_25
    6  A    between atoms: C_5  and  C_19
    7  A    between atoms: C_5  and  C_32
    8  A    between atoms: C_10  and  C_12
    9  A    between atoms: C_10  and  C_20
   10  A    between atoms: C_12  and  C_22
   11  A    between atoms: C_19  and  C_22
   12  A    between atoms: C_25  and  C_27
                            x       y       z     vdW  Elec       q    Type
                         _______ _______ _______ _____ _____    ______ ____

>  <TORSDO>
F 12

$$$$
=
 OpenBabel10272415333D

 34 35  0  0  1  0  0  0  0  0999 V2000
  182.3980  178.5050  140.5120 C   0  0  0  0  0  2  0  0  0  0  0  0
  183.9380  177.9940  138.5340 C   0  0  1  0  0  3  0  0  0  0  0  0
  180.4960  178.3070  137.9700 S   0  0  0  0  0  0  0  0  0  0  0  0
  184.2910  175.1410  137.5270 C   0  0  0  0  0  2  0  0  0  0  0  0
  182.4870  180.1880  138.5510 C   0  0  2  0  0  3  0  0  0  0  0  0
  183.2050  179.0750  139.3450 C   0  0  1  0  0  3  0  0  0  0  0  0
  181.7920  174.4680  137.3850 C   0  0  2  0  0  3  0  0  0  0  0  0
  183.9940  176.3180  136.5940 C   0  0  0  0  0  2  0  0  0  0  0  0
  180.9420  173.4190  137.7420 O   0  0  0  0  0  1  0  0  0  0  0  0
  183.1940  177.4240  137.3050 C   0  0  1  0  0  3  0  0  0  0  0  0
  181.8410  181.0720  139.4200 O   0  0  0  0  0  1  0  0  0  0  0  0
  180.7350  180.7540  136.9860 O   0  0  0  0  0  1  0  0  0  0  0  0
  183.2550  174.0120  137.4440 C   0  0  0  0  0  2  0  0  0  0  0  0
  181.5140  175.6940  138.2060 C   0  0  0  0  0  0  0  0  0  0  0  0
  181.7170  177.0090  137.5130 C   0  0  1  0  0  3  0  0  0  0  0  0
  181.4530  175.6190  139.5380 C   0  0  0  0  0  2  0  0  0  0  0  0
  181.5360  179.7070  137.4450 C   0  0  2  0  0  3  0  0  0  0  0  0
  185.2970  178.5410  138.1270 C   0  0  0  0  0  1  0  0  0  0  0  0
  183.2780  178.2650  141.7340 C   0  0  0  0  0  2  0  0  0  0  0  0
  182.6430  178.8270  143.0020 C   0  0  0  0  0  2  0  0  0  0  0  0
  183.6380  179.5980  143.8600 C   0  0  0  0  0  2  0  0  0  0  0  0
  183.8850  178.8980  145.1850 C   0  0  0  0  0  2  0  0  0  0  0  0
  185.1560  178.0710  145.1160 C   0  0  0  0  0  2  0  0  0  0  0  0
  186.1750  178.7360  144.1990 C   0  0  0  0  0  2  0  0  0  0  0  0
  186.7170  177.7430  143.1780 C   0  0  1  0  0  3  0  0  0  0  0  0
  186.9910  178.4340  141.8520 C   0  0  0  0  0  1  0  0  0  0  0  0
  187.9620  177.0790  143.6910 C   0  0  0  0  0  0  0  0  0  0  0  0
  188.1680  175.8980  143.4600 O   0  0  0  0  0  0  0  0  0  0  0  0
  188.9850  177.8610  144.4670 C   0  0  1  0  0  3  0  0  0  0  0  0
  189.1590  177.2970  145.8390 C   0  0  0  0  0  0  0  0  0  0  0  0
  190.3370  176.6540  146.1960 O   0  0  0  0  0  0  0  0  0  0  0  0
  188.2160  177.3770  146.6690 O   0  0  0  0  0  1  0  0  0  0  0  0
  190.3230  177.9480  143.7410 C   0  0  0  0  0  2  0  0  0  0  0  0
  190.9680  179.3000  143.9760 C   0  0  0  0  0  1  0  0  0  0  0  0
  1 19  1  0  0  0  0
  2 18  1  6  0  0  0
  2  6  1  0  0  0  0
  5  6  1  0  0  0  0
  5 11  1  1  0  0  0
  6  1  1  6  0  0  0
  7 13  1  0  0  0  0
  7  9  1  1  0  0  0
  7 14  1  0  0  0  0
  8  4  1  0  0  0  0
 10  8  1  1  0  0  0
 10 15  1  0  0  0  0
 10  2  1  0  0  0  0
 13  4  1  0  0  0  0
 14 16  2  0  0  0  0
 15  3  1  1  0  0  0
 15 14  1  0  0  0  0
 17 12  1  1  0  0  0
 17  3  1  0  0  0  0
 17  5  1  0  0  0  0
 19 20  1  0  0  0  0
 20 21  1  0  0  0  0
 21 22  1  0  0  0  0
 23 22  1  0  0  0  0
 24 23  1  0  0  0  0
 25 26  1  6  0  0  0
 25 27  1  0  0  0  0
 25 24  1  0  0  0  0
 27 29  1  0  0  0  0
 28 27  2  0  0  0  0
 29 33  1  6  0  0  0
 29 30  1  0  0  0  0
 30 31  2  0  0  0  0
 30 32  1  0  0  0  0
 33 34  1  0  0  0  0
M  END
>  <MODEL>
3

>  <REMARK>
 VINA RESULT:      -6.5      1.225      1.938
  Name = 
  12 active torsions:
  status: ('A' for Active; 'I' for Inactive)
    1  A    between atoms: C_1  and  C_9
    2  A    between atoms: C_1  and  C_20
    3  A    between atoms: C_2  and  C_25
    4  A    between atoms: C_2  and  C_32
    5  A    between atoms: C_3  and  C_25
    6  A    between atoms: C_5  and  C_19
    7  A    between atoms: C_5  and  C_32
    8  A    between atoms: C_10  and  C_12
    9  A    between atoms: C_10  and  C_20
   10  A    between atoms: C_12  and  C_22
   11  A    between atoms: C_19  and  C_22
   12  A    between atoms: C_25  and  C_27
                            x       y       z     vdW  Elec       q    Type
                         _______ _______ _______ _____ _____    ______ ____

>  <TORSDO>
F 12

$$$$
=
 OpenBabel10272415333D

 34 35  0  0  1  0  0  0  0  0999 V2000
  193.0570  175.8260  137.9780 C   0  0  0  0  0  2  0  0  0  0  0  0
  194.6890  176.0210  136.0180 C   0  0  1  0  0  3  0  0  0  0  0  0
  192.5970  173.2200  136.2130 S   0  0  0  0  0  0  0  0  0  0  0  0
  197.3680  174.5720  136.0670 C   0  0  0  0  0  2  0  0  0  0  0  0
  192.0990  175.9010  135.5780 C   0  0  2  0  0  3  0  0  0  0  0  0
  193.2600  176.2660  136.5280 C   0  0  1  0  0  3  0  0  0  0  0  0
  196.5270  172.2260  136.7780 C   0  0  2  0  0  3  0  0  0  0  0  0
  196.4180  174.5150  134.8690 C   0  0  0  0  0  2  0  0  0  0  0  0
  196.8310  171.2070  137.6830 O   0  0  0  0  0  1  0  0  0  0  0  0
  194.9480  174.6790  135.2960 C   0  0  1  0  0  3  0  0  0  0  0  0
  190.8670  176.1460  136.1920 O   0  0  0  0  0  1  0  0  0  0  0  0
  190.9320  174.1580  134.3790 O   0  0  0  0  0  1  0  0  0  0  0  0
  197.7090  173.1940  136.6500 C   0  0  0  0  0  2  0  0  0  0  0  0
  195.2360  172.9020  137.1370 C   0  0  0  0  0  0  0  0  0  0  0  0
  194.4120  173.4000  135.9850 C   0  0  1  0  0  3  0  0  0  0  0  0
  195.0250  173.3480  138.3780 C   0  0  0  0  0  2  0  0  0  0  0  0
  192.1470  174.4860  134.9830 C   0  0  2  0  0  3  0  0  0  0  0  0
  195.0860  177.1890  135.1300 C   0  0  0  0  0  1  0  0  0  0  0  0
  193.3920  176.9490  138.9550 C   0  0  0  0  0  2  0  0  0  0  0  0
  192.2450  177.2080  139.9270 C   0  0  0  0  0  2  0  0  0  0  0  0
  190.9450  176.5490  139.4820 C   0  0  0  0  0  2  0  0  0  0  0  0
  189.7420  177.1990  140.1430 C   0  0  0  0  0  2  0  0  0  0  0  0
  190.0550  177.5430  141.5880 C   0  0  0  0  0  2  0  0  0  0  0  0
  189.2630  176.6490  142.5320 C   0  0  0  0  0  2  0  0  0  0  0  0
  190.0230  176.4240  143.8340 C   0  0  1  0  0  3  0  0  0  0  0  0
  191.5230  176.4740  143.5930 C   0  0  0  0  0  1  0  0  0  0  0  0
  189.6230  177.4390  144.8650 C   0  0  0  0  0  0  0  0  0  0  0  0
  189.9210  178.6140  144.7170 O   0  0  0  0  0  0  0  0  0  0  0  0
  188.8280  177.0330  146.0740 C   0  0  1  0  0  3  0  0  0  0  0  0
  189.6460  177.1610  147.3170 C   0  0  0  0  0  0  0  0  0  0  0  0
  189.2740  178.0440  148.3220 O   0  0  0  0  0  1  0  0  0  0  0  0
  190.7000  176.4840  147.4420 O   0  0  0  0  0  0  0  0  0  0  0  0
  187.5230  177.8110  146.1990 C   0  0  0  0  0  2  0  0  0  0  0  0
  186.5920  177.4750  145.0500 C   0  0  0  0  0  1  0  0  0  0  0  0
  1 19  1  0  0  0  0
  2 18  1  6  0  0  0
  2  6  1  0  0  0  0
  4 13  1  0  0  0  0
  5 11  1  1  0  0  0
  5  6  1  0  0  0  0
  6  1  1  1  0  0  0
  7 14  1  0  0  0  0
  7  9  1  1  0  0  0
  8  4  1  0  0  0  0
 10  8  1  1  0  0  0
 10 15  1  0  0  0  0
 10  2  1  0  0  0  0
 13  7  1  0  0  0  0
 14 16  2  0  0  0  0
 15  3  1  1  0  0  0
 15 14  1  0  0  0  0
 17 12  1  1  0  0  0
 17  5  1  0  0  0  0
 17  3  1  0  0  0  0
 19 20  1  0  0  0  0
 21 20  1  0  0  0  0
 21 22  1  0  0  0  0
 22 23  1  0  0  0  0
 23 24  1  0  0  0  0
 24 25  1  0  0  0  0
 25 26  1  6  0  0  0
 25 27  1  0  0  0  0
 27 29  1  0  0  0  0
 28 27  2  0  0  0  0
 29 33  1  1  0  0  0
 29 30  1  0  0  0  0
 30 32  2  0  0  0  0
 30 31  1  0  0  0  0
 34 33  1  0  0  0  0
M  END
>  <MODEL>
4

>  <REMARK>
 VINA RESULT:      -6.2      7.383      9.859
  Name = 
  12 active torsions:
  status: ('A' for Active; 'I' for Inactive)
    1  A    between atoms: C_1  and  C_9
    2  A    between atoms: C_1  and  C_20
    3  A    between atoms: C_2  and  C_25
    4  A    between atoms: C_2  and  C_32
    5  A    between atoms: C_3  and  C_25
    6  A    between atoms: C_5  and  C_19
    7  A    between atoms: C_5  and  C_32
    8  A    between atoms: C_10  and  C_12
    9  A    between atoms: C_10  and  C_20
   10  A    between atoms: C_12  and  C_22
   11  A    between atoms: C_19  and  C_22
   12  A    between atoms: C_25  and  C_27
                            x       y       z     vdW  Elec       q    Type
                         _______ _______ _______ _____ _____    ______ ____

>  <TORSDO>
F 12

$$$$
=
 OpenBabel10272415333D

 34 35  0  0  1  0  0  0  0  0999 V2000
  185.6570  177.4250  137.9730 C   0  0  0  0  0  2  0  0  0  0  0  0
  186.6980  177.4080  135.6360 C   0  0  1  0  0  3  0  0  0  0  0  0
  186.0280  174.3570  137.2190 S   0  0  0  0  0  0  0  0  0  0  0  0
  189.7020  177.0610  135.2690 C   0  0  0  0  0  2  0  0  0  0  0  0
  184.3590  176.2780  136.0530 C   0  0  2  0  0  3  0  0  0  0  0  0
  185.4070  177.3340  136.4680 C   0  0  1  0  0  3  0  0  0  0  0  0
  190.0490  175.0120  136.8180 C   0  0  2  0  0  3  0  0  0  0  0  0
  188.6720  176.2500  134.4790 C   0  0  0  0  0  2  0  0  0  0  0  0
  190.8980  174.5660  137.8330 O   0  0  0  0  0  1  0  0  0  0  0  0
  187.3650  176.0620  135.2690 C   0  0  1  0  0  3  0  0  0  0  0  0
  183.2620  176.3100  136.9180 O   0  0  0  0  0  1  0  0  0  0  0  0
  183.8370  173.9340  135.7920 O   0  0  0  0  0  1  0  0  0  0  0  0
  190.6800  176.1960  136.0770 C   0  0  0  0  0  2  0  0  0  0  0  0
  188.6750  175.3020  137.3500 C   0  0  0  0  0  0  0  0  0  0  0  0
  187.5360  175.0320  136.4120 C   0  0  1  0  0  3  0  0  0  0  0  0
  188.5130  176.0800  138.4240 C   0  0  0  0  0  2  0  0  0  0  0  0
  184.8900  174.8470  135.8850 C   0  0  2  0  0  3  0  0  0  0  0  0
  186.4160  178.2220  134.3850 C   0  0  0  0  0  1  0  0  0  0  0  0
  185.3990  178.8330  138.4990 C   0  0  0  0  0  2  0  0  0  0  0  0
  184.0070  178.9570  139.1110 C   0  0  0  0  0  2  0  0  0  0  0  0
  184.0250  178.8200  140.6290 C   0  0  0  0  0  2  0  0  0  0  0  0
  185.4060  179.1070  141.1930 C   0  0  0  0  0  2  0  0  0  0  0  0
  185.7240  178.1440  142.3230 C   0  0  0  0  0  2  0  0  0  0  0  0
  187.2320  177.9830  142.4750 C   0  0  0  0  0  2  0  0  0  0  0  0
  187.5630  177.0130  143.6030 C   0  0  1  0  0  3  0  0  0  0  0  0
  188.7020  176.0910  143.1990 C   0  0  0  0  0  1  0  0  0  0  0  0
  187.9120  177.7580  144.8600 C   0  0  0  0  0  0  0  0  0  0  0  0
  188.9550  178.3910  144.9280 O   0  0  0  0  0  0  0  0  0  0  0  0
  186.9760  177.7620  146.0350 C   0  0  1  0  0  3  0  0  0  0  0  0
  187.7310  177.6530  147.3190 C   0  0  0  0  0  0  0  0  0  0  0  0
  188.5860  176.5820  147.5490 O   0  0  0  0  0  0  0  0  0  0  0  0
  187.5680  178.5240  148.2130 O   0  0  0  0  0  1  0  0  0  0  0  0
  186.0610  178.9820  146.0440 C   0  0  0  0  0  2  0  0  0  0  0  0
  184.6370  178.5810  145.7060 C   0  0  0  0  0  1  0  0  0  0  0  0
  1 19  1  0  0  0  0
  2 18  1  6  0  0  0
  2  6  1  0  0  0  0
  4 13  1  0  0  0  0
  5  6  1  0  0  0  0
  5 11  1  1  0  0  0
  6  1  1  1  0  0  0
  7 14  1  0  0  0  0
  7  9  1  1  0  0  0
  8  4  1  0  0  0  0
 10  8  1  1  0  0  0
 10  2  1  0  0  0  0
 10 15  1  0  0  0  0
 13  7  1  0  0  0  0
 14 16  2  0  0  0  0
 15  3  1  1  0  0  0
 15 14  1  0  0  0  0
 17 12  1  1  0  0  0
 17  5  1  0  0  0  0
 17  3  1  0  0  0  0
 19 20  1  0  0  0  0
 20 21  1  0  0  0  0
 21 22  1  0  0  0  0
 22 23  1  0  0  0  0
 23 24  1  0  0  0  0
 24 25  1  0  0  0  0
 25 26  1  6  0  0  0
 25 27  1  0  0  0  0
 27 28  2  0  0  0  0
 27 29  1  0  0  0  0
 29 33  1  1  0  0  0
 29 30  1  0  0  0  0
 30 31  2  0  0  0  0
 30 32  1  0  0  0  0
 34 33  1  0  0  0  0
M  END
>  <MODEL>
5

>  <REMARK>
 VINA RESULT:      -6.2      3.458      5.082
  Name = 
  12 active torsions:
  status: ('A' for Active; 'I' for Inactive)
    1  A    between atoms: C_1  and  C_9
    2  A    between atoms: C_1  and  C_20
    3  A    between atoms: C_2  and  C_25
    4  A    between atoms: C_2  and  C_32
    5  A    between atoms: C_3  and  C_25
    6  A    between atoms: C_5  and  C_19
    7  A    between atoms: C_5  and  C_32
    8  A    between atoms: C_10  and  C_12
    9  A    between atoms: C_10  and  C_20
   10  A    between atoms: C_12  and  C_22
   11  A    between atoms: C_19  and  C_22
   12  A    between atoms: C_25  and  C_27
                            x       y       z     vdW  Elec       q    Type
                         _______ _______ _______ _____ _____    ______ ____

>  <TORSDO>
F 12

$$$$
=
 OpenBabel10272415333D

 34 35  0  0  1  0  0  0  0  0999 V2000
  183.5290  177.1150  139.0990 C   0  0  0  0  0  2  0  0  0  0  0  0
  182.8600  177.5430  136.6660 C   0  0  1  0  0  3  0  0  0  0  0  0
  183.5940  174.2710  137.6750 S   0  0  0  0  0  0  0  0  0  0  0  0
  184.9760  177.8170  134.4920 C   0  0  0  0  0  2  0  0  0  0  0  0
  181.4110  175.9510  138.1780 C   0  0  2  0  0  3  0  0  0  0  0  0
  182.3940  177.1380  138.0740 C   0  0  1  0  0  3  0  0  0  0  0  0
  186.3900  175.7210  135.0600 C   0  0  2  0  0  3  0  0  0  0  0  0
  183.7510  176.9120  134.3460 C   0  0  0  0  0  2  0  0  0  0  0  0
  187.7220  175.3410  135.2350 O   0  0  0  0  0  1  0  0  0  0  0  0
  183.2540  176.3960  135.7080 C   0  0  1  0  0  3  0  0  0  0  0  0
  181.1070  175.6810  139.5160 O   0  0  0  0  0  1  0  0  0  0  0  0
  181.0390  173.5910  137.8210 O   0  0  0  0  0  1  0  0  0  0  0  0
  186.3110  177.0750  134.3460 C   0  0  0  0  0  2  0  0  0  0  0  0
  185.6410  175.6850  136.3610 C   0  0  0  0  0  0  0  0  0  0  0  0
  184.1930  175.3030  136.2760 C   0  0  1  0  0  3  0  0  0  0  0  0
  186.1290  176.3000  137.4420 C   0  0  0  0  0  2  0  0  0  0  0  0
  181.8330  174.6730  137.4380 C   0  0  2  0  0  3  0  0  0  0  0  0
  181.7860  178.4160  136.0400 C   0  0  0  0  0  1  0  0  0  0  0  0
  183.7880  178.5030  139.6750 C   0  0  0  0  0  2  0  0  0  0  0  0
  185.2700  178.7260  139.9570 C   0  0  0  0  0  2  0  0  0  0  0  0
  185.5200  179.2920  141.3490 C   0  0  0  0  0  2  0  0  0  0  0  0
  184.5430  178.7190  142.3610 C   0  0  0  0  0  2  0  0  0  0  0  0
  185.2830  177.8970  143.4020 C   0  0  0  0  0  2  0  0  0  0  0  0
  186.7580  177.7800  143.0370 C   0  0  0  0  0  2  0  0  0  0  0  0
  187.4930  176.8850  144.0280 C   0  0  1  0  0  3  0  0  0  0  0  0
  188.6430  176.1630  143.3450 C   0  0  0  0  0  1  0  0  0  0  0  0
  187.9950  177.6850  145.1950 C   0  0  0  0  0  0  0  0  0  0  0  0
  188.9200  178.4690  145.0500 O   0  0  0  0  0  0  0  0  0  0  0  0
  187.3510  177.5570  146.5470 C   0  0  1  0  0  3  0  0  0  0  0  0
  188.3770  177.3170  147.6060 C   0  0  0  0  0  0  0  0  0  0  0  0
  188.3650  178.0550  148.7830 O   0  0  0  0  0  1  0  0  0  0  0  0
  189.2790  176.4600  147.4160 O   0  0  0  0  0  0  0  0  0  0  0  0
  186.4830  178.7620  146.8930 C   0  0  0  0  0  2  0  0  0  0  0  0
  185.0120  178.4130  146.7610 C   0  0  0  0  0  1  0  0  0  0  0  0
  1 19  1  0  0  0  0
  2 18  1  6  0  0  0
  2  6  1  0  0  0  0
  5 11  1  1  0  0  0
  6  5  1  0  0  0  0
  6  1  1  1  0  0  0
  7  9  1  1  0  0  0
  7 14  1  0  0  0  0
  8  4  1  0  0  0  0
 10  8  1  6  0  0  0
 10 15  1  0  0  0  0
 10  2  1  0  0  0  0
 13  4  1  0  0  0  0
 13  7  1  0  0  0  0
 14 16  2  0  0  0  0
 15 14  1  1  0  0  0
 15  3  1  0  0  0  0
 17  3  1  0  0  0  0
 17 12  1  1  0  0  0
 17  5  1  0  0  0  0
 19 20  1  0  0  0  0
 20 21  1  0  0  0  0
 21 22  1  0  0  0  0
 22 23  1  0  0  0  0
 24 23  1  0  0  0  0
 24 25  1  0  0  0  0
 25 26  1  6  0  0  0
 25 27  1  0  0  0  0
 27 29  1  0  0  0  0
 28 27  2  0  0  0  0
 29 33  1  1  0  0  0
 29 30  1  0  0  0  0
 30 31  1  0  0  0  0
 32 30  2  0  0  0  0
 34 33  1  0  0  0  0
M  END
>  <MODEL>
6

>  <REMARK>
 VINA RESULT:      -6.0      2.346      3.686
  Name = 
  12 active torsions:
  status: ('A' for Active; 'I' for Inactive)
    1  A    between atoms: C_1  and  C_9
    2  A    between atoms: C_1  and  C_20
    3  A    between atoms: C_2  and  C_25
    4  A    between atoms: C_2  and  C_32
    5  A    between atoms: C_3  and  C_25
    6  A    between atoms: C_5  and  C_19
    7  A    between atoms: C_5  and  C_32
    8  A    between atoms: C_10  and  C_12
    9  A    between atoms: C_10  and  C_20
   10  A    between atoms: C_12  and  C_22
   11  A    between atoms: C_19  and  C_22
   12  A    between atoms: C_25  and  C_27
                            x       y       z     vdW  Elec       q    Type
                         _______ _______ _______ _____ _____    ______ ____

>  <TORSDO>
F 12

$$$$
=
 OpenBabel10272415333D

 34 35  0  0  1  0  0  0  0  0999 V2000
  187.6400  176.8650  138.2020 C   0  0  0  0  0  2  0  0  0  0  0  0
  189.3090  176.0270  136.4540 C   0  0  1  0  0  3  0  0  0  0  0  0
  185.9970  176.6300  135.4890 S   0  0  0  0  0  0  0  0  0  0  0  0
  189.4500  173.0740  135.7200 C   0  0  0  0  0  2  0  0  0  0  0  0
  188.1110  178.3470  136.1360 C   0  0  2  0  0  3  0  0  0  0  0  0
  188.6190  177.2450  137.0900 C   0  0  1  0  0  3  0  0  0  0  0  0
  186.9200  172.6440  135.3560 C   0  0  2  0  0  3  0  0  0  0  0  0
  189.3800  174.1850  134.6710 C   0  0  0  0  0  2  0  0  0  0  0  0
  185.9290  171.7210  135.6980 O   0  0  0  0  0  1  0  0  0  0  0  0
  188.6360  175.4250  135.1980 C   0  0  1  0  0  3  0  0  0  0  0  0
  187.4800  179.3660  136.8560 O   0  0  0  0  0  1  0  0  0  0  0  0
  186.6000  178.9430  134.3480 O   0  0  0  0  0  1  0  0  0  0  0  0
  188.3100  172.0510  135.6120 C   0  0  0  0  0  2  0  0  0  0  0  0
  186.6940  173.9600  136.0410 C   0  0  0  0  0  0  0  0  0  0  0  0
  187.1090  175.1810  135.2740 C   0  0  1  0  0  3  0  0  0  0  0  0
  186.4900  174.0120  137.3600 C   0  0  0  0  0  2  0  0  0  0  0  0
  187.2320  177.8660  134.9730 C   0  0  2  0  0  3  0  0  0  0  0  0
  190.7530  176.3970  136.1590 C   0  0  0  0  0  1  0  0  0  0  0  0
  188.1160  177.3690  139.5610 C   0  0  0  0  0  2  0  0  0  0  0  0
  189.5900  177.7600  139.5290 C   0  0  0  0  0  2  0  0  0  0  0  0
  190.4620  176.8140  140.3460 C   0  0  0  0  0  2  0  0  0  0  0  0
  191.6320  177.5480  140.9770 C   0  0  0  0  0  2  0  0  0  0  0  0
  191.5720  177.4350  142.4900 C   0  0  0  0  0  2  0  0  0  0  0  0
  190.3210  176.6770  142.9170 C   0  0  0  0  0  2  0  0  0  0  0  0
  190.2860  176.4960  144.4300 C   0  0  1  0  0  3  0  0  0  0  0  0
  191.6960  176.4140  144.9920 C   0  0  0  0  0  1  0  0  0  0  0  0
  189.5250  177.6140  145.0820 C   0  0  0  0  0  0  0  0  0  0  0  0
  189.8690  178.7730  144.9080 O   0  0  0  0  0  0  0  0  0  0  0  0
  188.3180  177.3290  145.9290 C   0  0  1  0  0  3  0  0  0  0  0  0
  188.6680  177.3500  147.3810 C   0  0  0  0  0  0  0  0  0  0  0  0
  187.6760  177.4510  148.3490 O   0  0  0  0  0  1  0  0  0  0  0  0
  189.8770  177.3070  147.7310 O   0  0  0  0  0  0  0  0  0  0  0  0
  187.1640  178.2820  145.6350 C   0  0  0  0  0  2  0  0  0  0  0  0
  186.2920  177.7330  144.5220 C   0  0  0  0  0  1  0  0  0  0  0  0
  1 19  1  0  0  0  0
  2 18  1  6  0  0  0
  2  6  1  0  0  0  0
  5 11  1  1  0  0  0
  5  6  1  0  0  0  0
  6  1  1  6  0  0  0
  7 13  1  0  0  0  0
  7  9  1  1  0  0  0
  7 14  1  0  0  0  0
  8  4  1  0  0  0  0
 10  8  1  1  0  0  0
 10 15  1  0  0  0  0
 10  2  1  0  0  0  0
 13  4  1  0  0  0  0
 14 16  2  0  0  0  0
 15  3  1  1  0  0  0
 15 14  1  0  0  0  0
 17 12  1  1  0  0  0
 17  3  1  0  0  0  0
 17  5  1  0  0  0  0
 20 19  1  0  0  0  0
 20 21  1  0  0  0  0
 21 22  1  0  0  0  0
 22 23  1  0  0  0  0
 23 24  1  0  0  0  0
 24 25  1  0  0  0  0
 25 26  1  1  0  0  0
 25 27  1  0  0  0  0
 27 29  1  0  0  0  0
 28 27  2  0  0  0  0
 29 33  1  1  0  0  0
 29 30  1  0  0  0  0
 30 32  2  0  0  0  0
 30 31  1  0  0  0  0
 34 33  1  0  0  0  0
M  END
>  <MODEL>
7

>  <REMARK>
 VINA RESULT:      -5.9      4.028      5.321
  Name = 
  12 active torsions:
  status: ('A' for Active; 'I' for Inactive)
    1  A    between atoms: C_1  and  C_9
    2  A    between atoms: C_1  and  C_20
    3  A    between atoms: C_2  and  C_25
    4  A    between atoms: C_2  and  C_32
    5  A    between atoms: C_3  and  C_25
    6  A    between atoms: C_5  and  C_19
    7  A    between atoms: C_5  and  C_32
    8  A    between atoms: C_10  and  C_12
    9  A    between atoms: C_10  and  C_20
   10  A    between atoms: C_12  and  C_22
   11  A    between atoms: C_19  and  C_22
   12  A    between atoms: C_25  and  C_27
                            x       y       z     vdW  Elec       q    Type
                         _______ _______ _______ _____ _____    ______ ____

>  <TORSDO>
F 12

$$$$
=
 OpenBabel10272415333D

 34 35  0  0  1  0  0  0  0  0999 V2000
  183.9000  178.2110  139.2390 C   0  0  0  0  0  2  0  0  0  0  0  0
  182.1000  179.7690  138.3010 C   0  0  1  0  0  3  0  0  0  0  0  0
  181.1540  176.6380  139.5520 S   0  0  0  0  0  0  0  0  0  0  0  0
  181.0760  179.4310  135.4520 C   0  0  0  0  0  2  0  0  0  0  0  0
  182.0010  178.9900  140.8110 C   0  0  2  0  0  3  0  0  0  0  0  0
  182.8470  179.2750  139.5510 C   0  0  1  0  0  3  0  0  0  0  0  0
  180.6340  176.8770  135.4990 C   0  0  2  0  0  3  0  0  0  0  0  0
  180.1420  179.5830  136.6550 C   0  0  0  0  0  2  0  0  0  0  0  0
  180.8670  175.7350  134.7310 O   0  0  0  0  0  1  0  0  0  0  0  0
  180.7810  179.0430  137.9470 C   0  0  1  0  0  3  0  0  0  0  0  0
  182.8110  178.5180  141.8490 O   0  0  0  0  0  1  0  0  0  0  0  0
  180.2600  177.6580  141.8270 O   0  0  0  0  0  1  0  0  0  0  0  0
  180.8480  178.1390  134.6550 C   0  0  0  0  0  2  0  0  0  0  0  0
  181.4450  176.8560  136.7610 C   0  0  0  0  0  0  0  0  0  0  0  0
  180.8100  177.4950  137.9620 C   0  0  1  0  0  3  0  0  0  0  0  0
  182.7590  176.6230  136.7200 C   0  0  0  0  0  2  0  0  0  0  0  0
  180.7830  178.0790  140.6030 C   0  0  2  0  0  3  0  0  0  0  0  0
  181.8650  181.2630  138.4440 C   0  0  0  0  0  1  0  0  0  0  0  0
  185.1590  178.8320  138.6410 C   0  0  0  0  0  2  0  0  0  0  0  0
  186.0990  177.7670  138.0830 C   0  0  0  0  0  2  0  0  0  0  0  0
  187.5280  177.9330  138.5840 C   0  0  0  0  0  2  0  0  0  0  0  0
  187.5580  178.3280  140.0500 C   0  0  0  0  0  2  0  0  0  0  0  0
  188.7550  177.7000  140.7420 C   0  0  0  0  0  2  0  0  0  0  0  0
  188.9140  178.2660  142.1470 C   0  0  0  0  0  2  0  0  0  0  0  0
  189.1960  177.1550  143.1510 C   0  0  1  0  0  3  0  0  0  0  0  0
  190.2620  176.2110  142.6190 C   0  0  0  0  0  1  0  0  0  0  0  0
  189.6160  177.7280  144.4740 C   0  0  0  0  0  0  0  0  0  0  0  0
  190.2230  178.7870  144.5190 O   0  0  0  0  0  0  0  0  0  0  0  0
  189.2720  177.0270  145.7580 C   0  0  1  0  0  3  0  0  0  0  0  0
  190.4780  176.8810  146.6260 C   0  0  0  0  0  0  0  0  0  0  0  0
  191.5830  176.1600  146.1890 O   0  0  0  0  0  0  0  0  0  0  0  0
  190.4830  177.3900  147.7770 O   0  0  0  0  0  1  0  0  0  0  0  0
  188.1400  177.7200  146.5120 C   0  0  0  0  0  2  0  0  0  0  0  0
  186.8210  177.5190  145.7900 C   0  0  0  0  0  1  0  0  0  0  0  0
  2 18  1  1  0  0  0
  2  6  1  0  0  0  0
  3 17  1  0  0  0  0
  4  8  1  0  0  0  0
  5 11  1  1  0  0  0
  6  1  1  6  0  0  0
  6  5  1  0  0  0  0
  7  9  1  6  0  0  0
  7 14  1  0  0  0  0
 10  8  1  6  0  0  0
 10 15  1  0  0  0  0
 10  2  1  0  0  0  0
 13  4  1  0  0  0  0
 13  7  1  0  0  0  0
 15 14  1  6  0  0  0
 15  3  1  0  0  0  0
 16 14  2  0  0  0  0
 17  5  1  0  0  0  0
 17 12  1  1  0  0  0
 19  1  1  0  0  0  0
 20 21  1  0  0  0  0
 20 19  1  0  0  0  0
 21 22  1  0  0  0  0
 22 23  1  0  0  0  0
 23 24  1  0  0  0  0
 24 25  1  0  0  0  0
 25 26  1  6  0  0  0
 25 27  1  0  0  0  0
 27 28  2  0  0  0  0
 27 29  1  0  0  0  0
 29 33  1  1  0  0  0
 29 30  1  0  0  0  0
 30 32  1  0  0  0  0
 31 30  2  0  0  0  0
 34 33  1  0  0  0  0
M  END
>  <MODEL>
8

>  <REMARK>
 VINA RESULT:      -5.9      2.044      3.404
  Name = 
  12 active torsions:
  status: ('A' for Active; 'I' for Inactive)
    1  A    between atoms: C_1  and  C_9
    2  A    between atoms: C_1  and  C_20
    3  A    between atoms: C_2  and  C_25
    4  A    between atoms: C_2  and  C_32
    5  A    between atoms: C_3  and  C_25
    6  A    between atoms: C_5  and  C_19
    7  A    between atoms: C_5  and  C_32
    8  A    between atoms: C_10  and  C_12
    9  A    between atoms: C_10  and  C_20
   10  A    between atoms: C_12  and  C_22
   11  A    between atoms: C_19  and  C_22
   12  A    between atoms: C_25  and  C_27
                            x       y       z     vdW  Elec       q    Type
                         _______ _______ _______ _____ _____    ______ ____

>  <TORSDO>
F 12

$$$$
=
 OpenBabel10272415333D

 34 35  0  0  1  0  0  0  0  0999 V2000
  187.9240  177.3810  138.5180 C   0  0  0  0  0  2  0  0  0  0  0  0
  187.3790  175.1840  137.3250 C   0  0  1  0  0  3  0  0  0  0  0  0
  187.2360  178.1790  135.5170 S   0  0  0  0  0  0  0  0  0  0  0  0
  184.4920  174.2960  136.9330 C   0  0  0  0  0  2  0  0  0  0  0  0
  189.3830  176.6760  136.5020 C   0  0  2  0  0  3  0  0  0  0  0  0
  188.4520  176.2360  137.6530 C   0  0  1  0  0  3  0  0  0  0  0  0
  183.5280  176.5120  135.9960 C   0  0  2  0  0  3  0  0  0  0  0  0
  185.5180  174.2990  135.7990 C   0  0  0  0  0  2  0  0  0  0  0  0
  182.4350  177.3630  136.1670 O   0  0  0  0  0  1  0  0  0  0  0  0
  186.5970  175.3770  136.0050 C   0  0  1  0  0  3  0  0  0  0  0  0
  190.2770  177.6560  136.9430 O   0  0  0  0  0  1  0  0  0  0  0  0
  189.5730  177.7510  134.3460 O   0  0  0  0  0  1  0  0  0  0  0  0
  183.2500  175.1510  136.6430 C   0  0  0  0  0  2  0  0  0  0  0  0
  184.7960  177.1560  136.4760 C   0  0  0  0  0  0  0  0  0  0  0  0
  186.0430  176.7950  135.7230 C   0  0  1  0  0  3  0  0  0  0  0  0
  184.8610  177.7040  137.6920 C   0  0  0  0  0  2  0  0  0  0  0  0
  188.6790  177.1120  135.2080 C   0  0  2  0  0  3  0  0  0  0  0  0
  188.0290  173.8110  137.3640 C   0  0  0  0  0  1  0  0  0  0  0  0
  188.2560  177.1660  139.9910 C   0  0  0  0  0  2  0  0  0  0  0  0
  187.7370  178.3100  140.8560 C   0  0  0  0  0  2  0  0  0  0  0  0
  187.7750  177.9800  142.3430 C   0  0  0  0  0  2  0  0  0  0  0  0
  186.3840  178.0130  142.9520 C   0  0  0  0  0  2  0  0  0  0  0  0
  186.4550  177.7420  144.4440 C   0  0  0  0  0  2  0  0  0  0  0  0
  187.7000  176.9310  144.7790 C   0  0  0  0  0  2  0  0  0  0  0  0
  188.6150  177.7050  145.7200 C   0  0  1  0  0  3  0  0  0  0  0  0
  187.9770  177.8430  147.0930 C   0  0  0  0  0  1  0  0  0  0  0  0
  189.9540  177.0350  145.8300 C   0  0  0  0  0  0  0  0  0  0  0  0
  190.2200  176.3500  146.8060 O   0  0  0  0  0  0  0  0  0  0  0  0
  190.9720  177.1700  144.7320 C   0  0  1  0  0  3  0  0  0  0  0  0
  191.1110  175.8900  143.9740 C   0  0  0  0  0  0  0  0  0  0  0  0
  192.1570  175.0160  144.2460 O   0  0  0  0  0  1  0  0  0  0  0  0
  190.2920  175.6160  143.0590 O   0  0  0  0  0  0  0  0  0  0  0  0
  190.6600  178.3280  143.7900 C   0  0  0  0  0  2  0  0  0  0  0  0
  191.5540  179.5150  144.0940 C   0  0  0  0  0  1  0  0  0  0  0  0
  1 19  1  0  0  0  0
  2 18  1  6  0  0  0
  2  6  1  0  0  0  0
  5 11  1  1  0  0  0
  5  6  1  0  0  0  0
  6  1  1  6  0  0  0
  7  9  1  1  0  0  0
  7 14  1  0  0  0  0
  7 13  1  0  0  0  0
  8  4  1  0  0  0  0
 10  8  1  1  0  0  0
 10  2  1  0  0  0  0
 13  4  1  0  0  0  0
 14 16  2  0  0  0  0
 15  3  1  1  0  0  0
 15 10  1  0  0  0  0
 15 14  1  0  0  0  0
 17 12  1  6  0  0  0
 17  3  1  0  0  0  0
 17  5  1  0  0  0  0
 19 20  1  0  0  0  0
 20 21  1  0  0  0  0
 21 22  1  0  0  0  0
 22 23  1  0  0  0  0
 23 24  1  0  0  0  0
 24 25  1  0  0  0  0
 25 27  1  0  0  0  0
 25 26  1  1  0  0  0
 27 28  2  0  0  0  0
 29 33  1  6  0  0  0
 29 27  1  0  0  0  0
 30 31  1  0  0  0  0
 30 29  1  0  0  0  0
 32 30  2  0  0  0  0
 33 34  1  0  0  0  0
M  END
>  <MODEL>
9

>  <REMARK>
 VINA RESULT:      -5.9      3.490      4.827
  Name = 
  12 active torsions:
  status: ('A' for Active; 'I' for Inactive)
    1  A    between atoms: C_1  and  C_9
    2  A    between atoms: C_1  and  C_20
    3  A    between atoms: C_2  and  C_25
    4  A    between atoms: C_2  and  C_32
    5  A    between atoms: C_3  and  C_25
    6  A    between atoms: C_5  and  C_19
    7  A    between atoms: C_5  and  C_32
    8  A    between atoms: C_10  and  C_12
    9  A    between atoms: C_10  and  C_20
   10  A    between atoms: C_12  and  C_22
   11  A    between atoms: C_19  and  C_22
   12  A    between atoms: C_25  and  C_27
                            x       y       z     vdW  Elec       q    Type
                         _______ _______ _______ _____ _____    ______ ____

>  <TORSDO>
F 12

$$$$
