=
 OpenBabel10272413343D

 32 35  0  0  1  0  0  0  0  0999 V2000
  188.8130  177.8320  144.6070 C   0  0  0  0  0  0  0  0  0  0  0  0
  191.6380  177.0050  140.5350 C   0  0  0  0  0  0  0  0  0  0  0  0
  190.9150  177.4660  142.7870 C   0  0  0  0  0  0  0  0  0  0  0  0
  189.3030  177.1170  141.0430 N   0  0  0  0  0  0  0  0  0  0  0  0
  188.5330  177.5590  143.2620 C   0  0  0  0  0  3  0  0  0  0  0  0
  190.2990  176.9310  140.1310 C   0  0  0  0  0  0  0  0  0  0  0  0
  189.9920  176.7050  138.7050 C   0  0  0  0  0  0  0  0  0  0  0  0
  192.4100  176.2560  138.3070 C   0  0  2  0  0  3  0  0  0  0  0  0
  190.1490  177.9230  145.0340 C   0  0  0  0  0  3  0  0  0  0  0  0
  189.5760  177.3750  142.3500 C   0  0  0  0  0  0  0  0  0  0  0  0
  191.1960  177.7400  144.1270 C   0  0  0  0  0  3  0  0  0  0  0  0
  190.6830  176.2150  136.4540 N   0  0  0  0  0  1  0  0  0  0  0  0
  190.9860  176.4570  137.8290 C   0  0  0  0  0  0  0  0  0  0  0  0
  191.9460  177.2810  141.8670 C   0  0  0  0  0  3  0  0  0  0  0  0
  192.6540  176.8260  139.5970 O   0  0  0  0  0  0  0  0  0  0  0  0
  186.4200  177.9730  145.1500 C   0  0  0  0  0  3  0  0  0  0  0  0
  187.6910  178.0170  145.5380 C   0  0  0  0  0  3  0  0  0  0  0  0
  183.8260  179.0200  145.1910 C   0  0  0  0  0  1  0  0  0  0  0  0
  185.0420  178.2070  146.3450 P   0  0  2  0  0  0  0  0  0  0  0  0
  185.6400  179.6750  147.0510 O   0  0  0  0  0  1  0  0  0  0  0  0
  188.5660  176.7690  138.2400 C   0  0  0  0  0  2  0  0  0  0  0  0
  188.1590  178.2020  137.9290 C   0  0  0  0  0  2  0  0  0  0  0  0
  186.9330  178.4940  138.5270 O   0  0  0  0  0  1  0  0  0  0  0  0
  193.4130  176.8170  137.3090 C   0  0  0  0  0  2  0  0  0  0  0  0
  194.3700  175.7830  136.9290 N   0  0  0  0  0  0  0  0  0  0  0  0
  195.9550  175.8060  135.0290 C   0  0  1  0  0  3  0  0  0  0  0  0
  196.8250  175.8780  136.1060 F   0  0  0  0  0  0  0  0  0  0  0  0
  194.4930  175.7670  135.4710 C   0  0  2  0  0  3  0  0  0  0  0  0
  195.1150  177.0630  134.9830 C   0  0  0  0  0  2  0  0  0  0  0  0
  193.8910  174.4780  137.4020 C   0  0  0  0  0  2  0  0  0  0  0  0
  195.2400  173.3240  137.8550 S   0  0  0  0  0  0  0  0  0  0  0  0
  195.7920  174.3980  139.2090 C   0  0  0  0  0  1  0  0  0  0  0  0
  1  9  1  0  0  0  0
  1 17  1  0  0  0  0
  2 14  1  0  0  0  0
  3 11  1  0  0  0  0
  4 10  2  0  0  0  0
  5  1  2  0  0  0  0
  6  2  2  0  0  0  0
  6  4  1  0  0  0  0
  7  6  1  0  0  0  0
  8 24  1  6  0  0  0
  8 15  1  0  0  0  0
 10  3  1  0  0  0  0
 10  5  1  0  0  0  0
 11  9  2  0  0  0  0
 12 13  1  0  0  0  0
 13  8  1  0  0  0  0
 13  7  2  0  0  0  0
 14  3  2  0  0  0  0
 15  2  1  0  0  0  0
 16 17  2  0  0  0  0
 16 19  1  0  0  0  0
 19 18  1  6  0  0  0
 19 20  1  0  0  0  0
 21  7  1  0  0  0  0
 22 21  1  0  0  0  0
 22 23  1  0  0  0  0
 25 24  1  0  0  0  0
 25 30  1  0  0  0  0
 26 28  1  0  0  0  0
 26 27  1  1  0  0  0
 28 25  1  1  0  0  0
 29 26  1  0  0  0  0
 29 28  1  0  0  0  0
 30 31  1  0  0  0  0
 31 32  1  0  0  0  0
M  END
>  <MODEL>
1

>  <REMARK>
 VINA RESULT:      -7.3      0.000      0.000
  Name = 
  9 active torsions:
  status: ('A' for Active; 'I' for Inactive)
    1  A    between atoms: C_2  and  C_24
    2  A    between atoms: C_4  and  C_13
    3  A    between atoms: S_6  and  C_7
    4  A    between atoms: C_7  and  N_32
    5  A    between atoms: C_10  and  P_17
    6  A    between atoms: C_13  and  C_15
    7  A    between atoms: C_16  and  C_27
    8  A    between atoms: C_22  and  N_32
    9  A    between atoms: C_27  and  N_32
                            x       y       z     vdW  Elec       q    Type
                         _______ _______ _______ _____ _____    ______ ____

>  <TORSDO>
F 9

$$$$
=
 OpenBabel10272413343D

 32 35  0  0  1  0  0  0  0  0999 V2000
  182.1070  178.7720  141.7600 C   0  0  0  0  0  0  0  0  0  0  0  0
  186.4090  178.0860  144.2640 C   0  0  0  0  0  0  0  0  0  0  0  0
  184.1170  178.5790  143.7070 C   0  0  0  0  0  0  0  0  0  0  0  0
  185.6670  177.9200  141.9960 N   0  0  0  0  0  0  0  0  0  0  0  0
  183.4020  178.3860  141.3920 C   0  0  0  0  0  3  0  0  0  0  0  0
  186.6680  177.8130  142.9160 C   0  0  0  0  0  0  0  0  0  0  0  0
  188.0430  177.4670  142.5060 C   0  0  0  0  0  0  0  0  0  0  0  0
  188.6690  177.3160  144.9120 C   0  0  2  0  0  3  0  0  0  0  0  0
  181.8250  179.0630  143.1060 C   0  0  0  0  0  3  0  0  0  0  0  0
  184.4080  178.2880  142.3560 C   0  0  0  0  0  0  0  0  0  0  0  0
  182.8270  178.9660  144.0760 C   0  0  0  0  0  3  0  0  0  0  0  0
  190.3290  176.9400  143.0360 N   0  0  0  0  0  1  0  0  0  0  0  0
  189.0050  177.2990  143.4350 C   0  0  0  0  0  0  0  0  0  0  0  0
  185.1300  178.4780  144.6600 C   0  0  0  0  0  3  0  0  0  0  0  0
  187.4380  177.9870  145.2000 O   0  0  0  0  0  0  0  0  0  0  0  0
  181.3370  179.2570  139.4770 C   0  0  0  0  0  3  0  0  0  0  0  0
  181.0740  178.8620  140.7200 C   0  0  0  0  0  3  0  0  0  0  0  0
  180.5300  177.8870  137.1760 C   0  0  0  0  0  1  0  0  0  0  0  0
  180.0180  179.3560  138.2000 P   0  0  2  0  0  0  0  0  0  0  0  0
  180.7910  180.5530  137.2090 O   0  0  0  0  0  1  0  0  0  0  0  0
  188.3600  177.3150  141.0460 C   0  0  0  0  0  2  0  0  0  0  0  0
  188.5910  178.6720  140.3970 C   0  0  0  0  0  2  0  0  0  0  0  0
  188.1580  178.6510  139.0710 O   0  0  0  0  0  1  0  0  0  0  0  0
  189.7900  177.9450  145.7280 C   0  0  0  0  0  2  0  0  0  0  0  0
  189.9710  177.2090  146.9760 N   0  0  0  0  0  0  0  0  0  0  0  0
  191.9510  175.8230  147.5080 C   0  0  1  0  0  3  0  0  0  0  0  0
  192.1740  176.9300  148.3110 F   0  0  0  0  0  0  0  0  0  0  0  0
  190.6680  175.9560  146.6870 C   0  0  2  0  0  3  0  0  0  0  0  0
  192.0200  176.2410  146.0550 C   0  0  0  0  0  2  0  0  0  0  0  0
  188.6580  176.9220  147.5680 C   0  0  0  0  0  2  0  0  0  0  0  0
  188.1950  178.0790  148.9120 S   0  0  0  0  0  0  0  0  0  0  0  0
  186.7870  178.7190  147.9650 C   0  0  0  0  0  1  0  0  0  0  0  0
  1  9  1  0  0  0  0
  2 14  1  0  0  0  0
  2 15  1  0  0  0  0
  3 11  1  0  0  0  0
  3 14  2  0  0  0  0
  4 10  2  0  0  0  0
  4  6  1  0  0  0  0
  5  1  2  0  0  0  0
  5 10  1  0  0  0  0
  6  2  2  0  0  0  0
  7  6  1  0  0  0  0
  7 13  2  0  0  0  0
  8 15  1  0  0  0  0
  8 24  1  1  0  0  0
  9 11  2  0  0  0  0
 10  3  1  0  0  0  0
 12 13  1  0  0  0  0
 13  8  1  0  0  0  0
 16 17  2  0  0  0  0
 17  1  1  0  0  0  0
 19 18  1  6  0  0  0
 19 16  1  0  0  0  0
 20 19  1  0  0  0  0
 21  7  1  0  0  0  0
 22 21  1  0  0  0  0
 23 22  1  0  0  0  0
 24 25  1  0  0  0  0
 25 30  1  0  0  0  0
 26 27  1  1  0  0  0
 28 25  1  1  0  0  0
 28 26  1  0  0  0  0
 29 28  1  0  0  0  0
 29 26  1  0  0  0  0
 30 31  1  0  0  0  0
 32 31  1  0  0  0  0
M  END
>  <MODEL>
2

>  <REMARK>
 VINA RESULT:      -6.9      5.844      8.705
  Name = 
  9 active torsions:
  status: ('A' for Active; 'I' for Inactive)
    1  A    between atoms: C_2  and  C_24
    2  A    between atoms: C_4  and  C_13
    3  A    between atoms: S_6  and  C_7
    4  A    between atoms: C_7  and  N_32
    5  A    between atoms: C_10  and  P_17
    6  A    between atoms: C_13  and  C_15
    7  A    between atoms: C_16  and  C_27
    8  A    between atoms: C_22  and  N_32
    9  A    between atoms: C_27  and  N_32
                            x       y       z     vdW  Elec       q    Type
                         _______ _______ _______ _____ _____    ______ ____

>  <TORSDO>
F 9

$$$$
=
 OpenBabel10272413343D

 32 35  0  0  1  0  0  0  0  0999 V2000
  182.2060  179.0830  141.3640 C   0  0  0  0  0  0  0  0  0  0  0  0
  186.3820  177.9960  143.9370 C   0  0  0  0  0  0  0  0  0  0  0  0
  184.0910  178.4480  143.3400 C   0  0  0  0  0  0  0  0  0  0  0  0
  185.8140  178.4990  141.6690 N   0  0  0  0  0  0  0  0  0  0  0  0
  183.5560  178.9430  141.0210 C   0  0  0  0  0  3  0  0  0  0  0  0
  186.7570  178.1890  142.6020 C   0  0  0  0  0  0  0  0  0  0  0  0
  188.1870  178.1060  142.2410 C   0  0  0  0  0  0  0  0  0  0  0  0
  188.6650  177.2500  144.5310 C   0  0  2  0  0  3  0  0  0  0  0  0
  181.8050  178.9050  142.6990 C   0  0  0  0  0  3  0  0  0  0  0  0
  184.5010  178.6270  142.0010 C   0  0  0  0  0  0  0  0  0  0  0  0
  182.7450  178.5890  143.6840 C   0  0  0  0  0  3  0  0  0  0  0  0
  190.4770  177.6310  142.8020 N   0  0  0  0  0  1  0  0  0  0  0  0
  189.0980  177.7330  143.1620 C   0  0  0  0  0  0  0  0  0  0  0  0
  185.0440  178.1340  144.3080 C   0  0  0  0  0  3  0  0  0  0  0  0
  187.3510  177.6910  144.8910 O   0  0  0  0  0  0  0  0  0  0  0  0
  181.6050  179.6740  139.0550 C   0  0  0  0  0  3  0  0  0  0  0  0
  181.2400  179.4130  140.3070 C   0  0  0  0  0  3  0  0  0  0  0  0
  181.1150  179.1040  136.3600 C   0  0  0  0  0  1  0  0  0  0  0  0
  180.3670  180.0820  137.7580 P   0  0  2  0  0  0  0  0  0  0  0  0
  181.0520  181.6100  137.3040 O   0  0  0  0  0  1  0  0  0  0  0  0
  188.6130  178.4540  140.8440 C   0  0  0  0  0  2  0  0  0  0  0  0
  188.6320  177.2170  139.9580 C   0  0  0  0  0  2  0  0  0  0  0  0
  189.9250  176.9790  139.4910 O   0  0  0  0  0  1  0  0  0  0  0  0
  189.6530  177.6780  145.6060 C   0  0  0  0  0  2  0  0  0  0  0  0
  189.2730  177.0980  146.8910 N   0  0  0  0  0  0  0  0  0  0  0  0
  188.2890  177.9120  149.0100 C   0  0  1  0  0  3  0  0  0  0  0  0
  187.5120  176.7910  148.7660 F   0  0  0  0  0  0  0  0  0  0  0  0
  189.3310  178.1410  147.9150 C   0  0  2  0  0  3  0  0  0  0  0  0
  188.0380  178.9370  147.9250 C   0  0  0  0  0  2  0  0  0  0  0  0
  190.2050  176.0150  147.2310 C   0  0  0  0  0  2  0  0  0  0  0  0
  191.8770  176.2370  146.5160 S   0  0  0  0  0  0  0  0  0  0  0  0
  192.6780  175.7600  148.0720 C   0  0  0  0  0  1  0  0  0  0  0  0
  1  9  1  0  0  0  0
  2 14  1  0  0  0  0
  2 15  1  0  0  0  0
  3 11  1  0  0  0  0
  3 14  2  0  0  0  0
  4 10  2  0  0  0  0
  4  6  1  0  0  0  0
  5  1  2  0  0  0  0
  5 10  1  0  0  0  0
  6  2  2  0  0  0  0
  7  6  1  0  0  0  0
  7 13  2  0  0  0  0
  8 15  1  0  0  0  0
  8 24  1  1  0  0  0
  9 11  2  0  0  0  0
 10  3  1  0  0  0  0
 12 13  1  0  0  0  0
 13  8  1  0  0  0  0
 16 17  2  0  0  0  0
 17  1  1  0  0  0  0
 19 18  1  6  0  0  0
 19 16  1  0  0  0  0
 20 19  1  0  0  0  0
 21  7  1  0  0  0  0
 22 21  1  0  0  0  0
 23 22  1  0  0  0  0
 24 25  1  0  0  0  0
 25 30  1  0  0  0  0
 26 27  1  6  0  0  0
 28 25  1  6  0  0  0
 28 29  1  0  0  0  0
 28 26  1  0  0  0  0
 29 26  1  0  0  0  0
 31 30  1  0  0  0  0
 31 32  1  0  0  0  0
M  END
>  <MODEL>
3

>  <REMARK>
 VINA RESULT:      -6.6      5.558      8.897
  Name = 
  9 active torsions:
  status: ('A' for Active; 'I' for Inactive)
    1  A    between atoms: C_2  and  C_24
    2  A    between atoms: C_4  and  C_13
    3  A    between atoms: S_6  and  C_7
    4  A    between atoms: C_7  and  N_32
    5  A    between atoms: C_10  and  P_17
    6  A    between atoms: C_13  and  C_15
    7  A    between atoms: C_16  and  C_27
    8  A    between atoms: C_22  and  N_32
    9  A    between atoms: C_27  and  N_32
                            x       y       z     vdW  Elec       q    Type
                         _______ _______ _______ _____ _____    ______ ____

>  <TORSDO>
F 9

$$$$
=
 OpenBabel10272413343D

 32 35  0  0  1  0  0  0  0  0999 V2000
  192.0810  176.1140  137.3130 C   0  0  0  0  0  0  0  0  0  0  0  0
  188.2130  177.8330  140.0190 C   0  0  0  0  0  0  0  0  0  0  0  0
  189.6750  177.2530  138.1930 C   0  0  0  0  0  0  0  0  0  0  0  0
  190.3040  176.7570  140.4560 N   0  0  0  0  0  0  0  0  0  0  0  0
  191.7850  176.1490  138.6810 C   0  0  0  0  0  3  0  0  0  0  0  0
  189.1430  177.3000  140.9200 C   0  0  0  0  0  0  0  0  0  0  0  0
  188.8690  177.3890  142.3680 C   0  0  0  0  0  0  0  0  0  0  0  0
  186.5690  178.1820  141.8350 C   0  0  2  0  0  3  0  0  0  0  0  0
  191.1690  176.6530  136.3900 C   0  0  0  0  0  3  0  0  0  0  0  0
  190.5880  176.7150  139.1260 C   0  0  0  0  0  0  0  0  0  0  0  0
  189.9690  177.2210  136.8290 C   0  0  0  0  0  3  0  0  0  0  0  0
  187.4180  177.9290  144.2080 N   0  0  0  0  0  1  0  0  0  0  0  0
  187.6880  177.8670  142.8070 C   0  0  0  0  0  0  0  0  0  0  0  0
  188.4840  177.8160  138.6510 C   0  0  0  0  0  3  0  0  0  0  0  0
  187.0320  178.3990  140.4980 O   0  0  0  0  0  0  0  0  0  0  0  0
  194.2110  174.9590  137.7320 C   0  0  0  0  0  3  0  0  0  0  0  0
  193.3480  175.5080  136.8810 C   0  0  0  0  0  3  0  0  0  0  0  0
  195.6580  172.5890  138.0630 C   0  0  0  0  0  1  0  0  0  0  0  0
  195.7860  174.2090  137.1540 P   0  0  2  0  0  0  0  0  0  0  0  0
  196.8150  174.9920  138.3120 O   0  0  0  0  0  1  0  0  0  0  0  0
  189.9240  176.9520  143.3430 C   0  0  0  0  0  2  0  0  0  0  0  0
  190.8610  178.1030  143.6810 C   0  0  0  0  0  2  0  0  0  0  0  0
  191.5660  177.8210  144.8520 O   0  0  0  0  0  1  0  0  0  0  0  0
  185.7630  179.3900  142.2920 C   0  0  0  0  0  2  0  0  0  0  0  0
  184.3510  179.0350  142.3970 N   0  0  0  0  0  0  0  0  0  0  0  0
  182.8110  178.8040  144.3200 C   0  0  1  0  0  3  0  0  0  0  0  0
  182.1510  179.7550  143.5600 F   0  0  0  0  0  0  0  0  0  0  0  0
  184.1260  178.3640  143.6770 C   0  0  2  0  0  3  0  0  0  0  0  0
  184.1240  179.3780  144.8070 C   0  0  0  0  0  2  0  0  0  0  0  0
  183.9910  178.1350  141.2940 C   0  0  0  0  0  2  0  0  0  0  0  0
  182.6330  178.7740  140.2420 S   0  0  0  0  0  0  0  0  0  0  0  0
  183.7980  179.6070  139.1300 C   0  0  0  0  0  1  0  0  0  0  0  0
  1  5  1  0  0  0  0
  2 15  1  0  0  0  0
  2  6  1  0  0  0  0
  3 14  1  0  0  0  0
  3 10  1  0  0  0  0
  4  6  2  0  0  0  0
  5 10  2  0  0  0  0
  6  7  1  0  0  0  0
  7 13  2  0  0  0  0
  7 21  1  0  0  0  0
  8 24  1  1  0  0  0
  8 13  1  0  0  0  0
  9 11  1  0  0  0  0
  9  1  2  0  0  0  0
 10  4  1  0  0  0  0
 11  3  2  0  0  0  0
 13 12  1  0  0  0  0
 14  2  2  0  0  0  0
 15  8  1  0  0  0  0
 17  1  1  0  0  0  0
 17 16  2  0  0  0  0
 19 16  1  0  0  0  0
 19 18  1  1  0  0  0
 19 20  1  0  0  0  0
 21 22  1  0  0  0  0
 22 23  1  0  0  0  0
 24 25  1  0  0  0  0
 26 27  1  6  0  0  0
 26 29  1  0  0  0  0
 28 25  1  6  0  0  0
 28 26  1  0  0  0  0
 28 29  1  0  0  0  0
 30 25  1  0  0  0  0
 31 30  1  0  0  0  0
 32 31  1  0  0  0  0
M  END
>  <MODEL>
4

>  <REMARK>
 VINA RESULT:      -6.5      5.253     10.060
  Name = 
  9 active torsions:
  status: ('A' for Active; 'I' for Inactive)
    1  A    between atoms: C_2  and  C_24
    2  A    between atoms: C_4  and  C_13
    3  A    between atoms: S_6  and  C_7
    4  A    between atoms: C_7  and  N_32
    5  A    between atoms: C_10  and  P_17
    6  A    between atoms: C_13  and  C_15
    7  A    between atoms: C_16  and  C_27
    8  A    between atoms: C_22  and  N_32
    9  A    between atoms: C_27  and  N_32
                            x       y       z     vdW  Elec       q    Type
                         _______ _______ _______ _____ _____    ______ ____

>  <TORSDO>
F 9

$$$$
=
 OpenBabel10272413343D

 32 35  0  0  1  0  0  0  0  0999 V2000
  192.9390  175.8630  136.6520 C   0  0  0  0  0  0  0  0  0  0  0  0
  189.1430  177.3260  139.6000 C   0  0  0  0  0  0  0  0  0  0  0  0
  190.4620  176.6610  137.6960 C   0  0  0  0  0  0  0  0  0  0  0  0
  191.4650  176.8210  139.8710 N   0  0  0  0  0  0  0  0  0  0  0  0
  192.8150  176.1440  138.0180 C   0  0  0  0  0  3  0  0  0  0  0  0
  190.2760  177.2080  140.4140 C   0  0  0  0  0  0  0  0  0  0  0  0
  190.1720  177.5620  141.8440 C   0  0  0  0  0  0  0  0  0  0  0  0
  187.7020  177.7340  141.5700 C   0  0  2  0  0  3  0  0  0  0  0  0
  191.8190  175.9860  135.8120 C   0  0  0  0  0  3  0  0  0  0  0  0
  191.5830  176.5410  138.5450 C   0  0  0  0  0  0  0  0  0  0  0  0
  190.5840  176.3840  136.3330 C   0  0  0  0  0  3  0  0  0  0  0  0
  188.8740  178.1950  143.7670 N   0  0  0  0  0  1  0  0  0  0  0  0
  188.9750  177.8770  142.3780 C   0  0  0  0  0  0  0  0  0  0  0  0
  189.2390  177.0590  138.2340 C   0  0  0  0  0  3  0  0  0  0  0  0
  187.9320  177.7350  140.1570 O   0  0  0  0  0  0  0  0  0  0  0  0
  195.1550  174.8230  136.8830 C   0  0  0  0  0  3  0  0  0  0  0  0
  194.2490  175.4460  136.1340 C   0  0  0  0  0  3  0  0  0  0  0  0
  197.3880  173.3290  137.6600 C   0  0  0  0  0  1  0  0  0  0  0  0
  196.7830  174.3140  136.1990 P   0  0  2  0  0  0  0  0  0  0  0  0
  197.6300  175.7750  136.5950 O   0  0  0  0  0  1  0  0  0  0  0  0
  191.4120  177.5770  142.6900 C   0  0  0  0  0  2  0  0  0  0  0  0
  191.6070  176.2400  143.3910 C   0  0  0  0  0  2  0  0  0  0  0  0
  191.5290  176.4070  144.7740 O   0  0  0  0  0  1  0  0  0  0  0  0
  186.6990  178.8240  141.9180 C   0  0  0  0  0  2  0  0  0  0  0  0
  185.3700  178.2440  142.0840 N   0  0  0  0  0  0  0  0  0  0  0  0
  183.3160  178.4180  140.7160 C   0  0  1  0  0  3  0  0  0  0  0  0
  183.5480  177.0530  140.6790 F   0  0  0  0  0  0  0  0  0  0  0  0
  184.3810  179.1630  141.5210 C   0  0  2  0  0  3  0  0  0  0  0  0
  184.4430  179.1340  140.0040 C   0  0  0  0  0  2  0  0  0  0  0  0
  185.1020  178.0400  143.5140 C   0  0  0  0  0  2  0  0  0  0  0  0
  184.5300  179.5540  144.3730 S   0  0  0  0  0  0  0  0  0  0  0  0
  182.9410  178.7910  144.7990 C   0  0  0  0  0  1  0  0  0  0  0  0
  1  5  1  0  0  0  0
  2 15  1  0  0  0  0
  2  6  1  0  0  0  0
  3 14  1  0  0  0  0
  3 10  1  0  0  0  0
  4  6  2  0  0  0  0
  5 10  2  0  0  0  0
  6  7  1  0  0  0  0
  7 13  2  0  0  0  0
  7 21  1  0  0  0  0
  8 24  1  6  0  0  0
  8 13  1  0  0  0  0
  9 11  1  0  0  0  0
  9  1  2  0  0  0  0
 10  4  1  0  0  0  0
 11  3  2  0  0  0  0
 13 12  1  0  0  0  0
 14  2  2  0  0  0  0
 15  8  1  0  0  0  0
 17  1  1  0  0  0  0
 17 16  2  0  0  0  0
 19 20  1  0  0  0  0
 19 16  1  0  0  0  0
 19 18  1  1  0  0  0
 21 22  1  0  0  0  0
 22 23  1  0  0  0  0
 24 25  1  0  0  0  0
 25 30  1  0  0  0  0
 26 27  1  1  0  0  0
 26 28  1  0  0  0  0
 28 25  1  1  0  0  0
 29 26  1  0  0  0  0
 29 28  1  0  0  0  0
 30 31  1  0  0  0  0
 31 32  1  0  0  0  0
M  END
>  <MODEL>
5

>  <REMARK>
 VINA RESULT:      -6.2      5.139      9.947
  Name = 
  9 active torsions:
  status: ('A' for Active; 'I' for Inactive)
    1  A    between atoms: C_2  and  C_24
    2  A    between atoms: C_4  and  C_13
    3  A    between atoms: S_6  and  C_7
    4  A    between atoms: C_7  and  N_32
    5  A    between atoms: C_10  and  P_17
    6  A    between atoms: C_13  and  C_15
    7  A    between atoms: C_16  and  C_27
    8  A    between atoms: C_22  and  N_32
    9  A    between atoms: C_27  and  N_32
                            x       y       z     vdW  Elec       q    Type
                         _______ _______ _______ _____ _____    ______ ____

>  <TORSDO>
F 9

$$$$
=
 OpenBabel10272413343D

 32 35  0  0  1  0  0  0  0  0999 V2000
  189.0460  177.6240  143.4440 C   0  0  0  0  0  0  0  0  0  0  0  0
  188.6640  177.5300  138.4350 C   0  0  0  0  0  0  0  0  0  0  0  0
  188.2160  177.8760  140.7780 C   0  0  0  0  0  0  0  0  0  0  0  0
  190.2600  176.8340  140.0750 N   0  0  0  0  0  0  0  0  0  0  0  0
  189.8700  177.1650  142.4100 C   0  0  0  0  0  3  0  0  0  0  0  0
  189.8900  176.9430  138.7670 C   0  0  0  0  0  0  0  0  0  0  0  0
  190.7390  176.3980  137.6890 C   0  0  0  0  0  0  0  0  0  0  0  0
  189.2140  177.4510  136.0240 C   0  0  2  0  0  3  0  0  0  0  0  0
  187.8050  178.2080  143.1370 C   0  0  0  0  0  3  0  0  0  0  0  0
  189.4630  177.2870  141.0790 C   0  0  0  0  0  0  0  0  0  0  0  0
  187.3910  178.3330  141.8080 C   0  0  0  0  0  3  0  0  0  0  0  0
  191.2270  176.0660  135.3570 N   0  0  0  0  0  1  0  0  0  0  0  0
  190.3910  176.5730  136.3980 C   0  0  0  0  0  0  0  0  0  0  0  0
  187.8200  177.9920  139.4460 C   0  0  0  0  0  3  0  0  0  0  0  0
  188.2830  177.6280  137.0980 O   0  0  0  0  0  0  0  0  0  0  0  0
  188.7920  177.8910  145.8740 C   0  0  0  0  0  3  0  0  0  0  0  0
  189.5090  177.4810  144.8310 C   0  0  0  0  0  3  0  0  0  0  0  0
  190.8130  176.5280  147.2470 C   0  0  0  0  0  1  0  0  0  0  0  0
  189.4030  177.6940  147.5970 P   0  0  2  0  0  0  0  0  0  0  0  0
  188.2650  176.4730  148.0720 O   0  0  0  0  0  1  0  0  0  0  0  0
  191.9840  175.6390  138.0450 C   0  0  0  0  0  2  0  0  0  0  0  0
  193.2090  176.5390  137.9740 C   0  0  0  0  0  2  0  0  0  0  0  0
  193.5870  176.9390  139.2560 O   0  0  0  0  0  1  0  0  0  0  0  0
  188.4820  176.9060  134.8070 C   0  0  0  0  0  2  0  0  0  0  0  0
  187.1460  176.4580  135.1880 N   0  0  0  0  0  0  0  0  0  0  0  0
  186.8250  174.0990  135.8650 C   0  0  1  0  0  3  0  0  0  0  0  0
  186.9530  174.7180  137.0980 F   0  0  0  0  0  0  0  0  0  0  0  0
  186.9520  175.0890  134.7080 C   0  0  2  0  0  3  0  0  0  0  0  0
  188.1310  174.2200  135.1100 C   0  0  0  0  0  2  0  0  0  0  0  0
  186.1430  177.3440  134.5830 C   0  0  0  0  0  2  0  0  0  0  0  0
  184.4240  176.9500  135.0800 S   0  0  0  0  0  0  0  0  0  0  0  0
  184.7830  177.2810  136.8270 C   0  0  0  0  0  1  0  0  0  0  0  0
  1 17  1  0  0  0  0
  2  6  2  0  0  0  0
  2 14  1  0  0  0  0
  3 10  1  0  0  0  0
  3 11  1  0  0  0  0
  4 10  2  0  0  0  0
  5  1  2  0  0  0  0
  6  4  1  0  0  0  0
  7 21  1  0  0  0  0
  7  6  1  0  0  0  0
  8 24  1  6  0  0  0
  8 13  1  0  0  0  0
  8 15  1  0  0  0  0
  9  1  1  0  0  0  0
 10  5  1  0  0  0  0
 11  9  2  0  0  0  0
 12 13  1  0  0  0  0
 13  7  2  0  0  0  0
 14  3  2  0  0  0  0
 15  2  1  0  0  0  0
 16 19  1  0  0  0  0
 17 16  2  0  0  0  0
 19 18  1  6  0  0  0
 19 20  1  0  0  0  0
 22 21  1  0  0  0  0
 22 23  1  0  0  0  0
 24 25  1  0  0  0  0
 26 27  1  1  0  0  0
 28 29  1  0  0  0  0
 28 25  1  1  0  0  0
 28 26  1  0  0  0  0
 29 26  1  0  0  0  0
 30 31  1  0  0  0  0
 30 25  1  0  0  0  0
 31 32  1  0  0  0  0
M  END
>  <MODEL>
6

>  <REMARK>
 VINA RESULT:      -6.2      3.641      5.783
  Name = 
  9 active torsions:
  status: ('A' for Active; 'I' for Inactive)
    1  A    between atoms: C_2  and  C_24
    2  A    between atoms: C_4  and  C_13
    3  A    between atoms: S_6  and  C_7
    4  A    between atoms: C_7  and  N_32
    5  A    between atoms: C_10  and  P_17
    6  A    between atoms: C_13  and  C_15
    7  A    between atoms: C_16  and  C_27
    8  A    between atoms: C_22  and  N_32
    9  A    between atoms: C_27  and  N_32
                            x       y       z     vdW  Elec       q    Type
                         _______ _______ _______ _____ _____    ______ ____

>  <TORSDO>
F 9

$$$$
=
 OpenBabel10272413343D

 32 35  0  0  1  0  0  0  0  0999 V2000
  187.8220  177.6310  145.6040 C   0  0  0  0  0  0  0  0  0  0  0  0
  184.9910  178.8400  141.6330 C   0  0  0  0  0  0  0  0  0  0  0  0
  185.7640  178.4430  143.8810 C   0  0  0  0  0  0  0  0  0  0  0  0
  187.2110  178.0320  142.0100 N   0  0  0  0  0  0  0  0  0  0  0  0
  188.0310  177.6340  144.2200 C   0  0  0  0  0  3  0  0  0  0  0  0
  186.2350  178.4230  141.1430 C   0  0  0  0  0  0  0  0  0  0  0  0
  186.4450  178.3620  139.6820 C   0  0  0  0  0  0  0  0  0  0  0  0
  184.2660  179.5260  139.3690 C   0  0  2  0  0  3  0  0  0  0  0  0
  186.5780  178.0340  146.1210 C   0  0  0  0  0  3  0  0  0  0  0  0
  187.0100  178.0370  143.3550 C   0  0  0  0  0  0  0  0  0  0  0  0
  185.5530  178.4390  145.2610 C   0  0  0  0  0  3  0  0  0  0  0  0
  185.7120  178.7760  137.4300 N   0  0  0  0  0  1  0  0  0  0  0  0
  185.4950  178.8150  138.8410 C   0  0  0  0  0  0  0  0  0  0  0  0
  184.7530  178.8420  143.0080 C   0  0  0  0  0  3  0  0  0  0  0  0
  183.9910  179.2270  140.7420 O   0  0  0  0  0  0  0  0  0  0  0  0
  190.1730  177.0750  146.0580 C   0  0  0  0  0  3  0  0  0  0  0  0
  188.9190  177.2030  146.4830 C   0  0  0  0  0  3  0  0  0  0  0  0
  192.3560  175.3260  146.0470 C   0  0  0  0  0  1  0  0  0  0  0  0
  191.5200  176.5380  147.1870 P   0  0  2  0  0  0  0  0  0  0  0  0
  190.5900  175.3620  148.0610 O   0  0  0  0  0  1  0  0  0  0  0  0
  187.7220  177.7800  139.1470 C   0  0  0  0  0  2  0  0  0  0  0  0
  188.8580  178.7880  139.2370 C   0  0  0  0  0  2  0  0  0  0  0  0
  188.9820  179.4810  138.0320 O   0  0  0  0  0  1  0  0  0  0  0  0
  183.0380  179.2080  138.5280 C   0  0  0  0  0  2  0  0  0  0  0  0
  181.8460  179.1930  139.3720 N   0  0  0  0  0  0  0  0  0  0  0  0
  180.6410  177.2620  140.3420 C   0  0  1  0  0  3  0  0  0  0  0  0
  181.1110  177.8870  141.4850 F   0  0  0  0  0  0  0  0  0  0  0  0
  181.0690  177.9910  139.0690 C   0  0  2  0  0  3  0  0  0  0  0  0
  181.8140  176.7530  139.5340 C   0  0  0  0  0  2  0  0  0  0  0  0
  181.0400  180.3890  139.0990 C   0  0  0  0  0  2  0  0  0  0  0  0
  180.9900  180.8470  137.3250 S   0  0  0  0  0  0  0  0  0  0  0  0
  181.0420  182.6180  137.7130 C   0  0  0  0  0  1  0  0  0  0  0  0
  1  9  1  0  0  0  0
  1 17  1  0  0  0  0
  2 14  1  0  0  0  0
  3 11  1  0  0  0  0
  4 10  2  0  0  0  0
  5  1  2  0  0  0  0
  6  2  2  0  0  0  0
  6  4  1  0  0  0  0
  7  6  1  0  0  0  0
  8 24  1  6  0  0  0
  8 15  1  0  0  0  0
 10  3  1  0  0  0  0
 10  5  1  0  0  0  0
 11  9  2  0  0  0  0
 12 13  1  0  0  0  0
 13  8  1  0  0  0  0
 13  7  2  0  0  0  0
 14  3  2  0  0  0  0
 15  2  1  0  0  0  0
 16 17  2  0  0  0  0
 16 19  1  0  0  0  0
 19 18  1  6  0  0  0
 19 20  1  0  0  0  0
 21 22  1  0  0  0  0
 21  7  1  0  0  0  0
 23 22  1  0  0  0  0
 24 25  1  0  0  0  0
 26 27  1  1  0  0  0
 28 25  1  1  0  0  0
 28 29  1  0  0  0  0
 28 26  1  0  0  0  0
 29 26  1  0  0  0  0
 30 25  1  0  0  0  0
 31 32  1  0  0  0  0
 31 30  1  0  0  0  0
M  END
>  <MODEL>
7

>  <REMARK>
 VINA RESULT:      -6.2      6.159      9.099
  Name = 
  9 active torsions:
  status: ('A' for Active; 'I' for Inactive)
    1  A    between atoms: C_2  and  C_24
    2  A    between atoms: C_4  and  C_13
    3  A    between atoms: S_6  and  C_7
    4  A    between atoms: C_7  and  N_32
    5  A    between atoms: C_10  and  P_17
    6  A    between atoms: C_13  and  C_15
    7  A    between atoms: C_16  and  C_27
    8  A    between atoms: C_22  and  N_32
    9  A    between atoms: C_27  and  N_32
                            x       y       z     vdW  Elec       q    Type
                         _______ _______ _______ _____ _____    ______ ____

>  <TORSDO>
F 9

$$$$
=
 OpenBabel10272413343D

 32 35  0  0  1  0  0  0  0  0999 V2000
  186.9420  178.1080  144.3330 C   0  0  0  0  0  0  0  0  0  0  0  0
  186.6390  178.3700  139.3250 C   0  0  0  0  0  0  0  0  0  0  0  0
  186.0910  178.3410  141.6710 C   0  0  0  0  0  0  0  0  0  0  0  0
  188.3620  178.0470  140.9520 N   0  0  0  0  0  0  0  0  0  0  0  0
  187.8740  178.0230  143.2920 C   0  0  0  0  0  3  0  0  0  0  0  0
  187.9850  178.1590  139.6470 C   0  0  0  0  0  0  0  0  0  0  0  0
  188.9670  178.0040  138.5550 C   0  0  0  0  0  0  0  0  0  0  0  0
  187.2020  178.6890  136.9360 C   0  0  2  0  0  3  0  0  0  0  0  0
  185.5830  178.3080  144.0350 C   0  0  0  0  0  3  0  0  0  0  0  0
  187.4570  178.1380  141.9630 C   0  0  0  0  0  0  0  0  0  0  0  0
  185.1590  178.4240  142.7080 C   0  0  0  0  0  3  0  0  0  0  0  0
  189.5490  178.0580  136.2220 N   0  0  0  0  0  1  0  0  0  0  0  0
  188.5900  178.1840  137.2740 C   0  0  0  0  0  0  0  0  0  0  0  0
  185.6870  178.4540  140.3410 C   0  0  0  0  0  3  0  0  0  0  0  0
  186.2550  178.4710  137.9880 O   0  0  0  0  0  0  0  0  0  0  0  0
  188.7000  177.8170  146.0260 C   0  0  0  0  0  3  0  0  0  0  0  0
  187.4170  177.9850  145.7180 C   0  0  0  0  0  3  0  0  0  0  0  0
  190.7930  176.6560  147.4740 C   0  0  0  0  0  1  0  0  0  0  0  0
  189.2570  177.6680  147.7710 P   0  0  2  0  0  0  0  0  0  0  0  0
  188.2330  176.3330  148.1940 O   0  0  0  0  0  1  0  0  0  0  0  0
  190.3840  177.6340  138.8880 C   0  0  0  0  0  2  0  0  0  0  0  0
  190.4850  176.1650  139.2710 C   0  0  0  0  0  2  0  0  0  0  0  0
  190.5220  175.3700  138.1250 O   0  0  0  0  0  1  0  0  0  0  0  0
  186.6820  178.0620  135.6510 C   0  0  0  0  0  2  0  0  0  0  0  0
  185.7950  176.9460  135.9650 N   0  0  0  0  0  0  0  0  0  0  0  0
  186.0380  174.5050  136.2880 C   0  0  1  0  0  3  0  0  0  0  0  0
  185.2970  174.8510  137.4060 F   0  0  0  0  0  0  0  0  0  0  0  0
  186.3700  175.7170  135.4180 C   0  0  2  0  0  3  0  0  0  0  0  0
  187.4040  175.1510  136.3750 C   0  0  0  0  0  2  0  0  0  0  0  0
  184.4760  177.1870  135.3650 C   0  0  0  0  0  2  0  0  0  0  0  0
  183.1210  177.2900  136.5950 S   0  0  0  0  0  0  0  0  0  0  0  0
  182.3090  175.8160  135.9190 C   0  0  0  0  0  1  0  0  0  0  0  0
  1 17  1  0  0  0  0
  2  6  2  0  0  0  0
  2 14  1  0  0  0  0
  3 10  1  0  0  0  0
  3 11  1  0  0  0  0
  4 10  2  0  0  0  0
  5  1  2  0  0  0  0
  6  4  1  0  0  0  0
  7 21  1  0  0  0  0
  7  6  1  0  0  0  0
  8 24  1  6  0  0  0
  8 13  1  0  0  0  0
  8 15  1  0  0  0  0
  9  1  1  0  0  0  0
 10  5  1  0  0  0  0
 11  9  2  0  0  0  0
 12 13  1  0  0  0  0
 13  7  2  0  0  0  0
 14  3  2  0  0  0  0
 15  2  1  0  0  0  0
 16 19  1  0  0  0  0
 17 16  2  0  0  0  0
 19 18  1  6  0  0  0
 19 20  1  0  0  0  0
 21 22  1  0  0  0  0
 23 22  1  0  0  0  0
 24 25  1  0  0  0  0
 26 29  1  0  0  0  0
 26 27  1  1  0  0  0
 28 25  1  1  0  0  0
 28 26  1  0  0  0  0
 28 29  1  0  0  0  0
 30 25  1  0  0  0  0
 30 31  1  0  0  0  0
 32 31  1  0  0  0  0
M  END
>  <MODEL>
8

>  <REMARK>
 VINA RESULT:      -6.0      4.414      6.542
  Name = 
  9 active torsions:
  status: ('A' for Active; 'I' for Inactive)
    1  A    between atoms: C_2  and  C_24
    2  A    between atoms: C_4  and  C_13
    3  A    between atoms: S_6  and  C_7
    4  A    between atoms: C_7  and  N_32
    5  A    between atoms: C_10  and  P_17
    6  A    between atoms: C_13  and  C_15
    7  A    between atoms: C_16  and  C_27
    8  A    between atoms: C_22  and  N_32
    9  A    between atoms: C_27  and  N_32
                            x       y       z     vdW  Elec       q    Type
                         _______ _______ _______ _____ _____    ______ ____

>  <TORSDO>
F 9

$$$$
=
 OpenBabel10272413343D

 32 35  0  0  1  0  0  0  0  0999 V2000
  189.1660  177.4410  143.5970 C   0  0  0  0  0  0  0  0  0  0  0  0
  185.3830  178.8740  140.6180 C   0  0  0  0  0  0  0  0  0  0  0  0
  187.5710  178.3330  141.4700 C   0  0  0  0  0  0  0  0  0  0  0  0
  185.6350  178.1180  142.8720 N   0  0  0  0  0  0  0  0  0  0  0  0
  187.7810  177.5560  143.7640 C   0  0  0  0  0  3  0  0  0  0  0  0
  184.8290  178.5450  141.8600 C   0  0  0  0  0  0  0  0  0  0  0  0
  183.3770  178.7220  142.0670 C   0  0  0  0  0  0  0  0  0  0  0  0
  183.1340  179.1640  139.6270 C   0  0  2  0  0  3  0  0  0  0  0  0
  189.7490  177.7770  142.3630 C   0  0  0  0  0  3  0  0  0  0  0  0
  186.9800  177.9990  142.7080 C   0  0  0  0  0  0  0  0  0  0  0  0
  188.9530  178.2220  141.3030 C   0  0  0  0  0  3  0  0  0  0  0  0
  181.1780  179.2270  141.2350 N   0  0  0  0  0  1  0  0  0  0  0  0
  182.5850  179.0800  141.0370 C   0  0  0  0  0  0  0  0  0  0  0  0
  186.7620  178.7750  140.4250 C   0  0  0  0  0  3  0  0  0  0  0  0
  184.5570  179.3230  139.5880 O   0  0  0  0  0  0  0  0  0  0  0  0
  189.9300  177.5330  145.9320 C   0  0  0  0  0  3  0  0  0  0  0  0
  189.9770  176.9690  144.7280 C   0  0  0  0  0  3  0  0  0  0  0  0
  192.0770  175.7890  146.3480 C   0  0  0  0  0  1  0  0  0  0  0  0
  190.9580  176.9140  147.3240 P   0  0  2  0  0  0  0  0  0  0  0  0
  189.8590  175.6760  147.8460 O   0  0  0  0  0  1  0  0  0  0  0  0
  182.7980  178.5100  143.4350 C   0  0  0  0  0  2  0  0  0  0  0  0
  183.3220  179.5510  144.4140 C   0  0  0  0  0  2  0  0  0  0  0  0
  183.7240  178.9370  145.6000 O   0  0  0  0  0  1  0  0  0  0  0  0
  182.4790  180.2930  138.8440 C   0  0  0  0  0  2  0  0  0  0  0  0
  181.7610  179.7500  137.6940 N   0  0  0  0  0  0  0  0  0  0  0  0
  180.0190  181.1300  136.6070 C   0  0  1  0  0  3  0  0  0  0  0  0
  181.1080  181.3770  135.7870 F   0  0  0  0  0  0  0  0  0  0  0  0
  180.3670  180.1880  137.7590 C   0  0  2  0  0  3  0  0  0  0  0  0
  180.2980  181.6880  137.9860 C   0  0  0  0  0  2  0  0  0  0  0  0
  181.8240  178.2830  137.7290 C   0  0  0  0  0  2  0  0  0  0  0  0
  180.1890  177.4860  137.9480 S   0  0  0  0  0  0  0  0  0  0  0  0
  180.7600  175.9500  137.1710 C   0  0  0  0  0  1  0  0  0  0  0  0
  1  5  1  0  0  0  0
  1 17  1  0  0  0  0
  2  6  1  0  0  0  0
  3 10  1  0  0  0  0
  6  7  1  0  0  0  0
  6  4  2  0  0  0  0
  7 21  1  0  0  0  0
  8 24  1  1  0  0  0
  8 13  1  0  0  0  0
  9  1  2  0  0  0  0
 10  4  1  0  0  0  0
 10  5  2  0  0  0  0
 11  3  2  0  0  0  0
 11  9  1  0  0  0  0
 13 12  1  0  0  0  0
 13  7  2  0  0  0  0
 14  2  2  0  0  0  0
 14  3  1  0  0  0  0
 15  8  1  0  0  0  0
 15  2  1  0  0  0  0
 16 19  1  0  0  0  0
 17 16  2  0  0  0  0
 19 18  1  6  0  0  0
 19 20  1  0  0  0  0
 21 22  1  0  0  0  0
 22 23  1  0  0  0  0
 25 30  1  0  0  0  0
 25 24  1  0  0  0  0
 26 27  1  6  0  0  0
 26 28  1  0  0  0  0
 26 29  1  0  0  0  0
 28 25  1  6  0  0  0
 28 29  1  0  0  0  0
 30 31  1  0  0  0  0
 32 31  1  0  0  0  0
M  END
>  <MODEL>
9

>  <REMARK>
 VINA RESULT:      -5.9      6.495      9.607
  Name = 
  9 active torsions:
  status: ('A' for Active; 'I' for Inactive)
    1  A    between atoms: C_2  and  C_24
    2  A    between atoms: C_4  and  C_13
    3  A    between atoms: S_6  and  C_7
    4  A    between atoms: C_7  and  N_32
    5  A    between atoms: C_10  and  P_17
    6  A    between atoms: C_13  and  C_15
    7  A    between atoms: C_16  and  C_27
    8  A    between atoms: C_22  and  N_32
    9  A    between atoms: C_27  and  N_32
                            x       y       z     vdW  Elec       q    Type
                         _______ _______ _______ _____ _____    ______ ____

>  <TORSDO>
F 9

$$$$
