=
 OpenBabel10272401403D

 55 59  0  0  1  0  0  0  0  0999 V2000
  187.1430  178.4220  135.4900 C   0  0  0  0  0  2  0  0  0  0  0  0
  188.0230  177.0230  137.8910 C   0  0  2  0  0  3  0  0  0  0  0  0
  187.4000  176.2330  136.7220 C   0  0  0  0  0  2  0  0  0  0  0  0
  188.1580  178.8860  136.5400 C   0  0  0  0  0  2  0  0  0  0  0  0
  186.4720  177.1010  135.8690 C   0  0  1  0  0  3  0  0  0  0  0  0
  187.8100  178.4200  137.8300 O   0  0  0  0  0  0  0  0  0  0  0  0
  189.4960  176.6970  138.0670 C   0  0  0  0  0  2  0  0  0  0  0  0
  190.0420  177.4740  139.2630 C   0  0  0  0  0  2  0  0  0  0  0  0
  190.2080  176.5490  140.4470 C   0  0  0  0  0  2  0  0  0  0  0  0
  191.3950  176.9610  141.3080 C   0  0  1  0  0  3  0  0  0  0  0  0
  192.5490  177.3710  140.4080 C   0  0  0  0  0  1  0  0  0  0  0  0
  191.0210  178.0500  142.1120 O   0  0  0  0  0  0  0  0  0  0  0  0
  191.3380  176.2770  143.7620 C   0  0  0  0  0  1  0  0  0  0  0  0
  191.1970  177.7770  143.4990 C   0  0  1  0  0  0  0  0  0  0  0  0
  192.4090  178.3580  143.8610 O   0  0  0  0  0  1  0  0  0  0  0  0
  187.7680  177.6470  143.6820 C   0  0  0  0  0  0  0  0  0  0  0  0
  187.5010  177.8590  146.2460 O   0  0  0  0  0  0  0  0  0  0  0  0
  190.0460  178.3770  144.3720 C   0  0  1  0  0  0  0  0  0  0  0  0
  189.7110  176.2660  145.5830 F   0  0  0  0  0  0  0  0  0  0  0  0
  189.8850  177.6310  145.7020 C   0  0  2  0  0  3  0  0  0  0  0  0
  188.1570  176.2110  143.3830 C   0  0  0  0  0  1  0  0  0  0  0  0
  186.9530  177.6990  144.9690 C   0  0  0  0  0  0  0  0  0  0  0  0
  186.8490  178.0450  142.5360 C   0  0  0  0  0  1  0  0  0  0  0  0
  188.8180  178.2940  146.5560 C   0  0  2  0  0  3  0  0  0  0  0  0
  190.4420  179.6540  144.7240 F   0  0  0  0  0  0  0  0  0  0  0  0
  185.7190  177.4300  144.9150 O   0  0  0  0  0  0  0  0  0  0  0  0
  188.8480  178.5760  143.6160 O   0  0  0  0  0  0  0  0  0  0  0  0
  189.0980  178.1350  148.0430 C   0  0  0  0  0  2  0  0  0  0  0  0
  187.9450  177.4910  148.7700 C   0  0  0  0  0  1  0  0  0  0  0  0
  185.1540  177.3790  136.5660 C   0  0  0  0  0  2  0  0  0  0  0  0
  184.9050  176.3670  137.6670 C   0  0  0  0  0  2  0  0  0  0  0  0
  183.4770  175.8140  137.5670 C   0  0  2  0  0  3  0  0  0  0  0  0
  181.6810  173.7170  137.0900 C   0  0  0  0  0  2  0  0  0  0  0  0
  180.4360  172.4650  135.1990 C   0  0  0  0  0  2  0  0  0  0  0  0
  181.1740  174.8150  134.7380 C   0  0  2  0  0  3  0  0  0  0  0  0
  179.9820  173.8650  134.8010 C   0  0  0  0  0  2  0  0  0  0  0  0
  180.9280  172.4430  136.6560 C   0  0  0  0  0  2  0  0  0  0  0  0
  182.1600  174.5670  135.8880 C   0  0  2  0  0  0  0  0  0  0  0  0
  180.6980  176.1320  134.7800 O   0  0  0  0  0  1  0  0  0  0  0  0
  183.5610  174.4780  135.4560 C   0  0  1  0  0  3  0  0  0  0  0  0
  183.0730  175.7130  136.1520 N   0  0  0  0  0  0  0  0  0  0  0  0
  184.4670  173.5680  136.3050 C   0  0  0  0  0  2  0  0  0  0  0  0
  184.0280  171.2440  136.1310 F   0  0  0  0  0  0  0  0  0  0  0  0
  184.7940  172.2590  135.5940 C   0  0  2  0  0  3  0  0  0  0  0  0
  186.2530  171.9130  135.7700 C   0  0  0  0  0  2  0  0  0  0  0  0
  187.0410  172.7570  134.9830 O   0  0  0  0  0  1  0  0  0  0  0  0
  182.0030  177.7520  137.5510 C   0  0  0  0  0  2  0  0  0  0  0  0
  183.1040  177.1730  139.4790 C   0  0  0  0  0  2  0  0  0  0  0  0
  182.5180  178.5480  139.6010 C   0  0  1  0  0  3  0  0  0  0  0  0
  182.0960  178.9290  138.3220 O   0  0  0  0  0  0  0  0  0  0  0  0
  182.4810  176.6050  138.3130 N   0  0  0  0  0  0  0  0  0  0  0  0
  181.3220  178.5420  140.5520 C   0  0  0  0  0  2  0  0  0  0  0  0
  181.7210  178.7860  141.9750 C   0  0  0  0  0  0  0  0  0  0  0  0
  183.0710  178.8000  142.3180 O   0  0  0  0  0  0  0  0  0  0  0  0
  180.8560  178.9740  142.8740 O   0  0  0  0  0  1  0  0  0  0  0  0
  1  5  1  0  0  0  0
  1  4  1  0  0  0  0
  2  7  1  6  0  0  0
  3  2  1  0  0  0  0
  4  6  1  0  0  0  0
  5 30  1  1  0  0  0
  5  3  1  0  0  0  0
  6  2  1  0  0  0  0
  7  8  1  0  0  0  0
  8  9  1  0  0  0  0
  9 10  1  0  0  0  0
 10 11  1  6  0  0  0
 10 12  1  0  0  0  0
 12 14  1  0  0  0  0
 14 13  1  1  0  0  0
 14 15  1  0  0  0  0
 14 18  1  0  0  0  0
 16 22  1  0  0  0  0
 17 24  1  0  0  0  0
 18 25  1  1  0  0  0
 18 20  1  0  0  0  0
 20 19  1  6  0  0  0
 20 24  1  0  0  0  0
 21 16  1  0  0  0  0
 22 17  1  0  0  0  0
 23 16  1  0  0  0  0
 24 28  1  1  0  0  0
 26 22  2  0  0  0  0
 27 16  1  0  0  0  0
 27 18  1  0  0  0  0
 28 29  1  0  0  0  0
 30 31  1  0  0  0  0
 32 31  1  6  0  0  0
 32 51  1  0  0  0  0
 34 37  1  0  0  0  0
 35 39  1  1  0  0  0
 35 36  1  0  0  0  0
 35 38  1  0  0  0  0
 36 34  1  0  0  0  0
 37 33  1  0  0  0  0
 38 41  1  0  0  0  0
 38 33  1  1  0  0  0
 40 38  1  0  0  0  0
 40 41  1  0  0  0  0
 40 42  1  1  0  0  0
 41 32  1  0  0  0  0
 44 45  1  0  0  0  0
 44 43  1  1  0  0  0
 44 42  1  0  0  0  0
 46 45  1  0  0  0  0
 47 51  1  0  0  0  0
 47 50  1  0  0  0  0
 48 49  1  0  0  0  0
 49 52  1  1  0  0  0
 50 49  1  0  0  0  0
 51 48  1  0  0  0  0
 52 53  1  0  0  0  0
 53 54  2  0  0  0  0
 53 55  1  0  0  0  0
M  END
>  <MODEL>
1

>  <REMARK>
 VINA RESULT:      -6.4      0.000      0.000
  Name = 
  18 active torsions:
  status: ('A' for Active; 'I' for Inactive)
    1  A    between atoms: C_2  and  C_28
    2  A    between atoms: C_2  and  C_44
    3  A    between atoms: C_4  and  C_40
    4  A    between atoms: C_6  and  C_20
    5  A    between atoms: C_8  and  O_22
    6  A    between atoms: C_8  and  C_35
    7  A    between atoms: C_10  and  C_32
    8  A    between atoms: C_11  and  C_38
    9  A    between atoms: C_19  and  C_40
   10  A    between atoms: C_19  and  C_45
   11  A    between atoms: C_20  and  O_22
   12  A    between atoms: C_27  and  C_54
   13  A    between atoms: C_28  and  C_33
   14  A    between atoms: C_32  and  C_39
   15  A    between atoms: C_33  and  N_49
   16  A    between atoms: C_33  and  N_52
   17  A    between atoms: C_35  and  C_51
   18  A    between atoms: C_51  and  C_54
                            x       y       z     vdW  Elec       q    Type
                         _______ _______ _______ _____ _____    ______ ____

>  <TORSDO>
F 18

$$$$
=
 OpenBabel10272401403D

 55 59  0  0  1  0  0  0  0  0999 V2000
  188.8960  173.3240  136.7550 C   0  0  0  0  0  2  0  0  0  0  0  0
  189.7990  176.0770  137.0740 C   0  0  2  0  0  3  0  0  0  0  0  0
  188.6800  175.5220  137.9780 C   0  0  0  0  0  2  0  0  0  0  0  0
  190.2310  173.9400  136.3230 C   0  0  0  0  0  2  0  0  0  0  0  0
  187.9270  174.3640  137.3190 C   0  0  1  0  0  3  0  0  0  0  0  0
  190.0680  175.2900  135.9300 O   0  0  0  0  0  0  0  0  0  0  0  0
  191.0680  176.3590  137.8600 C   0  0  0  0  0  2  0  0  0  0  0  0
  190.7840  176.1870  139.3500 C   0  0  0  0  0  2  0  0  0  0  0  0
  191.0380  177.4880  140.0780 C   0  0  0  0  0  2  0  0  0  0  0  0
  189.7470  178.0660  140.6430 C   0  0  1  0  0  3  0  0  0  0  0  0
  188.7970  178.3830  139.4990 C   0  0  0  0  0  1  0  0  0  0  0  0
  189.1540  177.1170  141.4920 O   0  0  0  0  0  0  0  0  0  0  0  0
  188.8790  179.1930  142.7500 C   0  0  0  0  0  1  0  0  0  0  0  0
  188.4720  177.7290  142.5830 C   0  0  1  0  0  0  0  0  0  0  0  0
  187.1210  177.7280  142.2490 O   0  0  0  0  0  1  0  0  0  0  0  0
  191.0620  176.4130  144.4200 C   0  0  0  0  0  0  0  0  0  0  0  0
  190.1030  176.8020  146.7900 O   0  0  0  0  0  0  0  0  0  0  0  0
  188.6820  176.9500  143.9230 C   0  0  1  0  0  0  0  0  0  0  0  0
  189.5070  178.9490  145.0880 F   0  0  0  0  0  0  0  0  0  0  0  0
  188.6350  177.8790  145.1420 C   0  0  2  0  0  3  0  0  0  0  0  0
  191.6170  177.7370  143.9310 C   0  0  0  0  0  1  0  0  0  0  0  0
  191.1230  176.3610  145.9420 C   0  0  0  0  0  0  0  0  0  0  0  0
  192.0280  175.3670  143.8830 C   0  0  0  0  0  1  0  0  0  0  0  0
  188.7570  177.0770  146.4260 C   0  0  2  0  0  3  0  0  0  0  0  0
  187.5900  176.1140  144.0700 F   0  0  0  0  0  0  0  0  0  0  0  0
  192.2170  176.0480  146.4920 O   0  0  0  0  0  0  0  0  0  0  0  0
  189.8000  176.0590  143.8570 O   0  0  0  0  0  0  0  0  0  0  0  0
  188.0140  177.7330  147.5800 C   0  0  0  0  0  2  0  0  0  0  0  0
  186.7560  178.4280  147.1220 C   0  0  0  0  0  1  0  0  0  0  0  0
  186.9950  174.8430  136.2230 C   0  0  0  0  0  2  0  0  0  0  0  0
  185.9700  175.8130  136.7760 C   0  0  0  0  0  2  0  0  0  0  0  0
  184.5510  175.3360  136.4370 C   0  0  2  0  0  3  0  0  0  0  0  0
  182.2220  176.8600  136.1110 C   0  0  0  0  0  2  0  0  0  0  0  0
  180.1640  177.7700  137.3880 C   0  0  0  0  0  2  0  0  0  0  0  0
  181.2940  175.7360  138.3180 C   0  0  2  0  0  3  0  0  0  0  0  0
  179.9820  176.3110  137.7940 C   0  0  0  0  0  2  0  0  0  0  0  0
  181.0690  177.8830  136.1500 C   0  0  0  0  0  2  0  0  0  0  0  0
  182.4950  176.2150  137.4910 C   0  0  2  0  0  0  0  0  0  0  0  0
  181.2110  174.3370  138.2910 O   0  0  0  0  0  1  0  0  0  0  0  0
  183.6150  176.7070  138.3060 C   0  0  1  0  0  3  0  0  0  0  0  0
  183.7070  175.3640  137.6460 N   0  0  0  0  0  0  0  0  0  0  0  0
  184.4780  177.8070  137.6630 C   0  0  0  0  0  2  0  0  0  0  0  0
  185.6810  178.4070  139.6170 F   0  0  0  0  0  0  0  0  0  0  0  0
  184.8300  178.9120  138.6550 C   0  0  2  0  0  3  0  0  0  0  0  0
  183.5850  179.4310  139.3320 C   0  0  0  0  0  2  0  0  0  0  0  0
  183.6370  179.1550  140.7010 O   0  0  0  0  0  1  0  0  0  0  0  0
  183.4130  173.8560  134.8740 C   0  0  0  0  0  2  0  0  0  0  0  0
  184.2250  173.0200  136.8500 C   0  0  0  0  0  2  0  0  0  0  0  0
  183.3010  172.0330  136.2010 C   0  0  1  0  0  3  0  0  0  0  0  0
  182.6550  172.7020  135.1550 O   0  0  0  0  0  0  0  0  0  0  0  0
  184.5050  173.9940  135.8290 N   0  0  0  0  0  0  0  0  0  0  0  0
  184.0860  170.8480  135.6400 C   0  0  0  0  0  2  0  0  0  0  0  0
  183.2980  169.5740  135.6710 C   0  0  0  0  0  0  0  0  0  0  0  0
  183.9270  168.3860  136.0340 O   0  0  0  0  0  1  0  0  0  0  0  0
  182.0740  169.5540  135.3670 O   0  0  0  0  0  0  0  0  0  0  0  0
  1  5  1  0  0  0  0
  2  7  1  1  0  0  0
  2  3  1  0  0  0  0
  4  1  1  0  0  0  0
  5 30  1  6  0  0  0
  5  3  1  0  0  0  0
  6  4  1  0  0  0  0
  6  2  1  0  0  0  0
  7  8  1  0  0  0  0
  8  9  1  0  0  0  0
  9 10  1  0  0  0  0
 10 11  1  6  0  0  0
 10 12  1  0  0  0  0
 12 14  1  0  0  0  0
 14 13  1  1  0  0  0
 14 18  1  0  0  0  0
 15 14  1  0  0  0  0
 16 22  1  0  0  0  0
 18 25  1  1  0  0  0
 18 20  1  0  0  0  0
 20 19  1  6  0  0  0
 20 24  1  0  0  0  0
 21 16  1  0  0  0  0
 22 26  2  0  0  0  0
 22 17  1  0  0  0  0
 23 16  1  0  0  0  0
 24 17  1  0  0  0  0
 24 28  1  1  0  0  0
 27 18  1  0  0  0  0
 27 16  1  0  0  0  0
 29 28  1  0  0  0  0
 30 31  1  0  0  0  0
 32 31  1  1  0  0  0
 32 41  1  0  0  0  0
 33 37  1  0  0  0  0
 34 36  1  0  0  0  0
 35 39  1  6  0  0  0
 36 35  1  0  0  0  0
 37 34  1  0  0  0  0
 38 33  1  6  0  0  0
 38 41  1  0  0  0  0
 38 40  1  0  0  0  0
 38 35  1  0  0  0  0
 40 42  1  6  0  0  0
 41 40  1  0  0  0  0
 42 44  1  0  0  0  0
 44 45  1  0  0  0  0
 44 43  1  1  0  0  0
 45 46  1  0  0  0  0
 47 50  1  0  0  0  0
 47 51  1  0  0  0  0
 49 52  1  6  0  0  0
 49 48  1  0  0  0  0
 50 49  1  0  0  0  0
 51 32  1  0  0  0  0
 51 48  1  0  0  0  0
 52 53  1  0  0  0  0
 53 54  1  0  0  0  0
 55 53  2  0  0  0  0
M  END
>  <MODEL>
2

>  <REMARK>
 VINA RESULT:      -5.7      2.482      5.244
  Name = 
  18 active torsions:
  status: ('A' for Active; 'I' for Inactive)
    1  A    between atoms: C_2  and  C_28
    2  A    between atoms: C_2  and  C_44
    3  A    between atoms: C_4  and  C_40
    4  A    between atoms: C_6  and  C_20
    5  A    between atoms: C_8  and  O_22
    6  A    between atoms: C_8  and  C_35
    7  A    between atoms: C_10  and  C_32
    8  A    between atoms: C_11  and  C_38
    9  A    between atoms: C_19  and  C_40
   10  A    between atoms: C_19  and  C_45
   11  A    between atoms: C_20  and  O_22
   12  A    between atoms: C_27  and  C_54
   13  A    between atoms: C_28  and  C_33
   14  A    between atoms: C_32  and  C_39
   15  A    between atoms: C_33  and  N_49
   16  A    between atoms: C_33  and  N_52
   17  A    between atoms: C_35  and  C_51
   18  A    between atoms: C_51  and  C_54
                            x       y       z     vdW  Elec       q    Type
                         _______ _______ _______ _____ _____    ______ ____

>  <TORSDO>
F 18

$$$$
=
 OpenBabel10272401403D

 55 59  0  0  1  0  0  0  0  0999 V2000
  191.9050  178.1540  142.2560 C   0  0  0  0  0  2  0  0  0  0  0  0
  190.3770  176.7760  144.3200 C   0  0  2  0  0  3  0  0  0  0  0  0
  191.2500  175.9690  143.3380 C   0  0  0  0  0  2  0  0  0  0  0  0
  191.3590  178.7220  143.5700 C   0  0  0  0  0  2  0  0  0  0  0  0
  191.4660  176.7090  142.0160 C   0  0  1  0  0  3  0  0  0  0  0  0
  190.1320  178.1110  143.9210 O   0  0  0  0  0  0  0  0  0  0  0  0
  190.9210  176.7160  145.7360 C   0  0  0  0  0  2  0  0  0  0  0  0
  189.9420  177.4080  146.6810 C   0  0  0  0  0  2  0  0  0  0  0  0
  188.5560  176.8290  146.5030 C   0  0  0  0  0  2  0  0  0  0  0  0
  187.4950  177.7380  147.1090 C   0  0  1  0  0  3  0  0  0  0  0  0
  188.0790  178.4560  148.3150 C   0  0  0  0  0  1  0  0  0  0  0  0
  187.1000  178.6840  146.1490 O   0  0  0  0  0  0  0  0  0  0  0  0
  184.9210  178.0330  147.0410 C   0  0  0  0  0  1  0  0  0  0  0  0
  185.7520  179.1060  146.3360 C   0  0  1  0  0  0  0  0  0  0  0  0
  185.8000  180.1980  147.1970 O   0  0  0  0  0  1  0  0  0  0  0  0
  185.9250  178.3010  143.0000 C   0  0  0  0  0  0  0  0  0  0  0  0
  183.4380  178.6480  142.3800 O   0  0  0  0  0  0  0  0  0  0  0  0
  185.0710  179.5250  144.9920 C   0  0  1  0  0  0  0  0  0  0  0  0
  183.7000  177.4880  144.9190 F   0  0  0  0  0  0  0  0  0  0  0  0
  183.6990  178.8660  144.8120 C   0  0  2  0  0  3  0  0  0  0  0  0
  186.0380  176.9550  143.6900 C   0  0  0  0  0  1  0  0  0  0  0  0
  184.7440  178.2850  142.0360 C   0  0  0  0  0  0  0  0  0  0  0  0
  187.1960  178.4180  142.1710 C   0  0  0  0  0  1  0  0  0  0  0  0
  183.0340  179.3620  143.5400 C   0  0  2  0  0  3  0  0  0  0  0  0
  184.8060  180.8790  145.0890 F   0  0  0  0  0  0  0  0  0  0  0  0
  184.9030  177.7690  140.8930 O   0  0  0  0  0  0  0  0  0  0  0  0
  185.9670  179.4210  143.8810 O   0  0  0  0  0  0  0  0  0  0  0  0
  181.5170  179.3760  143.6580 C   0  0  0  0  0  2  0  0  0  0  0  0
  180.8450  178.9670  142.3720 C   0  0  0  0  0  1  0  0  0  0  0  0
  190.2240  176.6890  141.1450 C   0  0  0  0  0  2  0  0  0  0  0  0
  190.4200  177.5500  139.9130 C   0  0  0  0  0  2  0  0  0  0  0  0
  190.7480  176.6710  138.6980 C   0  0  2  0  0  3  0  0  0  0  0  0
  190.0730  176.3430  135.9990 C   0  0  0  0  0  2  0  0  0  0  0  0
  188.4020  175.1470  134.4270 C   0  0  0  0  0  2  0  0  0  0  0  0
  188.7860  174.1380  136.6890 C   0  0  2  0  0  3  0  0  0  0  0  0
  188.8450  173.8980  135.1830 C   0  0  0  0  0  2  0  0  0  0  0  0
  189.4240  176.2820  134.6010 C   0  0  0  0  0  2  0  0  0  0  0  0
  189.2800  175.5420  137.0600 C   0  0  2  0  0  0  0  0  0  0  0  0
  189.5640  173.1620  137.3260 O   0  0  0  0  0  1  0  0  0  0  0  0
  188.3890  176.2570  137.9830 C   0  0  1  0  0  3  0  0  0  0  0  0
  189.6760  175.6790  138.4890 N   0  0  0  0  0  0  0  0  0  0  0  0
  188.3740  177.7900  137.8470 C   0  0  0  0  0  2  0  0  0  0  0  0
  187.5080  179.6040  136.5870 F   0  0  0  0  0  0  0  0  0  0  0  0
  187.3010  178.2690  136.8730 C   0  0  2  0  0  3  0  0  0  0  0  0
  185.9280  178.1090  137.4790 C   0  0  0  0  0  2  0  0  0  0  0  0
  185.6890  179.1370  138.3960 O   0  0  0  0  0  1  0  0  0  0  0  0
  193.1710  176.9060  138.6830 C   0  0  0  0  0  2  0  0  0  0  0  0
  192.1960  175.0860  137.6820 C   0  0  0  0  0  2  0  0  0  0  0  0
  193.6390  175.1950  137.2850 C   0  0  1  0  0  3  0  0  0  0  0  0
  194.0890  176.4490  137.7160 O   0  0  0  0  0  0  0  0  0  0  0  0
  192.0490  175.9840  138.7970 N   0  0  0  0  0  0  0  0  0  0  0  0
  194.4660  174.0990  137.9540 C   0  0  0  0  0  2  0  0  0  0  0  0
  195.0030  173.1060  136.9690 C   0  0  0  0  0  0  0  0  0  0  0  0
  194.6890  173.2390  135.6180 O   0  0  0  0  0  0  0  0  0  0  0  0
  195.7320  172.1450  137.3390 O   0  0  0  0  0  1  0  0  0  0  0  0
  1  4  1  0  0  0  0
  2  7  1  1  0  0  0
  3  2  1  0  0  0  0
  4  6  1  0  0  0  0
  5 30  1  1  0  0  0
  5  1  1  0  0  0  0
  5  3  1  0  0  0  0
  6  2  1  0  0  0  0
  7  8  1  0  0  0  0
  9  8  1  0  0  0  0
  9 10  1  0  0  0  0
 10 11  1  1  0  0  0
 12 14  1  0  0  0  0
 12 10  1  0  0  0  0
 14 13  1  1  0  0  0
 14 15  1  0  0  0  0
 16 21  1  0  0  0  0
 16 27  1  0  0  0  0
 17 24  1  0  0  0  0
 18 25  1  1  0  0  0
 18 14  1  0  0  0  0
 20 19  1  6  0  0  0
 20 18  1  0  0  0  0
 22 17  1  0  0  0  0
 22 16  1  0  0  0  0
 23 16  1  0  0  0  0
 24 28  1  1  0  0  0
 24 20  1  0  0  0  0
 26 22  2  0  0  0  0
 27 18  1  0  0  0  0
 29 28  1  0  0  0  0
 31 30  1  0  0  0  0
 32 51  1  0  0  0  0
 32 31  1  1  0  0  0
 34 37  1  0  0  0  0
 34 36  1  0  0  0  0
 35 38  1  0  0  0  0
 35 39  1  1  0  0  0
 36 35  1  0  0  0  0
 37 33  1  0  0  0  0
 38 33  1  6  0  0  0
 38 40  1  0  0  0  0
 38 41  1  0  0  0  0
 40 42  1  6  0  0  0
 40 41  1  0  0  0  0
 41 32  1  0  0  0  0
 44 43  1  1  0  0  0
 44 45  1  0  0  0  0
 44 42  1  0  0  0  0
 45 46  1  0  0  0  0
 47 51  1  0  0  0  0
 48 51  1  0  0  0  0
 49 48  1  0  0  0  0
 49 50  1  0  0  0  0
 49 52  1  1  0  0  0
 50 47  1  0  0  0  0
 53 55  1  0  0  0  0
 53 52  1  0  0  0  0
 54 53  2  0  0  0  0
M  END
>  <MODEL>
3

>  <REMARK>
 VINA RESULT:      -5.6      3.857      8.309
  Name = 
  18 active torsions:
  status: ('A' for Active; 'I' for Inactive)
    1  A    between atoms: C_2  and  C_28
    2  A    between atoms: C_2  and  C_44
    3  A    between atoms: C_4  and  C_40
    4  A    between atoms: C_6  and  C_20
    5  A    between atoms: C_8  and  O_22
    6  A    between atoms: C_8  and  C_35
    7  A    between atoms: C_10  and  C_32
    8  A    between atoms: C_11  and  C_38
    9  A    between atoms: C_19  and  C_40
   10  A    between atoms: C_19  and  C_45
   11  A    between atoms: C_20  and  O_22
   12  A    between atoms: C_27  and  C_54
   13  A    between atoms: C_28  and  C_33
   14  A    between atoms: C_32  and  C_39
   15  A    between atoms: C_33  and  N_49
   16  A    between atoms: C_33  and  N_52
   17  A    between atoms: C_35  and  C_51
   18  A    between atoms: C_51  and  C_54
                            x       y       z     vdW  Elec       q    Type
                         _______ _______ _______ _____ _____    ______ ____

>  <TORSDO>
F 18

$$$$
=
 OpenBabel10272401403D

 55 59  0  0  1  0  0  0  0  0999 V2000
  184.4580  179.5630  139.7440 C   0  0  0  0  0  2  0  0  0  0  0  0
  182.7390  177.3680  140.5960 C   0  0  2  0  0  3  0  0  0  0  0  0
  183.2400  178.4010  141.6270 C   0  0  0  0  0  2  0  0  0  0  0  0
  183.5030  178.7200  138.8920 C   0  0  0  0  0  2  0  0  0  0  0  0
  184.5470  179.0660  141.1880 C   0  0  1  0  0  3  0  0  0  0  0  0
  183.4350  177.3880  139.3650 O   0  0  0  0  0  0  0  0  0  0  0  0
  181.2390  177.4690  140.3830 C   0  0  0  0  0  2  0  0  0  0  0  0
  180.8480  176.6350  139.1660 C   0  0  0  0  0  2  0  0  0  0  0  0
  180.1640  177.5100  138.1390 C   0  0  0  0  0  2  0  0  0  0  0  0
  180.5830  177.1340  136.7250 C   0  0  1  0  0  3  0  0  0  0  0  0
  180.7970  178.4010  135.9110 C   0  0  0  0  0  1  0  0  0  0  0  0
  181.7840  176.4080  136.7810 O   0  0  0  0  0  0  0  0  0  0  0  0
  180.2710  174.8640  135.6460 C   0  0  0  0  0  1  0  0  0  0  0  0
  181.7110  175.1930  136.0410 C   0  0  1  0  0  0  0  0  0  0  0  0
  182.4060  175.4140  134.8570 O   0  0  0  0  0  1  0  0  0  0  0  0
  181.8390  171.7650  135.8210 C   0  0  0  0  0  0  0  0  0  0  0  0
  184.2340  171.4010  136.7290 O   0  0  0  0  0  0  0  0  0  0  0  0
  182.3520  173.9910  136.8110 C   0  0  1  0  0  0  0  0  0  0  0  0
  184.0970  173.6860  135.1100 F   0  0  0  0  0  0  0  0  0  0  0  0
  183.8330  173.8090  136.4600 C   0  0  2  0  0  3  0  0  0  0  0  0
  181.9640  172.2130  134.3770 C   0  0  0  0  0  1  0  0  0  0  0  0
  183.0400  170.9050  136.1960 C   0  0  0  0  0  0  0  0  0  0  0  0
  180.6060  170.8740  135.8440 C   0  0  0  0  0  1  0  0  0  0  0  0
  184.4410  172.6910  137.2880 C   0  0  2  0  0  3  0  0  0  0  0  0
  182.3420  174.3310  138.1510 F   0  0  0  0  0  0  0  0  0  0  0  0
  183.0330  169.6830  135.8700 O   0  0  0  0  0  0  0  0  0  0  0  0
  181.5410  172.8140  136.7400 O   0  0  0  0  0  0  0  0  0  0  0  0
  185.9190  172.9230  137.5630 C   0  0  0  0  0  2  0  0  0  0  0  0
  186.4070  174.2230  136.9750 C   0  0  0  0  0  1  0  0  0  0  0  0
  185.7350  178.1350  141.3360 C   0  0  0  0  0  2  0  0  0  0  0  0
  187.0190  178.8380  140.9430 C   0  0  0  0  0  2  0  0  0  0  0  0
  188.2320  178.0790  141.5000 C   0  0  2  0  0  3  0  0  0  0  0  0
  190.0690  176.5380  142.9490 C   0  0  0  0  0  2  0  0  0  0  0  0
  191.4930  176.5280  145.1090 C   0  0  0  0  0  2  0  0  0  0  0  0
  190.7990  178.7550  144.1930 C   0  0  2  0  0  3  0  0  0  0  0  0
  191.9820  177.8770  144.5920 C   0  0  0  0  0  2  0  0  0  0  0  0
  190.8630  175.7030  143.9750 C   0  0  0  0  0  2  0  0  0  0  0  0
  189.7080  177.9470  143.4780 C   0  0  2  0  0  0  0  0  0  0  0  0
  191.2670  179.7830  143.3630 O   0  0  0  0  0  1  0  0  0  0  0  0
  188.3550  178.1980  143.9930 C   0  0  1  0  0  3  0  0  0  0  0  0
  188.7710  178.7830  142.6780 N   0  0  0  0  0  0  0  0  0  0  0  0
  187.3720  177.0170  143.8970 C   0  0  0  0  0  2  0  0  0  0  0  0
  185.1650  177.6780  144.4570 F   0  0  0  0  0  0  0  0  0  0  0  0
  186.2940  177.0780  144.9750 C   0  0  2  0  0  3  0  0  0  0  0  0
  186.7750  177.8850  146.1570 C   0  0  0  0  0  2  0  0  0  0  0  0
  185.7030  178.5780  146.7270 O   0  0  0  0  0  1  0  0  0  0  0  0
  189.1950  178.7750  139.3740 C   0  0  0  0  0  2  0  0  0  0  0  0
  189.1770  176.5520  139.9450 C   0  0  0  0  0  2  0  0  0  0  0  0
  189.5150  176.7200  138.4930 C   0  0  1  0  0  3  0  0  0  0  0  0
  189.2550  178.0560  138.1630 O   0  0  0  0  0  0  0  0  0  0  0  0
  189.3050  177.8690  140.5110 N   0  0  0  0  0  0  0  0  0  0  0  0
  190.9900  176.4100  138.2430 C   0  0  0  0  0  2  0  0  0  0  0  0
  191.2400  175.9010  136.8570 C   0  0  0  0  0  0  0  0  0  0  0  0
  192.3790  175.1420  136.5990 O   0  0  0  0  0  1  0  0  0  0  0  0
  190.4410  176.1510  135.9130 O   0  0  0  0  0  0  0  0  0  0  0  0
  1  5  1  0  0  0  0
  2  7  1  6  0  0  0
  2  3  1  0  0  0  0
  4  6  1  0  0  0  0
  4  1  1  0  0  0  0
  5 30  1  6  0  0  0
  5  3  1  0  0  0  0
  6  2  1  0  0  0  0
  8  7  1  0  0  0  0
  9  8  1  0  0  0  0
 10 11  1  6  0  0  0
 10 12  1  0  0  0  0
 10  9  1  0  0  0  0
 14 13  1  6  0  0  0
 14 12  1  0  0  0  0
 14 18  1  0  0  0  0
 15 14  1  0  0  0  0
 16 23  1  0  0  0  0
 16 22  1  0  0  0  0
 16 27  1  0  0  0  0
 17 24  1  0  0  0  0
 18 25  1  1  0  0  0
 20 19  1  6  0  0  0
 20 18  1  0  0  0  0
 20 24  1  0  0  0  0
 21 16  1  0  0  0  0
 22 17  1  0  0  0  0
 24 28  1  6  0  0  0
 26 22  2  0  0  0  0
 27 18  1  0  0  0  0
 29 28  1  0  0  0  0
 31 30  1  0  0  0  0
 32 31  1  6  0  0  0
 32 41  1  0  0  0  0
 33 37  1  0  0  0  0
 35 39  1  6  0  0  0
 35 36  1  0  0  0  0
 36 34  1  0  0  0  0
 37 34  1  0  0  0  0
 38 33  1  6  0  0  0
 38 40  1  0  0  0  0
 38 35  1  0  0  0  0
 40 42  1  6  0  0  0
 41 38  1  0  0  0  0
 41 40  1  0  0  0  0
 42 44  1  0  0  0  0
 44 43  1  6  0  0  0
 44 45  1  0  0  0  0
 45 46  1  0  0  0  0
 47 51  1  0  0  0  0
 48 51  1  0  0  0  0
 49 52  1  1  0  0  0
 49 48  1  0  0  0  0
 50 49  1  0  0  0  0
 50 47  1  0  0  0  0
 51 32  1  0  0  0  0
 53 52  1  0  0  0  0
 54 53  1  0  0  0  0
 55 53  2  0  0  0  0
M  END
>  <MODEL>
4

>  <REMARK>
 VINA RESULT:      -5.6      2.710     10.721
  Name = 
  18 active torsions:
  status: ('A' for Active; 'I' for Inactive)
    1  A    between atoms: C_2  and  C_28
    2  A    between atoms: C_2  and  C_44
    3  A    between atoms: C_4  and  C_40
    4  A    between atoms: C_6  and  C_20
    5  A    between atoms: C_8  and  O_22
    6  A    between atoms: C_8  and  C_35
    7  A    between atoms: C_10  and  C_32
    8  A    between atoms: C_11  and  C_38
    9  A    between atoms: C_19  and  C_40
   10  A    between atoms: C_19  and  C_45
   11  A    between atoms: C_20  and  O_22
   12  A    between atoms: C_27  and  C_54
   13  A    between atoms: C_28  and  C_33
   14  A    between atoms: C_32  and  C_39
   15  A    between atoms: C_33  and  N_49
   16  A    between atoms: C_33  and  N_52
   17  A    between atoms: C_35  and  C_51
   18  A    between atoms: C_51  and  C_54
                            x       y       z     vdW  Elec       q    Type
                         _______ _______ _______ _____ _____    ______ ____

>  <TORSDO>
F 18

$$$$
=
 OpenBabel10272401403D

 55 59  0  0  1  0  0  0  0  0999 V2000
  188.0710  178.8510  137.3060 C   0  0  0  0  0  2  0  0  0  0  0  0
  189.5840  176.4460  137.9520 C   0  0  2  0  0  3  0  0  0  0  0  0
  188.0950  176.5470  138.3380 C   0  0  0  0  0  2  0  0  0  0  0  0
  189.3630  178.3420  136.6590 C   0  0  0  0  0  2  0  0  0  0  0  0
  187.6380  177.9990  138.4990 C   0  0  1  0  0  3  0  0  0  0  0  0
  190.1820  177.6800  137.6040 O   0  0  0  0  0  0  0  0  0  0  0  0
  189.8160  175.3990  136.8770 C   0  0  0  0  0  2  0  0  0  0  0  0
  188.4890  174.7280  136.5350 C   0  0  0  0  0  2  0  0  0  0  0  0
  187.9790  175.2390  135.2060 C   0  0  0  0  0  2  0  0  0  0  0  0
  186.6560  174.5840  134.8320 C   0  0  1  0  0  3  0  0  0  0  0  0
  186.8860  173.1040  134.5710 C   0  0  0  0  0  1  0  0  0  0  0  0
  185.7530  174.7340  135.8980 O   0  0  0  0  0  0  0  0  0  0  0  0
  184.8570  176.9030  136.5730 C   0  0  0  0  0  1  0  0  0  0  0  0
  184.7550  175.7120  135.6200 C   0  0  1  0  0  0  0  0  0  0  0  0
  185.0300  176.2000  134.3460 O   0  0  0  0  0  1  0  0  0  0  0  0
  183.2350  172.6940  136.2460 C   0  0  0  0  0  0  0  0  0  0  0  0
  181.0440  173.5690  137.3070 O   0  0  0  0  0  0  0  0  0  0  0  0
  183.3120  175.1110  135.6520 C   0  0  1  0  0  0  0  0  0  0  0  0
  183.2460  175.1090  138.1080 F   0  0  0  0  0  0  0  0  0  0  0  0
  182.5740  175.4560  136.9510 C   0  0  2  0  0  3  0  0  0  0  0  0
  184.3150  172.7690  137.3090 C   0  0  0  0  0  1  0  0  0  0  0  0
  181.8740  172.5160  136.9100 C   0  0  0  0  0  0  0  0  0  0  0  0
  183.5410  171.4210  135.4720 C   0  0  0  0  0  1  0  0  0  0  0  0
  181.1510  174.9290  136.9100 C   0  0  2  0  0  3  0  0  0  0  0  0
  182.5960  175.7490  134.6560 F   0  0  0  0  0  0  0  0  0  0  0  0
  181.5260  171.3560  137.2730 O   0  0  0  0  0  0  0  0  0  0  0  0
  183.2960  173.7320  135.2700 O   0  0  0  0  0  0  0  0  0  0  0  0
  180.1970  175.7980  137.7160 C   0  0  0  0  0  2  0  0  0  0  0  0
  180.0020  177.1560  137.0900 C   0  0  0  0  0  1  0  0  0  0  0  0
  188.1560  178.6170  139.7840 C   0  0  0  0  0  2  0  0  0  0  0  0
  188.0590  177.6320  140.9310 C   0  0  0  0  0  2  0  0  0  0  0  0
  187.3370  178.2740  142.1230 C   0  0  2  0  0  3  0  0  0  0  0  0
  189.0640  178.5610  144.3110 C   0  0  0  0  0  2  0  0  0  0  0  0
  189.7540  177.4540  146.5460 C   0  0  0  0  0  2  0  0  0  0  0  0
  187.4660  176.9410  145.6600 C   0  0  2  0  0  3  0  0  0  0  0  0
  188.2570  177.5030  146.8380 C   0  0  0  0  0  2  0  0  0  0  0  0
  190.1240  178.4380  145.4240 C   0  0  0  0  0  2  0  0  0  0  0  0
  188.0560  177.3860  144.3150 C   0  0  2  0  0  0  0  0  0  0  0  0
  186.1360  177.3670  145.7740 O   0  0  0  0  0  1  0  0  0  0  0  0
  188.2260  176.2880  143.3530 C   0  0  1  0  0  3  0  0  0  0  0  0
  187.1050  177.2670  143.1760 N   0  0  0  0  0  0  0  0  0  0  0  0
  189.3900  176.4450  142.3580 C   0  0  0  0  0  2  0  0  0  0  0  0
  190.5060  175.4480  144.1980 F   0  0  0  0  0  0  0  0  0  0  0  0
  190.6800  175.8200  142.8800 C   0  0  2  0  0  3  0  0  0  0  0  0
  191.8160  176.8100  142.8000 C   0  0  0  0  0  2  0  0  0  0  0  0
  191.8390  177.4090  141.5370 O   0  0  0  0  0  1  0  0  0  0  0  0
  185.4090  179.5330  142.9170 C   0  0  0  0  0  2  0  0  0  0  0  0
  185.1340  177.9230  141.3060 C   0  0  0  0  0  2  0  0  0  0  0  0
  183.8070  178.3400  141.8660 C   0  0  1  0  0  3  0  0  0  0  0  0
  184.0660  179.1170  143.0010 O   0  0  0  0  0  0  0  0  0  0  0  0
  186.0620  178.9220  141.7650 N   0  0  0  0  0  0  0  0  0  0  0  0
  183.0280  179.1690  140.8470 C   0  0  0  0  0  2  0  0  0  0  0  0
  181.8280  178.4460  140.3170 C   0  0  0  0  0  0  0  0  0  0  0  0
  180.6980  179.1700  139.9440 O   0  0  0  0  0  0  0  0  0  0  0  0
  181.8180  177.1890  140.2060 O   0  0  0  0  0  1  0  0  0  0  0  0
  1  5  1  0  0  0  0
  2  7  1  6  0  0  0
  2  3  1  0  0  0  0
  3  5  1  0  0  0  0
  4  1  1  0  0  0  0
  4  6  1  0  0  0  0
  5 30  1  1  0  0  0
  6  2  1  0  0  0  0
  8  7  1  0  0  0  0
  9  8  1  0  0  0  0
 10 11  1  1  0  0  0
 10  9  1  0  0  0  0
 10 12  1  0  0  0  0
 14 18  1  0  0  0  0
 14 12  1  0  0  0  0
 14 13  1  1  0  0  0
 15 14  1  0  0  0  0
 16 22  1  0  0  0  0
 16 21  1  0  0  0  0
 18 25  1  6  0  0  0
 18 20  1  0  0  0  0
 20 19  1  1  0  0  0
 22 26  2  0  0  0  0
 22 17  1  0  0  0  0
 23 16  1  0  0  0  0
 24 20  1  0  0  0  0
 24 17  1  0  0  0  0
 24 28  1  1  0  0  0
 27 18  1  0  0  0  0
 27 16  1  0  0  0  0
 29 28  1  0  0  0  0
 30 31  1  0  0  0  0
 32 31  1  6  0  0  0
 32 41  1  0  0  0  0
 33 37  1  0  0  0  0
 34 36  1  0  0  0  0
 35 39  1  1  0  0  0
 35 36  1  0  0  0  0
 37 34  1  0  0  0  0
 38 33  1  6  0  0  0
 38 35  1  0  0  0  0
 40 42  1  6  0  0  0
 40 38  1  0  0  0  0
 41 40  1  0  0  0  0
 41 38  1  0  0  0  0
 42 44  1  0  0  0  0
 44 43  1  1  0  0  0
 45 44  1  0  0  0  0
 46 45  1  0  0  0  0
 47 50  1  0  0  0  0
 48 51  1  0  0  0  0
 48 49  1  0  0  0  0
 49 52  1  6  0  0  0
 49 50  1  0  0  0  0
 51 32  1  0  0  0  0
 51 47  1  0  0  0  0
 53 52  1  0  0  0  0
 54 53  2  0  0  0  0
 55 53  1  0  0  0  0
M  END
>  <MODEL>
5

>  <REMARK>
 VINA RESULT:      -5.5      2.372      9.165
  Name = 
  18 active torsions:
  status: ('A' for Active; 'I' for Inactive)
    1  A    between atoms: C_2  and  C_28
    2  A    between atoms: C_2  and  C_44
    3  A    between atoms: C_4  and  C_40
    4  A    between atoms: C_6  and  C_20
    5  A    between atoms: C_8  and  O_22
    6  A    between atoms: C_8  and  C_35
    7  A    between atoms: C_10  and  C_32
    8  A    between atoms: C_11  and  C_38
    9  A    between atoms: C_19  and  C_40
   10  A    between atoms: C_19  and  C_45
   11  A    between atoms: C_20  and  O_22
   12  A    between atoms: C_27  and  C_54
   13  A    between atoms: C_28  and  C_33
   14  A    between atoms: C_32  and  C_39
   15  A    between atoms: C_33  and  N_49
   16  A    between atoms: C_33  and  N_52
   17  A    between atoms: C_35  and  C_51
   18  A    between atoms: C_51  and  C_54
                            x       y       z     vdW  Elec       q    Type
                         _______ _______ _______ _____ _____    ______ ____

>  <TORSDO>
F 18

$$$$
=
 OpenBabel10272401403D

 55 59  0  0  1  0  0  0  0  0999 V2000
  190.0170  177.7810  139.1900 C   0  0  0  0  0  2  0  0  0  0  0  0
  188.4780  177.4180  136.7420 C   0  0  2  0  0  3  0  0  0  0  0  0
  188.6720  178.8310  137.3290 C   0  0  0  0  0  2  0  0  0  0  0  0
  190.0640  176.6080  138.2060 C   0  0  0  0  0  2  0  0  0  0  0  0
  188.9310  178.7980  138.8370 C   0  0  1  0  0  3  0  0  0  0  0  0
  188.7910  176.3670  137.6350 O   0  0  0  0  0  0  0  0  0  0  0  0
  189.2060  177.2530  135.4200 C   0  0  0  0  0  2  0  0  0  0  0  0
  189.1840  175.7820  135.0140 C   0  0  0  0  0  2  0  0  0  0  0  0
  190.5690  175.3410  134.5950 C   0  0  0  0  0  2  0  0  0  0  0  0
  191.1040  174.2520  135.5150 C   0  0  1  0  0  3  0  0  0  0  0  0
  190.6220  172.8970  135.0220 C   0  0  0  0  0  1  0  0  0  0  0  0
  192.5080  174.2820  135.4930 O   0  0  0  0  0  0  0  0  0  0  0  0
  193.3600  176.1070  136.8760 C   0  0  0  0  0  1  0  0  0  0  0  0
  193.0560  174.6120  136.7660 C   0  0  1  0  0  0  0  0  0  0  0  0
  192.0630  174.3400  137.7020 O   0  0  0  0  0  1  0  0  0  0  0  0
  194.6480  171.7880  135.6260 C   0  0  0  0  0  0  0  0  0  0  0  0
  197.0920  172.5020  136.0810 O   0  0  0  0  0  0  0  0  0  0  0  0
  194.3330  173.7720  137.0970 C   0  0  1  0  0  0  0  0  0  0  0  0
  195.5570  174.6610  135.1620 F   0  0  0  0  0  0  0  0  0  0  0  0
  195.6040  174.4060  136.5190 C   0  0  2  0  0  3  0  0  0  0  0  0
  194.2030  172.4780  134.3500 C   0  0  0  0  0  1  0  0  0  0  0  0
  196.1580  171.5810  135.5970 C   0  0  0  0  0  0  0  0  0  0  0  0
  193.9920  170.4160  135.5720 C   0  0  0  0  0  1  0  0  0  0  0  0
  196.8290  173.6090  136.9310 C   0  0  2  0  0  3  0  0  0  0  0  0
  194.4990  173.8280  138.4690 F   0  0  0  0  0  0  0  0  0  0  0  0
  196.6200  170.5910  134.9600 O   0  0  0  0  0  0  0  0  0  0  0  0
  194.1460  172.3800  136.8220 O   0  0  0  0  0  0  0  0  0  0  0  0
  198.0640  174.4890  137.0620 C   0  0  0  0  0  2  0  0  0  0  0  0
  198.4720  174.6830  138.5000 C   0  0  0  0  0  1  0  0  0  0  0  0
  187.6700  178.4940  139.6230 C   0  0  0  0  0  2  0  0  0  0  0  0
  187.9880  177.6530  140.8430 C   0  0  0  0  0  2  0  0  0  0  0  0
  187.3720  178.2840  142.0990 C   0  0  2  0  0  3  0  0  0  0  0  0
  189.0820  178.5830  144.2980 C   0  0  0  0  0  2  0  0  0  0  0  0
  189.7950  177.4580  146.5170 C   0  0  0  0  0  2  0  0  0  0  0  0
  187.5260  176.8960  145.6130 C   0  0  2  0  0  3  0  0  0  0  0  0
  188.2960  177.4600  146.8030 C   0  0  0  0  0  2  0  0  0  0  0  0
  190.1410  178.4720  145.4130 C   0  0  0  0  0  2  0  0  0  0  0  0
  188.1080  177.3800  144.2780 C   0  0  2  0  0  0  0  0  0  0  0  0
  186.1830  177.2810  145.7280 O   0  0  0  0  0  1  0  0  0  0  0  0
  188.3130  176.3040  143.2990 C   0  0  1  0  0  3  0  0  0  0  0  0
  187.1650  177.2530  143.1330 N   0  0  0  0  0  0  0  0  0  0  0  0
  189.4750  176.5110  142.3110 C   0  0  0  0  0  2  0  0  0  0  0  0
  190.5830  175.4130  144.0980 F   0  0  0  0  0  0  0  0  0  0  0  0
  190.7780  175.9030  142.8220 C   0  0  2  0  0  3  0  0  0  0  0  0
  191.8680  176.9470  142.8640 C   0  0  0  0  0  2  0  0  0  0  0  0
  192.2840  177.2520  141.5650 O   0  0  0  0  0  1  0  0  0  0  0  0
  185.4250  179.3710  143.0780 C   0  0  0  0  0  2  0  0  0  0  0  0
  185.1900  178.1100  141.1760 C   0  0  0  0  0  2  0  0  0  0  0  0
  183.8490  178.4130  141.7750 C   0  0  1  0  0  3  0  0  0  0  0  0
  184.0800  178.9510  143.0460 O   0  0  0  0  0  0  0  0  0  0  0  0
  186.1050  178.9960  141.8450 N   0  0  0  0  0  0  0  0  0  0  0  0
  183.0950  179.4300  140.9200 C   0  0  0  0  0  2  0  0  0  0  0  0
  183.4060  179.2960  139.4610 C   0  0  0  0  0  0  0  0  0  0  0  0
  184.5200  179.9460  138.9330 O   0  0  0  0  0  1  0  0  0  0  0  0
  182.6750  178.6090  138.6960 O   0  0  0  0  0  0  0  0  0  0  0  0
  2  7  1  6  0  0  0
  2  3  1  0  0  0  0
  2  6  1  0  0  0  0
  3  5  1  0  0  0  0
  4  1  1  0  0  0  0
  5  1  1  0  0  0  0
  5 30  1  1  0  0  0
  6  4  1  0  0  0  0
  8  7  1  0  0  0  0
  9  8  1  0  0  0  0
  9 10  1  0  0  0  0
 10 11  1  6  0  0  0
 12 10  1  0  0  0  0
 12 14  1  0  0  0  0
 14 13  1  1  0  0  0
 14 18  1  0  0  0  0
 14 15  1  0  0  0  0
 16 27  1  0  0  0  0
 17 24  1  0  0  0  0
 18 25  1  1  0  0  0
 20 19  1  6  0  0  0
 20 24  1  0  0  0  0
 20 18  1  0  0  0  0
 21 16  1  0  0  0  0
 22 16  1  0  0  0  0
 22 17  1  0  0  0  0
 23 16  1  0  0  0  0
 24 28  1  6  0  0  0
 26 22  2  0  0  0  0
 27 18  1  0  0  0  0
 28 29  1  0  0  0  0
 30 31  1  0  0  0  0
 32 31  1  6  0  0  0
 32 41  1  0  0  0  0
 33 37  1  0  0  0  0
 34 36  1  0  0  0  0
 35 39  1  1  0  0  0
 35 36  1  0  0  0  0
 37 34  1  0  0  0  0
 38 33  1  1  0  0  0
 38 35  1  0  0  0  0
 40 42  1  6  0  0  0
 40 38  1  0  0  0  0
 41 40  1  0  0  0  0
 41 38  1  0  0  0  0
 42 44  1  0  0  0  0
 44 45  1  0  0  0  0
 44 43  1  1  0  0  0
 46 45  1  0  0  0  0
 48 49  1  0  0  0  0
 48 51  1  0  0  0  0
 49 52  1  6  0  0  0
 49 50  1  0  0  0  0
 50 47  1  0  0  0  0
 51 32  1  0  0  0  0
 51 47  1  0  0  0  0
 53 52  1  0  0  0  0
 54 53  1  0  0  0  0
 55 53  2  0  0  0  0
M  END
>  <MODEL>
6

>  <REMARK>
 VINA RESULT:      -5.3      4.718      9.427
  Name = 
  18 active torsions:
  status: ('A' for Active; 'I' for Inactive)
    1  A    between atoms: C_2  and  C_28
    2  A    between atoms: C_2  and  C_44
    3  A    between atoms: C_4  and  C_40
    4  A    between atoms: C_6  and  C_20
    5  A    between atoms: C_8  and  O_22
    6  A    between atoms: C_8  and  C_35
    7  A    between atoms: C_10  and  C_32
    8  A    between atoms: C_11  and  C_38
    9  A    between atoms: C_19  and  C_40
   10  A    between atoms: C_19  and  C_45
   11  A    between atoms: C_20  and  O_22
   12  A    between atoms: C_27  and  C_54
   13  A    between atoms: C_28  and  C_33
   14  A    between atoms: C_32  and  C_39
   15  A    between atoms: C_33  and  N_49
   16  A    between atoms: C_33  and  N_52
   17  A    between atoms: C_35  and  C_51
   18  A    between atoms: C_51  and  C_54
                            x       y       z     vdW  Elec       q    Type
                         _______ _______ _______ _____ _____    ______ ____

>  <TORSDO>
F 18

$$$$
=
 OpenBabel10272401403D

 55 59  0  0  1  0  0  0  0  0999 V2000
  192.0600  177.3780  141.7940 C   0  0  0  0  0  2  0  0  0  0  0  0
  189.6900  176.9590  143.4370 C   0  0  2  0  0  3  0  0  0  0  0  0
  190.2360  175.8110  142.5640 C   0  0  0  0  0  2  0  0  0  0  0  0
  191.6130  178.1630  143.0320 C   0  0  0  0  0  2  0  0  0  0  0  0
  191.0340  176.3290  141.3650 C   0  0  1  0  0  3  0  0  0  0  0  0
  190.2020  178.2360  143.1090 O   0  0  0  0  0  0  0  0  0  0  0  0
  189.8510  176.6630  144.9180 C   0  0  0  0  0  2  0  0  0  0  0  0
  189.2710  177.8200  145.7270 C   0  0  0  0  0  2  0  0  0  0  0  0
  188.5090  177.2860  146.9190 C   0  0  0  0  0  2  0  0  0  0  0  0
  187.2190  178.0630  147.1440 C   0  0  1  0  0  3  0  0  0  0  0  0
  187.4260  179.0660  148.2680 C   0  0  0  0  0  1  0  0  0  0  0  0
  186.8850  178.7480  145.9640 O   0  0  0  0  0  0  0  0  0  0  0  0
  184.7180  178.0690  146.8640 C   0  0  0  0  0  1  0  0  0  0  0  0
  185.4770  178.7920  145.7510 C   0  0  1  0  0  0  0  0  0  0  0  0
  185.1120  180.1330  145.8290 O   0  0  0  0  0  1  0  0  0  0  0  0
  182.7770  178.8530  143.6250 C   0  0  0  0  0  0  0  0  0  0  0  0
  184.0480  178.7850  141.3720 O   0  0  0  0  0  0  0  0  0  0  0  0
  185.0720  178.2180  144.3540 C   0  0  1  0  0  0  0  0  0  0  0  0
  185.3850  180.3870  143.2450 F   0  0  0  0  0  0  0  0  0  0  0  0
  185.6670  179.0360  143.2020 C   0  0  2  0  0  3  0  0  0  0  0  0
  182.8470  180.2770  144.1420 C   0  0  0  0  0  1  0  0  0  0  0  0
  182.8570  178.8570  142.1030 C   0  0  0  0  0  0  0  0  0  0  0  0
  181.3890  178.3680  144.0140 C   0  0  0  0  0  1  0  0  0  0  0  0
  185.3230  178.4000  141.8660 C   0  0  2  0  0  3  0  0  0  0  0  0
  185.6650  176.9730  144.2510 F   0  0  0  0  0  0  0  0  0  0  0  0
  181.8050  179.0940  141.4430 O   0  0  0  0  0  0  0  0  0  0  0  0
  183.6690  177.9470  144.2710 O   0  0  0  0  0  0  0  0  0  0  0  0
  186.4000  178.6520  140.8210 C   0  0  0  0  0  2  0  0  0  0  0  0
  187.7580  178.8510  141.4440 C   0  0  0  0  0  1  0  0  0  0  0  0
  190.1330  176.9040  140.2890 C   0  0  0  0  0  2  0  0  0  0  0  0
  190.9540  177.5090  139.1680 C   0  0  0  0  0  2  0  0  0  0  0  0
  190.6370  176.8090  137.8400 C   0  0  2  0  0  3  0  0  0  0  0  0
  189.1550  176.2840  135.5200 C   0  0  0  0  0  2  0  0  0  0  0  0
  187.1170  174.9560  134.6390 C   0  0  0  0  0  2  0  0  0  0  0  0
  188.2340  174.1140  136.7180 C   0  0  2  0  0  3  0  0  0  0  0  0
  187.8210  173.7700  135.2900 C   0  0  0  0  0  2  0  0  0  0  0  0
  188.1000  176.1160  134.4080 C   0  0  0  0  0  2  0  0  0  0  0  0
  188.7690  175.5470  136.8260 C   0  0  2  0  0  0  0  0  0  0  0  0
  189.2080  173.1960  137.1340 O   0  0  0  0  0  1  0  0  0  0  0  0
  188.1900  176.3120  137.9390 C   0  0  1  0  0  3  0  0  0  0  0  0
  189.5910  175.7900  138.0440 N   0  0  0  0  0  0  0  0  0  0  0  0
  188.0770  177.8320  137.7200 C   0  0  0  0  0  2  0  0  0  0  0  0
  186.8030  179.5710  136.7320 F   0  0  0  0  0  0  0  0  0  0  0  0
  186.8890  178.1970  136.8360 C   0  0  2  0  0  3  0  0  0  0  0  0
  185.6050  177.6750  137.4340 C   0  0  0  0  0  2  0  0  0  0  0  0
  184.9430  176.8650  136.5060 O   0  0  0  0  0  1  0  0  0  0  0  0
  191.6740  174.7490  137.0570 C   0  0  0  0  0  2  0  0  0  0  0  0
  192.9620  176.3690  138.0470 C   0  0  0  0  0  2  0  0  0  0  0  0
  193.7260  175.0830  137.9360 C   0  0  1  0  0  3  0  0  0  0  0  0
  192.8100  174.0910  137.5700 O   0  0  0  0  0  0  0  0  0  0  0  0
  191.8140  176.1930  137.1990 N   0  0  0  0  0  0  0  0  0  0  0  0
  194.8130  175.1920  136.8670 C   0  0  0  0  0  2  0  0  0  0  0  0
  195.8230  174.0900  136.9630 C   0  0  0  0  0  0  0  0  0  0  0  0
  196.6530  174.0140  138.0780 O   0  0  0  0  0  1  0  0  0  0  0  0
  195.9410  173.2290  136.0480 O   0  0  0  0  0  0  0  0  0  0  0  0
  1  4  1  0  0  0  0
  2  7  1  1  0  0  0
  3  2  1  0  0  0  0
  4  6  1  0  0  0  0
  5 30  1  6  0  0  0
  5  1  1  0  0  0  0
  5  3  1  0  0  0  0
  6  2  1  0  0  0  0
  7  8  1  0  0  0  0
  8  9  1  0  0  0  0
  9 10  1  0  0  0  0
 10 11  1  1  0  0  0
 12 10  1  0  0  0  0
 14 15  1  0  0  0  0
 14 12  1  0  0  0  0
 14 13  1  1  0  0  0
 16 23  1  0  0  0  0
 16 21  1  0  0  0  0
 16 27  1  0  0  0  0
 17 24  1  0  0  0  0
 17 22  1  0  0  0  0
 18 25  1  6  0  0  0
 18 14  1  0  0  0  0
 20 19  1  6  0  0  0
 20 18  1  0  0  0  0
 22 16  1  0  0  0  0
 24 28  1  6  0  0  0
 24 20  1  0  0  0  0
 26 22  2  0  0  0  0
 27 18  1  0  0  0  0
 28 29  1  0  0  0  0
 31 30  1  0  0  0  0
 32 41  1  0  0  0  0
 32 31  1  1  0  0  0
 34 36  1  0  0  0  0
 35 38  1  0  0  0  0
 35 39  1  6  0  0  0
 36 35  1  0  0  0  0
 37 34  1  0  0  0  0
 37 33  1  0  0  0  0
 38 33  1  6  0  0  0
 38 40  1  0  0  0  0
 38 41  1  0  0  0  0
 40 42  1  6  0  0  0
 40 41  1  0  0  0  0
 44 43  1  1  0  0  0
 44 45  1  0  0  0  0
 44 42  1  0  0  0  0
 46 45  1  0  0  0  0
 47 51  1  0  0  0  0
 47 50  1  0  0  0  0
 49 52  1  6  0  0  0
 49 48  1  0  0  0  0
 50 49  1  0  0  0  0
 51 32  1  0  0  0  0
 51 48  1  0  0  0  0
 52 53  1  0  0  0  0
 53 54  1  0  0  0  0
 55 53  2  0  0  0  0
M  END
>  <MODEL>
7

>  <REMARK>
 VINA RESULT:      -5.2      3.483      8.150
  Name = 
  18 active torsions:
  status: ('A' for Active; 'I' for Inactive)
    1  A    between atoms: C_2  and  C_28
    2  A    between atoms: C_2  and  C_44
    3  A    between atoms: C_4  and  C_40
    4  A    between atoms: C_6  and  C_20
    5  A    between atoms: C_8  and  O_22
    6  A    between atoms: C_8  and  C_35
    7  A    between atoms: C_10  and  C_32
    8  A    between atoms: C_11  and  C_38
    9  A    between atoms: C_19  and  C_40
   10  A    between atoms: C_19  and  C_45
   11  A    between atoms: C_20  and  O_22
   12  A    between atoms: C_27  and  C_54
   13  A    between atoms: C_28  and  C_33
   14  A    between atoms: C_32  and  C_39
   15  A    between atoms: C_33  and  N_49
   16  A    between atoms: C_33  and  N_52
   17  A    between atoms: C_35  and  C_51
   18  A    between atoms: C_51  and  C_54
                            x       y       z     vdW  Elec       q    Type
                         _______ _______ _______ _____ _____    ______ ____

>  <TORSDO>
F 18

$$$$
=
 OpenBabel10272401403D

 55 59  0  0  1  0  0  0  0  0999 V2000
  184.0460  179.5500  140.3910 C   0  0  0  0  0  2  0  0  0  0  0  0
  183.0070  176.9890  139.4670 C   0  0  2  0  0  3  0  0  0  0  0  0
  183.1090  177.2800  140.9780 C   0  0  0  0  0  2  0  0  0  0  0  0
  183.4440  179.2090  139.0240 C   0  0  0  0  0  2  0  0  0  0  0  0
  184.1840  178.3230  141.2920 C   0  0  1  0  0  3  0  0  0  0  0  0
  183.7450  177.8770  138.6500 O   0  0  0  0  0  0  0  0  0  0  0  0
  181.5620  176.8910  139.0100 C   0  0  0  0  0  2  0  0  0  0  0  0
  181.3400  175.5410  138.3330 C   0  0  0  0  0  2  0  0  0  0  0  0
  182.2940  175.3830  137.1690 C   0  0  0  0  0  2  0  0  0  0  0  0
  182.7570  173.9400  137.0250 C   0  0  1  0  0  3  0  0  0  0  0  0
  181.5460  173.0420  136.8240 C   0  0  0  0  0  1  0  0  0  0  0  0
  183.6020  173.8400  135.9070 O   0  0  0  0  0  0  0  0  0  0  0  0
  185.1160  173.1400  137.6920 C   0  0  0  0  0  1  0  0  0  0  0  0
  184.7900  173.1090  136.1980 C   0  0  1  0  0  0  0  0  0  0  0  0
  184.5200  171.7820  135.8780 O   0  0  0  0  0  1  0  0  0  0  0  0
  186.1630  176.0910  135.1810 C   0  0  0  0  0  0  0  0  0  0  0  0
  188.6590  175.4130  135.2300 O   0  0  0  0  0  0  0  0  0  0  0  0
  186.0140  173.6130  135.3640 C   0  0  1  0  0  0  0  0  0  0  0  0
  187.2550  174.2790  137.3760 F   0  0  0  0  0  0  0  0  0  0  0  0
  187.3120  173.5920  136.1790 C   0  0  2  0  0  3  0  0  0  0  0  0
  185.7400  176.3710  136.6100 C   0  0  0  0  0  1  0  0  0  0  0  0
  187.6540  176.3650  135.0250 C   0  0  0  0  0  0  0  0  0  0  0  0
  185.4150  177.1210  134.3480 C   0  0  0  0  0  1  0  0  0  0  0  0
  188.4890  174.0050  135.3120 C   0  0  2  0  0  3  0  0  0  0  0  0
  186.2110  172.6880  134.3550 F   0  0  0  0  0  0  0  0  0  0  0  0
  188.0360  177.5570  134.8510 O   0  0  0  0  0  0  0  0  0  0  0  0
  185.7270  174.8320  134.6730 O   0  0  0  0  0  0  0  0  0  0  0  0
  189.7830  173.3350  135.7510 C   0  0  0  0  0  2  0  0  0  0  0  0
  190.4810  172.6480  134.6040 C   0  0  0  0  0  1  0  0  0  0  0  0
  185.5840  177.7510  141.1680 C   0  0  0  0  0  2  0  0  0  0  0  0
  186.6260  178.8210  141.4230 C   0  0  0  0  0  2  0  0  0  0  0  0
  188.0120  178.1840  141.5890 C   0  0  2  0  0  3  0  0  0  0  0  0
  189.8420  176.4420  142.8000 C   0  0  0  0  0  2  0  0  0  0  0  0
  191.4520  176.2250  144.8140 C   0  0  0  0  0  2  0  0  0  0  0  0
  190.8610  178.5380  144.0510 C   0  0  2  0  0  3  0  0  0  0  0  0
  192.0000  177.5540  144.3040 C   0  0  0  0  0  2  0  0  0  0  0  0
  190.6560  175.5030  143.7140 C   0  0  0  0  0  2  0  0  0  0  0  0
  189.6470  177.8500  143.4130 C   0  0  2  0  0  0  0  0  0  0  0  0
  191.3330  179.5620  143.2200 O   0  0  0  0  0  1  0  0  0  0  0  0
  188.3710  178.1810  144.0630 C   0  0  1  0  0  3  0  0  0  0  0  0
  188.7120  178.7910  142.7370 N   0  0  0  0  0  0  0  0  0  0  0  0
  187.2910  177.0850  144.0160 C   0  0  0  0  0  2  0  0  0  0  0  0
  185.7590  178.8170  144.5410 F   0  0  0  0  0  0  0  0  0  0  0  0
  186.0330  177.4860  144.7800 C   0  0  2  0  0  3  0  0  0  0  0  0
  186.2320  177.2890  146.2640 C   0  0  0  0  0  2  0  0  0  0  0  0
  187.3370  178.0250  146.6980 O   0  0  0  0  0  1  0  0  0  0  0  0
  188.2810  179.1560  139.3730 C   0  0  0  0  0  2  0  0  0  0  0  0
  188.9270  176.9870  139.7530 C   0  0  0  0  0  2  0  0  0  0  0  0
  188.8820  177.2730  138.2820 C   0  0  1  0  0  3  0  0  0  0  0  0
  188.2430  178.5080  138.1220 O   0  0  0  0  0  0  0  0  0  0  0  0
  188.8560  178.2780  140.3850 N   0  0  0  0  0  0  0  0  0  0  0  0
  190.2950  177.3520  137.7040 C   0  0  0  0  0  2  0  0  0  0  0  0
  191.2510  176.4350  138.4030 C   0  0  0  0  0  0  0  0  0  0  0  0
  190.9490  175.0800  138.5120 O   0  0  0  0  0  0  0  0  0  0  0  0
  192.3270  176.8680  138.9020 O   0  0  0  0  0  1  0  0  0  0  0  0
  1  5  1  0  0  0  0
  2  7  1  6  0  0  0
  2  3  1  0  0  0  0
  3  5  1  0  0  0  0
  4  1  1  0  0  0  0
  5 30  1  6  0  0  0
  6  4  1  0  0  0  0
  6  2  1  0  0  0  0
  8  7  1  0  0  0  0
  9  8  1  0  0  0  0
 10 11  1  6  0  0  0
 10  9  1  0  0  0  0
 12 14  1  0  0  0  0
 12 10  1  0  0  0  0
 14 13  1  1  0  0  0
 15 14  1  0  0  0  0
 16 21  1  0  0  0  0
 17 24  1  0  0  0  0
 18 25  1  6  0  0  0
 18 20  1  0  0  0  0
 18 14  1  0  0  0  0
 20 19  1  1  0  0  0
 22 16  1  0  0  0  0
 22 17  1  0  0  0  0
 23 16  1  0  0  0  0
 24 28  1  1  0  0  0
 24 20  1  0  0  0  0
 26 22  2  0  0  0  0
 27 16  1  0  0  0  0
 27 18  1  0  0  0  0
 29 28  1  0  0  0  0
 30 31  1  0  0  0  0
 32 31  1  6  0  0  0
 32 41  1  0  0  0  0
 33 37  1  0  0  0  0
 35 39  1  6  0  0  0
 35 36  1  0  0  0  0
 36 34  1  0  0  0  0
 37 34  1  0  0  0  0
 38 33  1  6  0  0  0
 38 35  1  0  0  0  0
 38 40  1  0  0  0  0
 40 42  1  6  0  0  0
 41 38  1  0  0  0  0
 41 40  1  0  0  0  0
 42 44  1  0  0  0  0
 44 43  1  1  0  0  0
 44 45  1  0  0  0  0
 45 46  1  0  0  0  0
 47 51  1  0  0  0  0
 48 51  1  0  0  0  0
 49 52  1  1  0  0  0
 49 48  1  0  0  0  0
 50 49  1  0  0  0  0
 50 47  1  0  0  0  0
 51 32  1  0  0  0  0
 52 53  1  0  0  0  0
 53 54  2  0  0  0  0
 53 55  1  0  0  0  0
M  END
>  <MODEL>
8

>  <REMARK>
 VINA RESULT:      -5.0      2.611     10.111
  Name = 
  18 active torsions:
  status: ('A' for Active; 'I' for Inactive)
    1  A    between atoms: C_2  and  C_28
    2  A    between atoms: C_2  and  C_44
    3  A    between atoms: C_4  and  C_40
    4  A    between atoms: C_6  and  C_20
    5  A    between atoms: C_8  and  O_22
    6  A    between atoms: C_8  and  C_35
    7  A    between atoms: C_10  and  C_32
    8  A    between atoms: C_11  and  C_38
    9  A    between atoms: C_19  and  C_40
   10  A    between atoms: C_19  and  C_45
   11  A    between atoms: C_20  and  O_22
   12  A    between atoms: C_27  and  C_54
   13  A    between atoms: C_28  and  C_33
   14  A    between atoms: C_32  and  C_39
   15  A    between atoms: C_33  and  N_49
   16  A    between atoms: C_33  and  N_52
   17  A    between atoms: C_35  and  C_51
   18  A    between atoms: C_51  and  C_54
                            x       y       z     vdW  Elec       q    Type
                         _______ _______ _______ _____ _____    ______ ____

>  <TORSDO>
F 18

$$$$
=
 OpenBabel10272401403D

 55 59  0  0  1  0  0  0  0  0999 V2000
  188.6920  177.9110  136.5110 C   0  0  0  0  0  2  0  0  0  0  0  0
  189.6600  177.1380  139.1490 C   0  0  2  0  0  3  0  0  0  0  0  0
  189.6340  176.1060  138.0040 C   0  0  0  0  0  2  0  0  0  0  0  0
  189.2250  178.8150  137.6280 C   0  0  0  0  0  2  0  0  0  0  0  0
  188.5860  176.4480  136.9430 C   0  0  1  0  0  3  0  0  0  0  0  0
  188.8930  178.3000  138.9040 O   0  0  0  0  0  0  0  0  0  0  0  0
  191.0800  177.4900  139.5560 C   0  0  0  0  0  2  0  0  0  0  0  0
  191.0580  178.1660  140.9240 C   0  0  0  0  0  2  0  0  0  0  0  0
  191.7200  177.2750  141.9510 C   0  0  0  0  0  2  0  0  0  0  0  0
  190.6960  176.4250  142.6890 C   0  0  1  0  0  3  0  0  0  0  0  0
  191.3980  175.6170  143.7690 C   0  0  0  0  0  1  0  0  0  0  0  0
  189.7430  177.2680  143.2840 O   0  0  0  0  0  0  0  0  0  0  0  0
  187.5350  177.3200  142.2430 C   0  0  0  0  0  1  0  0  0  0  0  0
  188.4440  176.6850  143.2960 C   0  0  1  0  0  0  0  0  0  0  0  0
  188.6100  175.3540  142.9250 O   0  0  0  0  0  1  0  0  0  0  0  0
  189.3410  177.3860  146.5390 C   0  0  0  0  0  0  0  0  0  0  0  0
  187.1350  178.4820  147.3290 O   0  0  0  0  0  0  0  0  0  0  0  0
  187.7750  176.7570  144.7080 C   0  0  1  0  0  0  0  0  0  0  0  0
  187.7440  179.2130  144.6920 F   0  0  0  0  0  0  0  0  0  0  0  0
  187.0050  178.0670  144.9120 C   0  0  2  0  0  3  0  0  0  0  0  0
  190.1000  178.4240  145.7340 C   0  0  0  0  0  1  0  0  0  0  0  0
  188.4540  178.0820  147.5650 C   0  0  0  0  0  0  0  0  0  0  0  0
  190.4150  176.6230  147.2980 C   0  0  0  0  0  1  0  0  0  0  0  0
  186.3010  178.0640  146.2580 C   0  0  2  0  0  3  0  0  0  0  0  0
  186.8090  175.7680  144.7380 F   0  0  0  0  0  0  0  0  0  0  0  0
  188.9750  178.4690  148.6500 O   0  0  0  0  0  0  0  0  0  0  0  0
  188.6840  176.3950  145.7520 O   0  0  0  0  0  0  0  0  0  0  0  0
  185.0160  178.8800  146.2300 C   0  0  0  0  0  2  0  0  0  0  0  0
  184.4690  179.0280  144.8330 C   0  0  0  0  0  1  0  0  0  0  0  0
  187.1770  176.1570  137.4220 C   0  0  0  0  0  2  0  0  0  0  0  0
  186.1790  177.0770  136.7470 C   0  0  0  0  0  2  0  0  0  0  0  0
  185.0480  176.2570  136.1110 C   0  0  2  0  0  3  0  0  0  0  0  0
  182.3360  176.8650  135.7530 C   0  0  0  0  0  2  0  0  0  0  0  0
  180.0120  176.6310  136.8670 C   0  0  0  0  0  2  0  0  0  0  0  0
  181.7820  174.9840  137.5290 C   0  0  2  0  0  3  0  0  0  0  0  0
  180.3840  175.1540  136.9420 C   0  0  0  0  0  2  0  0  0  0  0  0
  180.8780  177.3600  135.8250 C   0  0  0  0  0  2  0  0  0  0  0  0
  182.7520  176.0500  137.0020 C   0  0  2  0  0  0  0  0  0  0  0  0
  182.2470  173.7010  137.2110 O   0  0  0  0  0  1  0  0  0  0  0  0
  183.5430  176.7010  138.0560 C   0  0  1  0  0  3  0  0  0  0  0  0
  184.1870  175.6850  137.1620 N   0  0  0  0  0  0  0  0  0  0  0  0
  183.9510  178.1600  137.7810 C   0  0  0  0  0  2  0  0  0  0  0  0
  185.2830  179.3740  139.3230 F   0  0  0  0  0  0  0  0  0  0  0  0
  183.9820  178.9960  139.0570 C   0  0  2  0  0  3  0  0  0  0  0  0
  183.4590  178.1970  140.2260 C   0  0  0  0  0  2  0  0  0  0  0  0
  184.1160  178.5830  141.3980 O   0  0  0  0  0  1  0  0  0  0  0  0
  184.4670  174.6830  134.3460 C   0  0  0  0  0  2  0  0  0  0  0  0
  185.9160  174.0490  136.0080 C   0  0  0  0  0  2  0  0  0  0  0  0
  185.4570  172.8540  135.2260 C   0  0  1  0  0  3  0  0  0  0  0  0
  184.3970  173.2770  134.4150 O   0  0  0  0  0  0  0  0  0  0  0  0
  185.5230  175.1840  135.2170 N   0  0  0  0  0  0  0  0  0  0  0  0
  186.5870  172.3170  134.3490 C   0  0  0  0  0  2  0  0  0  0  0  0
  187.9300  172.4490  135.0000 C   0  0  0  0  0  0  0  0  0  0  0  0
  188.3740  171.4530  135.8660 O   0  0  0  0  0  1  0  0  0  0  0  0
  188.6660  173.4500  134.7830 O   0  0  0  0  0  0  0  0  0  0  0  0
  1  5  1  0  0  0  0
  1  4  1  0  0  0  0
  2  7  1  6  0  0  0
  3  2  1  0  0  0  0
  4  6  1  0  0  0  0
  5 30  1  1  0  0  0
  5  3  1  0  0  0  0
  6  2  1  0  0  0  0
  7  8  1  0  0  0  0
  8  9  1  0  0  0  0
  9 10  1  0  0  0  0
 10 12  1  0  0  0  0
 10 11  1  1  0  0  0
 12 14  1  0  0  0  0
 14 13  1  6  0  0  0
 14 18  1  0  0  0  0
 15 14  1  0  0  0  0
 16 23  1  0  0  0  0
 16 22  1  0  0  0  0
 17 22  1  0  0  0  0
 18 25  1  6  0  0  0
 18 20  1  0  0  0  0
 18 27  1  0  0  0  0
 20 19  1  1  0  0  0
 20 24  1  0  0  0  0
 21 16  1  0  0  0  0
 22 26  2  0  0  0  0
 24 28  1  6  0  0  0
 24 17  1  0  0  0  0
 27 16  1  0  0  0  0
 29 28  1  0  0  0  0
 31 30  1  0  0  0  0
 32 31  1  1  0  0  0
 32 41  1  0  0  0  0
 33 37  1  0  0  0  0
 34 36  1  0  0  0  0
 35 39  1  6  0  0  0
 36 35  1  0  0  0  0
 37 34  1  0  0  0  0
 38 33  1  6  0  0  0
 38 41  1  0  0  0  0
 38 35  1  0  0  0  0
 38 40  1  0  0  0  0
 40 42  1  6  0  0  0
 41 40  1  0  0  0  0
 42 44  1  0  0  0  0
 44 43  1  1  0  0  0
 44 45  1  0  0  0  0
 45 46  1  0  0  0  0
 47 50  1  0  0  0  0
 47 51  1  0  0  0  0
 49 52  1  6  0  0  0
 49 48  1  0  0  0  0
 50 49  1  0  0  0  0
 51 48  1  0  0  0  0
 51 32  1  0  0  0  0
 52 53  1  0  0  0  0
 53 54  1  0  0  0  0
 55 53  2  0  0  0  0
M  END
>  <MODEL>
9

>  <REMARK>
 VINA RESULT:      -4.8      2.204      5.164
  Name = 
  18 active torsions:
  status: ('A' for Active; 'I' for Inactive)
    1  A    between atoms: C_2  and  C_28
    2  A    between atoms: C_2  and  C_44
    3  A    between atoms: C_4  and  C_40
    4  A    between atoms: C_6  and  C_20
    5  A    between atoms: C_8  and  O_22
    6  A    between atoms: C_8  and  C_35
    7  A    between atoms: C_10  and  C_32
    8  A    between atoms: C_11  and  C_38
    9  A    between atoms: C_19  and  C_40
   10  A    between atoms: C_19  and  C_45
   11  A    between atoms: C_20  and  O_22
   12  A    between atoms: C_27  and  C_54
   13  A    between atoms: C_28  and  C_33
   14  A    between atoms: C_32  and  C_39
   15  A    between atoms: C_33  and  N_49
   16  A    between atoms: C_33  and  N_52
   17  A    between atoms: C_35  and  C_51
   18  A    between atoms: C_51  and  C_54
                            x       y       z     vdW  Elec       q    Type
                         _______ _______ _______ _____ _____    ______ ____

>  <TORSDO>
F 18

$$$$
