=
 OpenBabel10272413403D

 32 36  0  0  1  0  0  0  0  0999 V2000
  188.7930  178.7290  137.3440 C   0  0  1  0  0  3  0  0  0  0  0  0
  187.3440  177.8350  142.1620 C   0  0  0  0  0  0  0  0  0  0  0  0
  183.4430  178.3690  140.2110 C   0  0  0  0  0  1  0  0  0  0  0  0
  188.6450  177.4800  144.3410 C   0  0  1  0  0  3  0  0  0  0  0  0
  188.5920  177.6870  145.8390 C   0  0  0  0  0  0  0  0  0  0  0  0
  188.6240  177.9570  140.0940 C   0  0  0  0  0  0  0  0  0  0  0  0
  186.2770  178.5460  140.0980 C   0  0  0  0  0  3  0  0  0  0  0  0
  188.5060  178.0410  148.6220 C   0  0  0  0  0  3  0  0  0  0  0  0
  187.5490  178.6980  138.0460 O   0  0  0  0  0  0  0  0  0  0  0  0
  183.7210  178.4500  141.6360 N   0  0  0  0  0  0  0  0  0  0  0  0
  186.1800  178.2450  141.4670 C   0  0  0  0  0  0  0  0  0  0  0  0
  184.8900  178.4110  142.2130 C   0  0  0  0  0  0  0  0  0  0  0  0
  186.3120  178.5220  144.3130 C   0  0  1  0  0  3  0  0  0  0  0  0
  189.7090  177.7020  147.9980 C   0  0  0  0  0  3  0  0  0  0  0  0
  189.7240  177.6400  137.8700 C   0  0  0  0  0  2  0  0  0  0  0  0
  187.4850  178.4110  139.4140 C   0  0  0  0  0  0  0  0  0  0  0  0
  189.7530  177.5280  146.6130 C   0  0  0  0  0  3  0  0  0  0  0  0
  189.9340  177.8290  139.3730 C   0  0  0  0  0  2  0  0  0  0  0  0
  184.9040  178.4160  143.7240 C   0  0  1  0  0  3  0  0  0  0  0  0
  186.2470  178.3020  145.7180 O   0  0  0  0  0  0  0  0  0  0  0  0
  188.5510  177.6840  141.4580 C   0  0  0  0  0  3  0  0  0  0  0  0
  189.3130  176.1460  144.0300 C   0  0  0  0  0  1  0  0  0  0  0  0
  187.3510  178.2270  147.8590 C   0  0  0  0  0  3  0  0  0  0  0  0
  187.2610  177.5200  143.6450 C   0  0  1  0  0  3  0  0  0  0  0  0
  187.3960  178.0710  146.4700 C   0  0  0  0  0  0  0  0  0  0  0  0
  183.0440  178.8450  144.8520 C   0  0  0  0  0  1  0  0  0  0  0  0
  184.1170  179.4660  144.2080 O   0  0  0  0  0  0  0  0  0  0  0  0
  188.5590  178.5300  135.8590 C   0  0  0  0  0  2  0  0  0  0  0  0
  187.1720  177.9580  135.6210 C   0  0  0  0  0  2  0  0  0  0  0  0
  187.7790  175.9290  134.5340 O   0  0  0  0  0  0  0  0  0  0  0  0
  186.7020  175.6930  136.5450 O   0  0  0  0  0  1  0  0  0  0  0  0
  187.2470  176.4750  135.5360 C   0  0  0  0  0  0  0  0  0  0  0  0
  1 28  1  6  0  0  0
  1 15  1  0  0  0  0
  1  9  1  0  0  0  0
  3 10  1  0  0  0  0
  4 22  1  1  0  0  0
  4  5  1  0  0  0  0
  5 25  2  0  0  0  0
  5 17  1  0  0  0  0
  6 21  1  0  0  0  0
  7 11  2  0  0  0  0
  9 16  1  0  0  0  0
 10 12  2  0  0  0  0
 11  2  1  0  0  0  0
 11 12  1  0  0  0  0
 12 19  1  0  0  0  0
 13 20  1  1  0  0  0
 14  8  1  0  0  0  0
 15 18  1  0  0  0  0
 16  6  2  0  0  0  0
 16  7  1  0  0  0  0
 17 14  2  0  0  0  0
 18  6  1  0  0  0  0
 19 27  1  6  0  0  0
 19 13  1  0  0  0  0
 20 25  1  0  0  0  0
 21  2  2  0  0  0  0
 23  8  2  0  0  0  0
 24  2  1  6  0  0  0
 24 13  1  0  0  0  0
 24  4  1  0  0  0  0
 25 23  1  0  0  0  0
 27 26  1  0  0  0  0
 29 28  1  0  0  0  0
 30 32  2  0  0  0  0
 32 29  1  0  0  0  0
 32 31  1  0  0  0  0
M  END
>  <MODEL>
1

>  <REMARK>
 VINA RESULT:      -9.3      0.000      0.000
  Name = 
  4 active torsions:
  status: ('A' for Active; 'I' for Inactive)
    1  A    between atoms: C_2  and  C_24
    2  A    between atoms: C_10  and  C_20
    3  A    between atoms: C_10  and  C_24
    4  A    between atoms: O_25  and  C_26
                            x       y       z     vdW  Elec       q    Type
                         _______ _______ _______ _____ _____    ______ ____

>  <TORSDO>
F 4

$$$$
=
 OpenBabel10272413403D

 32 36  0  0  1  0  0  0  0  0999 V2000
  188.4350  177.2080  145.7360 C   0  0  1  0  0  3  0  0  0  0  0  0
  189.6550  177.4990  140.7820 C   0  0  0  0  0  0  0  0  0  0  0  0
  185.5790  179.1400  140.7280 C   0  0  0  0  0  1  0  0  0  0  0  0
  191.7080  176.7550  139.4410 C   0  0  1  0  0  3  0  0  0  0  0  0
  192.1630  176.2520  138.0880 C   0  0  0  0  0  0  0  0  0  0  0  0
  189.7710  177.3240  143.2080 C   0  0  0  0  0  0  0  0  0  0  0  0
  187.6580  177.8050  142.1320 C   0  0  0  0  0  3  0  0  0  0  0  0
  193.0320  175.3390  135.5800 C   0  0  0  0  0  3  0  0  0  0  0  0
  187.7590  177.6030  144.5400 O   0  0  0  0  0  0  0  0  0  0  0  0
  186.3240  178.6240  139.5900 N   0  0  0  0  0  0  0  0  0  0  0  0
  188.2730  177.7960  140.8690 C   0  0  0  0  0  0  0  0  0  0  0  0
  187.4840  178.0270  139.6150 C   0  0  0  0  0  0  0  0  0  0  0  0
  189.3740  176.8420  138.4040 C   0  0  1  0  0  3  0  0  0  0  0  0
  193.8860  175.2680  136.6850 C   0  0  0  0  0  3  0  0  0  0  0  0
  189.8970  177.6440  145.6850 C   0  0  0  0  0  2  0  0  0  0  0  0
  188.3930  177.5670  143.2920 C   0  0  0  0  0  0  0  0  0  0  0  0
  193.4530  175.7200  137.9330 C   0  0  0  0  0  3  0  0  0  0  0  0
  190.5670  177.0440  144.4490 C   0  0  0  0  0  2  0  0  0  0  0  0
  188.0940  177.6700  138.2790 C   0  0  1  0  0  3  0  0  0  0  0  0
  189.9900  176.7400  137.1250 O   0  0  0  0  0  0  0  0  0  0  0  0
  190.3890  177.2790  141.9600 C   0  0  0  0  0  3  0  0  0  0  0  0
  192.7510  177.7100  140.0110 C   0  0  0  0  0  1  0  0  0  0  0  0
  191.7390  175.8430  135.7300 C   0  0  0  0  0  3  0  0  0  0  0  0
  190.3330  177.4690  139.4240 C   0  0  1  0  0  3  0  0  0  0  0  0
  191.2960  176.2800  136.9820 C   0  0  0  0  0  0  0  0  0  0  0  0
  186.9420  177.7930  136.3890 C   0  0  0  0  0  1  0  0  0  0  0  0
  187.1650  176.9750  137.4980 O   0  0  0  0  0  0  0  0  0  0  0  0
  187.7580  177.8240  146.9440 C   0  0  0  0  0  2  0  0  0  0  0  0
  186.2620  177.5650  146.8940 C   0  0  0  0  0  2  0  0  0  0  0  0
  185.9170  179.8300  147.5410 O   0  0  0  0  0  1  0  0  0  0  0  0
  184.4000  178.9840  146.0440 O   0  0  0  0  0  0  0  0  0  0  0  0
  185.5300  178.8580  146.8400 C   0  0  0  0  0  0  0  0  0  0  0  0
  1 28  1  1  0  0  0
  2 11  2  0  0  0  0
  2 21  1  0  0  0  0
  4 22  1  6  0  0  0
  5  4  1  0  0  0  0
  6 16  1  0  0  0  0
  6 18  1  0  0  0  0
  7 16  2  0  0  0  0
  8 23  2  0  0  0  0
  8 14  1  0  0  0  0
  9  1  1  0  0  0  0
 10 12  2  0  0  0  0
 10  3  1  0  0  0  0
 11  7  1  0  0  0  0
 12 11  1  0  0  0  0
 13 20  1  6  0  0  0
 13 24  1  0  0  0  0
 14 17  2  0  0  0  0
 15  1  1  0  0  0  0
 16  9  1  0  0  0  0
 17  5  1  0  0  0  0
 18 15  1  0  0  0  0
 19 27  1  6  0  0  0
 19 13  1  0  0  0  0
 19 12  1  0  0  0  0
 21  6  2  0  0  0  0
 23 25  1  0  0  0  0
 24  4  1  0  0  0  0
 24  2  1  1  0  0  0
 25 20  1  0  0  0  0
 25  5  2  0  0  0  0
 26 27  1  0  0  0  0
 29 28  1  0  0  0  0
 31 32  2  0  0  0  0
 32 29  1  0  0  0  0
 32 30  1  0  0  0  0
M  END
>  <MODEL>
2

>  <REMARK>
 VINA RESULT:      -9.0      2.265      8.258
  Name = 
  4 active torsions:
  status: ('A' for Active; 'I' for Inactive)
    1  A    between atoms: C_2  and  C_24
    2  A    between atoms: C_10  and  C_20
    3  A    between atoms: C_10  and  C_24
    4  A    between atoms: O_25  and  C_26
                            x       y       z     vdW  Elec       q    Type
                         _______ _______ _______ _____ _____    ______ ____

>  <TORSDO>
F 4

$$$$
=
 OpenBabel10272413403D

 32 36  0  0  1  0  0  0  0  0999 V2000
  180.8870  178.4330  140.1040 C   0  0  1  0  0  3  0  0  0  0  0  0
  185.4280  178.5200  142.4480 C   0  0  0  0  0  0  0  0  0  0  0  0
  186.6630  178.8140  138.2410 C   0  0  0  0  0  1  0  0  0  0  0  0
  186.1320  178.2950  144.9010 C   0  0  1  0  0  3  0  0  0  0  0  0
  187.2380  177.8050  145.8100 C   0  0  0  0  0  0  0  0  0  0  0  0
  183.0440  178.6650  141.9690 C   0  0  0  0  0  0  0  0  0  0  0  0
  184.6200  178.3500  140.1620 C   0  0  0  0  0  3  0  0  0  0  0  0
  189.2850  176.9240  147.5170 C   0  0  0  0  0  3  0  0  0  0  0  0
  182.2530  178.4640  139.6820 O   0  0  0  0  0  0  0  0  0  0  0  0
  187.4970  178.4250  139.3670 N   0  0  0  0  0  0  0  0  0  0  0  0
  185.6970  178.3860  141.0640 C   0  0  0  0  0  0  0  0  0  0  0  0
  187.1130  178.2200  140.5970 C   0  0  0  0  0  0  0  0  0  0  0  0
  187.6460  177.5430  142.9840 C   0  0  1  0  0  3  0  0  0  0  0  0
  188.0290  177.2440  148.0400 C   0  0  0  0  0  3  0  0  0  0  0  0
  180.7010  179.2890  141.3540 C   0  0  0  0  0  2  0  0  0  0  0  0
  183.3050  178.4810  140.6040 C   0  0  0  0  0  0  0  0  0  0  0  0
  187.0090  177.6800  147.1900 C   0  0  0  0  0  3  0  0  0  0  0  0
  181.6310  178.7860  142.4590 C   0  0  0  0  0  2  0  0  0  0  0  0
  188.1950  177.9180  141.6070 C   0  0  1  0  0  3  0  0  0  0  0  0
  188.7200  177.4890  143.9160 O   0  0  0  0  0  0  0  0  0  0  0  0
  184.0990  178.6710  142.8800 C   0  0  0  0  0  3  0  0  0  0  0  0
  185.5380  179.5820  145.4610 C   0  0  0  0  0  1  0  0  0  0  0  0
  189.5140  177.0200  146.1420 C   0  0  0  0  0  3  0  0  0  0  0  0
  186.5780  178.5450  143.4380 C   0  0  1  0  0  3  0  0  0  0  0  0
  188.4900  177.4400  145.2880 C   0  0  0  0  0  0  0  0  0  0  0  0
  190.2960  177.4420  141.0790 C   0  0  0  0  0  1  0  0  0  0  0  0
  189.0160  176.8870  141.1360 O   0  0  0  0  0  0  0  0  0  0  0  0
  179.9890  178.9450  138.9940 C   0  0  0  0  0  2  0  0  0  0  0  0
  180.8160  179.2920  137.7690 C   0  0  0  0  0  2  0  0  0  0  0  0
  180.6280  181.2500  136.4280 O   0  0  0  0  0  0  0  0  0  0  0  0
  181.0980  181.6070  138.6440 O   0  0  0  0  0  1  0  0  0  0  0  0
  180.8290  180.7660  137.5730 C   0  0  0  0  0  0  0  0  0  0  0  0
  1 28  1  6  0  0  0
  1 15  1  0  0  0  0
  2 21  1  0  0  0  0
  3 10  1  0  0  0  0
  4 22  1  1  0  0  0
  4  5  1  0  0  0  0
  5 17  1  0  0  0  0
  6 18  1  0  0  0  0
  6 21  2  0  0  0  0
  7 16  2  0  0  0  0
  7 11  1  0  0  0  0
  8 14  1  0  0  0  0
  9  1  1  0  0  0  0
  9 16  1  0  0  0  0
 10 12  2  0  0  0  0
 11  2  2  0  0  0  0
 12 11  1  0  0  0  0
 12 19  1  0  0  0  0
 13 24  1  0  0  0  0
 13 20  1  1  0  0  0
 15 18  1  0  0  0  0
 16  6  1  0  0  0  0
 17 14  2  0  0  0  0
 19 27  1  6  0  0  0
 19 13  1  0  0  0  0
 20 25  1  0  0  0  0
 23  8  2  0  0  0  0
 24  2  1  6  0  0  0
 24  4  1  0  0  0  0
 25  5  2  0  0  0  0
 25 23  1  0  0  0  0
 26 27  1  0  0  0  0
 29 28  1  0  0  0  0
 30 32  2  0  0  0  0
 32 29  1  0  0  0  0
 32 31  1  0  0  0  0
M  END
>  <MODEL>
3

>  <REMARK>
 VINA RESULT:      -8.5      2.877      5.460
  Name = 
  4 active torsions:
  status: ('A' for Active; 'I' for Inactive)
    1  A    between atoms: C_2  and  C_24
    2  A    between atoms: C_10  and  C_20
    3  A    between atoms: C_10  and  C_24
    4  A    between atoms: O_25  and  C_26
                            x       y       z     vdW  Elec       q    Type
                         _______ _______ _______ _____ _____    ______ ____

>  <TORSDO>
F 4

$$$$
=
 OpenBabel10272413403D

 32 36  0  0  1  0  0  0  0  0999 V2000
  191.1140  175.8190  138.2300 C   0  0  1  0  0  3  0  0  0  0  0  0
  187.9290  177.8390  141.6770 C   0  0  0  0  0  0  0  0  0  0  0  0
  191.6210  177.5370  144.0400 C   0  0  0  0  0  1  0  0  0  0  0  0
  185.4310  178.4070  141.6260 C   0  0  1  0  0  3  0  0  0  0  0  0
  184.1860  178.5050  142.4810 C   0  0  0  0  0  0  0  0  0  0  0  0
  188.9640  177.1250  139.5910 C   0  0  0  0  0  0  0  0  0  0  0  0
  190.1750  176.9120  141.6750 C   0  0  0  0  0  3  0  0  0  0  0  0
  181.8690  178.7140  144.0520 C   0  0  0  0  0  3  0  0  0  0  0  0
  191.1980  176.1740  139.6110 O   0  0  0  0  0  0  0  0  0  0  0  0
  190.2700  177.6930  144.5550 N   0  0  0  0  0  0  0  0  0  0  0  0
  189.1050  177.4840  142.3820 C   0  0  0  0  0  0  0  0  0  0  0  0
  189.1590  177.6640  143.8700 C   0  0  0  0  0  0  0  0  0  0  0  0
  186.6240  177.7460  143.7870 C   0  0  1  0  0  3  0  0  0  0  0  0
  181.7730  178.7390  142.6580 C   0  0  0  0  0  3  0  0  0  0  0  0
  190.2630  176.8350  137.4740 C   0  0  0  0  0  2  0  0  0  0  0  0
  190.1090  176.7270  140.2950 C   0  0  0  0  0  0  0  0  0  0  0  0
  182.9260  178.6320  141.8760 C   0  0  0  0  0  3  0  0  0  0  0  0
  188.8740  176.9100  138.1090 C   0  0  0  0  0  2  0  0  0  0  0  0
  187.8850  177.9500  144.6290 C   0  0  1  0  0  3  0  0  0  0  0  0
  185.4990  178.2430  144.5050 O   0  0  0  0  0  0  0  0  0  0  0  0
  187.8820  177.6650  140.2830 C   0  0  0  0  0  3  0  0  0  0  0  0
  185.4430  179.5380  140.6040 C   0  0  0  0  0  1  0  0  0  0  0  0
  183.1160  178.5620  144.6630 C   0  0  0  0  0  3  0  0  0  0  0  0
  186.7560  178.4440  142.4280 C   0  0  1  0  0  3  0  0  0  0  0  0
  184.2690  178.4370  143.8830 C   0  0  0  0  0  0  0  0  0  0  0  0
  187.6940  178.0410  146.8360 C   0  0  0  0  0  1  0  0  0  0  0  0
  187.8160  177.1460  145.7720 O   0  0  0  0  0  0  0  0  0  0  0  0
  192.5020  175.7600  137.6220 C   0  0  0  0  0  2  0  0  0  0  0  0
  193.0570  174.3500  137.7210 C   0  0  0  0  0  2  0  0  0  0  0  0
  195.2000  175.3890  137.7360 O   0  0  0  0  0  0  0  0  0  0  0  0
  195.0810  173.3450  138.7700 O   0  0  0  0  0  1  0  0  0  0  0  0
  194.5000  174.4010  138.0820 C   0  0  0  0  0  0  0  0  0  0  0  0
  1 28  1  6  0  0  0
  1  9  1  0  0  0  0
  2 11  1  0  0  0  0
  3 10  1  0  0  0  0
  4 22  1  6  0  0  0
  4 24  1  0  0  0  0
  4  5  1  0  0  0  0
  5 25  1  0  0  0  0
  6 21  1  0  0  0  0
  6 16  2  0  0  0  0
  7 11  2  0  0  0  0
  8 23  1  0  0  0  0
  9 16  1  0  0  0  0
 11 12  1  0  0  0  0
 12 10  2  0  0  0  0
 12 19  1  0  0  0  0
 13 20  1  1  0  0  0
 13 19  1  0  0  0  0
 14  8  2  0  0  0  0
 15 18  1  0  0  0  0
 15  1  1  0  0  0  0
 16  7  1  0  0  0  0
 17  5  2  0  0  0  0
 17 14  1  0  0  0  0
 18  6  1  0  0  0  0
 19 27  1  1  0  0  0
 21  2  2  0  0  0  0
 24  2  1  6  0  0  0
 24 13  1  0  0  0  0
 25 20  1  0  0  0  0
 25 23  2  0  0  0  0
 27 26  1  0  0  0  0
 28 29  1  0  0  0  0
 29 32  1  0  0  0  0
 30 32  2  0  0  0  0
 32 31  1  0  0  0  0
M  END
>  <MODEL>
4

>  <REMARK>
 VINA RESULT:      -8.2      3.221      5.460
  Name = 
  4 active torsions:
  status: ('A' for Active; 'I' for Inactive)
    1  A    between atoms: C_2  and  C_24
    2  A    between atoms: C_10  and  C_20
    3  A    between atoms: C_10  and  C_24
    4  A    between atoms: O_25  and  C_26
                            x       y       z     vdW  Elec       q    Type
                         _______ _______ _______ _____ _____    ______ ____

>  <TORSDO>
F 4

$$$$
=
 OpenBabel10272413403D

 32 36  0  0  1  0  0  0  0  0999 V2000
  181.0810  178.2120  138.3290 C   0  0  1  0  0  3  0  0  0  0  0  0
  185.3090  178.5530  141.1800 C   0  0  0  0  0  0  0  0  0  0  0  0
  187.0170  178.7730  137.1380 C   0  0  0  0  0  1  0  0  0  0  0  0
  185.7280  178.4290  143.7050 C   0  0  1  0  0  3  0  0  0  0  0  0
  186.7360  178.0120  144.7520 C   0  0  0  0  0  0  0  0  0  0  0  0
  182.9930  178.5870  140.4230 C   0  0  0  0  0  0  0  0  0  0  0  0
  184.7820  178.2820  138.8230 C   0  0  0  0  0  3  0  0  0  0  0  0
  188.6010  177.2660  146.7140 C   0  0  0  0  0  3  0  0  0  0  0  0
  182.4850  178.2860  138.0680 O   0  0  0  0  0  0  0  0  0  0  0  0
  187.7270  178.4520  138.3660 N   0  0  0  0  0  0  0  0  0  0  0  0
  185.7430  178.3890  139.8420 C   0  0  0  0  0  0  0  0  0  0  0  0
  187.2090  178.2680  139.5490 C   0  0  0  0  0  0  0  0  0  0  0  0
  187.4830  177.6830  142.0030 C   0  0  1  0  0  3  0  0  0  0  0  0
  187.2810  177.5500  147.0760 C   0  0  0  0  0  3  0  0  0  0  0  0
  180.7180  179.0950  139.5190 C   0  0  0  0  0  2  0  0  0  0  0  0
  183.4200  178.3740  139.1050 C   0  0  0  0  0  0  0  0  0  0  0  0
  186.3530  177.9180  146.1000 C   0  0  0  0  0  3  0  0  0  0  0  0
  181.5290  178.6640  140.7410 C   0  0  0  0  0  2  0  0  0  0  0  0
  188.1760  178.0400  140.6870 C   0  0  1  0  0  3  0  0  0  0  0  0
  188.4420  177.7020  143.0550 O   0  0  0  0  0  0  0  0  0  0  0  0
  183.9330  178.6620  141.4490 C   0  0  0  0  0  3  0  0  0  0  0  0
  185.0250  179.7070  144.1480 C   0  0  0  0  0  1  0  0  0  0  0  0
  188.9860  177.3310  145.3730 C   0  0  0  0  0  3  0  0  0  0  0  0
  186.3330  178.6540  142.2960 C   0  0  1  0  0  3  0  0  0  0  0  0
  188.0550  177.6830  144.3920 C   0  0  0  0  0  0  0  0  0  0  0  0
  190.3370  177.6450  140.3840 C   0  0  0  0  0  1  0  0  0  0  0  0
  189.0840  177.0300  140.3510 O   0  0  0  0  0  0  0  0  0  0  0  0
  180.3010  178.6530  137.1060 C   0  0  0  0  0  2  0  0  0  0  0  0
  180.8130  179.9950  136.6140 C   0  0  0  0  0  2  0  0  0  0  0  0
  181.4520  178.8770  134.6120 O   0  0  0  0  0  1  0  0  0  0  0  0
  180.8270  181.0700  134.3670 O   0  0  0  0  0  0  0  0  0  0  0  0
  181.0390  179.9400  135.1450 C   0  0  0  0  0  0  0  0  0  0  0  0
  1 28  1  6  0  0  0
  1 15  1  0  0  0  0
  2 21  1  0  0  0  0
  3 10  1  0  0  0  0
  4 22  1  1  0  0  0
  4  5  1  0  0  0  0
  5 17  1  0  0  0  0
  6 18  1  0  0  0  0
  6 21  2  0  0  0  0
  7 16  2  0  0  0  0
  7 11  1  0  0  0  0
  8 14  1  0  0  0  0
  9  1  1  0  0  0  0
  9 16  1  0  0  0  0
 10 12  2  0  0  0  0
 11  2  2  0  0  0  0
 12 11  1  0  0  0  0
 12 19  1  0  0  0  0
 13 24  1  0  0  0  0
 13 20  1  1  0  0  0
 15 18  1  0  0  0  0
 16  6  1  0  0  0  0
 17 14  2  0  0  0  0
 19 27  1  6  0  0  0
 19 13  1  0  0  0  0
 20 25  1  0  0  0  0
 23  8  2  0  0  0  0
 24  2  1  6  0  0  0
 24  4  1  0  0  0  0
 25  5  2  0  0  0  0
 25 23  1  0  0  0  0
 27 26  1  0  0  0  0
 29 28  1  0  0  0  0
 30 32  1  0  0  0  0
 31 32  2  0  0  0  0
 32 29  1  0  0  0  0
M  END
>  <MODEL>
5

>  <REMARK>
 VINA RESULT:      -8.2      3.059      5.364
  Name = 
  4 active torsions:
  status: ('A' for Active; 'I' for Inactive)
    1  A    between atoms: C_2  and  C_24
    2  A    between atoms: C_10  and  C_20
    3  A    between atoms: C_10  and  C_24
    4  A    between atoms: O_25  and  C_26
                            x       y       z     vdW  Elec       q    Type
                         _______ _______ _______ _____ _____    ______ ____

>  <TORSDO>
F 4

$$$$
=
 OpenBabel10272413403D

 32 36  0  0  1  0  0  0  0  0999 V2000
  188.7650  176.2610  135.9590 C   0  0  1  0  0  3  0  0  0  0  0  0
  188.4020  177.7830  140.8240 C   0  0  0  0  0  0  0  0  0  0  0  0
  192.7510  177.2880  140.4340 C   0  0  0  0  0  1  0  0  0  0  0  0
  186.4090  178.2950  142.3510 C   0  0  1  0  0  3  0  0  0  0  0  0
  185.9350  178.2610  143.7870 C   0  0  0  0  0  0  0  0  0  0  0  0
  187.9370  177.3470  138.4730 C   0  0  0  0  0  0  0  0  0  0  0  0
  190.1430  176.9150  139.3680 C   0  0  0  0  0  3  0  0  0  0  0  0
  185.0410  178.2280  146.4480 C   0  0  0  0  0  3  0  0  0  0  0  0
  189.6810  176.4520  137.0400 O   0  0  0  0  0  0  0  0  0  0  0  0
  191.9900  177.3500  141.6720 N   0  0  0  0  0  0  0  0  0  0  0  0
  189.7450  177.3740  140.6340 C   0  0  0  0  0  0  0  0  0  0  0  0
  190.6910  177.3780  141.7970 C   0  0  0  0  0  0  0  0  0  0  0  0
  188.6240  177.4100  143.2680 C   0  0  1  0  0  3  0  0  0  0  0  0
  184.1280  178.4170  145.4070 C   0  0  0  0  0  3  0  0  0  0  0  0
  187.6850  177.3400  135.9850 C   0  0  0  0  0  2  0  0  0  0  0  0
  189.2520  176.8940  138.2960 C   0  0  0  0  0  0  0  0  0  0  0  0
  184.5720  178.4300  144.0820 C   0  0  0  0  0  3  0  0  0  0  0  0
  186.9630  177.3070  137.3320 C   0  0  0  0  0  2  0  0  0  0  0  0
  190.1460  177.5410  143.1960 C   0  0  1  0  0  3  0  0  0  0  0  0
  188.1840  177.7910  144.5670 O   0  0  0  0  0  0  0  0  0  0  0  0
  187.5180  177.7750  139.7310 C   0  0  0  0  0  3  0  0  0  0  0  0
  185.8650  179.5390  141.6590 C   0  0  0  0  0  1  0  0  0  0  0  0
  186.3940  178.0340  146.1630 C   0  0  0  0  0  3  0  0  0  0  0  0
  187.9500  178.2670  142.1900 C   0  0  1  0  0  3  0  0  0  0  0  0
  186.8390  178.0300  144.8380 C   0  0  0  0  0  0  0  0  0  0  0  0
  191.2470  177.3590  145.1130 C   0  0  0  0  0  1  0  0  0  0  0  0
  190.7350  176.6060  144.0540 O   0  0  0  0  0  0  0  0  0  0  0  0
  189.5040  176.3070  134.6360 C   0  0  0  0  0  2  0  0  0  0  0  0
  190.1450  174.9610  134.3470 C   0  0  0  0  0  2  0  0  0  0  0  0
  192.1810  176.1800  134.5410 O   0  0  0  0  0  0  0  0  0  0  0  0
  192.3740  173.8990  134.6770 O   0  0  0  0  0  1  0  0  0  0  0  0
  191.6170  175.0540  134.5370 C   0  0  0  0  0  0  0  0  0  0  0  0
  1 28  1  6  0  0  0
  1 15  1  0  0  0  0
  1  9  1  0  0  0  0
  3 10  1  0  0  0  0
  4 22  1  1  0  0  0
  4  5  1  0  0  0  0
  5 17  2  0  0  0  0
  5 25  1  0  0  0  0
  6 21  1  0  0  0  0
  7 11  2  0  0  0  0
  9 16  1  0  0  0  0
 10 12  2  0  0  0  0
 11  2  1  0  0  0  0
 11 12  1  0  0  0  0
 12 19  1  0  0  0  0
 13 20  1  1  0  0  0
 14  8  2  0  0  0  0
 15 18  1  0  0  0  0
 16  6  2  0  0  0  0
 16  7  1  0  0  0  0
 17 14  1  0  0  0  0
 18  6  1  0  0  0  0
 19 13  1  0  0  0  0
 19 27  1  1  0  0  0
 20 25  1  0  0  0  0
 21  2  2  0  0  0  0
 23  8  1  0  0  0  0
 24  2  1  6  0  0  0
 24  4  1  0  0  0  0
 24 13  1  0  0  0  0
 25 23  2  0  0  0  0
 27 26  1  0  0  0  0
 29 32  1  0  0  0  0
 29 28  1  0  0  0  0
 32 30  2  0  0  0  0
 32 31  1  0  0  0  0
M  END
>  <MODEL>
6

>  <REMARK>
 VINA RESULT:      -8.1      2.763      4.681
  Name = 
  4 active torsions:
  status: ('A' for Active; 'I' for Inactive)
    1  A    between atoms: C_2  and  C_24
    2  A    between atoms: C_10  and  C_20
    3  A    between atoms: C_10  and  C_24
    4  A    between atoms: O_25  and  C_26
                            x       y       z     vdW  Elec       q    Type
                         _______ _______ _______ _____ _____    ______ ____

>  <TORSDO>
F 4

$$$$
=
 OpenBabel10272413403D

 32 36  0  0  1  0  0  0  0  0999 V2000
  190.0170  176.6330  143.9610 C   0  0  1  0  0  3  0  0  0  0  0  0
  185.4850  178.4000  142.3960 C   0  0  0  0  0  0  0  0  0  0  0  0
  185.2220  179.1620  146.7160 C   0  0  0  0  0  1  0  0  0  0  0  0
  184.3170  178.4390  140.1150 C   0  0  1  0  0  3  0  0  0  0  0  0
  182.9660  178.3940  139.4380 C   0  0  0  0  0  0  0  0  0  0  0  0
  187.7990  177.6440  142.4640 C   0  0  0  0  0  0  0  0  0  0  0  0
  186.5700  177.9540  144.5240 C   0  0  0  0  0  3  0  0  0  0  0  0
  180.4660  178.3330  138.1610 C   0  0  0  0  0  3  0  0  0  0  0  0
  188.8580  177.1750  144.5980 O   0  0  0  0  0  0  0  0  0  0  0  0
  184.1150  179.1070  145.7740 N   0  0  0  0  0  0  0  0  0  0  0  0
  185.4380  178.3850  143.8120 C   0  0  0  0  0  0  0  0  0  0  0  0
  184.1700  178.7650  144.5150 C   0  0  0  0  0  0  0  0  0  0  0  0
  183.0050  178.3210  142.3050 C   0  0  1  0  0  3  0  0  0  0  0  0
  181.6360  178.1560  137.4160 C   0  0  0  0  0  3  0  0  0  0  0  0
  190.2760  177.3480  142.6380 C   0  0  0  0  0  2  0  0  0  0  0  0
  187.7390  177.5810  143.8630 C   0  0  0  0  0  0  0  0  0  0  0  0
  182.8800  178.1840  138.0520 C   0  0  0  0  0  3  0  0  0  0  0  0
  189.0450  177.2240  141.7410 C   0  0  0  0  0  2  0  0  0  0  0  0
  182.8890  178.8840  143.7220 C   0  0  1  0  0  3  0  0  0  0  0  0
  181.8370  178.6690  141.5680 O   0  0  0  0  0  0  0  0  0  0  0  0
  186.6750  178.0390  141.7420 C   0  0  0  0  0  3  0  0  0  0  0  0
  185.2320  179.4060  139.3720 C   0  0  0  0  0  1  0  0  0  0  0  0
  180.5400  178.5170  139.5430 C   0  0  0  0  0  3  0  0  0  0  0  0
  184.2660  178.8480  141.6090 C   0  0  1  0  0  3  0  0  0  0  0  0
  181.7820  178.5280  140.1850 C   0  0  0  0  0  0  0  0  0  0  0  0
  180.7100  179.0000  144.1140 C   0  0  0  0  0  1  0  0  0  0  0  0
  181.8460  178.2380  144.3950 O   0  0  0  0  0  0  0  0  0  0  0  0
  191.2250  176.7770  144.8670 C   0  0  0  0  0  2  0  0  0  0  0  0
  190.7840  176.8560  146.3180 C   0  0  0  0  0  2  0  0  0  0  0  0
  192.2240  176.9110  148.2130 O   0  0  0  0  0  1  0  0  0  0  0  0
  192.4150  175.0580  146.8760 O   0  0  0  0  0  0  0  0  0  0  0  0
  191.8360  176.2780  147.1960 C   0  0  0  0  0  0  0  0  0  0  0  0
  1  9  1  0  0  0  0
  1 28  1  1  0  0  0
  2 11  1  0  0  0  0
  4 22  1  6  0  0  0
  4 24  1  0  0  0  0
  5  4  1  0  0  0  0
  5 25  1  0  0  0  0
  6 16  2  0  0  0  0
  8 23  1  0  0  0  0
 10  3  1  0  0  0  0
 11 12  1  0  0  0  0
 11  7  2  0  0  0  0
 12 10  2  0  0  0  0
 13 20  1  6  0  0  0
 13 19  1  0  0  0  0
 14 17  1  0  0  0  0
 14  8  2  0  0  0  0
 15  1  1  0  0  0  0
 16  7  1  0  0  0  0
 16  9  1  0  0  0  0
 17  5  2  0  0  0  0
 18  6  1  0  0  0  0
 18 15  1  0  0  0  0
 19 27  1  1  0  0  0
 19 12  1  0  0  0  0
 21  2  2  0  0  0  0
 21  6  1  0  0  0  0
 23 25  2  0  0  0  0
 24 13  1  0  0  0  0
 24  2  1  1  0  0  0
 25 20  1  0  0  0  0
 26 27  1  0  0  0  0
 28 29  1  0  0  0  0
 29 32  1  0  0  0  0
 31 32  2  0  0  0  0
 32 30  1  0  0  0  0
M  END
>  <MODEL>
7

>  <REMARK>
 VINA RESULT:      -8.1      3.501      7.673
  Name = 
  4 active torsions:
  status: ('A' for Active; 'I' for Inactive)
    1  A    between atoms: C_2  and  C_24
    2  A    between atoms: C_10  and  C_20
    3  A    between atoms: C_10  and  C_24
    4  A    between atoms: O_25  and  C_26
                            x       y       z     vdW  Elec       q    Type
                         _______ _______ _______ _____ _____    ______ ____

>  <TORSDO>
F 4

$$$$
=
 OpenBabel10272413403D

 32 36  0  0  1  0  0  0  0  0999 V2000
  182.1220  178.4270  142.4270 C   0  0  1  0  0  3  0  0  0  0  0  0
  187.1350  178.0690  143.3580 C   0  0  0  0  0  0  0  0  0  0  0  0
  187.1470  178.7720  139.0200 C   0  0  0  0  0  1  0  0  0  0  0  0
  188.4860  177.5470  145.4720 C   0  0  1  0  0  3  0  0  0  0  0  0
  189.7660  176.9160  145.9730 C   0  0  0  0  0  0  0  0  0  0  0  0
  184.7290  178.3640  143.6040 C   0  0  0  0  0  0  0  0  0  0  0  0
  185.7040  178.1840  141.3970 C   0  0  0  0  0  3  0  0  0  0  0  0
  192.1450  175.7690  146.9260 C   0  0  0  0  0  3  0  0  0  0  0  0
  183.3120  178.4470  141.6340 O   0  0  0  0  0  0  0  0  0  0  0  0
  188.2370  178.2280  139.8160 N   0  0  0  0  0  0  0  0  0  0  0  0
  186.9920  178.0770  141.9490 C   0  0  0  0  0  0  0  0  0  0  0  0
  188.2020  177.9050  141.0800 C   0  0  0  0  0  0  0  0  0  0  0  0
  189.3390  176.9480  143.1380 C   0  0  1  0  0  3  0  0  0  0  0  0
  191.1140  176.0810  147.8170 C   0  0  0  0  0  3  0  0  0  0  0  0
  182.3590  179.1470  143.7510 C   0  0  0  0  0  2  0  0  0  0  0  0
  184.5800  178.3210  142.2100 C   0  0  0  0  0  0  0  0  0  0  0  0
  189.9290  176.6490  147.3420 C   0  0  0  0  0  3  0  0  0  0  0  0
  183.5240  178.4890  144.4900 C   0  0  0  0  0  2  0  0  0  0  0  0
  189.5010  177.4500  141.7020 C   0  0  1  0  0  3  0  0  0  0  0  0
  190.6260  176.7490  143.7110 O   0  0  0  0  0  0  0  0  0  0  0  0
  185.9960  178.2270  144.1670 C   0  0  0  0  0  3  0  0  0  0  0  0
  188.1670  178.7880  146.2970 C   0  0  0  0  0  1  0  0  0  0  0  0
  191.9820  176.0060  145.5600 C   0  0  0  0  0  3  0  0  0  0  0  0
  188.5160  177.9380  143.9720 C   0  0  1  0  0  3  0  0  0  0  0  0
  190.7910  176.5590  145.0800 C   0  0  0  0  0  0  0  0  0  0  0  0
  191.2140  177.0320  140.3570 C   0  0  0  0  0  1  0  0  0  0  0  0
  190.0800  176.4440  140.9210 O   0  0  0  0  0  0  0  0  0  0  0  0
  180.9860  179.0940  141.6760 C   0  0  0  0  0  2  0  0  0  0  0  0
  181.1610  178.9000  140.1810 C   0  0  0  0  0  2  0  0  0  0  0  0
  181.9230  180.4440  138.5370 O   0  0  0  0  0  0  0  0  0  0  0  0
  180.2780  181.2160  139.9360 O   0  0  0  0  0  1  0  0  0  0  0  0
  181.1390  180.2200  139.4960 C   0  0  0  0  0  0  0  0  0  0  0  0
  1 28  1  6  0  0  0
  1 15  1  0  0  0  0
  2 21  1  0  0  0  0
  3 10  1  0  0  0  0
  4  5  1  0  0  0  0
  4 22  1  1  0  0  0
  5 17  1  0  0  0  0
  6 21  2  0  0  0  0
  6 18  1  0  0  0  0
  7 11  1  0  0  0  0
  7 16  2  0  0  0  0
  8 14  1  0  0  0  0
  9 16  1  0  0  0  0
  9  1  1  0  0  0  0
 10 12  2  0  0  0  0
 11  2  2  0  0  0  0
 12 19  1  0  0  0  0
 12 11  1  0  0  0  0
 13 20  1  1  0  0  0
 13 24  1  0  0  0  0
 15 18  1  0  0  0  0
 16  6  1  0  0  0  0
 17 14  2  0  0  0  0
 19 27  1  6  0  0  0
 19 13  1  0  0  0  0
 20 25  1  0  0  0  0
 23  8  2  0  0  0  0
 24  2  1  6  0  0  0
 24  4  1  0  0  0  0
 25 23  1  0  0  0  0
 25  5  2  0  0  0  0
 26 27  1  0  0  0  0
 29 28  1  0  0  0  0
 30 32  2  0  0  0  0
 32 31  1  0  0  0  0
 32 29  1  0  0  0  0
M  END
>  <MODEL>
8

>  <REMARK>
 VINA RESULT:      -8.0      2.734      5.724
  Name = 
  4 active torsions:
  status: ('A' for Active; 'I' for Inactive)
    1  A    between atoms: C_2  and  C_24
    2  A    between atoms: C_10  and  C_20
    3  A    between atoms: C_10  and  C_24
    4  A    between atoms: O_25  and  C_26
                            x       y       z     vdW  Elec       q    Type
                         _______ _______ _______ _____ _____    ______ ____

>  <TORSDO>
F 4

$$$$
=
 OpenBabel10272413403D

 32 36  0  0  1  0  0  0  0  0999 V2000
  189.9360  177.0250  145.3020 C   0  0  1  0  0  3  0  0  0  0  0  0
  189.9070  177.1590  140.1930 C   0  0  0  0  0  0  0  0  0  0  0  0
  186.1080  179.1740  141.0950 C   0  0  0  0  0  1  0  0  0  0  0  0
  191.4880  176.2150  138.4110 C   0  0  1  0  0  3  0  0  0  0  0  0
  191.5460  175.6600  137.0050 C   0  0  0  0  0  0  0  0  0  0  0  0
  190.6060  176.9940  142.5210 C   0  0  0  0  0  0  0  0  0  0  0  0
  188.3430  177.6620  141.9840 C   0  0  0  0  0  3  0  0  0  0  0  0
  191.6800  174.6480  134.3900 C   0  0  0  0  0  3  0  0  0  0  0  0
  189.0220  177.4720  144.2980 O   0  0  0  0  0  0  0  0  0  0  0  0
  186.4970  178.5800  139.8250 N   0  0  0  0  0  0  0  0  0  0  0  0
  188.6220  177.5840  140.6090 C   0  0  0  0  0  0  0  0  0  0  0  0
  187.5700  177.8780  139.5820 C   0  0  0  0  0  0  0  0  0  0  0  0
  188.9870  176.5110  137.9800 C   0  0  1  0  0  3  0  0  0  0  0  0
  192.7720  174.5070  135.2510 C   0  0  0  0  0  3  0  0  0  0  0  0
  191.3720  177.3220  144.8780 C   0  0  0  0  0  2  0  0  0  0  0  0
  189.3190  177.3650  142.9340 C   0  0  0  0  0  0  0  0  0  0  0  0
  192.7040  175.0080  136.5530 C   0  0  0  0  0  3  0  0  0  0  0  0
  191.6570  176.6510  143.5350 C   0  0  0  0  0  2  0  0  0  0  0  0
  187.7940  177.4540  138.1490 C   0  0  1  0  0  3  0  0  0  0  0  0
  189.2540  176.3410  136.5920 O   0  0  0  0  0  0  0  0  0  0  0  0
  190.8880  176.8810  141.1610 C   0  0  0  0  0  3  0  0  0  0  0  0
  192.7200  177.0730  138.6770 C   0  0  0  0  0  1  0  0  0  0  0  0
  190.5140  175.2730  134.8380 C   0  0  0  0  0  3  0  0  0  0  0  0
  190.2200  177.0540  138.7120 C   0  0  1  0  0  3  0  0  0  0  0  0
  190.4370  175.7600  136.1460 C   0  0  0  0  0  0  0  0  0  0  0  0
  186.2350  177.6580  136.5860 C   0  0  0  0  0  1  0  0  0  0  0  0
  186.6420  176.8420  137.6440 O   0  0  0  0  0  0  0  0  0  0  0  0
  189.6370  177.7110  146.6200 C   0  0  0  0  0  2  0  0  0  0  0  0
  188.6060  176.9170  147.4020 C   0  0  0  0  0  2  0  0  0  0  0  0
  186.7310  178.3800  147.3040 O   0  0  0  0  0  0  0  0  0  0  0  0
  187.6950  178.1390  149.3720 O   0  0  0  0  0  1  0  0  0  0  0  0
  187.6180  177.8420  148.0180 C   0  0  0  0  0  0  0  0  0  0  0  0
  1 28  1  1  0  0  0
  2 11  2  0  0  0  0
  2 21  1  0  0  0  0
  4 22  1  6  0  0  0
  4 24  1  0  0  0  0
  5  4  1  0  0  0  0
  6 16  1  0  0  0  0
  6 18  1  0  0  0  0
  7 16  2  0  0  0  0
  8 23  2  0  0  0  0
  8 14  1  0  0  0  0
  9  1  1  0  0  0  0
 10  3  1  0  0  0  0
 11  7  1  0  0  0  0
 12 10  2  0  0  0  0
 12 11  1  0  0  0  0
 13 20  1  6  0  0  0
 13 19  1  0  0  0  0
 13 24  1  0  0  0  0
 14 17  2  0  0  0  0
 15  1  1  0  0  0  0
 16  9  1  0  0  0  0
 17  5  1  0  0  0  0
 18 15  1  0  0  0  0
 19 27  1  1  0  0  0
 19 12  1  0  0  0  0
 21  6  2  0  0  0  0
 23 25  1  0  0  0  0
 24  2  1  1  0  0  0
 25 20  1  0  0  0  0
 25  5  2  0  0  0  0
 26 27  1  0  0  0  0
 28 29  1  0  0  0  0
 29 32  1  0  0  0  0
 30 32  2  0  0  0  0
 32 31  1  0  0  0  0
M  END
>  <MODEL>
9

>  <REMARK>
 VINA RESULT:      -7.9      2.483      8.666
  Name = 
  4 active torsions:
  status: ('A' for Active; 'I' for Inactive)
    1  A    between atoms: C_2  and  C_24
    2  A    between atoms: C_10  and  C_20
    3  A    between atoms: C_10  and  C_24
    4  A    between atoms: O_25  and  C_26
                            x       y       z     vdW  Elec       q    Type
                         _______ _______ _______ _____ _____    ______ ____

>  <TORSDO>
F 4

$$$$
