=
 OpenBabel10272414323D

 43 48  0  0  1  0  0  0  0  0999 V2000
  191.3820  176.3350  147.2520 C   0  0  0  0  0  0  0  0  0  0  0  0
  187.2790  177.8450  144.6290 C   0  0  0  0  0  0  0  0  0  0  0  0
  188.9460  177.6030  142.8750 C   0  0  0  0  0  3  0  0  0  0  0  0
  189.1810  177.0210  146.6390 C   0  0  0  0  0  0  0  0  0  0  0  0
  191.9820  176.8160  145.9630 C   0  0  0  0  0  2  0  0  0  0  0  0
  192.1160  175.7830  148.1140 O   0  0  0  0  0  0  0  0  0  0  0  0
  189.6380  177.2870  145.2600 C   0  0  0  0  0  0  0  0  0  0  0  0
  189.9940  176.5490  147.5330 N   0  0  0  0  0  0  0  0  0  0  0  0
  190.9310  177.1490  144.9420 C   0  0  0  0  0  3  0  0  0  0  0  0
  187.9800  177.8540  141.8970 C   0  0  0  0  0  0  0  0  0  0  0  0
  188.6150  177.5970  144.2380 C   0  0  0  0  0  0  0  0  0  0  0  0
  186.9080  177.9570  146.0890 C   0  0  0  0  0  2  0  0  0  0  0  0
  186.2990  178.1040  143.6550 C   0  0  0  0  0  0  0  0  0  0  0  0
  186.6640  178.1040  142.3000 C   0  0  0  0  0  3  0  0  0  0  0  0
  187.8020  177.1900  146.9540 N   0  0  0  0  0  2  0  0  0  0  0  0
  188.3610  177.8600  140.4680 C   0  0  0  0  0  0  0  0  0  0  0  0
  189.8060  177.2370  139.9860 S   0  0  0  0  0  0  0  0  0  0  0  0
  187.4480  178.4140  139.5100 N   0  0  0  0  0  2  0  0  0  0  0  0
  188.9790  178.6110  137.3580 O   0  0  0  0  0  0  0  0  0  0  0  0
  187.5870  178.2420  137.7900 S   0  0  0  0  0  0  0  0  0  0  0  0
  186.5890  179.1430  137.1180 O   0  0  0  0  0  0  0  0  0  0  0  0
  187.2400  176.5310  137.3520 C   0  0  2  0  0  3  0  0  0  0  0  0
  185.6210  176.6880  135.1810 S   0  0  0  0  0  0  0  0  0  0  0  0
  188.1010  176.1210  136.1770 C   0  0  0  0  0  2  0  0  0  0  0  0
  185.7940  176.2460  136.9400 C   0  0  1  0  0  0  0  0  0  0  0  0
  185.5730  174.8880  137.0690 F   0  0  0  0  0  0  0  0  0  0  0  0
  187.4220  176.5880  134.9040 C   0  0  0  0  0  2  0  0  0  0  0  0
  184.7710  176.9890  137.7990 C   0  0  0  0  0  2  0  0  0  0  0  0
  183.4240  176.5050  137.5370 N   0  0  0  0  0  0  0  0  0  0  0  0
  181.4640  175.5450  138.7070 C   0  0  0  0  0  2  0  0  0  0  0  0
  181.0890  177.2790  137.3010 C   0  0  0  0  0  2  0  0  0  0  0  0
  180.9260  175.8880  137.4530 O   0  0  0  0  0  0  0  0  0  0  0  0
  182.5750  177.6780  137.3310 C   0  0  0  0  0  2  0  0  0  0  0  0
  182.9830  175.7800  138.7340 C   0  0  0  0  0  2  0  0  0  0  0  0
  184.9850  178.3990  144.0650 O   0  0  0  0  0  0  0  0  0  0  0  0
  182.7500  178.4610  141.0790 C   0  0  0  0  0  3  0  0  0  0  0  0
  181.5570  178.8980  141.6670 C   0  0  0  0  0  0  0  0  0  0  0  0
  182.6700  178.9980  143.8200 C   0  0  0  0  0  3  0  0  0  0  0  0
  183.8960  178.2970  141.8590 C   0  0  0  0  0  3  0  0  0  0  0  0
  183.8660  178.5700  143.2370 C   0  0  0  0  0  0  0  0  0  0  0  0
  181.5220  179.1620  143.0400 C   0  0  0  0  0  3  0  0  0  0  0  0
  180.3240  179.7660  139.7880 N   0  0  0  0  0  2  0  0  0  0  0  0
  180.3320  179.0690  140.8760 C   0  0  0  0  0  3  0  0  0  0  0  0
  1  8  1  0  0  0  0
  1  6  2  0  0  0  0
  2 12  1  0  0  0  0
  3 11  2  0  0  0  0
  4 15  1  0  0  0  0
  4  8  2  0  0  0  0
  5  1  1  0  0  0  0
  7  4  1  0  0  0  0
  9  7  2  0  0  0  0
  9  5  1  0  0  0  0
 10 14  2  0  0  0  0
 10  3  1  0  0  0  0
 11  2  1  0  0  0  0
 11  7  1  0  0  0  0
 12 15  1  0  0  0  0
 13 35  1  0  0  0  0
 13  2  2  0  0  0  0
 14 13  1  0  0  0  0
 16 10  1  0  0  0  0
 17 16  2  0  0  0  0
 18 16  1  0  0  0  0
 19 20  2  0  0  0  0
 20 18  1  0  0  0  0
 21 20  2  0  0  0  0
 22 20  1  6  0  0  0
 23 25  1  0  0  0  0
 24 22  1  0  0  0  0
 25 26  1  1  0  0  0
 25 22  1  0  0  0  0
 25 28  1  0  0  0  0
 27 23  1  0  0  0  0
 27 24  1  0  0  0  0
 29 28  1  0  0  0  0
 29 34  1  0  0  0  0
 30 34  1  0  0  0  0
 31 33  1  0  0  0  0
 31 32  1  0  0  0  0
 32 30  1  0  0  0  0
 33 29  1  0  0  0  0
 36 37  2  0  0  0  0
 36 39  1  0  0  0  0
 37 41  1  0  0  0  0
 39 40  2  0  0  0  0
 40 38  1  0  0  0  0
 40 35  1  0  0  0  0
 41 38  2  0  0  0  0
 42 43  2  0  0  0  0
 43 37  1  0  0  0  0
M  END
>  <MODEL>
1

>  <REMARK>
 VINA RESULT:      -9.5      0.000      0.000
  Name = 
  9 active torsions:
  status: ('A' for Active; 'I' for Inactive)
    1  A    between atoms: O_1  and  C_34
    2  A    between atoms: O_1  and  C_35
    3  A    between atoms: C_2  and  N_6
    4  A    between atoms: C_2  and  C_27
    5  A    between atoms: C_4  and  S_12
    6  A    between atoms: N_6  and  S_12
    7  A    between atoms: N_11  and  C_14
    8  A    between atoms: C_14  and  C_22
    9  A    between atoms: C_19  and  C_37
                            x       y       z     vdW  Elec       q    Type
                         _______ _______ _______ _____ _____    ______ ____

>  <TORSDO>
F 9

$$$$
=
 OpenBabel10272414323D

 43 48  0  0  1  0  0  0  0  0999 V2000
  191.1070  176.9070  146.8170 C   0  0  0  0  0  0  0  0  0  0  0  0
  189.3610  177.6210  142.0800 C   0  0  0  0  0  0  0  0  0  0  0  0
  187.3800  178.0500  143.4240 C   0  0  0  0  0  3  0  0  0  0  0  0
  190.9330  177.1050  144.4460 C   0  0  0  0  0  0  0  0  0  0  0  0
  189.6210  176.8010  147.0010 C   0  0  0  0  0  2  0  0  0  0  0  0
  191.8630  176.8850  147.8230 O   0  0  0  0  0  0  0  0  0  0  0  0
  189.4690  177.2610  144.5560 C   0  0  0  0  0  0  0  0  0  0  0  0
  191.6730  176.9780  145.5040 N   0  0  0  0  0  0  0  0  0  0  0  0
  188.8710  177.1610  145.7500 C   0  0  0  0  0  3  0  0  0  0  0  0
  186.6710  178.4450  142.2870 C   0  0  0  0  0  0  0  0  0  0  0  0
  188.7170  177.6350  143.3390 C   0  0  0  0  0  0  0  0  0  0  0  0
  190.7620  177.0760  141.9330 C   0  0  0  0  0  2  0  0  0  0  0  0
  188.6560  178.0110  140.9280 C   0  0  0  0  0  0  0  0  0  0  0  0
  187.3190  178.4190  141.0480 C   0  0  0  0  0  3  0  0  0  0  0  0
  191.5420  177.2010  143.1610 N   0  0  0  0  0  2  0  0  0  0  0  0
  185.2600  178.8700  142.4090 C   0  0  0  0  0  0  0  0  0  0  0  0
  184.5060  178.8590  143.8720 S   0  0  0  0  0  0  0  0  0  0  0  0
  184.5610  179.2970  141.2310 N   0  0  0  0  0  2  0  0  0  0  0  0
  181.9420  178.9080  141.2430 O   0  0  0  0  0  0  0  0  0  0  0  0
  183.1970  178.4830  140.5340 S   0  0  0  0  0  0  0  0  0  0  0  0
  183.3820  176.9980  140.6680 O   0  0  0  0  0  0  0  0  0  0  0  0
  183.0960  178.9190  138.7900 C   0  0  2  0  0  3  0  0  0  0  0  0
  180.4500  179.2850  138.3210 S   0  0  0  0  0  0  0  0  0  0  0  0
  182.9160  180.4150  138.6480 C   0  0  0  0  0  2  0  0  0  0  0  0
  181.9360  178.2750  138.0260 C   0  0  1  0  0  0  0  0  0  0  0  0
  182.2340  178.3270  136.6770 F   0  0  0  0  0  0  0  0  0  0  0  0
  181.4430  180.7340  138.8160 C   0  0  0  0  0  2  0  0  0  0  0  0
  181.7010  176.8160  138.4170 C   0  0  0  0  0  2  0  0  0  0  0  0
  182.1310  175.9190  137.3550 N   0  0  0  0  0  0  0  0  0  0  0  0
  183.9310  174.3090  136.8100 C   0  0  0  0  0  2  0  0  0  0  0  0
  181.7960  173.6300  136.4870 C   0  0  0  0  0  2  0  0  0  0  0  0
  182.9710  174.0300  135.8200 O   0  0  0  0  0  0  0  0  0  0  0  0
  181.2600  174.7450  137.4010 C   0  0  0  0  0  2  0  0  0  0  0  0
  183.5110  175.5210  137.6550 C   0  0  0  0  0  2  0  0  0  0  0  0
  189.2970  177.9430  139.6760 O   0  0  0  0  0  0  0  0  0  0  0  0
  187.9140  178.6040  136.2750 C   0  0  0  0  0  3  0  0  0  0  0  0
  187.4830  177.3190  135.9260 C   0  0  0  0  0  0  0  0  0  0  0  0
  188.2570  176.4890  138.0680 C   0  0  0  0  0  3  0  0  0  0  0  0
  188.5120  178.8280  137.5170 C   0  0  0  0  0  3  0  0  0  0  0  0
  188.6830  177.7710  138.4270 C   0  0  0  0  0  0  0  0  0  0  0  0
  187.6590  176.2640  136.8260 C   0  0  0  0  0  3  0  0  0  0  0  0
  186.0120  176.0860  134.4680 N   0  0  0  0  0  2  0  0  0  0  0  0
  186.8610  177.0490  134.6230 C   0  0  0  0  0  3  0  0  0  0  0  0
  1  5  1  0  0  0  0
  1  6  2  0  0  0  0
  2 11  1  0  0  0  0
  4  7  1  0  0  0  0
  4  8  2  0  0  0  0
  7  9  2  0  0  0  0
  8  1  1  0  0  0  0
  9  5  1  0  0  0  0
 10 16  1  0  0  0  0
 10  3  1  0  0  0  0
 11  3  2  0  0  0  0
 11  7  1  0  0  0  0
 12  2  1  0  0  0  0
 12 15  1  0  0  0  0
 13 14  1  0  0  0  0
 13  2  2  0  0  0  0
 14 10  2  0  0  0  0
 15  4  1  0  0  0  0
 16 17  2  0  0  0  0
 18 16  1  0  0  0  0
 20 21  2  0  0  0  0
 20 18  1  0  0  0  0
 20 19  2  0  0  0  0
 22 20  1  1  0  0  0
 23 27  1  0  0  0  0
 24 22  1  0  0  0  0
 24 27  1  0  0  0  0
 25 26  1  6  0  0  0
 25 23  1  0  0  0  0
 25 28  1  0  0  0  0
 25 22  1  0  0  0  0
 29 33  1  0  0  0  0
 29 34  1  0  0  0  0
 29 28  1  0  0  0  0
 30 34  1  0  0  0  0
 31 33  1  0  0  0  0
 32 31  1  0  0  0  0
 32 30  1  0  0  0  0
 35 13  1  0  0  0  0
 36 39  1  0  0  0  0
 37 36  2  0  0  0  0
 37 41  1  0  0  0  0
 38 40  1  0  0  0  0
 39 40  2  0  0  0  0
 40 35  1  0  0  0  0
 41 38  2  0  0  0  0
 42 43  2  0  0  0  0
 43 37  1  0  0  0  0
M  END
>  <MODEL>
2

>  <REMARK>
 VINA RESULT:      -9.1      2.765      5.207
  Name = 
  9 active torsions:
  status: ('A' for Active; 'I' for Inactive)
    1  A    between atoms: O_1  and  C_34
    2  A    between atoms: O_1  and  C_35
    3  A    between atoms: C_2  and  N_6
    4  A    between atoms: C_2  and  C_27
    5  A    between atoms: C_4  and  S_12
    6  A    between atoms: N_6  and  S_12
    7  A    between atoms: N_11  and  C_14
    8  A    between atoms: C_14  and  C_22
    9  A    between atoms: C_19  and  C_37
                            x       y       z     vdW  Elec       q    Type
                         _______ _______ _______ _____ _____    ______ ____

>  <TORSDO>
F 9

$$$$
=
 OpenBabel10272414323D

 43 48  0  0  1  0  0  0  0  0999 V2000
  191.0830  176.8920  146.8480 C   0  0  0  0  0  0  0  0  0  0  0  0
  189.2540  177.7200  142.1610 C   0  0  0  0  0  0  0  0  0  0  0  0
  187.2500  177.8910  143.5290 C   0  0  0  0  0  3  0  0  0  0  0  0
  190.8790  177.2100  144.4920 C   0  0  0  0  0  0  0  0  0  0  0  0
  189.6140  176.6420  147.0260 C   0  0  0  0  0  2  0  0  0  0  0  0
  191.8440  176.8790  147.8510 O   0  0  0  0  0  0  0  0  0  0  0  0
  189.4080  177.2280  144.6130 C   0  0  0  0  0  0  0  0  0  0  0  0
  191.6340  177.0890  145.5410 N   0  0  0  0  0  0  0  0  0  0  0  0
  188.8280  177.0060  145.7980 C   0  0  0  0  0  3  0  0  0  0  0  0
  186.5030  178.2860  142.4170 C   0  0  0  0  0  0  0  0  0  0  0  0
  188.6190  177.6020  143.4190 C   0  0  0  0  0  0  0  0  0  0  0  0
  190.6970  177.3110  141.9830 C   0  0  0  0  0  2  0  0  0  0  0  0
  188.5110  178.1110  141.0340 C   0  0  0  0  0  0  0  0  0  0  0  0
  187.1430  178.3900  141.1780 C   0  0  0  0  0  3  0  0  0  0  0  0
  191.4700  177.4340  143.2150 N   0  0  0  0  0  2  0  0  0  0  0  0
  185.0600  178.5760  142.5640 C   0  0  0  0  0  0  0  0  0  0  0  0
  184.5280  179.6090  143.7300 S   0  0  0  0  0  0  0  0  0  0  0  0
  184.1330  177.9450  141.6690 N   0  0  0  0  0  2  0  0  0  0  0  0
  183.8140  177.4820  139.0810 O   0  0  0  0  0  0  0  0  0  0  0  0
  183.6740  178.5640  140.1140 S   0  0  0  0  0  0  0  0  0  0  0  0
  184.5600  179.7260  139.7600 O   0  0  0  0  0  0  0  0  0  0  0  0
  181.9630  179.1190  140.1980 C   0  0  2  0  0  3  0  0  0  0  0  0
  180.5320  177.1200  139.0510 S   0  0  0  0  0  0  0  0  0  0  0  0
  181.2570  178.4230  141.3400 C   0  0  0  0  0  2  0  0  0  0  0  0
  181.1280  178.8370  138.9460 C   0  0  1  0  0  0  0  0  0  0  0  0
  180.0310  179.6780  138.9680 F   0  0  0  0  0  0  0  0  0  0  0  0
  180.7960  177.0620  140.8560 C   0  0  0  0  0  2  0  0  0  0  0  0
  181.8980  179.0770  137.6470 C   0  0  0  0  0  2  0  0  0  0  0  0
  181.4010  178.2180  136.5840 N   0  0  0  0  0  0  0  0  0  0  0  0
  180.3280  178.3400  134.3560 C   0  0  0  0  0  2  0  0  0  0  0  0
  182.1370  176.9970  134.5650 C   0  0  0  0  0  2  0  0  0  0  0  0
  180.7360  176.9950  134.4170 O   0  0  0  0  0  0  0  0  0  0  0  0
  182.5660  177.7080  135.8600 C   0  0  0  0  0  2  0  0  0  0  0  0
  180.5940  179.0550  135.6900 C   0  0  0  0  0  2  0  0  0  0  0  0
  189.1480  178.1730  139.7800 O   0  0  0  0  0  0  0  0  0  0  0  0
  187.2720  176.7150  136.9040 C   0  0  0  0  0  3  0  0  0  0  0  0
  187.3310  177.7810  135.9990 C   0  0  0  0  0  0  0  0  0  0  0  0
  188.5950  179.0690  137.6190 C   0  0  0  0  0  3  0  0  0  0  0  0
  187.8750  176.8270  138.1590 C   0  0  0  0  0  3  0  0  0  0  0  0
  188.5470  178.0050  138.5240 C   0  0  0  0  0  0  0  0  0  0  0  0
  187.9930  178.9580  136.3640 C   0  0  0  0  0  3  0  0  0  0  0  0
  185.8930  176.7330  134.3750 N   0  0  0  0  0  2  0  0  0  0  0  0
  186.6980  177.6990  134.6770 C   0  0  0  0  0  3  0  0  0  0  0  0
  1  5  1  0  0  0  0
  1  6  2  0  0  0  0
  2 11  1  0  0  0  0
  4  7  1  0  0  0  0
  4  8  2  0  0  0  0
  7  9  2  0  0  0  0
  8  1  1  0  0  0  0
  9  5  1  0  0  0  0
 10 16  1  0  0  0  0
 10  3  1  0  0  0  0
 11  3  2  0  0  0  0
 11  7  1  0  0  0  0
 12  2  1  0  0  0  0
 12 15  1  0  0  0  0
 13 14  1  0  0  0  0
 13  2  2  0  0  0  0
 14 10  2  0  0  0  0
 15  4  1  0  0  0  0
 16 17  2  0  0  0  0
 18 16  1  0  0  0  0
 19 20  2  0  0  0  0
 20 18  1  0  0  0  0
 21 20  2  0  0  0  0
 22 20  1  6  0  0  0
 22 24  1  0  0  0  0
 23 27  1  0  0  0  0
 25 26  1  1  0  0  0
 25 23  1  0  0  0  0
 25 22  1  0  0  0  0
 27 24  1  0  0  0  0
 28 25  1  0  0  0  0
 29 28  1  0  0  0  0
 30 32  1  0  0  0  0
 30 34  1  0  0  0  0
 31 33  1  0  0  0  0
 32 31  1  0  0  0  0
 33 29  1  0  0  0  0
 34 29  1  0  0  0  0
 35 13  1  0  0  0  0
 36 39  1  0  0  0  0
 37 41  1  0  0  0  0
 37 36  2  0  0  0  0
 38 40  1  0  0  0  0
 39 40  2  0  0  0  0
 40 35  1  0  0  0  0
 41 38  2  0  0  0  0
 42 43  2  0  0  0  0
 43 37  1  0  0  0  0
M  END
>  <MODEL>
3

>  <REMARK>
 VINA RESULT:      -9.0      2.874      5.321
  Name = 
  9 active torsions:
  status: ('A' for Active; 'I' for Inactive)
    1  A    between atoms: O_1  and  C_34
    2  A    between atoms: O_1  and  C_35
    3  A    between atoms: C_2  and  N_6
    4  A    between atoms: C_2  and  C_27
    5  A    between atoms: C_4  and  S_12
    6  A    between atoms: N_6  and  S_12
    7  A    between atoms: N_11  and  C_14
    8  A    between atoms: C_14  and  C_22
    9  A    between atoms: C_19  and  C_37
                            x       y       z     vdW  Elec       q    Type
                         _______ _______ _______ _____ _____    ______ ____

>  <TORSDO>
F 9

$$$$
=
 OpenBabel10272414323D

 43 48  0  0  1  0  0  0  0  0999 V2000
  190.9140  176.9580  146.7200 C   0  0  0  0  0  0  0  0  0  0  0  0
  189.4320  177.6940  141.8970 C   0  0  0  0  0  0  0  0  0  0  0  0
  187.3660  178.0570  143.1270 C   0  0  0  0  0  3  0  0  0  0  0  0
  190.8750  177.1830  144.3460 C   0  0  0  0  0  0  0  0  0  0  0  0
  189.4220  176.8130  146.8150 C   0  0  0  0  0  2  0  0  0  0  0  0
  191.6100  176.9400  147.7690 O   0  0  0  0  0  0  0  0  0  0  0  0
  189.4040  177.3030  144.3710 C   0  0  0  0  0  0  0  0  0  0  0  0
  191.5550  177.0600  145.4440 N   0  0  0  0  0  0  0  0  0  0  0  0
  188.7390  177.1730  145.5260 C   0  0  0  0  0  3  0  0  0  0  0  0
  186.7160  178.4510  141.9550 C   0  0  0  0  0  0  0  0  0  0  0  0
  188.7160  177.6750  143.1160 C   0  0  0  0  0  0  0  0  0  0  0  0
  190.8530  177.1850  141.8270 C   0  0  0  0  0  2  0  0  0  0  0  0
  188.7880  178.0830  140.7100 C   0  0  0  0  0  0  0  0  0  0  0  0
  187.4360  178.4570  140.7560 C   0  0  0  0  0  3  0  0  0  0  0  0
  191.5570  177.3120  143.1010 N   0  0  0  0  0  2  0  0  0  0  0  0
  185.2900  178.8400  141.9980 C   0  0  0  0  0  0  0  0  0  0  0  0
  184.4350  178.7320  143.4000 S   0  0  0  0  0  0  0  0  0  0  0  0
  184.6660  179.3190  140.7980 N   0  0  0  0  0  2  0  0  0  0  0  0
  183.3760  177.0640  140.2820 O   0  0  0  0  0  0  0  0  0  0  0  0
  183.3530  178.5360  139.9790 S   0  0  0  0  0  0  0  0  0  0  0  0
  183.4890  178.7550  138.4980 O   0  0  0  0  0  0  0  0  0  0  0  0
  181.8060  179.2580  140.5510 C   0  0  2  0  0  3  0  0  0  0  0  0
  180.0330  178.7590  138.5600 S   0  0  0  0  0  0  0  0  0  0  0  0
  180.9010  178.1680  141.0820 C   0  0  0  0  0  2  0  0  0  0  0  0
  181.0000  179.9980  139.4800 C   0  0  1  0  0  0  0  0  0  0  0  0
  180.1170  180.8460  140.1210 F   0  0  0  0  0  0  0  0  0  0  0  0
  180.1770  177.5380  139.9080 C   0  0  0  0  0  2  0  0  0  0  0  0
  181.8750  180.8270  138.5400 C   0  0  0  0  0  2  0  0  0  0  0  0
  181.2070  182.0650  138.1680 N   0  0  0  0  0  0  0  0  0  0  0  0
  181.7100  184.3640  137.4000 C   0  0  0  0  0  2  0  0  0  0  0  0
  180.1470  183.2020  136.2470 C   0  0  0  0  0  2  0  0  0  0  0  0
  180.3280  184.2630  137.1560 O   0  0  0  0  0  0  0  0  0  0  0  0
  180.6490  181.8700  136.8300 C   0  0  0  0  0  2  0  0  0  0  0  0
  182.2310  183.1150  138.1260 C   0  0  0  0  0  2  0  0  0  0  0  0
  189.5030  178.0470  139.4980 O   0  0  0  0  0  0  0  0  0  0  0  0
  188.2780  176.3540  136.4070 C   0  0  0  0  0  3  0  0  0  0  0  0
  189.1250  175.2400  136.3790 C   0  0  0  0  0  0  0  0  0  0  0  0
  190.1890  176.0120  138.4170 C   0  0  0  0  0  3  0  0  0  0  0  0
  188.3870  177.2900  137.4380 C   0  0  0  0  0  3  0  0  0  0  0  0
  189.3410  177.1230  138.4560 C   0  0  0  0  0  0  0  0  0  0  0  0
  190.0810  175.0750  137.3860 C   0  0  0  0  0  3  0  0  0  0  0  0
  189.8190  173.2110  135.2810 N   0  0  0  0  0  2  0  0  0  0  0  0
  189.0430  174.2440  135.3030 C   0  0  0  0  0  3  0  0  0  0  0  0
  1  5  1  0  0  0  0
  1  6  2  0  0  0  0
  2 11  1  0  0  0  0
  4  7  1  0  0  0  0
  4  8  2  0  0  0  0
  7  9  2  0  0  0  0
  8  1  1  0  0  0  0
  9  5  1  0  0  0  0
 10 16  1  0  0  0  0
 10  3  1  0  0  0  0
 11  3  2  0  0  0  0
 11  7  1  0  0  0  0
 12  2  1  0  0  0  0
 12 15  1  0  0  0  0
 13 14  1  0  0  0  0
 13  2  2  0  0  0  0
 14 10  2  0  0  0  0
 15  4  1  0  0  0  0
 16 17  2  0  0  0  0
 18 16  1  0  0  0  0
 20 19  2  0  0  0  0
 20 18  1  0  0  0  0
 21 20  2  0  0  0  0
 22 20  1  6  0  0  0
 22 24  1  0  0  0  0
 23 25  1  0  0  0  0
 23 27  1  0  0  0  0
 25 26  1  1  0  0  0
 25 22  1  0  0  0  0
 27 24  1  0  0  0  0
 28 25  1  0  0  0  0
 29 28  1  0  0  0  0
 30 34  1  0  0  0  0
 31 33  1  0  0  0  0
 31 32  1  0  0  0  0
 32 30  1  0  0  0  0
 33 29  1  0  0  0  0
 34 29  1  0  0  0  0
 35 13  1  0  0  0  0
 36 39  1  0  0  0  0
 37 36  2  0  0  0  0
 37 41  1  0  0  0  0
 38 40  1  0  0  0  0
 39 40  2  0  0  0  0
 40 35  1  0  0  0  0
 41 38  2  0  0  0  0
 42 43  2  0  0  0  0
 43 37  1  0  0  0  0
M  END
>  <MODEL>
4

>  <REMARK>
 VINA RESULT:      -9.0      3.666      6.397
  Name = 
  9 active torsions:
  status: ('A' for Active; 'I' for Inactive)
    1  A    between atoms: O_1  and  C_34
    2  A    between atoms: O_1  and  C_35
    3  A    between atoms: C_2  and  N_6
    4  A    between atoms: C_2  and  C_27
    5  A    between atoms: C_4  and  S_12
    6  A    between atoms: N_6  and  S_12
    7  A    between atoms: N_11  and  C_14
    8  A    between atoms: C_14  and  C_22
    9  A    between atoms: C_19  and  C_37
                            x       y       z     vdW  Elec       q    Type
                         _______ _______ _______ _____ _____    ______ ____

>  <TORSDO>
F 9

$$$$
=
 OpenBabel10272414323D

 43 48  0  0  1  0  0  0  0  0999 V2000
  188.8540  177.7670  147.6470 C   0  0  0  0  0  0  0  0  0  0  0  0
  188.4500  178.2280  142.5850 C   0  0  0  0  0  0  0  0  0  0  0  0
  186.1220  178.0870  143.2730 C   0  0  0  0  0  3  0  0  0  0  0  0
  189.3380  178.0180  145.3250 C   0  0  0  0  0  0  0  0  0  0  0  0
  187.4560  177.2840  147.3890 C   0  0  0  0  0  2  0  0  0  0  0  0
  189.2630  177.8910  148.8320 O   0  0  0  0  0  0  0  0  0  0  0  0
  187.9160  177.7980  144.9950 C   0  0  0  0  0  0  0  0  0  0  0  0
  189.7430  178.0350  146.5570 N   0  0  0  0  0  0  0  0  0  0  0  0
  187.0400  177.4990  145.9620 C   0  0  0  0  0  3  0  0  0  0  0  0
  185.7020  178.3420  141.9650 C   0  0  0  0  0  0  0  0  0  0  0  0
  187.4850  178.0240  143.5980 C   0  0  0  0  0  0  0  0  0  0  0  0
  189.9230  178.0570  142.8750 C   0  0  0  0  0  2  0  0  0  0  0  0
  188.0400  178.4790  141.2650 C   0  0  0  0  0  0  0  0  0  0  0  0
  186.6680  178.5330  140.9720 C   0  0  0  0  0  3  0  0  0  0  0  0
  190.2520  178.3200  144.2740 N   0  0  0  0  0  2  0  0  0  0  0  0
  184.2570  178.3940  141.6520 C   0  0  0  0  0  0  0  0  0  0  0  0
  183.1620  178.7850  142.8170 S   0  0  0  0  0  0  0  0  0  0  0  0
  183.8270  178.1050  140.3140 N   0  0  0  0  0  2  0  0  0  0  0  0
  184.1710  180.2840  138.8490 O   0  0  0  0  0  0  0  0  0  0  0  0
  183.1360  179.2600  139.2200 S   0  0  0  0  0  0  0  0  0  0  0  0
  181.9660  179.9330  139.8820 O   0  0  0  0  0  0  0  0  0  0  0  0
  182.5720  178.3920  137.7470 C   0  0  2  0  0  3  0  0  0  0  0  0
  182.7630  175.7610  138.3790 S   0  0  0  0  0  0  0  0  0  0  0  0
  181.1480  177.9220  137.9450 C   0  0  0  0  0  2  0  0  0  0  0  0
  183.3840  177.1480  137.3760 C   0  0  1  0  0  0  0  0  0  0  0  0
  183.1420  176.8620  136.0460 F   0  0  0  0  0  0  0  0  0  0  0  0
  181.1830  176.6110  138.7090 C   0  0  0  0  0  2  0  0  0  0  0  0
  184.8890  177.3390  137.5660 C   0  0  0  0  0  2  0  0  0  0  0  0
  185.6030  177.1030  136.3200 N   0  0  0  0  0  0  0  0  0  0  0  0
  187.7360  177.6580  135.1920 C   0  0  0  0  0  2  0  0  0  0  0  0
  187.1070  175.4830  135.2160 C   0  0  0  0  0  2  0  0  0  0  0  0
  187.2350  176.6170  134.3890 O   0  0  0  0  0  0  0  0  0  0  0  0
  186.1250  175.7380  136.3720 C   0  0  0  0  0  2  0  0  0  0  0  0
  186.7180  178.0560  136.2720 C   0  0  0  0  0  2  0  0  0  0  0  0
  189.0140  178.6280  140.2600 O   0  0  0  0  0  0  0  0  0  0  0  0
  189.5210  175.7520  137.9380 C   0  0  0  0  0  3  0  0  0  0  0  0
  190.9110  175.6070  138.0180 C   0  0  0  0  0  0  0  0  0  0  0  0
  191.0020  177.4580  139.5820 C   0  0  0  0  0  3  0  0  0  0  0  0
  188.8770  176.7440  138.6800 C   0  0  0  0  0  3  0  0  0  0  0  0
  189.6140  177.6030  139.5140 C   0  0  0  0  0  0  0  0  0  0  0  0
  191.6480  176.4660  138.8400 C   0  0  0  0  0  3  0  0  0  0  0  0
  192.8360  174.2460  137.5200 N   0  0  0  0  0  2  0  0  0  0  0  0
  191.6190  174.5810  137.2420 C   0  0  0  0  0  3  0  0  0  0  0  0
  1  6  2  0  0  0  0
  2 12  1  0  0  0  0
  2 11  1  0  0  0  0
  3 11  2  0  0  0  0
  4  8  2  0  0  0  0
  5  1  1  0  0  0  0
  7  4  1  0  0  0  0
  7  9  2  0  0  0  0
  8  1  1  0  0  0  0
  9  5  1  0  0  0  0
 10  3  1  0  0  0  0
 11  7  1  0  0  0  0
 12 15  1  0  0  0  0
 13  2  2  0  0  0  0
 14 13  1  0  0  0  0
 14 10  2  0  0  0  0
 15  4  1  0  0  0  0
 16 10  1  0  0  0  0
 16 17  2  0  0  0  0
 18 16  1  0  0  0  0
 19 20  2  0  0  0  0
 20 21  2  0  0  0  0
 20 18  1  0  0  0  0
 22 24  1  0  0  0  0
 22 20  1  1  0  0  0
 23 27  1  0  0  0  0
 24 27  1  0  0  0  0
 25 26  1  6  0  0  0
 25 28  1  0  0  0  0
 25 22  1  0  0  0  0
 25 23  1  0  0  0  0
 29 33  1  0  0  0  0
 29 28  1  0  0  0  0
 30 34  1  0  0  0  0
 31 33  1  0  0  0  0
 32 30  1  0  0  0  0
 32 31  1  0  0  0  0
 34 29  1  0  0  0  0
 35 13  1  0  0  0  0
 36 37  2  0  0  0  0
 36 39  1  0  0  0  0
 37 41  1  0  0  0  0
 39 40  2  0  0  0  0
 40 38  1  0  0  0  0
 40 35  1  0  0  0  0
 41 38  2  0  0  0  0
 43 42  2  0  0  0  0
 43 37  1  0  0  0  0
M  END
>  <MODEL>
5

>  <REMARK>
 VINA RESULT:      -8.9      2.807      5.973
  Name = 
  9 active torsions:
  status: ('A' for Active; 'I' for Inactive)
    1  A    between atoms: O_1  and  C_34
    2  A    between atoms: O_1  and  C_35
    3  A    between atoms: C_2  and  N_6
    4  A    between atoms: C_2  and  C_27
    5  A    between atoms: C_4  and  S_12
    6  A    between atoms: N_6  and  S_12
    7  A    between atoms: N_11  and  C_14
    8  A    between atoms: C_14  and  C_22
    9  A    between atoms: C_19  and  C_37
                            x       y       z     vdW  Elec       q    Type
                         _______ _______ _______ _____ _____    ______ ____

>  <TORSDO>
F 9

$$$$
=
 OpenBabel10272414323D

 43 48  0  0  1  0  0  0  0  0999 V2000
  188.7210  177.8540  147.7470 C   0  0  0  0  0  0  0  0  0  0  0  0
  188.3390  178.1720  142.6730 C   0  0  0  0  0  0  0  0  0  0  0  0
  186.0060  178.1490  143.3600 C   0  0  0  0  0  3  0  0  0  0  0  0
  189.2160  178.0120  145.4190 C   0  0  0  0  0  0  0  0  0  0  0  0
  187.3040  177.4210  147.5020 C   0  0  0  0  0  2  0  0  0  0  0  0
  189.1340  177.9980  148.9280 O   0  0  0  0  0  0  0  0  0  0  0  0
  187.7860  177.8410  145.0930 C   0  0  0  0  0  0  0  0  0  0  0  0
  189.6210  178.0510  146.6510 N   0  0  0  0  0  0  0  0  0  0  0  0
  186.8980  177.6090  146.0680 C   0  0  0  0  0  3  0  0  0  0  0  0
  185.5970  178.3800  142.0440 C   0  0  0  0  0  0  0  0  0  0  0  0
  187.3650  178.0410  143.6900 C   0  0  0  0  0  0  0  0  0  0  0  0
  189.8030  177.9510  142.9710 C   0  0  0  0  0  2  0  0  0  0  0  0
  187.9390  178.3980  141.3440 C   0  0  0  0  0  0  0  0  0  0  0  0
  186.5720  178.5000  141.0480 C   0  0  0  0  0  3  0  0  0  0  0  0
  190.1420  178.2430  144.3610 N   0  0  0  0  0  2  0  0  0  0  0  0
  184.1560  178.4820  141.7270 C   0  0  0  0  0  0  0  0  0  0  0  0
  183.1090  179.1600  142.8010 S   0  0  0  0  0  0  0  0  0  0  0  0
  183.6880  177.9850  140.4650 N   0  0  0  0  0  2  0  0  0  0  0  0
  184.8450  178.1770  138.0900 O   0  0  0  0  0  0  0  0  0  0  0  0
  183.8070  178.8340  138.9570 S   0  0  0  0  0  0  0  0  0  0  0  0
  184.1900  180.2630  139.2190 O   0  0  0  0  0  0  0  0  0  0  0  0
  182.2030  178.7840  138.1400 C   0  0  2  0  0  3  0  0  0  0  0  0
  180.4090  178.5100  140.1570 S   0  0  0  0  0  0  0  0  0  0  0  0
  181.5270  180.1320  138.2630 C   0  0  0  0  0  2  0  0  0  0  0  0
  181.2170  177.7590  138.7080 C   0  0  1  0  0  0  0  0  0  0  0  0
  180.2510  177.5210  137.7490 F   0  0  0  0  0  0  0  0  0  0  0  0
  180.8410  180.1990  139.6140 C   0  0  0  0  0  2  0  0  0  0  0  0
  181.8800  176.4300  139.0710 C   0  0  0  0  0  2  0  0  0  0  0  0
  181.9750  175.5630  137.9060 N   0  0  0  0  0  0  0  0  0  0  0  0
  183.4350  173.8260  136.9160 C   0  0  0  0  0  2  0  0  0  0  0  0
  181.2210  173.3730  137.0450 C   0  0  0  0  0  2  0  0  0  0  0  0
  182.2610  173.7010  136.1510 O   0  0  0  0  0  0  0  0  0  0  0  0
  181.0150  174.4760  138.0970 C   0  0  0  0  0  2  0  0  0  0  0  0
  183.3370  175.0200  137.8790 C   0  0  0  0  0  2  0  0  0  0  0  0
  188.9200  178.4760  140.3370 O   0  0  0  0  0  0  0  0  0  0  0  0
  190.7330  175.7990  138.4760 C   0  0  0  0  0  3  0  0  0  0  0  0
  189.7750  175.4720  137.5100 C   0  0  0  0  0  0  0  0  0  0  0  0
  188.2860  177.1450  138.4380 C   0  0  0  0  0  3  0  0  0  0  0  0
  190.4680  176.7970  139.4160 C   0  0  0  0  0  3  0  0  0  0  0  0
  189.2410  177.4830  139.4000 C   0  0  0  0  0  0  0  0  0  0  0  0
  188.5510  176.1460  137.4970 C   0  0  0  0  0  3  0  0  0  0  0  0
  191.0160  173.6030  136.6290 N   0  0  0  0  0  2  0  0  0  0  0  0
  190.0200  174.4190  136.5150 C   0  0  0  0  0  3  0  0  0  0  0  0
  1  6  2  0  0  0  0
  2 12  1  0  0  0  0
  2 11  1  0  0  0  0
  3 11  2  0  0  0  0
  4  8  2  0  0  0  0
  5  1  1  0  0  0  0
  7  4  1  0  0  0  0
  7  9  2  0  0  0  0
  8  1  1  0  0  0  0
  9  5  1  0  0  0  0
 10  3  1  0  0  0  0
 11  7  1  0  0  0  0
 12 15  1  0  0  0  0
 13  2  2  0  0  0  0
 14 13  1  0  0  0  0
 14 10  2  0  0  0  0
 15  4  1  0  0  0  0
 16 10  1  0  0  0  0
 16 17  2  0  0  0  0
 18 16  1  0  0  0  0
 19 20  2  0  0  0  0
 20 21  2  0  0  0  0
 20 18  1  0  0  0  0
 22 24  1  0  0  0  0
 22 25  1  0  0  0  0
 22 20  1  1  0  0  0
 24 27  1  0  0  0  0
 25 26  1  6  0  0  0
 25 28  1  0  0  0  0
 25 23  1  0  0  0  0
 27 23  1  0  0  0  0
 29 33  1  0  0  0  0
 29 28  1  0  0  0  0
 30 34  1  0  0  0  0
 31 33  1  0  0  0  0
 32 30  1  0  0  0  0
 32 31  1  0  0  0  0
 34 29  1  0  0  0  0
 35 13  1  0  0  0  0
 36 39  1  0  0  0  0
 37 36  2  0  0  0  0
 38 40  1  0  0  0  0
 40 39  2  0  0  0  0
 40 35  1  0  0  0  0
 41 37  1  0  0  0  0
 41 38  2  0  0  0  0
 43 42  2  0  0  0  0
 43 37  1  0  0  0  0
M  END
>  <MODEL>
6

>  <REMARK>
 VINA RESULT:      -8.9      2.891      5.661
  Name = 
  9 active torsions:
  status: ('A' for Active; 'I' for Inactive)
    1  A    between atoms: O_1  and  C_34
    2  A    between atoms: O_1  and  C_35
    3  A    between atoms: C_2  and  N_6
    4  A    between atoms: C_2  and  C_27
    5  A    between atoms: C_4  and  S_12
    6  A    between atoms: N_6  and  S_12
    7  A    between atoms: N_11  and  C_14
    8  A    between atoms: C_14  and  C_22
    9  A    between atoms: C_19  and  C_37
                            x       y       z     vdW  Elec       q    Type
                         _______ _______ _______ _____ _____    ______ ____

>  <TORSDO>
F 9

$$$$
=
 OpenBabel10272414323D

 43 48  0  0  1  0  0  0  0  0999 V2000
  187.9210  177.2730  147.1130 C   0  0  0  0  0  0  0  0  0  0  0  0
  186.5000  178.5950  142.3980 C   0  0  0  0  0  0  0  0  0  0  0  0
  188.7010  177.6340  142.0180 C   0  0  0  0  0  3  0  0  0  0  0  0
  186.6970  178.0840  145.2330 C   0  0  0  0  0  0  0  0  0  0  0  0
  189.2270  177.2850  146.3730 C   0  0  0  0  0  2  0  0  0  0  0  0
  187.8840  176.8770  148.3080 O   0  0  0  0  0  0  0  0  0  0  0  0
  187.8770  177.8880  144.3680 C   0  0  0  0  0  0  0  0  0  0  0  0
  186.7280  177.7600  146.4890 N   0  0  0  0  0  0  0  0  0  0  0  0
  189.0360  177.4770  144.8960 C   0  0  0  0  0  3  0  0  0  0  0  0
  188.5310  177.7460  140.6360 C   0  0  0  0  0  0  0  0  0  0  0  0
  187.7020  178.0540  142.9090 C   0  0  0  0  0  0  0  0  0  0  0  0
  185.4510  179.1590  143.3270 C   0  0  0  0  0  2  0  0  0  0  0  0
  186.3200  178.7190  141.0100 C   0  0  0  0  0  0  0  0  0  0  0  0
  187.3400  178.2920  140.1460 C   0  0  0  0  0  3  0  0  0  0  0  0
  185.4790  178.5360  144.6480 N   0  0  0  0  0  2  0  0  0  0  0  0
  189.6060  177.3020  139.7220 C   0  0  0  0  0  0  0  0  0  0  0  0
  191.1750  177.2880  140.2210 S   0  0  0  0  0  0  0  0  0  0  0  0
  189.2580  176.8780  138.3960 N   0  0  0  0  0  2  0  0  0  0  0  0
  190.4540  174.5480  138.0040 O   0  0  0  0  0  0  0  0  0  0  0  0
  190.2550  175.8970  137.3720 S   0  0  0  0  0  0  0  0  0  0  0  0
  191.5850  176.5710  137.1790 O   0  0  0  0  0  0  0  0  0  0  0  0
  189.4400  175.7150  135.7770 C   0  0  2  0  0  3  0  0  0  0  0  0
  187.3810  177.4790  135.8490 S   0  0  0  0  0  0  0  0  0  0  0  0
  189.8490  176.8480  134.8630 C   0  0  0  0  0  2  0  0  0  0  0  0
  187.9100  175.7370  135.8240 C   0  0  1  0  0  0  0  0  0  0  0  0
  187.4390  175.1580  134.6610 F   0  0  0  0  0  0  0  0  0  0  0  0
  188.9780  178.0500  135.1750 C   0  0  0  0  0  2  0  0  0  0  0  0
  187.3380  174.9680  137.0160 C   0  0  0  0  0  2  0  0  0  0  0  0
  186.0930  174.3060  136.6560 N   0  0  0  0  0  0  0  0  0  0  0  0
  184.6510  172.4160  137.3470 C   0  0  0  0  0  2  0  0  0  0  0  0
  183.6520  174.4210  137.0240 C   0  0  0  0  0  2  0  0  0  0  0  0
  183.8090  173.1310  136.4770 O   0  0  0  0  0  0  0  0  0  0  0  0
  185.0000  175.1550  137.1300 C   0  0  0  0  0  2  0  0  0  0  0  0
  186.0630  173.0220  137.3660 C   0  0  0  0  0  2  0  0  0  0  0  0
  185.1380  179.3080  140.5210 O   0  0  0  0  0  0  0  0  0  0  0  0
  182.7220  178.0840  137.9560 C   0  0  0  0  0  3  0  0  0  0  0  0
  181.9230  177.2470  138.7430 C   0  0  0  0  0  0  0  0  0  0  0  0
  183.2690  177.8030  140.6810 C   0  0  0  0  0  3  0  0  0  0  0  0
  183.7870  178.7790  138.5320 C   0  0  0  0  0  3  0  0  0  0  0  0
  184.0660  178.6480  139.9030 C   0  0  0  0  0  0  0  0  0  0  0  0
  182.2030  177.1080  140.1060 C   0  0  0  0  0  3  0  0  0  0  0  0
  180.3410  175.4290  138.7340 N   0  0  0  0  0  2  0  0  0  0  0  0
  180.8020  176.4940  138.1650 C   0  0  0  0  0  3  0  0  0  0  0  0
  1  6  2  0  0  0  0
  2 11  1  0  0  0  0
  2 12  1  0  0  0  0
  3 11  2  0  0  0  0
  4  8  2  0  0  0  0
  5  1  1  0  0  0  0
  7  9  2  0  0  0  0
  7  4  1  0  0  0  0
  8  1  1  0  0  0  0
  9  5  1  0  0  0  0
 10  3  1  0  0  0  0
 11  7  1  0  0  0  0
 12 15  1  0  0  0  0
 13  2  2  0  0  0  0
 14 10  2  0  0  0  0
 14 13  1  0  0  0  0
 15  4  1  0  0  0  0
 16 17  2  0  0  0  0
 16 10  1  0  0  0  0
 18 16  1  0  0  0  0
 20 19  2  0  0  0  0
 20 18  1  0  0  0  0
 21 20  2  0  0  0  0
 22 25  1  0  0  0  0
 22 20  1  1  0  0  0
 24 27  1  0  0  0  0
 24 22  1  0  0  0  0
 25 26  1  6  0  0  0
 25 23  1  0  0  0  0
 25 28  1  0  0  0  0
 27 23  1  0  0  0  0
 29 28  1  0  0  0  0
 29 33  1  0  0  0  0
 29 34  1  0  0  0  0
 30 34  1  0  0  0  0
 31 33  1  0  0  0  0
 32 31  1  0  0  0  0
 32 30  1  0  0  0  0
 35 13  1  0  0  0  0
 36 39  2  0  0  0  0
 36 37  1  0  0  0  0
 37 41  2  0  0  0  0
 39 40  1  0  0  0  0
 40 35  1  0  0  0  0
 40 38  2  0  0  0  0
 41 38  1  0  0  0  0
 43 42  2  0  0  0  0
 43 37  1  0  0  0  0
M  END
>  <MODEL>
7

>  <REMARK>
 VINA RESULT:      -8.8      2.302      3.255
  Name = 
  9 active torsions:
  status: ('A' for Active; 'I' for Inactive)
    1  A    between atoms: O_1  and  C_34
    2  A    between atoms: O_1  and  C_35
    3  A    between atoms: C_2  and  N_6
    4  A    between atoms: C_2  and  C_27
    5  A    between atoms: C_4  and  S_12
    6  A    between atoms: N_6  and  S_12
    7  A    between atoms: N_11  and  C_14
    8  A    between atoms: C_14  and  C_22
    9  A    between atoms: C_19  and  C_37
                            x       y       z     vdW  Elec       q    Type
                         _______ _______ _______ _____ _____    ______ ____

>  <TORSDO>
F 9

$$$$
=
 OpenBabel10272414323D

 43 48  0  0  1  0  0  0  0  0999 V2000
  188.0970  177.2760  147.4090 C   0  0  0  0  0  0  0  0  0  0  0  0
  186.1800  178.6510  142.8880 C   0  0  0  0  0  0  0  0  0  0  0  0
  188.3460  177.7360  142.2680 C   0  0  0  0  0  3  0  0  0  0  0  0
  186.6730  178.0960  145.6780 C   0  0  0  0  0  0  0  0  0  0  0  0
  189.3200  177.3240  146.5400 C   0  0  0  0  0  2  0  0  0  0  0  0
  188.1890  176.8600  148.5940 O   0  0  0  0  0  0  0  0  0  0  0  0
  187.7620  177.9360  144.6940 C   0  0  0  0  0  0  0  0  0  0  0  0
  186.8380  177.7520  146.9190 N   0  0  0  0  0  0  0  0  0  0  0  0
  188.9760  177.5370  145.0930 C   0  0  0  0  0  3  0  0  0  0  0  0
  188.0340  177.8680  140.9130 C   0  0  0  0  0  0  0  0  0  0  0  0
  187.4370  178.1230  143.2640 C   0  0  0  0  0  0  0  0  0  0  0  0
  185.2220  179.1800  143.9290 C   0  0  0  0  0  2  0  0  0  0  0  0
  185.8570  178.7950  141.5280 C   0  0  0  0  0  0  0  0  0  0  0  0
  186.7900  178.4000  140.5570 C   0  0  0  0  0  3  0  0  0  0  0  0
  185.3950  178.5360  145.2290 N   0  0  0  0  0  2  0  0  0  0  0  0
  189.0170  177.4590  139.8860 C   0  0  0  0  0  0  0  0  0  0  0  0
  190.6070  177.2860  140.2740 S   0  0  0  0  0  0  0  0  0  0  0  0
  188.5600  177.2100  138.5490 N   0  0  0  0  0  2  0  0  0  0  0  0
  189.3540  179.5420  137.5760 O   0  0  0  0  0  0  0  0  0  0  0  0
  188.3910  178.4170  137.3150 S   0  0  0  0  0  0  0  0  0  0  0  0
  186.9810  178.9410  137.3210 O   0  0  0  0  0  0  0  0  0  0  0  0
  188.7430  177.6630  135.7190 C   0  0  2  0  0  3  0  0  0  0  0  0
  188.1820  175.0310  136.0600 S   0  0  0  0  0  0  0  0  0  0  0  0
  187.4500  177.4270  134.9700 C   0  0  0  0  0  2  0  0  0  0  0  0
  189.4510  176.3070  135.7840 C   0  0  1  0  0  0  0  0  0  0  0  0
  190.0390  176.0740  134.5560 F   0  0  0  0  0  0  0  0  0  0  0  0
  186.8490  176.1230  135.4580 C   0  0  0  0  0  2  0  0  0  0  0  0
  190.5360  176.2500  136.8610 C   0  0  0  0  0  2  0  0  0  0  0  0
  191.7260  175.5800  136.3620 N   0  0  0  0  0  0  0  0  0  0  0  0
  194.1620  175.4230  136.7800 C   0  0  0  0  0  2  0  0  0  0  0  0
  193.0140  173.4820  136.5840 C   0  0  0  0  0  2  0  0  0  0  0  0
  193.9340  174.3260  135.9290 O   0  0  0  0  0  0  0  0  0  0  0  0
  191.6780  174.1990  136.8430 C   0  0  0  0  0  2  0  0  0  0  0  0
  192.8860  176.2640  136.9450 C   0  0  0  0  0  2  0  0  0  0  0  0
  184.6220  179.3700  141.1730 O   0  0  0  0  0  0  0  0  0  0  0  0
  182.5130  178.9680  138.1220 C   0  0  0  0  0  3  0  0  0  0  0  0
  181.8690  177.7610  138.4190 C   0  0  0  0  0  0  0  0  0  0  0  0
  183.0590  177.6600  140.5290 C   0  0  0  0  0  3  0  0  0  0  0  0
  183.4230  179.5180  139.0280 C   0  0  0  0  0  3  0  0  0  0  0  0
  183.6990  178.8690  140.2430 C   0  0  0  0  0  0  0  0  0  0  0  0
  182.1490  177.1090  139.6240 C   0  0  0  0  0  3  0  0  0  0  0  0
  180.2050  176.1260  137.8170 N   0  0  0  0  0  2  0  0  0  0  0  0
  180.9160  177.1520  137.4830 C   0  0  0  0  0  3  0  0  0  0  0  0
  1  6  2  0  0  0  0
  2 11  1  0  0  0  0
  2 12  1  0  0  0  0
  3 11  2  0  0  0  0
  4  8  2  0  0  0  0
  5  1  1  0  0  0  0
  7  9  2  0  0  0  0
  7  4  1  0  0  0  0
  8  1  1  0  0  0  0
  9  5  1  0  0  0  0
 10  3  1  0  0  0  0
 11  7  1  0  0  0  0
 12 15  1  0  0  0  0
 13  2  2  0  0  0  0
 14 10  2  0  0  0  0
 14 13  1  0  0  0  0
 15  4  1  0  0  0  0
 16 17  2  0  0  0  0
 16 10  1  0  0  0  0
 18 16  1  0  0  0  0
 20 21  2  0  0  0  0
 20 19  2  0  0  0  0
 20 18  1  0  0  0  0
 22 25  1  0  0  0  0
 22 20  1  1  0  0  0
 24 27  1  0  0  0  0
 24 22  1  0  0  0  0
 25 26  1  6  0  0  0
 25 23  1  0  0  0  0
 25 28  1  0  0  0  0
 27 23  1  0  0  0  0
 29 33  1  0  0  0  0
 29 28  1  0  0  0  0
 29 34  1  0  0  0  0
 30 34  1  0  0  0  0
 31 33  1  0  0  0  0
 32 31  1  0  0  0  0
 32 30  1  0  0  0  0
 35 13  1  0  0  0  0
 36 37  2  0  0  0  0
 36 39  1  0  0  0  0
 37 41  1  0  0  0  0
 39 40  2  0  0  0  0
 40 38  1  0  0  0  0
 40 35  1  0  0  0  0
 41 38  2  0  0  0  0
 43 42  2  0  0  0  0
 43 37  1  0  0  0  0
M  END
>  <MODEL>
8

>  <REMARK>
 VINA RESULT:      -8.7      2.753      5.016
  Name = 
  9 active torsions:
  status: ('A' for Active; 'I' for Inactive)
    1  A    between atoms: O_1  and  C_34
    2  A    between atoms: O_1  and  C_35
    3  A    between atoms: C_2  and  N_6
    4  A    between atoms: C_2  and  C_27
    5  A    between atoms: C_4  and  S_12
    6  A    between atoms: N_6  and  S_12
    7  A    between atoms: N_11  and  C_14
    8  A    between atoms: C_14  and  C_22
    9  A    between atoms: C_19  and  C_37
                            x       y       z     vdW  Elec       q    Type
                         _______ _______ _______ _____ _____    ______ ____

>  <TORSDO>
F 9

$$$$
=
 OpenBabel10272414323D

 43 48  0  0  1  0  0  0  0  0999 V2000
  191.4170  176.3610  146.8880 C   0  0  0  0  0  0  0  0  0  0  0  0
  187.2450  177.9900  144.4510 C   0  0  0  0  0  0  0  0  0  0  0  0
  188.8630  177.8260  142.6420 C   0  0  0  0  0  3  0  0  0  0  0  0
  189.2010  177.0760  146.3680 C   0  0  0  0  0  0  0  0  0  0  0  0
  191.9820  176.8990  145.6060 C   0  0  0  0  0  2  0  0  0  0  0  0
  192.1730  175.7700  147.7040 O   0  0  0  0  0  0  0  0  0  0  0  0
  189.6200  177.4020  144.9900 C   0  0  0  0  0  0  0  0  0  0  0  0
  190.0380  176.5630  147.2170 N   0  0  0  0  0  0  0  0  0  0  0  0
  190.9040  177.2780  144.6300 C   0  0  0  0  0  3  0  0  0  0  0  0
  187.8700  178.1210  141.7040 C   0  0  0  0  0  0  0  0  0  0  0  0
  188.5700  177.7590  144.0120 C   0  0  0  0  0  0  0  0  0  0  0  0
  186.9160  178.0360  145.9240 C   0  0  0  0  0  2  0  0  0  0  0  0
  186.2400  178.2930  143.5170 C   0  0  0  0  0  0  0  0  0  0  0  0
  186.5670  178.3540  142.1540 C   0  0  0  0  0  3  0  0  0  0  0  0
  187.8310  177.2310  146.7280 N   0  0  0  0  0  2  0  0  0  0  0  0
  188.2120  178.1910  140.2660 C   0  0  0  0  0  0  0  0  0  0  0  0
  187.0410  178.0380  139.1200 S   0  0  0  0  0  0  0  0  0  0  0  0
  189.5800  178.4010  139.8890 N   0  0  0  0  0  2  0  0  0  0  0  0
  190.2340  175.8440  140.1170 O   0  0  0  0  0  0  0  0  0  0  0  0
  190.7170  177.1410  139.5290 S   0  0  0  0  0  0  0  0  0  0  0  0
  192.0560  177.4970  140.1120 O   0  0  0  0  0  0  0  0  0  0  0  0
  190.8630  176.9900  137.7410 C   0  0  2  0  0  3  0  0  0  0  0  0
  191.1260  174.3280  137.2910 S   0  0  0  0  0  0  0  0  0  0  0  0
  189.5390  176.5480  137.1570 C   0  0  0  0  0  2  0  0  0  0  0  0
  191.9020  175.9750  137.2580 C   0  0  1  0  0  0  0  0  0  0  0  0
  192.2160  176.2790  135.9470 F   0  0  0  0  0  0  0  0  0  0  0  0
  189.4450  175.0390  137.2800 C   0  0  0  0  0  2  0  0  0  0  0  0
  193.1880  175.9980  138.0840 C   0  0  0  0  0  2  0  0  0  0  0  0
  194.0560  174.8880  137.7210 N   0  0  0  0  0  0  0  0  0  0  0  0
  196.0150  174.3650  136.3000 C   0  0  0  0  0  2  0  0  0  0  0  0
  196.0840  173.6830  138.4570 C   0  0  0  0  0  2  0  0  0  0  0  0
  195.9380  173.2320  137.1310 O   0  0  0  0  0  0  0  0  0  0  0  0
  194.9650  174.6640  138.8460 C   0  0  0  0  0  2  0  0  0  0  0  0
  194.8240  175.3050  136.5430 C   0  0  0  0  0  2  0  0  0  0  0  0
  184.9380  178.5700  143.9760 O   0  0  0  0  0  0  0  0  0  0  0  0
  181.4150  179.1630  142.9030 C   0  0  0  0  0  3  0  0  0  0  0  0
  181.5010  178.8090  141.5510 C   0  0  0  0  0  0  0  0  0  0  0  0
  183.8540  178.3010  141.8470 C   0  0  0  0  0  3  0  0  0  0  0  0
  182.5440  179.0830  143.7210 C   0  0  0  0  0  3  0  0  0  0  0  0
  183.7730  178.6450  143.1990 C   0  0  0  0  0  0  0  0  0  0  0  0
  182.7250  178.3800  141.0280 C   0  0  0  0  0  3  0  0  0  0  0  0
  180.4620  179.1950  139.4120 N   0  0  0  0  0  2  0  0  0  0  0  0
  180.3350  178.8930  140.6620 C   0  0  0  0  0  3  0  0  0  0  0  0
  1  8  1  0  0  0  0
  1  6  2  0  0  0  0
  2 12  1  0  0  0  0
  3 11  2  0  0  0  0
  4 15  1  0  0  0  0
  4  8  2  0  0  0  0
  5  1  1  0  0  0  0
  7  4  1  0  0  0  0
  9  7  2  0  0  0  0
  9  5  1  0  0  0  0
 10 14  2  0  0  0  0
 10  3  1  0  0  0  0
 11  2  1  0  0  0  0
 11  7  1  0  0  0  0
 12 15  1  0  0  0  0
 13 35  1  0  0  0  0
 13  2  2  0  0  0  0
 14 13  1  0  0  0  0
 16 10  1  0  0  0  0
 17 16  2  0  0  0  0
 18 16  1  0  0  0  0
 20 18  1  0  0  0  0
 20 21  2  0  0  0  0
 20 19  2  0  0  0  0
 22 20  1  1  0  0  0
 24 27  1  0  0  0  0
 24 22  1  0  0  0  0
 25 26  1  6  0  0  0
 25 23  1  0  0  0  0
 25 22  1  0  0  0  0
 25 28  1  0  0  0  0
 27 23  1  0  0  0  0
 29 28  1  0  0  0  0
 29 33  1  0  0  0  0
 30 34  1  0  0  0  0
 30 32  1  0  0  0  0
 31 33  1  0  0  0  0
 32 31  1  0  0  0  0
 34 29  1  0  0  0  0
 36 39  1  0  0  0  0
 37 36  2  0  0  0  0
 38 40  1  0  0  0  0
 40 39  2  0  0  0  0
 40 35  1  0  0  0  0
 41 37  1  0  0  0  0
 41 38  2  0  0  0  0
 42 43  2  0  0  0  0
 43 37  1  0  0  0  0
M  END
>  <MODEL>
9

>  <REMARK>
 VINA RESULT:      -8.7      3.587      5.815
  Name = 
  9 active torsions:
  status: ('A' for Active; 'I' for Inactive)
    1  A    between atoms: O_1  and  C_34
    2  A    between atoms: O_1  and  C_35
    3  A    between atoms: C_2  and  N_6
    4  A    between atoms: C_2  and  C_27
    5  A    between atoms: C_4  and  S_12
    6  A    between atoms: N_6  and  S_12
    7  A    between atoms: N_11  and  C_14
    8  A    between atoms: C_14  and  C_22
    9  A    between atoms: C_19  and  C_37
                            x       y       z     vdW  Elec       q    Type
                         _______ _______ _______ _____ _____    ______ ____

>  <TORSDO>
F 9

$$$$
