=
 OpenBabel10272401103D

 27 32  0  0  1  0  0  0  0  0999 V2000
  188.2150  178.3320  141.6150 C   0  0  2  0  0  3  0  0  0  0  0  0
  189.3190  178.2400  142.5890 N   0  0  2  0  0  0  0  0  0  0  0  0
  187.4660  177.3480  143.6490 C   0  0  2  0  0  0  0  0  0  0  0  0
  191.9580  177.5160  145.6380 N   0  0  0  0  0  0  0  0  0  0  0  0
  191.8670  176.6660  147.9860 C   0  0  0  0  0  1  0  0  0  0  0  0
  190.6710  178.0040  142.0760 C   0  0  0  0  0  2  0  0  0  0  0  0
  189.6630  176.6340  146.2460 S   0  0  0  0  0  0  0  0  0  0  0  0
  185.1260  178.9870  143.8040 C   0  0  0  0  0  0  0  0  0  0  0  0
  186.7070  176.1480  144.1560 C   0  0  0  0  0  2  0  0  0  0  0  0
  183.7800  179.6330  143.7520 C   0  0  0  0  0  1  0  0  0  0  0  0
  189.8500  177.2820  144.7060 C   0  0  0  0  0  0  0  0  0  0  0  0
  191.2630  176.9700  146.6630 C   0  0  0  0  0  0  0  0  0  0  0  0
  191.1760  177.6640  144.5380 C   0  0  0  0  0  0  0  0  0  0  0  0
  186.9240  177.9900  142.3810 C   0  0  1  0  0  3  0  0  0  0  0  0
  188.9540  177.1790  143.5160 C   0  0  2  0  0  3  0  0  0  0  0  0
  185.4000  178.1570  144.8230 C   0  0  0  0  0  3  0  0  0  0  0  0
  191.6890  178.2100  143.2230 C   0  0  0  0  0  2  0  0  0  0  0  0
  185.5780  179.8060  141.5960 O   0  0  0  0  0  1  0  0  0  0  0  0
  186.1660  179.2660  142.7410 C   0  0  1  0  0  3  0  0  0  0  0  0
  186.7220  177.4440  144.9760 C   0  0  2  0  0  3  0  0  0  0  0  0
  188.3990  177.4600  140.3570 C   0  0  0  0  0  2  0  0  0  0  0  0
  187.6050  178.6130  136.3090 C   0  0  0  0  0  2  0  0  0  0  0  0
  188.1660  178.2020  139.0470 C   0  0  2  0  0  3  0  0  0  0  0  0
  186.7080  178.0110  138.6010 C   0  0  0  0  0  2  0  0  0  0  0  0
  186.6070  177.7570  137.0950 C   0  0  0  0  0  2  0  0  0  0  0  0
  188.9760  178.6690  137.0030 C   0  0  0  0  0  2  0  0  0  0  0  0
  189.0610  177.7460  138.0620 O   0  0  0  0  0  0  0  0  0  0  0  0
  1 21  1  6  0  0  0
  1 14  1  0  0  0  0
  1  2  1  0  0  0  0
  2  6  1  6  0  0  0
  2 15  1  0  0  0  0
  3  9  1  6  0  0  0
  3 20  1  0  0  0  0
  4 12  2  0  0  0  0
  6 17  1  0  0  0  0
  7 12  1  0  0  0  0
  8 16  2  0  0  0  0
  9 20  1  0  0  0  0
 10  8  1  0  0  0  0
 11  7  1  0  0  0  0
 12  5  1  0  0  0  0
 13 11  2  0  0  0  0
 13  4  1  0  0  0  0
 14 19  1  0  0  0  0
 14  3  1  0  0  0  0
 15  3  1  0  0  0  0
 15 11  1  0  0  0  0
 16 20  1  0  0  0  0
 17 13  1  0  0  0  0
 18 19  1  0  0  0  0
 19  8  1  0  0  0  0
 22 26  1  0  0  0  0
 22 25  1  0  0  0  0
 23 21  1  0  0  0  0
 24 23  1  0  0  0  0
 25 24  1  0  0  0  0
 26 27  1  0  0  0  0
 27 23  1  0  0  0  0
M  END
>  <MODEL>
1

>  <REMARK>
 VINA RESULT:      -7.6      0.000      0.000
  Name = 
  2 active torsions:
  status: ('A' for Active; 'I' for Inactive)
    1  A    between atoms: C_1  and  C_15
    2  A    between atoms: C_9  and  C_15
                            x       y       z     vdW  Elec       q    Type
                         _______ _______ _______ _____ _____    ______ ____

>  <TORSDO>
F 2

$$$$
=
 OpenBabel10272401103D

 27 32  0  0  1  0  0  0  0  0999 V2000
  187.9730  177.8030  143.5790 C   0  0  2  0  0  3  0  0  0  0  0  0
  188.4650  177.9880  142.2010 N   0  0  2  0  0  0  0  0  0  0  0  0
  189.7880  176.3310  143.1270 C   0  0  2  0  0  0  0  0  0  0  0  0
  190.1530  177.8630  138.4700 N   0  0  0  0  0  0  0  0  0  0  0  0
  192.0720  176.7130  137.3580 C   0  0  0  0  0  1  0  0  0  0  0  0
  187.4920  178.3460  141.1660 C   0  0  0  0  0  2  0  0  0  0  0  0
  191.2170  176.1170  139.9660 S   0  0  0  0  0  0  0  0  0  0  0  0
  191.1470  176.9470  145.5680 C   0  0  0  0  0  0  0  0  0  0  0  0
  190.1670  174.8760  143.2370 C   0  0  0  0  0  2  0  0  0  0  0  0
  191.7190  177.0490  146.9440 C   0  0  0  0  0  1  0  0  0  0  0  0
  189.9410  177.0010  140.6110 C   0  0  0  0  0  0  0  0  0  0  0  0
  191.1590  176.9580  138.5040 C   0  0  0  0  0  0  0  0  0  0  0  0
  189.4580  177.8680  139.6370 C   0  0  0  0  0  0  0  0  0  0  0  0
  188.9960  176.9010  144.2940 C   0  0  1  0  0  3  0  0  0  0  0  0
  189.1320  176.7460  141.8390 C   0  0  2  0  0  3  0  0  0  0  0  0
  191.7500  176.1400  144.6810 C   0  0  0  0  0  3  0  0  0  0  0  0
  188.2500  178.7470  139.8780 C   0  0  0  0  0  2  0  0  0  0  0  0
  189.2270  178.1830  146.3020 O   0  0  0  0  0  1  0  0  0  0  0  0
  189.9210  177.7410  145.1740 C   0  0  1  0  0  3  0  0  0  0  0  0
  191.2580  175.9530  143.2660 C   0  0  2  0  0  3  0  0  0  0  0  0
  186.5370  177.2520  143.6770 C   0  0  0  0  0  2  0  0  0  0  0  0
  182.9200  179.5290  143.9520 C   0  0  0  0  0  2  0  0  0  0  0  0
  185.4560  178.3240  143.6380 C   0  0  2  0  0  3  0  0  0  0  0  0
  185.0240  178.6700  145.0710 C   0  0  0  0  0  2  0  0  0  0  0  0
  183.5060  178.8290  145.1820 C   0  0  0  0  0  2  0  0  0  0  0  0
  183.5600  179.0210  142.6500 C   0  0  0  0  0  2  0  0  0  0  0  0
  184.3600  177.8840  142.8720 O   0  0  0  0  0  0  0  0  0  0  0  0
  1 21  1  6  0  0  0
  1 14  1  0  0  0  0
  2  6  1  6  0  0  0
  2  1  1  0  0  0  0
  3  9  1  1  0  0  0
  3 20  1  0  0  0  0
  3 14  1  0  0  0  0
  4 12  2  0  0  0  0
  4 13  1  0  0  0  0
  5 12  1  0  0  0  0
  7 11  1  0  0  0  0
  8 10  1  0  0  0  0
  9 20  1  0  0  0  0
 11 15  1  0  0  0  0
 12  7  1  0  0  0  0
 13 17  1  0  0  0  0
 13 11  2  0  0  0  0
 14 19  1  0  0  0  0
 15  2  1  0  0  0  0
 15  3  1  0  0  0  0
 16  8  2  0  0  0  0
 17  6  1  0  0  0  0
 19  8  1  0  0  0  0
 19 18  1  0  0  0  0
 20 16  1  0  0  0  0
 22 25  1  0  0  0  0
 23 21  1  0  0  0  0
 23 24  1  0  0  0  0
 24 25  1  0  0  0  0
 26 27  1  0  0  0  0
 26 22  1  0  0  0  0
 27 23  1  0  0  0  0
M  END
>  <MODEL>
2

>  <REMARK>
 VINA RESULT:      -6.9      2.601      6.083
  Name = 
  2 active torsions:
  status: ('A' for Active; 'I' for Inactive)
    1  A    between atoms: C_1  and  C_15
    2  A    between atoms: C_9  and  C_15
                            x       y       z     vdW  Elec       q    Type
                         _______ _______ _______ _____ _____    ______ ____

>  <TORSDO>
F 2

$$$$
=
 OpenBabel10272401103D

 27 32  0  0  1  0  0  0  0  0999 V2000
  187.5710  178.1320  142.7450 C   0  0  2  0  0  3  0  0  0  0  0  0
  188.0190  177.5680  144.0320 N   0  0  2  0  0  0  0  0  0  0  0  0
  189.9460  178.1220  142.8780 C   0  0  2  0  0  0  0  0  0  0  0  0
  189.9000  176.3090  147.4470 N   0  0  0  0  0  0  0  0  0  0  0  0
  192.2450  175.9280  148.2210 C   0  0  0  0  0  1  0  0  0  0  0  0
  187.1870  177.8040  145.2140 C   0  0  0  0  0  2  0  0  0  0  0  0
  191.6070  177.1410  145.7700 S   0  0  0  0  0  0  0  0  0  0  0  0
  190.2800  177.0050  140.2650 C   0  0  0  0  0  0  0  0  0  0  0  0
  191.1310  179.0340  142.6830 C   0  0  0  0  0  2  0  0  0  0  0  0
  190.4710  176.6870  138.8180 C   0  0  0  0  0  1  0  0  0  0  0  0
  189.9850  177.2930  145.3510 C   0  0  0  0  0  0  0  0  0  0  0  0
  191.2340  176.3970  147.2390 C   0  0  0  0  0  0  0  0  0  0  0  0
  189.2050  176.8330  146.4050 C   0  0  0  0  0  0  0  0  0  0  0  0
  188.8240  178.2640  141.8620 C   0  0  1  0  0  3  0  0  0  0  0  0
  189.3560  178.0960  144.2610 C   0  0  2  0  0  3  0  0  0  0  0  0
  191.3670  177.1880  141.0310 C   0  0  0  0  0  3  0  0  0  0  0  0
  187.6930  176.9130  146.3740 C   0  0  0  0  0  2  0  0  0  0  0  0
  187.9320  177.2880  139.8670 O   0  0  0  0  0  1  0  0  0  0  0  0
  188.8940  177.1100  140.8630 C   0  0  1  0  0  3  0  0  0  0  0  0
  191.2960  177.5200  142.5020 C   0  0  2  0  0  3  0  0  0  0  0  0
  186.7960  179.4590  142.8650 C   0  0  0  0  0  2  0  0  0  0  0  0
  182.6560  178.4130  142.5290 C   0  0  0  0  0  2  0  0  0  0  0  0
  185.3200  179.3530  142.5020 C   0  0  2  0  0  3  0  0  0  0  0  0
  184.4640  179.7280  143.7210 C   0  0  0  0  0  2  0  0  0  0  0  0
  183.2670  178.7890  143.8820 C   0  0  0  0  0  2  0  0  0  0  0  0
  183.7390  178.1270  141.4760 C   0  0  0  0  0  2  0  0  0  0  0  0
  185.0200  178.0530  142.0550 O   0  0  0  0  0  0  0  0  0  0  0  0
  1 21  1  1  0  0  0
  1  2  1  0  0  0  0
  2 15  1  0  0  0  0
  2  6  1  1  0  0  0
  3  9  1  1  0  0  0
  3 15  1  0  0  0  0
  6 17  1  0  0  0  0
  7 12  1  0  0  0  0
  8 19  1  0  0  0  0
  8 16  2  0  0  0  0
 10  8  1  0  0  0  0
 11  7  1  0  0  0  0
 11 13  2  0  0  0  0
 12  4  2  0  0  0  0
 12  5  1  0  0  0  0
 13  4  1  0  0  0  0
 14  1  1  0  0  0  0
 14  3  1  0  0  0  0
 15 11  1  0  0  0  0
 16 20  1  0  0  0  0
 17 13  1  0  0  0  0
 18 19  1  0  0  0  0
 19 14  1  0  0  0  0
 20  9  1  0  0  0  0
 20  3  1  0  0  0  0
 22 25  1  0  0  0  0
 23 21  1  0  0  0  0
 23 24  1  0  0  0  0
 24 25  1  0  0  0  0
 26 27  1  0  0  0  0
 26 22  1  0  0  0  0
 27 23  1  0  0  0  0
M  END
>  <MODEL>
3

>  <REMARK>
 VINA RESULT:      -6.6      2.007      4.796
  Name = 
  2 active torsions:
  status: ('A' for Active; 'I' for Inactive)
    1  A    between atoms: C_1  and  C_15
    2  A    between atoms: C_9  and  C_15
                            x       y       z     vdW  Elec       q    Type
                         _______ _______ _______ _____ _____    ______ ____

>  <TORSDO>
F 2

$$$$
=
 OpenBabel10272401103D

 27 32  0  0  1  0  0  0  0  0999 V2000
  190.5700  177.0280  139.7490 C   0  0  2  0  0  3  0  0  0  0  0  0
  189.3270  177.4200  139.0570 N   0  0  2  0  0  0  0  0  0  0  0  0
  190.2330  175.6980  137.8040 C   0  0  2  0  0  0  0  0  0  0  0  0
  185.9410  177.8730  136.7950 N   0  0  0  0  0  0  0  0  0  0  0  0
  185.0190  176.9560  134.6620 C   0  0  0  0  0  1  0  0  0  0  0  0
  188.2020  177.8820  139.8730 C   0  0  0  0  0  2  0  0  0  0  0  0
  187.3490  175.9750  135.8830 S   0  0  0  0  0  0  0  0  0  0  0  0
  192.9240  176.0170  136.8850 C   0  0  0  0  0  0  0  0  0  0  0  0
  190.2110  174.2560  137.3640 C   0  0  0  0  0  2  0  0  0  0  0  0
  194.3760  175.9470  136.5450 C   0  0  0  0  0  1  0  0  0  0  0  0
  187.8860  176.7150  137.2940 C   0  0  0  0  0  0  0  0  0  0  0  0
  186.0210  177.0080  135.7580 C   0  0  0  0  0  0  0  0  0  0  0  0
  186.9680  177.6910  137.6660 C   0  0  0  0  0  0  0  0  0  0  0  0
  191.3180  176.0720  138.8020 C   0  0  1  0  0  3  0  0  0  0  0  0
  188.9200  176.2640  138.2710 C   0  0  2  0  0  3  0  0  0  0  0  0
  192.0500  175.3620  136.1040 C   0  0  0  0  0  3  0  0  0  0  0  0
  187.1200  178.4850  138.9450 C   0  0  0  0  0  2  0  0  0  0  0  0
  193.4870  177.0700  138.9650 O   0  0  0  0  0  1  0  0  0  0  0  0
  192.4410  176.8130  138.0770 C   0  0  1  0  0  3  0  0  0  0  0  0
  190.5610  175.3560  136.3550 C   0  0  2  0  0  3  0  0  0  0  0  0
  190.3560  176.4170  141.1480 C   0  0  0  0  0  2  0  0  0  0  0  0
  191.5010  178.2140  144.8640 C   0  0  0  0  0  2  0  0  0  0  0  0
  191.0330  177.1900  142.2730 C   0  0  2  0  0  3  0  0  0  0  0  0
  191.5680  176.2040  143.3230 C   0  0  0  0  0  2  0  0  0  0  0  0
  191.3080  176.6990  144.7470 C   0  0  0  0  0  2  0  0  0  0  0  0
  190.9060  178.9580  143.6570 C   0  0  0  0  0  2  0  0  0  0  0  0
  190.1310  178.1030  142.8500 O   0  0  0  0  0  0  0  0  0  0  0  0
  1 21  1  1  0  0  0
  2  1  1  0  0  0  0
  2  6  1  1  0  0  0
  3  9  1  1  0  0  0
  3 15  1  0  0  0  0
  3 14  1  0  0  0  0
  4 13  1  0  0  0  0
  5 12  1  0  0  0  0
  7 11  1  0  0  0  0
  8 19  1  0  0  0  0
 10  8  1  0  0  0  0
 11 13  2  0  0  0  0
 11 15  1  0  0  0  0
 12  7  1  0  0  0  0
 12  4  2  0  0  0  0
 13 17  1  0  0  0  0
 14  1  1  0  0  0  0
 15  2  1  0  0  0  0
 16 20  1  0  0  0  0
 16  8  2  0  0  0  0
 17  6  1  0  0  0  0
 19 14  1  0  0  0  0
 19 18  1  0  0  0  0
 20  9  1  0  0  0  0
 20  3  1  0  0  0  0
 21 23  1  0  0  0  0
 23 27  1  0  0  0  0
 23 24  1  0  0  0  0
 24 25  1  0  0  0  0
 25 22  1  0  0  0  0
 26 22  1  0  0  0  0
 27 26  1  0  0  0  0
M  END
>  <MODEL>
4

>  <REMARK>
 VINA RESULT:      -6.6      4.018      8.488
  Name = 
  2 active torsions:
  status: ('A' for Active; 'I' for Inactive)
    1  A    between atoms: C_1  and  C_15
    2  A    between atoms: C_9  and  C_15
                            x       y       z     vdW  Elec       q    Type
                         _______ _______ _______ _____ _____    ______ ____

>  <TORSDO>
F 2

$$$$
=
 OpenBabel10272401103D

 27 32  0  0  1  0  0  0  0  0999 V2000
  185.1390  178.6000  142.4540 C   0  0  2  0  0  3  0  0  0  0  0  0
  186.3700  178.6110  141.6420 N   0  0  2  0  0  0  0  0  0  0  0  0
  186.8930  177.4400  143.5680 C   0  0  2  0  0  0  0  0  0  0  0  0
  190.0050  178.1050  139.8210 N   0  0  0  0  0  0  0  0  0  0  0  0
  192.2380  177.1510  140.4080 C   0  0  0  0  0  1  0  0  0  0  0  0
  186.2330  178.5750  140.1840 C   0  0  0  0  0  2  0  0  0  0  0  0
  189.9760  176.9070  142.0530 S   0  0  0  0  0  0  0  0  0  0  0  0
  186.4330  178.7530  146.0690 C   0  0  0  0  0  0  0  0  0  0  0  0
  187.1720  176.1310  144.2620 C   0  0  0  0  0  2  0  0  0  0  0  0
  186.0290  179.2200  147.4290 C   0  0  0  0  0  1  0  0  0  0  0  0
  188.5450  177.6390  141.5590 C   0  0  0  0  0  0  0  0  0  0  0  0
  190.8050  177.4310  140.6790 C   0  0  0  0  0  0  0  0  0  0  0  0
  188.7380  178.1980  140.3010 C   0  0  0  0  0  0  0  0  0  0  0  0
  185.5320  178.0600  143.8410 C   0  0  1  0  0  3  0  0  0  0  0  0
  187.1590  177.4720  142.0890 C   0  0  2  0  0  3  0  0  0  0  0  0
  187.4820  177.9220  145.9610 C   0  0  0  0  0  3  0  0  0  0  0  0
  187.6100  178.8620  139.5400 C   0  0  0  0  0  2  0  0  0  0  0  0
  184.4290  179.7180  145.1700 O   0  0  0  0  0  1  0  0  0  0  0  0
  185.6860  179.2100  144.8350 C   0  0  1  0  0  3  0  0  0  0  0  0
  187.9750  177.3810  144.6400 C   0  0  2  0  0  3  0  0  0  0  0  0
  183.9690  177.8140  141.8300 C   0  0  0  0  0  2  0  0  0  0  0  0
  179.9980  179.3520  141.3710 C   0  0  0  0  0  2  0  0  0  0  0  0
  182.7290  178.6570  141.5570 C   0  0  2  0  0  3  0  0  0  0  0  0
  181.9900  178.9240  142.8760 C   0  0  0  0  0  2  0  0  0  0  0  0
  180.4740  178.7880  142.7130 C   0  0  0  0  0  2  0  0  0  0  0  0
  180.9460  178.9680  140.2230 C   0  0  0  0  0  2  0  0  0  0  0  0
  181.8920  178.0080  140.6300 O   0  0  0  0  0  0  0  0  0  0  0  0
  1 21  1  6  0  0  0
  1 14  1  0  0  0  0
  2  6  1  6  0  0  0
  2 15  1  0  0  0  0
  2  1  1  0  0  0  0
  3 14  1  0  0  0  0
  3  9  1  1  0  0  0
  3 20  1  0  0  0  0
  4 13  1  0  0  0  0
  4 12  2  0  0  0  0
  5 12  1  0  0  0  0
  8 10  1  0  0  0  0
  9 20  1  0  0  0  0
 11  7  1  0  0  0  0
 11 15  1  0  0  0  0
 12  7  1  0  0  0  0
 13 11  2  0  0  0  0
 14 19  1  0  0  0  0
 15  3  1  0  0  0  0
 16  8  2  0  0  0  0
 17  6  1  0  0  0  0
 17 13  1  0  0  0  0
 19 18  1  0  0  0  0
 19  8  1  0  0  0  0
 20 16  1  0  0  0  0
 22 25  1  0  0  0  0
 23 21  1  0  0  0  0
 23 24  1  0  0  0  0
 25 24  1  0  0  0  0
 26 27  1  0  0  0  0
 26 22  1  0  0  0  0
 27 23  1  0  0  0  0
M  END
>  <MODEL>
5

>  <REMARK>
 VINA RESULT:      -6.4      3.011      5.122
  Name = 
  2 active torsions:
  status: ('A' for Active; 'I' for Inactive)
    1  A    between atoms: C_1  and  C_15
    2  A    between atoms: C_9  and  C_15
                            x       y       z     vdW  Elec       q    Type
                         _______ _______ _______ _____ _____    ______ ____

>  <TORSDO>
F 2

$$$$
=
 OpenBabel10272401103D

 27 32  0  0  1  0  0  0  0  0999 V2000
  185.0410  178.4460  139.2260 C   0  0  2  0  0  3  0  0  0  0  0  0
  185.5090  178.1910  140.6020 N   0  0  2  0  0  0  0  0  0  0  0  0
  187.4010  178.1500  139.2710 C   0  0  2  0  0  0  0  0  0  0  0  0
  187.4640  177.6480  144.1610 N   0  0  0  0  0  0  0  0  0  0  0  0
  189.7950  177.1730  144.9240 C   0  0  0  0  0  1  0  0  0  0  0  0
  184.7980  178.8450  141.7020 C   0  0  0  0  0  2  0  0  0  0  0  0
  189.1340  177.7620  142.2600 S   0  0  0  0  0  0  0  0  0  0  0  0
  187.4100  176.3400  137.0550 C   0  0  0  0  0  0  0  0  0  0  0  0
  188.6710  178.8060  138.7900 C   0  0  0  0  0  2  0  0  0  0  0  0
  187.4570  175.6230  135.7450 C   0  0  0  0  0  1  0  0  0  0  0  0
  187.5170  178.0140  141.8730 C   0  0  0  0  0  0  0  0  0  0  0  0
  188.7800  177.4950  143.8880 C   0  0  0  0  0  0  0  0  0  0  0  0
  186.7640  177.9640  143.0410 C   0  0  0  0  0  0  0  0  0  0  0  0
  186.2350  178.1660  138.2960 C   0  0  1  0  0  3  0  0  0  0  0  0
  186.9130  178.5740  140.6280 C   0  0  2  0  0  3  0  0  0  0  0  0
  188.5630  176.5720  137.7010 C   0  0  0  0  0  3  0  0  0  0  0  0
  185.2750  178.2370  143.0430 C   0  0  0  0  0  2  0  0  0  0  0  0
  185.0910  176.8220  136.6780 O   0  0  0  0  0  1  0  0  0  0  0  0
  186.0930  176.7880  137.6500 C   0  0  1  0  0  3  0  0  0  0  0  0
  188.6380  177.2920  139.0260 C   0  0  2  0  0  3  0  0  0  0  0  0
  184.4420  179.8490  139.0050 C   0  0  0  0  0  2  0  0  0  0  0  0
  180.3350  180.1900  137.8400 C   0  0  0  0  0  2  0  0  0  0  0  0
  182.9210  179.8720  138.9310 C   0  0  2  0  0  3  0  0  0  0  0  0
  182.4380  178.7830  137.9610 C   0  0  0  0  0  2  0  0  0  0  0  0
  181.3000  179.2850  137.0690 C   0  0  0  0  0  2  0  0  0  0  0  0
  181.0840  181.1580  138.7710 C   0  0  0  0  0  2  0  0  0  0  0  0
  182.4710  181.1430  138.5300 O   0  0  0  0  0  0  0  0  0  0  0  0
  1 21  1  1  0  0  0
  1  2  1  0  0  0  0
  2 15  1  0  0  0  0
  2  6  1  1  0  0  0
  3  9  1  6  0  0  0
  3 15  1  0  0  0  0
  6 17  1  0  0  0  0
  7 12  1  0  0  0  0
  8 19  1  0  0  0  0
  8 16  2  0  0  0  0
  9 20  1  0  0  0  0
 10  8  1  0  0  0  0
 11  7  1  0  0  0  0
 11 13  2  0  0  0  0
 12  4  2  0  0  0  0
 12  5  1  0  0  0  0
 13 17  1  0  0  0  0
 13  4  1  0  0  0  0
 14  1  1  0  0  0  0
 14  3  1  0  0  0  0
 15 11  1  0  0  0  0
 16 20  1  0  0  0  0
 18 19  1  0  0  0  0
 19 14  1  0  0  0  0
 20  3  1  0  0  0  0
 22 26  1  0  0  0  0
 23 21  1  0  0  0  0
 24 23  1  0  0  0  0
 25 22  1  0  0  0  0
 25 24  1  0  0  0  0
 27 26  1  0  0  0  0
 27 23  1  0  0  0  0
M  END
>  <MODEL>
6

>  <REMARK>
 VINA RESULT:      -6.3      3.153      5.814
  Name = 
  2 active torsions:
  status: ('A' for Active; 'I' for Inactive)
    1  A    between atoms: C_1  and  C_15
    2  A    between atoms: C_9  and  C_15
                            x       y       z     vdW  Elec       q    Type
                         _______ _______ _______ _____ _____    ______ ____

>  <TORSDO>
F 2

$$$$
=
 OpenBabel10272401103D

 27 32  0  0  1  0  0  0  0  0999 V2000
  188.3860  177.1450  138.0020 C   0  0  2  0  0  3  0  0  0  0  0  0
  188.5220  177.2950  139.4640 N   0  0  2  0  0  0  0  0  0  0  0  0
  190.6390  176.7880  138.6800 C   0  0  2  0  0  0  0  0  0  0  0  0
  189.6080  177.7660  143.3860 N   0  0  0  0  0  0  0  0  0  0  0  0
  191.6610  177.4540  144.7750 C   0  0  0  0  0  1  0  0  0  0  0  0
  187.6650  178.2740  140.1370 C   0  0  0  0  0  2  0  0  0  0  0  0
  191.6470  177.2450  141.9750 S   0  0  0  0  0  0  0  0  0  0  0  0
  190.9290  174.4000  137.1300 C   0  0  0  0  0  0  0  0  0  0  0  0
  192.0430  177.2230  138.3440 C   0  0  0  0  0  2  0  0  0  0  0  0
  191.1780  173.3240  136.1240 C   0  0  0  0  0  1  0  0  0  0  0  0
  190.1840  177.4310  141.1660 C   0  0  0  0  0  0  0  0  0  0  0  0
  190.9290  177.4900  143.4830 C   0  0  0  0  0  0  0  0  0  0  0  0
  189.1990  177.7590  142.0910 C   0  0  0  0  0  0  0  0  0  0  0  0
  189.7140  176.5560  137.4950 C   0  0  1  0  0  3  0  0  0  0  0  0
  189.9200  177.6160  139.7090 C   0  0  2  0  0  3  0  0  0  0  0  0
  191.9360  174.7710  137.9360 C   0  0  0  0  0  3  0  0  0  0  0  0
  187.7800  178.0760  141.6680 C   0  0  0  0  0  2  0  0  0  0  0  0
  188.8060  174.8340  136.1020 O   0  0  0  0  0  1  0  0  0  0  0  0
  189.5700  175.0540  137.2500 C   0  0  1  0  0  3  0  0  0  0  0  0
  191.8020  175.8510  138.9830 C   0  0  2  0  0  3  0  0  0  0  0  0
  187.9980  178.4400  137.2610 C   0  0  0  0  0  2  0  0  0  0  0  0
  184.6840  177.0690  134.9190 C   0  0  0  0  0  2  0  0  0  0  0  0
  186.7650  178.3040  136.3770 C   0  0  2  0  0  3  0  0  0  0  0  0
  185.6140  177.6930  137.1910 C   0  0  0  0  0  2  0  0  0  0  0  0
  184.8430  176.6480  136.3820 C   0  0  0  0  0  2  0  0  0  0  0  0
  185.9770  177.6910  134.3630 C   0  0  0  0  0  2  0  0  0  0  0  0
  187.0580  177.5190  135.2470 O   0  0  0  0  0  0  0  0  0  0  0  0
  1 21  1  6  0  0  0
  1  2  1  0  0  0  0
  2 15  1  0  0  0  0
  2  6  1  6  0  0  0
  3  9  1  6  0  0  0
  3 20  1  0  0  0  0
  3 15  1  0  0  0  0
  4 12  2  0  0  0  0
  6 17  1  0  0  0  0
  7 12  1  0  0  0  0
  8 19  1  0  0  0  0
  8 16  2  0  0  0  0
  9 20  1  0  0  0  0
 10  8  1  0  0  0  0
 11  7  1  0  0  0  0
 11 13  2  0  0  0  0
 12  5  1  0  0  0  0
 13  4  1  0  0  0  0
 14  1  1  0  0  0  0
 14  3  1  0  0  0  0
 15 11  1  0  0  0  0
 16 20  1  0  0  0  0
 17 13  1  0  0  0  0
 18 19  1  0  0  0  0
 19 14  1  0  0  0  0
 22 25  1  0  0  0  0
 23 24  1  0  0  0  0
 23 21  1  0  0  0  0
 25 24  1  0  0  0  0
 26 22  1  0  0  0  0
 26 27  1  0  0  0  0
 27 23  1  0  0  0  0
M  END
>  <MODEL>
7

>  <REMARK>
 VINA RESULT:      -6.0      2.924      5.754
  Name = 
  2 active torsions:
  status: ('A' for Active; 'I' for Inactive)
    1  A    between atoms: C_1  and  C_15
    2  A    between atoms: C_9  and  C_15
                            x       y       z     vdW  Elec       q    Type
                         _______ _______ _______ _____ _____    ______ ____

>  <TORSDO>
F 2

$$$$
=
 OpenBabel10272401103D

 27 32  0  0  1  0  0  0  0  0999 V2000
  184.7810  178.3180  138.9880 C   0  0  2  0  0  3  0  0  0  0  0  0
  185.8450  178.1510  139.9960 N   0  0  2  0  0  0  0  0  0  0  0  0
  186.8790  177.9170  137.9400 C   0  0  2  0  0  0  0  0  0  0  0  0
  189.2520  177.8010  142.2430 N   0  0  0  0  0  0  0  0  0  0  0  0
  191.6650  177.2800  141.8560 C   0  0  0  0  0  1  0  0  0  0  0  0
  185.7430  178.9230  141.2370 C   0  0  0  0  0  2  0  0  0  0  0  0
  189.8210  177.6870  139.7770 S   0  0  0  0  0  0  0  0  0  0  0  0
  185.8290  175.9390  136.1580 C   0  0  0  0  0  0  0  0  0  0  0  0
  187.7710  178.4740  136.8590 C   0  0  0  0  0  2  0  0  0  0  0  0
  185.2470  175.1200  135.0530 C   0  0  0  0  0  1  0  0  0  0  0  0
  188.2150  177.9830  140.1790 C   0  0  0  0  0  0  0  0  0  0  0  0
  190.2810  177.5660  141.3970 C   0  0  0  0  0  0  0  0  0  0  0  0
  188.1060  178.0600  141.5630 C   0  0  0  0  0  0  0  0  0  0  0  0
  185.3900  177.9100  137.6340 C   0  0  1  0  0  3  0  0  0  0  0  0
  187.0940  178.4700  139.3220 C   0  0  2  0  0  3  0  0  0  0  0  0
  187.1520  176.1680  136.1590 C   0  0  0  0  0  3  0  0  0  0  0  0
  186.7970  178.4010  142.2430 C   0  0  0  0  0  2  0  0  0  0  0  0
  183.6100  176.4980  136.8790 O   0  0  0  0  0  1  0  0  0  0  0  0
  184.9540  176.4940  137.2610 C   0  0  1  0  0  3  0  0  0  0  0  0
  187.8480  176.9860  137.2200 C   0  0  2  0  0  3  0  0  0  0  0  0
  184.1540  179.7260  138.9480 C   0  0  0  0  0  2  0  0  0  0  0  0
  179.9820  178.7550  138.9640 C   0  0  0  0  0  2  0  0  0  0  0  0
  182.6320  179.7310  139.0250 C   0  0  2  0  0  3  0  0  0  0  0  0
  182.1760  178.8860  140.2240 C   0  0  0  0  0  2  0  0  0  0  0  0
  180.9670  178.0160  139.8750 C   0  0  0  0  0  2  0  0  0  0  0  0
  180.7090  179.5580  137.8730 C   0  0  0  0  0  2  0  0  0  0  0  0
  182.0810  179.2460  137.8250 O   0  0  0  0  0  0  0  0  0  0  0  0
  1 21  1  6  0  0  0
  1  2  1  0  0  0  0
  2  6  1  1  0  0  0
  3  9  1  6  0  0  0
  3 15  1  0  0  0  0
  6 17  1  0  0  0  0
  7 11  1  0  0  0  0
  7 12  1  0  0  0  0
  8 16  2  0  0  0  0
  8 19  1  0  0  0  0
  9 20  1  0  0  0  0
 10  8  1  0  0  0  0
 11 13  2  0  0  0  0
 12  5  1  0  0  0  0
 12  4  2  0  0  0  0
 13 17  1  0  0  0  0
 13  4  1  0  0  0  0
 14  3  1  0  0  0  0
 14  1  1  0  0  0  0
 15  2  1  0  0  0  0
 15 11  1  0  0  0  0
 16 20  1  0  0  0  0
 18 19  1  0  0  0  0
 19 14  1  0  0  0  0
 20  3  1  0  0  0  0
 21 23  1  0  0  0  0
 22 25  1  0  0  0  0
 23 24  1  0  0  0  0
 25 24  1  0  0  0  0
 26 22  1  0  0  0  0
 27 26  1  0  0  0  0
 27 23  1  0  0  0  0
M  END
>  <MODEL>
8

>  <REMARK>
 VINA RESULT:      -5.9      3.387      6.366
  Name = 
  2 active torsions:
  status: ('A' for Active; 'I' for Inactive)
    1  A    between atoms: C_1  and  C_15
    2  A    between atoms: C_9  and  C_15
                            x       y       z     vdW  Elec       q    Type
                         _______ _______ _______ _____ _____    ______ ____

>  <TORSDO>
F 2

$$$$
=
 OpenBabel10272401103D

 27 32  0  0  1  0  0  0  0  0999 V2000
  189.6700  177.7140  141.4150 C   0  0  2  0  0  3  0  0  0  0  0  0
  190.1530  177.9650  142.7860 N   0  0  2  0  0  0  0  0  0  0  0  0
  187.9700  177.2300  143.0070 C   0  0  2  0  0  0  0  0  0  0  0  0
  190.9240  178.2600  146.7990 N   0  0  0  0  0  0  0  0  0  0  0  0
  189.6520  178.0380  148.9370 C   0  0  0  0  0  1  0  0  0  0  0  0
  191.5670  177.7130  143.0740 C   0  0  0  0  0  2  0  0  0  0  0  0
  188.5770  177.3850  146.4270 S   0  0  0  0  0  0  0  0  0  0  0  0
  185.9500  178.6620  141.5730 C   0  0  0  0  0  0  0  0  0  0  0  0
  186.9920  176.1440  143.3790 C   0  0  0  0  0  2  0  0  0  0  0  0
  184.8410  179.1630  140.7080 C   0  0  0  0  0  1  0  0  0  0  0  0
  189.5270  177.6280  145.0610 C   0  0  0  0  0  0  0  0  0  0  0  0
  189.7880  177.9430  147.4610 C   0  0  0  0  0  0  0  0  0  0  0  0
  190.7870  178.0590  145.4630 C   0  0  0  0  0  0  0  0  0  0  0  0
  188.1530  177.4780  141.5190 C   0  0  1  0  0  3  0  0  0  0  0  0
  189.3210  177.1520  143.6620 C   0  0  2  0  0  3  0  0  0  0  0  0
  185.6440  178.1460  142.7740 C   0  0  0  0  0  3  0  0  0  0  0  0
  191.9070  178.2870  144.4700 C   0  0  0  0  0  2  0  0  0  0  0  0
  187.4680  178.9190  139.7340 O   0  0  0  0  0  1  0  0  0  0  0  0
  187.3900  178.7400  141.1170 C   0  0  1  0  0  3  0  0  0  0  0  0
  186.6800  177.6040  143.7290 C   0  0  2  0  0  3  0  0  0  0  0  0
  190.3930  176.5660  140.6830 C   0  0  0  0  0  2  0  0  0  0  0  0
  190.4860  176.8440  136.4100 C   0  0  0  0  0  2  0  0  0  0  0  0
  190.1050  176.5030  139.1880 C   0  0  2  0  0  3  0  0  0  0  0  0
  191.1240  175.5760  138.5080 C   0  0  0  0  0  2  0  0  0  0  0  0
  191.6160  176.1540  137.1790 C   0  0  0  0  0  2  0  0  0  0  0  0
  189.5890  177.6760  137.3410 C   0  0  0  0  0  2  0  0  0  0  0  0
  190.1440  177.7940  138.6290 O   0  0  0  0  0  0  0  0  0  0  0  0
  1 21  1  1  0  0  0
  1 14  1  0  0  0  0
  1  2  1  0  0  0  0
  2  6  1  6  0  0  0
  2 15  1  0  0  0  0
  3  9  1  6  0  0  0
  3 15  1  0  0  0  0
  3 20  1  0  0  0  0
  4 12  2  0  0  0  0
  6 17  1  0  0  0  0
  7 12  1  0  0  0  0
  8 16  2  0  0  0  0
  9 20  1  0  0  0  0
 10  8  1  0  0  0  0
 11 13  2  0  0  0  0
 11  7  1  0  0  0  0
 12  5  1  0  0  0  0
 13  4  1  0  0  0  0
 14  3  1  0  0  0  0
 15 11  1  0  0  0  0
 16 20  1  0  0  0  0
 17 13  1  0  0  0  0
 18 19  1  0  0  0  0
 19 14  1  0  0  0  0
 19  8  1  0  0  0  0
 22 25  1  0  0  0  0
 22 26  1  0  0  0  0
 23 21  1  0  0  0  0
 24 23  1  0  0  0  0
 25 24  1  0  0  0  0
 26 27  1  0  0  0  0
 27 23  1  0  0  0  0
M  END
>  <MODEL>
9

>  <REMARK>
 VINA RESULT:      -5.8      1.797      2.294
  Name = 
  2 active torsions:
  status: ('A' for Active; 'I' for Inactive)
    1  A    between atoms: C_1  and  C_15
    2  A    between atoms: C_9  and  C_15
                            x       y       z     vdW  Elec       q    Type
                         _______ _______ _______ _____ _____    ______ ____

>  <TORSDO>
F 2

$$$$
