=
 OpenBabel10272415003D

 37 42  0  0  1  0  0  0  0  0999 V2000
  190.4740  177.5560  138.2900 C   0  0  1  0  0  3  0  0  0  0  0  0
  192.8050  174.1860  135.2680 C   0  0  0  0  0  2  0  0  0  0  0  0
  188.6580  173.7800  136.9200 C   0  0  2  0  0  3  0  0  0  0  0  0
  186.8450  176.4270  137.5740 C   0  0  2  0  0  3  0  0  0  0  0  0
  190.3520  173.3880  135.0080 C   0  0  1  0  0  3  0  0  0  0  0  0
  188.2510  175.2020  136.4560 C   0  0  1  0  0  3  0  0  0  0  0  0
  192.7670  176.5940  138.9340 S   0  0  0  0  0  0  0  0  0  0  0  0
  190.1120  173.4480  136.5460 C   0  0  1  0  0  3  0  0  0  0  0  0
  186.7400  175.4950  136.3780 C   0  0  1  0  0  3  0  0  0  0  0  0
  190.5200  174.6900  134.4930 O   0  0  0  0  0  0  0  0  0  0  0  0
  191.1200  174.1200  137.4890 C   0  0  0  0  0  2  0  0  0  0  0  0
  192.6250  176.5860  135.1740 O   0  0  0  0  0  1  0  0  0  0  0  0
  186.2980  173.1070  134.4970 C   0  0  0  0  0  1  0  0  0  0  0  0
  191.5770  176.5200  138.1190 C   0  0  0  0  0  0  0  0  0  0  0  0
  188.0400  171.5140  136.5640 O   0  0  0  0  0  0  0  0  0  0  0  0
  191.4860  175.5120  136.9980 C   0  0  1  0  0  3  0  0  0  0  0  0
  186.4290  177.8380  137.1810 C   0  0  0  0  0  1  0  0  0  0  0  0
  187.7040  172.6860  136.4840 C   0  0  0  0  0  0  0  0  0  0  0  0
  188.3590  176.1630  137.6300 C   0  0  1  0  0  3  0  0  0  0  0  0
  191.6260  173.8280  134.3470 C   0  0  1  0  0  3  0  0  0  0  0  0
  185.8490  174.2950  136.7100 C   0  0  2  0  0  3  0  0  0  0  0  0
  192.6890  175.5010  136.0490 C   0  0  1  0  0  3  0  0  0  0  0  0
  189.2960  177.3310  137.3660 C   0  0  0  0  0  0  0  0  0  0  0  0
  189.2840  177.9870  136.2010 C   0  0  0  0  0  2  0  0  0  0  0  0
  186.3200  173.0100  136.0170 C   0  0  1  0  0  3  0  0  0  0  0  0
  184.1070  175.7480  135.5550 C   0  0  0  0  0  2  0  0  0  0  0  0
  184.3540  174.6050  136.5610 C   0  0  2  0  0  3  0  0  0  0  0  0
  183.6380  174.8020  137.8740 C   0  0  0  0  0  3  0  0  0  0  0  0
  181.7530  175.5160  139.0530 F   0  0  0  0  0  0  0  0  0  0  0  0
  181.7650  175.7100  136.5810 C   0  0  0  0  0  2  0  0  0  0  0  0
  182.3990  175.3010  137.8780 C   0  0  0  0  0  0  0  0  0  0  0  0
  182.7800  176.5050  135.7580 C   0  0  0  0  0  2  0  0  0  0  0  0
  188.8180  178.6630  139.8510 C   0  0  0  0  0  1  0  0  0  0  0  0
  190.0670  177.8010  139.7600 C   0  0  1  0  0  3  0  0  0  0  0  0
  189.9150  176.5100  140.5620 C   0  0  0  0  0  2  0  0  0  0  0  0
  190.3070  176.7150  142.0170 C   0  0  0  0  0  2  0  0  0  0  0  0
  189.2660  176.1100  142.9400 C   0  0  0  0  0  1  0  0  0  0  0  0
  1 34  1  1  0  0  0
  2 22  1  0  0  0  0
  3 18  1  6  0  0  0
  4 17  1  6  0  0  0
  4 19  1  0  0  0  0
  5 10  1  6  0  0  0
  5  8  1  0  0  0  0
  6  3  1  0  0  0  0
  6 19  1  0  0  0  0
  8  3  1  0  0  0  0
  8 11  1  0  0  0  0
  9  6  1  0  0  0  0
  9 21  1  0  0  0  0
  9  4  1  0  0  0  0
 12 22  1  0  0  0  0
 13 25  1  0  0  0  0
 14  1  1  0  0  0  0
 14  7  2  0  0  0  0
 16 11  1  0  0  0  0
 16 14  1  0  0  0  0
 18 15  2  0  0  0  0
 20 10  1  0  0  0  0
 20  5  1  0  0  0  0
 20  2  1  0  0  0  0
 22 16  1  0  0  0  0
 23 19  1  0  0  0  0
 23  1  1  0  0  0  0
 24 23  2  0  0  0  0
 25 18  1  0  0  0  0
 25 21  1  0  0  0  0
 26 32  1  0  0  0  0
 26 27  1  0  0  0  0
 27 21  1  0  0  0  0
 27 28  1  0  0  0  0
 28 31  2  0  0  0  0
 30 31  1  0  0  0  0
 31 29  1  0  0  0  0
 32 30  1  0  0  0  0
 34 33  1  0  0  0  0
 34 35  1  0  0  0  0
 35 36  1  0  0  0  0
 36 37  1  0  0  0  0
M  END
>  <MODEL>
1

>  <REMARK>
 VINA RESULT:      -5.6      0.000      0.000
  Name = 
  4 active torsions:
  status: ('A' for Active; 'I' for Inactive)
    1  A    between atoms: C_1  and  C_17
    2  A    between atoms: C_6  and  C_31
    3  A    between atoms: C_11  and  C_26
    4  A    between atoms: C_17  and  C_26
                            x       y       z     vdW  Elec       q    Type
                         _______ _______ _______ _____ _____    ______ ____

>  <TORSDO>
F 4

$$$$
=
 OpenBabel10272415003D

 37 42  0  0  1  0  0  0  0  0999 V2000
  189.9330  176.7980  136.9160 C   0  0  1  0  0  3  0  0  0  0  0  0
  190.2420  171.9890  135.2690 C   0  0  0  0  0  2  0  0  0  0  0  0
  186.5660  173.9520  136.9200 C   0  0  2  0  0  3  0  0  0  0  0  0
  186.0970  177.1770  136.6010 C   0  0  2  0  0  3  0  0  0  0  0  0
  187.6660  172.2870  135.2780 C   0  0  1  0  0  3  0  0  0  0  0  0
  186.7110  175.1830  135.9890 C   0  0  1  0  0  3  0  0  0  0  0  0
  191.7020  175.2010  137.8740 S   0  0  0  0  0  0  0  0  0  0  0  0
  187.6910  172.9280  136.6980 C   0  0  1  0  0  3  0  0  0  0  0  0
  185.4550  176.0560  135.8000 C   0  0  1  0  0  3  0  0  0  0  0  0
  188.2740  173.1540  134.3460 O   0  0  0  0  0  0  0  0  0  0  0  0
  189.0060  173.3600  137.3590 C   0  0  0  0  0  2  0  0  0  0  0  0
  191.0420  174.0670  134.3490 O   0  0  0  0  0  1  0  0  0  0  0  0
  183.8200  173.6320  134.8580 C   0  0  0  0  0  1  0  0  0  0  0  0
  190.4840  175.3930  137.1240 C   0  0  0  0  0  0  0  0  0  0  0  0
  185.0360  172.1900  137.3640 O   0  0  0  0  0  0  0  0  0  0  0  0
  189.8340  174.2240  136.4200 C   0  0  1  0  0  3  0  0  0  0  0  0
  186.2400  178.4250  135.7400 C   0  0  0  0  0  1  0  0  0  0  0  0
  185.1980  173.3000  136.8800 C   0  0  0  0  0  0  0  0  0  0  0  0
  187.3640  176.3210  136.7590 C   0  0  1  0  0  3  0  0  0  0  0  0
  188.9020  171.9030  134.5170 C   0  0  1  0  0  3  0  0  0  0  0  0
  184.2100  175.5300  136.5190 C   0  0  2  0  0  3  0  0  0  0  0  0
  190.7810  173.3980  135.5450 C   0  0  1  0  0  3  0  0  0  0  0  0
  188.6480  176.8220  136.1160 C   0  0  0  0  0  0  0  0  0  0  0  0
  188.7400  177.0130  134.7960 C   0  0  0  0  0  2  0  0  0  0  0  0
  184.0150  174.0220  136.3170 C   0  0  1  0  0  3  0  0  0  0  0  0
  182.9390  176.9280  134.8130 C   0  0  0  0  0  2  0  0  0  0  0  0
  182.9650  176.3880  136.2580 C   0  0  2  0  0  3  0  0  0  0  0  0
  182.7310  177.4560  137.2970 C   0  0  0  0  0  3  0  0  0  0  0  0
  181.6270  179.3980  137.9770 F   0  0  0  0  0  0  0  0  0  0  0  0
  181.1000  178.4340  135.7540 C   0  0  0  0  0  2  0  0  0  0  0  0
  181.8260  178.4100  137.0660 C   0  0  0  0  0  0  0  0  0  0  0  0
  182.1040  178.2090  134.6220 C   0  0  0  0  0  2  0  0  0  0  0  0
  189.3250  179.0350  137.9300 C   0  0  0  0  0  1  0  0  0  0  0  0
  189.8720  177.6440  138.2070 C   0  0  1  0  0  3  0  0  0  0  0  0
  189.1090  176.9580  139.3380 C   0  0  0  0  0  2  0  0  0  0  0  0
  189.8290  177.1200  140.6670 C   0  0  0  0  0  2  0  0  0  0  0  0
  189.0340  178.0160  141.5980 C   0  0  0  0  0  1  0  0  0  0  0  0
  1 14  1  0  0  0  0
  1 34  1  1  0  0  0
  2 22  1  0  0  0  0
  3 18  1  6  0  0  0
  4 17  1  6  0  0  0
  4 19  1  0  0  0  0
  5 10  1  6  0  0  0
  5  8  1  0  0  0  0
  6 19  1  0  0  0  0
  6  3  1  0  0  0  0
  8  3  1  0  0  0  0
  8 11  1  0  0  0  0
  9  6  1  0  0  0  0
  9 21  1  0  0  0  0
  9  4  1  0  0  0  0
 10 20  1  0  0  0  0
 12 22  1  0  0  0  0
 13 25  1  0  0  0  0
 14  7  2  0  0  0  0
 16 14  1  0  0  0  0
 16 11  1  0  0  0  0
 18 15  2  0  0  0  0
 20  2  1  0  0  0  0
 20  5  1  0  0  0  0
 22 16  1  0  0  0  0
 23 19  1  0  0  0  0
 23  1  1  0  0  0  0
 24 23  2  0  0  0  0
 25 21  1  0  0  0  0
 25 18  1  0  0  0  0
 26 27  1  0  0  0  0
 27 21  1  0  0  0  0
 27 28  1  0  0  0  0
 30 31  1  0  0  0  0
 31 28  2  0  0  0  0
 31 29  1  0  0  0  0
 32 26  1  0  0  0  0
 32 30  1  0  0  0  0
 33 34  1  0  0  0  0
 34 35  1  0  0  0  0
 35 36  1  0  0  0  0
 36 37  1  0  0  0  0
M  END
>  <MODEL>
2

>  <REMARK>
 VINA RESULT:      -4.8      1.653      2.390
  Name = 
  4 active torsions:
  status: ('A' for Active; 'I' for Inactive)
    1  A    between atoms: C_1  and  C_17
    2  A    between atoms: C_6  and  C_31
    3  A    between atoms: C_11  and  C_26
    4  A    between atoms: C_17  and  C_26
                            x       y       z     vdW  Elec       q    Type
                         _______ _______ _______ _____ _____    ______ ____

>  <TORSDO>
F 4

$$$$
=
 OpenBabel10272415003D

 37 42  0  0  1  0  0  0  0  0999 V2000
  189.3130  177.8990  138.7030 C   0  0  1  0  0  3  0  0  0  0  0  0
  190.8830  174.6100  135.1470 C   0  0  0  0  0  2  0  0  0  0  0  0
  186.9260  174.4900  137.2490 C   0  0  2  0  0  3  0  0  0  0  0  0
  185.5200  177.2390  138.3390 C   0  0  2  0  0  3  0  0  0  0  0  0
  188.3390  174.1080  135.1190 C   0  0  1  0  0  3  0  0  0  0  0  0
  186.6400  175.9860  136.9590 C   0  0  1  0  0  3  0  0  0  0  0  0
  191.5340  176.6390  138.9800 S   0  0  0  0  0  0  0  0  0  0  0  0
  188.2800  174.0430  136.6750 C   0  0  1  0  0  3  0  0  0  0  0  0
  185.1740  176.4450  137.0900 C   0  0  1  0  0  3  0  0  0  0  0  0
  188.6000  175.4280  134.7000 O   0  0  0  0  0  0  0  0  0  0  0  0
  189.4580  174.5080  137.5420 C   0  0  0  0  0  2  0  0  0  0  0  0
  190.9760  177.0140  135.2790 O   0  0  0  0  0  1  0  0  0  0  0  0
  184.2490  174.3130  135.0820 C   0  0  0  0  0  1  0  0  0  0  0  0
  190.2610  176.7730  138.3120 C   0  0  0  0  0  0  0  0  0  0  0  0
  186.0100  172.3490  136.7810 O   0  0  0  0  0  0  0  0  0  0  0  0
  189.9290  175.8940  137.1290 C   0  0  1  0  0  3  0  0  0  0  0  0
  185.2310  178.7180  138.1200 C   0  0  0  0  0  1  0  0  0  0  0  0
  185.8070  173.5520  136.8410 C   0  0  0  0  0  0  0  0  0  0  0  0
  186.9890  176.8110  138.1880 C   0  0  1  0  0  3  0  0  0  0  0  0
  189.5750  174.4720  134.3480 C   0  0  1  0  0  3  0  0  0  0  0  0
  184.1910  175.3200  137.4260 C   0  0  2  0  0  3  0  0  0  0  0  0
  191.0090  175.8470  136.0440 C   0  0  1  0  0  3  0  0  0  0  0  0
  188.0220  177.8930  137.9130 C   0  0  0  0  0  0  0  0  0  0  0  0
  187.9580  178.6560  136.8170 C   0  0  0  0  0  2  0  0  0  0  0  0
  184.4270  174.0660  136.5740 C   0  0  1  0  0  3  0  0  0  0  0  0
  182.5140  177.0560  136.6170 C   0  0  0  0  0  2  0  0  0  0  0  0
  182.7350  175.8010  137.4850 C   0  0  2  0  0  3  0  0  0  0  0  0
  182.1970  175.9450  138.8870 C   0  0  0  0  0  3  0  0  0  0  0  0
  180.5520  176.7390  140.3430 F   0  0  0  0  0  0  0  0  0  0  0  0
  180.3130  177.1690  137.9130 C   0  0  0  0  0  2  0  0  0  0  0  0
  181.0340  176.5710  139.0840 C   0  0  0  0  0  0  0  0  0  0  0  0
  181.3160  177.9280  137.0410 C   0  0  0  0  0  2  0  0  0  0  0  0
  187.8160  178.7860  140.5390 C   0  0  0  0  0  1  0  0  0  0  0  0
  189.1030  178.0410  140.2260 C   0  0  1  0  0  3  0  0  0  0  0  0
  189.1720  176.7070  140.9670 C   0  0  0  0  0  2  0  0  0  0  0  0
  189.5660  176.9040  142.4230 C   0  0  0  0  0  2  0  0  0  0  0  0
  188.4370  176.4820  143.3430 C   0  0  0  0  0  1  0  0  0  0  0  0
  1 34  1  1  0  0  0
  2 22  1  0  0  0  0
  3 18  1  6  0  0  0
  4 17  1  6  0  0  0
  5 10  1  1  0  0  0
  5  8  1  0  0  0  0
  6  9  1  0  0  0  0
  6  3  1  0  0  0  0
  6 19  1  0  0  0  0
  8  3  1  0  0  0  0
  8 11  1  0  0  0  0
  9 21  1  0  0  0  0
  9  4  1  0  0  0  0
 12 22  1  0  0  0  0
 13 25  1  0  0  0  0
 14  1  1  0  0  0  0
 14  7  2  0  0  0  0
 15 18  2  0  0  0  0
 16 11  1  0  0  0  0
 16 14  1  0  0  0  0
 19  4  1  0  0  0  0
 20 10  1  0  0  0  0
 20  5  1  0  0  0  0
 20  2  1  0  0  0  0
 21 27  1  0  0  0  0
 22 16  1  0  0  0  0
 23 19  1  0  0  0  0
 23  1  1  0  0  0  0
 24 23  2  0  0  0  0
 25 18  1  0  0  0  0
 25 21  1  0  0  0  0
 26 32  1  0  0  0  0
 26 27  1  0  0  0  0
 27 28  1  0  0  0  0
 28 31  2  0  0  0  0
 30 31  1  0  0  0  0
 31 29  1  0  0  0  0
 32 30  1  0  0  0  0
 34 33  1  0  0  0  0
 34 35  1  0  0  0  0
 35 36  1  0  0  0  0
 36 37  1  0  0  0  0
M  END
>  <MODEL>
3

>  <REMARK>
 VINA RESULT:      -4.5      1.443      1.859
  Name = 
  4 active torsions:
  status: ('A' for Active; 'I' for Inactive)
    1  A    between atoms: C_1  and  C_17
    2  A    between atoms: C_6  and  C_31
    3  A    between atoms: C_11  and  C_26
    4  A    between atoms: C_17  and  C_26
                            x       y       z     vdW  Elec       q    Type
                         _______ _______ _______ _____ _____    ______ ____

>  <TORSDO>
F 4

$$$$
=
 OpenBabel10272415003D

 37 42  0  0  1  0  0  0  0  0999 V2000
  188.5030  171.8170  135.5680 C   0  0  1  0  0  3  0  0  0  0  0  0
  191.2050  176.0180  136.5570 C   0  0  0  0  0  2  0  0  0  0  0  0
  186.9020  175.9170  135.3060 C   0  0  2  0  0  3  0  0  0  0  0  0
  184.9940  173.3660  136.0630 C   0  0  2  0  0  3  0  0  0  0  0  0
  188.8080  176.9980  136.6770 C   0  0  1  0  0  3  0  0  0  0  0  0
  186.5330  174.8670  136.3860 C   0  0  1  0  0  3  0  0  0  0  0  0
  190.7190  172.2610  134.3470 S   0  0  0  0  0  0  0  0  0  0  0  0
  188.3940  176.2890  135.3530 C   0  0  1  0  0  3  0  0  0  0  0  0
  185.0370  174.7300  136.7310 C   0  0  1  0  0  3  0  0  0  0  0  0
  189.0170  176.0430  137.6930 O   0  0  0  0  0  0  0  0  0  0  0  0
  189.2790  175.2130  134.7090 C   0  0  0  0  0  2  0  0  0  0  0  0
  191.0070  173.9140  137.7140 O   0  0  0  0  0  1  0  0  0  0  0  0
  184.8430  177.7210  137.4030 C   0  0  0  0  0  1  0  0  0  0  0  0
  189.6300  172.7550  135.1580 C   0  0  0  0  0  0  0  0  0  0  0  0
  186.3560  178.1450  134.6880 O   0  0  0  0  0  0  0  0  0  0  0  0
  189.6810  174.1550  135.7240 C   0  0  1  0  0  3  0  0  0  0  0  0
  184.6080  172.2960  137.0750 C   0  0  0  0  0  1  0  0  0  0  0  0
  186.0180  177.1480  135.3080 C   0  0  0  0  0  0  0  0  0  0  0  0
  186.4940  173.4850  135.7500 C   0  0  1  0  0  3  0  0  0  0  0  0
  190.1440  176.8130  137.3370 C   0  0  1  0  0  3  0  0  0  0  0  0
  184.1290  175.7180  135.9930 C   0  0  2  0  0  3  0  0  0  0  0  0
  190.9840  174.5040  136.4500 C   0  0  1  0  0  3  0  0  0  0  0  0
  187.4400  172.4940  136.4080 C   0  0  0  0  0  0  0  0  0  0  0  0
  187.5540  172.4130  137.7380 C   0  0  0  0  0  2  0  0  0  0  0  0
  184.6920  177.1450  136.0020 C   0  0  1  0  0  3  0  0  0  0  0  0
  181.8280  176.8030  135.9230 C   0  0  0  0  0  2  0  0  0  0  0  0
  182.6570  175.5960  136.4080 C   0  0  2  0  0  3  0  0  0  0  0  0
  182.4600  175.2870  137.8710 C   0  0  0  0  0  3  0  0  0  0  0  0
  181.0500  175.1420  139.7270 F   0  0  0  0  0  0  0  0  0  0  0  0
  180.0990  175.8560  137.5520 C   0  0  0  0  0  2  0  0  0  0  0  0
  181.2390  175.3850  138.4040 C   0  0  0  0  0  0  0  0  0  0  0  0
  180.5490  177.0720  136.7410 C   0  0  0  0  0  2  0  0  0  0  0  0
  188.5620  169.6020  134.3460 C   0  0  0  0  0  1  0  0  0  0  0  0
  187.9270  170.9830  134.4020 C   0  0  1  0  0  3  0  0  0  0  0  0
  186.4030  170.8970  134.4210 C   0  0  0  0  0  2  0  0  0  0  0  0
  185.9330  169.5130  134.8410 C   0  0  0  0  0  2  0  0  0  0  0  0
  184.4180  169.4420  134.8400 C   0  0  0  0  0  1  0  0  0  0  0  0
  1 34  1  6  0  0  0
  1 23  1  0  0  0  0
  2 20  1  0  0  0  0
  3 18  1  1  0  0  0
  3  8  1  0  0  0  0
  3  6  1  0  0  0  0
  4  9  1  0  0  0  0
  4 17  1  1  0  0  0
  5 20  1  0  0  0  0
  5 10  1  1  0  0  0
  6  9  1  0  0  0  0
  7 14  2  0  0  0  0
  8  5  1  0  0  0  0
 11  8  1  0  0  0  0
 11 16  1  0  0  0  0
 14  1  1  0  0  0  0
 14 16  1  0  0  0  0
 15 18  2  0  0  0  0
 16 22  1  0  0  0  0
 18 25  1  0  0  0  0
 19  4  1  0  0  0  0
 19  6  1  0  0  0  0
 19 23  1  0  0  0  0
 20 10  1  0  0  0  0
 21 25  1  0  0  0  0
 21 27  1  0  0  0  0
 21  9  1  0  0  0  0
 22  2  1  0  0  0  0
 22 12  1  0  0  0  0
 23 24  2  0  0  0  0
 25 13  1  0  0  0  0
 26 27  1  0  0  0  0
 26 32  1  0  0  0  0
 27 28  1  0  0  0  0
 28 31  2  0  0  0  0
 30 31  1  0  0  0  0
 31 29  1  0  0  0  0
 32 30  1  0  0  0  0
 33 34  1  0  0  0  0
 34 35  1  0  0  0  0
 35 36  1  0  0  0  0
 37 36  1  0  0  0  0
M  END
>  <MODEL>
4

>  <REMARK>
 VINA RESULT:      -4.3      2.418      5.346
  Name = 
  4 active torsions:
  status: ('A' for Active; 'I' for Inactive)
    1  A    between atoms: C_1  and  C_17
    2  A    between atoms: C_6  and  C_31
    3  A    between atoms: C_11  and  C_26
    4  A    between atoms: C_17  and  C_26
                            x       y       z     vdW  Elec       q    Type
                         _______ _______ _______ _____ _____    ______ ____

>  <TORSDO>
F 4

$$$$
=
 OpenBabel10272415003D

 37 42  0  0  1  0  0  0  0  0999 V2000
  182.2430  173.5690  136.5350 C   0  0  1  0  0  3  0  0  0  0  0  0
  180.2690  178.2180  137.1820 C   0  0  0  0  0  2  0  0  0  0  0  0
  184.4920  177.0240  138.0960 C   0  0  2  0  0  3  0  0  0  0  0  0
  185.9610  174.6290  136.4160 C   0  0  2  0  0  3  0  0  0  0  0  0
  182.7950  178.7950  137.2780 C   0  0  1  0  0  3  0  0  0  0  0  0
  184.6890  176.3690  136.7050 C   0  0  1  0  0  3  0  0  0  0  0  0
  180.1240  173.9020  137.9480 S   0  0  0  0  0  0  0  0  0  0  0  0
  183.0820  177.6160  138.2570 C   0  0  1  0  0  3  0  0  0  0  0  0
  186.1440  176.1290  136.2560 C   0  0  1  0  0  3  0  0  0  0  0  0
  182.4370  178.2940  136.0100 O   0  0  0  0  0  0  0  0  0  0  0  0
  182.0300  176.5360  138.5410 C   0  0  0  0  0  2  0  0  0  0  0  0
  180.1260  176.6390  135.3670 O   0  0  0  0  0  1  0  0  0  0  0  0
  186.8290  179.0990  136.6370 C   0  0  0  0  0  1  0  0  0  0  0  0
  181.2820  174.4700  137.2990 C   0  0  0  0  0  0  0  0  0  0  0  0
  185.3920  178.7880  139.4080 O   0  0  0  0  0  0  0  0  0  0  0  0
  181.4640  175.9690  137.2480 C   0  0  1  0  0  3  0  0  0  0  0  0
  186.1710  173.9270  135.0800 C   0  0  0  0  0  1  0  0  0  0  0  0
  185.5660  178.0270  138.4690 C   0  0  0  0  0  0  0  0  0  0  0  0
  184.4990  174.8640  136.8280 C   0  0  1  0  0  3  0  0  0  0  0  0
  181.4500  179.0580  136.6650 C   0  0  1  0  0  3  0  0  0  0  0  0
  187.1980  176.6470  137.2390 C   0  0  2  0  0  3  0  0  0  0  0  0
  180.2390  176.7450  136.7540 C   0  0  1  0  0  3  0  0  0  0  0  0
  183.4060  174.3200  135.9220 C   0  0  0  0  0  0  0  0  0  0  0  0
  183.2860  174.7230  134.6520 C   0  0  0  0  0  2  0  0  0  0  0  0
  186.8770  178.0580  137.7470 C   0  0  1  0  0  3  0  0  0  0  0  0
  188.6970  176.4640  135.1900 C   0  0  0  0  0  2  0  0  0  0  0  0
  188.6320  176.4500  136.7310 C   0  0  2  0  0  3  0  0  0  0  0  0
  189.3390  175.2680  137.3460 C   0  0  0  0  0  3  0  0  0  0  0  0
  191.1290  173.7670  137.3460 F   0  0  0  0  0  0  0  0  0  0  0  0
  191.0410  175.5290  135.6040 C   0  0  0  0  0  2  0  0  0  0  0  0
  190.4960  174.8500  136.8250 C   0  0  0  0  0  0  0  0  0  0  0  0
  189.9100  175.7230  134.5920 C   0  0  0  0  0  2  0  0  0  0  0  0
  181.5520  171.2740  137.3460 C   0  0  0  0  0  1  0  0  0  0  0  0
  182.6690  172.3050  137.3140 C   0  0  1  0  0  3  0  0  0  0  0  0
  183.9750  171.6990  136.8050 C   0  0  0  0  0  2  0  0  0  0  0  0
  183.7140  170.5100  135.8930 C   0  0  0  0  0  2  0  0  0  0  0  0
  184.5270  170.6270  134.6180 C   0  0  0  0  0  1  0  0  0  0  0  0
  1 14  1  0  0  0  0
  1 34  1  1  0  0  0
  3  8  1  0  0  0  0
  3 18  1  6  0  0  0
  4 17  1  6  0  0  0
  4 19  1  0  0  0  0
  5 10  1  6  0  0  0
  5  8  1  0  0  0  0
  6 19  1  0  0  0  0
  6  3  1  0  0  0  0
  8 11  1  0  0  0  0
  9  4  1  0  0  0  0
  9  6  1  0  0  0  0
  9 21  1  0  0  0  0
 10 20  1  0  0  0  0
 12 22  1  0  0  0  0
 13 25  1  0  0  0  0
 14  7  2  0  0  0  0
 16 14  1  0  0  0  0
 16 11  1  0  0  0  0
 18 15  2  0  0  0  0
 20  2  1  0  0  0  0
 20  5  1  0  0  0  0
 21 25  1  0  0  0  0
 22  2  1  0  0  0  0
 22 16  1  0  0  0  0
 23  1  1  0  0  0  0
 23 19  1  0  0  0  0
 24 23  2  0  0  0  0
 25 18  1  0  0  0  0
 26 27  1  0  0  0  0
 27 21  1  0  0  0  0
 27 28  1  0  0  0  0
 30 31  1  0  0  0  0
 31 28  2  0  0  0  0
 31 29  1  0  0  0  0
 32 26  1  0  0  0  0
 32 30  1  0  0  0  0
 34 33  1  0  0  0  0
 35 34  1  0  0  0  0
 36 35  1  0  0  0  0
 37 36  1  0  0  0  0
M  END
>  <MODEL>
5

>  <REMARK>
 VINA RESULT:      -4.1      4.130      8.516
  Name = 
  4 active torsions:
  status: ('A' for Active; 'I' for Inactive)
    1  A    between atoms: C_1  and  C_17
    2  A    between atoms: C_6  and  C_31
    3  A    between atoms: C_11  and  C_26
    4  A    between atoms: C_17  and  C_26
                            x       y       z     vdW  Elec       q    Type
                         _______ _______ _______ _____ _____    ______ ____

>  <TORSDO>
F 4

$$$$
=
 OpenBabel10272415003D

 37 42  0  0  1  0  0  0  0  0999 V2000
  184.2430  177.5630  137.4740 C   0  0  1  0  0  3  0  0  0  0  0  0
  179.9860  180.1580  138.5080 C   0  0  0  0  0  2  0  0  0  0  0  0
  182.6320  178.1710  141.5320 C   0  0  2  0  0  3  0  0  0  0  0  0
  185.8420  177.8270  140.9860 C   0  0  2  0  0  3  0  0  0  0  0  0
  181.0570  180.1110  140.8690 C   0  0  1  0  0  3  0  0  0  0  0  0
  183.9120  178.8300  140.9580 C   0  0  1  0  0  3  0  0  0  0  0  0
  182.0260  176.9370  136.3400 S   0  0  0  0  0  0  0  0  0  0  0  0
  181.3730  178.5890  140.7540 C   0  0  1  0  0  3  0  0  0  0  0  0
  185.1500  178.8460  141.8770 C   0  0  1  0  0  3  0  0  0  0  0  0
  181.8560  180.8400  139.9640 O   0  0  0  0  0  0  0  0  0  0  0  0
  181.2430  177.8420  139.4200 C   0  0  0  0  0  2  0  0  0  0  0  0
  181.8520  180.6260  137.0570 O   0  0  0  0  0  1  0  0  0  0  0  0
  183.5780  180.2790  144.0920 C   0  0  0  0  0  1  0  0  0  0  0  0
  182.7250  177.6420  137.3880 C   0  0  0  0  0  0  0  0  0  0  0  0
  181.3770  178.1110  143.5480 O   0  0  0  0  0  0  0  0  0  0  0  0
  181.9730  178.5770  138.3070 C   0  0  1  0  0  3  0  0  0  0  0  0
  187.1260  178.4130  140.4140 C   0  0  0  0  0  1  0  0  0  0  0  0
  182.4540  178.3560  143.0260 C   0  0  0  0  0  0  0  0  0  0  0  0
  184.6230  177.8370  140.0490 C   0  0  1  0  0  3  0  0  0  0  0  0
  180.4630  180.9230  139.7540 C   0  0  1  0  0  3  0  0  0  0  0  0
  184.9060  178.2610  143.2700 C   0  0  2  0  0  3  0  0  0  0  0  0
  181.0790  179.5940  137.5910 C   0  0  1  0  0  3  0  0  0  0  0  0
  184.8170  178.3520  138.6320 C   0  0  0  0  0  0  0  0  0  0  0  0
  185.2200  179.6040  138.3930 C   0  0  0  0  0  2  0  0  0  0  0  0
  183.6000  178.7700  143.8950 C   0  0  1  0  0  3  0  0  0  0  0  0
  187.1950  177.2880  143.8120 C   0  0  0  0  0  2  0  0  0  0  0  0
  186.1400  178.3520  144.1780 C   0  0  2  0  0  3  0  0  0  0  0  0
  185.8130  178.3850  145.6500 C   0  0  0  0  0  3  0  0  0  0  0  0
  186.5110  178.2240  147.8730 F   0  0  0  0  0  0  0  0  0  0  0  0
  188.1900  177.9680  146.0670 C   0  0  0  0  0  2  0  0  0  0  0  0
  186.7930  178.2290  146.5440 C   0  0  0  0  0  0  0  0  0  0  0  0
  188.1520  176.9130  144.9600 C   0  0  0  0  0  2  0  0  0  0  0  0
  183.7360  175.0940  137.6970 C   0  0  0  0  0  1  0  0  0  0  0  0
  184.8020  176.1270  137.3700 C   0  0  1  0  0  3  0  0  0  0  0  0
  185.4660  175.8380  136.0260 C   0  0  0  0  0  2  0  0  0  0  0  0
  186.8190  176.5250  135.9190 C   0  0  0  0  0  2  0  0  0  0  0  0
  187.6650  176.2310  137.1420 C   0  0  0  0  0  1  0  0  0  0  0  0
  1 34  1  1  0  0  0
  1 23  1  0  0  0  0
  2 20  1  0  0  0  0
  3 18  1  1  0  0  0
  4 17  1  6  0  0  0
  4  9  1  0  0  0  0
  5 10  1  6  0  0  0
  6  3  1  0  0  0  0
  6  9  1  0  0  0  0
  7 14  2  0  0  0  0
  8  5  1  0  0  0  0
  8  3  1  0  0  0  0
  9 21  1  0  0  0  0
 11  8  1  0  0  0  0
 12 22  1  0  0  0  0
 14  1  1  0  0  0  0
 14 16  1  0  0  0  0
 16 11  1  0  0  0  0
 18 15  2  0  0  0  0
 18 25  1  0  0  0  0
 19  6  1  0  0  0  0
 19  4  1  0  0  0  0
 20 10  1  0  0  0  0
 20  5  1  0  0  0  0
 21 25  1  0  0  0  0
 21 27  1  0  0  0  0
 22 16  1  0  0  0  0
 22  2  1  0  0  0  0
 23 19  1  0  0  0  0
 24 23  2  0  0  0  0
 25 13  1  0  0  0  0
 26 27  1  0  0  0  0
 26 32  1  0  0  0  0
 27 28  1  0  0  0  0
 28 31  2  0  0  0  0
 30 31  1  0  0  0  0
 31 29  1  0  0  0  0
 32 30  1  0  0  0  0
 34 33  1  0  0  0  0
 35 34  1  0  0  0  0
 36 35  1  0  0  0  0
 36 37  1  0  0  0  0
M  END
>  <MODEL>
6

>  <REMARK>
 VINA RESULT:      -3.9      5.525      9.463
  Name = 
  4 active torsions:
  status: ('A' for Active; 'I' for Inactive)
    1  A    between atoms: C_1  and  C_17
    2  A    between atoms: C_6  and  C_31
    3  A    between atoms: C_11  and  C_26
    4  A    between atoms: C_17  and  C_26
                            x       y       z     vdW  Elec       q    Type
                         _______ _______ _______ _____ _____    ______ ____

>  <TORSDO>
F 4

$$$$
=
 OpenBabel10272415003D

 37 42  0  0  1  0  0  0  0  0999 V2000
  184.8310  176.4930  136.0710 C   0  0  1  0  0  3  0  0  0  0  0  0
  180.0820  178.1410  135.2620 C   0  0  0  0  0  2  0  0  0  0  0  0
  181.9020  177.2870  139.2680 C   0  0  2  0  0  3  0  0  0  0  0  0
  185.1220  177.6290  139.7560 C   0  0  2  0  0  3  0  0  0  0  0  0
  180.3130  178.6880  137.7860 C   0  0  1  0  0  3  0  0  0  0  0  0
  183.1620  178.1370  138.9620 C   0  0  1  0  0  3  0  0  0  0  0  0
  183.2530  175.2090  134.5030 S   0  0  0  0  0  0  0  0  0  0  0  0
  180.9130  177.2820  138.0900 C   0  0  1  0  0  3  0  0  0  0  0  0
  184.0080  178.5760  140.1740 C   0  0  1  0  0  3  0  0  0  0  0  0
  181.2210  179.4450  137.0170 O   0  0  0  0  0  0  0  0  0  0  0  0
  181.3600  176.3400  136.9640 C   0  0  0  0  0  2  0  0  0  0  0  0
  182.2050  178.8180  134.3460 O   0  0  0  0  0  1  0  0  0  0  0  0
  181.5710  179.9060  141.4890 C   0  0  0  0  0  1  0  0  0  0  0  0
  183.4360  176.2020  135.5360 C   0  0  0  0  0  0  0  0  0  0  0  0
  180.0890  177.2270  140.8020 O   0  0  0  0  0  0  0  0  0  0  0  0
  182.2720  177.0570  135.9800 C   0  0  1  0  0  3  0  0  0  0  0  0
  186.3970  178.4100  139.4690 C   0  0  0  0  0  1  0  0  0  0  0  0
  181.2160  177.6400  140.5730 C   0  0  0  0  0  0  0  0  0  0  0  0
  184.2940  177.2180  138.5280 C   0  0  1  0  0  3  0  0  0  0  0  0
  179.9820  179.1690  136.4030 C   0  0  1  0  0  3  0  0  0  0  0  0
  183.4300  178.1570  141.5290 C   0  0  2  0  0  3  0  0  0  0  0  0
  181.4950  177.7220  134.8400 C   0  0  1  0  0  3  0  0  0  0  0  0
  184.8460  177.5540  137.1520 C   0  0  0  0  0  0  0  0  0  0  0  0
  185.0770  178.8170  136.7810 C   0  0  0  0  0  2  0  0  0  0  0  0
  181.9240  178.4310  141.6280 C   0  0  1  0  0  3  0  0  0  0  0  0
  185.6430  177.9780  142.7740 C   0  0  0  0  0  2  0  0  0  0  0  0
  184.2630  178.6650  142.7130 C   0  0  2  0  0  3  0  0  0  0  0  0
  183.5280  178.6420  144.0300 C   0  0  0  0  0  3  0  0  0  0  0  0
  183.5650  178.7840  146.3610 F   0  0  0  0  0  0  0  0  0  0  0  0
  185.6940  179.0140  145.1110 C   0  0  0  0  0  2  0  0  0  0  0  0
  184.2060  178.8350  145.1650 C   0  0  0  0  0  0  0  0  0  0  0  0
  186.2910  177.9640  144.1720 C   0  0  0  0  0  2  0  0  0  0  0  0
  187.0020  175.5890  137.0040 C   0  0  0  0  0  1  0  0  0  0  0  0
  185.6380  175.2290  136.4370 C   0  0  1  0  0  3  0  0  0  0  0  0
  184.8800  174.2820  137.3650 C   0  0  0  0  0  2  0  0  0  0  0  0
  185.1710  172.8280  137.0270 C   0  0  0  0  0  2  0  0  0  0  0  0
  183.8980  172.1080  136.6260 C   0  0  0  0  0  1  0  0  0  0  0  0
  1 34  1  1  0  0  0
  1 23  1  0  0  0  0
  2 20  1  0  0  0  0
  3 18  1  1  0  0  0
  4 17  1  6  0  0  0
  4  9  1  0  0  0  0
  5 10  1  6  0  0  0
  5  8  1  0  0  0  0
  6  3  1  0  0  0  0
  6  9  1  0  0  0  0
  7 14  2  0  0  0  0
  8  3  1  0  0  0  0
  9 21  1  0  0  0  0
 11  8  1  0  0  0  0
 12 22  1  0  0  0  0
 13 25  1  0  0  0  0
 14 16  1  0  0  0  0
 14  1  1  0  0  0  0
 16 11  1  0  0  0  0
 18 15  2  0  0  0  0
 18 25  1  0  0  0  0
 19  6  1  0  0  0  0
 19  4  1  0  0  0  0
 20 10  1  0  0  0  0
 20  5  1  0  0  0  0
 21 25  1  0  0  0  0
 21 27  1  0  0  0  0
 22  2  1  0  0  0  0
 22 16  1  0  0  0  0
 23 19  1  0  0  0  0
 24 23  2  0  0  0  0
 26 32  1  0  0  0  0
 27 26  1  0  0  0  0
 27 28  1  0  0  0  0
 28 31  2  0  0  0  0
 30 31  1  0  0  0  0
 31 29  1  0  0  0  0
 32 30  1  0  0  0  0
 34 33  1  0  0  0  0
 34 35  1  0  0  0  0
 36 35  1  0  0  0  0
 37 36  1  0  0  0  0
M  END
>  <MODEL>
7

>  <REMARK>
 VINA RESULT:      -3.6      4.843      8.606
  Name = 
  4 active torsions:
  status: ('A' for Active; 'I' for Inactive)
    1  A    between atoms: C_1  and  C_17
    2  A    between atoms: C_6  and  C_31
    3  A    between atoms: C_11  and  C_26
    4  A    between atoms: C_17  and  C_26
                            x       y       z     vdW  Elec       q    Type
                         _______ _______ _______ _____ _____    ______ ____

>  <TORSDO>
F 4

$$$$
=
 OpenBabel10272415003D

 37 42  0  0  1  0  0  0  0  0999 V2000
  187.6480  176.1110  135.9780 C   0  0  1  0  0  3  0  0  0  0  0  0
  183.8950  178.5000  138.4550 C   0  0  0  0  0  2  0  0  0  0  0  0
  183.3730  175.1200  135.5570 C   0  0  2  0  0  3  0  0  0  0  0  0
  185.7120  172.8610  135.1740 C   0  0  2  0  0  3  0  0  0  0  0  0
  182.6340  176.3640  137.6990 C   0  0  1  0  0  3  0  0  0  0  0  0
  184.4400  174.2470  136.2650 C   0  0  1  0  0  3  0  0  0  0  0  0
  187.4020  178.6630  135.8260 S   0  0  0  0  0  0  0  0  0  0  0  0
  183.1940  176.4820  136.2490 C   0  0  1  0  0  3  0  0  0  0  0  0
  184.4120  172.7370  135.9530 C   0  0  1  0  0  3  0  0  0  0  0  0
  183.6750  176.0480  138.5950 O   0  0  0  0  0  0  0  0  0  0  0  0
  184.3250  177.4600  135.9030 C   0  0  0  0  0  2  0  0  0  0  0  0
  186.0320  177.6590  139.1830 O   0  0  0  0  0  1  0  0  0  0  0  0
  181.4730  172.5350  136.8230 C   0  0  0  0  0  1  0  0  0  0  0  0
  186.8330  177.3820  136.1730 C   0  0  0  0  0  0  0  0  0  0  0  0
  181.0570  175.0740  135.0280 O   0  0  0  0  0  0  0  0  0  0  0  0
  185.4920  177.3100  136.8670 C   0  0  1  0  0  3  0  0  0  0  0  0
  186.7920  171.9980  135.8120 C   0  0  0  0  0  1  0  0  0  0  0  0
  182.0440  174.4240  135.3380 C   0  0  0  0  0  0  0  0  0  0  0  0
  185.7590  174.3590  135.5160 C   0  0  1  0  0  3  0  0  0  0  0  0
  183.0290  177.2820  138.8200 C   0  0  1  0  0  3  0  0  0  0  0  0
  183.2710  172.3080  135.0260 C   0  0  2  0  0  3  0  0  0  0  0  0
  185.3580  178.2160  138.0950 C   0  0  1  0  0  3  0  0  0  0  0  0
  186.9030  174.8560  136.3840 C   0  0  0  0  0  0  0  0  0  0  0  0
  187.0880  174.3970  137.6260 C   0  0  0  0  0  2  0  0  0  0  0  0
  181.9290  172.9350  135.4260 C   0  0  1  0  0  3  0  0  0  0  0  0
  181.8370  170.3180  134.3460 C   0  0  0  0  0  2  0  0  0  0  0  0
  183.2370  170.7930  134.7890 C   0  0  2  0  0  3  0  0  0  0  0  0
  183.8070  169.9840  135.9270 C   0  0  0  0  0  3  0  0  0  0  0  0
  184.1050  167.9220  136.9830 F   0  0  0  0  0  0  0  0  0  0  0  0
  182.8100  168.0120  134.8700 C   0  0  0  0  0  2  0  0  0  0  0  0
  183.6260  168.6600  135.9490 C   0  0  0  0  0  0  0  0  0  0  0  0
  181.5410  168.8340  134.6400 C   0  0  0  0  0  2  0  0  0  0  0  0
  189.3040  177.1450  134.3690 C   0  0  0  0  0  1  0  0  0  0  0  0
  188.3230  176.0060  134.5930 C   0  0  1  0  0  3  0  0  0  0  0  0
  188.9760  174.6480  134.3460 C   0  0  0  0  0  2  0  0  0  0  0  0
  190.1970  174.4530  135.2310 C   0  0  0  0  0  2  0  0  0  0  0  0
  190.3340  172.9990  135.6390 C   0  0  0  0  0  1  0  0  0  0  0  0
  1 34  1  6  0  0  0
  1 14  1  0  0  0  0
  1 23  1  0  0  0  0
  2 20  1  0  0  0  0
  3 18  1  1  0  0  0
  3  8  1  0  0  0  0
  3  6  1  0  0  0  0
  4 19  1  0  0  0  0
  4 17  1  1  0  0  0
  4  9  1  0  0  0  0
  5 10  1  1  0  0  0
  5 20  1  0  0  0  0
  7 14  2  0  0  0  0
  8  5  1  0  0  0  0
  9  6  1  0  0  0  0
 10 20  1  0  0  0  0
 11  8  1  0  0  0  0
 11 16  1  0  0  0  0
 14 16  1  0  0  0  0
 15 18  2  0  0  0  0
 16 22  1  0  0  0  0
 18 25  1  0  0  0  0
 19  6  1  0  0  0  0
 19 23  1  0  0  0  0
 21 25  1  0  0  0  0
 21  9  1  0  0  0  0
 22  2  1  0  0  0  0
 22 12  1  0  0  0  0
 23 24  2  0  0  0  0
 25 13  1  0  0  0  0
 26 32  1  0  0  0  0
 26 27  1  0  0  0  0
 27 21  1  0  0  0  0
 27 28  1  0  0  0  0
 28 31  2  0  0  0  0
 30 31  1  0  0  0  0
 31 29  1  0  0  0  0
 32 30  1  0  0  0  0
 33 34  1  0  0  0  0
 35 34  1  0  0  0  0
 35 36  1  0  0  0  0
 36 37  1  0  0  0  0
M  END
>  <MODEL>
8

>  <REMARK>
 VINA RESULT:      -3.4      3.713      6.567
  Name = 
  4 active torsions:
  status: ('A' for Active; 'I' for Inactive)
    1  A    between atoms: C_1  and  C_17
    2  A    between atoms: C_6  and  C_31
    3  A    between atoms: C_11  and  C_26
    4  A    between atoms: C_17  and  C_26
                            x       y       z     vdW  Elec       q    Type
                         _______ _______ _______ _____ _____    ______ ____

>  <TORSDO>
F 4

$$$$
=
 OpenBabel10272415003D

 37 42  0  0  1  0  0  0  0  0999 V2000
  190.9210  174.0340  135.8370 C   0  0  1  0  0  3  0  0  0  0  0  0
  189.3480  178.4160  137.9000 C   0  0  0  0  0  2  0  0  0  0  0  0
  186.9450  175.8120  135.1540 C   0  0  2  0  0  3  0  0  0  0  0  0
  187.4240  172.5740  135.0650 C   0  0  2  0  0  3  0  0  0  0  0  0
  187.0650  177.4300  137.1670 C   0  0  1  0  0  3  0  0  0  0  0  0
  187.2360  174.5360  135.9840 C   0  0  1  0  0  3  0  0  0  0  0  0
  192.2900  176.1860  135.5320 S   0  0  0  0  0  0  0  0  0  0  0  0
  187.6170  177.0560  135.7580 C   0  0  1  0  0  3  0  0  0  0  0  0
  186.3000  173.3330  135.7510 C   0  0  1  0  0  3  0  0  0  0  0  0
  187.6710  176.6250  138.1530 O   0  0  0  0  0  0  0  0  0  0  0  0
  189.1190  177.1110  135.4460 C   0  0  0  0  0  2  0  0  0  0  0  0
  190.5050  176.5170  138.8270 O   0  0  0  0  0  1  0  0  0  0  0  0
  183.8290  175.0340  136.4110 C   0  0  0  0  0  1  0  0  0  0  0  0
  191.0480  175.5500  135.9040 C   0  0  0  0  0  0  0  0  0  0  0  0
  185.0990  177.1360  134.4590 O   0  0  0  0  0  0  0  0  0  0  0  0
  189.9260  176.3680  136.4990 C   0  0  1  0  0  3  0  0  0  0  0  0
  187.7350  171.2920  135.8250 C   0  0  0  0  0  1  0  0  0  0  0  0
  185.4740  176.0500  134.8750 C   0  0  0  0  0  0  0  0  0  0  0  0
  188.3680  173.7580  135.3290 C   0  0  1  0  0  3  0  0  0  0  0  0
  187.9090  178.0110  138.2640 C   0  0  1  0  0  3  0  0  0  0  0  0
  185.1590  173.6070  134.7670 C   0  0  2  0  0  3  0  0  0  0  0  0
  190.3410  177.2710  137.6650 C   0  0  1  0  0  3  0  0  0  0  0  0
  189.5550  173.5310  136.2530 C   0  0  0  0  0  0  0  0  0  0  0  0
  189.3880  173.1640  137.5270 C   0  0  0  0  0  2  0  0  0  0  0  0
  184.4710  174.9520  135.0330 C   0  0  1  0  0  3  0  0  0  0  0  0
  182.7600  172.8650  134.3550 C   0  0  0  0  0  2  0  0  0  0  0  0
  184.2120  172.4110  134.6080 C   0  0  2  0  0  3  0  0  0  0  0  0
  184.3320  171.3870  135.7090 C   0  0  0  0  0  3  0  0  0  0  0  0
  183.4880  169.5140  136.8200 F   0  0  0  0  0  0  0  0  0  0  0  0
  182.2460  170.4140  134.8710 C   0  0  0  0  0  2  0  0  0  0  0  0
  183.4120  170.4240  135.8150 C   0  0  0  0  0  0  0  0  0  0  0  0
  181.6860  171.8320  134.7520 C   0  0  0  0  0  2  0  0  0  0  0  0
  192.9240  173.6260  134.3460 C   0  0  0  0  0  1  0  0  0  0  0  0
  191.4270  173.4210  134.5130 C   0  0  1  0  0  3  0  0  0  0  0  0
  191.0410  171.9530  134.3460 C   0  0  0  0  0  2  0  0  0  0  0  0
  191.9550  171.0460  135.1550 C   0  0  0  0  0  2  0  0  0  0  0  0
  191.8850  169.6220  134.6400 C   0  0  0  0  0  1  0  0  0  0  0  0
  1 34  1  6  0  0  0
  1 14  1  0  0  0  0
  1 23  1  0  0  0  0
  2 20  1  0  0  0  0
  3 18  1  1  0  0  0
  3  8  1  0  0  0  0
  3  6  1  0  0  0  0
  4 19  1  0  0  0  0
  4  9  1  0  0  0  0
  4 17  1  1  0  0  0
  5 10  1  1  0  0  0
  5 20  1  0  0  0  0
  7 14  2  0  0  0  0
  8  5  1  0  0  0  0
  9  6  1  0  0  0  0
 10 20  1  0  0  0  0
 11  8  1  0  0  0  0
 11 16  1  0  0  0  0
 14 16  1  0  0  0  0
 15 18  2  0  0  0  0
 16 22  1  0  0  0  0
 18 25  1  0  0  0  0
 19  6  1  0  0  0  0
 19 23  1  0  0  0  0
 21 25  1  0  0  0  0
 21  9  1  0  0  0  0
 22  2  1  0  0  0  0
 22 12  1  0  0  0  0
 23 24  2  0  0  0  0
 25 13  1  0  0  0  0
 26 27  1  0  0  0  0
 26 32  1  0  0  0  0
 27 21  1  0  0  0  0
 27 28  1  0  0  0  0
 28 31  2  0  0  0  0
 30 31  1  0  0  0  0
 31 29  1  0  0  0  0
 32 30  1  0  0  0  0
 33 34  1  0  0  0  0
 35 34  1  0  0  0  0
 35 36  1  0  0  0  0
 37 36  1  0  0  0  0
M  END
>  <MODEL>
9

>  <REMARK>
 VINA RESULT:      -3.1      2.728      5.252
  Name = 
  4 active torsions:
  status: ('A' for Active; 'I' for Inactive)
    1  A    between atoms: C_1  and  C_17
    2  A    between atoms: C_6  and  C_31
    3  A    between atoms: C_11  and  C_26
    4  A    between atoms: C_17  and  C_26
                            x       y       z     vdW  Elec       q    Type
                         _______ _______ _______ _____ _____    ______ ____

>  <TORSDO>
F 4

$$$$
