=
 OpenBabel10272400463D

 25 29  0  0  1  0  0  0  0  0999 V2000
  186.9860  178.0070  145.5510 C   0  0  0  0  0  0  0  0  0  0  0  0
  188.2540  177.5120  145.2300 C   0  0  0  0  0  0  0  0  0  0  0  0
  187.5880  178.2500  147.8830 C   0  0  0  0  0  3  0  0  0  0  0  0
  185.7350  178.0340  144.7590 C   0  0  1  0  0  3  0  0  0  0  0  0
  183.2440  179.1330  143.7980 C   0  0  0  0  0  2  0  0  0  0  0  0
  188.8830  177.7980  147.5800 C   0  0  0  0  0  3  0  0  0  0  0  0
  184.8840  178.9610  145.6010 C   0  0  1  0  0  3  0  0  0  0  0  0
  183.4280  178.7190  145.2720 C   0  0  0  0  0  2  0  0  0  0  0  0
  190.5110  176.9560  145.9620 C   0  0  0  0  0  0  0  0  0  0  0  0
  191.4610  176.8680  146.9260 F   0  0  0  0  0  0  0  0  0  0  0  0
  188.5760  177.1070  143.9330 C   0  0  0  0  0  3  0  0  0  0  0  0
  184.2680  178.4620  142.8460 C   0  0  0  0  0  2  0  0  0  0  0  0
  186.6580  178.3400  146.8490 C   0  0  0  0  0  0  0  0  0  0  0  0
  185.3060  178.7630  146.9820 N   0  0  0  0  0  2  0  0  0  0  0  0
  190.8230  176.5630  144.6560 C   0  0  0  0  0  3  0  0  0  0  0  0
  185.7220  178.5820  143.3460 C   0  0  0  0  0  2  0  0  0  0  0  0
  189.8610  176.6310  143.6410 C   0  0  0  0  0  0  0  0  0  0  0  0
  189.2250  177.4290  146.2630 C   0  0  0  0  0  0  0  0  0  0  0  0
  190.2130  176.2270  142.3170 N   0  0  0  0  0  2  0  0  0  0  0  0
  191.0410  177.2930  141.1720 S   0  0  0  0  0  0  0  0  0  0  0  0
  187.6140  178.4190  139.7930 N   0  0  0  0  0  0  0  0  0  0  0  0
  188.5450  178.4240  140.7330 N   0  0  0  0  0  2  0  0  0  0  0  0
  187.9730  177.6580  138.7690 N   0  0  0  0  0  0  0  0  0  0  0  0
  189.5300  177.6350  140.2800 C   0  0  0  0  0  0  0  0  0  0  0  0
  189.1870  177.1400  139.0430 C   0  0  0  0  0  3  0  0  0  0  0  0
  1 13  1  0  0  0  0
  2  1  2  0  0  0  0
  2 18  1  0  0  0  0
  4 16  1  6  0  0  0
  4  1  1  0  0  0  0
  4  7  1  0  0  0  0
  5  8  1  0  0  0  0
  6  3  1  0  0  0  0
  7  8  1  1  0  0  0
  7 14  1  0  0  0  0
  9 18  1  0  0  0  0
  9 10  1  0  0  0  0
 11  2  1  0  0  0  0
 12 16  1  0  0  0  0
 12  5  1  0  0  0  0
 13 14  1  0  0  0  0
 13  3  2  0  0  0  0
 15  9  2  0  0  0  0
 17 11  2  0  0  0  0
 17 15  1  0  0  0  0
 18  6  2  0  0  0  0
 19 17  1  0  0  0  0
 20 19  1  0  0  0  0
 21 22  1  0  0  0  0
 23 25  1  0  0  0  0
 23 21  2  0  0  0  0
 24 22  1  0  0  0  0
 24 20  1  0  0  0  0
 25 24  2  0  0  0  0
M  END
>  <MODEL>
1

>  <REMARK>
 VINA RESULT:     -11.0      0.000      0.000
  Name = 
  3 active torsions:
  status: ('A' for Active; 'I' for Inactive)
    1  A    between atoms: N_6  and  S_15
    2  A    between atoms: N_6  and  C_23
    3  A    between atoms: S_15  and  C_21
                            x       y       z     vdW  Elec       q    Type
                         _______ _______ _______ _____ _____    ______ ____

>  <TORSDO>
F 3

$$$$
=
 OpenBabel10272400463D

 25 29  0  0  1  0  0  0  0  0999 V2000
  187.3310  177.8510  145.4240 C   0  0  0  0  0  0  0  0  0  0  0  0
  188.5630  177.3550  144.9870 C   0  0  0  0  0  0  0  0  0  0  0  0
  188.1230  178.0160  147.7060 C   0  0  0  0  0  3  0  0  0  0  0  0
  186.0200  177.9150  144.7370 C   0  0  1  0  0  3  0  0  0  0  0  0
  183.4730  179.0660  144.0160 C   0  0  0  0  0  2  0  0  0  0  0  0
  189.3830  177.5620  147.2850 C   0  0  0  0  0  3  0  0  0  0  0  0
  185.2510  178.8220  145.6740 C   0  0  1  0  0  3  0  0  0  0  0  0
  183.7710  178.6040  145.4570 C   0  0  0  0  0  2  0  0  0  0  0  0
  190.8660  176.7560  145.5150 C   0  0  0  0  0  0  0  0  0  0  0  0
  191.8890  176.6290  146.3960 F   0  0  0  0  0  0  0  0  0  0  0  0
  188.7750  176.9870  143.6550 C   0  0  0  0  0  3  0  0  0  0  0  0
  184.4080  178.4160  142.9630 C   0  0  0  0  0  2  0  0  0  0  0  0
  187.1130  178.1460  146.7540 C   0  0  0  0  0  0  0  0  0  0  0  0
  185.7810  178.5770  147.0090 N   0  0  0  0  0  2  0  0  0  0  0  0
  191.0660  176.4010  144.1770 C   0  0  0  0  0  3  0  0  0  0  0  0
  185.8990  178.5060  143.3480 C   0  0  0  0  0  2  0  0  0  0  0  0
  190.0260  176.5100  143.2460 C   0  0  0  0  0  0  0  0  0  0  0  0
  189.6140  177.2310  145.9330 C   0  0  0  0  0  0  0  0  0  0  0  0
  190.2650  176.1440  141.8860 N   0  0  0  0  0  2  0  0  0  0  0  0
  189.8660  177.1970  140.5210 S   0  0  0  0  0  0  0  0  0  0  0  0
  193.6340  177.2350  139.6760 N   0  0  0  0  0  0  0  0  0  0  0  0
  192.6260  177.4810  140.4980 N   0  0  0  0  0  2  0  0  0  0  0  0
  193.2050  176.7030  138.5410 N   0  0  0  0  0  0  0  0  0  0  0  0
  191.5200  177.0850  139.8520 C   0  0  0  0  0  0  0  0  0  0  0  0
  191.8650  176.5920  138.6150 C   0  0  0  0  0  3  0  0  0  0  0  0
  1 13  1  0  0  0  0
  2  1  2  0  0  0  0
  2 18  1  0  0  0  0
  4 16  1  6  0  0  0
  4  1  1  0  0  0  0
  4  7  1  0  0  0  0
  5  8  1  0  0  0  0
  6  3  1  0  0  0  0
  7  8  1  1  0  0  0
  7 14  1  0  0  0  0
  9 18  1  0  0  0  0
  9 10  1  0  0  0  0
 11  2  1  0  0  0  0
 12 16  1  0  0  0  0
 12  5  1  0  0  0  0
 13 14  1  0  0  0  0
 13  3  2  0  0  0  0
 15  9  2  0  0  0  0
 17 11  2  0  0  0  0
 17 15  1  0  0  0  0
 18  6  2  0  0  0  0
 19 17  1  0  0  0  0
 20 19  1  0  0  0  0
 21 22  1  0  0  0  0
 23 25  1  0  0  0  0
 23 21  2  0  0  0  0
 24 22  1  0  0  0  0
 24 20  1  0  0  0  0
 25 24  2  0  0  0  0
M  END
>  <MODEL>
2

>  <REMARK>
 VINA RESULT:     -10.8      1.697      2.017
  Name = 
  3 active torsions:
  status: ('A' for Active; 'I' for Inactive)
    1  A    between atoms: N_6  and  S_15
    2  A    between atoms: N_6  and  C_23
    3  A    between atoms: S_15  and  C_21
                            x       y       z     vdW  Elec       q    Type
                         _______ _______ _______ _____ _____    ______ ____

>  <TORSDO>
F 3

$$$$
=
 OpenBabel10272400463D

 25 29  0  0  1  0  0  0  0  0999 V2000
  185.9850  178.2040  145.0200 C   0  0  0  0  0  0  0  0  0  0  0  0
  187.3040  177.7500  145.1170 C   0  0  0  0  0  0  0  0  0  0  0  0
  185.9060  178.7160  147.3840 C   0  0  0  0  0  3  0  0  0  0  0  0
  185.0030  178.0810  143.9170 C   0  0  1  0  0  3  0  0  0  0  0  0
  182.8530  178.9360  142.1910 C   0  0  0  0  0  2  0  0  0  0  0  0
  187.2450  178.3090  147.5010 C   0  0  0  0  0  3  0  0  0  0  0  0
  183.9280  179.0400  144.3830 C   0  0  1  0  0  3  0  0  0  0  0  0
  182.6280  178.6850  143.6970 C   0  0  0  0  0  2  0  0  0  0  0  0
  189.2810  177.3980  146.4980 C   0  0  0  0  0  0  0  0  0  0  0  0
  189.9260  177.4620  147.6890 F   0  0  0  0  0  0  0  0  0  0  0  0
  187.9850  177.2330  144.0130 C   0  0  0  0  0  3  0  0  0  0  0  0
  184.1180  178.2300  141.6390 C   0  0  0  0  0  2  0  0  0  0  0  0
  185.2990  178.6480  146.1310 C   0  0  0  0  0  0  0  0  0  0  0  0
  183.9530  179.0070  145.8390 N   0  0  0  0  0  2  0  0  0  0  0  0
  189.9530  176.8920  145.3810 C   0  0  0  0  0  3  0  0  0  0  0  0
  185.3710  178.4800  142.5020 C   0  0  0  0  0  2  0  0  0  0  0  0
  189.3120  176.8030  144.1400 C   0  0  0  0  0  0  0  0  0  0  0  0
  187.9500  177.8270  146.3790 C   0  0  0  0  0  0  0  0  0  0  0  0
  190.0290  176.2860  143.0180 N   0  0  0  0  0  2  0  0  0  0  0  0
  191.2050  177.2410  142.1040 S   0  0  0  0  0  0  0  0  0  0  0  0
  188.6510  177.2140  139.2080 N   0  0  0  0  0  0  0  0  0  0  0  0
  188.9820  177.4810  140.4610 N   0  0  0  0  0  2  0  0  0  0  0  0
  189.6690  176.6790  138.5490 N   0  0  0  0  0  0  0  0  0  0  0  0
  190.2610  177.1000  140.5930 C   0  0  0  0  0  0  0  0  0  0  0  0
  190.7120  176.5900  139.3970 C   0  0  0  0  0  3  0  0  0  0  0  0
  1  2  2  0  0  0  0
  1 13  1  0  0  0  0
  2 18  1  0  0  0  0
  3  6  1  0  0  0  0
  4 16  1  6  0  0  0
  4  7  1  0  0  0  0
  4  1  1  0  0  0  0
  5  8  1  0  0  0  0
  7  8  1  6  0  0  0
  7 14  1  0  0  0  0
  9 10  1  0  0  0  0
 11 17  2  0  0  0  0
 11  2  1  0  0  0  0
 12  5  1  0  0  0  0
 12 16  1  0  0  0  0
 13  3  2  0  0  0  0
 14 13  1  0  0  0  0
 15  9  2  0  0  0  0
 17 15  1  0  0  0  0
 18  9  1  0  0  0  0
 18  6  2  0  0  0  0
 19 17  1  0  0  0  0
 20 19  1  0  0  0  0
 21 22  1  0  0  0  0
 22 24  1  0  0  0  0
 23 21  2  0  0  0  0
 23 25  1  0  0  0  0
 24 20  1  0  0  0  0
 25 24  2  0  0  0  0
M  END
>  <MODEL>
3

>  <REMARK>
 VINA RESULT:     -10.3      1.105      1.394
  Name = 
  3 active torsions:
  status: ('A' for Active; 'I' for Inactive)
    1  A    between atoms: N_6  and  S_15
    2  A    between atoms: N_6  and  C_23
    3  A    between atoms: S_15  and  C_21
                            x       y       z     vdW  Elec       q    Type
                         _______ _______ _______ _____ _____    ______ ____

>  <TORSDO>
F 3

$$$$
=
 OpenBabel10272400463D

 25 29  0  0  1  0  0  0  0  0999 V2000
  187.0280  177.9890  145.3790 C   0  0  0  0  0  0  0  0  0  0  0  0
  186.3340  178.2850  144.2020 C   0  0  0  0  0  0  0  0  0  0  0  0
  185.0550  178.3710  146.7280 C   0  0  0  0  0  3  0  0  0  0  0  0
  188.4800  177.8260  145.6260 C   0  0  1  0  0  3  0  0  0  0  0  0
  190.8390  176.6750  146.8280 C   0  0  0  0  0  2  0  0  0  0  0  0
  184.3240  178.6290  145.5580 C   0  0  0  0  0  3  0  0  0  0  0  0
  188.4680  177.2350  147.0200 C   0  0  1  0  0  3  0  0  0  0  0  0
  189.8160  177.4740  147.6620 C   0  0  0  0  0  2  0  0  0  0  0  0
  184.2270  178.8670  143.1260 C   0  0  0  0  0  0  0  0  0  0  0  0
  182.9030  179.1580  143.1820 F   0  0  0  0  0  0  0  0  0  0  0  0
  186.9690  178.2850  142.9570 C   0  0  0  0  0  3  0  0  0  0  0  0
  190.7550  176.9780  145.3100 C   0  0  0  0  0  2  0  0  0  0  0  0
  186.4080  178.0580  146.6100 C   0  0  0  0  0  0  0  0  0  0  0  0
  187.2950  177.7840  147.6880 N   0  0  0  0  0  2  0  0  0  0  0  0
  184.8730  178.8550  141.8850 C   0  0  0  0  0  3  0  0  0  0  0  0
  189.3160  176.9050  144.7610 C   0  0  0  0  0  2  0  0  0  0  0  0
  186.2410  178.5700  141.7950 C   0  0  0  0  0  0  0  0  0  0  0  0
  184.9500  178.5880  144.2950 C   0  0  0  0  0  0  0  0  0  0  0  0
  186.8690  178.5600  140.5120 N   0  0  0  0  0  2  0  0  0  0  0  0
  188.5210  177.9790  140.2540 S   0  0  0  0  0  0  0  0  0  0  0  0
  187.6110  178.6320  136.5580 N   0  0  0  0  0  0  0  0  0  0  0  0
  187.2960  178.6010  137.8430 N   0  0  0  0  0  2  0  0  0  0  0  0
  188.8680  178.2610  136.3660 N   0  0  0  0  0  0  0  0  0  0  0  0
  188.4010  178.1950  138.4840 C   0  0  0  0  0  0  0  0  0  0  0  0
  189.4050  177.9740  137.5680 C   0  0  0  0  0  3  0  0  0  0  0  0
  1  4  1  0  0  0  0
  1 13  1  0  0  0  0
  2 18  1  0  0  0  0
  2  1  2  0  0  0  0
  4 16  1  6  0  0  0
  4  7  1  0  0  0  0
  5  8  1  0  0  0  0
  6  3  1  0  0  0  0
  7  8  1  1  0  0  0
  7 14  1  0  0  0  0
  9 10  1  0  0  0  0
  9 18  1  0  0  0  0
 11  2  1  0  0  0  0
 12  5  1  0  0  0  0
 13  3  2  0  0  0  0
 13 14  1  0  0  0  0
 15  9  2  0  0  0  0
 16 12  1  0  0  0  0
 17 15  1  0  0  0  0
 17 11  2  0  0  0  0
 18  6  2  0  0  0  0
 19 17  1  0  0  0  0
 20 19  1  0  0  0  0
 21 22  1  0  0  0  0
 22 24  1  0  0  0  0
 23 21  2  0  0  0  0
 23 25  1  0  0  0  0
 24 20  1  0  0  0  0
 25 24  2  0  0  0  0
M  END
>  <MODEL>
4

>  <REMARK>
 VINA RESULT:     -10.0      2.470      4.745
  Name = 
  3 active torsions:
  status: ('A' for Active; 'I' for Inactive)
    1  A    between atoms: N_6  and  S_15
    2  A    between atoms: N_6  and  C_23
    3  A    between atoms: S_15  and  C_21
                            x       y       z     vdW  Elec       q    Type
                         _______ _______ _______ _____ _____    ______ ____

>  <TORSDO>
F 3

$$$$
=
 OpenBabel10272400463D

 25 29  0  0  1  0  0  0  0  0999 V2000
  187.9230  177.6470  145.8260 C   0  0  0  0  0  0  0  0  0  0  0  0
  187.0350  177.9640  144.7940 C   0  0  0  0  0  0  0  0  0  0  0  0
  186.2390  178.0790  147.5100 C   0  0  0  0  0  3  0  0  0  0  0  0
  189.3910  177.4450  145.8060 C   0  0  1  0  0  3  0  0  0  0  0  0
  191.8980  176.2300  146.5630 C   0  0  0  0  0  2  0  0  0  0  0  0
  185.3140  178.3590  146.4910 C   0  0  0  0  0  3  0  0  0  0  0  0
  189.6170  176.8510  147.1800 C   0  0  1  0  0  3  0  0  0  0  0  0
  191.0650  177.0530  147.5660 C   0  0  0  0  0  2  0  0  0  0  0  0
  184.7840  178.6040  144.1160 C   0  0  0  0  0  0  0  0  0  0  0  0
  183.5000  178.9290  144.4110 F   0  0  0  0  0  0  0  0  0  0  0  0
  187.4330  177.9500  143.4550 C   0  0  0  0  0  3  0  0  0  0  0  0
  191.5480  176.5390  145.0840 C   0  0  0  0  0  2  0  0  0  0  0  0
  187.5390  177.7300  147.1490 C   0  0  0  0  0  0  0  0  0  0  0  0
  188.6000  177.4300  148.0480 N   0  0  0  0  0  2  0  0  0  0  0  0
  185.1940  178.5770  142.7790 C   0  0  0  0  0  3  0  0  0  0  0  0
  190.0320  176.5040  144.8060 C   0  0  0  0  0  2  0  0  0  0  0  0
  186.5140  178.2560  142.4430 C   0  0  0  0  0  0  0  0  0  0  0  0
  185.7000  178.3030  145.1350 C   0  0  0  0  0  0  0  0  0  0  0  0
  186.8990  178.2330  141.0670 N   0  0  0  0  0  2  0  0  0  0  0  0
  188.5260  177.7890  140.5300 S   0  0  0  0  0  0  0  0  0  0  0  0
  188.4720  179.4270  137.0330 N   0  0  0  0  0  0  0  0  0  0  0  0
  189.0410  179.2220  138.2100 N   0  0  0  0  0  2  0  0  0  0  0  0
  187.3320  178.7590  136.9310 N   0  0  0  0  0  0  0  0  0  0  0  0
  188.2250  178.3910  138.8740 C   0  0  0  0  0  0  0  0  0  0  0  0
  187.1400  178.0890  138.0840 C   0  0  0  0  0  3  0  0  0  0  0  0
  1 13  1  0  0  0  0
  2 18  1  0  0  0  0
  2  1  2  0  0  0  0
  4 16  1  6  0  0  0
  4  1  1  0  0  0  0
  4  7  1  0  0  0  0
  5  8  1  0  0  0  0
  6  3  1  0  0  0  0
  7  8  1  1  0  0  0
  7 14  1  0  0  0  0
  9 10  1  0  0  0  0
  9 18  1  0  0  0  0
 11  2  1  0  0  0  0
 12  5  1  0  0  0  0
 13  3  2  0  0  0  0
 13 14  1  0  0  0  0
 15  9  2  0  0  0  0
 16 12  1  0  0  0  0
 17 15  1  0  0  0  0
 17 11  2  0  0  0  0
 18  6  2  0  0  0  0
 19 17  1  0  0  0  0
 20 19  1  0  0  0  0
 21 22  1  0  0  0  0
 22 24  1  0  0  0  0
 23 21  2  0  0  0  0
 23 25  1  0  0  0  0
 24 20  1  0  0  0  0
 25 24  2  0  0  0  0
M  END
>  <MODEL>
5

>  <REMARK>
 VINA RESULT:     -10.0      2.418      4.741
  Name = 
  3 active torsions:
  status: ('A' for Active; 'I' for Inactive)
    1  A    between atoms: N_6  and  S_15
    2  A    between atoms: N_6  and  C_23
    3  A    between atoms: S_15  and  C_21
                            x       y       z     vdW  Elec       q    Type
                         _______ _______ _______ _____ _____    ______ ____

>  <TORSDO>
F 3

$$$$
=
 OpenBabel10272400463D

 25 29  0  0  1  0  0  0  0  0999 V2000
  187.4660  177.6760  144.8140 C   0  0  0  0  0  0  0  0  0  0  0  0
  186.2000  177.9850  144.3060 C   0  0  0  0  0  0  0  0  0  0  0  0
  186.8310  178.3900  147.0380 C   0  0  0  0  0  3  0  0  0  0  0  0
  188.7290  177.3440  144.1140 C   0  0  1  0  0  3  0  0  0  0  0  0
  191.2390  175.9790  143.7070 C   0  0  0  0  0  2  0  0  0  0  0  0
  185.5390  178.6660  146.5640 C   0  0  0  0  0  3  0  0  0  0  0  0
  189.5720  176.8470  145.2680 C   0  0  1  0  0  3  0  0  0  0  0  0
  191.0320  176.9510  144.8860 C   0  0  0  0  0  2  0  0  0  0  0  0
  183.9290  178.7640  144.7250 C   0  0  0  0  0  0  0  0  0  0  0  0
  182.9650  179.2230  145.5610 F   0  0  0  0  0  0  0  0  0  0  0  0
  185.8950  177.8270  142.9520 C   0  0  0  0  0  3  0  0  0  0  0  0
  190.2260  176.1960  142.5540 C   0  0  0  0  0  2  0  0  0  0  0  0
  187.7770  177.9000  146.1390 C   0  0  0  0  0  0  0  0  0  0  0  0
  189.1300  177.5820  146.4460 N   0  0  0  0  0  2  0  0  0  0  0  0
  183.6350  178.5920  143.3680 C   0  0  0  0  0  3  0  0  0  0  0  0
  188.7660  176.2730  143.0440 C   0  0  0  0  0  2  0  0  0  0  0  0
  184.6110  178.1300  142.4780 C   0  0  0  0  0  0  0  0  0  0  0  0
  185.2130  178.4670  145.2060 C   0  0  0  0  0  0  0  0  0  0  0  0
  184.2770  177.9610  141.1000 N   0  0  0  0  0  2  0  0  0  0  0  0
  184.3160  179.2880  139.9300 S   0  0  0  0  0  0  0  0  0  0  0  0
  187.5310  177.8260  138.3660 N   0  0  0  0  0  0  0  0  0  0  0  0
  186.9050  178.4920  139.3230 N   0  0  0  0  0  2  0  0  0  0  0  0
  186.6830  177.4250  137.4300 N   0  0  0  0  0  0  0  0  0  0  0  0
  185.6100  178.5080  138.9740 C   0  0  0  0  0  0  0  0  0  0  0  0
  185.4510  177.8410  137.7810 C   0  0  0  0  0  3  0  0  0  0  0  0
  1 13  1  0  0  0  0
  2  1  2  0  0  0  0
  2 18  1  0  0  0  0
  4 16  1  6  0  0  0
  4  1  1  0  0  0  0
  4  7  1  0  0  0  0
  5  8  1  0  0  0  0
  6  3  1  0  0  0  0
  7  8  1  6  0  0  0
  7 14  1  0  0  0  0
  9 18  1  0  0  0  0
  9 10  1  0  0  0  0
 11  2  1  0  0  0  0
 12 16  1  0  0  0  0
 12  5  1  0  0  0  0
 13 14  1  0  0  0  0
 13  3  2  0  0  0  0
 15  9  2  0  0  0  0
 17 11  2  0  0  0  0
 17 15  1  0  0  0  0
 18  6  2  0  0  0  0
 19 17  1  0  0  0  0
 20 19  1  0  0  0  0
 21 22  1  0  0  0  0
 23 25  1  0  0  0  0
 23 21  2  0  0  0  0
 24 22  1  0  0  0  0
 24 20  1  0  0  0  0
 25 24  2  0  0  0  0
M  END
>  <MODEL>
6

>  <REMARK>
 VINA RESULT:      -9.9      2.890      5.074
  Name = 
  3 active torsions:
  status: ('A' for Active; 'I' for Inactive)
    1  A    between atoms: N_6  and  S_15
    2  A    between atoms: N_6  and  C_23
    3  A    between atoms: S_15  and  C_21
                            x       y       z     vdW  Elec       q    Type
                         _______ _______ _______ _____ _____    ______ ____

>  <TORSDO>
F 3

$$$$
=
 OpenBabel10272400463D

 25 29  0  0  1  0  0  0  0  0999 V2000
  187.0440  178.1820  142.4130 C   0  0  0  0  0  0  0  0  0  0  0  0
  186.6340  178.1120  143.7480 C   0  0  0  0  0  0  0  0  0  0  0  0
  184.9240  179.1290  141.7310 C   0  0  0  0  0  3  0  0  0  0  0  0
  188.2200  177.5860  141.7350 C   0  0  1  0  0  3  0  0  0  0  0  0
  190.4150  177.4870  139.8630 C   0  0  0  0  0  2  0  0  0  0  0  0
  184.5030  179.1130  143.0710 C   0  0  0  0  0  3  0  0  0  0  0  0
  188.1800  178.3110  140.4060 C   0  0  1  0  0  3  0  0  0  0  0  0
  188.9480  177.5010  139.3870 C   0  0  0  0  0  2  0  0  0  0  0  0
  184.9200  178.5710  145.4190 C   0  0  0  0  0  0  0  0  0  0  0  0
  183.6980  179.0410  145.7700 F   0  0  0  0  0  0  0  0  0  0  0  0
  187.4560  177.5730  144.7410 C   0  0  0  0  0  3  0  0  0  0  0  0
  190.5710  177.0330  141.3370 C   0  0  0  0  0  2  0  0  0  0  0  0
  186.1980  178.6520  141.4300 C   0  0  0  0  0  0  0  0  0  0  0  0
  186.7750  178.5840  140.1310 N   0  0  0  0  0  2  0  0  0  0  0  0
  185.7580  178.0380  146.4040 C   0  0  0  0  0  3  0  0  0  0  0  0
  189.6150  177.7690  142.2970 C   0  0  0  0  0  2  0  0  0  0  0  0
  187.0210  177.5340  146.0720 C   0  0  0  0  0  0  0  0  0  0  0  0
  185.3470  178.6090  144.0830 C   0  0  0  0  0  0  0  0  0  0  0  0
  187.8540  177.0010  147.1020 N   0  0  0  0  0  2  0  0  0  0  0  0
  189.0990  177.9540  147.9240 S   0  0  0  0  0  0  0  0  0  0  0  0
  191.7130  176.5580  145.4470 N   0  0  0  0  0  0  0  0  0  0  0  0
  190.6720  177.3270  145.7260 N   0  0  0  0  0  0  0  0  0  0  0  0
  192.1200  175.8980  146.5220 N   0  0  0  0  0  2  0  0  0  0  0  0
  190.4170  177.1440  147.0290 C   0  0  0  0  0  0  0  0  0  0  0  0
  191.3190  176.2440  147.5490 C   0  0  0  0  0  3  0  0  0  0  0  0
  1  2  1  0  0  0  0
  2 18  2  0  0  0  0
  2 11  1  0  0  0  0
  3  6  2  0  0  0  0
  4 16  1  1  0  0  0
  4  1  1  0  0  0  0
  5 12  1  0  0  0  0
  6 18  1  0  0  0  0
  7  8  1  6  0  0  0
  7  4  1  0  0  0  0
  8  5  1  0  0  0  0
  9 10  1  0  0  0  0
  9 15  2  0  0  0  0
 11 17  2  0  0  0  0
 12 16  1  0  0  0  0
 13  3  1  0  0  0  0
 13  1  2  0  0  0  0
 14  7  1  0  0  0  0
 14 13  1  0  0  0  0
 17 15  1  0  0  0  0
 17 19  1  0  0  0  0
 18  9  1  0  0  0  0
 19 20  1  0  0  0  0
 21 22  2  0  0  0  0
 21 23  1  0  0  0  0
 22 24  1  0  0  0  0
 23 25  1  0  0  0  0
 24 25  2  0  0  0  0
 24 20  1  0  0  0  0
M  END
>  <MODEL>
7

>  <REMARK>
 VINA RESULT:      -9.8      2.864      6.222
  Name = 
  3 active torsions:
  status: ('A' for Active; 'I' for Inactive)
    1  A    between atoms: N_6  and  S_15
    2  A    between atoms: N_6  and  C_23
    3  A    between atoms: S_15  and  C_21
                            x       y       z     vdW  Elec       q    Type
                         _______ _______ _______ _____ _____    ______ ____

>  <TORSDO>
F 3

$$$$
=
 OpenBabel10272400463D

 25 29  0  0  1  0  0  0  0  0999 V2000
  187.5440  177.6930  144.9110 C   0  0  0  0  0  0  0  0  0  0  0  0
  186.3130  178.0420  144.3480 C   0  0  0  0  0  0  0  0  0  0  0  0
  186.7610  178.2230  147.1390 C   0  0  0  0  0  3  0  0  0  0  0  0
  188.8520  177.4200  144.2710 C   0  0  1  0  0  3  0  0  0  0  0  0
  191.3920  176.0930  143.9210 C   0  0  0  0  0  2  0  0  0  0  0  0
  185.5000  178.5370  146.6050 C   0  0  0  0  0  3  0  0  0  0  0  0
  189.6210  176.8300  145.4350 C   0  0  1  0  0  3  0  0  0  0  0  0
  191.1010  176.9660  145.1590 C   0  0  0  0  0  2  0  0  0  0  0  0
  184.0150  178.7840  144.6780 C   0  0  0  0  0  0  0  0  0  0  0  0
  182.9950  179.1730  145.4830 F   0  0  0  0  0  0  0  0  0  0  0  0
  186.0980  177.9950  142.9680 C   0  0  0  0  0  3  0  0  0  0  0  0
  190.4550  176.4030  142.7250 C   0  0  0  0  0  2  0  0  0  0  0  0
  187.7660  177.8080  146.2670 C   0  0  0  0  0  0  0  0  0  0  0  0
  189.0970  177.4660  146.6370 N   0  0  0  0  0  2  0  0  0  0  0  0
  183.8110  178.7230  143.2950 C   0  0  0  0  0  3  0  0  0  0  0  0
  188.9660  176.4390  143.1220 C   0  0  0  0  0  2  0  0  0  0  0  0
  184.8470  178.3350  142.4370 C   0  0  0  0  0  0  0  0  0  0  0  0
  185.2660  178.4490  145.2170 C   0  0  0  0  0  0  0  0  0  0  0  0
  184.6050  178.2790  141.0310 N   0  0  0  0  0  2  0  0  0  0  0  0
  183.1030  177.6490  140.3370 S   0  0  0  0  0  0  0  0  0  0  0  0
  182.9390  181.1470  138.7080 N   0  0  0  0  0  0  0  0  0  0  0  0
  183.6190  180.1510  139.2520 N   0  0  0  0  0  2  0  0  0  0  0  0
  181.6420  180.8760  138.6710 N   0  0  0  0  0  0  0  0  0  0  0  0
  182.7130  179.2140  139.5670 C   0  0  0  0  0  0  0  0  0  0  0  0
  181.4580  179.6540  139.2100 C   0  0  0  0  0  3  0  0  0  0  0  0
  1 13  1  0  0  0  0
  2  1  2  0  0  0  0
  2 18  1  0  0  0  0
  4 16  1  6  0  0  0
  4  1  1  0  0  0  0
  4  7  1  0  0  0  0
  5  8  1  0  0  0  0
  6  3  1  0  0  0  0
  7  8  1  6  0  0  0
  7 14  1  0  0  0  0
  9 18  1  0  0  0  0
  9 10  1  0  0  0  0
 11  2  1  0  0  0  0
 12 16  1  0  0  0  0
 12  5  1  0  0  0  0
 13 14  1  0  0  0  0
 13  3  2  0  0  0  0
 15  9  2  0  0  0  0
 17 11  2  0  0  0  0
 17 15  1  0  0  0  0
 18  6  2  0  0  0  0
 19 17  1  0  0  0  0
 20 19  1  0  0  0  0
 21 22  1  0  0  0  0
 22 24  1  0  0  0  0
 23 21  2  0  0  0  0
 23 25  1  0  0  0  0
 24 20  1  0  0  0  0
 25 24  2  0  0  0  0
M  END
>  <MODEL>
8

>  <REMARK>
 VINA RESULT:      -9.7      3.525      5.778
  Name = 
  3 active torsions:
  status: ('A' for Active; 'I' for Inactive)
    1  A    between atoms: N_6  and  S_15
    2  A    between atoms: N_6  and  C_23
    3  A    between atoms: S_15  and  C_21
                            x       y       z     vdW  Elec       q    Type
                         _______ _______ _______ _____ _____    ______ ____

>  <TORSDO>
F 3

$$$$
=
 OpenBabel10272400463D

 25 29  0  0  1  0  0  0  0  0999 V2000
  189.5740  177.3500  144.2850 C   0  0  0  0  0  0  0  0  0  0  0  0
  188.4760  177.5480  145.1290 C   0  0  0  0  0  0  0  0  0  0  0  0
  191.0530  176.9970  146.1680 C   0  0  0  0  0  3  0  0  0  0  0  0
  189.7280  177.5960  142.8320 C   0  0  1  0  0  3  0  0  0  0  0  0
  190.6660  177.0720  140.1530 C   0  0  0  0  0  2  0  0  0  0  0  0
  189.9590  177.1470  147.0360 C   0  0  0  0  0  3  0  0  0  0  0  0
  191.0380  176.8890  142.5610 C   0  0  1  0  0  3  0  0  0  0  0  0
  191.6390  177.4460  141.2900 C   0  0  0  0  0  2  0  0  0  0  0  0
  187.5820  177.5930  147.3950 C   0  0  0  0  0  0  0  0  0  0  0  0
  187.7370  177.4750  148.7370 F   0  0  0  0  0  0  0  0  0  0  0  0
  187.2110  177.8620  144.6250 C   0  0  0  0  0  3  0  0  0  0  0  0
  189.2010  177.4910  140.4430 C   0  0  0  0  0  2  0  0  0  0  0  0
  190.8320  177.1090  144.7960 C   0  0  0  0  0  0  0  0  0  0  0  0
  191.8240  176.9990  143.7830 N   0  0  0  0  0  2  0  0  0  0  0  0
  186.3190  177.8970  146.8760 C   0  0  0  0  0  3  0  0  0  0  0  0
  188.7180  177.0550  141.8410 C   0  0  0  0  0  2  0  0  0  0  0  0
  186.1290  178.0370  145.4960 C   0  0  0  0  0  0  0  0  0  0  0  0
  188.6710  177.4210  146.5290 C   0  0  0  0  0  0  0  0  0  0  0  0
  184.8250  178.3430  144.9980 N   0  0  0  0  0  2  0  0  0  0  0  0
  184.4170  179.8990  144.2610 S   0  0  0  0  0  0  0  0  0  0  0  0
  185.4040  178.8600  140.6740 N   0  0  0  0  0  0  0  0  0  0  0  0
  185.6360  179.5220  141.7960 N   0  0  0  0  0  2  0  0  0  0  0  0
  184.2670  178.1840  140.7460 N   0  0  0  0  0  0  0  0  0  0  0  0
  184.6030  179.2500  142.6060 C   0  0  0  0  0  0  0  0  0  0  0  0
  183.7270  178.4070  141.9600 C   0  0  0  0  0  3  0  0  0  0  0  0
  1 13  2  0  0  0  0
  1  2  1  0  0  0  0
  2 18  1  0  0  0  0
  3  6  2  0  0  0  0
  4 16  1  6  0  0  0
  4  1  1  0  0  0  0
  5 12  1  0  0  0  0
  5  8  1  0  0  0  0
  7  8  1  6  0  0  0
  7  4  1  0  0  0  0
  7 14  1  0  0  0  0
  9 10  1  0  0  0  0
 11  2  2  0  0  0  0
 11 17  1  0  0  0  0
 12 16  1  0  0  0  0
 13  3  1  0  0  0  0
 14 13  1  0  0  0  0
 15  9  1  0  0  0  0
 17 15  2  0  0  0  0
 18  6  1  0  0  0  0
 18  9  2  0  0  0  0
 19 17  1  0  0  0  0
 20 19  1  0  0  0  0
 21 23  2  0  0  0  0
 21 22  1  0  0  0  0
 22 24  1  0  0  0  0
 23 25  1  0  0  0  0
 24 20  1  0  0  0  0
 25 24  2  0  0  0  0
M  END
>  <MODEL>
9

>  <REMARK>
 VINA RESULT:      -9.6      2.373      5.159
  Name = 
  3 active torsions:
  status: ('A' for Active; 'I' for Inactive)
    1  A    between atoms: N_6  and  S_15
    2  A    between atoms: N_6  and  C_23
    3  A    between atoms: S_15  and  C_21
                            x       y       z     vdW  Elec       q    Type
                         _______ _______ _______ _____ _____    ______ ____

>  <TORSDO>
F 3

$$$$
