=
 OpenBabel10272414033D

 43 48  0  0  1  0  0  0  0  0999 V2000
  190.5400  176.8560  146.4610 C   0  0  0  0  0  0  0  0  0  0  0  0
  188.1370  178.1540  142.2530 C   0  0  0  0  0  0  0  0  0  0  0  0
  185.4000  178.3720  142.8450 C   0  0  0  0  0  0  0  0  0  0  0  0
  189.9820  177.4610  144.2300 C   0  0  0  0  0  0  0  0  0  0  0  0
  189.1960  176.9340  146.8430 C   0  0  0  0  0  3  0  0  0  0  0  0
  191.5750  176.4830  147.4630 C   0  0  0  0  0  1  0  0  0  0  0  0
  188.6140  177.5580  144.5660 C   0  0  0  0  0  0  0  0  0  0  0  0
  190.9020  177.1190  145.1750 N   0  0  0  0  0  0  0  0  0  0  0  0
  188.2320  177.2870  145.8910 C   0  0  0  0  0  3  0  0  0  0  0  0
  186.3080  178.0240  143.8540 C   0  0  0  0  0  3  0  0  0  0  0  0
  187.6780  177.9140  143.5700 C   0  0  0  0  0  0  0  0  0  0  0  0
  189.4670  178.0480  141.9700 N   0  0  0  0  0  0  0  0  0  0  0  0
  187.2260  178.4900  141.2360 C   0  0  0  0  0  0  0  0  0  0  0  0
  185.8610  178.5930  141.5460 C   0  0  0  0  0  3  0  0  0  0  0  0
  190.3840  177.7130  142.9200 C   0  0  0  0  0  3  0  0  0  0  0  0
  183.9360  178.4880  143.1220 C   0  0  1  0  0  3  0  0  0  0  0  0
  183.6720  179.5270  144.2040 C   0  0  0  0  0  1  0  0  0  0  0  0
  183.2090  178.8220  141.9040 N   0  0  0  0  0  2  0  0  0  0  0  0
  181.7810  178.7860  141.8350 C   0  0  0  0  0  0  0  0  0  0  0  0
  181.0980  178.4520  142.8400 O   0  0  0  0  0  0  0  0  0  0  0  0
  181.0900  179.1160  140.5550 C   0  0  0  0  0  2  0  0  0  0  0  0
  182.1040  179.3200  139.4350 C   0  0  2  0  0  3  0  0  0  0  0  0
  181.4160  178.9380  137.1450 C   0  0  0  0  0  2  0  0  0  0  0  0
  181.8010  175.9440  137.6530 N   0  0  0  0  0  0  0  0  0  0  0  0
  182.3510  176.9890  138.4790 C   0  0  0  0  0  0  0  0  0  0  0  0
  181.8980  180.6750  138.7860 C   0  0  0  0  0  2  0  0  0  0  0  0
  181.8730  178.3430  138.3860 N   0  0  0  0  0  0  0  0  0  0  0  0
  181.5510  173.5970  137.2210 N   0  0  0  0  0  2  0  0  0  0  0  0
  180.3640  175.2770  135.7890 C   0  0  0  0  0  2  0  0  0  0  0  0
  180.9460  173.8560  135.9070 C   0  0  0  0  0  2  0  0  0  0  0  0
  180.4590  176.0660  137.0950 C   0  0  0  0  0  2  0  0  0  0  0  0
  182.5020  174.6590  137.5480 C   0  0  0  0  0  2  0  0  0  0  0  0
  183.2680  176.7120  139.3030 O   0  0  0  0  0  0  0  0  0  0  0  0
  181.2340  180.4170  137.4370 C   0  0  0  0  0  2  0  0  0  0  0  0
  187.7120  178.6780  139.9310 O   0  0  0  0  0  0  0  0  0  0  0  0
  186.1310  177.1930  136.8850 C   0  0  0  0  0  3  0  0  0  0  0  0
  187.0870  176.2300  136.5540 C   0  0  0  0  0  0  0  0  0  0  0  0
  188.4210  176.9070  138.4590 C   0  0  0  0  0  3  0  0  0  0  0  0
  186.3200  178.0140  138.0030 C   0  0  0  0  0  3  0  0  0  0  0  0
  187.4680  177.8730  138.8030 C   0  0  0  0  0  0  0  0  0  0  0  0
  188.2290  176.0850  137.3460 C   0  0  0  0  0  3  0  0  0  0  0  0
  185.4810  175.3830  134.9710 N   0  0  0  0  0  1  0  0  0  0  0  0
  186.8770  175.3390  135.3770 C   0  0  0  0  0  2  0  0  0  0  0  0
  1  5  1  0  0  0  0
  1  6  1  0  0  0  0
  2 11  1  0  0  0  0
  3 16  1  0  0  0  0
  3 10  1  0  0  0  0
  4  7  2  0  0  0  0
  4  8  1  0  0  0  0
  7  9  1  0  0  0  0
  8  1  2  0  0  0  0
  9  5  2  0  0  0  0
 11 10  2  0  0  0  0
 11  7  1  0  0  0  0
 12  2  1  0  0  0  0
 12 15  2  0  0  0  0
 13 14  1  0  0  0  0
 13  2  2  0  0  0  0
 14  3  2  0  0  0  0
 15  4  1  0  0  0  0
 16 17  1  1  0  0  0
 18 16  1  0  0  0  0
 19 18  1  0  0  0  0
 19 20  2  0  0  0  0
 21 19  1  0  0  0  0
 22 21  1  1  0  0  0
 23 34  1  0  0  0  0
 23 27  1  0  0  0  0
 24 25  1  0  0  0  0
 25 33  2  0  0  0  0
 26 22  1  0  0  0  0
 27 25  1  0  0  0  0
 27 22  1  0  0  0  0
 28 32  1  0  0  0  0
 29 30  1  0  0  0  0
 29 31  1  0  0  0  0
 30 28  1  0  0  0  0
 31 24  1  0  0  0  0
 32 24  1  0  0  0  0
 34 26  1  0  0  0  0
 35 13  1  0  0  0  0
 36 39  1  0  0  0  0
 37 36  2  0  0  0  0
 37 41  1  0  0  0  0
 38 40  1  0  0  0  0
 39 40  2  0  0  0  0
 40 35  1  0  0  0  0
 41 38  2  0  0  0  0
 42 43  1  0  0  0  0
 43 37  1  0  0  0  0
M  END
>  <MODEL>
1

>  <REMARK>
 VINA RESULT:      -9.5      0.000      0.000
  Name = 
  7 active torsions:
  status: ('A' for Active; 'I' for Inactive)
    1  A    between atoms: O_1  and  C_34
    2  A    between atoms: O_1  and  C_35
    3  A    between atoms: C_2  and  N_6
    4  A    between atoms: C_2  and  C_13
    5  A    between atoms: C_3  and  C_4
    6  A    between atoms: C_3  and  C_12
    7  A    between atoms: C_19  and  C_37
                            x       y       z     vdW  Elec       q    Type
                         _______ _______ _______ _____ _____    ______ ____

>  <TORSDO>
F 7

$$$$
=
 OpenBabel10272414033D

 43 48  0  0  1  0  0  0  0  0999 V2000
  187.8520  177.4850  146.7410 C   0  0  0  0  0  0  0  0  0  0  0  0
  187.9650  178.3590  141.8030 C   0  0  0  0  0  0  0  0  0  0  0  0
  185.3150  178.5630  140.8940 C   0  0  0  0  0  0  0  0  0  0  0  0
  188.5250  177.8820  144.4960 C   0  0  0  0  0  0  0  0  0  0  0  0
  186.5040  177.5650  146.3750 C   0  0  0  0  0  3  0  0  0  0  0  0
  188.2220  177.2240  148.1600 C   0  0  0  0  0  1  0  0  0  0  0  0
  187.1800  177.9760  144.0770 C   0  0  0  0  0  0  0  0  0  0  0  0
  188.8260  177.6440  145.8030 N   0  0  0  0  0  0  0  0  0  0  0  0
  186.1690  177.8120  145.0390 C   0  0  0  0  0  3  0  0  0  0  0  0
  185.5720  178.3260  142.2510 C   0  0  0  0  0  3  0  0  0  0  0  0
  186.8920  178.2230  142.7170 C   0  0  0  0  0  0  0  0  0  0  0  0
  189.2500  178.2600  142.2490 N   0  0  0  0  0  0  0  0  0  0  0  0
  187.7090  178.5850  140.4390 C   0  0  0  0  0  0  0  0  0  0  0  0
  186.3790  178.6820  139.9990 C   0  0  0  0  0  3  0  0  0  0  0  0
  189.5460  178.0290  143.5580 C   0  0  0  0  0  3  0  0  0  0  0  0
  183.9170  178.6690  140.3740 C   0  0  1  0  0  3  0  0  0  0  0  0
  183.8500  179.6370  139.2000 C   0  0  0  0  0  1  0  0  0  0  0  0
  183.4160  177.3570  139.9840 N   0  0  0  0  0  2  0  0  0  0  0  0
  182.0210  177.0390  139.9990 C   0  0  0  0  0  0  0  0  0  0  0  0
  181.1720  177.8970  140.3620 O   0  0  0  0  0  0  0  0  0  0  0  0
  181.5670  175.6730  139.6110 C   0  0  0  0  0  2  0  0  0  0  0  0
  181.3240  175.5940  138.1090 C   0  0  2  0  0  3  0  0  0  0  0  0
  181.7540  173.5080  136.9580 C   0  0  0  0  0  2  0  0  0  0  0  0
  184.7230  174.2540  136.9640 N   0  0  0  0  0  0  0  0  0  0  0  0
  183.6470  175.1850  137.1910 C   0  0  0  0  0  0  0  0  0  0  0  0
  179.9850  174.9390  137.8320 C   0  0  0  0  0  2  0  0  0  0  0  0
  182.3180  174.7290  137.5000 N   0  0  0  0  0  0  0  0  0  0  0  0
  187.0820  173.8640  136.7670 N   0  0  0  0  0  2  0  0  0  0  0  0
  185.4710  171.9490  136.6340 C   0  0  0  0  0  2  0  0  0  0  0  0
  186.8620  172.4990  136.2690 C   0  0  0  0  0  2  0  0  0  0  0  0
  184.6690  172.9060  137.5160 C   0  0  0  0  0  2  0  0  0  0  0  0
  185.9740  174.7270  136.3590 C   0  0  0  0  0  2  0  0  0  0  0  0
  183.8740  176.4270  137.1230 O   0  0  0  0  0  0  0  0  0  0  0  0
  180.2830  173.5280  137.3350 C   0  0  0  0  0  2  0  0  0  0  0  0
  188.7970  178.6710  139.5530 O   0  0  0  0  0  0  0  0  0  0  0  0
  190.4920  175.6570  138.1320 C   0  0  0  0  0  3  0  0  0  0  0  0
  190.0870  175.7510  136.7980 C   0  0  0  0  0  0  0  0  0  0  0  0
  188.8500  177.7660  137.3210 C   0  0  0  0  0  3  0  0  0  0  0  0
  190.0750  176.6180  139.0600 C   0  0  0  0  0  3  0  0  0  0  0  0
  189.2520  177.6840  138.6590 C   0  0  0  0  0  0  0  0  0  0  0  0
  189.2700  176.8100  136.3940 C   0  0  0  0  0  3  0  0  0  0  0  0
  190.7660  173.4640  136.4610 N   0  0  0  0  0  1  0  0  0  0  0  0
  190.5480  174.7410  135.8020 C   0  0  0  0  0  2  0  0  0  0  0  0
  1  6  1  0  0  0  0
  2 12  1  0  0  0  0
  2 11  1  0  0  0  0
  3 10  1  0  0  0  0
  4  8  1  0  0  0  0
  5  1  1  0  0  0  0
  7  4  2  0  0  0  0
  7  9  1  0  0  0  0
  8  1  2  0  0  0  0
  9  5  2  0  0  0  0
 10 11  2  0  0  0  0
 11  7  1  0  0  0  0
 12 15  2  0  0  0  0
 13  2  2  0  0  0  0
 14 13  1  0  0  0  0
 14  3  2  0  0  0  0
 15  4  1  0  0  0  0
 16 17  1  6  0  0  0
 16  3  1  0  0  0  0
 18 19  1  0  0  0  0
 18 16  1  0  0  0  0
 19 20  2  0  0  0  0
 21 19  1  0  0  0  0
 22 21  1  1  0  0  0
 23 34  1  0  0  0  0
 23 27  1  0  0  0  0
 24 25  1  0  0  0  0
 24 31  1  0  0  0  0
 25 27  1  0  0  0  0
 26 22  1  0  0  0  0
 27 22  1  0  0  0  0
 29 31  1  0  0  0  0
 30 29  1  0  0  0  0
 30 28  1  0  0  0  0
 32 28  1  0  0  0  0
 32 24  1  0  0  0  0
 33 25  2  0  0  0  0
 34 26  1  0  0  0  0
 35 13  1  0  0  0  0
 36 39  1  0  0  0  0
 37 36  2  0  0  0  0
 38 40  1  0  0  0  0
 40 39  2  0  0  0  0
 40 35  1  0  0  0  0
 41 37  1  0  0  0  0
 41 38  2  0  0  0  0
 43 42  1  0  0  0  0
 43 37  1  0  0  0  0
M  END
>  <MODEL>
2

>  <REMARK>
 VINA RESULT:      -8.6      2.023      3.557
  Name = 
  7 active torsions:
  status: ('A' for Active; 'I' for Inactive)
    1  A    between atoms: O_1  and  C_34
    2  A    between atoms: O_1  and  C_35
    3  A    between atoms: C_2  and  N_6
    4  A    between atoms: C_2  and  C_13
    5  A    between atoms: C_3  and  C_4
    6  A    between atoms: C_3  and  C_12
    7  A    between atoms: C_19  and  C_37
                            x       y       z     vdW  Elec       q    Type
                         _______ _______ _______ _____ _____    ______ ____

>  <TORSDO>
F 7

$$$$
=
 OpenBabel10272414033D

 43 48  0  0  1  0  0  0  0  0999 V2000
  190.6350  176.9130  146.5600 C   0  0  0  0  0  0  0  0  0  0  0  0
  188.7610  178.2680  142.1080 C   0  0  0  0  0  0  0  0  0  0  0  0
  185.9590  178.2200  142.2920 C   0  0  0  0  0  0  0  0  0  0  0  0
  190.3550  177.6080  144.3040 C   0  0  0  0  0  0  0  0  0  0  0  0
  189.2490  176.8560  146.7390 C   0  0  0  0  0  3  0  0  0  0  0  0
  191.5440  176.5660  147.6870 C   0  0  0  0  0  1  0  0  0  0  0  0
  188.9490  177.5710  144.4350 C   0  0  0  0  0  0  0  0  0  0  0  0
  191.1550  177.2860  145.3580 N   0  0  0  0  0  0  0  0  0  0  0  0
  188.4050  177.1860  145.6720 C   0  0  0  0  0  3  0  0  0  0  0  0
  186.7380  177.8870  143.4080 C   0  0  0  0  0  3  0  0  0  0  0  0
  188.1390  177.9090  143.3280 C   0  0  0  0  0  0  0  0  0  0  0  0
  190.1220  178.2920  142.0240 N   0  0  0  0  0  0  0  0  0  0  0  0
  187.9810  178.5910  140.9840 C   0  0  0  0  0  0  0  0  0  0  0  0
  186.5820  178.5600  141.0900 C   0  0  0  0  0  3  0  0  0  0  0  0
  190.9180  177.9750  143.0830 C   0  0  0  0  0  3  0  0  0  0  0  0
  184.4650  178.1960  142.3510 C   0  0  1  0  0  3  0  0  0  0  0  0
  183.9530  179.1480  143.4250 C   0  0  0  0  0  1  0  0  0  0  0  0
  183.8960  178.5360  141.0540 N   0  0  0  0  0  2  0  0  0  0  0  0
  182.5000  178.7940  140.8780 C   0  0  0  0  0  0  0  0  0  0  0  0
  181.7080  178.7290  141.8570 O   0  0  0  0  0  0  0  0  0  0  0  0
  181.9690  179.1150  139.5220 C   0  0  0  0  0  2  0  0  0  0  0  0
  181.3360  177.8820  138.8890 C   0  0  2  0  0  3  0  0  0  0  0  0
  182.6570  175.8650  138.6710 C   0  0  0  0  0  2  0  0  0  0  0  0
  183.9440  177.1170  136.1920 N   0  0  0  0  0  0  0  0  0  0  0  0
  182.7120  177.5680  136.7880 C   0  0  0  0  0  0  0  0  0  0  0  0
  180.8810  176.9170  139.9670 C   0  0  0  0  0  2  0  0  0  0  0  0
  182.3340  177.1640  138.1160 N   0  0  0  0  0  0  0  0  0  0  0  0
  185.5900  177.3620  134.4630 N   0  0  0  0  0  2  0  0  0  0  0  0
  185.9100  175.6630  136.2770 C   0  0  0  0  0  2  0  0  0  0  0  0
  186.2390  176.0980  134.8370 C   0  0  0  0  0  2  0  0  0  0  0  0
  185.0620  176.6910  137.0270 C   0  0  0  0  0  2  0  0  0  0  0  0
  184.1570  177.2890  134.7500 C   0  0  0  0  0  2  0  0  0  0  0  0
  181.9500  178.3360  136.1340 O   0  0  0  0  0  0  0  0  0  0  0  0
  181.8810  175.7650  139.9720 C   0  0  0  0  0  2  0  0  0  0  0  0
  188.6320  178.9000  139.7780 O   0  0  0  0  0  0  0  0  0  0  0  0
  189.5280  175.8210  137.8560 C   0  0  0  0  0  3  0  0  0  0  0  0
  189.5580  176.3380  136.5580 C   0  0  0  0  0  0  0  0  0  0  0  0
  188.9810  178.5260  137.4230 C   0  0  0  0  0  3  0  0  0  0  0  0
  189.2250  176.6560  138.9370 C   0  0  0  0  0  3  0  0  0  0  0  0
  188.9520  178.0200  138.7280 C   0  0  0  0  0  0  0  0  0  0  0  0
  189.2890  177.6930  136.3450 C   0  0  0  0  0  3  0  0  0  0  0  0
  189.2390  174.1710  135.5560 N   0  0  0  0  0  1  0  0  0  0  0  0
  189.9030  175.4560  135.4070 C   0  0  0  0  0  2  0  0  0  0  0  0
  1  5  1  0  0  0  0
  1  6  1  0  0  0  0
  2 11  1  0  0  0  0
  3 16  1  0  0  0  0
  3 10  1  0  0  0  0
  4  7  2  0  0  0  0
  4  8  1  0  0  0  0
  7  9  1  0  0  0  0
  8  1  2  0  0  0  0
  9  5  2  0  0  0  0
 11 10  2  0  0  0  0
 11  7  1  0  0  0  0
 12  2  1  0  0  0  0
 12 15  2  0  0  0  0
 13 14  1  0  0  0  0
 13  2  2  0  0  0  0
 14  3  2  0  0  0  0
 15  4  1  0  0  0  0
 16 17  1  1  0  0  0
 18 16  1  0  0  0  0
 19 18  1  0  0  0  0
 19 20  2  0  0  0  0
 21 19  1  0  0  0  0
 22 21  1  1  0  0  0
 22 26  1  0  0  0  0
 23 34  1  0  0  0  0
 24 25  1  0  0  0  0
 24 31  1  0  0  0  0
 25 27  1  0  0  0  0
 26 34  1  0  0  0  0
 27 23  1  0  0  0  0
 27 22  1  0  0  0  0
 28 32  1  0  0  0  0
 28 30  1  0  0  0  0
 29 31  1  0  0  0  0
 30 29  1  0  0  0  0
 32 24  1  0  0  0  0
 33 25  2  0  0  0  0
 35 13  1  0  0  0  0
 36 39  1  0  0  0  0
 37 36  2  0  0  0  0
 38 40  1  0  0  0  0
 40 39  2  0  0  0  0
 40 35  1  0  0  0  0
 41 37  1  0  0  0  0
 41 38  2  0  0  0  0
 43 42  1  0  0  0  0
 43 37  1  0  0  0  0
M  END
>  <MODEL>
3

>  <REMARK>
 VINA RESULT:      -8.4      1.619      2.695
  Name = 
  7 active torsions:
  status: ('A' for Active; 'I' for Inactive)
    1  A    between atoms: O_1  and  C_34
    2  A    between atoms: O_1  and  C_35
    3  A    between atoms: C_2  and  N_6
    4  A    between atoms: C_2  and  C_13
    5  A    between atoms: C_3  and  C_4
    6  A    between atoms: C_3  and  C_12
    7  A    between atoms: C_19  and  C_37
                            x       y       z     vdW  Elec       q    Type
                         _______ _______ _______ _____ _____    ______ ____

>  <TORSDO>
F 7

$$$$
=
 OpenBabel10272414033D

 43 48  0  0  1  0  0  0  0  0999 V2000
  187.8680  177.6910  147.0540 C   0  0  0  0  0  0  0  0  0  0  0  0
  185.3930  178.5740  142.7810 C   0  0  0  0  0  0  0  0  0  0  0  0
  187.2200  178.3650  140.6570 C   0  0  0  0  0  0  0  0  0  0  0  0
  186.2090  178.1690  145.4200 C   0  0  0  0  0  0  0  0  0  0  0  0
  188.8460  177.5740  146.0600 C   0  0  0  0  0  3  0  0  0  0  0  0
  188.2360  177.4960  148.4830 C   0  0  0  0  0  1  0  0  0  0  0  0
  187.1570  178.0580  144.3800 C   0  0  0  0  0  0  0  0  0  0  0  0
  186.5820  177.9820  146.7170 N   0  0  0  0  0  0  0  0  0  0  0  0
  188.4880  177.7580  144.7200 C   0  0  0  0  0  3  0  0  0  0  0  0
  187.6520  178.1560  141.9740 C   0  0  0  0  0  3  0  0  0  0  0  0
  186.7480  178.2560  143.0430 C   0  0  0  0  0  0  0  0  0  0  0  0
  184.5090  178.6720  143.8150 N   0  0  0  0  0  0  0  0  0  0  0  0
  184.9610  178.7960  141.4610 C   0  0  0  0  0  0  0  0  0  0  0  0
  185.8850  178.6900  140.4110 C   0  0  0  0  0  3  0  0  0  0  0  0
  184.8850  178.4770  145.1090 C   0  0  0  0  0  3  0  0  0  0  0  0
  188.1670  178.2710  139.5040 C   0  0  1  0  0  3  0  0  0  0  0  0
  189.5410  177.8070  139.9710 C   0  0  0  0  0  1  0  0  0  0  0  0
  187.6430  177.3720  138.4840 N   0  0  0  0  0  2  0  0  0  0  0  0
  187.1900  177.8440  137.2120 C   0  0  0  0  0  0  0  0  0  0  0  0
  187.2250  179.0730  136.9350 O   0  0  0  0  0  0  0  0  0  0  0  0
  186.6420  176.8810  136.2140 C   0  0  0  0  0  2  0  0  0  0  0  0
  186.7460  175.4530  136.7340 C   0  0  2  0  0  3  0  0  0  0  0  0
  185.9610  173.6360  135.3390 C   0  0  0  0  0  2  0  0  0  0  0  0
  183.1210  174.3150  136.2570 N   0  0  0  0  0  0  0  0  0  0  0  0
  184.3210  174.7520  136.9240 C   0  0  0  0  0  0  0  0  0  0  0  0
  187.9640  174.7700  136.1410 C   0  0  0  0  0  2  0  0  0  0  0  0
  185.6030  174.6830  136.2750 N   0  0  0  0  0  0  0  0  0  0  0  0
  180.7230  174.2830  136.1740 N   0  0  0  0  0  2  0  0  0  0  0  0
  182.0630  173.1990  134.3550 C   0  0  0  0  0  2  0  0  0  0  0  0
  180.7270  173.2610  135.1170 C   0  0  0  0  0  2  0  0  0  0  0  0
  183.0510  174.2770  134.8010 C   0  0  0  0  0  2  0  0  0  0  0  0
  181.8930  174.1110  137.0350 C   0  0  0  0  0  2  0  0  0  0  0  0
  184.2470  175.2100  138.1000 O   0  0  0  0  0  0  0  0  0  0  0  0
  187.4490  173.7990  135.0840 C   0  0  0  0  0  2  0  0  0  0  0  0
  183.6190  179.1520  141.2430 O   0  0  0  0  0  0  0  0  0  0  0  0
  181.8760  179.7380  137.9870 C   0  0  0  0  0  3  0  0  0  0  0  0
  181.3580  178.4620  137.7500 C   0  0  0  0  0  0  0  0  0  0  0  0
  182.3420  177.6830  139.8210 C   0  0  0  0  0  3  0  0  0  0  0  0
  182.6270  179.9860  139.1420 C   0  0  0  0  0  3  0  0  0  0  0  0
  182.8620  178.9590  140.0720 C   0  0  0  0  0  0  0  0  0  0  0  0
  181.5880  177.4370  138.6720 C   0  0  0  0  0  3  0  0  0  0  0  0
  181.3640  177.5860  135.5060 N   0  0  0  0  0  1  0  0  0  0  0  0
  180.5380  178.2000  136.5320 C   0  0  0  0  0  2  0  0  0  0  0  0
  1  6  1  0  0  0  0
  2 11  1  0  0  0  0
  2 12  1  0  0  0  0
  3 10  1  0  0  0  0
  4  8  2  0  0  0  0
  5  1  2  0  0  0  0
  7  9  2  0  0  0  0
  7  4  1  0  0  0  0
  8  1  1  0  0  0  0
  9  5  1  0  0  0  0
 10 11  2  0  0  0  0
 11  7  1  0  0  0  0
 12 15  2  0  0  0  0
 13  2  2  0  0  0  0
 14  3  2  0  0  0  0
 14 13  1  0  0  0  0
 15  4  1  0  0  0  0
 16 17  1  1  0  0  0
 16  3  1  0  0  0  0
 18 16  1  0  0  0  0
 19 18  1  0  0  0  0
 20 19  2  0  0  0  0
 21 19  1  0  0  0  0
 22 21  1  6  0  0  0
 23 27  1  0  0  0  0
 24 25  1  0  0  0  0
 24 32  1  0  0  0  0
 25 33  2  0  0  0  0
 26 22  1  0  0  0  0
 27 22  1  0  0  0  0
 27 25  1  0  0  0  0
 28 32  1  0  0  0  0
 29 31  1  0  0  0  0
 29 30  1  0  0  0  0
 30 28  1  0  0  0  0
 31 24  1  0  0  0  0
 34 23  1  0  0  0  0
 34 26  1  0  0  0  0
 35 13  1  0  0  0  0
 36 39  1  0  0  0  0
 37 36  2  0  0  0  0
 37 41  1  0  0  0  0
 38 40  1  0  0  0  0
 39 40  2  0  0  0  0
 40 35  1  0  0  0  0
 41 38  2  0  0  0  0
 42 43  1  0  0  0  0
 43 37  1  0  0  0  0
M  END
>  <MODEL>
4

>  <REMARK>
 VINA RESULT:      -8.3      1.906      5.028
  Name = 
  7 active torsions:
  status: ('A' for Active; 'I' for Inactive)
    1  A    between atoms: O_1  and  C_34
    2  A    between atoms: O_1  and  C_35
    3  A    between atoms: C_2  and  N_6
    4  A    between atoms: C_2  and  C_13
    5  A    between atoms: C_3  and  C_4
    6  A    between atoms: C_3  and  C_12
    7  A    between atoms: C_19  and  C_37
                            x       y       z     vdW  Elec       q    Type
                         _______ _______ _______ _____ _____    ______ ____

>  <TORSDO>
F 7

$$$$
=
 OpenBabel10272414033D

 43 48  0  0  1  0  0  0  0  0999 V2000
  189.2780  177.2920  146.2790 C   0  0  0  0  0  0  0  0  0  0  0  0
  190.4610  177.4920  141.4080 C   0  0  0  0  0  0  0  0  0  0  0  0
  188.1260  178.0990  139.9700 C   0  0  0  0  0  0  0  0  0  0  0  0
  190.4120  177.2600  144.1900 C   0  0  0  0  0  0  0  0  0  0  0  0
  188.0680  177.5890  145.6430 C   0  0  0  0  0  3  0  0  0  0  0  0
  189.3230  177.1460  147.7600 C   0  0  0  0  0  1  0  0  0  0  0  0
  189.2180  177.5640  143.5020 C   0  0  0  0  0  0  0  0  0  0  0  0
  190.4150  177.1360  145.5470 N   0  0  0  0  0  0  0  0  0  0  0  0
  188.0390  177.7260  144.2510 C   0  0  0  0  0  3  0  0  0  0  0  0
  188.0780  177.9890  141.3660 C   0  0  0  0  0  3  0  0  0  0  0  0
  189.2380  177.6880  142.0950 C   0  0  0  0  0  0  0  0  0  0  0  0
  191.5920  177.2000  142.1110 N   0  0  0  0  0  0  0  0  0  0  0  0
  190.5090  177.5900  140.0060 C   0  0  0  0  0  0  0  0  0  0  0  0
  189.3330  177.8910  139.3010 C   0  0  0  0  0  3  0  0  0  0  0  0
  191.5920  177.0830  143.4680 C   0  0  0  0  0  3  0  0  0  0  0  0
  186.9010  178.4110  139.1710 C   0  0  1  0  0  3  0  0  0  0  0  0
  186.9820  177.7760  137.7890 C   0  0  0  0  0  1  0  0  0  0  0  0
  185.7050  177.9610  139.8710 N   0  0  0  0  0  2  0  0  0  0  0  0
  184.5310  178.7710  139.9720 C   0  0  0  0  0  0  0  0  0  0  0  0
  184.4980  179.9200  139.4530 O   0  0  0  0  0  0  0  0  0  0  0  0
  183.3430  178.2690  140.7200 C   0  0  0  0  0  2  0  0  0  0  0  0
  182.0550  178.7950  140.0990 C   0  0  2  0  0  3  0  0  0  0  0  0
  180.1040  177.3630  140.0520 C   0  0  0  0  0  2  0  0  0  0  0  0
  181.3260  175.9770  137.6110 N   0  0  0  0  0  0  0  0  0  0  0  0
  181.7340  177.2670  138.1070 C   0  0  0  0  0  0  0  0  0  0  0  0
  181.1100  179.2720  141.1850 C   0  0  0  0  0  2  0  0  0  0  0  0
  181.3620  177.7130  139.4230 N   0  0  0  0  0  0  0  0  0  0  0  0
  181.5910  174.2350  135.9830 N   0  0  0  0  0  2  0  0  0  0  0  0
  179.9830  173.9510  137.8840 C   0  0  0  0  0  2  0  0  0  0  0  0
  180.3780  173.5490  136.4510 C   0  0  0  0  0  2  0  0  0  0  0  0
  180.9920  174.8980  138.5330 C   0  0  0  0  0  2  0  0  0  0  0  0
  181.4530  175.6780  136.1800 C   0  0  0  0  0  2  0  0  0  0  0  0
  182.4340  178.0220  137.3730 O   0  0  0  0  0  0  0  0  0  0  0  0
  180.0130  178.2180  141.3030 C   0  0  0  0  0  2  0  0  0  0  0  0
  191.7300  177.3460  139.3550 O   0  0  0  0  0  0  0  0  0  0  0  0
  191.4310  174.3950  137.0790 C   0  0  0  0  0  3  0  0  0  0  0  0
  192.5900  174.5520  136.3150 C   0  0  0  0  0  0  0  0  0  0  0  0
  193.1460  176.5410  137.5790 C   0  0  0  0  0  3  0  0  0  0  0  0
  191.1300  175.3110  138.0930 C   0  0  0  0  0  3  0  0  0  0  0  0
  191.9900  176.3920  138.3540 C   0  0  0  0  0  0  0  0  0  0  0  0
  193.4490  175.6240  136.5710 C   0  0  0  0  0  3  0  0  0  0  0  0
  192.5880  172.2240  135.6980 N   0  0  0  0  0  1  0  0  0  0  0  0
  192.9250  173.5650  135.2490 C   0  0  0  0  0  2  0  0  0  0  0  0
  1  6  1  0  0  0  0
  2 11  1  0  0  0  0
  2 12  1  0  0  0  0
  3 10  1  0  0  0  0
  4  8  1  0  0  0  0
  5  1  1  0  0  0  0
  7  4  2  0  0  0  0
  7  9  1  0  0  0  0
  8  1  2  0  0  0  0
  9  5  2  0  0  0  0
 10 11  2  0  0  0  0
 11  7  1  0  0  0  0
 12 15  2  0  0  0  0
 13  2  2  0  0  0  0
 14  3  2  0  0  0  0
 14 13  1  0  0  0  0
 15  4  1  0  0  0  0
 16 17  1  6  0  0  0
 16 18  1  0  0  0  0
 16  3  1  0  0  0  0
 18 19  1  0  0  0  0
 19 21  1  0  0  0  0
 20 19  2  0  0  0  0
 22 21  1  1  0  0  0
 22 26  1  0  0  0  0
 23 34  1  0  0  0  0
 24 25  1  0  0  0  0
 24 31  1  0  0  0  0
 25 27  1  0  0  0  0
 26 34  1  0  0  0  0
 27 23  1  0  0  0  0
 27 22  1  0  0  0  0
 28 32  1  0  0  0  0
 28 30  1  0  0  0  0
 29 31  1  0  0  0  0
 30 29  1  0  0  0  0
 32 24  1  0  0  0  0
 33 25  2  0  0  0  0
 35 13  1  0  0  0  0
 36 39  1  0  0  0  0
 37 41  1  0  0  0  0
 37 36  2  0  0  0  0
 38 40  1  0  0  0  0
 39 40  2  0  0  0  0
 40 35  1  0  0  0  0
 41 38  2  0  0  0  0
 43 42  1  0  0  0  0
 43 37  1  0  0  0  0
M  END
>  <MODEL>
5

>  <REMARK>
 VINA RESULT:      -8.2      2.686      3.685
  Name = 
  7 active torsions:
  status: ('A' for Active; 'I' for Inactive)
    1  A    between atoms: O_1  and  C_34
    2  A    between atoms: O_1  and  C_35
    3  A    between atoms: C_2  and  N_6
    4  A    between atoms: C_2  and  C_13
    5  A    between atoms: C_3  and  C_4
    6  A    between atoms: C_3  and  C_12
    7  A    between atoms: C_19  and  C_37
                            x       y       z     vdW  Elec       q    Type
                         _______ _______ _______ _____ _____    ______ ____

>  <TORSDO>
F 7

$$$$
=
 OpenBabel10272414033D

 43 48  0  0  1  0  0  0  0  0999 V2000
  189.0290  177.2920  146.1540 C   0  0  0  0  0  0  0  0  0  0  0  0
  190.6090  177.3020  141.3930 C   0  0  0  0  0  0  0  0  0  0  0  0
  188.4690  178.1170  139.7670 C   0  0  0  0  0  0  0  0  0  0  0  0
  190.3170  177.1170  144.1640 C   0  0  0  0  0  0  0  0  0  0  0  0
  187.9090  177.6990  145.4210 C   0  0  0  0  0  3  0  0  0  0  0  0
  188.9410  177.1640  147.6350 C   0  0  0  0  0  1  0  0  0  0  0  0
  189.2170  177.5280  143.3790 C   0  0  0  0  0  0  0  0  0  0  0  0
  190.1990  177.0130  145.5170 N   0  0  0  0  0  0  0  0  0  0  0  0
  188.0050  177.8170  144.0300 C   0  0  0  0  0  3  0  0  0  0  0  0
  188.2990  178.0330  141.1560 C   0  0  0  0  0  3  0  0  0  0  0  0
  189.3620  177.6280  141.9780 C   0  0  0  0  0  0  0  0  0  0  0  0
  191.6460  176.9090  142.1870 N   0  0  0  0  0  0  0  0  0  0  0  0
  190.7780  177.3740  139.9990 C   0  0  0  0  0  0  0  0  0  0  0  0
  189.6980  177.7800  139.1990 C   0  0  0  0  0  3  0  0  0  0  0  0
  191.5260  176.8130  143.5400 C   0  0  0  0  0  3  0  0  0  0  0  0
  187.3490  178.5370  138.8710 C   0  0  1  0  0  3  0  0  0  0  0  0
  187.6470  178.1650  137.4240 C   0  0  0  0  0  1  0  0  0  0  0  0
  186.0930  177.9370  139.3040 N   0  0  0  0  0  2  0  0  0  0  0  0
  184.8700  178.6770  139.3470 C   0  0  0  0  0  0  0  0  0  0  0  0
  184.8430  179.8920  139.0120 O   0  0  0  0  0  0  0  0  0  0  0  0
  183.6190  178.0170  139.8200 C   0  0  0  0  0  2  0  0  0  0  0  0
  182.6330  177.8480  138.6710 C   0  0  2  0  0  3  0  0  0  0  0  0
  181.7130  175.6530  138.2270 C   0  0  0  0  0  2  0  0  0  0  0  0
  184.3220  174.9830  136.7730 N   0  0  0  0  0  0  0  0  0  0  0  0
  183.8820  176.3190  137.0880 C   0  0  0  0  0  0  0  0  0  0  0  0
  181.2120  177.8310  139.2010 C   0  0  0  0  0  2  0  0  0  0  0  0
  182.8340  176.5540  138.0440 N   0  0  0  0  0  0  0  0  0  0  0  0
  185.9740  173.5540  135.7810 N   0  0  0  0  0  2  0  0  0  0  0  0
  184.0030  172.5660  136.9720 C   0  0  0  0  0  2  0  0  0  0  0  0
  185.1020  172.3780  135.9100 C   0  0  0  0  0  2  0  0  0  0  0  0
  184.1250  173.8920  137.7210 C   0  0  0  0  0  2  0  0  0  0  0  0
  185.1630  174.7560  135.5910 C   0  0  0  0  0  2  0  0  0  0  0  0
  184.4310  177.3040  136.5160 O   0  0  0  0  0  0  0  0  0  0  0  0
  180.7400  176.3820  139.1370 C   0  0  0  0  0  2  0  0  0  0  0  0
  192.0160  177.0010  139.4500 O   0  0  0  0  0  0  0  0  0  0  0  0
  191.7170  174.2960  136.8850 C   0  0  0  0  0  3  0  0  0  0  0  0
  192.7620  174.6510  136.0280 C   0  0  0  0  0  0  0  0  0  0  0  0
  193.2840  176.5390  137.4530 C   0  0  0  0  0  3  0  0  0  0  0  0
  191.4560  175.0630  138.0260 C   0  0  0  0  0  3  0  0  0  0  0  0
  192.2420  176.1900  138.3220 C   0  0  0  0  0  0  0  0  0  0  0  0
  193.5480  175.7700  136.3170 C   0  0  0  0  0  3  0  0  0  0  0  0
  192.6160  172.4560  135.0470 N   0  0  0  0  0  1  0  0  0  0  0  0
  193.0580  173.8230  134.8230 C   0  0  0  0  0  2  0  0  0  0  0  0
  1  6  1  0  0  0  0
  2 11  1  0  0  0  0
  2 12  1  0  0  0  0
  3 10  1  0  0  0  0
  4  8  2  0  0  0  0
  5  1  2  0  0  0  0
  7  9  2  0  0  0  0
  7  4  1  0  0  0  0
  8  1  1  0  0  0  0
  9  5  1  0  0  0  0
 10 11  2  0  0  0  0
 11  7  1  0  0  0  0
 12 15  2  0  0  0  0
 13  2  2  0  0  0  0
 14  3  2  0  0  0  0
 14 13  1  0  0  0  0
 15  4  1  0  0  0  0
 16 17  1  6  0  0  0
 16 18  1  0  0  0  0
 16  3  1  0  0  0  0
 18 19  1  0  0  0  0
 19 21  1  0  0  0  0
 20 19  2  0  0  0  0
 22 26  1  0  0  0  0
 22 21  1  1  0  0  0
 23 34  1  0  0  0  0
 24 25  1  0  0  0  0
 24 31  1  0  0  0  0
 25 27  1  0  0  0  0
 27 23  1  0  0  0  0
 27 22  1  0  0  0  0
 28 30  1  0  0  0  0
 29 31  1  0  0  0  0
 30 29  1  0  0  0  0
 32 28  1  0  0  0  0
 32 24  1  0  0  0  0
 33 25  2  0  0  0  0
 34 26  1  0  0  0  0
 35 13  1  0  0  0  0
 36 39  1  0  0  0  0
 37 41  1  0  0  0  0
 37 36  2  0  0  0  0
 38 40  1  0  0  0  0
 39 40  2  0  0  0  0
 40 35  1  0  0  0  0
 41 38  2  0  0  0  0
 43 42  1  0  0  0  0
 43 37  1  0  0  0  0
M  END
>  <MODEL>
6

>  <REMARK>
 VINA RESULT:      -8.2      2.915      4.167
  Name = 
  7 active torsions:
  status: ('A' for Active; 'I' for Inactive)
    1  A    between atoms: O_1  and  C_34
    2  A    between atoms: O_1  and  C_35
    3  A    between atoms: C_2  and  N_6
    4  A    between atoms: C_2  and  C_13
    5  A    between atoms: C_3  and  C_4
    6  A    between atoms: C_3  and  C_12
    7  A    between atoms: C_19  and  C_37
                            x       y       z     vdW  Elec       q    Type
                         _______ _______ _______ _____ _____    ______ ____

>  <TORSDO>
F 7

$$$$
=
 OpenBabel10272414033D

 43 48  0  0  1  0  0  0  0  0999 V2000
  185.6930  178.2680  145.4540 C   0  0  0  0  0  0  0  0  0  0  0  0
  187.0460  178.4290  140.6250 C   0  0  0  0  0  0  0  0  0  0  0  0
  189.7560  177.7130  140.4560 C   0  0  0  0  0  0  0  0  0  0  0  0
  185.7330  178.5050  143.0880 C   0  0  0  0  0  0  0  0  0  0  0  0
  187.0450  177.9080  145.4630 C   0  0  0  0  0  3  0  0  0  0  0  0
  184.9350  178.3370  146.7330 C   0  0  0  0  0  1  0  0  0  0  0  0
  187.0970  178.1420  143.0440 C   0  0  0  0  0  0  0  0  0  0  0  0
  185.0700  178.5560  144.2780 N   0  0  0  0  0  0  0  0  0  0  0  0
  187.7470  177.8450  144.2540 C   0  0  0  0  0  3  0  0  0  0  0  0
  189.1170  177.7420  141.7030 C   0  0  0  0  0  3  0  0  0  0  0  0
  187.7630  178.0970  141.8000 C   0  0  0  0  0  0  0  0  0  0  0  0
  185.7290  178.7740  140.7120 N   0  0  0  0  0  0  0  0  0  0  0  0
  187.6870  178.4120  139.3750 C   0  0  0  0  0  0  0  0  0  0  0  0
  189.0430  178.0540  139.3050 C   0  0  0  0  0  3  0  0  0  0  0  0
  185.0690  178.8170  141.9030 C   0  0  0  0  0  3  0  0  0  0  0  0
  191.1990  177.3450  140.3290 C   0  0  1  0  0  3  0  0  0  0  0  0
  191.7620  176.9000  141.6730 C   0  0  0  0  0  1  0  0  0  0  0  0
  191.3760  176.3000  139.3300 N   0  0  0  0  0  2  0  0  0  0  0  0
  192.5760  176.1740  138.5620 C   0  0  0  0  0  0  0  0  0  0  0  0
  193.5300  176.9820  138.7270 O   0  0  0  0  0  0  0  0  0  0  0  0
  192.6930  175.0990  137.5360 C   0  0  0  0  0  2  0  0  0  0  0  0
  194.1090  175.0440  136.9750 C   0  0  2  0  0  3  0  0  0  0  0  0
  194.5950  173.5140  135.1630 C   0  0  0  0  0  2  0  0  0  0  0  0
  194.7790  171.2840  137.2520 N   0  0  0  0  0  0  0  0  0  0  0  0
  194.8450  172.6920  137.5520 C   0  0  0  0  0  0  0  0  0  0  0  0
  194.1950  175.8580  135.6980 C   0  0  0  0  0  2  0  0  0  0  0  0
  194.4290  173.6800  136.5930 N   0  0  0  0  0  0  0  0  0  0  0  0
  194.8310  169.0190  138.0430 N   0  0  0  0  0  2  0  0  0  0  0  0
  194.4130  169.5000  135.6190 C   0  0  0  0  0  2  0  0  0  0  0  0
  194.9100  168.4930  136.6730 C   0  0  0  0  0  2  0  0  0  0  0  0
  193.8570  170.7810  136.2400 C   0  0  0  0  0  2  0  0  0  0  0  0
  195.4840  170.3260  138.1120 C   0  0  0  0  0  2  0  0  0  0  0  0
  195.2720  173.0670  138.6820 O   0  0  0  0  0  0  0  0  0  0  0  0
  194.2540  174.8590  134.5470 C   0  0  0  0  0  2  0  0  0  0  0  0
  186.9550  178.7890  138.2360 O   0  0  0  0  0  0  0  0  0  0  0  0
  186.4800  176.8110  135.0990 C   0  0  0  0  0  3  0  0  0  0  0  0
  185.2400  176.2230  135.3620 C   0  0  0  0  0  0  0  0  0  0  0  0
  185.1680  177.3470  137.5060 C   0  0  0  0  0  3  0  0  0  0  0  0
  187.0640  177.6660  136.0400 C   0  0  0  0  0  3  0  0  0  0  0  0
  186.4080  177.9450  137.2520 C   0  0  0  0  0  0  0  0  0  0  0  0
  184.5830  176.4970  136.5650 C   0  0  0  0  0  3  0  0  0  0  0  0
  183.5690  174.5280  134.9850 N   0  0  0  0  0  1  0  0  0  0  0  0
  184.6040  175.3290  134.3510 C   0  0  0  0  0  2  0  0  0  0  0  0
  1  5  1  0  0  0  0
  1  6  1  0  0  0  0
  2 12  1  0  0  0  0
  2 11  1  0  0  0  0
  3 10  1  0  0  0  0
  4  8  1  0  0  0  0
  7  4  2  0  0  0  0
  7  9  1  0  0  0  0
  8  1  2  0  0  0  0
  9  5  2  0  0  0  0
 10 11  2  0  0  0  0
 11  7  1  0  0  0  0
 12 15  2  0  0  0  0
 13  2  2  0  0  0  0
 14 13  1  0  0  0  0
 14  3  2  0  0  0  0
 15  4  1  0  0  0  0
 16  3  1  0  0  0  0
 16 17  1  1  0  0  0
 18 16  1  0  0  0  0
 19 20  2  0  0  0  0
 19 18  1  0  0  0  0
 21 19  1  0  0  0  0
 22 21  1  6  0  0  0
 23 27  1  0  0  0  0
 24 25  1  0  0  0  0
 24 32  1  0  0  0  0
 25 33  2  0  0  0  0
 26 22  1  0  0  0  0
 27 22  1  0  0  0  0
 27 25  1  0  0  0  0
 28 32  1  0  0  0  0
 29 31  1  0  0  0  0
 29 30  1  0  0  0  0
 30 28  1  0  0  0  0
 31 24  1  0  0  0  0
 34 23  1  0  0  0  0
 34 26  1  0  0  0  0
 35 13  1  0  0  0  0
 36 37  2  0  0  0  0
 36 39  1  0  0  0  0
 37 41  1  0  0  0  0
 39 40  2  0  0  0  0
 40 38  1  0  0  0  0
 40 35  1  0  0  0  0
 41 38  2  0  0  0  0
 43 42  1  0  0  0  0
 43 37  1  0  0  0  0
M  END
>  <MODEL>
7

>  <REMARK>
 VINA RESULT:      -8.0      5.104      9.055
  Name = 
  7 active torsions:
  status: ('A' for Active; 'I' for Inactive)
    1  A    between atoms: O_1  and  C_34
    2  A    between atoms: O_1  and  C_35
    3  A    between atoms: C_2  and  N_6
    4  A    between atoms: C_2  and  C_13
    5  A    between atoms: C_3  and  C_4
    6  A    between atoms: C_3  and  C_12
    7  A    between atoms: C_19  and  C_37
                            x       y       z     vdW  Elec       q    Type
                         _______ _______ _______ _____ _____    ______ ____

>  <TORSDO>
F 7

$$$$
=
 OpenBabel10272414033D

 43 48  0  0  1  0  0  0  0  0999 V2000
  188.9700  177.3650  146.4100 C   0  0  0  0  0  0  0  0  0  0  0  0
  185.9420  178.3300  142.5290 C   0  0  0  0  0  0  0  0  0  0  0  0
  187.4570  178.1340  140.1720 C   0  0  0  0  0  0  0  0  0  0  0  0
  187.1070  177.8810  145.0260 C   0  0  0  0  0  0  0  0  0  0  0  0
  189.8010  177.2530  145.2900 C   0  0  0  0  0  3  0  0  0  0  0  0
  189.5280  177.1470  147.7730 C   0  0  0  0  0  1  0  0  0  0  0  0
  187.9020  177.7750  143.8640 C   0  0  0  0  0  0  0  0  0  0  0  0
  187.6530  177.6730  146.2570 N   0  0  0  0  0  0  0  0  0  0  0  0
  189.2640  177.4590  144.0140 C   0  0  0  0  0  3  0  0  0  0  0  0
  188.0630  177.9030  141.4150 C   0  0  0  0  0  3  0  0  0  0  0  0
  187.3160  177.9960  142.5980 C   0  0  0  0  0  0  0  0  0  0  0  0
  185.2090  178.4220  143.6760 N   0  0  0  0  0  0  0  0  0  0  0  0
  185.3340  178.5740  141.2850 C   0  0  0  0  0  0  0  0  0  0  0  0
  186.1050  178.4750  140.1150 C   0  0  0  0  0  3  0  0  0  0  0  0
  185.7570  178.2060  144.9040 C   0  0  0  0  0  3  0  0  0  0  0  0
  188.2350  178.0480  138.8990 C   0  0  1  0  0  3  0  0  0  0  0  0
  189.7310  178.1420  139.1730 C   0  0  0  0  0  1  0  0  0  0  0  0
  187.9230  176.8130  138.1900 N   0  0  0  0  0  2  0  0  0  0  0  0
  187.2680  176.8090  136.9190 C   0  0  0  0  0  0  0  0  0  0  0  0
  186.9320  177.8920  136.3680 O   0  0  0  0  0  0  0  0  0  0  0  0
  186.9520  175.5150  136.2500 C   0  0  0  0  0  2  0  0  0  0  0  0
  187.3710  174.3410  137.1260 C   0  0  2  0  0  3  0  0  0  0  0  0
  187.5750  172.1440  136.1290 C   0  0  0  0  0  2  0  0  0  0  0  0
  184.5330  171.8930  136.3470 N   0  0  0  0  0  0  0  0  0  0  0  0
  185.3270  172.8500  137.0740 C   0  0  0  0  0  0  0  0  0  0  0  0
  188.8500  174.0560  136.9440 C   0  0  0  0  0  2  0  0  0  0  0  0
  186.6830  173.1390  136.6920 N   0  0  0  0  0  0  0  0  0  0  0  0
  182.3680  170.9730  135.8680 N   0  0  0  0  0  2  0  0  0  0  0  0
  184.3910  170.1450  134.6410 C   0  0  0  0  0  2  0  0  0  0  0  0
  182.9590  169.8520  135.1230 C   0  0  0  0  0  2  0  0  0  0  0  0
  184.8420  171.5710  134.9580 C   0  0  0  0  0  2  0  0  0  0  0  0
  183.2800  171.3980  136.9310 C   0  0  0  0  0  2  0  0  0  0  0  0
  184.8210  173.4520  138.0640 O   0  0  0  0  0  0  0  0  0  0  0  0
  188.9490  172.7910  136.0970 C   0  0  0  0  0  2  0  0  0  0  0  0
  183.9790  178.9450  141.2570 O   0  0  0  0  0  0  0  0  0  0  0  0
  181.8650  179.4010  138.2060 C   0  0  0  0  0  3  0  0  0  0  0  0
  181.2000  178.1730  138.1800 C   0  0  0  0  0  0  0  0  0  0  0  0
  182.3830  177.4950  140.1820 C   0  0  0  0  0  3  0  0  0  0  0  0
  182.7900  179.6760  139.2210 C   0  0  0  0  0  3  0  0  0  0  0  0
  183.0530  178.7240  140.2210 C   0  0  0  0  0  0  0  0  0  0  0  0
  181.4560  177.2230  139.1730 C   0  0  0  0  0  3  0  0  0  0  0  0
  180.2870  176.4900  136.7180 N   0  0  0  0  0  1  0  0  0  0  0  0
  180.1970  177.8860  137.1140 C   0  0  0  0  0  2  0  0  0  0  0  0
  1  6  1  0  0  0  0
  2 11  1  0  0  0  0
  2 12  1  0  0  0  0
  3 10  1  0  0  0  0
  4  8  2  0  0  0  0
  5  1  2  0  0  0  0
  7  9  2  0  0  0  0
  7  4  1  0  0  0  0
  8  1  1  0  0  0  0
  9  5  1  0  0  0  0
 10 11  2  0  0  0  0
 11  7  1  0  0  0  0
 12 15  2  0  0  0  0
 13  2  2  0  0  0  0
 14  3  2  0  0  0  0
 14 13  1  0  0  0  0
 15  4  1  0  0  0  0
 16 17  1  1  0  0  0
 16  3  1  0  0  0  0
 18 16  1  0  0  0  0
 19 18  1  0  0  0  0
 20 19  2  0  0  0  0
 21 19  1  0  0  0  0
 22 21  1  6  0  0  0
 23 27  1  0  0  0  0
 24 32  1  0  0  0  0
 24 25  1  0  0  0  0
 25 33  2  0  0  0  0
 26 22  1  0  0  0  0
 27 25  1  0  0  0  0
 27 22  1  0  0  0  0
 28 32  1  0  0  0  0
 29 31  1  0  0  0  0
 29 30  1  0  0  0  0
 30 28  1  0  0  0  0
 31 24  1  0  0  0  0
 34 23  1  0  0  0  0
 34 26  1  0  0  0  0
 35 13  1  0  0  0  0
 36 39  1  0  0  0  0
 37 36  2  0  0  0  0
 37 41  1  0  0  0  0
 38 40  1  0  0  0  0
 39 40  2  0  0  0  0
 40 35  1  0  0  0  0
 41 38  2  0  0  0  0
 42 43  1  0  0  0  0
 43 37  1  0  0  0  0
M  END
>  <MODEL>
8

>  <REMARK>
 VINA RESULT:      -7.9      2.467      5.628
  Name = 
  7 active torsions:
  status: ('A' for Active; 'I' for Inactive)
    1  A    between atoms: O_1  and  C_34
    2  A    between atoms: O_1  and  C_35
    3  A    between atoms: C_2  and  N_6
    4  A    between atoms: C_2  and  C_13
    5  A    between atoms: C_3  and  C_4
    6  A    between atoms: C_3  and  C_12
    7  A    between atoms: C_19  and  C_37
                            x       y       z     vdW  Elec       q    Type
                         _______ _______ _______ _____ _____    ______ ____

>  <TORSDO>
F 7

$$$$
=
 OpenBabel10272414033D

 43 48  0  0  1  0  0  0  0  0999 V2000
  191.5870  176.6410  138.6620 C   0  0  0  0  0  0  0  0  0  0  0  0
  186.8360  176.4050  137.0690 C   0  0  0  0  0  0  0  0  0  0  0  0
  185.3250  178.2440  138.5600 C   0  0  0  0  0  0  0  0  0  0  0  0
  189.5750  176.1030  137.5150 C   0  0  0  0  0  0  0  0  0  0  0  0
  190.9110  177.5750  139.4560 C   0  0  0  0  0  3  0  0  0  0  0  0
  193.0470  176.4230  138.8520 C   0  0  0  0  0  1  0  0  0  0  0  0
  188.8490  177.0360  138.2860 C   0  0  0  0  0  0  0  0  0  0  0  0
  190.9120  175.9320  137.7160 N   0  0  0  0  0  0  0  0  0  0  0  0
  189.5390  177.7720  139.2650 C   0  0  0  0  0  3  0  0  0  0  0  0
  186.6990  178.1110  138.8000 C   0  0  0  0  0  3  0  0  0  0  0  0
  187.4640  177.1960  138.0600 C   0  0  0  0  0  0  0  0  0  0  0  0
  187.5740  175.5150  136.3450 N   0  0  0  0  0  0  0  0  0  0  0  0
  185.4550  176.5290  136.8340 C   0  0  0  0  0  0  0  0  0  0  0  0
  184.7120  177.4500  137.5890 C   0  0  0  0  0  3  0  0  0  0  0  0
  188.9110  175.3520  136.5450 C   0  0  0  0  0  3  0  0  0  0  0  0
  184.4880  179.2050  139.3410 C   0  0  1  0  0  3  0  0  0  0  0  0
  183.0980  178.6340  139.5880 C   0  0  0  0  0  1  0  0  0  0  0  0
  185.1350  179.5380  140.6040 N   0  0  0  0  0  2  0  0  0  0  0  0
  184.9480  178.7550  141.7860 C   0  0  0  0  0  0  0  0  0  0  0  0
  184.2000  177.7410  141.7710 O   0  0  0  0  0  0  0  0  0  0  0  0
  185.6170  179.1570  143.0570 C   0  0  0  0  0  2  0  0  0  0  0  0
  185.5340  178.0350  144.0840 C   0  0  2  0  0  3  0  0  0  0  0  0
  187.0160  178.0830  145.9980 C   0  0  0  0  0  2  0  0  0  0  0  0
  189.2080  176.9600  144.1810 N   0  0  0  0  0  0  0  0  0  0  0  0
  187.7990  176.9240  143.8790 C   0  0  0  0  0  0  0  0  0  0  0  0
  184.7210  178.4840  145.2830 C   0  0  0  0  0  2  0  0  0  0  0  0
  186.8610  177.7450  144.5970 N   0  0  0  0  0  0  0  0  0  0  0  0
  191.4530  176.4190  143.5300 N   0  0  0  0  0  2  0  0  0  0  0  0
  191.0270  177.7140  145.6320 C   0  0  0  0  0  2  0  0  0  0  0  0
  191.9740  176.7830  144.8550 C   0  0  0  0  0  2  0  0  0  0  0  0
  189.8040  178.1300  144.8150 C   0  0  0  0  0  2  0  0  0  0  0  0
  190.0880  175.9080  143.6560 C   0  0  0  0  0  2  0  0  0  0  0  0
  187.3790  176.1610  142.9630 O   0  0  0  0  0  0  0  0  0  0  0  0
  185.7140  178.7450  146.4110 C   0  0  0  0  0  2  0  0  0  0  0  0
  184.8570  175.6970  135.8720 O   0  0  0  0  0  0  0  0  0  0  0  0
  183.9850  172.3570  137.3100 C   0  0  0  0  0  3  0  0  0  0  0  0
  183.9020  171.5970  136.1400 C   0  0  0  0  0  0  0  0  0  0  0  0
  184.4540  173.5600  134.8330 C   0  0  0  0  0  3  0  0  0  0  0  0
  184.3030  173.7180  137.2410 C   0  0  0  0  0  3  0  0  0  0  0  0
  184.5440  174.3300  135.9990 C   0  0  0  0  0  0  0  0  0  0  0  0
  184.1420  172.2010  134.9030 C   0  0  0  0  0  3  0  0  0  0  0  0
  182.5750  169.8090  135.2230 N   0  0  0  0  0  1  0  0  0  0  0  0
  183.5870  170.1410  136.2120 C   0  0  0  0  0  2  0  0  0  0  0  0
  1  6  1  0  0  0  0
  1  5  1  0  0  0  0
  2 11  1  0  0  0  0
  3 10  1  0  0  0  0
  3 16  1  0  0  0  0
  4  8  1  0  0  0  0
  4  7  2  0  0  0  0
  7  9  1  0  0  0  0
  8  1  2  0  0  0  0
  9  5  2  0  0  0  0
 11  7  1  0  0  0  0
 11 10  2  0  0  0  0
 12 15  2  0  0  0  0
 12  2  1  0  0  0  0
 13  2  2  0  0  0  0
 13 14  1  0  0  0  0
 14  3  2  0  0  0  0
 15  4  1  0  0  0  0
 16 17  1  1  0  0  0
 16 18  1  0  0  0  0
 18 19  1  0  0  0  0
 19 21  1  0  0  0  0
 20 19  2  0  0  0  0
 22 21  1  6  0  0  0
 22 27  1  0  0  0  0
 22 26  1  0  0  0  0
 23 34  1  0  0  0  0
 24 31  1  0  0  0  0
 25 24  1  0  0  0  0
 25 27  1  0  0  0  0
 26 34  1  0  0  0  0
 27 23  1  0  0  0  0
 28 32  1  0  0  0  0
 28 30  1  0  0  0  0
 30 29  1  0  0  0  0
 31 29  1  0  0  0  0
 32 24  1  0  0  0  0
 33 25  2  0  0  0  0
 35 40  1  0  0  0  0
 35 13  1  0  0  0  0
 37 43  1  0  0  0  0
 37 36  2  0  0  0  0
 38 41  2  0  0  0  0
 38 40  1  0  0  0  0
 39 36  1  0  0  0  0
 40 39  2  0  0  0  0
 41 37  1  0  0  0  0
 42 43  1  0  0  0  0
M  END
>  <MODEL>
9

>  <REMARK>
 VINA RESULT:      -7.9      2.545      7.465
  Name = 
  7 active torsions:
  status: ('A' for Active; 'I' for Inactive)
    1  A    between atoms: O_1  and  C_34
    2  A    between atoms: O_1  and  C_35
    3  A    between atoms: C_2  and  N_6
    4  A    between atoms: C_2  and  C_13
    5  A    between atoms: C_3  and  C_4
    6  A    between atoms: C_3  and  C_12
    7  A    between atoms: C_19  and  C_37
                            x       y       z     vdW  Elec       q    Type
                         _______ _______ _______ _____ _____    ______ ____

>  <TORSDO>
F 7

$$$$
