=
 OpenBabel10272413573D

 30 34  0  0  1  0  0  0  0  0999 V2000
  187.6720  178.3900  140.1910 C   0  0  1  0  0  3  0  0  0  0  0  0
  185.3880  178.0120  138.0260 C   0  0  0  0  0  2  0  0  0  0  0  0
  186.6230  178.7370  140.9570 C   0  0  2  0  0  3  0  0  0  0  0  0
  188.7950  177.5450  140.7620 C   0  0  0  0  0  2  0  0  0  0  0  0
  187.5460  177.0170  144.2540 C   0  0  0  0  0  2  0  0  0  0  0  0
  187.5240  177.6530  142.9190 C   0  0  0  0  0  0  0  0  0  0  0  0
  189.6740  176.7350  143.0200 C   0  0  0  0  0  2  0  0  0  0  0  0
  183.6140  178.6940  141.3280 O   0  0  0  0  0  0  0  0  0  0  0  0
  184.4340  177.7160  139.1910 C   0  0  2  0  0  3  0  0  0  0  0  0
  188.7440  177.5080  142.2240 N   0  0  0  0  0  0  0  0  0  0  0  0
  186.4670  178.2140  142.3270 C   0  0  0  0  0  0  0  0  0  0  0  0
  184.1590  177.6500  141.9440 O   0  0  0  0  0  0  0  0  0  0  0  0
  189.7100  177.2170  145.4640 C   0  0  0  0  0  1  0  0  0  0  0  0
  186.6580  177.4550  138.2620 O   0  0  0  0  0  0  0  0  0  0  0  0
  188.9750  176.4790  144.3640 C   0  0  1  0  0  3  0  0  0  0  0  0
  187.4890  178.5040  138.6960 C   0  0  2  0  0  3  0  0  0  0  0  0
  185.6000  179.5020  140.4000 O   0  0  0  0  0  0  0  0  0  0  0  0
  183.1710  177.4080  138.6870 O   0  0  0  0  0  1  0  0  0  0  0  0
  184.3270  178.9340  140.1290 C   0  0  2  0  0  3  0  0  0  0  0  0
  185.0880  178.1150  142.9140 C   0  0  2  0  0  3  0  0  0  0  0  0
  188.8140  178.5000  137.9320 C   0  0  2  0  0  3  0  0  0  0  0  0
  189.0030  179.7340  137.3040 O   0  0  0  0  0  1  0  0  0  0  0  0
  188.8130  177.3980  136.8840 C   0  0  0  0  0  2  0  0  0  0  0  0
  189.6650  176.2300  137.3450 C   0  0  0  0  0  3  0  0  0  0  0  0
  191.0280  176.7470  137.7570 C   0  0  0  0  0  2  0  0  0  0  0  0
  190.8470  176.0790  136.4110 C   0  0  0  0  0  2  0  0  0  0  0  0
  184.6570  179.3270  143.6950 C   0  0  0  0  0  0  0  0  0  0  0  0
  185.0380  180.4790  143.3490 O   0  0  0  0  0  0  0  0  0  0  0  0
  184.2050  178.6830  146.0080 C   0  0  0  0  0  2  0  0  0  0  0  0
  183.7660  179.1470  144.8450 C   0  0  0  0  0  3  0  0  0  0  0  0
  1  4  1  6  0  0  0
  1  3  1  0  0  0  0
  2 14  1  0  0  0  0
  2  9  1  0  0  0  0
  3 17  1  6  0  0  0
  3 11  1  0  0  0  0
  4 10  1  0  0  0  0
  5 15  1  0  0  0  0
  6  5  1  0  0  0  0
  7 15  1  0  0  0  0
  8 12  1  0  0  0  0
  9 18  1  6  0  0  0
  9 19  1  0  0  0  0
 10  6  1  0  0  0  0
 10  7  1  0  0  0  0
 11 20  1  0  0  0  0
 11  6  2  0  0  0  0
 12 20  1  0  0  0  0
 14 16  1  0  0  0  0
 15 13  1  1  0  0  0
 16 21  1  6  0  0  0
 16  1  1  0  0  0  0
 19 17  1  1  0  0  0
 19  8  1  0  0  0  0
 20 27  1  6  0  0  0
 21 22  1  6  0  0  0
 23 24  1  0  0  0  0
 23 21  1  0  0  0  0
 24 25  1  0  0  0  0
 26 24  1  0  0  0  0
 26 25  1  0  0  0  0
 27 30  1  0  0  0  0
 28 27  2  0  0  0  0
 30 29  2  0  0  0  0
M  END
>  <MODEL>
1

>  <REMARK>
 VINA RESULT:      -7.7      0.000      0.000
  Name = 
  5 active torsions:
  status: ('A' for Active; 'I' for Inactive)
    1  A    between atoms: C_2  and  C_14
    2  A    between atoms: C_2  and  C_22
    3  A    between atoms: C_7  and  C_26
    4  A    between atoms: C_7  and  C_30
    5  A    between atoms: C_14  and  C_20
                            x       y       z     vdW  Elec       q    Type
                         _______ _______ _______ _____ _____    ______ ____

>  <TORSDO>
F 5

$$$$
=
 OpenBabel10272413573D

 30 34  0  0  1  0  0  0  0  0999 V2000
  188.2190  178.5030  141.0040 C   0  0  1  0  0  3  0  0  0  0  0  0
  190.7780  176.6680  140.6460 C   0  0  0  0  0  2  0  0  0  0  0  0
  188.2370  178.4610  139.6610 C   0  0  2  0  0  3  0  0  0  0  0  0
  186.9050  178.4230  141.7580 C   0  0  0  0  0  2  0  0  0  0  0  0
  184.4990  178.0810  138.9070 C   0  0  0  0  0  2  0  0  0  0  0  0
  185.8300  178.3490  139.4960 C   0  0  0  0  0  0  0  0  0  0  0  0
  184.3930  178.5940  141.3270 C   0  0  0  0  0  2  0  0  0  0  0  0
  189.2760  177.0800  137.1690 O   0  0  0  0  0  0  0  0  0  0  0  0
  190.1650  176.1970  139.3200 C   0  0  2  0  0  3  0  0  0  0  0  0
  185.7660  178.6600  140.8720 N   0  0  0  0  0  0  0  0  0  0  0  0
  187.0080  178.2130  138.8840 C   0  0  0  0  0  0  0  0  0  0  0  0
  188.1000  176.5640  137.5130 O   0  0  0  0  0  0  0  0  0  0  0  0
  182.6670  179.5170  139.7850 C   0  0  0  0  0  1  0  0  0  0  0  0
  189.7850  176.8350  141.6280 O   0  0  0  0  0  0  0  0  0  0  0  0
  183.5420  178.3150  140.0790 C   0  0  1  0  0  3  0  0  0  0  0  0
  189.5220  178.2160  141.7110 C   0  0  2  0  0  3  0  0  0  0  0  0
  189.4610  178.5230  138.9960 O   0  0  0  0  0  0  0  0  0  0  0  0
  190.9930  175.2360  138.7420 O   0  0  0  0  0  1  0  0  0  0  0  0
  190.0000  177.3810  138.3470 C   0  0  2  0  0  3  0  0  0  0  0  0
  187.1220  177.5950  137.5190 C   0  0  2  0  0  3  0  0  0  0  0  0
  189.5260  178.6830  143.1670 C   0  0  2  0  0  3  0  0  0  0  0  0
  190.7950  179.1590  143.5080 O   0  0  0  0  0  1  0  0  0  0  0  0
  189.1570  177.5320  144.0900 C   0  0  0  0  0  2  0  0  0  0  0  0
  188.9510  178.0360  145.5050 C   0  0  0  0  0  3  0  0  0  0  0  0
  189.1550  176.8890  146.4730 C   0  0  0  0  0  2  0  0  0  0  0  0
  187.7540  177.3350  146.1130 C   0  0  0  0  0  2  0  0  0  0  0  0
  187.2230  178.5900  136.3940 C   0  0  0  0  0  0  0  0  0  0  0  0
  187.5560  179.7850  136.6250 O   0  0  0  0  0  0  0  0  0  0  0  0
  185.9260  177.3550  134.7330 C   0  0  0  0  0  2  0  0  0  0  0  0
  186.9570  178.1380  135.0260 C   0  0  0  0  0  3  0  0  0  0  0  0
  1 16  1  0  0  0  0
  1  4  1  1  0  0  0
  2 14  1  0  0  0  0
  3 11  1  1  0  0  0
  3  1  1  0  0  0  0
  5  6  1  0  0  0  0
  5 15  1  0  0  0  0
  6 10  1  0  0  0  0
  8 12  1  0  0  0  0
  9 18  1  6  0  0  0
  9  2  1  0  0  0  0
 10  7  1  0  0  0  0
 10  4  1  0  0  0  0
 11  6  2  0  0  0  0
 12 20  1  0  0  0  0
 14 16  1  0  0  0  0
 15 13  1  6  0  0  0
 15  7  1  0  0  0  0
 16 21  1  1  0  0  0
 17  3  1  0  0  0  0
 19  8  1  6  0  0  0
 19 17  1  0  0  0  0
 19  9  1  0  0  0  0
 20 27  1  6  0  0  0
 20 11  1  0  0  0  0
 21 22  1  1  0  0  0
 21 23  1  0  0  0  0
 23 24  1  0  0  0  0
 24 26  1  0  0  0  0
 24 25  1  0  0  0  0
 26 25  1  0  0  0  0
 27 28  2  0  0  0  0
 29 30  2  0  0  0  0
 30 27  1  0  0  0  0
M  END
>  <MODEL>
2

>  <REMARK>
 VINA RESULT:      -7.0      2.817      6.687
  Name = 
  5 active torsions:
  status: ('A' for Active; 'I' for Inactive)
    1  A    between atoms: C_2  and  C_14
    2  A    between atoms: C_2  and  C_22
    3  A    between atoms: C_7  and  C_26
    4  A    between atoms: C_7  and  C_30
    5  A    between atoms: C_14  and  C_20
                            x       y       z     vdW  Elec       q    Type
                         _______ _______ _______ _____ _____    ______ ____

>  <TORSDO>
F 5

$$$$
=
 OpenBabel10272413573D

 30 34  0  0  1  0  0  0  0  0999 V2000
  185.4850  178.6250  140.8810 C   0  0  1  0  0  3  0  0  0  0  0  0
  187.9260  177.7450  142.7010 C   0  0  0  0  0  2  0  0  0  0  0  0
  186.4380  178.6180  139.9330 C   0  0  2  0  0  3  0  0  0  0  0  0
  184.0940  178.1000  140.5790 C   0  0  0  0  0  2  0  0  0  0  0  0
  184.5240  177.0400  137.0120 C   0  0  0  0  0  2  0  0  0  0  0  0
  184.9500  177.7200  138.2540 C   0  0  0  0  0  0  0  0  0  0  0  0
  182.6490  177.4410  138.5780 C   0  0  0  0  0  2  0  0  0  0  0  0
  189.2120  177.7070  139.1150 O   0  0  0  0  0  0  0  0  0  0  0  0
  188.5470  177.1250  141.4420 C   0  0  2  0  0  3  0  0  0  0  0  0
  183.8770  177.9660  139.1380 N   0  0  0  0  0  0  0  0  0  0  0  0
  186.2050  177.9940  138.6160 C   0  0  0  0  0  0  0  0  0  0  0  0
  188.3080  176.8250  138.7010 O   0  0  0  0  0  0  0  0  0  0  0  0
  182.3160  177.7720  136.1310 C   0  0  0  0  0  1  0  0  0  0  0  0
  186.5320  177.5560  142.7200 O   0  0  0  0  0  0  0  0  0  0  0  0
  183.0070  176.9210  137.1770 C   0  0  1  0  0  3  0  0  0  0  0  0
  185.9500  178.7700  142.3110 C   0  0  2  0  0  3  0  0  0  0  0  0
  187.7100  179.0940  140.2450 O   0  0  0  0  0  0  0  0  0  0  0  0
  189.7490  176.5040  141.7770 O   0  0  0  0  0  1  0  0  0  0  0  0
  188.8100  178.2070  140.3770 C   0  0  2  0  0  3  0  0  0  0  0  0
  187.3820  177.4760  137.8400 C   0  0  2  0  0  3  0  0  0  0  0  0
  184.8280  179.1830  143.2640 C   0  0  2  0  0  3  0  0  0  0  0  0
  184.9990  180.5160  143.6480 O   0  0  0  0  0  1  0  0  0  0  0  0
  184.8360  178.2990  144.5010 C   0  0  0  0  0  2  0  0  0  0  0  0
  185.5220  179.0090  145.6520 C   0  0  0  0  0  3  0  0  0  0  0  0
  186.5100  178.0610  146.2990 C   0  0  0  0  0  2  0  0  0  0  0  0
  185.1660  178.3120  146.9490 C   0  0  0  0  0  2  0  0  0  0  0  0
  187.9790  178.4700  136.8810 C   0  0  0  0  0  0  0  0  0  0  0  0
  187.6000  179.6740  136.8900 O   0  0  0  0  0  0  0  0  0  0  0  0
  188.8130  177.0580  135.0700 C   0  0  0  0  0  2  0  0  0  0  0  0
  189.0250  178.0210  135.9580 C   0  0  0  0  0  3  0  0  0  0  0  0
  1  4  1  1  0  0  0
  1 16  1  0  0  0  0
  2 14  1  0  0  0  0
  3 11  1  1  0  0  0
  3 17  1  0  0  0  0
  3  1  1  0  0  0  0
  5 15  1  0  0  0  0
  5  6  1  0  0  0  0
  6 11  2  0  0  0  0
  6 10  1  0  0  0  0
  7 10  1  0  0  0  0
  9 18  1  1  0  0  0
  9  2  1  0  0  0  0
 10  4  1  0  0  0  0
 12  8  1  0  0  0  0
 15 13  1  6  0  0  0
 15  7  1  0  0  0  0
 16 14  1  0  0  0  0
 16 21  1  1  0  0  0
 17 19  1  0  0  0  0
 19  8  1  6  0  0  0
 19  9  1  0  0  0  0
 20 27  1  1  0  0  0
 20 11  1  0  0  0  0
 20 12  1  0  0  0  0
 21 22  1  1  0  0  0
 21 23  1  0  0  0  0
 23 24  1  0  0  0  0
 24 25  1  0  0  0  0
 24 26  1  0  0  0  0
 25 26  1  0  0  0  0
 27 28  2  0  0  0  0
 29 30  2  0  0  0  0
 30 27  1  0  0  0  0
M  END
>  <MODEL>
3

>  <REMARK>
 VINA RESULT:      -6.8      2.220      7.302
  Name = 
  5 active torsions:
  status: ('A' for Active; 'I' for Inactive)
    1  A    between atoms: C_2  and  C_14
    2  A    between atoms: C_2  and  C_22
    3  A    between atoms: C_7  and  C_26
    4  A    between atoms: C_7  and  C_30
    5  A    between atoms: C_14  and  C_20
                            x       y       z     vdW  Elec       q    Type
                         _______ _______ _______ _____ _____    ______ ____

>  <TORSDO>
F 5

$$$$
=
 OpenBabel10272413573D

 30 34  0  0  1  0  0  0  0  0999 V2000
  187.9550  178.1830  140.6040 C   0  0  1  0  0  3  0  0  0  0  0  0
  188.7130  176.5340  138.0050 C   0  0  0  0  0  2  0  0  0  0  0  0
  186.8960  178.5200  139.8480 C   0  0  2  0  0  3  0  0  0  0  0  0
  187.7830  177.8870  142.0820 C   0  0  0  0  0  2  0  0  0  0  0  0
  184.0830  178.3490  142.4440 C   0  0  0  0  0  2  0  0  0  0  0  0
  185.3670  178.4470  141.7170 C   0  0  0  0  0  0  0  0  0  0  0  0
  186.0490  178.1610  143.9380 C   0  0  0  0  0  2  0  0  0  0  0  0
  185.2070  177.8990  137.4070 O   0  0  0  0  0  0  0  0  0  0  0  0
  187.2100  176.4520  137.7070 C   0  0  2  0  0  3  0  0  0  0  0  0
  186.4880  178.3590  142.5720 N   0  0  0  0  0  0  0  0  0  0  0  0
  185.5250  178.4950  140.3930 C   0  0  0  0  0  0  0  0  0  0  0  0
  184.6900  177.3020  138.4760 O   0  0  0  0  0  0  0  0  0  0  0  0
  184.0580  179.4720  144.6640 C   0  0  0  0  0  1  0  0  0  0  0  0
  188.9600  176.4150  139.3850 O   0  0  0  0  0  0  0  0  0  0  0  0
  184.5140  178.2400  143.9090 C   0  0  1  0  0  3  0  0  0  0  0  0
  189.1900  177.7150  139.8720 C   0  0  2  0  0  3  0  0  0  0  0  0
  187.0840  178.7720  138.4900 O   0  0  0  0  0  0  0  0  0  0  0  0
  187.0080  175.6960  136.5540 O   0  0  0  0  0  1  0  0  0  0  0  0
  186.6180  177.8610  137.5060 C   0  0  2  0  0  3  0  0  0  0  0  0
  184.3730  178.2860  139.4520 C   0  0  2  0  0  3  0  0  0  0  0  0
  190.4480  177.7540  140.7410 C   0  0  2  0  0  3  0  0  0  0  0  0
  191.5830  177.5950  139.9400 O   0  0  0  0  0  1  0  0  0  0  0  0
  190.4060  176.6420  141.7780 C   0  0  0  0  0  2  0  0  0  0  0  0
  191.3370  176.9620  142.9320 C   0  0  0  0  0  3  0  0  0  0  0  0
  191.5650  175.7060  143.7460 C   0  0  0  0  0  2  0  0  0  0  0  0
  190.5980  176.7610  144.2380 C   0  0  0  0  0  2  0  0  0  0  0  0
  183.7700  179.5570  138.9180 C   0  0  0  0  0  0  0  0  0  0  0  0
  184.4550  180.6150  138.8600 O   0  0  0  0  0  0  0  0  0  0  0  0
  181.6790  180.6470  138.2800 C   0  0  0  0  0  2  0  0  0  0  0  0
  182.3840  179.5350  138.4400 C   0  0  0  0  0  3  0  0  0  0  0  0
  1  4  1  1  0  0  0
  2 14  1  0  0  0  0
  3 17  1  6  0  0  0
  3 11  1  0  0  0  0
  3  1  1  0  0  0  0
  4 10  1  0  0  0  0
  5 15  1  0  0  0  0
  6  5  1  0  0  0  0
  6 10  1  0  0  0  0
  8 12  1  0  0  0  0
  9 18  1  6  0  0  0
  9  2  1  0  0  0  0
 10  7  1  0  0  0  0
 11  6  2  0  0  0  0
 12 20  1  0  0  0  0
 14 16  1  0  0  0  0
 15  7  1  0  0  0  0
 15 13  1  1  0  0  0
 16  1  1  0  0  0  0
 16 21  1  1  0  0  0
 19  8  1  1  0  0  0
 19  9  1  0  0  0  0
 19 17  1  0  0  0  0
 20 27  1  6  0  0  0
 20 11  1  0  0  0  0
 21 22  1  6  0  0  0
 21 23  1  0  0  0  0
 23 24  1  0  0  0  0
 24 25  1  0  0  0  0
 24 26  1  0  0  0  0
 25 26  1  0  0  0  0
 28 27  2  0  0  0  0
 29 30  2  0  0  0  0
 30 27  1  0  0  0  0
M  END
>  <MODEL>
4

>  <REMARK>
 VINA RESULT:      -6.8      1.921      4.418
  Name = 
  5 active torsions:
  status: ('A' for Active; 'I' for Inactive)
    1  A    between atoms: C_2  and  C_14
    2  A    between atoms: C_2  and  C_22
    3  A    between atoms: C_7  and  C_26
    4  A    between atoms: C_7  and  C_30
    5  A    between atoms: C_14  and  C_20
                            x       y       z     vdW  Elec       q    Type
                         _______ _______ _______ _____ _____    ______ ____

>  <TORSDO>
F 5

$$$$
=
 OpenBabel10272413573D

 30 34  0  0  1  0  0  0  0  0999 V2000
  188.4660  177.2570  142.1170 C   0  0  1  0  0  3  0  0  0  0  0  0
  191.5900  177.6630  142.4710 C   0  0  0  0  0  2  0  0  0  0  0  0
  188.5230  177.1470  143.4560 C   0  0  2  0  0  3  0  0  0  0  0  0
  187.3280  178.0090  141.4540 C   0  0  0  0  0  2  0  0  0  0  0  0
  185.3990  179.1220  144.4660 C   0  0  0  0  0  2  0  0  0  0  0  0
  186.4440  178.3360  143.7770 C   0  0  0  0  0  0  0  0  0  0  0  0
  185.0300  178.9680  142.0230 C   0  0  0  0  0  2  0  0  0  0  0  0
  190.1220  177.6310  145.9860 O   0  0  0  0  0  0  0  0  0  0  0  0
  191.2850  178.2230  143.8670 C   0  0  2  0  0  3  0  0  0  0  0  0
  186.2220  178.2320  142.3860 N   0  0  0  0  0  0  0  0  0  0  0  0
  187.5610  177.8500  144.3250 C   0  0  0  0  0  0  0  0  0  0  0  0
  189.3140  178.6620  145.7600 O   0  0  0  0  0  0  0  0  0  0  0  0
  183.0970  178.7890  143.5850 C   0  0  0  0  0  1  0  0  0  0  0  0
  190.6170  178.0730  141.5410 O   0  0  0  0  0  0  0  0  0  0  0  0
  184.4240  179.4770  143.3410 C   0  0  1  0  0  3  0  0  0  0  0  0
  189.7440  176.9840  141.3580 C   0  0  2  0  0  3  0  0  0  0  0  0
  189.5890  176.4620  144.0360 O   0  0  0  0  0  0  0  0  0  0  0  0
  192.4730  178.6300  144.4710 O   0  0  0  0  0  1  0  0  0  0  0  0
  190.6050  177.1550  144.7440 C   0  0  2  0  0  3  0  0  0  0  0  0
  187.9690  178.2020  145.7270 C   0  0  2  0  0  3  0  0  0  0  0  0
  189.5080  176.7210  139.8710 C   0  0  2  0  0  3  0  0  0  0  0  0
  190.4460  175.7990  139.3980 O   0  0  0  0  0  1  0  0  0  0  0  0
  189.6330  178.0140  139.0810 C   0  0  0  0  0  2  0  0  0  0  0  0
  188.6330  178.0350  137.9410 C   0  0  0  0  0  3  0  0  0  0  0  0
  189.3570  177.7390  136.6440 C   0  0  0  0  0  2  0  0  0  0  0  0
  188.9820  179.1640  136.9930 C   0  0  0  0  0  2  0  0  0  0  0  0
  187.6150  177.1620  146.7550 C   0  0  0  0  0  0  0  0  0  0  0  0
  186.7110  176.3130  146.5220 O   0  0  0  0  0  0  0  0  0  0  0  0
  188.1560  178.0390  148.9710 C   0  0  0  0  0  2  0  0  0  0  0  0
  188.3580  177.1370  148.0180 C   0  0  0  0  0  3  0  0  0  0  0  0
  1  4  1  1  0  0  0
  1  3  1  0  0  0  0
  2  9  1  0  0  0  0
  3 17  1  1  0  0  0
  3 11  1  0  0  0  0
  4 10  1  0  0  0  0
  6 11  2  0  0  0  0
  6  5  1  0  0  0  0
  7 10  1  0  0  0  0
  7 15  1  0  0  0  0
  9 18  1  1  0  0  0
  9 19  1  0  0  0  0
 10  6  1  0  0  0  0
 11 20  1  0  0  0  0
 12  8  1  0  0  0  0
 14  2  1  0  0  0  0
 15 13  1  1  0  0  0
 15  5  1  0  0  0  0
 16 21  1  6  0  0  0
 16 14  1  0  0  0  0
 16  1  1  0  0  0  0
 19 17  1  6  0  0  0
 19  8  1  0  0  0  0
 20 12  1  0  0  0  0
 20 27  1  1  0  0  0
 21 22  1  6  0  0  0
 23 21  1  0  0  0  0
 24 23  1  0  0  0  0
 25 26  1  0  0  0  0
 25 24  1  0  0  0  0
 26 24  1  0  0  0  0
 27 30  1  0  0  0  0
 28 27  2  0  0  0  0
 30 29  2  0  0  0  0
M  END
>  <MODEL>
5

>  <REMARK>
 VINA RESULT:      -6.7      3.198      5.291
  Name = 
  5 active torsions:
  status: ('A' for Active; 'I' for Inactive)
    1  A    between atoms: C_2  and  C_14
    2  A    between atoms: C_2  and  C_22
    3  A    between atoms: C_7  and  C_26
    4  A    between atoms: C_7  and  C_30
    5  A    between atoms: C_14  and  C_20
                            x       y       z     vdW  Elec       q    Type
                         _______ _______ _______ _____ _____    ______ ____

>  <TORSDO>
F 5

$$$$
=
 OpenBabel10272413573D

 30 34  0  0  1  0  0  0  0  0999 V2000
  186.5140  178.2630  142.8340 C   0  0  1  0  0  3  0  0  0  0  0  0
  188.8850  176.5370  144.0370 C   0  0  0  0  0  2  0  0  0  0  0  0
  187.3830  178.3970  141.8170 C   0  0  2  0  0  3  0  0  0  0  0  0
  185.0360  178.0610  142.5620 C   0  0  0  0  0  2  0  0  0  0  0  0
  185.0260  178.0500  138.8160 C   0  0  0  0  0  2  0  0  0  0  0  0
  185.6490  178.2630  140.1400 C   0  0  0  0  0  0  0  0  0  0  0  0
  183.3630  178.2420  140.6400 C   0  0  0  0  0  2  0  0  0  0  0  0
  189.8920  177.3710  140.4590 O   0  0  0  0  0  0  0  0  0  0  0  0
  189.2990  176.2320  142.5910 C   0  0  2  0  0  3  0  0  0  0  0  0
  184.6990  178.3910  141.1770 N   0  0  0  0  0  0  0  0  0  0  0  0
  186.9550  178.2300  140.4150 C   0  0  0  0  0  0  0  0  0  0  0  0
  188.8220  176.7930  139.9230 O   0  0  0  0  0  0  0  0  0  0  0  0
  182.9240  179.3250  138.4390 C   0  0  0  0  0  1  0  0  0  0  0  0
  187.4840  176.5570  144.1650 O   0  0  0  0  0  0  0  0  0  0  0  0
  183.5270  178.1120  139.1170 C   0  0  1  0  0  3  0  0  0  0  0  0
  187.0960  177.9100  144.1830 C   0  0  2  0  0  3  0  0  0  0  0  0
  188.7370  178.5670  142.0990 O   0  0  0  0  0  0  0  0  0  0  0  0
  190.3940  175.3700  142.5960 O   0  0  0  0  0  1  0  0  0  0  0  0
  189.6730  177.5290  141.8480 C   0  0  2  0  0  3  0  0  0  0  0  0
  187.9660  177.7970  139.3930 C   0  0  2  0  0  3  0  0  0  0  0  0
  186.1310  178.1830  145.3370 C   0  0  2  0  0  3  0  0  0  0  0  0
  185.9810  179.5620  145.5130 O   0  0  0  0  0  1  0  0  0  0  0  0
  186.6610  177.5680  146.6230 C   0  0  0  0  0  2  0  0  0  0  0  0
  187.8350  178.3730  147.1480 C   0  0  0  0  0  3  0  0  0  0  0  0
  188.9430  177.4240  147.5520 C   0  0  0  0  0  2  0  0  0  0  0  0
  188.0520  178.0390  148.6100 C   0  0  0  0  0  2  0  0  0  0  0  0
  188.6590  178.9310  138.6870 C   0  0  0  0  0  0  0  0  0  0  0  0
  188.9820  179.9760  139.3180 O   0  0  0  0  0  0  0  0  0  0  0  0
  188.1500  178.1930  136.4150 C   0  0  0  0  0  2  0  0  0  0  0  0
  188.9780  178.7880  137.2640 C   0  0  0  0  0  3  0  0  0  0  0  0
  1  4  1  6  0  0  0
  1 16  1  0  0  0  0
  2 14  1  0  0  0  0
  3 11  1  6  0  0  0
  3 17  1  0  0  0  0
  3  1  1  0  0  0  0
  5 15  1  0  0  0  0
  5  6  1  0  0  0  0
  6 11  2  0  0  0  0
  6 10  1  0  0  0  0
  7 10  1  0  0  0  0
  9 18  1  1  0  0  0
  9  2  1  0  0  0  0
 10  4  1  0  0  0  0
 12  8  1  0  0  0  0
 14 16  1  0  0  0  0
 15 13  1  6  0  0  0
 15  7  1  0  0  0  0
 16 21  1  1  0  0  0
 19  8  1  6  0  0  0
 19 17  1  0  0  0  0
 19  9  1  0  0  0  0
 20 27  1  1  0  0  0
 20 12  1  0  0  0  0
 20 11  1  0  0  0  0
 21 22  1  1  0  0  0
 21 23  1  0  0  0  0
 23 24  1  0  0  0  0
 24 25  1  0  0  0  0
 24 26  1  0  0  0  0
 25 26  1  0  0  0  0
 27 28  2  0  0  0  0
 29 30  2  0  0  0  0
 30 27  1  0  0  0  0
M  END
>  <MODEL>
6

>  <REMARK>
 VINA RESULT:      -6.4      2.461      7.160
  Name = 
  5 active torsions:
  status: ('A' for Active; 'I' for Inactive)
    1  A    between atoms: C_2  and  C_14
    2  A    between atoms: C_2  and  C_22
    3  A    between atoms: C_7  and  C_26
    4  A    between atoms: C_7  and  C_30
    5  A    between atoms: C_14  and  C_20
                            x       y       z     vdW  Elec       q    Type
                         _______ _______ _______ _____ _____    ______ ____

>  <TORSDO>
F 5

$$$$
=
 OpenBabel10272413573D

 30 34  0  0  1  0  0  0  0  0999 V2000
  186.3600  177.6710  143.4360 C   0  0  1  0  0  3  0  0  0  0  0  0
  186.7980  178.7220  140.4790 C   0  0  0  0  0  2  0  0  0  0  0  0
  187.6120  177.2180  143.2570 C   0  0  2  0  0  3  0  0  0  0  0  0
  185.9410  178.2710  144.7650 C   0  0  0  0  0  2  0  0  0  0  0  0
  189.1540  178.0110  146.6740 C   0  0  0  0  0  2  0  0  0  0  0  0
  188.2650  177.7240  145.5270 C   0  0  0  0  0  0  0  0  0  0  0  0
  186.7680  178.4420  147.1760 C   0  0  0  0  0  2  0  0  0  0  0  0
  190.1690  177.3730  141.6340 O   0  0  0  0  0  0  0  0  0  0  0  0
  188.2970  178.7880  140.8030 C   0  0  2  0  0  3  0  0  0  0  0  0
  186.9030  177.9520  145.8210 N   0  0  0  0  0  0  0  0  0  0  0  0
  188.6490  177.3990  144.2910 C   0  0  0  0  0  0  0  0  0  0  0  0
  190.2460  178.1950  142.6760 O   0  0  0  0  0  0  0  0  0  0  0  0
  188.2250  177.3730  148.8920 C   0  0  0  0  0  1  0  0  0  0  0  0
  186.0260  179.1160  141.5870 O   0  0  0  0  0  0  0  0  0  0  0  0
  188.1780  178.4070  147.7860 C   0  0  1  0  0  3  0  0  0  0  0  0
  185.5490  177.9390  142.1910 C   0  0  2  0  0  3  0  0  0  0  0  0
  187.9710  176.6850  142.0200 O   0  0  0  0  0  0  0  0  0  0  0  0
  188.9860  179.2950  139.7020 O   0  0  0  0  0  1  0  0  0  0  0  0
  188.8410  177.3870  141.1450 C   0  0  2  0  0  3  0  0  0  0  0  0
  190.0910  177.4450  143.8740 C   0  0  2  0  0  3  0  0  0  0  0  0
  184.0480  178.0400  142.4670 C   0  0  2  0  0  3  0  0  0  0  0  0
  183.3300  177.6020  141.3510 O   0  0  0  0  0  1  0  0  0  0  0  0
  183.6660  179.4800  142.7760 C   0  0  0  0  0  2  0  0  0  0  0  0
  182.7930  179.5400  144.0150 C   0  0  0  0  0  3  0  0  0  0  0  0
  181.9620  178.2760  144.0940 C   0  0  0  0  0  2  0  0  0  0  0  0
  181.3370  179.5610  143.5950 C   0  0  0  0  0  2  0  0  0  0  0  0
  190.7870  176.1100  143.8970 C   0  0  0  0  0  0  0  0  0  0  0  0
  190.3620  175.1560  143.1880 O   0  0  0  0  0  0  0  0  0  0  0  0
  191.9550  176.1650  146.0410 C   0  0  0  0  0  2  0  0  0  0  0  0
  191.9800  175.9500  144.7320 C   0  0  0  0  0  3  0  0  0  0  0  0
  1  4  1  6  0  0  0
  2  9  1  0  0  0  0
  2 14  1  0  0  0  0
  3 17  1  6  0  0  0
  3  1  1  0  0  0  0
  3 11  1  0  0  0  0
  4 10  1  0  0  0  0
  5 15  1  0  0  0  0
  6 10  1  0  0  0  0
  6  5  1  0  0  0  0
  7 15  1  0  0  0  0
  8 12  1  0  0  0  0
  9 18  1  6  0  0  0
  9 19  1  0  0  0  0
 10  7  1  0  0  0  0
 11  6  2  0  0  0  0
 12 20  1  0  0  0  0
 14 16  1  0  0  0  0
 15 13  1  1  0  0  0
 16 21  1  1  0  0  0
 16  1  1  0  0  0  0
 19  8  1  1  0  0  0
 19 17  1  0  0  0  0
 20 27  1  6  0  0  0
 20 11  1  0  0  0  0
 21 22  1  6  0  0  0
 21 23  1  0  0  0  0
 23 24  1  0  0  0  0
 24 25  1  0  0  0  0
 26 24  1  0  0  0  0
 26 25  1  0  0  0  0
 27 30  1  0  0  0  0
 28 27  2  0  0  0  0
 30 29  2  0  0  0  0
M  END
>  <MODEL>
7

>  <REMARK>
 VINA RESULT:      -6.3      2.681      6.285
  Name = 
  5 active torsions:
  status: ('A' for Active; 'I' for Inactive)
    1  A    between atoms: C_2  and  C_14
    2  A    between atoms: C_2  and  C_22
    3  A    between atoms: C_7  and  C_26
    4  A    between atoms: C_7  and  C_30
    5  A    between atoms: C_14  and  C_20
                            x       y       z     vdW  Elec       q    Type
                         _______ _______ _______ _____ _____    ______ ____

>  <TORSDO>
F 5

$$$$
=
 OpenBabel10272413573D

 30 34  0  0  1  0  0  0  0  0999 V2000
  185.4020  178.8670  141.8280 C   0  0  1  0  0  3  0  0  0  0  0  0
  182.2360  178.8260  141.9640 C   0  0  0  0  0  2  0  0  0  0  0  0
  185.2650  179.0880  143.1470 C   0  0  2  0  0  3  0  0  0  0  0  0
  186.4920  177.9470  141.3120 C   0  0  0  0  0  2  0  0  0  0  0  0
  188.0680  176.8760  144.5370 C   0  0  0  0  0  2  0  0  0  0  0  0
  187.1690  177.7130  143.7130 C   0  0  0  0  0  0  0  0  0  0  0  0
  188.6230  176.7960  142.1250 C   0  0  0  0  0  2  0  0  0  0  0  0
  183.4480  178.9790  145.5730 O   0  0  0  0  0  0  0  0  0  0  0  0
  182.3770  178.3490  143.4160 C   0  0  2  0  0  3  0  0  0  0  0  0
  187.4980  177.6820  142.3410 N   0  0  0  0  0  0  0  0  0  0  0  0
  186.0790  178.3560  144.1370 C   0  0  0  0  0  0  0  0  0  0  0  0
  184.1490  177.8520  145.4840 O   0  0  0  0  0  0  0  0  0  0  0  0
  190.4500  176.8910  143.8170 C   0  0  0  0  0  1  0  0  0  0  0  0
  183.2190  178.2430  141.1440 O   0  0  0  0  0  0  0  0  0  0  0  0
  189.0740  176.3310  143.5190 C   0  0  1  0  0  3  0  0  0  0  0  0
  184.2200  179.2140  140.9540 C   0  0  2  0  0  3  0  0  0  0  0  0
  184.2450  179.9270  143.5920 O   0  0  0  0  0  0  0  0  0  0  0  0
  181.1120  178.1200  143.9520 O   0  0  0  0  0  1  0  0  0  0  0  0
  183.1100  179.4040  144.2660 C   0  0  2  0  0  3  0  0  0  0  0  0
  185.5360  178.1620  145.5230 C   0  0  2  0  0  3  0  0  0  0  0  0
  184.5880  179.3320  139.4750 C   0  0  2  0  0  3  0  0  0  0  0  0
  184.2290  180.5960  138.9970 O   0  0  0  0  0  1  0  0  0  0  0  0
  183.8660  178.2650  138.6660 C   0  0  0  0  0  2  0  0  0  0  0  0
  184.8560  177.2470  138.1330 C   0  0  0  0  0  3  0  0  0  0  0  0
  185.9280  177.9680  137.3440 C   0  0  0  0  0  2  0  0  0  0  0  0
  184.8080  177.2530  136.6190 C   0  0  0  0  0  2  0  0  0  0  0  0
  185.9320  179.2360  146.5000 C   0  0  0  0  0  0  0  0  0  0  0  0
  185.7160  180.4520  146.2370 O   0  0  0  0  0  0  0  0  0  0  0  0
  187.6080  178.0530  147.8260 C   0  0  0  0  0  2  0  0  0  0  0  0
  186.5430  178.8430  147.7730 C   0  0  0  0  0  3  0  0  0  0  0  0
  1  4  1  1  0  0  0
  1  3  1  0  0  0  0
  2  9  1  0  0  0  0
  3 17  1  1  0  0  0
  3 11  1  0  0  0  0
  4 10  1  0  0  0  0
  6 11  2  0  0  0  0
  6  5  1  0  0  0  0
  7 10  1  0  0  0  0
  7 15  1  0  0  0  0
  9 18  1  1  0  0  0
  9 19  1  0  0  0  0
 10  6  1  0  0  0  0
 11 20  1  0  0  0  0
 12 20  1  0  0  0  0
 12  8  1  0  0  0  0
 14  2  1  0  0  0  0
 15 13  1  1  0  0  0
 15  5  1  0  0  0  0
 16 21  1  6  0  0  0
 16 14  1  0  0  0  0
 16  1  1  0  0  0  0
 19 17  1  6  0  0  0
 19  8  1  0  0  0  0
 20 27  1  1  0  0  0
 21 22  1  6  0  0  0
 23 21  1  0  0  0  0
 24 23  1  0  0  0  0
 25 24  1  0  0  0  0
 26 25  1  0  0  0  0
 26 24  1  0  0  0  0
 27 30  1  0  0  0  0
 28 27  2  0  0  0  0
 30 29  2  0  0  0  0
M  END
>  <MODEL>
8

>  <REMARK>
 VINA RESULT:      -6.1      2.398      3.811
  Name = 
  5 active torsions:
  status: ('A' for Active; 'I' for Inactive)
    1  A    between atoms: C_2  and  C_14
    2  A    between atoms: C_2  and  C_22
    3  A    between atoms: C_7  and  C_26
    4  A    between atoms: C_7  and  C_30
    5  A    between atoms: C_14  and  C_20
                            x       y       z     vdW  Elec       q    Type
                         _______ _______ _______ _____ _____    ______ ____

>  <TORSDO>
F 5

$$$$
=
 OpenBabel10272413573D

 30 34  0  0  1  0  0  0  0  0999 V2000
  191.6310  176.6800  137.7860 C   0  0  1  0  0  3  0  0  0  0  0  0
  191.2760  174.6880  135.3460 C   0  0  0  0  0  2  0  0  0  0  0  0
  190.3590  176.9830  137.4750 C   0  0  2  0  0  3  0  0  0  0  0  0
  192.0640  176.5750  139.2360 C   0  0  0  0  0  2  0  0  0  0  0  0
  188.8230  177.2910  140.9720 C   0  0  0  0  0  2  0  0  0  0  0  0
  189.7080  177.2250  139.7890 C   0  0  0  0  0  0  0  0  0  0  0  0
  191.2220  177.1710  141.5730 C   0  0  0  0  0  2  0  0  0  0  0  0
  187.8300  176.1720  136.0120 O   0  0  0  0  0  0  0  0  0  0  0  0
  189.7790  174.6580  135.6830 C   0  0  2  0  0  3  0  0  0  0  0  0
  191.0770  177.1770  140.1330 N   0  0  0  0  0  0  0  0  0  0  0  0
  189.3220  177.1040  138.5170 C   0  0  0  0  0  0  0  0  0  0  0  0
  187.7830  175.7380  137.2680 O   0  0  0  0  0  0  0  0  0  0  0  0
  189.6950  178.6720  142.8480 C   0  0  0  0  0  1  0  0  0  0  0  0
  192.0550  174.7220  136.5180 O   0  0  0  0  0  0  0  0  0  0  0  0
  189.8050  177.3340  142.1460 C   0  0  1  0  0  3  0  0  0  0  0  0
  192.4670  176.0560  136.6950 C   0  0  2  0  0  3  0  0  0  0  0  0
  189.9880  177.0580  136.1340 O   0  0  0  0  0  0  0  0  0  0  0  0
  189.1280  173.7810  134.8180 O   0  0  0  0  0  1  0  0  0  0  0  0
  189.1630  176.0630  135.5470 C   0  0  2  0  0  3  0  0  0  0  0  0
  187.8880  176.8490  138.1480 C   0  0  2  0  0  3  0  0  0  0  0  0
  193.9680  176.1270  136.9790 C   0  0  2  0  0  3  0  0  0  0  0  0
  194.6040  176.8780  135.9870 O   0  0  0  0  0  1  0  0  0  0  0  0
  194.5650  174.7280  137.0090 C   0  0  0  0  0  2  0  0  0  0  0  0
  194.9950  174.3680  138.4190 C   0  0  0  0  0  3  0  0  0  0  0  0
  196.4480  173.9420  138.3980 C   0  0  0  0  0  2  0  0  0  0  0  0
  195.3540  172.8980  138.4690 C   0  0  0  0  0  2  0  0  0  0  0  0
  187.1270  178.0790  137.7320 C   0  0  0  0  0  0  0  0  0  0  0  0
  187.7430  179.1140  137.3530 O   0  0  0  0  0  0  0  0  0  0  0  0
  184.9600  178.4590  138.7950 C   0  0  0  0  0  2  0  0  0  0  0  0
  185.6620  178.0430  137.7480 C   0  0  0  0  0  3  0  0  0  0  0  0
  1  4  1  1  0  0  0
  2  9  1  0  0  0  0
  2 14  1  0  0  0  0
  3 17  1  6  0  0  0
  3  1  1  0  0  0  0
  3 11  1  0  0  0  0
  4 10  1  0  0  0  0
  5 15  1  0  0  0  0
  6 10  1  0  0  0  0
  6  5  1  0  0  0  0
  7 15  1  0  0  0  0
  8 12  1  0  0  0  0
  9 18  1  6  0  0  0
 10  7  1  0  0  0  0
 11  6  2  0  0  0  0
 12 20  1  0  0  0  0
 14 16  1  0  0  0  0
 15 13  1  6  0  0  0
 16 21  1  1  0  0  0
 16  1  1  0  0  0  0
 19  9  1  0  0  0  0
 19  8  1  1  0  0  0
 19 17  1  0  0  0  0
 20 27  1  6  0  0  0
 20 11  1  0  0  0  0
 21 22  1  6  0  0  0
 21 23  1  0  0  0  0
 23 24  1  0  0  0  0
 24 26  1  0  0  0  0
 25 24  1  0  0  0  0
 25 26  1  0  0  0  0
 27 30  1  0  0  0  0
 28 27  2  0  0  0  0
 30 29  2  0  0  0  0
M  END
>  <MODEL>
9

>  <REMARK>
 VINA RESULT:      -6.1      3.438      5.845
  Name = 
  5 active torsions:
  status: ('A' for Active; 'I' for Inactive)
    1  A    between atoms: C_2  and  C_14
    2  A    between atoms: C_2  and  C_22
    3  A    between atoms: C_7  and  C_26
    4  A    between atoms: C_7  and  C_30
    5  A    between atoms: C_14  and  C_20
                            x       y       z     vdW  Elec       q    Type
                         _______ _______ _______ _____ _____    ______ ____

>  <TORSDO>
F 5

$$$$
