=
 OpenBabel10272413333D

 32 36  0  0  1  0  0  0  0  0999 V2000
  184.7410  178.2580  145.3720 C   0  0  2  0  0  3  0  0  0  0  0  0
  187.1550  178.3190  141.7410 C   0  0  0  0  0  0  0  0  0  0  0  0
  191.1260  176.6510  144.2580 C   0  0  0  0  0  3  0  0  0  0  0  0
  191.8080  176.7520  143.1170 C   0  0  0  0  0  3  0  0  0  0  0  0
  184.9040  178.4210  142.8650 C   0  0  1  0  0  3  0  0  0  0  0  0
  186.8800  177.7130  144.2400 C   0  0  0  0  0  2  0  0  0  0  0  0
  185.2990  178.6940  146.5600 F   0  0  0  0  0  0  0  0  0  0  0  0
  189.6430  176.9010  144.3440 C   0  0  0  0  0  3  0  0  0  0  0  0
  187.7590  177.8530  143.0230 C   0  0  0  0  0  0  0  0  0  0  0  0
  189.0440  177.4480  143.0660 C   0  0  0  0  0  0  0  0  0  0  0  0
  189.2330  177.8940  140.5950 N   0  0  0  0  0  0  0  0  0  0  0  0
  182.8490  178.5690  143.7980 C   0  0  1  0  0  3  0  0  0  0  0  0
  185.6540  178.6210  144.1970 C   0  0  2  0  0  3  0  0  0  0  0  0
  183.7080  179.1630  142.8580 O   0  0  0  0  0  0  0  0  0  0  0  0
  183.3530  178.8660  145.2090 C   0  0  0  0  0  2  0  0  0  0  0  0
  191.1530  177.1520  141.8640 C   0  0  0  0  0  3  0  0  0  0  0  0
  189.8580  177.4800  141.8240 C   0  0  1  0  0  3  0  0  0  0  0  0
  185.7720  178.8930  141.7030 C   0  0  0  0  0  2  0  0  0  0  0  0
  187.8710  178.3400  140.6150 C   0  0  0  0  0  3  0  0  0  0  0  0
  181.4630  179.0940  143.6270 C   0  0  0  0  0  0  0  0  0  0  0  0
  181.2290  180.1710  142.7230 N   0  0  0  0  0  2  0  0  0  0  0  0
  180.5040  178.5820  144.2650 O   0  0  0  0  0  0  0  0  0  0  0  0
  179.9820  180.6660  142.5400 O   0  0  0  0  0  1  0  0  0  0  0  0
  189.9330  177.8560  139.3150 C   0  0  0  0  0  2  0  0  0  0  0  0
  186.6920  174.4660  136.9350 S   0  0  0  0  0  1  0  0  0  0  0  0
  188.3570  176.3360  138.1010 C   0  0  0  0  0  3  0  0  0  0  0  0
  188.6920  178.5790  137.2450 C   0  0  0  0  0  0  0  0  0  0  0  0
  187.8040  178.3080  136.2010 C   0  0  0  0  0  3  0  0  0  0  0  0
  187.1920  177.0540  136.1050 C   0  0  0  0  0  3  0  0  0  0  0  0
  187.4700  176.0690  137.0560 C   0  0  0  0  0  0  0  0  0  0  0  0
  189.2690  179.8030  137.3270 F   0  0  0  0  0  0  0  0  0  0  0  0
  188.9720  177.5890  138.2010 C   0  0  0  0  0  0  0  0  0  0  0  0
  1  7  1  1  0  0  0
  2  9  1  0  0  0  0
  3  8  2  0  0  0  0
  4  3  1  0  0  0  0
  5 18  1  6  0  0  0
  5 13  1  0  0  0  0
  9 10  2  0  0  0  0
  9  6  1  0  0  0  0
 10  8  1  0  0  0  0
 11 19  1  0  0  0  0
 11 17  1  0  0  0  0
 12 20  1  1  0  0  0
 12 15  1  0  0  0  0
 13  6  1  6  0  0  0
 13  1  1  0  0  0  0
 14  5  1  0  0  0  0
 14 12  1  0  0  0  0
 15  1  1  0  0  0  0
 16  4  2  0  0  0  0
 17 16  1  1  0  0  0
 17 10  1  0  0  0  0
 18  2  1  0  0  0  0
 19  2  2  0  0  0  0
 20 22  2  0  0  0  0
 21 20  1  0  0  0  0
 23 21  1  0  0  0  0
 24 11  1  0  0  0  0
 25 30  1  0  0  0  0
 26 32  1  0  0  0  0
 27 31  1  0  0  0  0
 27 32  2  0  0  0  0
 28 27  1  0  0  0  0
 29 28  2  0  0  0  0
 29 30  1  0  0  0  0
 30 26  2  0  0  0  0
 32 24  1  0  0  0  0
M  END
>  <MODEL>
1

>  <REMARK>
 VINA RESULT:     -10.2      0.000      0.000
  Name = 
  3 active torsions:
  status: ('A' for Active; 'I' for Inactive)
    1  A    between atoms: C_1  and  C_19
    2  A    between atoms: N_16  and  C_27
    3  A    between atoms: C_27  and  C_32
                            x       y       z     vdW  Elec       q    Type
                         _______ _______ _______ _____ _____    ______ ____

>  <TORSDO>
F 3

$$$$
=
 OpenBabel10272413333D

 32 36  0  0  1  0  0  0  0  0999 V2000
  187.3290  177.5090  146.6130 C   0  0  2  0  0  3  0  0  0  0  0  0
  186.3150  178.2470  142.4370 C   0  0  0  0  0  0  0  0  0  0  0  0
  181.5360  179.0070  143.6490 C   0  0  0  0  0  3  0  0  0  0  0  0
  181.2990  179.1640  142.3460 C   0  0  0  0  0  3  0  0  0  0  0  0
  188.0460  177.9810  144.2470 C   0  0  1  0  0  3  0  0  0  0  0  0
  185.6430  178.2100  144.9340 C   0  0  0  0  0  2  0  0  0  0  0  0
  186.4700  176.7560  147.3930 F   0  0  0  0  0  0  0  0  0  0  0  0
  182.9220  178.8220  144.2080 C   0  0  0  0  0  3  0  0  0  0  0  0
  185.2550  178.3380  143.4830 C   0  0  0  0  0  0  0  0  0  0  0  0
  183.9870  178.6510  143.1470 C   0  0  0  0  0  0  0  0  0  0  0  0
  184.7080  178.8380  140.7410 N   0  0  0  0  0  0  0  0  0  0  0  0
  189.6650  177.7090  145.8030 C   0  0  1  0  0  3  0  0  0  0  0  0
  186.9260  177.4090  145.1400 C   0  0  2  0  0  3  0  0  0  0  0  0
  189.2650  177.3290  144.5100 O   0  0  0  0  0  0  0  0  0  0  0  0
  188.7610  177.0370  146.8340 C   0  0  0  0  0  2  0  0  0  0  0  0
  182.3880  179.1310  141.3600 C   0  0  0  0  0  3  0  0  0  0  0  0
  183.6530  178.8920  141.7200 C   0  0  1  0  0  3  0  0  0  0  0  0
  187.6950  177.7740  142.7770 C   0  0  0  0  0  2  0  0  0  0  0  0
  186.0310  178.4740  141.1530 C   0  0  0  0  0  3  0  0  0  0  0  0
  191.0860  177.3190  146.0330 C   0  0  0  0  0  0  0  0  0  0  0  0
  191.4210  176.5390  147.1790 N   0  0  0  0  0  2  0  0  0  0  0  0
  191.9820  177.6630  145.2160 O   0  0  0  0  0  0  0  0  0  0  0  0
  192.7010  176.1630  147.4120 O   0  0  0  0  0  1  0  0  0  0  0  0
  184.4820  179.1630  139.3360 C   0  0  0  0  0  2  0  0  0  0  0  0
  182.1910  174.7130  137.7210 S   0  0  0  0  0  1  0  0  0  0  0  0
  183.4910  177.0260  138.4890 C   0  0  0  0  0  3  0  0  0  0  0  0
  185.7000  177.6620  137.7210 C   0  0  0  0  0  0  0  0  0  0  0  0
  185.7630  176.4970  136.9520 C   0  0  0  0  0  3  0  0  0  0  0  0
  184.6940  175.5960  136.9510 C   0  0  0  0  0  3  0  0  0  0  0  0
  183.5580  175.8620  137.7190 C   0  0  0  0  0  0  0  0  0  0  0  0
  186.7440  178.5270  137.7030 F   0  0  0  0  0  0  0  0  0  0  0  0
  184.5600  177.9300  138.4950 C   0  0  0  0  0  0  0  0  0  0  0  0
  1 15  1  0  0  0  0
  1  7  1  1  0  0  0
  2 18  1  0  0  0  0
  2  9  1  0  0  0  0
  3  8  2  0  0  0  0
  4  3  1  0  0  0  0
  5 18  1  6  0  0  0
  5 14  1  0  0  0  0
  5 13  1  0  0  0  0
  9  6  1  0  0  0  0
 10  9  2  0  0  0  0
 10  8  1  0  0  0  0
 11 19  1  0  0  0  0
 11 17  1  0  0  0  0
 12 20  1  1  0  0  0
 12 15  1  0  0  0  0
 13  6  1  1  0  0  0
 13  1  1  0  0  0  0
 14 12  1  0  0  0  0
 16  4  2  0  0  0  0
 17 16  1  6  0  0  0
 17 10  1  0  0  0  0
 19  2  2  0  0  0  0
 20 21  1  0  0  0  0
 21 23  1  0  0  0  0
 22 20  2  0  0  0  0
 24 11  1  0  0  0  0
 26 32  1  0  0  0  0
 27 32  2  0  0  0  0
 28 27  1  0  0  0  0
 29 28  2  0  0  0  0
 29 30  1  0  0  0  0
 30 25  1  0  0  0  0
 30 26  2  0  0  0  0
 31 27  1  0  0  0  0
 32 24  1  0  0  0  0
M  END
>  <MODEL>
2

>  <REMARK>
 VINA RESULT:      -9.9      3.683      6.453
  Name = 
  3 active torsions:
  status: ('A' for Active; 'I' for Inactive)
    1  A    between atoms: C_1  and  C_19
    2  A    between atoms: N_16  and  C_27
    3  A    between atoms: C_27  and  C_32
                            x       y       z     vdW  Elec       q    Type
                         _______ _______ _______ _____ _____    ______ ____

>  <TORSDO>
F 3

$$$$
=
 OpenBabel10272413333D

 32 36  0  0  1  0  0  0  0  0999 V2000
  187.2810  177.5380  146.5920 C   0  0  2  0  0  3  0  0  0  0  0  0
  186.2080  178.2320  142.4230 C   0  0  0  0  0  0  0  0  0  0  0  0
  181.4460  179.0020  143.6950 C   0  0  0  0  0  3  0  0  0  0  0  0
  181.1910  179.1460  142.3940 C   0  0  0  0  0  3  0  0  0  0  0  0
  187.9640  177.9860  144.2120 C   0  0  1  0  0  3  0  0  0  0  0  0
  185.5710  178.2210  144.9300 C   0  0  0  0  0  2  0  0  0  0  0  0
  186.4330  176.7920  147.3920 F   0  0  0  0  0  0  0  0  0  0  0  0
  182.8400  178.8230  144.2360 C   0  0  0  0  0  3  0  0  0  0  0  0
  185.1630  178.3340  143.4830 C   0  0  0  0  0  0  0  0  0  0  0  0
  183.8900  178.6420  143.1620 C   0  0  0  0  0  0  0  0  0  0  0  0
  184.5760  178.8060  140.7440 N   0  0  0  0  0  0  0  0  0  0  0  0
  189.6050  177.7300  145.7470 C   0  0  1  0  0  3  0  0  0  0  0  0
  186.8570  177.4230  145.1250 C   0  0  2  0  0  3  0  0  0  0  0  0
  189.1870  177.3380  144.4630 O   0  0  0  0  0  0  0  0  0  0  0  0
  188.7170  177.0690  146.7980 C   0  0  0  0  0  2  0  0  0  0  0  0
  182.2660  179.1040  141.3930 C   0  0  0  0  0  3  0  0  0  0  0  0
  183.5360  178.8690  141.7370 C   0  0  1  0  0  3  0  0  0  0  0  0
  187.5930  177.7640  142.7490 C   0  0  0  0  0  2  0  0  0  0  0  0
  185.9050  178.4470  141.1420 C   0  0  0  0  0  3  0  0  0  0  0  0
  191.0300  177.3430  145.9610 C   0  0  0  0  0  0  0  0  0  0  0  0
  191.3710  176.5130  147.0690 N   0  0  0  0  0  2  0  0  0  0  0  0
  191.9230  177.7350  145.1630 O   0  0  0  0  0  0  0  0  0  0  0  0
  192.6540  176.1390  147.2870 O   0  0  0  0  0  1  0  0  0  0  0  0
  184.3310  179.1170  139.3400 C   0  0  0  0  0  2  0  0  0  0  0  0
  187.5580  176.6000  136.0370 S   0  0  0  0  0  1  0  0  0  0  0  0
  185.7840  177.8210  137.7670 C   0  0  0  0  0  3  0  0  0  0  0  0
  183.6330  176.8920  138.3860 C   0  0  0  0  0  0  0  0  0  0  0  0
  183.8820  175.7840  137.5710 C   0  0  0  0  0  3  0  0  0  0  0  0
  185.0790  175.6940  136.8540 C   0  0  0  0  0  3  0  0  0  0  0  0
  186.0290  176.7120  136.9530 C   0  0  0  0  0  0  0  0  0  0  0  0
  182.4700  176.9580  139.0800 F   0  0  0  0  0  0  0  0  0  0  0  0
  184.5870  177.9170  138.4850 C   0  0  0  0  0  0  0  0  0  0  0  0
  1 15  1  0  0  0  0
  1  7  1  1  0  0  0
  2 18  1  0  0  0  0
  2  9  1  0  0  0  0
  3  8  2  0  0  0  0
  4  3  1  0  0  0  0
  5 18  1  6  0  0  0
  5 14  1  0  0  0  0
  5 13  1  0  0  0  0
  9  6  1  0  0  0  0
 10  9  2  0  0  0  0
 10  8  1  0  0  0  0
 11 19  1  0  0  0  0
 11 17  1  0  0  0  0
 12 20  1  1  0  0  0
 12 15  1  0  0  0  0
 13  6  1  1  0  0  0
 13  1  1  0  0  0  0
 14 12  1  0  0  0  0
 16  4  2  0  0  0  0
 17 16  1  6  0  0  0
 17 10  1  0  0  0  0
 19  2  2  0  0  0  0
 20 21  1  0  0  0  0
 21 23  1  0  0  0  0
 22 20  2  0  0  0  0
 24 11  1  0  0  0  0
 25 30  1  0  0  0  0
 26 32  1  0  0  0  0
 27 32  2  0  0  0  0
 27 31  1  0  0  0  0
 28 27  1  0  0  0  0
 29 30  1  0  0  0  0
 29 28  2  0  0  0  0
 30 26  2  0  0  0  0
 32 24  1  0  0  0  0
M  END
>  <MODEL>
3

>  <REMARK>
 VINA RESULT:      -9.8      3.767      6.550
  Name = 
  3 active torsions:
  status: ('A' for Active; 'I' for Inactive)
    1  A    between atoms: C_1  and  C_19
    2  A    between atoms: N_16  and  C_27
    3  A    between atoms: C_27  and  C_32
                            x       y       z     vdW  Elec       q    Type
                         _______ _______ _______ _____ _____    ______ ____

>  <TORSDO>
F 3

$$$$
=
 OpenBabel10272413333D

 32 36  0  0  1  0  0  0  0  0999 V2000
  187.9690  177.6160  145.6500 C   0  0  2  0  0  3  0  0  0  0  0  0
  189.2850  177.3370  141.5020 C   0  0  0  0  0  0  0  0  0  0  0  0
  184.8310  178.9120  139.9010 C   0  0  0  0  0  3  0  0  0  0  0  0
  185.2920  178.7460  138.6600 C   0  0  0  0  0  3  0  0  0  0  0  0
  189.8200  177.3670  143.9630 C   0  0  1  0  0  3  0  0  0  0  0  0
  187.5080  178.0330  143.2490 C   0  0  0  0  0  2  0  0  0  0  0  0
  186.6950  177.1940  145.9830 F   0  0  0  0  0  0  0  0  0  0  0  0
  185.6940  178.7280  141.1210 C   0  0  0  0  0  3  0  0  0  0  0  0
  187.9060  177.8170  141.8100 C   0  0  0  0  0  0  0  0  0  0  0  0
  187.0660  178.1670  140.8160 C   0  0  0  0  0  0  0  0  0  0  0  0
  188.8740  177.6350  139.1460 N   0  0  0  0  0  0  0  0  0  0  0  0
  190.3820  177.3360  146.1540 C   0  0  1  0  0  3  0  0  0  0  0  0
  188.3130  177.1770  144.2240 C   0  0  2  0  0  3  0  0  0  0  0  0
  190.5770  176.6770  144.9280 O   0  0  0  0  0  0  0  0  0  0  0  0
  188.9680  177.0640  146.6610 C   0  0  0  0  0  2  0  0  0  0  0  0
  186.6800  178.3350  138.4070 C   0  0  0  0  0  3  0  0  0  0  0  0
  187.5230  178.0600  139.4070 C   0  0  1  0  0  3  0  0  0  0  0  0
  190.1820  176.8210  142.5860 C   0  0  0  0  0  2  0  0  0  0  0  0
  189.7130  177.2490  140.2410 C   0  0  0  0  0  3  0  0  0  0  0  0
  191.3850  176.8660  147.1530 C   0  0  0  0  0  0  0  0  0  0  0  0
  192.1940  175.7320  146.8510 N   0  0  0  0  0  2  0  0  0  0  0  0
  191.5270  177.4730  148.2480 O   0  0  0  0  0  0  0  0  0  0  0  0
  193.1180  175.2840  147.7340 O   0  0  0  0  0  1  0  0  0  0  0  0
  189.4320  177.6030  137.7980 C   0  0  0  0  0  2  0  0  0  0  0  0
  188.1420  172.6740  136.4910 S   0  0  0  0  0  1  0  0  0  0  0  0
  188.9420  175.2310  137.1640 C   0  0  0  0  0  3  0  0  0  0  0  0
  191.2560  175.9040  137.4330 C   0  0  0  0  0  0  0  0  0  0  0  0
  191.6650  174.6030  137.1240 C   0  0  0  0  0  3  0  0  0  0  0  0
  190.7160  173.6170  136.8370 C   0  0  0  0  0  3  0  0  0  0  0  0
  189.3560  173.9320  136.8570 C   0  0  0  0  0  0  0  0  0  0  0  0
  192.1910  176.8490  137.7010 F   0  0  0  0  0  0  0  0  0  0  0  0
  189.8880  176.2210  137.4540 C   0  0  0  0  0  0  0  0  0  0  0  0
  1  7  1  1  0  0  0
  1 15  1  0  0  0  0
  2  9  1  0  0  0  0
  2 18  1  0  0  0  0
  3  8  2  0  0  0  0
  4  3  1  0  0  0  0
  5 18  1  6  0  0  0
  5 13  1  0  0  0  0
  5 14  1  0  0  0  0
  9  6  1  0  0  0  0
 10  8  1  0  0  0  0
 10  9  2  0  0  0  0
 11 17  1  0  0  0  0
 11 19  1  0  0  0  0
 12 15  1  0  0  0  0
 12 20  1  1  0  0  0
 13  6  1  6  0  0  0
 13  1  1  0  0  0  0
 14 12  1  0  0  0  0
 16  4  2  0  0  0  0
 17 16  1  6  0  0  0
 17 10  1  0  0  0  0
 19  2  2  0  0  0  0
 20 22  2  0  0  0  0
 21 20  1  0  0  0  0
 21 23  1  0  0  0  0
 24 11  1  0  0  0  0
 25 30  1  0  0  0  0
 26 32  1  0  0  0  0
 27 32  2  0  0  0  0
 27 31  1  0  0  0  0
 28 27  1  0  0  0  0
 29 30  1  0  0  0  0
 29 28  2  0  0  0  0
 30 26  2  0  0  0  0
 32 24  1  0  0  0  0
M  END
>  <MODEL>
4

>  <REMARK>
 VINA RESULT:      -9.8      4.029      6.151
  Name = 
  3 active torsions:
  status: ('A' for Active; 'I' for Inactive)
    1  A    between atoms: C_1  and  C_19
    2  A    between atoms: N_16  and  C_27
    3  A    between atoms: C_27  and  C_32
                            x       y       z     vdW  Elec       q    Type
                         _______ _______ _______ _____ _____    ______ ____

>  <TORSDO>
F 3

$$$$
=
 OpenBabel10272413333D

 32 36  0  0  1  0  0  0  0  0999 V2000
  187.8970  177.6340  145.7730 C   0  0  2  0  0  3  0  0  0  0  0  0
  189.2410  177.4360  141.6300 C   0  0  0  0  0  0  0  0  0  0  0  0
  184.7610  178.9280  140.0220 C   0  0  0  0  0  3  0  0  0  0  0  0
  185.2320  178.7880  138.7830 C   0  0  0  0  0  3  0  0  0  0  0  0
  189.7620  177.4480  144.0940 C   0  0  1  0  0  3  0  0  0  0  0  0
  187.4400  178.0690  143.3740 C   0  0  0  0  0  2  0  0  0  0  0  0
  186.6310  177.1790  146.0940 F   0  0  0  0  0  0  0  0  0  0  0  0
  185.6210  178.7490  141.2450 C   0  0  0  0  0  3  0  0  0  0  0  0
  187.8500  177.8800  141.9360 C   0  0  0  0  0  0  0  0  0  0  0  0
  187.0070  178.2240  140.9410 C   0  0  0  0  0  0  0  0  0  0  0  0
  188.8360  177.7540  139.2750 N   0  0  0  0  0  0  0  0  0  0  0  0
  190.3130  177.4030  146.2870 C   0  0  1  0  0  3  0  0  0  0  0  0
  188.2580  177.2210  144.3440 C   0  0  2  0  0  3  0  0  0  0  0  0
  190.5300  176.7630  145.0540 O   0  0  0  0  0  0  0  0  0  0  0  0
  188.9030  177.0920  146.7820 C   0  0  0  0  0  2  0  0  0  0  0  0
  186.6300  178.4120  138.5320 C   0  0  0  0  0  3  0  0  0  0  0  0
  187.4740  178.1450  139.5340 C   0  0  1  0  0  3  0  0  0  0  0  0
  190.1440  176.9270  142.7120 C   0  0  0  0  0  2  0  0  0  0  0  0
  189.6770  177.3730  140.3700 C   0  0  0  0  0  3  0  0  0  0  0  0
  191.3210  176.9440  147.2850 C   0  0  0  0  0  0  0  0  0  0  0  0
  192.1770  175.8500  146.9630 N   0  0  0  0  0  2  0  0  0  0  0  0
  191.4260  177.5250  148.3990 O   0  0  0  0  0  0  0  0  0  0  0  0
  193.1070  175.4130  147.8460 O   0  0  0  0  0  1  0  0  0  0  0  0
  189.4010  177.7500  137.9290 C   0  0  0  0  0  2  0  0  0  0  0  0
  193.6910  174.7700  137.3140 S   0  0  0  0  0  1  0  0  0  0  0  0
  191.3660  176.2310  137.6170 C   0  0  0  0  0  3  0  0  0  0  0  0
  189.1410  175.3290  137.2830 C   0  0  0  0  0  0  0  0  0  0  0  0
  189.6970  174.0860  136.9700 C   0  0  0  0  0  3  0  0  0  0  0  0
  191.0850  173.9130  136.9790 C   0  0  0  0  0  3  0  0  0  0  0  0
  191.9180  174.9870  137.3030 C   0  0  0  0  0  0  0  0  0  0  0  0
  187.7930  175.4750  137.2760 F   0  0  0  0  0  0  0  0  0  0  0  0
  189.9780  176.4090  137.6080 C   0  0  0  0  0  0  0  0  0  0  0  0
  1  7  1  1  0  0  0
  1 15  1  0  0  0  0
  2  9  1  0  0  0  0
  2 18  1  0  0  0  0
  3  8  2  0  0  0  0
  4  3  1  0  0  0  0
  5 18  1  6  0  0  0
  5 13  1  0  0  0  0
  5 14  1  0  0  0  0
  9  6  1  0  0  0  0
 10  8  1  0  0  0  0
 10  9  2  0  0  0  0
 11 17  1  0  0  0  0
 11 19  1  0  0  0  0
 12 15  1  0  0  0  0
 12 20  1  1  0  0  0
 13  6  1  6  0  0  0
 13  1  1  0  0  0  0
 14 12  1  0  0  0  0
 16  4  2  0  0  0  0
 17 16  1  6  0  0  0
 17 10  1  0  0  0  0
 19  2  2  0  0  0  0
 20 22  2  0  0  0  0
 21 20  1  0  0  0  0
 21 23  1  0  0  0  0
 24 11  1  0  0  0  0
 27 32  2  0  0  0  0
 28 29  2  0  0  0  0
 28 27  1  0  0  0  0
 29 30  1  0  0  0  0
 30 25  1  0  0  0  0
 30 26  2  0  0  0  0
 31 27  1  0  0  0  0
 32 26  1  0  0  0  0
 32 24  1  0  0  0  0
M  END
>  <MODEL>
5

>  <REMARK>
 VINA RESULT:      -9.8      4.176      6.270
  Name = 
  3 active torsions:
  status: ('A' for Active; 'I' for Inactive)
    1  A    between atoms: C_1  and  C_19
    2  A    between atoms: N_16  and  C_27
    3  A    between atoms: C_27  and  C_32
                            x       y       z     vdW  Elec       q    Type
                         _______ _______ _______ _____ _____    ______ ____

>  <TORSDO>
F 3

$$$$
=
 OpenBabel10272413333D

 32 36  0  0  1  0  0  0  0  0999 V2000
  189.0470  177.9660  138.5880 C   0  0  2  0  0  3  0  0  0  0  0  0
  188.4460  177.4750  142.8790 C   0  0  0  0  0  0  0  0  0  0  0  0
  183.7520  179.1170  142.4890 C   0  0  0  0  0  3  0  0  0  0  0  0
  183.6680  178.9910  143.8140 C   0  0  0  0  0  3  0  0  0  0  0  0
  189.8040  177.0400  140.8020 C   0  0  1  0  0  3  0  0  0  0  0  0
  187.5040  178.0060  140.5300 C   0  0  0  0  0  2  0  0  0  0  0  0
  188.5370  179.0880  137.9590 F   0  0  0  0  0  0  0  0  0  0  0  0
  184.9600  178.6770  141.7050 C   0  0  0  0  0  2  0  0  0  0  0  0
  187.3250  177.9650  142.0260 C   0  0  0  0  0  0  0  0  0  0  0  0
  186.1260  178.2540  142.5720 C   0  0  0  0  0  0  0  0  0  0  0  0
  187.0260  177.5740  144.8230 N   0  0  0  0  0  0  0  0  0  0  0  0
  191.1060  176.6430  138.9960 C   0  0  1  0  0  3  0  0  0  0  0  0
  188.9650  178.1310  140.1080 C   0  0  2  0  0  3  0  0  0  0  0  0
  191.1310  177.0680  140.3360 O   0  0  0  0  0  0  0  0  0  0  0  0
  190.4810  177.7330  138.1270 C   0  0  0  0  0  2  0  0  0  0  0  0
  184.7780  178.4400  144.6040 C   0  0  0  0  0  3  0  0  0  0  0  0
  185.9360  178.0900  144.0360 C   0  0  0  0  0  0  0  0  0  0  0  0
  189.8180  177.2760  142.3100 C   0  0  0  0  0  2  0  0  0  0  0  0
  188.2850  177.3110  144.1930 C   0  0  0  0  0  3  0  0  0  0  0  0
  192.4900  176.3440  138.5290 C   0  0  0  0  0  0  0  0  0  0  0  0
  192.6950  175.3240  137.5540 N   0  0  0  0  0  2  0  0  0  0  0  0
  193.4700  176.9950  138.9810 O   0  0  0  0  0  0  0  0  0  0  0  0
  193.9390  175.0330  137.1040 O   0  0  0  0  0  1  0  0  0  0  0  0
  186.8870  177.2870  146.2480 C   0  0  0  0  0  2  0  0  0  0  0  0
  191.9470  175.9150  146.6680 S   0  0  0  0  0  1  0  0  0  0  0  0
  189.3090  176.7230  146.5380 C   0  0  0  0  0  3  0  0  0  0  0  0
  188.3170  178.3660  148.0190 C   0  0  0  0  0  0  0  0  0  0  0  0
  189.5450  178.5120  148.6720 C   0  0  0  0  0  3  0  0  0  0  0  0
  190.6530  177.7650  148.2610 C   0  0  0  0  0  3  0  0  0  0  0  0
  190.5340  176.8710  147.1940 C   0  0  0  0  0  0  0  0  0  0  0  0
  187.2560  179.1050  148.4270 F   0  0  0  0  0  0  0  0  0  0  0  0
  188.1970  177.4680  146.9470 C   0  0  0  0  0  0  0  0  0  0  0  0
  1  7  1  6  0  0  0
  1 13  1  0  0  0  0
  2 19  2  0  0  0  0
  3  4  2  0  0  0  0
  4 16  1  0  0  0  0
  5 18  1  1  0  0  0
  6  9  1  0  0  0  0
  8  3  1  0  0  0  0
  8 10  1  0  0  0  0
  9 10  2  0  0  0  0
  9  2  1  0  0  0  0
 10 17  1  0  0  0  0
 11 24  1  0  0  0  0
 12 20  1  6  0  0  0
 12 14  1  0  0  0  0
 13  6  1  1  0  0  0
 13  5  1  0  0  0  0
 14  5  1  0  0  0  0
 15  1  1  0  0  0  0
 15 12  1  0  0  0  0
 17 16  2  0  0  0  0
 17 11  1  0  0  0  0
 18  2  1  0  0  0  0
 19 11  1  0  0  0  0
 20 22  2  0  0  0  0
 21 20  1  0  0  0  0
 23 21  1  0  0  0  0
 24 32  1  0  0  0  0
 25 30  1  0  0  0  0
 26 32  2  0  0  0  0
 26 30  1  0  0  0  0
 27 31  1  0  0  0  0
 27 28  2  0  0  0  0
 29 28  1  0  0  0  0
 30 29  2  0  0  0  0
 32 27  1  0  0  0  0
M  END
>  <MODEL>
6

>  <REMARK>
 VINA RESULT:      -9.2      4.431      8.999
  Name = 
  3 active torsions:
  status: ('A' for Active; 'I' for Inactive)
    1  A    between atoms: C_1  and  C_19
    2  A    between atoms: N_16  and  C_27
    3  A    between atoms: C_27  and  C_32
                            x       y       z     vdW  Elec       q    Type
                         _______ _______ _______ _____ _____    ______ ____

>  <TORSDO>
F 3

$$$$
=
 OpenBabel10272413333D

 32 36  0  0  1  0  0  0  0  0999 V2000
  186.9520  177.6910  146.0680 C   0  0  2  0  0  3  0  0  0  0  0  0
  185.8730  178.4240  141.9070 C   0  0  0  0  0  0  0  0  0  0  0  0
  181.0920  179.0660  143.1770 C   0  0  0  0  0  3  0  0  0  0  0  0
  180.8370  179.2230  141.8780 C   0  0  0  0  0  3  0  0  0  0  0  0
  187.6300  178.1900  143.6970 C   0  0  1  0  0  3  0  0  0  0  0  0
  185.2310  178.3600  144.4120 C   0  0  0  0  0  2  0  0  0  0  0  0
  186.1190  176.9140  146.8540 F   0  0  0  0  0  0  0  0  0  0  0  0
  182.4880  178.9110  143.7190 C   0  0  0  0  0  3  0  0  0  0  0  0
  184.8240  178.4860  142.9660 C   0  0  0  0  0  0  0  0  0  0  0  0
  183.5450  178.7700  142.6450 C   0  0  0  0  0  0  0  0  0  0  0  0
  184.2330  178.9850  140.2320 N   0  0  0  0  0  0  0  0  0  0  0  0
  189.2730  177.9490  145.2320 C   0  0  1  0  0  3  0  0  0  0  0  0
  186.5340  177.5890  144.5990 C   0  0  2  0  0  3  0  0  0  0  0  0
  188.8670  177.5660  143.9420 O   0  0  0  0  0  0  0  0  0  0  0  0
  188.3970  177.2520  146.2710 C   0  0  0  0  0  2  0  0  0  0  0  0
  181.9150  179.2210  140.8790 C   0  0  0  0  0  3  0  0  0  0  0  0
  183.1890  179.0100  141.2230 C   0  0  1  0  0  3  0  0  0  0  0  0
  187.2680  177.9820  142.2300 C   0  0  0  0  0  2  0  0  0  0  0  0
  185.5690  178.6510  140.6280 C   0  0  0  0  0  3  0  0  0  0  0  0
  190.7060  177.5910  145.4450 C   0  0  0  0  0  0  0  0  0  0  0  0
  191.0610  176.7450  146.5350 N   0  0  0  0  0  2  0  0  0  0  0  0
  191.5930  178.0210  144.6600 O   0  0  0  0  0  0  0  0  0  0  0  0
  192.3520  176.3970  146.7510 O   0  0  0  0  0  1  0  0  0  0  0  0
  183.9840  179.3120  138.8320 C   0  0  0  0  0  2  0  0  0  0  0  0
  184.2190  174.2180  137.5460 S   0  0  0  0  0  1  0  0  0  0  0  0
  183.9810  176.8990  138.1640 C   0  0  0  0  0  3  0  0  0  0  0  0
  182.1550  178.3090  137.4200 C   0  0  0  0  0  0  0  0  0  0  0  0
  181.5900  177.2170  136.7540 C   0  0  0  0  0  3  0  0  0  0  0  0
  182.2180  175.9690  136.7920 C   0  0  0  0  0  3  0  0  0  0  0  0
  183.4130  175.8110  137.4970 C   0  0  0  0  0  0  0  0  0  0  0  0
  181.5270  179.5100  137.3790 F   0  0  0  0  0  0  0  0  0  0  0  0
  183.3570  178.1510  138.1280 C   0  0  0  0  0  0  0  0  0  0  0  0
  1 15  1  0  0  0  0
  1  7  1  1  0  0  0
  2 18  1  0  0  0  0
  2  9  1  0  0  0  0
  3  8  2  0  0  0  0
  4  3  1  0  0  0  0
  5 18  1  6  0  0  0
  5 14  1  0  0  0  0
  5 13  1  0  0  0  0
  9  6  1  0  0  0  0
 10  9  2  0  0  0  0
 10  8  1  0  0  0  0
 11 19  1  0  0  0  0
 11 17  1  0  0  0  0
 12 20  1  1  0  0  0
 12 15  1  0  0  0  0
 13  6  1  1  0  0  0
 13  1  1  0  0  0  0
 14 12  1  0  0  0  0
 16  4  2  0  0  0  0
 17 16  1  6  0  0  0
 17 10  1  0  0  0  0
 19  2  2  0  0  0  0
 20 21  1  0  0  0  0
 21 23  1  0  0  0  0
 22 20  2  0  0  0  0
 24 11  1  0  0  0  0
 27 32  2  0  0  0  0
 28 29  2  0  0  0  0
 28 27  1  0  0  0  0
 29 30  1  0  0  0  0
 30 25  1  0  0  0  0
 30 26  2  0  0  0  0
 31 27  1  0  0  0  0
 32 26  1  0  0  0  0
 32 24  1  0  0  0  0
M  END
>  <MODEL>
7

>  <REMARK>
 VINA RESULT:      -9.2      3.977      6.711
  Name = 
  3 active torsions:
  status: ('A' for Active; 'I' for Inactive)
    1  A    between atoms: C_1  and  C_19
    2  A    between atoms: N_16  and  C_27
    3  A    between atoms: C_27  and  C_32
                            x       y       z     vdW  Elec       q    Type
                         _______ _______ _______ _____ _____    ______ ____

>  <TORSDO>
F 3

$$$$
=
 OpenBabel10272413333D

 32 36  0  0  1  0  0  0  0  0999 V2000
  190.6170  176.8470  144.3280 C   0  0  2  0  0  3  0  0  0  0  0  0
  188.2320  177.9690  140.8540 C   0  0  0  0  0  0  0  0  0  0  0  0
  191.7560  176.2380  137.7770 C   0  0  0  0  0  3  0  0  0  0  0  0
  190.9920  176.6610  136.7700 C   0  0  0  0  0  3  0  0  0  0  0  0
  188.4220  177.5730  143.3340 C   0  0  1  0  0  3  0  0  0  0  0  0
  190.3070  176.8030  141.8670 C   0  0  0  0  0  2  0  0  0  0  0  0
  191.9820  177.0700  144.3100 F   0  0  0  0  0  0  0  0  0  0  0  0
  191.3140  176.2980  139.2150 C   0  0  0  0  0  3  0  0  0  0  0  0
  189.5530  177.3030  140.6610 C   0  0  0  0  0  0  0  0  0  0  0  0
  190.0130  177.0420  139.4200 C   0  0  0  0  0  0  0  0  0  0  0  0
  187.9060  178.0380  138.4670 N   0  0  0  0  0  0  0  0  0  0  0  0
  188.5180  177.2850  145.5750 C   0  0  1  0  0  3  0  0  0  0  0  0
  189.9520  177.5570  143.1460 C   0  0  2  0  0  3  0  0  0  0  0  0
  188.0830  178.1620  144.5660 O   0  0  0  0  0  0  0  0  0  0  0  0
  190.0420  177.3180  145.6580 C   0  0  0  0  0  2  0  0  0  0  0  0
  189.6670  177.2520  137.0080 C   0  0  0  0  0  3  0  0  0  0  0  0
  189.1950  177.4370  138.2450 C   0  0  1  0  0  3  0  0  0  0  0  0
  187.7690  178.3820  142.2170 C   0  0  0  0  0  2  0  0  0  0  0  0
  187.4820  178.3160  139.8070 C   0  0  0  0  0  3  0  0  0  0  0  0
  187.9230  177.6790  146.8850 C   0  0  0  0  0  0  0  0  0  0  0  0
  188.7410  177.6800  148.0530 N   0  0  0  0  0  2  0  0  0  0  0  0
  186.7120  178.0210  146.9580 O   0  0  0  0  0  0  0  0  0  0  0  0
  188.2320  178.0380  149.2560 O   0  0  0  0  0  1  0  0  0  0  0  0
  186.9990  178.3600  137.3690 C   0  0  0  0  0  2  0  0  0  0  0  0
  184.8820  173.6870  136.2100 S   0  0  0  0  0  1  0  0  0  0  0  0
  185.8840  176.1730  136.8760 C   0  0  0  0  0  3  0  0  0  0  0  0
  184.5860  177.9190  137.9460 C   0  0  0  0  0  0  0  0  0  0  0  0
  183.4710  177.0770  137.9560 C   0  0  0  0  0  3  0  0  0  0  0  0
  183.5590  175.7850  137.4270 C   0  0  0  0  0  3  0  0  0  0  0  0
  184.7670  175.3340  136.8880 C   0  0  0  0  0  0  0  0  0  0  0  0
  184.4830  179.1650  138.4710 F   0  0  0  0  0  0  0  0  0  0  0  0
  185.8000  177.4670  137.4030 C   0  0  0  0  0  0  0  0  0  0  0  0
  1  7  1  1  0  0  0
  1 15  1  0  0  0  0
  2 18  1  0  0  0  0
  3  8  2  0  0  0  0
  4 16  2  0  0  0  0
  4  3  1  0  0  0  0
  5 18  1  6  0  0  0
  5 14  1  0  0  0  0
  8 10  1  0  0  0  0
  9  2  1  0  0  0  0
  9  6  1  0  0  0  0
 10  9  2  0  0  0  0
 11 19  1  0  0  0  0
 12 15  1  0  0  0  0
 12 20  1  1  0  0  0
 13  6  1  6  0  0  0
 13  5  1  0  0  0  0
 13  1  1  0  0  0  0
 14 12  1  0  0  0  0
 17 16  1  1  0  0  0
 17 11  1  0  0  0  0
 17 10  1  0  0  0  0
 19  2  2  0  0  0  0
 20 22  2  0  0  0  0
 20 21  1  0  0  0  0
 21 23  1  0  0  0  0
 24 32  1  0  0  0  0
 24 11  1  0  0  0  0
 25 30  1  0  0  0  0
 26 30  2  0  0  0  0
 26 32  1  0  0  0  0
 27 28  1  0  0  0  0
 27 31  1  0  0  0  0
 29 28  2  0  0  0  0
 30 29  1  0  0  0  0
 32 27  2  0  0  0  0
M  END
>  <MODEL>
8

>  <REMARK>
 VINA RESULT:      -9.1      3.734      5.232
  Name = 
  3 active torsions:
  status: ('A' for Active; 'I' for Inactive)
    1  A    between atoms: C_1  and  C_19
    2  A    between atoms: N_16  and  C_27
    3  A    between atoms: C_27  and  C_32
                            x       y       z     vdW  Elec       q    Type
                         _______ _______ _______ _____ _____    ______ ____

>  <TORSDO>
F 3

$$$$
=
 OpenBabel10272413333D

 32 36  0  0  1  0  0  0  0  0999 V2000
  184.0860  178.4650  144.5240 C   0  0  2  0  0  3  0  0  0  0  0  0
  187.4150  178.1830  141.7220 C   0  0  0  0  0  0  0  0  0  0  0  0
  190.5130  176.8900  145.4110 C   0  0  0  0  0  3  0  0  0  0  0  0
  191.4870  176.8800  144.5010 C   0  0  0  0  0  3  0  0  0  0  0  0
  184.9410  178.3570  142.1590 C   0  0  1  0  0  3  0  0  0  0  0  0
  186.4500  177.8480  144.0980 C   0  0  0  0  0  2  0  0  0  0  0  0
  184.2950  179.0410  145.7640 F   0  0  0  0  0  0  0  0  0  0  0  0
  189.0680  177.1150  145.0540 C   0  0  0  0  0  3  0  0  0  0  0  0
  187.6340  177.8730  143.1650 C   0  0  0  0  0  0  0  0  0  0  0  0
  188.8530  177.5040  143.6080 C   0  0  0  0  0  0  0  0  0  0  0  0
  189.7250  177.6820  141.2530 N   0  0  0  0  0  0  0  0  0  0  0  0
  182.7090  178.5600  142.4630 C   0  0  1  0  0  3  0  0  0  0  0  0
  185.2920  178.7180  143.6160 C   0  0  2  0  0  3  0  0  0  0  0  0
  183.8010  179.0670  141.7380 O   0  0  0  0  0  0  0  0  0  0  0  0
  182.8030  179.0200  143.9160 C   0  0  0  0  0  2  0  0  0  0  0  0
  191.2100  177.1260  143.0790 C   0  0  0  0  0  3  0  0  0  0  0  0
  189.9800  177.4190  142.6450 C   0  0  1  0  0  3  0  0  0  0  0  0
  186.1020  178.7190  141.2390 C   0  0  0  0  0  2  0  0  0  0  0  0
  188.4160  178.0970  140.8450 C   0  0  0  0  0  3  0  0  0  0  0  0
  181.4300  179.0330  141.8570 C   0  0  0  0  0  0  0  0  0  0  0  0
  181.1370  178.7090  140.5000 N   0  0  0  0  0  2  0  0  0  0  0  0
  180.6090  179.7000  142.5410 O   0  0  0  0  0  0  0  0  0  0  0  0
  179.9820  179.1170  139.9230 O   0  0  0  0  0  1  0  0  0  0  0  0
  190.7540  177.5200  140.2300 C   0  0  0  0  0  2  0  0  0  0  0  0
  187.2370  178.6350  136.4820 S   0  0  0  0  0  1  0  0  0  0  0  0
  189.1250  177.9510  138.3790 C   0  0  0  0  0  3  0  0  0  0  0  0
  190.5480  175.9950  138.2350 C   0  0  0  0  0  0  0  0  0  0  0  0
  189.9490  175.6530  137.0200 C   0  0  0  0  0  3  0  0  0  0  0  0
  188.9390  176.4580  136.4830 C   0  0  0  0  0  3  0  0  0  0  0  0
  188.5280  177.6070  137.1640 C   0  0  0  0  0  0  0  0  0  0  0  0
  191.5320  175.2070  138.7360 F   0  0  0  0  0  0  0  0  0  0  0  0
  190.1350  177.1480  138.9200 C   0  0  0  0  0  0  0  0  0  0  0  0
  1  7  1  1  0  0  0
  2  9  1  0  0  0  0
  4  3  1  0  0  0  0
  5 18  1  6  0  0  0
  5 13  1  0  0  0  0
  8  3  2  0  0  0  0
  9 10  2  0  0  0  0
  9  6  1  0  0  0  0
 10  8  1  0  0  0  0
 11 17  1  0  0  0  0
 12 20  1  6  0  0  0
 12 15  1  0  0  0  0
 13  6  1  1  0  0  0
 13  1  1  0  0  0  0
 14  5  1  0  0  0  0
 14 12  1  0  0  0  0
 15  1  1  0  0  0  0
 16  4  2  0  0  0  0
 17 16  1  1  0  0  0
 17 10  1  0  0  0  0
 18  2  1  0  0  0  0
 19 11  1  0  0  0  0
 19  2  2  0  0  0  0
 20 22  2  0  0  0  0
 21 20  1  0  0  0  0
 23 21  1  0  0  0  0
 24 11  1  0  0  0  0
 25 30  1  0  0  0  0
 26 32  1  0  0  0  0
 27 31  1  0  0  0  0
 27 32  2  0  0  0  0
 28 27  1  0  0  0  0
 29 28  2  0  0  0  0
 29 30  1  0  0  0  0
 30 26  2  0  0  0  0
 32 24  1  0  0  0  0
M  END
>  <MODEL>
9

>  <REMARK>
 VINA RESULT:      -9.0      1.728      1.979
  Name = 
  3 active torsions:
  status: ('A' for Active; 'I' for Inactive)
    1  A    between atoms: C_1  and  C_19
    2  A    between atoms: N_16  and  C_27
    3  A    between atoms: C_27  and  C_32
                            x       y       z     vdW  Elec       q    Type
                         _______ _______ _______ _____ _____    ______ ____

>  <TORSDO>
F 3

$$$$
