=
 OpenBabel10272400333D

 31 33  0  0  1  0  0  0  0  0999 V2000
  188.0860  177.6280  148.3720 C   0  0  0  0  0  0  0  0  0  0  0  0
  187.3610  176.6980  144.7610 C   0  0  2  0  0  3  0  0  0  0  0  0
  188.0320  177.2770  145.9750 C   0  0  0  0  0  0  0  0  0  0  0  0
  189.2570  178.3800  148.2380 C   0  0  0  0  0  3  0  0  0  0  0  0
  189.7100  177.0320  143.5970 C   0  0  1  0  0  3  0  0  0  0  0  0
  187.5440  177.4330  149.5970 F   0  0  0  0  0  0  0  0  0  0  0  0
  189.7900  178.2800  144.4860 C   0  0  0  0  0  2  0  0  0  0  0  0
  188.3690  176.3330  143.6900 C   0  0  0  0  0  0  0  0  0  0  0  0
  187.4720  177.0800  147.2410 C   0  0  0  0  0  3  0  0  0  0  0  0
  189.2150  178.0280  145.8430 C   0  0  0  0  0  0  0  0  0  0  0  0
  189.8190  178.5840  146.9740 C   0  0  0  0  0  3  0  0  0  0  0  0
  188.1220  175.4140  142.9280 O   0  0  0  0  0  0  0  0  0  0  0  0
  186.2310  177.6190  144.2710 C   0  0  1  0  0  3  0  0  0  0  0  0
  184.5920  179.4860  144.8010 C   0  0  0  0  0  2  0  0  0  0  0  0
  185.8900  178.7760  145.2150 C   0  0  0  0  0  2  0  0  0  0  0  0
  187.6750  178.5120  142.5490 F   0  0  0  0  0  0  0  0  0  0  0  0
  184.1840  179.2320  143.3440 C   0  0  0  0  0  2  0  0  0  0  0  0
  185.0040  179.0420  141.1070 O   0  0  0  0  0  1  0  0  0  0  0  0
  186.3870  178.0800  142.8100 C   0  0  2  0  0  3  0  0  0  0  0  0
  185.4080  179.2010  142.4320 C   0  0  2  0  0  3  0  0  0  0  0  0
  192.2260  176.7350  142.2680 O   0  0  0  0  0  0  0  0  0  0  0  0
  191.2710  177.2390  141.6140 C   0  0  0  0  0  0  0  0  0  0  0  0
  189.9850  177.3980  142.2140 N   0  0  0  0  0  2  0  0  0  0  0  0
  190.2620  177.7020  139.5290 O   0  0  0  0  0  1  0  0  0  0  0  0
  191.4830  177.7000  140.2090 C   0  0  2  0  0  3  0  0  0  0  0  0
  193.7760  177.3390  139.6170 O   0  0  0  0  0  1  0  0  0  0  0  0
  192.4900  176.8080  139.4860 C   0  0  2  0  0  3  0  0  0  0  0  0
  192.1350  176.7030  138.0040 C   0  0  0  0  0  2  0  0  0  0  0  0
  191.9810  175.2610  137.5270 C   0  0  1  0  0  3  0  0  0  0  0  0
  193.2700  174.4750  137.6810 C   0  0  0  0  0  1  0  0  0  0  0  0
  190.9440  174.6210  138.2090 O   0  0  0  0  0  1  0  0  0  0  0  0
  1  6  1  0  0  0  0
  2  8  1  6  0  0  0
  2  3  1  0  0  0  0
  3  9  1  0  0  0  0
  4  1  1  0  0  0  0
  5 23  1  6  0  0  0
  5  8  1  0  0  0  0
  5  7  1  0  0  0  0
  7 10  1  0  0  0  0
  9  1  2  0  0  0  0
 10  3  2  0  0  0  0
 10 11  1  0  0  0  0
 11  4  2  0  0  0  0
 12  8  2  0  0  0  0
 13  2  1  0  0  0  0
 13 15  1  1  0  0  0
 14 15  1  0  0  0  0
 17 14  1  0  0  0  0
 19 16  1  1  0  0  0
 19 13  1  0  0  0  0
 20 18  1  6  0  0  0
 20 19  1  0  0  0  0
 20 17  1  0  0  0  0
 22 23  1  0  0  0  0
 22 21  2  0  0  0  0
 25 24  1  6  0  0  0
 25 22  1  0  0  0  0
 27 26  1  6  0  0  0
 27 25  1  0  0  0  0
 28 27  1  0  0  0  0
 29 30  1  1  0  0  0
 29 28  1  0  0  0  0
 29 31  1  0  0  0  0
M  END
>  <MODEL>
1

>  <REMARK>
 VINA RESULT:      -8.1      0.000      0.000
  Name = 
  6 active torsions:
  status: ('A' for Active; 'I' for Inactive)
    1  A    between atoms: C_1  and  C_24
    2  A    between atoms: C_4  and  C_5
    3  A    between atoms: C_9  and  C_22
    4  A    between atoms: C_15  and  N_23
    5  A    between atoms: C_19  and  C_22
    6  A    between atoms: C_19  and  C_24
                            x       y       z     vdW  Elec       q    Type
                         _______ _______ _______ _____ _____    ______ ____

>  <TORSDO>
F 6

$$$$
=
 OpenBabel10272400333D

 31 33  0  0  1  0  0  0  0  0999 V2000
  191.1850  176.4530  143.2550 C   0  0  0  0  0  0  0  0  0  0  0  0
  189.9060  177.6020  139.8680 C   0  0  2  0  0  3  0  0  0  0  0  0
  189.9360  177.1820  141.3110 C   0  0  0  0  0  0  0  0  0  0  0  0
  189.9980  176.3670  143.9880 C   0  0  0  0  0  3  0  0  0  0  0  0
  187.5380  178.6140  140.4590 C   0  0  1  0  0  3  0  0  0  0  0  0
  192.3660  176.1420  143.8400 F   0  0  0  0  0  0  0  0  0  0  0  0
  187.4350  177.4030  141.3940 C   0  0  0  0  0  2  0  0  0  0  0  0
  188.7850  178.5840  139.5980 C   0  0  0  0  0  0  0  0  0  0  0  0
  191.1540  176.8560  141.9170 C   0  0  0  0  0  3  0  0  0  0  0  0
  188.7440  177.1010  142.0520 C   0  0  0  0  0  0  0  0  0  0  0  0
  188.7770  176.6860  143.3860 C   0  0  0  0  0  3  0  0  0  0  0  0
  188.9170  179.4100  138.7110 O   0  0  0  0  0  0  0  0  0  0  0  0
  189.9010  176.3740  138.9420 C   0  0  1  0  0  3  0  0  0  0  0  0
  188.7160  175.0560  137.1210 C   0  0  0  0  0  2  0  0  0  0  0  0
  188.8450  176.4120  137.8320 C   0  0  0  0  0  2  0  0  0  0  0  0
  191.9910  177.0810  137.9550 F   0  0  0  0  0  0  0  0  0  0  0  0
  189.9290  174.1360  137.3170 C   0  0  0  0  0  2  0  0  0  0  0  0
  192.3160  174.0680  137.3970 O   0  0  0  0  0  1  0  0  0  0  0  0
  191.2920  175.9800  138.4140 C   0  0  2  0  0  3  0  0  0  0  0  0
  191.2290  174.9350  137.2910 C   0  0  2  0  0  3  0  0  0  0  0  0
  184.9550  179.5170  141.2920 O   0  0  0  0  0  0  0  0  0  0  0  0
  185.0860  179.1290  140.0980 C   0  0  0  0  0  0  0  0  0  0  0  0
  186.3530  178.6840  139.6140 N   0  0  0  0  0  2  0  0  0  0  0  0
  183.5520  180.4170  138.8440 O   0  0  0  0  0  1  0  0  0  0  0  0
  183.9060  179.1080  139.1810 C   0  0  2  0  0  3  0  0  0  0  0  0
  182.3030  177.3370  139.0120 O   0  0  0  0  0  1  0  0  0  0  0  0
  182.7230  178.3900  139.8280 C   0  0  2  0  0  3  0  0  0  0  0  0
  181.5630  179.3630  140.0360 C   0  0  0  0  0  2  0  0  0  0  0  0
  180.9140  179.2340  141.4110 C   0  0  1  0  0  3  0  0  0  0  0  0
  181.9320  178.8940  142.4850 C   0  0  0  0  0  1  0  0  0  0  0  0
  180.2320  180.4050  141.7490 O   0  0  0  0  0  1  0  0  0  0  0  0
  1  6  1  0  0  0  0
  1  4  1  0  0  0  0
  2  8  1  1  0  0  0
  2  3  1  0  0  0  0
  3  9  1  0  0  0  0
  3 10  2  0  0  0  0
  5 23  1  6  0  0  0
  5  7  1  0  0  0  0
  7 10  1  0  0  0  0
  8  5  1  0  0  0  0
  9  1  2  0  0  0  0
 10 11  1  0  0  0  0
 11  4  2  0  0  0  0
 12  8  2  0  0  0  0
 13 15  1  6  0  0  0
 13  2  1  0  0  0  0
 14 17  1  0  0  0  0
 14 15  1  0  0  0  0
 19 16  1  6  0  0  0
 19 13  1  0  0  0  0
 20 17  1  0  0  0  0
 20 18  1  1  0  0  0
 20 19  1  0  0  0  0
 22 21  2  0  0  0  0
 23 22  1  0  0  0  0
 25 24  1  1  0  0  0
 25 27  1  0  0  0  0
 25 22  1  0  0  0  0
 27 26  1  6  0  0  0
 27 28  1  0  0  0  0
 28 29  1  0  0  0  0
 29 31  1  0  0  0  0
 29 30  1  1  0  0  0
M  END
>  <MODEL>
2

>  <REMARK>
 VINA RESULT:      -7.9      3.414      7.994
  Name = 
  6 active torsions:
  status: ('A' for Active; 'I' for Inactive)
    1  A    between atoms: C_1  and  C_24
    2  A    between atoms: C_4  and  C_5
    3  A    between atoms: C_9  and  C_22
    4  A    between atoms: C_15  and  N_23
    5  A    between atoms: C_19  and  C_22
    6  A    between atoms: C_19  and  C_24
                            x       y       z     vdW  Elec       q    Type
                         _______ _______ _______ _____ _____    ______ ____

>  <TORSDO>
F 6

$$$$
=
 OpenBabel10272400333D

 31 33  0  0  1  0  0  0  0  0999 V2000
  190.9720  176.9230  138.6030 C   0  0  0  0  0  0  0  0  0  0  0  0
  189.5050  176.6090  142.0920 C   0  0  2  0  0  3  0  0  0  0  0  0
  189.7200  177.0540  140.6730 C   0  0  0  0  0  0  0  0  0  0  0  0
  190.1480  177.9020  138.0400 C   0  0  0  0  0  3  0  0  0  0  0  0
  187.0840  177.6250  141.7940 C   0  0  1  0  0  3  0  0  0  0  0  0
  191.9780  176.3840  137.8750 F   0  0  0  0  0  0  0  0  0  0  0  0
  187.8040  178.6610  140.9200 C   0  0  0  0  0  2  0  0  0  0  0  0
  188.0410  176.6710  142.4790 C   0  0  0  0  0  0  0  0  0  0  0  0
  190.7600  176.5020  139.9200 C   0  0  0  0  0  3  0  0  0  0  0  0
  188.8880  178.0340  140.1020 C   0  0  0  0  0  0  0  0  0  0  0  0
  189.1100  178.4610  138.7900 C   0  0  0  0  0  3  0  0  0  0  0  0
  187.6110  175.8920  143.3130 O   0  0  0  0  0  0  0  0  0  0  0  0
  190.4390  177.3680  143.0500 C   0  0  1  0  0  3  0  0  0  0  0  0
  191.2470  179.6030  143.9500 C   0  0  0  0  0  2  0  0  0  0  0  0
  190.1290  178.8600  143.2020 C   0  0  0  0  0  2  0  0  0  0  0  0
  189.4450  176.2430  144.9460 F   0  0  0  0  0  0  0  0  0  0  0  0
  192.1570  178.6820  144.7740 C   0  0  0  0  0  2  0  0  0  0  0  0
  192.1890  176.7910  146.2350 O   0  0  0  0  0  1  0  0  0  0  0  0
  190.6450  176.6710  144.4080 C   0  0  2  0  0  3  0  0  0  0  0  0
  191.3520  177.5670  145.4360 C   0  0  2  0  0  3  0  0  0  0  0  0
  184.2290  177.8060  141.7530 O   0  0  0  0  0  0  0  0  0  0  0  0
  184.8410  178.3750  142.6990 C   0  0  0  0  0  0  0  0  0  0  0  0
  186.2650  178.3070  142.7870 N   0  0  0  0  0  2  0  0  0  0  0  0
  184.4560  180.4950  143.6670 O   0  0  0  0  0  1  0  0  0  0  0  0
  184.0820  179.1500  143.7270 C   0  0  2  0  0  3  0  0  0  0  0  0
  183.3370  179.0400  146.0000 O   0  0  0  0  0  1  0  0  0  0  0  0
  184.3320  178.5930  145.1270 C   0  0  2  0  0  3  0  0  0  0  0  0
  185.6970  179.0460  145.6410 C   0  0  0  0  0  2  0  0  0  0  0  0
  185.9290  178.7000  147.1090 C   0  0  1  0  0  3  0  0  0  0  0  0
  187.2360  177.9570  147.3140 C   0  0  0  0  0  1  0  0  0  0  0  0
  185.9010  179.8510  147.9000 O   0  0  0  0  0  1  0  0  0  0  0  0
  1  9  1  0  0  0  0
  2  3  1  6  0  0  0
  2  8  1  0  0  0  0
  2 13  1  0  0  0  0
  4  1  2  0  0  0  0
  4 11  1  0  0  0  0
  5  8  1  0  0  0  0
  5 23  1  1  0  0  0
  6  1  1  0  0  0  0
  7  5  1  0  0  0  0
  8 12  2  0  0  0  0
  9  3  2  0  0  0  0
 10  3  1  0  0  0  0
 10  7  1  0  0  0  0
 11 10  2  0  0  0  0
 13 15  1  1  0  0  0
 13 19  1  0  0  0  0
 14 17  1  0  0  0  0
 15 14  1  0  0  0  0
 17 20  1  0  0  0  0
 19 16  1  1  0  0  0
 19 20  1  0  0  0  0
 20 18  1  6  0  0  0
 21 22  2  0  0  0  0
 22 23  1  0  0  0  0
 22 25  1  0  0  0  0
 25 24  1  1  0  0  0
 25 27  1  0  0  0  0
 27 28  1  0  0  0  0
 27 26  1  1  0  0  0
 28 29  1  0  0  0  0
 29 30  1  6  0  0  0
 29 31  1  0  0  0  0
M  END
>  <MODEL>
3

>  <REMARK>
 VINA RESULT:      -7.8      2.849      7.959
  Name = 
  6 active torsions:
  status: ('A' for Active; 'I' for Inactive)
    1  A    between atoms: C_1  and  C_24
    2  A    between atoms: C_4  and  C_5
    3  A    between atoms: C_9  and  C_22
    4  A    between atoms: C_15  and  N_23
    5  A    between atoms: C_19  and  C_22
    6  A    between atoms: C_19  and  C_24
                            x       y       z     vdW  Elec       q    Type
                         _______ _______ _______ _____ _____    ______ ____

>  <TORSDO>
F 6

$$$$
=
 OpenBabel10272400333D

 31 33  0  0  1  0  0  0  0  0999 V2000
  193.0150  176.3220  137.1680 C   0  0  0  0  0  0  0  0  0  0  0  0
  189.2960  177.0570  136.9310 C   0  0  2  0  0  3  0  0  0  0  0  0
  190.6750  176.8590  137.4950 C   0  0  0  0  0  0  0  0  0  0  0  0
  193.2410  176.4550  138.5410 C   0  0  0  0  0  3  0  0  0  0  0  0
  188.8220  178.3570  139.1810 C   0  0  1  0  0  3  0  0  0  0  0  0
  194.0390  175.9970  136.3420 F   0  0  0  0  0  0  0  0  0  0  0  0
  189.7670  177.3160  139.7920 C   0  0  0  0  0  2  0  0  0  0  0  0
  188.5150  178.0840  137.7230 C   0  0  0  0  0  0  0  0  0  0  0  0
  191.7330  176.5190  136.6460 C   0  0  0  0  0  3  0  0  0  0  0  0
  190.9060  176.9990  138.8750 C   0  0  0  0  0  0  0  0  0  0  0  0
  192.1860  176.7890  139.3950 C   0  0  0  0  0  3  0  0  0  0  0  0
  187.6650  178.7520  137.1580 O   0  0  0  0  0  0  0  0  0  0  0  0
  188.5740  175.7080  136.7690 C   0  0  1  0  0  3  0  0  0  0  0  0
  186.5040  174.3070  137.2210 C   0  0  0  0  0  2  0  0  0  0  0  0
  187.0900  175.7250  137.1490 C   0  0  0  0  0  2  0  0  0  0  0  0
  188.6890  175.9120  134.3620 F   0  0  0  0  0  0  0  0  0  0  0  0
  187.3310  173.2560  136.4680 C   0  0  0  0  0  2  0  0  0  0  0  0
  188.5740  172.8350  134.4710 O   0  0  0  0  0  1  0  0  0  0  0  0
  188.8240  175.0230  135.4130 C   0  0  2  0  0  3  0  0  0  0  0  0
  187.8900  173.8290  135.1680 C   0  0  2  0  0  3  0  0  0  0  0  0
  188.6400  178.5450  142.0300 O   0  0  0  0  0  0  0  0  0  0  0  0
  187.5630  178.4820  141.3750 C   0  0  0  0  0  0  0  0  0  0  0  0
  187.5840  178.4050  139.9490 N   0  0  0  0  0  2  0  0  0  0  0  0
  185.4970  179.5770  141.7110 O   0  0  0  0  0  1  0  0  0  0  0  0
  186.2500  178.4620  142.0880 C   0  0  2  0  0  3  0  0  0  0  0  0
  186.3250  177.1390  144.0830 O   0  0  0  0  0  1  0  0  0  0  0  0
  186.4490  178.4450  143.6020 C   0  0  2  0  0  3  0  0  0  0  0  0
  185.4100  179.3350  144.2820 C   0  0  0  0  0  2  0  0  0  0  0  0
  184.8000  178.6980  145.5280 C   0  0  1  0  0  3  0  0  0  0  0  0
  185.5590  179.0800  146.7850 C   0  0  0  0  0  1  0  0  0  0  0  0
  183.4540  179.0450  145.6540 O   0  0  0  0  0  1  0  0  0  0  0  0
  1  4  1  0  0  0  0
  2  3  1  1  0  0  0
  2  8  1  0  0  0  0
  3 10  2  0  0  0  0
  4 11  2  0  0  0  0
  5  7  1  0  0  0  0
  5 23  1  1  0  0  0
  6  1  1  0  0  0  0
  8  5  1  0  0  0  0
  9  1  2  0  0  0  0
  9  3  1  0  0  0  0
 10 11  1  0  0  0  0
 10  7  1  0  0  0  0
 12  8  2  0  0  0  0
 13  2  1  0  0  0  0
 13 15  1  6  0  0  0
 15 14  1  0  0  0  0
 17 14  1  0  0  0  0
 19 16  1  6  0  0  0
 19 13  1  0  0  0  0
 20 18  1  1  0  0  0
 20 19  1  0  0  0  0
 20 17  1  0  0  0  0
 22 21  2  0  0  0  0
 22 25  1  0  0  0  0
 23 22  1  0  0  0  0
 25 24  1  1  0  0  0
 25 27  1  0  0  0  0
 27 26  1  1  0  0  0
 27 28  1  0  0  0  0
 28 29  1  0  0  0  0
 29 31  1  0  0  0  0
 29 30  1  1  0  0  0
M  END
>  <MODEL>
4

>  <REMARK>
 VINA RESULT:      -7.7      4.148      8.814
  Name = 
  6 active torsions:
  status: ('A' for Active; 'I' for Inactive)
    1  A    between atoms: C_1  and  C_24
    2  A    between atoms: C_4  and  C_5
    3  A    between atoms: C_9  and  C_22
    4  A    between atoms: C_15  and  N_23
    5  A    between atoms: C_19  and  C_22
    6  A    between atoms: C_19  and  C_24
                            x       y       z     vdW  Elec       q    Type
                         _______ _______ _______ _____ _____    ______ ____

>  <TORSDO>
F 6

$$$$
=
 OpenBabel10272400333D

 31 33  0  0  1  0  0  0  0  0999 V2000
  191.1950  176.5520  143.1510 C   0  0  0  0  0  0  0  0  0  0  0  0
  189.9600  177.5290  139.6940 C   0  0  2  0  0  3  0  0  0  0  0  0
  189.9710  177.1810  141.1560 C   0  0  0  0  0  0  0  0  0  0  0  0
  189.9980  176.5000  143.8720 C   0  0  0  0  0  3  0  0  0  0  0  0
  187.5830  178.5650  140.2030 C   0  0  1  0  0  3  0  0  0  0  0  0
  192.3690  176.2730  143.7660 F   0  0  0  0  0  0  0  0  0  0  0  0
  187.4690  177.4010  141.1960 C   0  0  0  0  0  2  0  0  0  0  0  0
  188.8410  178.4940  139.3620 C   0  0  0  0  0  0  0  0  0  0  0  0
  191.1810  176.8890  141.7940 C   0  0  0  0  0  3  0  0  0  0  0  0
  188.7690  177.1350  141.8850 C   0  0  0  0  0  0  0  0  0  0  0  0
  188.7860  176.7860  143.2380 C   0  0  0  0  0  3  0  0  0  0  0  0
  188.9840  179.2760  138.4360 O   0  0  0  0  0  0  0  0  0  0  0  0
  189.9690  176.2570  138.8300 C   0  0  1  0  0  3  0  0  0  0  0  0
  188.8120  174.8490  137.0590 C   0  0  0  0  0  2  0  0  0  0  0  0
  188.9310  176.2390  137.7040 C   0  0  0  0  0  2  0  0  0  0  0  0
  192.0740  176.9150  137.8420 F   0  0  0  0  0  0  0  0  0  0  0  0
  190.0220  173.9410  137.3190 C   0  0  0  0  0  2  0  0  0  0  0  0
  192.4080  173.8790  137.4390 O   0  0  0  0  0  1  0  0  0  0  0  0
  191.3680  175.8380  138.3450 C   0  0  2  0  0  3  0  0  0  0  0  0
  191.3230  174.7380  137.2740 C   0  0  2  0  0  3  0  0  0  0  0  0
  185.0000  179.5500  140.9390 O   0  0  0  0  0  0  0  0  0  0  0  0
  185.1410  179.0810  139.7760 C   0  0  0  0  0  0  0  0  0  0  0  0
  186.4090  178.5890  139.3400 N   0  0  0  0  0  2  0  0  0  0  0  0
  183.1500  180.1220  139.0470 O   0  0  0  0  0  1  0  0  0  0  0  0
  183.9720  179.0100  138.8480 C   0  0  2  0  0  3  0  0  0  0  0  0
  183.3460  177.2740  140.3750 O   0  0  0  0  0  1  0  0  0  0  0  0
  183.1800  177.7210  139.0620 C   0  0  2  0  0  3  0  0  0  0  0  0
  183.6590  176.6400  138.0950 C   0  0  0  0  0  2  0  0  0  0  0  0
  184.1320  177.2020  136.7570 C   0  0  1  0  0  3  0  0  0  0  0  0
  185.3160  176.4270  136.2080 C   0  0  0  0  0  1  0  0  0  0  0  0
  183.0910  177.2110  135.8270 O   0  0  0  0  0  1  0  0  0  0  0  0
  1  6  1  0  0  0  0
  1  4  1  0  0  0  0
  2  8  1  1  0  0  0
  2  3  1  0  0  0  0
  3  9  1  0  0  0  0
  3 10  2  0  0  0  0
  5 23  1  6  0  0  0
  5  7  1  0  0  0  0
  7 10  1  0  0  0  0
  8  5  1  0  0  0  0
  9  1  2  0  0  0  0
 10 11  1  0  0  0  0
 11  4  2  0  0  0  0
 12  8  2  0  0  0  0
 13 15  1  6  0  0  0
 13  2  1  0  0  0  0
 14 17  1  0  0  0  0
 14 15  1  0  0  0  0
 19 16  1  6  0  0  0
 19 13  1  0  0  0  0
 20 17  1  0  0  0  0
 20 18  1  1  0  0  0
 20 19  1  0  0  0  0
 22 21  2  0  0  0  0
 23 22  1  0  0  0  0
 25 24  1  1  0  0  0
 25 27  1  0  0  0  0
 25 22  1  0  0  0  0
 27 26  1  1  0  0  0
 28 27  1  0  0  0  0
 29 30  1  6  0  0  0
 29 28  1  0  0  0  0
 31 29  1  0  0  0  0
M  END
>  <MODEL>
5

>  <REMARK>
 VINA RESULT:      -7.7      3.553      7.322
  Name = 
  6 active torsions:
  status: ('A' for Active; 'I' for Inactive)
    1  A    between atoms: C_1  and  C_24
    2  A    between atoms: C_4  and  C_5
    3  A    between atoms: C_9  and  C_22
    4  A    between atoms: C_15  and  N_23
    5  A    between atoms: C_19  and  C_22
    6  A    between atoms: C_19  and  C_24
                            x       y       z     vdW  Elec       q    Type
                         _______ _______ _______ _____ _____    ______ ____

>  <TORSDO>
F 6

$$$$
=
 OpenBabel10272400333D

 31 33  0  0  1  0  0  0  0  0999 V2000
  192.3570  177.2700  140.5110 C   0  0  0  0  0  0  0  0  0  0  0  0
  189.6810  177.5410  137.8290 C   0  0  2  0  0  3  0  0  0  0  0  0
  190.3450  177.4710  139.1750 C   0  0  0  0  0  0  0  0  0  0  0  0
  191.5880  177.3060  141.6790 C   0  0  0  0  0  3  0  0  0  0  0  0
  187.6360  178.5600  139.1560 C   0  0  1  0  0  3  0  0  0  0  0  0
  193.7040  177.1550  140.5910 F   0  0  0  0  0  0  0  0  0  0  0  0
  188.0840  177.5970  140.2630 C   0  0  0  0  0  2  0  0  0  0  0  0
  188.4230  178.3840  137.8740 C   0  0  0  0  0  0  0  0  0  0  0  0
  191.7350  177.3480  139.2610 C   0  0  0  0  0  3  0  0  0  0  0  0
  189.5750  177.5140  140.3510 C   0  0  0  0  0  0  0  0  0  0  0  0
  190.1980  177.4230  141.5990 C   0  0  0  0  0  3  0  0  0  0  0  0
  188.0730  178.9860  136.8720 O   0  0  0  0  0  0  0  0  0  0  0  0
  189.4710  176.1320  137.2500 C   0  0  1  0  0  3  0  0  0  0  0  0
  187.8680  174.2240  136.7560 C   0  0  0  0  0  2  0  0  0  0  0  0
  188.0060  175.7190  137.0800 C   0  0  0  0  0  2  0  0  0  0  0  0
  190.2500  176.8810  135.0870 F   0  0  0  0  0  0  0  0  0  0  0  0
  189.1550  173.5860  136.2160 C   0  0  0  0  0  2  0  0  0  0  0  0
  191.0140  173.9150  134.7510 O   0  0  0  0  0  1  0  0  0  0  0  0
  190.3120  175.8390  135.9940 C   0  0  2  0  0  3  0  0  0  0  0  0
  189.8900  174.5440  135.2830 C   0  0  2  0  0  3  0  0  0  0  0  0
  185.5080  179.5420  140.7970 O   0  0  0  0  0  0  0  0  0  0  0  0
  185.1990  178.8820  139.7660 C   0  0  0  0  0  0  0  0  0  0  0  0
  186.2140  178.3800  138.8960 N   0  0  0  0  0  2  0  0  0  0  0  0
  183.1220  179.7810  139.0890 O   0  0  0  0  0  1  0  0  0  0  0  0
  183.7650  178.5960  139.4580 C   0  0  2  0  0  3  0  0  0  0  0  0
  182.6010  176.6890  140.3210 O   0  0  0  0  0  1  0  0  0  0  0  0
  183.0630  177.9640  140.6580 C   0  0  2  0  0  3  0  0  0  0  0  0
  181.8830  178.8300  141.0970 C   0  0  0  0  0  2  0  0  0  0  0  0
  181.7160  178.8890  142.6130 C   0  0  1  0  0  3  0  0  0  0  0  0
  183.0550  178.9510  143.3250 C   0  0  0  0  0  1  0  0  0  0  0  0
  180.9240  179.9770  142.9830 O   0  0  0  0  0  1  0  0  0  0  0  0
  1  6  1  0  0  0  0
  1  4  1  0  0  0  0
  2  8  1  1  0  0  0
  2  3  1  0  0  0  0
  3  9  1  0  0  0  0
  3 10  2  0  0  0  0
  5 23  1  6  0  0  0
  5  7  1  0  0  0  0
  7 10  1  0  0  0  0
  8  5  1  0  0  0  0
  9  1  2  0  0  0  0
 10 11  1  0  0  0  0
 11  4  2  0  0  0  0
 12  8  2  0  0  0  0
 13 15  1  6  0  0  0
 13  2  1  0  0  0  0
 14 15  1  0  0  0  0
 17 14  1  0  0  0  0
 19 16  1  6  0  0  0
 19 13  1  0  0  0  0
 20 18  1  1  0  0  0
 20 19  1  0  0  0  0
 20 17  1  0  0  0  0
 22 21  2  0  0  0  0
 23 22  1  0  0  0  0
 25 24  1  1  0  0  0
 25 22  1  0  0  0  0
 25 27  1  0  0  0  0
 27 26  1  6  0  0  0
 27 28  1  0  0  0  0
 28 29  1  0  0  0  0
 29 31  1  0  0  0  0
 29 30  1  1  0  0  0
M  END
>  <MODEL>
6

>  <REMARK>
 VINA RESULT:      -7.6      4.597      8.693
  Name = 
  6 active torsions:
  status: ('A' for Active; 'I' for Inactive)
    1  A    between atoms: C_1  and  C_24
    2  A    between atoms: C_4  and  C_5
    3  A    between atoms: C_9  and  C_22
    4  A    between atoms: C_15  and  N_23
    5  A    between atoms: C_19  and  C_22
    6  A    between atoms: C_19  and  C_24
                            x       y       z     vdW  Elec       q    Type
                         _______ _______ _______ _____ _____    ______ ____

>  <TORSDO>
F 6

$$$$
=
 OpenBabel10272400333D

 31 33  0  0  1  0  0  0  0  0999 V2000
  191.4150  175.0340  135.5940 C   0  0  0  0  0  0  0  0  0  0  0  0
  189.1310  177.5860  137.2350 C   0  0  2  0  0  3  0  0  0  0  0  0
  190.1240  176.4730  137.0550 C   0  0  0  0  0  0  0  0  0  0  0  0
  191.9470  174.3770  136.7080 C   0  0  0  0  0  3  0  0  0  0  0  0
  190.0920  177.7240  139.6930 C   0  0  1  0  0  3  0  0  0  0  0  0
  191.7820  174.6560  134.3460 F   0  0  0  0  0  0  0  0  0  0  0  0
  190.2280  176.2030  139.5500 C   0  0  0  0  0  2  0  0  0  0  0  0
  189.3920  178.3620  138.5100 C   0  0  0  0  0  0  0  0  0  0  0  0
  190.5010  176.0770  135.7670 C   0  0  0  0  0  3  0  0  0  0  0  0
  190.6660  175.8150  138.1730 C   0  0  0  0  0  0  0  0  0  0  0  0
  191.5690  174.7640  137.9960 C   0  0  0  0  0  3  0  0  0  0  0  0
  189.0910  179.5420  138.5610 O   0  0  0  0  0  0  0  0  0  0  0  0
  187.6910  177.0600  137.1050 C   0  0  1  0  0  3  0  0  0  0  0  0
  185.2680  177.2100  137.8550 C   0  0  0  0  0  2  0  0  0  0  0  0
  186.6280  177.9220  137.7930 C   0  0  0  0  0  2  0  0  0  0  0  0
  187.6660  177.6450  134.7590 F   0  0  0  0  0  0  0  0  0  0  0  0
  185.1250  176.0610  136.8480 C   0  0  0  0  0  2  0  0  0  0  0  0
  185.5790  175.3840  134.6020 O   0  0  0  0  0  1  0  0  0  0  0  0
  187.2930  176.6730  135.6690 C   0  0  2  0  0  3  0  0  0  0  0  0
  185.7860  176.4130  135.5190 C   0  0  2  0  0  3  0  0  0  0  0  0
  191.1430  177.4620  142.3400 O   0  0  0  0  0  0  0  0  0  0  0  0
  189.9550  177.8690  142.2170 C   0  0  0  0  0  0  0  0  0  0  0  0
  189.3760  178.0390  140.9220 N   0  0  0  0  0  2  0  0  0  0  0  0
  189.9400  178.6980  144.4290 O   0  0  0  0  0  1  0  0  0  0  0  0
  189.1290  178.1540  143.4290 C   0  0  2  0  0  3  0  0  0  0  0  0
  188.4110  175.9270  142.9200 O   0  0  0  0  0  1  0  0  0  0  0  0
  188.4430  176.8870  143.9350 C   0  0  2  0  0  3  0  0  0  0  0  0
  187.0160  177.2000  144.3800 C   0  0  0  0  0  2  0  0  0  0  0  0
  186.9560  177.9660  145.7000 C   0  0  1  0  0  3  0  0  0  0  0  0
  185.5260  178.2180  146.1400 C   0  0  0  0  0  1  0  0  0  0  0  0
  187.6540  177.2860  146.7000 O   0  0  0  0  0  1  0  0  0  0  0  0
  1  9  2  0  0  0  0
  1  4  1  0  0  0  0
  2  3  1  1  0  0  0
  2  8  1  0  0  0  0
  3 10  2  0  0  0  0
  4 11  2  0  0  0  0
  5 23  1  1  0  0  0
  6  1  1  0  0  0  0
  7  5  1  0  0  0  0
  8 12  2  0  0  0  0
  8  5  1  0  0  0  0
  9  3  1  0  0  0  0
 10  7  1  0  0  0  0
 11 10  1  0  0  0  0
 13  2  1  0  0  0  0
 13 15  1  6  0  0  0
 15 14  1  0  0  0  0
 17 14  1  0  0  0  0
 19 16  1  6  0  0  0
 19 13  1  0  0  0  0
 20 18  1  6  0  0  0
 20 19  1  0  0  0  0
 20 17  1  0  0  0  0
 22 21  2  0  0  0  0
 22 25  1  0  0  0  0
 23 22  1  0  0  0  0
 25 27  1  0  0  0  0
 25 24  1  1  0  0  0
 27 26  1  6  0  0  0
 27 28  1  0  0  0  0
 28 29  1  0  0  0  0
 29 30  1  1  0  0  0
 29 31  1  0  0  0  0
M  END
>  <MODEL>
7

>  <REMARK>
 VINA RESULT:      -7.6      3.932      8.294
  Name = 
  6 active torsions:
  status: ('A' for Active; 'I' for Inactive)
    1  A    between atoms: C_1  and  C_24
    2  A    between atoms: C_4  and  C_5
    3  A    between atoms: C_9  and  C_22
    4  A    between atoms: C_15  and  N_23
    5  A    between atoms: C_19  and  C_22
    6  A    between atoms: C_19  and  C_24
                            x       y       z     vdW  Elec       q    Type
                         _______ _______ _______ _____ _____    ______ ____

>  <TORSDO>
F 6

$$$$
=
 OpenBabel10272400333D

 31 33  0  0  1  0  0  0  0  0999 V2000
  191.1820  177.0480  143.0070 C   0  0  0  0  0  0  0  0  0  0  0  0
  190.0380  177.6650  139.4370 C   0  0  2  0  0  3  0  0  0  0  0  0
  190.0080  177.4260  140.9210 C   0  0  0  0  0  0  0  0  0  0  0  0
  189.9600  176.9490  143.6790 C   0  0  0  0  0  3  0  0  0  0  0  0
  187.5650  178.5330  139.7660 C   0  0  1  0  0  3  0  0  0  0  0  0
  192.3430  176.9130  143.6900 F   0  0  0  0  0  0  0  0  0  0  0  0
  187.4970  177.4390  140.8400 C   0  0  0  0  0  2  0  0  0  0  0  0
  188.8630  178.5060  138.9860 C   0  0  0  0  0  0  0  0  0  0  0  0
  191.2060  177.2830  141.6290 C   0  0  0  0  0  3  0  0  0  0  0  0
  188.7800  177.3330  141.6010 C   0  0  0  0  0  0  0  0  0  0  0  0
  188.7600  177.0860  142.9760 C   0  0  0  0  0  3  0  0  0  0  0  0
  188.9860  179.2280  138.0100 O   0  0  0  0  0  0  0  0  0  0  0  0
  190.1900  176.3380  138.6740 C   0  0  1  0  0  3  0  0  0  0  0  0
  189.2330  174.7120  136.9720 C   0  0  0  0  0  2  0  0  0  0  0  0
  189.2090  176.1500  137.5120 C   0  0  0  0  0  2  0  0  0  0  0  0
  192.2780  177.0980  137.7220 F   0  0  0  0  0  0  0  0  0  0  0  0
  190.5000  173.9310  137.3470 C   0  0  0  0  0  2  0  0  0  0  0  0
  192.8750  174.0790  137.5670 O   0  0  0  0  0  1  0  0  0  0  0  0
  191.6390  176.0040  138.2780 C   0  0  2  0  0  3  0  0  0  0  0  0
  191.7320  174.8290  137.2930 C   0  0  2  0  0  3  0  0  0  0  0  0
  184.9270  179.5390  140.2300 O   0  0  0  0  0  0  0  0  0  0  0  0
  185.1360  178.9090  139.1570 C   0  0  0  0  0  0  0  0  0  0  0  0
  186.4350  178.3960  138.8560 N   0  0  0  0  0  2  0  0  0  0  0  0
  182.8010  178.6770  138.8850 O   0  0  0  0  0  1  0  0  0  0  0  0
  184.0170  178.6690  138.1960 C   0  0  2  0  0  3  0  0  0  0  0  0
  183.6050  177.4120  136.2000 O   0  0  0  0  0  1  0  0  0  0  0  0
  184.2000  177.3420  137.4620 C   0  0  2  0  0  3  0  0  0  0  0  0
  183.5650  176.2040  138.2590 C   0  0  0  0  0  2  0  0  0  0  0  0
  183.3840  174.9290  137.4400 C   0  0  1  0  0  3  0  0  0  0  0  0
  184.4810  173.9190  137.7210 C   0  0  0  0  0  1  0  0  0  0  0  0
  182.1320  174.3580  137.6800 O   0  0  0  0  0  1  0  0  0  0  0  0
  1  4  1  0  0  0  0
  1  6  1  0  0  0  0
  2  8  1  6  0  0  0
  2  3  1  0  0  0  0
  3 10  2  0  0  0  0
  3  9  1  0  0  0  0
  5 23  1  6  0  0  0
  5  7  1  0  0  0  0
  7 10  1  0  0  0  0
  8  5  1  0  0  0  0
  9  1  2  0  0  0  0
 10 11  1  0  0  0  0
 11  4  2  0  0  0  0
 12  8  2  0  0  0  0
 13 15  1  6  0  0  0
 13  2  1  0  0  0  0
 14 17  1  0  0  0  0
 14 15  1  0  0  0  0
 19 16  1  6  0  0  0
 19 13  1  0  0  0  0
 20 17  1  0  0  0  0
 20 18  1  1  0  0  0
 20 19  1  0  0  0  0
 22 21  2  0  0  0  0
 23 22  1  0  0  0  0
 25 24  1  1  0  0  0
 25 22  1  0  0  0  0
 27 26  1  6  0  0  0
 27 25  1  0  0  0  0
 27 28  1  0  0  0  0
 29 31  1  0  0  0  0
 29 30  1  1  0  0  0
 29 28  1  0  0  0  0
M  END
>  <MODEL>
8

>  <REMARK>
 VINA RESULT:      -7.5      3.760      7.496
  Name = 
  6 active torsions:
  status: ('A' for Active; 'I' for Inactive)
    1  A    between atoms: C_1  and  C_24
    2  A    between atoms: C_4  and  C_5
    3  A    between atoms: C_9  and  C_22
    4  A    between atoms: C_15  and  N_23
    5  A    between atoms: C_19  and  C_22
    6  A    between atoms: C_19  and  C_24
                            x       y       z     vdW  Elec       q    Type
                         _______ _______ _______ _____ _____    ______ ____

>  <TORSDO>
F 6

$$$$
=
 OpenBabel10272400333D

 31 33  0  0  1  0  0  0  0  0999 V2000
  187.0020  177.8250  137.4680 C   0  0  0  0  0  0  0  0  0  0  0  0
  190.3340  177.3280  139.2230 C   0  0  2  0  0  3  0  0  0  0  0  0
  189.1490  177.1010  138.3260 C   0  0  0  0  0  0  0  0  0  0  0  0
  186.9230  176.6700  136.6840 C   0  0  0  0  0  3  0  0  0  0  0  0
  191.5450  175.5640  137.6730 C   0  0  1  0  0  3  0  0  0  0  0  0
  186.0010  178.7370  137.4330 F   0  0  0  0  0  0  0  0  0  0  0  0
  190.1560  174.9160  137.6020 C   0  0  0  0  0  2  0  0  0  0  0  0
  191.5970  176.7310  138.6370 C   0  0  0  0  0  0  0  0  0  0  0  0
  188.1120  178.0380  138.2910 C   0  0  0  0  0  3  0  0  0  0  0  0
  189.0710  175.9430  137.5310 C   0  0  0  0  0  0  0  0  0  0  0  0
  187.9540  175.7270  136.7190 C   0  0  0  0  0  3  0  0  0  0  0  0
  192.6730  177.2430  138.8950 O   0  0  0  0  0  0  0  0  0  0  0  0
  190.0290  176.8650  140.6580 C   0  0  1  0  0  3  0  0  0  0  0  0
  190.9220  176.2170  142.9460 C   0  0  0  0  0  2  0  0  0  0  0  0
  191.2180  176.9360  141.6220 C   0  0  0  0  0  2  0  0  0  0  0  0
  188.6910  178.8430  141.0360 F   0  0  0  0  0  0  0  0  0  0  0  0
  189.4260  176.0090  143.2180 C   0  0  0  0  0  2  0  0  0  0  0  0
  187.2720  177.0360  143.0890 O   0  0  0  0  0  1  0  0  0  0  0  0
  188.7510  177.4790  141.2570 C   0  0  2  0  0  3  0  0  0  0  0  0
  188.6150  177.2200  142.7650 C   0  0  2  0  0  3  0  0  0  0  0  0
  194.0590  175.1400  136.3760 O   0  0  0  0  0  0  0  0  0  0  0  0
  193.7660  174.3920  137.3490 C   0  0  0  0  0  0  0  0  0  0  0  0
  192.5340  174.5630  138.0500 N   0  0  0  0  0  2  0  0  0  0  0  0
  195.1140  173.5130  139.0780 O   0  0  0  0  0  1  0  0  0  0  0  0
  194.6950  173.2970  137.7620 C   0  0  2  0  0  3  0  0  0  0  0  0
  195.8670  172.0270  136.1040 O   0  0  0  0  0  1  0  0  0  0  0  0
  195.9020  173.2210  136.8290 C   0  0  2  0  0  3  0  0  0  0  0  0
  197.1980  173.2880  137.6340 C   0  0  0  0  0  2  0  0  0  0  0  0
  198.0560  174.5010  137.2860 C   0  0  1  0  0  3  0  0  0  0  0  0
  197.6030  175.1610  135.9960 C   0  0  0  0  0  1  0  0  0  0  0  0
  198.0490  175.4290  138.3290 O   0  0  0  0  0  1  0  0  0  0  0  0
  1  9  1  0  0  0  0
  2  3  1  6  0  0  0
  2 13  1  0  0  0  0
  4 11  1  0  0  0  0
  4  1  2  0  0  0  0
  5 23  1  1  0  0  0
  5  8  1  0  0  0  0
  6  1  1  0  0  0  0
  7  5  1  0  0  0  0
  8 12  2  0  0  0  0
  8  2  1  0  0  0  0
  9  3  2  0  0  0  0
 10  7  1  0  0  0  0
 10  3  1  0  0  0  0
 11 10  2  0  0  0  0
 13 19  1  0  0  0  0
 13 15  1  1  0  0  0
 14 17  1  0  0  0  0
 15 14  1  0  0  0  0
 19 16  1  1  0  0  0
 19 20  1  0  0  0  0
 20 18  1  6  0  0  0
 20 17  1  0  0  0  0
 21 22  2  0  0  0  0
 22 25  1  0  0  0  0
 22 23  1  0  0  0  0
 25 24  1  1  0  0  0
 27 26  1  1  0  0  0
 27 28  1  0  0  0  0
 27 25  1  0  0  0  0
 29 30  1  6  0  0  0
 29 28  1  0  0  0  0
 29 31  1  0  0  0  0
M  END
>  <MODEL>
9

>  <REMARK>
 VINA RESULT:      -7.5      3.577      7.121
  Name = 
  6 active torsions:
  status: ('A' for Active; 'I' for Inactive)
    1  A    between atoms: C_1  and  C_24
    2  A    between atoms: C_4  and  C_5
    3  A    between atoms: C_9  and  C_22
    4  A    between atoms: C_15  and  N_23
    5  A    between atoms: C_19  and  C_22
    6  A    between atoms: C_19  and  C_24
                            x       y       z     vdW  Elec       q    Type
                         _______ _______ _______ _____ _____    ______ ____

>  <TORSDO>
F 6

$$$$
