=
 OpenBabel10272401033D

 27 32  0  0  1  0  0  0  0  0999 V2000
  184.9180  179.2640  139.8920 C   0  0  0  0  0  2  0  0  0  0  0  0
  184.8590  178.3960  142.3110 C   0  0  0  0  0  0  0  0  0  0  0  0
  187.1250  177.3480  142.0360 C   0  0  2  0  0  3  0  0  0  0  0  0
  185.4120  179.3140  146.4850 C   0  0  0  0  0  3  0  0  0  0  0  0
  187.2950  177.9010  147.3630 C   0  0  0  0  0  3  0  0  0  0  0  0
  184.0170  179.1200  143.0510 C   0  0  0  0  0  3  0  0  0  0  0  0
  187.2820  177.3510  144.9030 C   0  0  0  0  0  3  0  0  0  0  0  0
  189.4320  177.3950  141.1810 C   0  0  0  0  0  3  0  0  0  0  0  0
  187.7290  177.2470  146.2950 C   0  0  0  0  0  3  0  0  0  0  0  0
  189.4640  177.3990  139.8120 C   0  0  0  0  0  3  0  0  0  0  0  0
  186.2820  178.0420  144.3420 C   0  0  0  0  0  0  0  0  0  0  0  0
  184.5350  178.1170  140.8460 C   0  0  1  0  0  3  0  0  0  0  0  0
  186.2380  178.9060  147.4400 C   0  0  0  0  0  3  0  0  0  0  0  0
  185.3100  178.9000  145.0800 C   0  0  0  0  0  0  0  0  0  0  0  0
  185.9970  178.8390  138.8730 C   0  0  0  0  0  2  0  0  0  0  0  0
  186.0950  177.9230  142.9120 N   0  0  0  0  0  0  0  0  0  0  0  0
  188.3160  178.0510  141.9870 C   0  0  1  0  0  3  0  0  0  0  0  0
  184.2890  179.3820  144.4330 N   0  0  0  0  0  0  0  0  0  0  0  0
  188.3630  177.9790  138.9520 C   0  0  0  0  0  3  0  0  0  0  0  0
  187.2830  178.4800  139.5550 C   0  0  0  0  0  0  0  0  0  0  0  0
  187.3200  178.3310  140.9390 N   0  0  0  0  0  0  0  0  0  0  0  0
  180.5520  176.6960  140.2300 C   0  0  0  0  0  3  0  0  0  0  0  0
  183.1380  177.6280  140.6180 C   0  0  0  0  0  0  0  0  0  0  0  0
  182.9290  176.4750  139.8550 C   0  0  0  0  0  3  0  0  0  0  0  0
  181.6280  176.0110  139.6610 C   0  0  0  0  0  3  0  0  0  0  0  0
  180.7990  177.8420  140.9900 C   0  0  0  0  0  3  0  0  0  0  0  0
  182.0750  178.2790  141.1690 N   0  0  0  0  0  0  0  0  0  0  0  0
  1 12  1  0  0  0  0
  2 16  1  0  0  0  0
  2  6  2  0  0  0  0
  3 21  1  6  0  0  0
  3 16  1  0  0  0  0
  4 13  2  0  0  0  0
  5 13  1  0  0  0  0
  6 18  1  0  0  0  0
  7  9  1  0  0  0  0
  9  5  2  0  0  0  0
 10  8  2  0  0  0  0
 11  7  2  0  0  0  0
 11 14  1  0  0  0  0
 12 23  1  1  0  0  0
 12  2  1  0  0  0  0
 14  4  1  0  0  0  0
 15 20  1  0  0  0  0
 15  1  1  0  0  0  0
 16 11  1  0  0  0  0
 17  8  1  6  0  0  0
 17  3  1  0  0  0  0
 18 14  2  0  0  0  0
 19 20  2  0  0  0  0
 19 10  1  0  0  0  0
 20 21  1  0  0  0  0
 21 17  1  0  0  0  0
 22 26  1  0  0  0  0
 23 27  1  0  0  0  0
 24 23  2  0  0  0  0
 25 24  1  0  0  0  0
 25 22  2  0  0  0  0
 26 27  2  0  0  0  0
M  END
>  <MODEL>
1

>  <REMARK>
 VINA RESULT:      -7.9      0.000      0.000
  Name = 
  1 active torsions:
  status: ('A' for Active; 'I' for Inactive)
    1  A    between atoms: C_9  and  C_15
                            x       y       z     vdW  Elec       q    Type
                         _______ _______ _______ _____ _____    ______ ____

>  <TORSDO>
F 1

$$$$
=
 OpenBabel10272401033D

 27 32  0  0  1  0  0  0  0  0999 V2000
  181.7700  178.5020  140.4990 C   0  0  0  0  0  2  0  0  0  0  0  0
  184.0220  178.8070  139.2970 C   0  0  0  0  0  0  0  0  0  0  0  0
  185.1930  179.1730  141.4880 C   0  0  2  0  0  3  0  0  0  0  0  0
  187.3960  176.8890  137.4250 C   0  0  0  0  0  3  0  0  0  0  0  0
  189.4610  177.4600  138.7390 C   0  0  0  0  0  3  0  0  0  0  0  0
  183.9980  178.2220  138.0980 C   0  0  0  0  0  3  0  0  0  0  0  0
  187.6190  178.5060  140.1060 C   0  0  0  0  0  3  0  0  0  0  0  0
  185.5370  178.6330  143.8650 C   0  0  0  0  0  3  0  0  0  0  0  0
  189.0030  178.1710  139.7600 C   0  0  0  0  0  3  0  0  0  0  0  0
  184.4260  178.9150  144.6140 C   0  0  0  0  0  3  0  0  0  0  0  0
  186.4650  178.2790  139.4660 C   0  0  0  0  0  0  0  0  0  0  0  0
  182.7630  179.4780  139.8390 C   0  0  1  0  0  3  0  0  0  0  0  0
  188.6990  176.8200  137.6700 C   0  0  0  0  0  3  0  0  0  0  0  0
  186.3350  177.6070  138.1400 C   0  0  0  0  0  0  0  0  0  0  0  0
  181.5740  178.8000  142.0010 C   0  0  0  0  0  2  0  0  0  0  0  0
  185.2440  178.7530  140.0810 N   0  0  0  0  0  0  0  0  0  0  0  0
  185.4650  178.1790  142.4110 C   0  0  1  0  0  3  0  0  0  0  0  0
  185.1710  177.5990  137.5590 N   0  0  0  0  0  0  0  0  0  0  0  0
  183.0180  178.8860  144.0630 C   0  0  0  0  0  3  0  0  0  0  0  0
  182.8470  178.6080  142.7690 C   0  0  0  0  0  0  0  0  0  0  0  0
  184.0510  178.4370  142.0910 N   0  0  0  0  0  0  0  0  0  0  0  0
  180.8320  182.1020  137.0750 C   0  0  0  0  0  3  0  0  0  0  0  0
  182.0970  180.3940  138.8600 C   0  0  0  0  0  0  0  0  0  0  0  0
  181.0710  179.9030  138.0470 C   0  0  0  0  0  3  0  0  0  0  0  0
  180.4390  180.7640  137.1490 C   0  0  0  0  0  3  0  0  0  0  0  0
  181.8570  182.5600  137.9070 C   0  0  0  0  0  3  0  0  0  0  0  0
  182.4610  181.7050  138.7760 N   0  0  0  0  0  0  0  0  0  0  0  0
  1 15  1  0  0  0  0
  2 12  1  0  0  0  0
  2 16  1  0  0  0  0
  3 16  1  6  0  0  0
  3 21  1  0  0  0  0
  3 17  1  0  0  0  0
  4 13  2  0  0  0  0
  4 14  1  0  0  0  0
  5  9  2  0  0  0  0
  6  2  2  0  0  0  0
  8 10  2  0  0  0  0
  9  7  1  0  0  0  0
 11 16  1  0  0  0  0
 11  7  2  0  0  0  0
 12 23  1  6  0  0  0
 12  1  1  0  0  0  0
 13  5  1  0  0  0  0
 14 11  1  0  0  0  0
 15 20  1  0  0  0  0
 17  8  1  1  0  0  0
 18  6  1  0  0  0  0
 18 14  2  0  0  0  0
 19 10  1  0  0  0  0
 20 19  2  0  0  0  0
 21 17  1  0  0  0  0
 21 20  1  0  0  0  0
 22 25  2  0  0  0  0
 22 26  1  0  0  0  0
 24 23  2  0  0  0  0
 25 24  1  0  0  0  0
 26 27  2  0  0  0  0
 27 23  1  0  0  0  0
M  END
>  <MODEL>
2

>  <REMARK>
 VINA RESULT:      -7.7      2.604      5.779
  Name = 
  1 active torsions:
  status: ('A' for Active; 'I' for Inactive)
    1  A    between atoms: C_9  and  C_15
                            x       y       z     vdW  Elec       q    Type
                         _______ _______ _______ _____ _____    ______ ____

>  <TORSDO>
F 1

$$$$
=
 OpenBabel10272401033D

 27 32  0  0  1  0  0  0  0  0999 V2000
  184.4980  179.7250  143.5540 C   0  0  0  0  0  2  0  0  0  0  0  0
  185.2340  178.3340  141.5210 C   0  0  0  0  0  0  0  0  0  0  0  0
  182.8930  177.4800  141.2030 C   0  0  2  0  0  3  0  0  0  0  0  0
  186.1770  178.3160  137.3160 C   0  0  0  0  0  3  0  0  0  0  0  0
  184.5260  176.8300  136.1420 C   0  0  0  0  0  3  0  0  0  0  0  0
  186.3500  178.8330  140.9880 C   0  0  0  0  0  3  0  0  0  0  0  0
  183.6750  176.8470  138.5140 C   0  0  0  0  0  3  0  0  0  0  0  0
  180.4560  177.8260  141.1900 C   0  0  0  0  0  3  0  0  0  0  0  0
  183.6950  176.4540  137.1020 C   0  0  0  0  0  3  0  0  0  0  0  0
  179.9830  178.1380  142.4360 C   0  0  0  0  0  3  0  0  0  0  0  0
  184.5150  177.5990  139.2370 C   0  0  0  0  0  0  0  0  0  0  0  0
  185.0300  178.3760  143.0330 C   0  0  1  0  0  3  0  0  0  0  0  0
  185.6630  177.7430  136.2360 C   0  0  0  0  0  3  0  0  0  0  0  0
  185.7680  178.2240  138.7230 C   0  0  0  0  0  0  0  0  0  0  0  0
  183.1040  179.5900  144.2040 C   0  0  0  0  0  2  0  0  0  0  0  0
  184.2130  177.7960  140.6390 N   0  0  0  0  0  0  0  0  0  0  0  0
  181.8430  178.2310  140.7030 C   0  0  1  0  0  3  0  0  0  0  0  0
  186.5740  178.7910  139.5730 N   0  0  0  0  0  0  0  0  0  0  0  0
  180.8070  178.8450  143.4900 C   0  0  0  0  0  3  0  0  0  0  0  0
  182.0760  179.1470  143.2070 C   0  0  0  0  0  0  0  0  0  0  0  0
  182.4720  178.6930  141.9520 N   0  0  0  0  0  0  0  0  0  0  0  0
  188.3710  176.9440  145.2780 C   0  0  0  0  0  3  0  0  0  0  0  0
  186.2080  177.8870  143.8160 C   0  0  0  0  0  0  0  0  0  0  0  0
  186.2850  178.1600  145.1850 C   0  0  0  0  0  3  0  0  0  0  0  0
  187.3750  177.6860  145.9160 C   0  0  0  0  0  3  0  0  0  0  0  0
  188.2580  176.6850  143.9100 C   0  0  0  0  0  3  0  0  0  0  0  0
  187.1880  177.1560  143.2140 N   0  0  0  0  0  0  0  0  0  0  0  0
  1 15  1  0  0  0  0
  2 12  1  0  0  0  0
  3 16  1  6  0  0  0
  3 21  1  0  0  0  0
  4 14  1  0  0  0  0
  5 13  1  0  0  0  0
  5  9  2  0  0  0  0
  6  2  2  0  0  0  0
  7 11  2  0  0  0  0
  8 10  2  0  0  0  0
  9  7  1  0  0  0  0
 10 19  1  0  0  0  0
 11 16  1  0  0  0  0
 12  1  1  0  0  0  0
 12 23  1  1  0  0  0
 13  4  2  0  0  0  0
 14 11  1  0  0  0  0
 14 18  2  0  0  0  0
 16  2  1  0  0  0  0
 17  8  1  1  0  0  0
 17  3  1  0  0  0  0
 17 21  1  0  0  0  0
 18  6  1  0  0  0  0
 20 19  2  0  0  0  0
 20 15  1  0  0  0  0
 21 20  1  0  0  0  0
 22 25  1  0  0  0  0
 23 24  1  0  0  0  0
 24 25  2  0  0  0  0
 26 22  2  0  0  0  0
 27 23  2  0  0  0  0
 27 26  1  0  0  0  0
M  END
>  <MODEL>
3

>  <REMARK>
 VINA RESULT:      -7.7      1.815      7.158
  Name = 
  1 active torsions:
  status: ('A' for Active; 'I' for Inactive)
    1  A    between atoms: C_9  and  C_15
                            x       y       z     vdW  Elec       q    Type
                         _______ _______ _______ _____ _____    ______ ____

>  <TORSDO>
F 1

$$$$
=
 OpenBabel10272401033D

 27 32  0  0  1  0  0  0  0  0999 V2000
  189.1360  178.4040  139.5960 C   0  0  0  0  0  2  0  0  0  0  0  0
  190.8700  176.5500  139.1890 C   0  0  0  0  0  0  0  0  0  0  0  0
  189.2780  175.3350  137.6720 C   0  0  2  0  0  3  0  0  0  0  0  0
  194.3950  175.3230  137.0360 C   0  0  0  0  0  3  0  0  0  0  0  0
  193.8040  173.3330  135.6190 C   0  0  0  0  0  3  0  0  0  0  0  0
  192.1040  176.9990  139.4270 C   0  0  0  0  0  3  0  0  0  0  0  0
  191.5840  173.9900  136.6160 C   0  0  0  0  0  3  0  0  0  0  0  0
  187.5610  175.3290  135.9080 C   0  0  0  0  0  3  0  0  0  0  0  0
  192.5040  173.1750  135.8170 C   0  0  0  0  0  3  0  0  0  0  0  0
  186.4140  175.9560  136.3170 C   0  0  0  0  0  3  0  0  0  0  0  0
  191.8000  175.0380  137.4210 C   0  0  0  0  0  0  0  0  0  0  0  0
  189.7050  177.0440  140.0420 C   0  0  1  0  0  3  0  0  0  0  0  0
  194.6810  174.3720  136.1560 C   0  0  0  0  0  3  0  0  0  0  0  0
  193.1350  175.6280  137.7250 C   0  0  0  0  0  0  0  0  0  0  0  0
  187.6680  178.2970  139.1310 C   0  0  0  0  0  2  0  0  0  0  0  0
  190.6570  175.6280  138.0860 N   0  0  0  0  0  0  0  0  0  0  0  0
  188.9480  175.7400  136.3900 C   0  0  1  0  0  3  0  0  0  0  0  0
  193.2170  176.5390  138.6510 N   0  0  0  0  0  0  0  0  0  0  0  0
  186.3890  177.0640  137.3460 C   0  0  0  0  0  3  0  0  0  0  0  0
  187.5390  177.4270  137.9170 C   0  0  0  0  0  0  0  0  0  0  0  0
  188.6190  176.6550  137.4960 N   0  0  0  0  0  0  0  0  0  0  0  0
  190.4190  176.8790  144.2520 C   0  0  0  0  0  3  0  0  0  0  0  0
  189.9690  176.9910  141.5140 C   0  0  0  0  0  0  0  0  0  0  0  0
  189.6580  178.0980  142.3090 C   0  0  0  0  0  3  0  0  0  0  0  0
  189.8870  178.0380  143.6840 C   0  0  0  0  0  3  0  0  0  0  0  0
  190.7130  175.7890  143.4270 C   0  0  0  0  0  3  0  0  0  0  0  0
  190.4820  175.8660  142.0890 N   0  0  0  0  0  0  0  0  0  0  0  0
  1 12  1  0  0  0  0
  2  6  2  0  0  0  0
  2 12  1  0  0  0  0
  3 21  1  1  0  0  0
  3 16  1  0  0  0  0
  4 14  1  0  0  0  0
  5  9  2  0  0  0  0
  5 13  1  0  0  0  0
  7 11  2  0  0  0  0
  8 10  2  0  0  0  0
  9  7  1  0  0  0  0
 10 19  1  0  0  0  0
 11 14  1  0  0  0  0
 11 16  1  0  0  0  0
 12 23  1  1  0  0  0
 13  4  2  0  0  0  0
 14 18  2  0  0  0  0
 15  1  1  0  0  0  0
 16  2  1  0  0  0  0
 17  8  1  1  0  0  0
 17 21  1  0  0  0  0
 17  3  1  0  0  0  0
 18  6  1  0  0  0  0
 19 20  2  0  0  0  0
 20 15  1  0  0  0  0
 21 20  1  0  0  0  0
 23 27  2  0  0  0  0
 23 24  1  0  0  0  0
 24 25  2  0  0  0  0
 25 22  1  0  0  0  0
 26 22  2  0  0  0  0
 27 26  1  0  0  0  0
M  END
>  <MODEL>
4

>  <REMARK>
 VINA RESULT:      -7.6      4.435      8.738
  Name = 
  1 active torsions:
  status: ('A' for Active; 'I' for Inactive)
    1  A    between atoms: C_9  and  C_15
                            x       y       z     vdW  Elec       q    Type
                         _______ _______ _______ _____ _____    ______ ____

>  <TORSDO>
F 1

$$$$
=
 OpenBabel10272401033D

 27 32  0  0  1  0  0  0  0  0999 V2000
  188.9870  178.5550  138.6740 C   0  0  0  0  0  2  0  0  0  0  0  0
  187.1090  178.0380  140.3530 C   0  0  0  0  0  0  0  0  0  0  0  0
  188.7650  177.0670  141.9730 C   0  0  2  0  0  3  0  0  0  0  0  0
  184.4940  179.5670  143.4180 C   0  0  0  0  0  3  0  0  0  0  0  0
  185.0180  178.3800  145.5700 C   0  0  0  0  0  3  0  0  0  0  0  0
  186.0520  178.8220  140.1320 C   0  0  0  0  0  3  0  0  0  0  0  0
  186.7710  177.4860  143.9950 C   0  0  0  0  0  3  0  0  0  0  0  0
  190.9570  177.0970  143.0930 C   0  0  0  0  0  3  0  0  0  0  0  0
  186.0460  177.6020  145.2630 C   0  0  0  0  0  3  0  0  0  0  0  0
  191.9820  176.9070  142.2050 C   0  0  0  0  0  3  0  0  0  0  0  0
  186.5570  178.0430  142.7960 C   0  0  0  0  0  0  0  0  0  0  0  0
  187.9430  177.5390  139.1760 C   0  0  1  0  0  3  0  0  0  0  0  0
  184.3220  179.3370  144.7130 C   0  0  0  0  0  3  0  0  0  0  0  0
  185.4230  178.9530  142.4620 C   0  0  0  0  0  0  0  0  0  0  0  0
  190.4310  178.0380  138.8450 C   0  0  0  0  0  2  0  0  0  0  0  0
  187.4700  177.7130  141.7230 N   0  0  0  0  0  0  0  0  0  0  0  0
  189.6600  177.8090  142.7240 C   0  0  1  0  0  3  0  0  0  0  0  0
  185.2430  179.2900  141.2180 N   0  0  0  0  0  0  0  0  0  0  0  0
  191.9100  177.3070  140.7490 C   0  0  0  0  0  3  0  0  0  0  0  0
  190.7740  177.8390  140.2910 C   0  0  0  0  0  0  0  0  0  0  0  0
  189.7750  177.8920  141.2580 N   0  0  0  0  0  0  0  0  0  0  0  0
  185.6510  175.8950  135.9670 C   0  0  0  0  0  3  0  0  0  0  0  0
  187.1290  176.9590  138.0610 C   0  0  0  0  0  0  0  0  0  0  0  0
  186.2560  177.7840  137.3460 C   0  0  0  0  0  3  0  0  0  0  0  0
  185.5130  177.2450  136.2950 C   0  0  0  0  0  3  0  0  0  0  0  0
  186.5370  175.1020  136.7000 C   0  0  0  0  0  3  0  0  0  0  0  0
  187.2530  175.6450  137.7210 N   0  0  0  0  0  0  0  0  0  0  0  0
  1 15  1  0  0  0  0
  1 12  1  0  0  0  0
  2 16  1  0  0  0  0
  3 21  1  6  0  0  0
  3 17  1  0  0  0  0
  4 13  2  0  0  0  0
  6  2  2  0  0  0  0
  6 18  1  0  0  0  0
  7  9  1  0  0  0  0
  9  5  2  0  0  0  0
 10  8  2  0  0  0  0
 11  7  2  0  0  0  0
 12 23  1  6  0  0  0
 12  2  1  0  0  0  0
 13  5  1  0  0  0  0
 14 11  1  0  0  0  0
 14  4  1  0  0  0  0
 15 20  1  0  0  0  0
 16  3  1  0  0  0  0
 16 11  1  0  0  0  0
 17  8  1  1  0  0  0
 18 14  2  0  0  0  0
 19 10  1  0  0  0  0
 20 19  2  0  0  0  0
 20 21  1  0  0  0  0
 21 17  1  0  0  0  0
 22 25  2  0  0  0  0
 22 26  1  0  0  0  0
 24 23  2  0  0  0  0
 25 24  1  0  0  0  0
 26 27  2  0  0  0  0
 27 23  1  0  0  0  0
M  END
>  <MODEL>
5

>  <REMARK>
 VINA RESULT:      -7.4      2.513      3.912
  Name = 
  1 active torsions:
  status: ('A' for Active; 'I' for Inactive)
    1  A    between atoms: C_9  and  C_15
                            x       y       z     vdW  Elec       q    Type
                         _______ _______ _______ _____ _____    ______ ____

>  <TORSDO>
F 1

$$$$
=
 OpenBabel10272401033D

 27 32  0  0  1  0  0  0  0  0999 V2000
  190.8950  178.3450  141.9880 C   0  0  0  0  0  2  0  0  0  0  0  0
  188.3520  178.0170  142.1770 C   0  0  0  0  0  0  0  0  0  0  0  0
  188.6100  176.9790  144.4500 C   0  0  2  0  0  3  0  0  0  0  0  0
  184.5410  179.8260  143.0610 C   0  0  0  0  0  3  0  0  0  0  0  0
  183.5640  178.6710  145.0680 C   0  0  0  0  0  3  0  0  0  0  0  0
  187.7070  178.8680  141.3760 C   0  0  0  0  0  3  0  0  0  0  0  0
  185.8380  177.6040  144.8590 C   0  0  0  0  0  3  0  0  0  0  0  0
  189.6710  176.8850  146.6690 C   0  0  0  0  0  3  0  0  0  0  0  0
  184.5050  177.8110  145.4310 C   0  0  0  0  0  3  0  0  0  0  0  0
  191.0060  176.5940  146.5800 C   0  0  0  0  0  3  0  0  0  0  0  0
  186.4360  178.1380  143.7870 C   0  0  0  0  0  0  0  0  0  0  0  0
  189.6870  177.4230  141.7360 C   0  0  1  0  0  3  0  0  0  0  0  0
  183.6040  179.6490  143.9830 C   0  0  0  0  0  3  0  0  0  0  0  0
  185.8090  179.1160  142.8510 C   0  0  0  0  0  0  0  0  0  0  0  0
  191.8970  177.7300  142.9890 C   0  0  0  0  0  2  0  0  0  0  0  0
  187.7840  177.7100  143.4790 N   0  0  0  0  0  0  0  0  0  0  0  0
  188.9210  177.6770  145.6030 C   0  0  1  0  0  3  0  0  0  0  0  0
  186.4450  179.4270  141.7590 N   0  0  0  0  0  0  0  0  0  0  0  0
  191.8610  176.9530  145.3850 C   0  0  0  0  0  3  0  0  0  0  0  0
  191.2790  177.5520  144.3430 C   0  0  0  0  0  0  0  0  0  0  0  0
  189.9050  177.7060  144.5080 N   0  0  0  0  0  0  0  0  0  0  0  0
  189.6630  175.8790  137.7520 C   0  0  0  0  0  3  0  0  0  0  0  0
  189.6720  176.8690  140.3450 C   0  0  0  0  0  0  0  0  0  0  0  0
  188.5790  177.1290  139.5130 C   0  0  0  0  0  3  0  0  0  0  0  0
  188.5780  176.6280  138.2110 C   0  0  0  0  0  3  0  0  0  0  0  0
  190.7400  175.6430  138.6100 C   0  0  0  0  0  3  0  0  0  0  0  0
  190.7230  176.1400  139.8760 N   0  0  0  0  0  0  0  0  0  0  0  0
  1 15  1  0  0  0  0
  2 16  1  0  0  0  0
  3 16  1  6  0  0  0
  3 21  1  0  0  0  0
  3 17  1  0  0  0  0
  4 13  2  0  0  0  0
  5  9  2  0  0  0  0
  6 18  1  0  0  0  0
  6  2  2  0  0  0  0
  7  9  1  0  0  0  0
 10  8  2  0  0  0  0
 11  7  2  0  0  0  0
 12 23  1  6  0  0  0
 12  1  1  0  0  0  0
 12  2  1  0  0  0  0
 13  5  1  0  0  0  0
 14  4  1  0  0  0  0
 14 11  1  0  0  0  0
 15 20  1  0  0  0  0
 16 11  1  0  0  0  0
 17  8  1  1  0  0  0
 18 14  2  0  0  0  0
 19 10  1  0  0  0  0
 20 21  1  0  0  0  0
 20 19  2  0  0  0  0
 21 17  1  0  0  0  0
 22 25  2  0  0  0  0
 22 26  1  0  0  0  0
 24 23  2  0  0  0  0
 25 24  1  0  0  0  0
 26 27  2  0  0  0  0
 27 23  1  0  0  0  0
M  END
>  <MODEL>
6

>  <REMARK>
 VINA RESULT:      -7.3      2.869      5.640
  Name = 
  1 active torsions:
  status: ('A' for Active; 'I' for Inactive)
    1  A    between atoms: C_9  and  C_15
                            x       y       z     vdW  Elec       q    Type
                         _______ _______ _______ _____ _____    ______ ____

>  <TORSDO>
F 1

$$$$
=
 OpenBabel10272401033D

 27 32  0  0  1  0  0  0  0  0999 V2000
  187.5600  178.9860  137.7360 C   0  0  0  0  0  2  0  0  0  0  0  0
  186.2650  178.3240  139.8560 C   0  0  0  0  0  0  0  0  0  0  0  0
  188.3170  177.2480  140.8260 C   0  0  2  0  0  3  0  0  0  0  0  0
  184.7090  179.5890  143.6700 C   0  0  0  0  0  3  0  0  0  0  0  0
  185.8380  178.2460  145.4700 C   0  0  0  0  0  3  0  0  0  0  0  0
  185.2010  179.1110  140.0230 C   0  0  0  0  0  3  0  0  0  0  0  0
  187.0260  177.4920  143.3790 C   0  0  0  0  0  3  0  0  0  0  0  0
  190.7430  177.2140  141.2370 C   0  0  0  0  0  3  0  0  0  0  0  0
  186.7150  177.5030  144.8110 C   0  0  0  0  0  3  0  0  0  0  0  0
  191.4530  177.1020  140.0720 C   0  0  0  0  0  3  0  0  0  0  0  0
  186.4700  178.1370  142.3460 C   0  0  0  0  0  0  0  0  0  0  0  0
  186.7010  177.9240  138.4490 C   0  0  1  0  0  3  0  0  0  0  0  0
  184.9300  179.2590  144.9360 C   0  0  0  0  0  3  0  0  0  0  0  0
  185.3000  179.0580  142.4360 C   0  0  0  0  0  0  0  0  0  0  0  0
  188.9820  178.4720  137.4270 C   0  0  0  0  0  2  0  0  0  0  0  0
  187.0150  177.8990  141.0260 N   0  0  0  0  0  0  0  0  0  0  0  0
  189.4050  177.9390  141.3290 C   0  0  1  0  0  3  0  0  0  0  0  0
  184.7610  179.4880  141.3330 N   0  0  0  0  0  0  0  0  0  0  0  0
  190.9530  177.6120  138.7380 C   0  0  0  0  0  3  0  0  0  0  0  0
  189.7400  178.1660  138.6830 C   0  0  0  0  0  0  0  0  0  0  0  0
  189.0770  178.1350  139.9070 N   0  0  0  0  0  0  0  0  0  0  0  0
  183.5260  176.4550  135.9960 C   0  0  0  0  0  3  0  0  0  0  0  0
  185.5830  177.4240  137.5890 C   0  0  0  0  0  0  0  0  0  0  0  0
  185.7420  177.3960  136.2010 C   0  0  0  0  0  3  0  0  0  0  0  0
  184.7060  176.9100  135.4030 C   0  0  0  0  0  3  0  0  0  0  0  0
  183.4030  176.4930  137.3870 C   0  0  0  0  0  3  0  0  0  0  0  0
  184.4250  176.9700  138.1480 N   0  0  0  0  0  0  0  0  0  0  0  0
  1 12  1  0  0  0  0
  2  6  2  0  0  0  0
  2 16  1  0  0  0  0
  3 21  1  6  0  0  0
  3 16  1  0  0  0  0
  3 17  1  0  0  0  0
  4 13  2  0  0  0  0
  6 18  1  0  0  0  0
  7  9  1  0  0  0  0
  9  5  2  0  0  0  0
 10  8  2  0  0  0  0
 11 14  1  0  0  0  0
 11  7  2  0  0  0  0
 12 23  1  6  0  0  0
 12  2  1  0  0  0  0
 13  5  1  0  0  0  0
 14  4  1  0  0  0  0
 15  1  1  0  0  0  0
 15 20  1  0  0  0  0
 16 11  1  0  0  0  0
 17  8  1  6  0  0  0
 18 14  2  0  0  0  0
 19 10  1  0  0  0  0
 20 19  2  0  0  0  0
 20 21  1  0  0  0  0
 21 17  1  0  0  0  0
 22 26  1  0  0  0  0
 23 27  1  0  0  0  0
 24 23  2  0  0  0  0
 25 22  2  0  0  0  0
 25 24  1  0  0  0  0
 26 27  2  0  0  0  0
M  END
>  <MODEL>
7

>  <REMARK>
 VINA RESULT:      -7.0      2.050      3.128
  Name = 
  1 active torsions:
  status: ('A' for Active; 'I' for Inactive)
    1  A    between atoms: C_9  and  C_15
                            x       y       z     vdW  Elec       q    Type
                         _______ _______ _______ _____ _____    ______ ____

>  <TORSDO>
F 1

$$$$
=
 OpenBabel10272401033D

 27 32  0  0  1  0  0  0  0  0999 V2000
  188.8610  177.2650  135.4950 C   0  0  0  0  0  2  0  0  0  0  0  0
  188.4740  176.9620  138.0190 C   0  0  0  0  0  0  0  0  0  0  0  0
  190.7130  175.8520  138.2730 C   0  0  2  0  0  3  0  0  0  0  0  0
  188.5550  178.7870  141.9210 C   0  0  0  0  0  3  0  0  0  0  0  0
  190.2580  177.5840  143.3230 C   0  0  0  0  0  3  0  0  0  0  0  0
  187.5790  177.8440  138.4670 C   0  0  0  0  0  3  0  0  0  0  0  0
  190.5210  176.4970  141.0640 C   0  0  0  0  0  3  0  0  0  0  0  0
  193.1060  175.6780  137.7280 C   0  0  0  0  0  3  0  0  0  0  0  0
  190.7920  176.7020  142.4890 C   0  0  0  0  0  3  0  0  0  0  0  0
  193.3050  175.3740  136.4080 C   0  0  0  0  0  3  0  0  0  0  0  0
  189.6250  177.0560  140.2420 C   0  0  0  0  0  0  0  0  0  0  0  0
  188.3190  176.3650  136.6230 C   0  0  1  0  0  3  0  0  0  0  0  0
  189.2410  178.5940  143.0400 C   0  0  0  0  0  3  0  0  0  0  0  0
  188.6060  178.0700  140.6420 C   0  0  0  0  0  0  0  0  0  0  0  0
  190.0370  176.6080  134.7420 C   0  0  0  0  0  2  0  0  0  0  0  0
  189.6080  176.6210  138.8610 N   0  0  0  0  0  0  0  0  0  0  0  0
  191.9280  176.5110  138.2210 C   0  0  1  0  0  3  0  0  0  0  0  0
  187.6920  178.4060  139.7800 N   0  0  0  0  0  0  0  0  0  0  0  0
  192.3400  175.7590  135.3080 C   0  0  0  0  0  3  0  0  0  0  0  0
  191.2150  176.3960  135.6440 C   0  0  0  0  0  0  0  0  0  0  0  0
  191.0790  176.5610  137.0190 N   0  0  0  0  0  0  0  0  0  0  0  0
  184.4040  174.8830  135.7640 C   0  0  0  0  0  3  0  0  0  0  0  0
  186.9420  175.8550  136.3330 C   0  0  0  0  0  0  0  0  0  0  0  0
  186.1540  176.5030  135.3770 C   0  0  0  0  0  3  0  0  0  0  0  0
  184.8790  176.0130  135.0950 C   0  0  0  0  0  3  0  0  0  0  0  0
  185.2200  174.2580  136.7100 C   0  0  0  0  0  3  0  0  0  0  0  0
  186.4610  174.7500  136.9710 N   0  0  0  0  0  0  0  0  0  0  0  0
  1 12  1  0  0  0  0
  2  6  2  0  0  0  0
  2 16  1  0  0  0  0
  3 21  1  6  0  0  0
  3 16  1  0  0  0  0
  4 13  2  0  0  0  0
  6 18  1  0  0  0  0
  7  9  1  0  0  0  0
  9  5  2  0  0  0  0
 10  8  2  0  0  0  0
 11 14  1  0  0  0  0
 11  7  2  0  0  0  0
 12 23  1  6  0  0  0
 12  2  1  0  0  0  0
 13  5  1  0  0  0  0
 14  4  1  0  0  0  0
 15  1  1  0  0  0  0
 15 20  1  0  0  0  0
 16 11  1  0  0  0  0
 17  8  1  6  0  0  0
 17  3  1  0  0  0  0
 18 14  2  0  0  0  0
 19 20  2  0  0  0  0
 19 10  1  0  0  0  0
 20 21  1  0  0  0  0
 21 17  1  0  0  0  0
 22 26  1  0  0  0  0
 23 27  1  0  0  0  0
 24 23  2  0  0  0  0
 25 24  1  0  0  0  0
 25 22  2  0  0  0  0
 26 27  2  0  0  0  0
M  END
>  <MODEL>
8

>  <REMARK>
 VINA RESULT:      -6.8      4.057      5.762
  Name = 
  1 active torsions:
  status: ('A' for Active; 'I' for Inactive)
    1  A    between atoms: C_9  and  C_15
                            x       y       z     vdW  Elec       q    Type
                         _______ _______ _______ _____ _____    ______ ____

>  <TORSDO>
F 1

$$$$
=
 OpenBabel10272401033D

 27 32  0  0  1  0  0  0  0  0999 V2000
  188.1090  176.1100  143.3320 C   0  0  0  0  0  2  0  0  0  0  0  0
  190.2330  176.6450  144.6770 C   0  0  0  0  0  0  0  0  0  0  0  0
  188.9430  178.1830  146.1870 C   0  0  2  0  0  3  0  0  0  0  0  0
  192.9690  175.3670  147.7520 C   0  0  0  0  0  3  0  0  0  0  0  0
  192.8860  177.0370  149.6280 C   0  0  0  0  0  3  0  0  0  0  0  0
  191.1350  175.6720  144.5390 C   0  0  0  0  0  3  0  0  0  0  0  0
  191.0940  177.8650  148.0610 C   0  0  0  0  0  3  0  0  0  0  0  0
  186.9250  178.7390  147.4820 C   0  0  0  0  0  3  0  0  0  0  0  0
  191.9470  177.8930  149.2520 C   0  0  0  0  0  3  0  0  0  0  0  0
  185.8340  178.9090  146.6710 C   0  0  0  0  0  3  0  0  0  0  0  0
  191.0780  177.0480  147.0010 C   0  0  0  0  0  0  0  0  0  0  0  0
  189.3380  177.0230  143.5000 C   0  0  1  0  0  3  0  0  0  0  0  0
  193.3310  175.8250  148.9440 C   0  0  0  0  0  3  0  0  0  0  0  0
  192.0230  175.9170  146.7730 C   0  0  0  0  0  0  0  0  0  0  0  0
  186.7830  176.8790  143.5160 C   0  0  0  0  0  2  0  0  0  0  0  0
  190.0940  177.2970  145.9690 N   0  0  0  0  0  0  0  0  0  0  0  0
  188.0530  177.7650  147.1620 C   0  0  1  0  0  3  0  0  0  0  0  0
  191.9990  175.3080  145.6230 N   0  0  0  0  0  0  0  0  0  0  0  0
  185.6680  178.2140  145.3380 C   0  0  0  0  0  3  0  0  0  0  0  0
  186.6530  177.4220  144.9070 C   0  0  0  0  0  0  0  0  0  0  0  0
  187.7470  177.4050  145.7670 N   0  0  0  0  0  0  0  0  0  0  0  0
  191.4500  177.6360  139.8370 C   0  0  0  0  0  3  0  0  0  0  0  0
  190.0800  177.2230  142.2160 C   0  0  0  0  0  0  0  0  0  0  0  0
  189.3770  177.2240  141.0080 C   0  0  0  0  0  3  0  0  0  0  0  0
  190.0690  177.4310  139.8140 C   0  0  0  0  0  3  0  0  0  0  0  0
  192.1200  177.6340  141.0630 C   0  0  0  0  0  3  0  0  0  0  0  0
  191.4270  177.4310  142.2170 N   0  0  0  0  0  0  0  0  0  0  0  0
  1 12  1  0  0  0  0
  1 15  1  0  0  0  0
  2 16  1  0  0  0  0
  3 21  1  6  0  0  0
  3 17  1  0  0  0  0
  4 13  2  0  0  0  0
  6  2  2  0  0  0  0
  6 18  1  0  0  0  0
  7  9  1  0  0  0  0
  9  5  2  0  0  0  0
 10  8  2  0  0  0  0
 11  7  2  0  0  0  0
 12 23  1  6  0  0  0
 12  2  1  0  0  0  0
 13  5  1  0  0  0  0
 14 11  1  0  0  0  0
 14  4  1  0  0  0  0
 15 20  1  0  0  0  0
 16  3  1  0  0  0  0
 16 11  1  0  0  0  0
 17  8  1  6  0  0  0
 18 14  2  0  0  0  0
 19 10  1  0  0  0  0
 20 19  2  0  0  0  0
 20 21  1  0  0  0  0
 21 17  1  0  0  0  0
 22 26  1  0  0  0  0
 23 27  1  0  0  0  0
 24 23  2  0  0  0  0
 25 22  2  0  0  0  0
 25 24  1  0  0  0  0
 26 27  2  0  0  0  0
M  END
>  <MODEL>
9

>  <REMARK>
 VINA RESULT:      -6.6      3.754      7.134
  Name = 
  1 active torsions:
  status: ('A' for Active; 'I' for Inactive)
    1  A    between atoms: C_9  and  C_15
                            x       y       z     vdW  Elec       q    Type
                         _______ _______ _______ _____ _____    ______ ____

>  <TORSDO>
F 1

$$$$
