=
 OpenBabel10272413213D

 32 34  0  0  1  0  0  0  0  0999 V2000
  187.7260  178.0090  142.4000 N   0  0  2  0  0  0  0  0  0  0  0  0
  184.2330  179.0600  145.7000 C   0  0  0  0  0  2  0  0  0  0  0  0
  185.2330  178.5160  146.7290 C   0  0  0  0  0  2  0  0  0  0  0  0
  187.3270  177.9740  139.9690 C   0  0  2  0  0  3  0  0  0  0  0  0
  185.3660  178.0170  141.5690 C   0  0  0  0  0  2  0  0  0  0  0  0
  185.2000  178.8690  139.3490 F   0  0  0  0  0  0  0  0  0  0  0  0
  184.4670  178.3770  144.3520 C   0  0  0  0  0  2  0  0  0  0  0  0
  186.3260  177.6870  142.7360 C   0  0  2  0  0  3  0  0  0  0  0  0
  185.9520  178.4590  143.9920 C   0  0  2  0  0  3  0  0  0  0  0  0
  188.1840  177.6630  144.8560 C   0  0  0  0  0  0  0  0  0  0  0  0
  186.0700  178.7290  140.4140 C   0  0  2  0  0  3  0  0  0  0  0  0
  186.5570  178.7190  146.2890 O   0  0  0  0  0  0  0  0  0  0  0  0
  186.7300  177.8850  145.1690 C   0  0  1  0  0  3  0  0  0  0  0  0
  188.9430  177.1890  145.8110 C   0  0  0  0  0  0  0  0  0  0  0  0
  188.0470  177.3160  141.1520 C   0  0  0  0  0  2  0  0  0  0  0  0
  188.6870  177.5510  143.4250 C   0  0  2  0  0  3  0  0  0  0  0  0
  189.7050  176.7210  146.7580 C   0  0  0  0  0  3  0  0  0  0  0  0
  189.1580  179.7890  137.3580 O   0  0  0  0  0  0  0  0  0  0  0  0
  188.3500  178.9710  137.8670 C   0  0  0  0  0  0  0  0  0  0  0  0
  188.2260  178.8980  139.2900 N   0  0  0  0  0  2  0  0  0  0  0  0
  187.5130  178.1180  136.9720 C   0  0  0  0  0  2  0  0  0  0  0  0
  188.3800  177.0720  136.2960 C   0  0  0  0  0  2  0  0  0  0  0  0
  188.5150  175.8850  137.1810 C   0  0  0  0  0  0  0  0  0  0  0  0
  189.7160  175.6370  137.8340 O   0  0  0  0  0  1  0  0  0  0  0  0
  187.5310  175.1210  137.3650 O   0  0  0  0  0  0  0  0  0  0  0  0
  191.9440  175.2810  145.7830 O   0  0  0  0  0  1  0  0  0  0  0  0
  191.4790  176.7170  146.5510 P   0  0  1  0  0  0  0  0  0  0  0  0
  191.8790  177.9000  145.6980 O   0  0  0  0  0  0  0  0  0  0  0  0
  192.2130  176.8290  148.0760 O   0  0  0  0  0  0  0  0  0  0  0  0
  192.8870  175.6200  148.2550 C   0  0  0  0  0  1  0  0  0  0  0  0
  189.9840  178.3480  143.2890 C   0  0  0  0  0  2  0  0  0  0  0  0
  191.0170  177.5580  142.5080 C   0  0  0  0  0  1  0  0  0  0  0  0
  1 15  1  6  0  0  0
  1  8  1  0  0  0  0
  1 16  1  0  0  0  0
  2  3  1  0  0  0  0
  4 20  1  1  0  0  0
  4 11  1  0  0  0  0
  4 15  1  0  0  0  0
  7  2  1  0  0  0  0
  8  5  1  6  0  0  0
  8  9  1  0  0  0  0
  9  7  1  1  0  0  0
  9 13  1  0  0  0  0
 10 14  2  0  0  0  0
 11  6  1  6  0  0  0
 11  5  1  0  0  0  0
 12  3  1  0  0  0  0
 13 10  1  6  0  0  0
 13 12  1  0  0  0  0
 14 17  2  0  0  0  0
 16 31  1  1  0  0  0
 16 10  1  0  0  0  0
 18 19  2  0  0  0  0
 19 20  1  0  0  0  0
 21 19  1  0  0  0  0
 22 21  1  0  0  0  0
 22 23  1  0  0  0  0
 23 25  2  0  0  0  0
 23 24  1  0  0  0  0
 26 27  1  0  0  0  0
 27 28  2  6  0  0  0
 27 17  1  0  0  0  0
 27 29  1  0  0  0  0
 29 30  1  0  0  0  0
 32 31  1  0  0  0  0
M  END
>  <MODEL>
1

>  <REMARK>
 VINA RESULT:      -7.7      0.000      0.000
  Name = 
  7 active torsions:
  status: ('A' for Active; 'I' for Inactive)
    1  A    between atoms: C_1  and  C_10
    2  A    between atoms: C_6  and  C_31
    3  A    between atoms: C_8  and  N_23
    4  A    between atoms: C_10  and  C_24
    5  A    between atoms: P_11  and  O_18
    6  A    between atoms: P_11  and  C_32
    7  A    between atoms: C_19  and  C_24
                            x       y       z     vdW  Elec       q    Type
                         _______ _______ _______ _____ _____    ______ ____

>  <TORSDO>
F 7

$$$$
=
 OpenBabel10272413213D

 32 34  0  0  1  0  0  0  0  0999 V2000
  186.7220  178.0900  143.5020 N   0  0  2  0  0  0  0  0  0  0  0  0
  191.0790  177.5720  145.7260 C   0  0  0  0  0  2  0  0  0  0  0  0
  191.6110  177.2840  144.3150 C   0  0  0  0  0  2  0  0  0  0  0  0
  184.5820  178.1820  144.7200 C   0  0  2  0  0  3  0  0  0  0  0  0
  186.6770  177.4050  145.9090 C   0  0  0  0  0  2  0  0  0  0  0  0
  184.8500  178.3830  147.0850 F   0  0  0  0  0  0  0  0  0  0  0  0
  189.6110  177.1510  145.8130 C   0  0  0  0  0  2  0  0  0  0  0  0
  187.3950  177.2900  144.5430 C   0  0  2  0  0  3  0  0  0  0  0  0
  188.8390  177.7570  144.6390 C   0  0  2  0  0  3  0  0  0  0  0  0
  188.7860  177.6570  142.1190 C   0  0  0  0  0  0  0  0  0  0  0  0
  185.5410  178.4270  145.8890 C   0  0  2  0  0  3  0  0  0  0  0  0
  190.8400  177.9590  143.3470 O   0  0  0  0  0  0  0  0  0  0  0  0
  189.5700  177.3520  143.3650 C   0  0  1  0  0  3  0  0  0  0  0  0
  189.3390  177.3640  140.9700 C   0  0  0  0  0  0  0  0  0  0  0  0
  185.3190  177.6780  143.4730 C   0  0  0  0  0  2  0  0  0  0  0  0
  187.2810  177.8700  142.1520 C   0  0  2  0  0  3  0  0  0  0  0  0
  189.8830  177.0770  139.8220 C   0  0  0  0  0  3  0  0  0  0  0  0
  181.9730  180.5630  143.7230 O   0  0  0  0  0  0  0  0  0  0  0  0
  182.5110  179.4540  143.9780 C   0  0  0  0  0  0  0  0  0  0  0  0
  183.8730  179.4170  144.4150 N   0  0  0  0  0  2  0  0  0  0  0  0
  181.7030  178.2050  143.8530 C   0  0  0  0  0  2  0  0  0  0  0  0
  180.2880  178.5450  143.4280 C   0  0  0  0  0  2  0  0  0  0  0  0
  180.1390  178.3340  141.9630 C   0  0  0  0  0  0  0  0  0  0  0  0
  180.2070  179.4150  141.0940 O   0  0  0  0  0  0  0  0  0  0  0  0
  179.9820  177.1710  141.5080 O   0  0  0  0  0  1  0  0  0  0  0  0
  187.6380  176.9420  138.0970 O   0  0  0  0  0  0  0  0  0  0  0  0
  189.1460  177.6820  138.3120 P   0  0  1  0  0  0  0  0  0  0  0  0
  188.9650  179.1790  138.4170 O   0  0  0  0  0  1  0  0  0  0  0  0
  190.1700  177.3130  137.0110 O   0  0  0  0  0  0  0  0  0  0  0  0
  191.2830  176.6900  137.5780 C   0  0  0  0  0  1  0  0  0  0  0  0
  186.9250  179.0610  141.2620 C   0  0  0  0  0  2  0  0  0  0  0  0
  185.6770  178.7690  140.4520 C   0  0  0  0  0  1  0  0  0  0  0  0
  1 15  1  6  0  0  0
  1  8  1  0  0  0  0
  2  7  1  0  0  0  0
  3  2  1  0  0  0  0
  4 20  1  6  0  0  0
  4 11  1  0  0  0  0
  8  9  1  0  0  0  0
  8  5  1  1  0  0  0
  9  7  1  1  0  0  0
 10 16  1  0  0  0  0
 11  5  1  0  0  0  0
 11  6  1  1  0  0  0
 12 13  1  0  0  0  0
 12  3  1  0  0  0  0
 13 10  1  6  0  0  0
 13  9  1  0  0  0  0
 14 10  2  0  0  0  0
 15  4  1  0  0  0  0
 16 31  1  6  0  0  0
 16  1  1  0  0  0  0
 17 14  2  0  0  0  0
 18 19  2  0  0  0  0
 19 20  1  0  0  0  0
 21 19  1  0  0  0  0
 22 21  1  0  0  0  0
 23 22  1  0  0  0  0
 24 23  2  0  0  0  0
 25 23  1  0  0  0  0
 27 26  2  6  0  0  0
 27 28  1  0  0  0  0
 27 17  1  0  0  0  0
 29 30  1  0  0  0  0
 29 27  1  0  0  0  0
 32 31  1  0  0  0  0
M  END
>  <MODEL>
2

>  <REMARK>
 VINA RESULT:      -7.0      3.663      7.144
  Name = 
  7 active torsions:
  status: ('A' for Active; 'I' for Inactive)
    1  A    between atoms: C_1  and  C_10
    2  A    between atoms: C_6  and  C_31
    3  A    between atoms: C_8  and  N_23
    4  A    between atoms: C_10  and  C_24
    5  A    between atoms: P_11  and  O_18
    6  A    between atoms: P_11  and  C_32
    7  A    between atoms: C_19  and  C_24
                            x       y       z     vdW  Elec       q    Type
                         _______ _______ _______ _____ _____    ______ ____

>  <TORSDO>
F 7

$$$$
=
 OpenBabel10272413213D

 32 34  0  0  1  0  0  0  0  0999 V2000
  189.4540  177.5380  139.6540 N   0  0  2  0  0  0  0  0  0  0  0  0
  190.0170  177.1920  134.7800 C   0  0  0  0  0  2  0  0  0  0  0  0
  188.4850  177.2660  134.7350 C   0  0  0  0  0  2  0  0  0  0  0  0
  191.2660  177.0920  141.2630 C   0  0  2  0  0  3  0  0  0  0  0  0
  191.5240  176.3890  138.8450 C   0  0  0  0  0  2  0  0  0  0  0  0
  193.4070  176.8540  140.2300 F   0  0  0  0  0  0  0  0  0  0  0  0
  190.4580  176.5650  136.1030 C   0  0  0  0  0  2  0  0  0  0  0  0
  190.0150  176.6480  138.6210 C   0  0  2  0  0  3  0  0  0  0  0  0
  189.7610  177.2800  137.2620 C   0  0  2  0  0  3  0  0  0  0  0  0
  187.4330  177.6770  138.1510 C   0  0  0  0  0  0  0  0  0  0  0  0
  192.0990  177.2290  139.9850 C   0  0  2  0  0  3  0  0  0  0  0  0
  187.9920  178.0070  135.8290 O   0  0  0  0  0  0  0  0  0  0  0  0
  188.2650  177.2400  136.9770 C   0  0  1  0  0  3  0  0  0  0  0  0
  186.1340  177.6960  137.9990 C   0  0  0  0  0  0  0  0  0  0  0  0
  189.7700  176.9520  140.9570 C   0  0  0  0  0  2  0  0  0  0  0  0
  187.9850  177.6700  139.5690 C   0  0  2  0  0  3  0  0  0  0  0  0
  184.8400  177.7200  137.8540 C   0  0  0  0  0  3  0  0  0  0  0  0
  191.7370  179.2390  144.2010 O   0  0  0  0  0  0  0  0  0  0  0  0
  191.5470  178.1870  143.5390 C   0  0  0  0  0  0  0  0  0  0  0  0
  191.4940  178.2540  142.1110 N   0  0  0  0  0  2  0  0  0  0  0  0
  191.4160  176.8850  144.2580 C   0  0  0  0  0  2  0  0  0  0  0  0
  190.2150  176.9260  145.1850 C   0  0  0  0  0  2  0  0  0  0  0  0
  190.6730  176.9150  146.6000 C   0  0  0  0  0  0  0  0  0  0  0  0
  192.0110  176.6940  146.8970 O   0  0  0  0  0  0  0  0  0  0  0  0
  189.8520  177.1390  147.5280 O   0  0  0  0  0  1  0  0  0  0  0  0
  184.4500  180.0410  139.4340 O   0  0  0  0  0  1  0  0  0  0  0  0
  183.8210  178.5060  139.0920 P   0  0  1  0  0  0  0  0  0  0  0  0
  182.4130  178.6440  138.5580 O   0  0  0  0  0  0  0  0  0  0  0  0
  183.8170  177.5500  140.4930 O   0  0  0  0  0  0  0  0  0  0  0  0
  183.3100  178.3690  141.5030 C   0  0  0  0  0  1  0  0  0  0  0  0
  187.5530  178.9540  140.2780 C   0  0  0  0  0  2  0  0  0  0  0  0
  186.9130  178.6360  141.6150 C   0  0  0  0  0  1  0  0  0  0  0  0
  1 15  1  1  0  0  0
  2  7  1  0  0  0  0
  3  2  1  0  0  0  0
  3 12  1  0  0  0  0
  4 20  1  1  0  0  0
  5 11  1  0  0  0  0
  8  5  1  1  0  0  0
  8  1  1  0  0  0  0
  9  7  1  6  0  0  0
  9  8  1  0  0  0  0
 10 16  1  0  0  0  0
 11  6  1  1  0  0  0
 11  4  1  0  0  0  0
 13 12  1  6  0  0  0
 13  9  1  0  0  0  0
 13 10  1  0  0  0  0
 14 10  2  0  0  0  0
 15  4  1  0  0  0  0
 16  1  1  0  0  0  0
 16 31  1  6  0  0  0
 17 14  2  0  0  0  0
 17 27  1  0  0  0  0
 19 18  2  0  0  0  0
 19 21  1  0  0  0  0
 20 19  1  0  0  0  0
 21 22  1  0  0  0  0
 22 23  1  0  0  0  0
 23 24  2  0  0  0  0
 23 25  1  0  0  0  0
 27 28  2  6  0  0  0
 27 26  1  0  0  0  0
 27 29  1  0  0  0  0
 29 30  1  0  0  0  0
 31 32  1  0  0  0  0
M  END
>  <MODEL>
3

>  <REMARK>
 VINA RESULT:      -6.8      3.520      8.602
  Name = 
  7 active torsions:
  status: ('A' for Active; 'I' for Inactive)
    1  A    between atoms: C_1  and  C_10
    2  A    between atoms: C_6  and  C_31
    3  A    between atoms: C_8  and  N_23
    4  A    between atoms: C_10  and  C_24
    5  A    between atoms: P_11  and  O_18
    6  A    between atoms: P_11  and  C_32
    7  A    between atoms: C_19  and  C_24
                            x       y       z     vdW  Elec       q    Type
                         _______ _______ _______ _____ _____    ______ ____

>  <TORSDO>
F 7

$$$$
=
 OpenBabel10272413213D

 32 34  0  0  1  0  0  0  0  0999 V2000
  186.4390  178.1540  143.2210 N   0  0  2  0  0  0  0  0  0  0  0  0
  189.4740  176.9040  139.5570 C   0  0  0  0  0  2  0  0  0  0  0  0
  190.5430  176.8170  140.6550 C   0  0  0  0  0  2  0  0  0  0  0  0
  184.1930  179.1000  142.8570 C   0  0  2  0  0  3  0  0  0  0  0  0
  185.8390  178.9830  140.9370 C   0  0  0  0  0  2  0  0  0  0  0  0
  183.4830  178.9950  140.5780 F   0  0  0  0  0  0  0  0  0  0  0  0
  188.4110  177.9270  139.9610 C   0  0  0  0  0  2  0  0  0  0  0  0
  186.9710  178.6630  141.9430 C   0  0  2  0  0  3  0  0  0  0  0  0
  187.9290  177.6240  141.3810 C   0  0  2  0  0  3  0  0  0  0  0  0
  188.8280  177.5320  143.7360 C   0  0  0  0  0  0  0  0  0  0  0  0
  184.4630  178.5590  141.4500 C   0  0  2  0  0  3  0  0  0  0  0  0
  189.9570  176.4680  141.8900 O   0  0  0  0  0  0  0  0  0  0  0  0
  189.1640  177.5660  142.2710 C   0  0  1  0  0  3  0  0  0  0  0  0
  189.8230  177.4620  144.5830 C   0  0  0  0  0  0  0  0  0  0  0  0
  185.4670  179.1310  143.7110 C   0  0  0  0  0  2  0  0  0  0  0  0
  187.4780  177.9990  144.2590 C   0  0  2  0  0  3  0  0  0  0  0  0
  190.8080  177.3900  145.4320 C   0  0  0  0  0  3  0  0  0  0  0  0
  180.9900  177.8840  144.1700 O   0  0  0  0  0  0  0  0  0  0  0  0
  181.8010  178.6470  143.5850 C   0  0  0  0  0  0  0  0  0  0  0  0
  183.1800  178.2760  143.5020 N   0  0  0  0  0  2  0  0  0  0  0  0
  181.2990  179.9070  142.9610 C   0  0  0  0  0  2  0  0  0  0  0  0
  179.9840  179.6430  142.2510 C   0  0  0  0  0  2  0  0  0  0  0  0
  180.2360  179.3950  140.8060 C   0  0  0  0  0  0  0  0  0  0  0  0
  179.9850  178.1420  140.2620 O   0  0  0  0  0  1  0  0  0  0  0  0
  180.6450  180.3300  140.0700 O   0  0  0  0  0  0  0  0  0  0  0  0
  189.4290  178.2290  147.7620 O   0  0  0  0  0  1  0  0  0  0  0  0
  190.4750  177.0450  147.1530 P   0  0  1  0  0  0  0  0  0  0  0  0
  189.8230  175.6850  147.2670 O   0  0  0  0  0  0  0  0  0  0  0  0
  191.9370  177.0580  148.0120 O   0  0  0  0  0  0  0  0  0  0  0  0
  192.4680  175.7750  147.8650 C   0  0  0  0  0  1  0  0  0  0  0  0
  186.9860  177.0120  145.3190 C   0  0  0  0  0  2  0  0  0  0  0  0
  186.4520  177.7530  146.5300 C   0  0  0  0  0  1  0  0  0  0  0  0
  1 15  1  1  0  0  0
  1 16  1  0  0  0  0
  2  7  1  0  0  0  0
  2  3  1  0  0  0  0
  3 12  1  0  0  0  0
  4 20  1  1  0  0  0
  4 15  1  0  0  0  0
  5 11  1  0  0  0  0
  8  5  1  6  0  0  0
  8  1  1  0  0  0  0
  9  7  1  6  0  0  0
  9  8  1  0  0  0  0
  9 13  1  0  0  0  0
 10 16  1  0  0  0  0
 10 14  2  0  0  0  0
 11  6  1  6  0  0  0
 11  4  1  0  0  0  0
 13 12  1  6  0  0  0
 13 10  1  0  0  0  0
 14 17  2  0  0  0  0
 16 31  1  1  0  0  0
 17 27  1  0  0  0  0
 19 18  2  0  0  0  0
 20 19  1  0  0  0  0
 21 19  1  0  0  0  0
 22 21  1  0  0  0  0
 23 22  1  0  0  0  0
 24 23  1  0  0  0  0
 25 23  2  0  0  0  0
 27 28  2  1  0  0  0
 27 26  1  0  0  0  0
 27 29  1  0  0  0  0
 30 29  1  0  0  0  0
 31 32  1  0  0  0  0
M  END
>  <MODEL>
4

>  <REMARK>
 VINA RESULT:      -6.8      3.341      5.831
  Name = 
  7 active torsions:
  status: ('A' for Active; 'I' for Inactive)
    1  A    between atoms: C_1  and  C_10
    2  A    between atoms: C_6  and  C_31
    3  A    between atoms: C_8  and  N_23
    4  A    between atoms: C_10  and  C_24
    5  A    between atoms: P_11  and  O_18
    6  A    between atoms: P_11  and  C_32
    7  A    between atoms: C_19  and  C_24
                            x       y       z     vdW  Elec       q    Type
                         _______ _______ _______ _____ _____    ______ ____

>  <TORSDO>
F 7

$$$$
=
 OpenBabel10272413213D

 32 34  0  0  1  0  0  0  0  0999 V2000
  190.9950  176.5650  138.2520 N   0  0  2  0  0  0  0  0  0  0  0  0
  186.4130  178.1500  137.4170 C   0  0  0  0  0  2  0  0  0  0  0  0
  186.3280  178.2860  138.9440 C   0  0  0  0  0  2  0  0  0  0  0  0
  192.3800  175.4620  136.5380 C   0  0  2  0  0  3  0  0  0  0  0  0
  189.8960  175.7600  136.1530 C   0  0  0  0  0  2  0  0  0  0  0  0
  191.4390  175.5790  134.3460 F   0  0  0  0  0  0  0  0  0  0  0  0
  187.4000  177.0380  137.0590 C   0  0  0  0  0  2  0  0  0  0  0  0
  189.7210  176.1360  137.6430 C   0  0  2  0  0  3  0  0  0  0  0  0
  188.7120  177.2610  137.8130 C   0  0  2  0  0  3  0  0  0  0  0  0
  189.5750  177.3520  140.1820 C   0  0  0  0  0  0  0  0  0  0  0  0
  191.3010  176.0640  135.6330 C   0  0  2  0  0  3  0  0  0  0  0  0
  187.6010  178.5530  139.4890 O   0  0  0  0  0  0  0  0  0  0  0  0
  188.3640  177.3870  139.2910 C   0  0  1  0  0  3  0  0  0  0  0  0
  189.3800  177.4730  141.4710 C   0  0  0  0  0  0  0  0  0  0  0  0
  191.9720  175.5030  138.0170 C   0  0  0  0  0  2  0  0  0  0  0  0
  190.8980  176.7690  139.7120 C   0  0  2  0  0  3  0  0  0  0  0  0
  189.1960  177.5950  142.7540 C   0  0  0  0  0  3  0  0  0  0  0  0
  195.9340  176.2430  136.0660 O   0  0  0  0  0  0  0  0  0  0  0  0
  194.8990  175.5440  136.2200 C   0  0  0  0  0  0  0  0  0  0  0  0
  193.6280  176.1870  136.3450 N   0  0  0  0  0  2  0  0  0  0  0  0
  195.0190  174.0560  136.2320 C   0  0  0  0  0  2  0  0  0  0  0  0
  196.1730  173.6380  137.1230 C   0  0  0  0  0  2  0  0  0  0  0  0
  195.7460  173.6690  138.5470 C   0  0  0  0  0  0  0  0  0  0  0  0
  195.9390  174.8150  139.3060 O   0  0  0  0  0  1  0  0  0  0  0  0
  195.1780  172.6670  139.0550 O   0  0  0  0  0  0  0  0  0  0  0  0
  191.8400  176.8010  143.3970 O   0  0  0  0  0  0  0  0  0  0  0  0
  190.5940  177.8630  143.8320 P   0  0  1  0  0  0  0  0  0  0  0  0
  191.0700  179.2900  143.6790 O   0  0  0  0  0  1  0  0  0  0  0  0
  190.1180  177.5810  145.4350 O   0  0  0  0  0  0  0  0  0  0  0  0
  191.1880  176.9100  146.0300 C   0  0  0  0  0  1  0  0  0  0  0  0
  192.0360  177.6830  140.1680 C   0  0  0  0  0  2  0  0  0  0  0  0
  193.3780  177.0070  139.9630 C   0  0  0  0  0  1  0  0  0  0  0  0
  1 15  1  1  0  0  0
  1 16  1  0  0  0  0
  2  3  1  0  0  0  0
  3 12  1  0  0  0  0
  4 20  1  1  0  0  0
  4 15  1  0  0  0  0
  7  2  1  0  0  0  0
  8  5  1  6  0  0  0
  8  9  1  0  0  0  0
  8  1  1  0  0  0  0
  9  7  1  6  0  0  0
  9 13  1  0  0  0  0
 10 14  2  0  0  0  0
 11  6  1  6  0  0  0
 11  5  1  0  0  0  0
 11  4  1  0  0  0  0
 13 12  1  6  0  0  0
 13 10  1  0  0  0  0
 14 17  2  0  0  0  0
 16 31  1  6  0  0  0
 16 10  1  0  0  0  0
 17 27  1  0  0  0  0
 18 19  2  0  0  0  0
 19 21  1  0  0  0  0
 19 20  1  0  0  0  0
 21 22  1  0  0  0  0
 22 23  1  0  0  0  0
 23 25  2  0  0  0  0
 23 24  1  0  0  0  0
 27 26  2  6  0  0  0
 27 29  1  0  0  0  0
 28 27  1  0  0  0  0
 29 30  1  0  0  0  0
 32 31  1  0  0  0  0
M  END
>  <MODEL>
5

>  <REMARK>
 VINA RESULT:      -6.6      4.278      6.348
  Name = 
  7 active torsions:
  status: ('A' for Active; 'I' for Inactive)
    1  A    between atoms: C_1  and  C_10
    2  A    between atoms: C_6  and  C_31
    3  A    between atoms: C_8  and  N_23
    4  A    between atoms: C_10  and  C_24
    5  A    between atoms: P_11  and  O_18
    6  A    between atoms: P_11  and  C_32
    7  A    between atoms: C_19  and  C_24
                            x       y       z     vdW  Elec       q    Type
                         _______ _______ _______ _____ _____    ______ ____

>  <TORSDO>
F 7

$$$$
=
 OpenBabel10272413213D

 32 34  0  0  1  0  0  0  0  0999 V2000
  188.3180  177.5850  144.3710 N   0  0  2  0  0  0  0  0  0  0  0  0
  183.4780  178.4090  144.6800 C   0  0  0  0  0  2  0  0  0  0  0  0
  183.5740  178.7240  143.1810 C   0  0  0  0  0  2  0  0  0  0  0  0
  189.7820  177.3560  146.3390 C   0  0  2  0  0  3  0  0  0  0  0  0
  187.4410  178.2810  146.6090 C   0  0  0  0  0  2  0  0  0  0  0  0
  188.5780  177.1880  148.3960 F   0  0  0  0  0  0  0  0  0  0  0  0
  184.8130  178.7310  145.3550 C   0  0  0  0  0  2  0  0  0  0  0  0
  187.3370  178.4350  145.0720 C   0  0  2  0  0  3  0  0  0  0  0  0
  185.9490  178.0670  144.5740 C   0  0  2  0  0  3  0  0  0  0  0  0
  187.0110  178.1470  142.2880 C   0  0  0  0  0  0  0  0  0  0  0  0
  188.4220  177.1840  147.0220 C   0  0  2  0  0  3  0  0  0  0  0  0
  184.6230  177.9920  142.5870 O   0  0  0  0  0  0  0  0  0  0  0  0
  185.8160  178.5120  143.1240 C   0  0  1  0  0  3  0  0  0  0  0  0
  186.9840  178.4700  141.0200 C   0  0  0  0  0  0  0  0  0  0  0  0
  189.6390  177.9010  144.9130 C   0  0  0  0  0  2  0  0  0  0  0  0
  188.3610  177.8340  142.9150 C   0  0  2  0  0  3  0  0  0  0  0  0
  186.9640  178.7860  139.7560 C   0  0  0  0  0  3  0  0  0  0  0  0
  192.1960  174.6720  146.9960 O   0  0  0  0  0  0  0  0  0  0  0  0
  191.6520  175.8030  147.0800 C   0  0  0  0  0  0  0  0  0  0  0  0
  190.4730  176.0740  146.3160 N   0  0  0  0  0  2  0  0  0  0  0  0
  192.2290  176.8250  148.0020 C   0  0  0  0  0  2  0  0  0  0  0  0
  193.0950  176.1470  149.0470 C   0  0  0  0  0  2  0  0  0  0  0  0
  193.7510  177.1740  149.8990 C   0  0  0  0  0  0  0  0  0  0  0  0
  193.1420  178.4060  150.0960 O   0  0  0  0  0  0  0  0  0  0  0  0
  194.8440  176.9150  150.4680 O   0  0  0  0  0  1  0  0  0  0  0  0
  188.1120  178.9320  137.1690 O   0  0  0  0  0  0  0  0  0  0  0  0
  188.2020  178.1230  138.6540 P   0  0  1  0  0  0  0  0  0  0  0  0
  189.5700  178.3360  139.2630 O   0  0  0  0  0  1  0  0  0  0  0  0
  187.9180  176.4660  138.4360 O   0  0  0  0  0  0  0  0  0  0  0  0
  188.2260  176.2070  137.1000 C   0  0  0  0  0  1  0  0  0  0  0  0
  188.9650  176.6150  142.2150 C   0  0  0  0  0  2  0  0  0  0  0  0
  190.4460  176.8250  141.9630 C   0  0  0  0  0  1  0  0  0  0  0  0
  1 15  1  1  0  0  0
  1  8  1  0  0  0  0
  2  7  1  0  0  0  0
  3  2  1  0  0  0  0
  4 20  1  6  0  0  0
  4 11  1  0  0  0  0
  5 11  1  0  0  0  0
  8  5  1  1  0  0  0
  9  8  1  0  0  0  0
  9  7  1  1  0  0  0
 10 16  1  0  0  0  0
 11  6  1  1  0  0  0
 12 13  1  0  0  0  0
 12  3  1  0  0  0  0
 13 10  1  6  0  0  0
 13  9  1  0  0  0  0
 14 10  2  0  0  0  0
 15  4  1  0  0  0  0
 16 31  1  6  0  0  0
 16  1  1  0  0  0  0
 17 14  2  0  0  0  0
 18 19  2  0  0  0  0
 19 21  1  0  0  0  0
 20 19  1  0  0  0  0
 21 22  1  0  0  0  0
 22 23  1  0  0  0  0
 23 24  2  0  0  0  0
 23 25  1  0  0  0  0
 27 26  2  6  0  0  0
 27 28  1  0  0  0  0
 27 17  1  0  0  0  0
 29 27  1  0  0  0  0
 30 29  1  0  0  0  0
 32 31  1  0  0  0  0
M  END
>  <MODEL>
6

>  <REMARK>
 VINA RESULT:      -6.4      2.983      8.098
  Name = 
  7 active torsions:
  status: ('A' for Active; 'I' for Inactive)
    1  A    between atoms: C_1  and  C_10
    2  A    between atoms: C_6  and  C_31
    3  A    between atoms: C_8  and  N_23
    4  A    between atoms: C_10  and  C_24
    5  A    between atoms: P_11  and  O_18
    6  A    between atoms: P_11  and  C_32
    7  A    between atoms: C_19  and  C_24
                            x       y       z     vdW  Elec       q    Type
                         _______ _______ _______ _____ _____    ______ ____

>  <TORSDO>
F 7

$$$$
=
 OpenBabel10272413213D

 32 34  0  0  1  0  0  0  0  0999 V2000
  187.8560  177.7130  142.1870 N   0  0  2  0  0  0  0  0  0  0  0  0
  190.6730  177.8580  138.1560 C   0  0  0  0  0  2  0  0  0  0  0  0
  189.3530  178.0950  137.4090 C   0  0  0  0  0  2  0  0  0  0  0  0
  188.6590  176.9040  144.3720 C   0  0  2  0  0  3  0  0  0  0  0  0
  190.0160  176.4530  142.2830 C   0  0  0  0  0  2  0  0  0  0  0  0
  191.0220  176.5630  144.4410 F   0  0  0  0  0  0  0  0  0  0  0  0
  190.4020  177.0450  139.4230 C   0  0  0  0  0  2  0  0  0  0  0  0
  188.8100  176.8910  141.4190 C   0  0  2  0  0  3  0  0  0  0  0  0
  189.2620  177.6940  140.2090 C   0  0  2  0  0  3  0  0  0  0  0  0
  186.8100  178.2280  139.9500 C   0  0  0  0  0  0  0  0  0  0  0  0
  190.0070  177.0960  143.6700 C   0  0  2  0  0  3  0  0  0  0  0  0
  188.4250  178.7570  138.2390 O   0  0  0  0  0  0  0  0  0  0  0  0
  188.0850  177.8420  139.2530 C   0  0  1  0  0  3  0  0  0  0  0  0
  185.7440  178.3990  139.2100 C   0  0  0  0  0  0  0  0  0  0  0  0
  187.4880  176.9550  143.3820 C   0  0  0  0  0  2  0  0  0  0  0  0
  186.6140  178.0050  141.4420 C   0  0  2  0  0  3  0  0  0  0  0  0
  184.6800  178.5730  138.4810 C   0  0  0  0  0  3  0  0  0  0  0  0
  188.8150  178.7430  147.5430 O   0  0  0  0  0  0  0  0  0  0  0  0
  189.0070  177.8120  146.7190 C   0  0  0  0  0  0  0  0  0  0  0  0
  188.4960  177.9340  145.3890 N   0  0  0  0  0  2  0  0  0  0  0  0
  189.7950  176.6160  147.1400 C   0  0  0  0  0  2  0  0  0  0  0  0
  191.1890  177.0380  147.5640 C   0  0  0  0  0  2  0  0  0  0  0  0
  192.0960  175.8600  147.5540 C   0  0  0  0  0  0  0  0  0  0  0  0
  192.2580  175.1170  146.3920 O   0  0  0  0  0  0  0  0  0  0  0  0
  192.7420  175.5540  148.5900 O   0  0  0  0  0  1  0  0  0  0  0  0
  183.0810  178.8170  140.8090 O   0  0  0  0  0  1  0  0  0  0  0  0
  183.2230  179.3170  139.1970 P   0  0  1  0  0  0  0  0  0  0  0  0
  183.3600  180.8220  139.1440 O   0  0  0  0  0  0  0  0  0  0  0  0
  181.8610  178.8290  138.3120 O   0  0  0  0  0  0  0  0  0  0  0  0
  181.6100  177.5140  138.7080 C   0  0  0  0  0  1  0  0  0  0  0  0
  185.9450  179.2400  142.0470 C   0  0  0  0  0  2  0  0  0  0  0  0
  185.1510  178.8640  143.2830 C   0  0  0  0  0  1  0  0  0  0  0  0
  1 15  1  1  0  0  0
  2  7  1  0  0  0  0
  3  2  1  0  0  0  0
  3 12  1  0  0  0  0
  4 20  1  1  0  0  0
  5 11  1  0  0  0  0
  8  1  1  0  0  0  0
  8  5  1  1  0  0  0
  9  7  1  6  0  0  0
  9  8  1  0  0  0  0
 10 16  1  0  0  0  0
 11  4  1  0  0  0  0
 11  6  1  1  0  0  0
 13 12  1  6  0  0  0
 13 10  1  0  0  0  0
 13  9  1  0  0  0  0
 14 10  2  0  0  0  0
 15  4  1  0  0  0  0
 16 31  1  1  0  0  0
 16  1  1  0  0  0  0
 17 27  1  0  0  0  0
 17 14  2  0  0  0  0
 19 21  1  0  0  0  0
 19 18  2  0  0  0  0
 20 19  1  0  0  0  0
 21 22  1  0  0  0  0
 23 22  1  0  0  0  0
 23 25  1  0  0  0  0
 24 23  2  0  0  0  0
 27 28  2  6  0  0  0
 27 26  1  0  0  0  0
 29 30  1  0  0  0  0
 29 27  1  0  0  0  0
 31 32  1  0  0  0  0
M  END
>  <MODEL>
7

>  <REMARK>
 VINA RESULT:      -6.3      3.586      8.685
  Name = 
  7 active torsions:
  status: ('A' for Active; 'I' for Inactive)
    1  A    between atoms: C_1  and  C_10
    2  A    between atoms: C_6  and  C_31
    3  A    between atoms: C_8  and  N_23
    4  A    between atoms: C_10  and  C_24
    5  A    between atoms: P_11  and  O_18
    6  A    between atoms: P_11  and  C_32
    7  A    between atoms: C_19  and  C_24
                            x       y       z     vdW  Elec       q    Type
                         _______ _______ _______ _____ _____    ______ ____

>  <TORSDO>
F 7

$$$$
=
 OpenBabel10272413213D

 32 34  0  0  1  0  0  0  0  0999 V2000
  186.4030  178.1000  141.6030 N   0  0  2  0  0  0  0  0  0  0  0  0
  187.5090  177.4370  146.3510 C   0  0  0  0  0  2  0  0  0  0  0  0
  186.0930  177.9680  146.6140 C   0  0  0  0  0  2  0  0  0  0  0  0
  188.0820  178.0380  139.8000 C   0  0  2  0  0  3  0  0  0  0  0  0
  188.8280  178.2000  142.2130 C   0  0  0  0  0  2  0  0  0  0  0  0
  190.2170  177.2500  140.5250 F   0  0  0  0  0  0  0  0  0  0  0  0
  188.0440  178.0360  145.0490 C   0  0  0  0  0  2  0  0  0  0  0  0
  187.3740  178.5260  142.6300 C   0  0  2  0  0  3  0  0  0  0  0  0
  187.0100  177.8430  143.9390 C   0  0  2  0  0  3  0  0  0  0  0  0
  184.6530  178.5390  143.3660 C   0  0  0  0  0  0  0  0  0  0  0  0
  188.8990  177.3880  140.9200 C   0  0  2  0  0  3  0  0  0  0  0  0
  185.2400  177.6590  145.5340 O   0  0  0  0  0  0  0  0  0  0  0  0
  185.6950  178.4240  144.4440 C   0  0  1  0  0  3  0  0  0  0  0  0
  183.4810  179.0100  143.7060 C   0  0  0  0  0  0  0  0  0  0  0  0
  186.8100  178.7080  140.3370 C   0  0  0  0  0  2  0  0  0  0  0  0
  185.0250  178.5470  141.8910 C   0  0  2  0  0  3  0  0  0  0  0  0
  182.3100  179.4760  144.0370 C   0  0  0  0  0  3  0  0  0  0  0  0
  188.1170  175.9100  136.8110 O   0  0  0  0  0  0  0  0  0  0  0  0
  188.4920  176.7970  137.6210 C   0  0  0  0  0  0  0  0  0  0  0  0
  187.7320  177.0270  138.8120 N   0  0  0  0  0  2  0  0  0  0  0  0
  189.7410  177.5640  137.3380 C   0  0  0  0  0  2  0  0  0  0  0  0
  190.7950  176.6400  136.7590 C   0  0  0  0  0  2  0  0  0  0  0  0
  191.6120  176.0600  137.8570 C   0  0  0  0  0  0  0  0  0  0  0  0
  192.8050  176.6640  138.2310 O   0  0  0  0  0  0  0  0  0  0  0  0
  191.2060  175.0380  138.4710 O   0  0  0  0  0  1  0  0  0  0  0  0
  179.9900  178.0240  143.3000 O   0  0  0  0  0  1  0  0  0  0  0  0
  180.9490  179.3580  142.8870 P   0  0  1  0  0  0  0  0  0  0  0  0
  180.1210  180.6210  142.9710 O   0  0  0  0  0  0  0  0  0  0  0  0
  181.5650  179.1730  141.3180 O   0  0  0  0  0  0  0  0  0  0  0  0
  180.4940  179.4400  140.4630 C   0  0  0  0  0  1  0  0  0  0  0  0
  184.0400  177.6630  141.1240 C   0  0  0  0  0  2  0  0  0  0  0  0
  183.9370  178.1100  139.6790 C   0  0  0  0  0  1  0  0  0  0  0  0
  1 15  1  6  0  0  0
  1 16  1  0  0  0  0
  1  8  1  0  0  0  0
  2  3  1  0  0  0  0
  4 20  1  6  0  0  0
  4 15  1  0  0  0  0
  4 11  1  0  0  0  0
  7  2  1  0  0  0  0
  8  5  1  6  0  0  0
  8  9  1  0  0  0  0
  9 13  1  0  0  0  0
  9  7  1  1  0  0  0
 10 14  2  0  0  0  0
 11  6  1  6  0  0  0
 11  5  1  0  0  0  0
 12  3  1  0  0  0  0
 13 10  1  6  0  0  0
 13 12  1  0  0  0  0
 14 17  2  0  0  0  0
 16 31  1  6  0  0  0
 16 10  1  0  0  0  0
 18 19  2  0  0  0  0
 19 20  1  0  0  0  0
 21 19  1  0  0  0  0
 22 21  1  0  0  0  0
 22 23  1  0  0  0  0
 23 24  2  0  0  0  0
 23 25  1  0  0  0  0
 27 28  2  1  0  0  0
 27 26  1  0  0  0  0
 27 17  1  0  0  0  0
 29 27  1  0  0  0  0
 30 29  1  0  0  0  0
 32 31  1  0  0  0  0
M  END
>  <MODEL>
8

>  <REMARK>
 VINA RESULT:      -6.3      3.617      6.227
  Name = 
  7 active torsions:
  status: ('A' for Active; 'I' for Inactive)
    1  A    between atoms: C_1  and  C_10
    2  A    between atoms: C_6  and  C_31
    3  A    between atoms: C_8  and  N_23
    4  A    between atoms: C_10  and  C_24
    5  A    between atoms: P_11  and  O_18
    6  A    between atoms: P_11  and  C_32
    7  A    between atoms: C_19  and  C_24
                            x       y       z     vdW  Elec       q    Type
                         _______ _______ _______ _____ _____    ______ ____

>  <TORSDO>
F 7

$$$$
=
 OpenBabel10272413213D

 32 34  0  0  1  0  0  0  0  0999 V2000
  186.7740  177.9180  143.1240 N   0  0  2  0  0  0  0  0  0  0  0  0
  188.2480  178.7000  138.4960 C   0  0  0  0  0  2  0  0  0  0  0  0
  186.7480  178.7330  138.1690 C   0  0  0  0  0  2  0  0  0  0  0  0
  188.2890  177.1800  144.9210 C   0  0  2  0  0  3  0  0  0  0  0  0
  189.0380  177.0490  142.5070 C   0  0  0  0  0  2  0  0  0  0  0  0
  190.5940  177.2500  144.3010 F   0  0  0  0  0  0  0  0  0  0  0  0
  188.4840  177.8050  139.7140 C   0  0  0  0  0  2  0  0  0  0  0  0
  187.5810  177.3030  142.0530 C   0  0  2  0  0  3  0  0  0  0  0  0
  187.5330  178.2180  140.8390 C   0  0  2  0  0  3  0  0  0  0  0  0
  185.0590  178.3270  141.3200 C   0  0  0  0  0  0  0  0  0  0  0  0
  189.3290  177.6280  143.8910 C   0  0  2  0  0  3  0  0  0  0  0  0
  186.0090  179.1920  139.2780 O   0  0  0  0  0  0  0  0  0  0  0  0
  186.1230  178.1950  140.2650 C   0  0  1  0  0  3  0  0  0  0  0  0
  183.8120  178.3380  140.9230 C   0  0  0  0  0  0  0  0  0  0  0  0
  186.8890  177.0630  144.3050 C   0  0  0  0  0  2  0  0  0  0  0  0
  185.3400  178.0180  142.7820 C   0  0  2  0  0  3  0  0  0  0  0  0
  182.5690  178.3530  140.5370 C   0  0  0  0  0  3  0  0  0  0  0  0
  188.9020  178.7820  148.1650 O   0  0  0  0  0  0  0  0  0  0  0  0
  188.9790  177.9200  147.2520 C   0  0  0  0  0  0  0  0  0  0  0  0
  188.2690  178.1270  146.0270 N   0  0  0  0  0  2  0  0  0  0  0  0
  189.8400  176.7170  147.4550 C   0  0  0  0  0  2  0  0  0  0  0  0
  191.2640  177.0230  147.0310 C   0  0  0  0  0  2  0  0  0  0  0  0
  192.1110  175.8130  147.2040 C   0  0  0  0  0  0  0  0  0  0  0  0
  192.3580  174.9770  146.1230 O   0  0  0  0  0  0  0  0  0  0  0  0
  192.6300  175.5630  148.3230 O   0  0  0  0  0  1  0  0  0  0  0  0
  180.7020  180.3460  141.2970 O   0  0  0  0  0  0  0  0  0  0  0  0
  181.2830  178.8050  141.6910 P   0  0  1  0  0  0  0  0  0  0  0  0
  180.1580  177.8000  141.5950 O   0  0  0  0  0  1  0  0  0  0  0  0
  181.9260  178.8060  143.2600 O   0  0  0  0  0  0  0  0  0  0  0  0
  180.8280  178.6840  144.1130 C   0  0  0  0  0  1  0  0  0  0  0  0
  184.6900  179.0940  143.6530 C   0  0  0  0  0  2  0  0  0  0  0  0
  184.6880  178.6730  145.1100 C   0  0  0  0  0  1  0  0  0  0  0  0
  1 15  1  1  0  0  0
  2  7  1  0  0  0  0
  3  2  1  0  0  0  0
  3 12  1  0  0  0  0
  4 20  1  1  0  0  0
  5 11  1  0  0  0  0
  8  5  1  1  0  0  0
  8  1  1  0  0  0  0
  9  7  1  6  0  0  0
  9  8  1  0  0  0  0
 10 16  1  0  0  0  0
 11  6  1  1  0  0  0
 11  4  1  0  0  0  0
 13 12  1  6  0  0  0
 13  9  1  0  0  0  0
 13 10  1  0  0  0  0
 14 10  2  0  0  0  0
 15  4  1  0  0  0  0
 16  1  1  0  0  0  0
 16 31  1  1  0  0  0
 17 14  2  0  0  0  0
 17 27  1  0  0  0  0
 19 21  1  0  0  0  0
 19 18  2  0  0  0  0
 20 19  1  0  0  0  0
 22 23  1  0  0  0  0
 22 21  1  0  0  0  0
 23 25  1  0  0  0  0
 24 23  2  0  0  0  0
 27 26  2  6  0  0  0
 27 29  1  0  0  0  0
 28 27  1  0  0  0  0
 29 30  1  0  0  0  0
 31 32  1  0  0  0  0
M  END
>  <MODEL>
9

>  <REMARK>
 VINA RESULT:      -6.3      3.666      8.391
  Name = 
  7 active torsions:
  status: ('A' for Active; 'I' for Inactive)
    1  A    between atoms: C_1  and  C_10
    2  A    between atoms: C_6  and  C_31
    3  A    between atoms: C_8  and  N_23
    4  A    between atoms: C_10  and  C_24
    5  A    between atoms: P_11  and  O_18
    6  A    between atoms: P_11  and  C_32
    7  A    between atoms: C_19  and  C_24
                            x       y       z     vdW  Elec       q    Type
                         _______ _______ _______ _____ _____    ______ ____

>  <TORSDO>
F 7

$$$$
