=
 OpenBabel10272401473D

 28 31  0  0  1  0  0  0  0  0999 V2000
  187.6710  178.3240  140.6210 C   0  0  0  0  0  0  0  0  0  0  0  0
  189.0530  178.2870  140.9880 N   0  0  0  0  0  2  0  0  0  0  0  0
  182.9530  178.1650  140.0460 C   0  0  0  0  0  1  0  0  0  0  0  0
  185.3600  178.2000  140.6580 C   0  0  0  0  0  0  0  0  0  0  0  0
  185.8980  178.6340  139.3830 C   0  0  0  0  0  0  0  0  0  0  0  0
  184.0890  177.9790  140.9940 C   0  0  0  0  0  3  0  0  0  0  0  0
  185.2290  178.9210  138.3560 O   0  0  0  0  0  0  0  0  0  0  0  0
  187.3090  178.6920  139.4320 N   0  0  0  0  0  0  0  0  0  0  0  0
  186.5280  178.0200  141.5670 C   0  0  2  0  0  3  0  0  0  0  0  0
  189.6110  177.5370  142.0720 C   0  0  0  0  0  0  0  0  0  0  0  0
  190.6220  176.9050  143.9120 C   0  0  0  0  0  0  0  0  0  0  0  0
  189.3690  176.1950  142.3090 C   0  0  0  0  0  3  0  0  0  0  0  0
  190.8200  179.2960  143.3440 O   0  0  0  0  0  1  0  0  0  0  0  0
  190.3920  177.9940  143.1110 C   0  0  0  0  0  0  0  0  0  0  0  0
  191.4290  176.8900  145.1620 C   0  0  0  0  0  1  0  0  0  0  0  0
  190.0040  175.8550  143.4160 O   0  0  0  0  0  0  0  0  0  0  0  0
  186.4780  178.9850  142.5820 O   0  0  0  0  0  0  0  0  0  0  0  0
  187.4540  177.9100  145.0210 C   0  0  0  0  0  3  0  0  0  0  0  0
  185.4840  178.9250  146.1210 C   0  0  2  0  0  3  0  0  0  0  0  0
  185.5690  178.4910  143.5280 C   0  0  1  0  0  3  0  0  0  0  0  0
  187.3780  177.9690  147.4600 C   0  0  0  0  0  0  0  0  0  0  0  0
  186.2160  178.4020  144.8940 C   0  0  0  0  0  0  0  0  0  0  0  0
  183.4440  179.0430  144.7340 C   0  0  0  0  0  3  0  0  0  0  0  0
  185.8890  178.1720  147.3930 C   0  0  0  0  0  2  0  0  0  0  0  0
  183.9940  178.8300  145.9360 C   0  0  0  0  0  3  0  0  0  0  0  0
  188.1610  177.8260  149.0190 Cl  0  0  0  0  0  0  0  0  0  0  0  0
  188.0900  177.7890  146.3450 C   0  0  0  0  0  3  0  0  0  0  0  0
  184.3190  179.3850  143.5610 C   0  0  0  0  0  2  0  0  0  0  0  0
  1  2  1  0  0  0  0
  1  9  1  0  0  0  0
  2 10  1  0  0  0  0
  3  6  1  0  0  0  0
  4  6  2  0  0  0  0
  4  9  1  0  0  0  0
  5  8  1  0  0  0  0
  5  4  1  0  0  0  0
  7  5  2  0  0  0  0
  8  1  2  0  0  0  0
  9 17  1  1  0  0  0
 10 12  2  0  0  0  0
 10 14  1  0  0  0  0
 11 15  1  0  0  0  0
 12 16  1  0  0  0  0
 14 13  1  0  0  0  0
 14 11  2  0  0  0  0
 16 11  1  0  0  0  0
 18 27  1  0  0  0  0
 19 25  1  6  0  0  0
 19 24  1  0  0  0  0
 20 17  1  6  0  0  0
 20 28  1  0  0  0  0
 20 22  1  0  0  0  0
 21 26  1  0  0  0  0
 22 18  2  0  0  0  0
 22 19  1  0  0  0  0
 23 25  2  0  0  0  0
 24 21  1  0  0  0  0
 27 21  2  0  0  0  0
 28 23  1  0  0  0  0
M  END
>  <MODEL>
1

>  <REMARK>
 VINA RESULT:      -9.0      0.000      0.000
  Name = 
  3 active torsions:
  status: ('A' for Active; 'I' for Inactive)
    1  A    between atoms: N_2  and  C_3
    2  A    between atoms: C_10  and  O_17
    3  A    between atoms: O_17  and  C_27
                            x       y       z     vdW  Elec       q    Type
                         _______ _______ _______ _____ _____    ______ ____

>  <TORSDO>
F 3

$$$$
=
 OpenBabel10272401473D

 28 31  0  0  1  0  0  0  0  0999 V2000
  190.1890  176.7710  144.0620 C   0  0  0  0  0  0  0  0  0  0  0  0
  190.2890  176.4800  142.6640 N   0  0  0  0  0  2  0  0  0  0  0  0
  189.3490  178.2010  148.5180 C   0  0  0  0  0  1  0  0  0  0  0  0
  189.5110  177.5960  146.1150 C   0  0  0  0  0  0  0  0  0  0  0  0
  190.6520  176.7040  146.1960 C   0  0  0  0  0  0  0  0  0  0  0  0
  188.9110  178.2720  147.0950 C   0  0  0  0  0  3  0  0  0  0  0  0
  191.2640  176.3770  147.2470 O   0  0  0  0  0  0  0  0  0  0  0  0
  191.0090  176.2350  144.9110 N   0  0  0  0  0  0  0  0  0  0  0  0
  189.1150  177.6420  144.6780 C   0  0  2  0  0  3  0  0  0  0  0  0
  189.7560  177.2790  141.6030 C   0  0  0  0  0  0  0  0  0  0  0  0
  189.1330  178.0750  139.6570 C   0  0  0  0  0  0  0  0  0  0  0  0
  188.9440  178.3850  141.7810 C   0  0  0  0  0  3  0  0  0  0  0  0
  190.5020  176.0250  139.5930 O   0  0  0  0  0  1  0  0  0  0  0  0
  189.8550  177.0680  140.2460 C   0  0  0  0  0  0  0  0  0  0  0  0
  188.9500  178.2850  138.1960 C   0  0  0  0  0  1  0  0  0  0  0  0
  188.6030  178.8380  140.5890 O   0  0  0  0  0  0  0  0  0  0  0  0
  187.8610  177.0360  144.5230 O   0  0  0  0  0  0  0  0  0  0  0  0
  186.1160  178.1890  142.6050 C   0  0  0  0  0  3  0  0  0  0  0  0
  184.3650  178.1600  144.3520 C   0  0  2  0  0  3  0  0  0  0  0  0
  186.9260  177.9950  144.9350 C   0  0  1  0  0  3  0  0  0  0  0  0
  183.8110  178.6630  141.9580 C   0  0  0  0  0  0  0  0  0  0  0  0
  185.8210  178.1360  143.9090 C   0  0  0  0  0  0  0  0  0  0  0  0
  185.1770  178.4660  146.6650 C   0  0  0  0  0  3  0  0  0  0  0  0
  183.4890  178.9730  143.3940 C   0  0  0  0  0  2  0  0  0  0  0  0
  184.2390  178.7200  145.7430 C   0  0  0  0  0  3  0  0  0  0  0  0
  182.5720  178.8470  140.7360 Cl  0  0  0  0  0  0  0  0  0  0  0  0
  185.0580  178.3550  141.5930 C   0  0  0  0  0  3  0  0  0  0  0  0
  186.3610  177.6120  146.3120 C   0  0  0  0  0  2  0  0  0  0  0  0
  1  9  1  0  0  0  0
  1  8  2  0  0  0  0
  2  1  1  0  0  0  0
  4  5  1  0  0  0  0
  4  6  2  0  0  0  0
  5  7  2  0  0  0  0
  6  3  1  0  0  0  0
  8  5  1  0  0  0  0
  9 17  1  1  0  0  0
  9  4  1  0  0  0  0
 10 12  2  0  0  0  0
 10  2  1  0  0  0  0
 11 14  2  0  0  0  0
 11 16  1  0  0  0  0
 13 14  1  0  0  0  0
 14 10  1  0  0  0  0
 15 11  1  0  0  0  0
 16 12  1  0  0  0  0
 18 22  2  0  0  0  0
 19 24  1  6  0  0  0
 19 25  1  0  0  0  0
 20 17  1  6  0  0  0
 20 28  1  0  0  0  0
 21 24  1  0  0  0  0
 22 19  1  0  0  0  0
 22 20  1  0  0  0  0
 25 23  2  0  0  0  0
 26 21  1  0  0  0  0
 27 21  2  0  0  0  0
 27 18  1  0  0  0  0
 28 23  1  0  0  0  0
M  END
>  <MODEL>
2

>  <REMARK>
 VINA RESULT:      -9.0      2.789      5.654
  Name = 
  3 active torsions:
  status: ('A' for Active; 'I' for Inactive)
    1  A    between atoms: N_2  and  C_3
    2  A    between atoms: C_10  and  O_17
    3  A    between atoms: O_17  and  C_27
                            x       y       z     vdW  Elec       q    Type
                         _______ _______ _______ _____ _____    ______ ____

>  <TORSDO>
F 3

$$$$
=
 OpenBabel10272401473D

 28 31  0  0  1  0  0  0  0  0999 V2000
  190.1960  176.6690  141.9150 C   0  0  0  0  0  0  0  0  0  0  0  0
  190.1120  176.4690  140.5010 N   0  0  0  0  0  2  0  0  0  0  0  0
  189.9540  177.8110  146.5250 C   0  0  0  0  0  1  0  0  0  0  0  0
  189.7980  177.3630  144.0870 C   0  0  0  0  0  0  0  0  0  0  0  0
  190.9250  176.4580  143.9640 C   0  0  0  0  0  0  0  0  0  0  0  0
  189.3400  177.9790  145.1770 C   0  0  0  0  0  3  0  0  0  0  0  0
  191.6600  176.0580  144.9050 O   0  0  0  0  0  0  0  0  0  0  0  0
  191.1070  176.0710  142.6170 N   0  0  0  0  0  0  0  0  0  0  0  0
  189.2240  177.5060  142.7180 C   0  0  2  0  0  3  0  0  0  0  0  0
  189.4610  177.3400  139.5710 C   0  0  0  0  0  0  0  0  0  0  0  0
  188.2650  178.1840  137.9380 C   0  0  0  0  0  0  0  0  0  0  0  0
  189.3960  178.7170  139.6930 C   0  0  0  0  0  3  0  0  0  0  0  0
  188.4280  175.7250  137.9910 O   0  0  0  0  0  1  0  0  0  0  0  0
  188.7170  177.0000  138.4620 C   0  0  0  0  0  0  0  0  0  0  0  0
  187.4230  178.3410  136.7220 C   0  0  0  0  0  1  0  0  0  0  0  0
  188.6800  179.1830  138.6870 O   0  0  0  0  0  0  0  0  0  0  0  0
  187.9500  176.9230  142.6880 O   0  0  0  0  0  0  0  0  0  0  0  0
  186.2170  178.3850  140.9800 C   0  0  0  0  0  3  0  0  0  0  0  0
  184.5210  178.2460  142.7780 C   0  0  2  0  0  3  0  0  0  0  0  0
  187.0850  177.8760  143.2410 C   0  0  1  0  0  3  0  0  0  0  0  0
  183.9240  179.0540  140.4790 C   0  0  0  0  0  0  0  0  0  0  0  0
  185.9590  178.1960  142.2810 C   0  0  0  0  0  0  0  0  0  0  0  0
  185.4200  178.2350  145.0780 C   0  0  0  0  0  3  0  0  0  0  0  0
  183.6640  179.2120  141.9520 C   0  0  0  0  0  2  0  0  0  0  0  0
  184.4710  178.6460  144.2270 C   0  0  0  0  0  3  0  0  0  0  0  0
  182.6600  179.4460  139.3330 Cl  0  0  0  0  0  0  0  0  0  0  0  0
  185.1390  178.7240  140.0350 C   0  0  0  0  0  3  0  0  0  0  0  0
  186.5410  177.3660  144.5850 C   0  0  0  0  0  2  0  0  0  0  0  0
  1  8  2  0  0  0  0
  1  9  1  0  0  0  0
  2  1  1  0  0  0  0
  4  6  2  0  0  0  0
  5  4  1  0  0  0  0
  5  7  2  0  0  0  0
  6  3  1  0  0  0  0
  8  5  1  0  0  0  0
  9 17  1  1  0  0  0
  9  4  1  0  0  0  0
 10 12  2  0  0  0  0
 10  2  1  0  0  0  0
 11 14  2  0  0  0  0
 11 16  1  0  0  0  0
 13 14  1  0  0  0  0
 14 10  1  0  0  0  0
 15 11  1  0  0  0  0
 16 12  1  0  0  0  0
 18 22  2  0  0  0  0
 19 24  1  6  0  0  0
 19 25  1  0  0  0  0
 20 17  1  6  0  0  0
 20 28  1  0  0  0  0
 21 24  1  0  0  0  0
 22 19  1  0  0  0  0
 22 20  1  0  0  0  0
 25 23  2  0  0  0  0
 26 21  1  0  0  0  0
 27 21  2  0  0  0  0
 27 18  1  0  0  0  0
 28 23  1  0  0  0  0
M  END
>  <MODEL>
3

>  <REMARK>
 VINA RESULT:      -8.5      2.949      5.872
  Name = 
  3 active torsions:
  status: ('A' for Active; 'I' for Inactive)
    1  A    between atoms: N_2  and  C_3
    2  A    between atoms: C_10  and  O_17
    3  A    between atoms: O_17  and  C_27
                            x       y       z     vdW  Elec       q    Type
                         _______ _______ _______ _____ _____    ______ ____

>  <TORSDO>
F 3

$$$$
=
 OpenBabel10272401473D

 28 31  0  0  1  0  0  0  0  0999 V2000
  186.1080  178.6690  139.3860 C   0  0  0  0  0  0  0  0  0  0  0  0
  187.5080  178.7360  139.0950 N   0  0  0  0  0  2  0  0  0  0  0  0
  181.6520  178.0910  140.9390 C   0  0  0  0  0  1  0  0  0  0  0  0
  184.0710  178.3070  140.4220 C   0  0  0  0  0  0  0  0  0  0  0  0
  183.9550  178.9220  139.1130 C   0  0  0  0  0  0  0  0  0  0  0  0
  183.1000  177.9250  141.2510 C   0  0  0  0  0  3  0  0  0  0  0  0
  182.8830  179.2430  138.5380 O   0  0  0  0  0  0  0  0  0  0  0  0
  185.2330  179.1180  138.5410 N   0  0  0  0  0  0  0  0  0  0  0  0
  185.5310  178.1560  140.6870 C   0  0  2  0  0  3  0  0  0  0  0  0
  188.5280  177.9400  139.7060 C   0  0  0  0  0  0  0  0  0  0  0  0
  190.0170  177.0880  141.0720 C   0  0  0  0  0  0  0  0  0  0  0  0
  188.9820  176.7280  139.2170 C   0  0  0  0  0  3  0  0  0  0  0  0
  188.9800  179.2040  141.7960 O   0  0  0  0  0  1  0  0  0  0  0  0
  189.1730  178.1560  140.9040 C   0  0  0  0  0  0  0  0  0  0  0  0
  190.9410  176.8700  142.2180 C   0  0  0  0  0  1  0  0  0  0  0  0
  189.8820  176.2580  140.0600 O   0  0  0  0  0  0  0  0  0  0  0  0
  185.9000  179.0020  141.7410 O   0  0  0  0  0  0  0  0  0  0  0  0
  187.3550  177.5220  143.6780 C   0  0  0  0  0  3  0  0  0  0  0  0
  185.9600  178.6260  145.3980 C   0  0  2  0  0  3  0  0  0  0  0  0
  185.2340  178.5090  142.8720 C   0  0  1  0  0  3  0  0  0  0  0  0
  187.9880  177.2880  146.0240 C   0  0  0  0  0  0  0  0  0  0  0  0
  186.2220  178.1740  143.9690 C   0  0  0  0  0  0  0  0  0  0  0  0
  183.6530  179.1630  144.7010 C   0  0  0  0  0  3  0  0  0  0  0  0
  186.5910  177.6780  146.4230 C   0  0  0  0  0  2  0  0  0  0  0  0
  184.4830  178.7380  145.6610 C   0  0  0  0  0  3  0  0  0  0  0  0
  189.1510  176.8590  147.2590 Cl  0  0  0  0  0  0  0  0  0  0  0  0
  188.3150  177.1620  144.7360 C   0  0  0  0  0  3  0  0  0  0  0  0
  184.1980  179.5380  143.3520 C   0  0  0  0  0  2  0  0  0  0  0  0
  1  9  1  0  0  0  0
  2  1  1  0  0  0  0
  2 10  1  0  0  0  0
  3  6  1  0  0  0  0
  4  9  1  0  0  0  0
  4  6  2  0  0  0  0
  5  4  1  0  0  0  0
  7  5  2  0  0  0  0
  8  5  1  0  0  0  0
  8  1  2  0  0  0  0
  9 17  1  1  0  0  0
 10 14  1  0  0  0  0
 11 15  1  0  0  0  0
 12 10  2  0  0  0  0
 12 16  1  0  0  0  0
 14 11  2  0  0  0  0
 14 13  1  0  0  0  0
 16 11  1  0  0  0  0
 18 22  2  0  0  0  0
 18 27  1  0  0  0  0
 19 25  1  1  0  0  0
 19 24  1  0  0  0  0
 20 17  1  6  0  0  0
 20 28  1  0  0  0  0
 20 22  1  0  0  0  0
 21 24  1  0  0  0  0
 21 26  1  0  0  0  0
 22 19  1  0  0  0  0
 23 25  2  0  0  0  0
 27 21  2  0  0  0  0
 28 23  1  0  0  0  0
M  END
>  <MODEL>
4

>  <REMARK>
 VINA RESULT:      -8.0      1.541      1.968
  Name = 
  3 active torsions:
  status: ('A' for Active; 'I' for Inactive)
    1  A    between atoms: N_2  and  C_3
    2  A    between atoms: C_10  and  O_17
    3  A    between atoms: O_17  and  C_27
                            x       y       z     vdW  Elec       q    Type
                         _______ _______ _______ _____ _____    ______ ____

>  <TORSDO>
F 3

$$$$
=
 OpenBabel10272401473D

 28 31  0  0  1  0  0  0  0  0999 V2000
  189.7590  177.1010  140.0600 C   0  0  0  0  0  0  0  0  0  0  0  0
  189.0160  176.6620  138.9190 N   0  0  0  0  0  2  0  0  0  0  0  0
  191.6310  178.8960  144.0450 C   0  0  0  0  0  1  0  0  0  0  0  0
  190.3690  178.0390  142.0860 C   0  0  0  0  0  0  0  0  0  0  0  0
  191.4630  177.3800  141.3990 C   0  0  0  0  0  0  0  0  0  0  0  0
  190.3930  178.7130  143.2360 C   0  0  0  0  0  3  0  0  0  0  0  0
  192.6520  177.2990  141.8060 O   0  0  0  0  0  0  0  0  0  0  0  0
  191.0210  176.8270  140.1750 N   0  0  0  0  0  0  0  0  0  0  0  0
  189.1580  177.8360  141.2390 C   0  0  2  0  0  3  0  0  0  0  0  0
  187.7780  177.2180  138.4630 C   0  0  0  0  0  0  0  0  0  0  0  0
  185.8000  177.5380  137.5740 C   0  0  0  0  0  0  0  0  0  0  0  0
  187.2930  178.4630  138.8220 C   0  0  0  0  0  3  0  0  0  0  0  0
  186.8180  175.3310  137.1620 O   0  0  0  0  0  1  0  0  0  0  0  0
  186.8110  176.6190  137.6860 C   0  0  0  0  0  0  0  0  0  0  0  0
  184.5310  177.3600  136.8170 C   0  0  0  0  0  1  0  0  0  0  0  0
  186.1100  178.6180  138.2570 O   0  0  0  0  0  0  0  0  0  0  0  0
  188.2560  177.0030  141.9130 O   0  0  0  0  0  0  0  0  0  0  0  0
  185.8320  178.4700  142.0910 C   0  0  0  0  0  3  0  0  0  0  0  0
  185.6740  177.6990  144.4360 C   0  0  2  0  0  3  0  0  0  0  0  0
  187.9430  177.6710  143.1050 C   0  0  1  0  0  3  0  0  0  0  0  0
  183.7470  178.8400  143.3050 C   0  0  0  0  0  0  0  0  0  0  0  0
  186.4630  177.9860  143.1670 C   0  0  0  0  0  0  0  0  0  0  0  0
  187.8340  177.3770  145.5900 C   0  0  0  0  0  3  0  0  0  0  0  0
  184.4880  178.6560  144.6010 C   0  0  0  0  0  2  0  0  0  0  0  0
  186.5610  177.7870  145.6480 C   0  0  0  0  0  3  0  0  0  0  0  0
  182.0440  179.2400  143.3330 Cl  0  0  0  0  0  0  0  0  0  0  0  0
  184.3990  178.8100  142.1400 C   0  0  0  0  0  3  0  0  0  0  0  0
  188.3820  176.8200  144.3070 C   0  0  0  0  0  2  0  0  0  0  0  0
  1  8  2  0  0  0  0
  1  9  1  0  0  0  0
  2  1  1  0  0  0  0
  4  6  2  0  0  0  0
  5  7  2  0  0  0  0
  5  4  1  0  0  0  0
  6  3  1  0  0  0  0
  8  5  1  0  0  0  0
  9 17  1  1  0  0  0
  9  4  1  0  0  0  0
 10 12  2  0  0  0  0
 10  2  1  0  0  0  0
 11 14  2  0  0  0  0
 11 16  1  0  0  0  0
 13 14  1  0  0  0  0
 14 10  1  0  0  0  0
 15 11  1  0  0  0  0
 16 12  1  0  0  0  0
 18 27  1  0  0  0  0
 18 22  2  0  0  0  0
 19 24  1  1  0  0  0
 19 25  1  0  0  0  0
 20 17  1  6  0  0  0
 20 22  1  0  0  0  0
 20 28  1  0  0  0  0
 21 26  1  0  0  0  0
 21 24  1  0  0  0  0
 22 19  1  0  0  0  0
 23 25  2  0  0  0  0
 27 21  2  0  0  0  0
 28 23  1  0  0  0  0
M  END
>  <MODEL>
5

>  <REMARK>
 VINA RESULT:      -8.0      2.529      5.744
  Name = 
  3 active torsions:
  status: ('A' for Active; 'I' for Inactive)
    1  A    between atoms: N_2  and  C_3
    2  A    between atoms: C_10  and  O_17
    3  A    between atoms: O_17  and  C_27
                            x       y       z     vdW  Elec       q    Type
                         _______ _______ _______ _____ _____    ______ ____

>  <TORSDO>
F 3

$$$$
=
 OpenBabel10272401473D

 28 31  0  0  1  0  0  0  0  0999 V2000
  184.9250  178.9740  138.9030 C   0  0  0  0  0  0  0  0  0  0  0  0
  186.0630  178.9250  138.0360 N   0  0  0  0  0  2  0  0  0  0  0  0
  181.5060  178.6830  142.1940 C   0  0  0  0  0  1  0  0  0  0  0  0
  183.4840  178.6980  140.6920 C   0  0  0  0  0  0  0  0  0  0  0  0
  182.9310  179.5050  139.6210 C   0  0  0  0  0  0  0  0  0  0  0  0
  182.9020  178.3120  141.8280 C   0  0  0  0  0  3  0  0  0  0  0  0
  181.7850  180.0250  139.6000 O   0  0  0  0  0  0  0  0  0  0  0  0
  183.8630  179.6370  138.5660 N   0  0  0  0  0  0  0  0  0  0  0  0
  184.8730  178.3460  140.2790 C   0  0  2  0  0  3  0  0  0  0  0  0
  187.1000  177.9380  138.0730 C   0  0  0  0  0  0  0  0  0  0  0  0
  188.9680  176.8390  138.4040 C   0  0  0  0  0  0  0  0  0  0  0  0
  186.9340  176.6080  137.7310 C   0  0  0  0  0  3  0  0  0  0  0  0
  188.9900  179.2180  139.0520 O   0  0  0  0  0  1  0  0  0  0  0  0
  188.3930  178.0790  138.5260 C   0  0  0  0  0  0  0  0  0  0  0  0
  190.3690  176.4830  138.7570 C   0  0  0  0  0  1  0  0  0  0  0  0
  188.0820  175.9880  137.9340 O   0  0  0  0  0  0  0  0  0  0  0  0
  185.7840  178.9830  141.1310 O   0  0  0  0  0  0  0  0  0  0  0  0
  187.9490  177.2930  141.8480 C   0  0  0  0  0  3  0  0  0  0  0  0
  187.5870  178.0170  144.1870 C   0  0  2  0  0  3  0  0  0  0  0  0
  185.7310  178.2740  142.3390 C   0  0  1  0  0  3  0  0  0  0  0  0
  189.6270  176.7150  143.5250 C   0  0  0  0  0  0  0  0  0  0  0  0
  187.1160  177.8210  142.7530 C   0  0  0  0  0  0  0  0  0  0  0  0
  185.2450  178.5260  144.7830 C   0  0  0  0  0  3  0  0  0  0  0  0
  188.6060  176.9520  144.6040 C   0  0  0  0  0  2  0  0  0  0  0  0
  186.4230  177.9980  145.1390 C   0  0  0  0  0  3  0  0  0  0  0  0
  191.2280  176.1570  143.9580 Cl  0  0  0  0  0  0  0  0  0  0  0  0
  189.2900  176.8210  142.2370 C   0  0  0  0  0  3  0  0  0  0  0  0
  185.0840  179.1480  143.4260 C   0  0  0  0  0  2  0  0  0  0  0  0
  1  9  1  0  0  0  0
  2 10  1  0  0  0  0
  2  1  1  0  0  0  0
  4  6  2  0  0  0  0
  5  4  1  0  0  0  0
  6  3  1  0  0  0  0
  7  5  2  0  0  0  0
  8  1  2  0  0  0  0
  8  5  1  0  0  0  0
  9  4  1  0  0  0  0
  9 17  1  1  0  0  0
 10 14  1  0  0  0  0
 11 14  2  0  0  0  0
 11 15  1  0  0  0  0
 12 16  1  0  0  0  0
 12 10  2  0  0  0  0
 14 13  1  0  0  0  0
 16 11  1  0  0  0  0
 18 27  1  0  0  0  0
 18 22  2  0  0  0  0
 19 24  1  1  0  0  0
 19 25  1  0  0  0  0
 20 17  1  6  0  0  0
 20 22  1  0  0  0  0
 20 28  1  0  0  0  0
 21 26  1  0  0  0  0
 21 24  1  0  0  0  0
 22 19  1  0  0  0  0
 23 25  2  0  0  0  0
 27 21  2  0  0  0  0
 28 23  1  0  0  0  0
M  END
>  <MODEL>
6

>  <REMARK>
 VINA RESULT:      -8.0      2.449      3.902
  Name = 
  3 active torsions:
  status: ('A' for Active; 'I' for Inactive)
    1  A    between atoms: N_2  and  C_3
    2  A    between atoms: C_10  and  O_17
    3  A    between atoms: O_17  and  C_27
                            x       y       z     vdW  Elec       q    Type
                         _______ _______ _______ _____ _____    ______ ____

>  <TORSDO>
F 3

$$$$
=
 OpenBabel10272401473D

 28 31  0  0  1  0  0  0  0  0999 V2000
  184.5520  179.0000  143.1430 C   0  0  0  0  0  0  0  0  0  0  0  0
  183.7550  179.3300  142.0010 N   0  0  0  0  0  2  0  0  0  0  0  0
  187.5410  177.4540  146.5010 C   0  0  0  0  0  1  0  0  0  0  0  0
  186.1780  178.1240  144.5360 C   0  0  0  0  0  0  0  0  0  0  0  0
  185.2440  179.0020  145.2150 C   0  0  0  0  0  0  0  0  0  0  0  0
  187.1910  177.4270  145.0530 C   0  0  0  0  0  3  0  0  0  0  0  0
  185.2560  179.2930  146.4400 O   0  0  0  0  0  0  0  0  0  0  0  0
  184.2840  179.5040  144.3070 N   0  0  0  0  0  0  0  0  0  0  0  0
  185.7850  178.1240  143.0980 C   0  0  2  0  0  3  0  0  0  0  0  0
  183.6670  178.5660  140.7930 C   0  0  0  0  0  0  0  0  0  0  0  0
  183.7930  177.8540  138.7230 C   0  0  0  0  0  0  0  0  0  0  0  0
  183.3050  177.2330  140.7280 C   0  0  0  0  0  3  0  0  0  0  0  0
  184.5020  180.1840  139.1030 O   0  0  0  0  0  1  0  0  0  0  0  0
  184.0020  178.9550  139.5150 C   0  0  0  0  0  0  0  0  0  0  0  0
  184.0030  177.7770  137.2530 C   0  0  0  0  0  1  0  0  0  0  0  0
  183.3830  176.8490  139.4680 O   0  0  0  0  0  0  0  0  0  0  0  0
  186.7880  178.7470  142.3430 O   0  0  0  0  0  0  0  0  0  0  0  0
  187.2160  178.0890  139.6150 C   0  0  0  0  0  3  0  0  0  0  0  0
  189.5970  177.7430  140.1930 C   0  0  2  0  0  3  0  0  0  0  0  0
  187.6990  177.7330  142.0160 C   0  0  1  0  0  3  0  0  0  0  0  0
  188.8300  177.8110  137.8060 C   0  0  0  0  0  0  0  0  0  0  0  0
  188.1250  177.8470  140.5670 C   0  0  0  0  0  0  0  0  0  0  0  0
  190.0170  176.9040  142.4780 C   0  0  0  0  0  3  0  0  0  0  0  0
  189.7900  177.1840  138.7800 C   0  0  0  0  0  2  0  0  0  0  0  0
  190.3390  176.8820  141.1790 C   0  0  0  0  0  3  0  0  0  0  0  0
  189.2690  177.9290  136.1160 Cl  0  0  0  0  0  0  0  0  0  0  0  0
  187.6060  178.1760  138.1980 C   0  0  0  0  0  3  0  0  0  0  0  0
  188.9110  177.7990  142.9590 C   0  0  0  0  0  2  0  0  0  0  0  0
  1  8  2  0  0  0  0
  2  1  1  0  0  0  0
  4  6  2  0  0  0  0
  4  5  1  0  0  0  0
  5  7  2  0  0  0  0
  6  3  1  0  0  0  0
  8  5  1  0  0  0  0
  9 17  1  6  0  0  0
  9  1  1  0  0  0  0
  9  4  1  0  0  0  0
 10  2  1  0  0  0  0
 11 16  1  0  0  0  0
 11 14  2  0  0  0  0
 12 10  2  0  0  0  0
 13 14  1  0  0  0  0
 14 10  1  0  0  0  0
 15 11  1  0  0  0  0
 16 12  1  0  0  0  0
 18 22  2  0  0  0  0
 19 24  1  6  0  0  0
 19 22  1  0  0  0  0
 19 25  1  0  0  0  0
 20 17  1  1  0  0  0
 20 28  1  0  0  0  0
 21 27  2  0  0  0  0
 21 24  1  0  0  0  0
 22 20  1  0  0  0  0
 23 28  1  0  0  0  0
 25 23  2  0  0  0  0
 26 21  1  0  0  0  0
 27 18  1  0  0  0  0
M  END
>  <MODEL>
7

>  <REMARK>
 VINA RESULT:      -8.0      3.279      7.097
  Name = 
  3 active torsions:
  status: ('A' for Active; 'I' for Inactive)
    1  A    between atoms: N_2  and  C_3
    2  A    between atoms: C_10  and  O_17
    3  A    between atoms: O_17  and  C_27
                            x       y       z     vdW  Elec       q    Type
                         _______ _______ _______ _____ _____    ______ ____

>  <TORSDO>
F 3

$$$$
=
 OpenBabel10272401473D

 28 31  0  0  1  0  0  0  0  0999 V2000
  190.8000  177.3270  140.4440 C   0  0  0  0  0  0  0  0  0  0  0  0
  191.4090  177.6220  141.7050 N   0  0  0  0  0  2  0  0  0  0  0  0
  188.1780  176.2430  136.6290 C   0  0  0  0  0  1  0  0  0  0  0  0
  189.2700  176.8430  138.7770 C   0  0  0  0  0  0  0  0  0  0  0  0
  190.6310  176.9790  138.2940 C   0  0  0  0  0  0  0  0  0  0  0  0
  188.1720  176.5210  138.0930 C   0  0  0  0  0  3  0  0  0  0  0  0
  191.0100  176.8500  137.1000 O   0  0  0  0  0  0  0  0  0  0  0  0
  191.5090  177.2790  139.3600 N   0  0  0  0  0  0  0  0  0  0  0  0
  189.3140  177.1210  140.2420 C   0  0  2  0  0  3  0  0  0  0  0  0
  190.8630  177.3110  142.9910 C   0  0  0  0  0  0  0  0  0  0  0  0
  190.0440  177.4010  145.0230 C   0  0  0  0  0  0  0  0  0  0  0  0
  190.3840  176.0680  143.3650 C   0  0  0  0  0  3  0  0  0  0  0  0
  190.8580  179.5360  144.0970 O   0  0  0  0  0  1  0  0  0  0  0  0
  190.6220  178.1680  144.0430 C   0  0  0  0  0  0  0  0  0  0  0  0
  189.6090  177.8740  146.3650 C   0  0  0  0  0  1  0  0  0  0  0  0
  189.9130  176.1650  144.5940 O   0  0  0  0  0  0  0  0  0  0  0  0
  188.6260  178.3120  140.5070 O   0  0  0  0  0  0  0  0  0  0  0  0
  187.2160  177.8390  142.9250 C   0  0  0  0  0  3  0  0  0  0  0  0
  185.2730  178.9530  141.8740 C   0  0  2  0  0  3  0  0  0  0  0  0
  187.2650  177.9810  140.4550 C   0  0  1  0  0  3  0  0  0  0  0  0
  185.3000  178.4130  144.3230 C   0  0  0  0  0  0  0  0  0  0  0  0
  186.6060  178.2220  141.7970 C   0  0  0  0  0  0  0  0  0  0  0  0
  185.0830  178.6570  139.4290 C   0  0  0  0  0  3  0  0  0  0  0  0
  184.4480  178.5130  143.0880 C   0  0  0  0  0  2  0  0  0  0  0  0
  184.4730  178.7370  140.6180 C   0  0  0  0  0  3  0  0  0  0  0  0
  184.5700  178.6500  145.8960 Cl  0  0  0  0  0  0  0  0  0  0  0  0
  186.5790  178.0390  144.2380 C   0  0  0  0  0  3  0  0  0  0  0  0
  186.5760  178.7890  139.3440 C   0  0  0  0  0  2  0  0  0  0  0  0
  1  2  1  0  0  0  0
  2 10  1  0  0  0  0
  3  6  1  0  0  0  0
  4  9  1  0  0  0  0
  5  4  1  0  0  0  0
  5  8  1  0  0  0  0
  6  4  2  0  0  0  0
  7  5  2  0  0  0  0
  8  1  2  0  0  0  0
  9  1  1  0  0  0  0
  9 17  1  6  0  0  0
 10 12  2  0  0  0  0
 10 14  1  0  0  0  0
 11 15  1  0  0  0  0
 12 16  1  0  0  0  0
 14 13  1  0  0  0  0
 14 11  2  0  0  0  0
 16 11  1  0  0  0  0
 18 27  1  0  0  0  0
 19 25  1  6  0  0  0
 19 24  1  0  0  0  0
 20 17  1  1  0  0  0
 20 22  1  0  0  0  0
 21 26  1  0  0  0  0
 22 19  1  0  0  0  0
 22 18  2  0  0  0  0
 23 25  2  0  0  0  0
 24 21  1  0  0  0  0
 27 21  2  0  0  0  0
 28 23  1  0  0  0  0
 28 20  1  0  0  0  0
M  END
>  <MODEL>
8

>  <REMARK>
 VINA RESULT:      -7.9      2.437      3.877
  Name = 
  3 active torsions:
  status: ('A' for Active; 'I' for Inactive)
    1  A    between atoms: N_2  and  C_3
    2  A    between atoms: C_10  and  O_17
    3  A    between atoms: O_17  and  C_27
                            x       y       z     vdW  Elec       q    Type
                         _______ _______ _______ _____ _____    ______ ____

>  <TORSDO>
F 3

$$$$
=
 OpenBabel10272401473D

 28 31  0  0  1  0  0  0  0  0999 V2000
  192.1100  177.2340  140.3820 C   0  0  0  0  0  0  0  0  0  0  0  0
  192.1170  177.6160  141.7600 N   0  0  0  0  0  2  0  0  0  0  0  0
  191.3950  175.8290  135.8960 C   0  0  0  0  0  1  0  0  0  0  0  0
  191.4500  176.5810  138.2620 C   0  0  0  0  0  0  0  0  0  0  0  0
  192.8790  176.8010  138.3830 C   0  0  0  0  0  0  0  0  0  0  0  0
  190.7590  176.1560  137.2040 C   0  0  0  0  0  3  0  0  0  0  0  0
  193.7300  176.6590  137.4660 O   0  0  0  0  0  0  0  0  0  0  0  0
  193.2110  177.2000  139.6970 N   0  0  0  0  0  0  0  0  0  0  0  0
  190.8600  176.9130  139.5910 C   0  0  2  0  0  3  0  0  0  0  0  0
  191.0970  177.3100  142.7180 C   0  0  0  0  0  0  0  0  0  0  0  0
  189.5850  177.3970  144.3030 C   0  0  0  0  0  0  0  0  0  0  0  0
  190.3930  176.1210  142.7670 C   0  0  0  0  0  3  0  0  0  0  0  0
  190.8950  179.4560  143.9530 O   0  0  0  0  0  1  0  0  0  0  0  0
  190.5630  178.1340  143.6840 C   0  0  0  0  0  0  0  0  0  0  0  0
  188.7250  177.8510  145.4290 C   0  0  0  0  0  1  0  0  0  0  0  0
  189.5050  176.2120  143.7390 O   0  0  0  0  0  0  0  0  0  0  0  0
  190.0630  178.0580  139.4710 O   0  0  0  0  0  0  0  0  0  0  0  0
  187.8680  178.0150  141.2710 C   0  0  0  0  0  3  0  0  0  0  0  0
  186.4420  178.6880  139.3640 C   0  0  2  0  0  3  0  0  0  0  0  0
  188.8150  177.6040  139.0220 C   0  0  1  0  0  3  0  0  0  0  0  0
  185.5730  178.7150  141.7180 C   0  0  0  0  0  0  0  0  0  0  0  0
  187.7120  178.0800  139.9430 C   0  0  0  0  0  0  0  0  0  0  0  0
  187.1570  177.8360  137.1590 C   0  0  0  0  0  3  0  0  0  0  0  0
  185.2310  178.4590  140.2750 C   0  0  0  0  0  2  0  0  0  0  0  0
  186.1550  178.1260  137.9990 C   0  0  0  0  0  3  0  0  0  0  0  0
  184.3190  179.2310  142.8240 Cl  0  0  0  0  0  0  0  0  0  0  0  0
  186.7950  178.4460  142.1830 C   0  0  0  0  0  3  0  0  0  0  0  0
  188.5780  178.0790  137.5790 C   0  0  0  0  0  2  0  0  0  0  0  0
  1  2  1  0  0  0  0
  2 10  1  0  0  0  0
  3  6  1  0  0  0  0
  4  5  1  0  0  0  0
  4  9  1  0  0  0  0
  5  8  1  0  0  0  0
  6  4  2  0  0  0  0
  7  5  2  0  0  0  0
  8  1  2  0  0  0  0
  9 17  1  6  0  0  0
  9  1  1  0  0  0  0
 10 12  2  0  0  0  0
 10 14  1  0  0  0  0
 11 15  1  0  0  0  0
 12 16  1  0  0  0  0
 14 13  1  0  0  0  0
 14 11  2  0  0  0  0
 16 11  1  0  0  0  0
 18 27  1  0  0  0  0
 19 25  1  6  0  0  0
 19 22  1  0  0  0  0
 19 24  1  0  0  0  0
 20 17  1  1  0  0  0
 20 22  1  0  0  0  0
 21 27  2  0  0  0  0
 21 26  1  0  0  0  0
 22 18  2  0  0  0  0
 23 28  1  0  0  0  0
 23 25  2  0  0  0  0
 24 21  1  0  0  0  0
 28 20  1  0  0  0  0
M  END
>  <MODEL>
9

>  <REMARK>
 VINA RESULT:      -7.9      3.359      5.800
  Name = 
  3 active torsions:
  status: ('A' for Active; 'I' for Inactive)
    1  A    between atoms: N_2  and  C_3
    2  A    between atoms: C_10  and  O_17
    3  A    between atoms: O_17  and  C_27
                            x       y       z     vdW  Elec       q    Type
                         _______ _______ _______ _____ _____    ______ ____

>  <TORSDO>
F 3

$$$$
