=
 OpenBabel10272400133D

 31 35  0  0  0  0  0  0  0  0999 V2000
  183.9780  178.8220  143.8740 C   0  0  0  0  0  0  0  0  0  0  0  0
  187.5870  177.7430  144.1140 C   0  0  0  0  0  0  0  0  0  0  0  0
  187.9030  177.6530  145.5160 C   0  0  0  0  0  0  0  0  0  0  0  0
  188.1760  177.4950  138.8780 O   0  0  0  0  0  0  0  0  0  0  0  0
  189.2750  177.1990  139.4190 C   0  0  0  0  0  0  0  0  0  0  0  0
  187.2200  178.6300  147.7530 C   0  0  0  0  0  2  0  0  0  0  0  0
  186.3020  178.1100  143.5970 C   0  0  0  0  0  0  0  0  0  0  0  0
  183.8010  178.8350  142.4920 C   0  0  0  0  0  3  0  0  0  0  0  0
  186.8140  177.7850  146.5580 C   0  0  0  0  0  2  0  0  0  0  0  0
  188.3530  177.4990  141.7890 C   0  0  0  0  0  0  0  0  0  0  0  0
  182.9510  179.1540  144.6920 F   0  0  0  0  0  0  0  0  0  0  0  0
  190.2000  177.0540  144.9470 C   0  0  0  0  0  3  0  0  0  0  0  0
  187.8040  177.7520  148.8580 C   0  0  0  0  0  2  0  0  0  0  0  0
  187.1160  177.8370  141.3490 N   0  0  0  0  0  0  0  0  0  0  0  0
  188.6140  177.4510  143.1690 C   0  0  0  0  0  0  0  0  0  0  0  0
  189.3940  177.1920  140.8490 N   0  0  0  0  0  2  0  0  0  0  0  0
  185.2150  178.4660  144.4150 C   0  0  0  0  0  3  0  0  0  0  0  0
  188.7660  176.6910  148.3270 C   0  0  0  0  0  2  0  0  0  0  0  0
  186.1030  178.1410  142.1930 C   0  0  0  0  0  0  0  0  0  0  0  0
  184.8640  178.4960  141.6550 C   0  0  0  0  0  3  0  0  0  0  0  0
  189.8960  177.1130  143.6000 C   0  0  0  0  0  3  0  0  0  0  0  0
  189.2310  177.3040  145.9110 C   0  0  0  0  0  0  0  0  0  0  0  0
  189.7400  177.2990  147.3310 C   0  0  0  0  0  2  0  0  0  0  0  0
  192.6260  176.1820  136.9320 C   0  0  0  0  0  0  0  0  0  0  0  0
  190.2440  176.3990  137.2760 C   0  0  0  0  0  3  0  0  0  0  0  0
  192.0500  177.4180  140.3520 O   0  0  0  0  0  1  0  0  0  0  0  0
  193.7740  175.8270  136.0580 C   0  0  0  0  0  1  0  0  0  0  0  0
  191.3210  176.0660  136.4530 C   0  0  0  0  0  3  0  0  0  0  0  0
  191.7790  176.9730  139.0640 C   0  0  0  0  0  0  0  0  0  0  0  0
  190.4530  176.8570  138.5880 C   0  0  0  0  0  0  0  0  0  0  0  0
  192.8530  176.6350  138.2330 C   0  0  0  0  0  3  0  0  0  0  0  0
  1 17  1  0  0  0  0
  1 11  1  0  0  0  0
  2  3  1  0  0  0  0
  3 22  2  0  0  0  0
  3  9  1  0  0  0  0
  4  5  2  0  0  0  0
  5 16  1  0  0  0  0
  6 13  1  0  0  0  0
  7  2  1  0  0  0  0
  7 17  2  0  0  0  0
  8  1  2  0  0  0  0
  9  6  1  0  0  0  0
 10 15  1  0  0  0  0
 12 22  1  0  0  0  0
 14 10  2  0  0  0  0
 14 19  1  0  0  0  0
 15 21  1  0  0  0  0
 15  2  2  0  0  0  0
 16 10  1  0  0  0  0
 18 13  1  0  0  0  0
 19  7  1  0  0  0  0
 20 19  2  0  0  0  0
 20  8  1  0  0  0  0
 21 12  2  0  0  0  0
 22 23  1  0  0  0  0
 23 18  1  0  0  0  0
 24 31  1  0  0  0  0
 25 30  2  0  0  0  0
 27 24  1  0  0  0  0
 28 24  2  0  0  0  0
 28 25  1  0  0  0  0
 29 26  1  0  0  0  0
 30 29  1  0  0  0  0
 30  5  1  0  0  0  0
 31 29  2  0  0  0  0
M  END
>  <MODEL>
1

>  <REMARK>
 VINA RESULT:     -11.8      0.000      0.000
  Name = 
  1 active torsions:
  status: ('A' for Active; 'I' for Inactive)
    1  A    between atoms: C_9  and  C_22
                            x       y       z     vdW  Elec       q    Type
                         _______ _______ _______ _____ _____    ______ ____

>  <TORSDO>
F 1

$$$$
=
 OpenBabel10272400133D

 31 35  0  0  0  0  0  0  0  0999 V2000
  191.1850  177.1790  142.7340 C   0  0  0  0  0  0  0  0  0  0  0  0
  187.6200  178.0040  143.6580 C   0  0  0  0  0  0  0  0  0  0  0  0
  187.5460  177.9810  145.0960 C   0  0  0  0  0  0  0  0  0  0  0  0
  186.1240  178.5510  138.6290 O   0  0  0  0  0  0  0  0  0  0  0  0
  185.1210  178.7400  139.3680 C   0  0  0  0  0  0  0  0  0  0  0  0
  188.6540  176.9080  147.1060 C   0  0  0  0  0  2  0  0  0  0  0  0
  188.8130  177.7540  142.9060 C   0  0  0  0  0  0  0  0  0  0  0  0
  191.1210  177.2670  141.3450 C   0  0  0  0  0  3  0  0  0  0  0  0
  188.8040  177.8540  145.9270 C   0  0  0  0  0  2  0  0  0  0  0  0
  186.4520  178.3470  141.5200 C   0  0  0  0  0  0  0  0  0  0  0  0
  192.3530  176.8610  143.3400 F   0  0  0  0  0  0  0  0  0  0  0  0
  185.1570  178.4670  144.9680 C   0  0  0  0  0  3  0  0  0  0  0  0
  188.2250  177.6730  148.3560 C   0  0  0  0  0  2  0  0  0  0  0  0
  187.6110  178.1190  140.8540 N   0  0  0  0  0  0  0  0  0  0  0  0
  186.4310  178.2890  142.9240 C   0  0  0  0  0  0  0  0  0  0  0  0
  185.2500  178.6460  140.7940 N   0  0  0  0  0  2  0  0  0  0  0  0
  190.0430  177.4180  143.5000 C   0  0  0  0  0  3  0  0  0  0  0  0
  187.1300  178.7020  148.0760 C   0  0  0  0  0  2  0  0  0  0  0  0
  188.7680  177.8270  141.4910 C   0  0  0  0  0  0  0  0  0  0  0  0
  189.9140  177.5890  140.7260 C   0  0  0  0  0  3  0  0  0  0  0  0
  185.2270  178.5140  143.5890 C   0  0  0  0  0  3  0  0  0  0  0  0
  186.2890  178.2170  145.7340 C   0  0  0  0  0  0  0  0  0  0  0  0
  186.0330  178.0980  147.2150 C   0  0  0  0  0  2  0  0  0  0  0  0
  181.3010  179.7580  137.6880 C   0  0  0  0  0  0  0  0  0  0  0  0
  183.2670  180.3430  138.9670 C   0  0  0  0  0  3  0  0  0  0  0  0
  183.5330  176.8320  137.7990 O   0  0  0  0  0  1  0  0  0  0  0  0
  179.9820  180.1270  137.1140 C   0  0  0  0  0  1  0  0  0  0  0  0
  182.0270  180.6920  138.4280 C   0  0  0  0  0  3  0  0  0  0  0  0
  183.0580  178.1190  138.0230 C   0  0  0  0  0  0  0  0  0  0  0  0
  183.8010  179.0580  138.7750 C   0  0  0  0  0  0  0  0  0  0  0  0
  181.8170  178.4760  137.4870 C   0  0  0  0  0  3  0  0  0  0  0  0
  1 11  1  0  0  0  0
  1 17  1  0  0  0  0
  2  3  1  0  0  0  0
  3 22  2  0  0  0  0
  3  9  1  0  0  0  0
  4  5  2  0  0  0  0
  5 16  1  0  0  0  0
  6 13  1  0  0  0  0
  7 17  2  0  0  0  0
  7  2  1  0  0  0  0
  8  1  2  0  0  0  0
  9  6  1  0  0  0  0
 10 15  1  0  0  0  0
 12 22  1  0  0  0  0
 14 19  1  0  0  0  0
 14 10  2  0  0  0  0
 15 21  1  0  0  0  0
 15  2  2  0  0  0  0
 16 10  1  0  0  0  0
 18 13  1  0  0  0  0
 19  7  1  0  0  0  0
 20  8  1  0  0  0  0
 20 19  2  0  0  0  0
 21 12  2  0  0  0  0
 22 23  1  0  0  0  0
 23 18  1  0  0  0  0
 24 28  1  0  0  0  0
 26 29  1  0  0  0  0
 27 24  1  0  0  0  0
 28 25  2  0  0  0  0
 29 30  2  0  0  0  0
 30 25  1  0  0  0  0
 30  5  1  0  0  0  0
 31 24  2  0  0  0  0
 31 29  1  0  0  0  0
M  END
>  <MODEL>
2

>  <REMARK>
 VINA RESULT:     -11.6      3.200      6.442
  Name = 
  1 active torsions:
  status: ('A' for Active; 'I' for Inactive)
    1  A    between atoms: C_9  and  C_22
                            x       y       z     vdW  Elec       q    Type
                         _______ _______ _______ _____ _____    ______ ____

>  <TORSDO>
F 1

$$$$
=
 OpenBabel10272400133D

 31 35  0  0  0  0  0  0  0  0999 V2000
  185.3820  178.4650  146.5310 C   0  0  0  0  0  0  0  0  0  0  0  0
  188.4660  177.5670  144.5500 C   0  0  0  0  0  0  0  0  0  0  0  0
  189.4840  177.2090  145.5020 C   0  0  0  0  0  0  0  0  0  0  0  0
  186.1070  178.4350  139.9110 O   0  0  0  0  0  0  0  0  0  0  0  0
  187.3020  178.0970  139.6960 C   0  0  0  0  0  0  0  0  0  0  0  0
  190.1870  177.6650  147.8940 C   0  0  0  0  0  2  0  0  0  0  0  0
  187.1330  177.9590  144.8990 C   0  0  0  0  0  0  0  0  0  0  0  0
  184.4860  178.7510  145.5030 C   0  0  0  0  0  3  0  0  0  0  0  0
  189.1450  177.0610  146.9690 C   0  0  0  0  0  2  0  0  0  0  0  0
  187.8320  177.8500  142.1890 C   0  0  0  0  0  0  0  0  0  0  0  0
  184.9860  178.5630  147.8220 F   0  0  0  0  0  0  0  0  0  0  0  0
  191.0620  176.8710  143.6710 C   0  0  0  0  0  3  0  0  0  0  0  0
  191.2180  176.6130  148.3000 C   0  0  0  0  0  2  0  0  0  0  0  0
  186.5800  178.2010  142.5700 N   0  0  0  0  0  0  0  0  0  0  0  0
  188.7960  177.5340  143.1620 C   0  0  0  0  0  0  0  0  0  0  0  0
  188.1760  177.8030  140.7950 N   0  0  0  0  0  2  0  0  0  0  0  0
  186.6880  178.0760  146.2280 C   0  0  0  0  0  3  0  0  0  0  0  0
  191.6680  175.7400  147.1290 C   0  0  0  0  0  2  0  0  0  0  0  0
  186.2080  178.2660  143.8690 C   0  0  0  0  0  0  0  0  0  0  0  0
  184.9010  178.6540  144.1750 C   0  0  0  0  0  3  0  0  0  0  0  0
  190.0810  177.1890  142.7500 C   0  0  0  0  0  3  0  0  0  0  0  0
  190.7880  176.8630  145.0330 C   0  0  0  0  0  0  0  0  0  0  0  0
  191.9840  176.5940  145.9130 C   0  0  0  0  0  2  0  0  0  0  0  0
  188.8910  177.8140  135.7160 C   0  0  0  0  0  0  0  0  0  0  0  0
  189.2050  177.9150  138.1100 C   0  0  0  0  0  3  0  0  0  0  0  0
  185.5850  178.0740  137.3140 O   0  0  0  0  0  1  0  0  0  0  0  0
  189.4580  177.7150  134.3460 C   0  0  0  0  0  1  0  0  0  0  0  0
  189.7390  177.8220  136.8230 C   0  0  0  0  0  3  0  0  0  0  0  0
  186.9660  177.9920  137.1810 C   0  0  0  0  0  0  0  0  0  0  0  0
  187.8170  178.0010  138.3100 C   0  0  0  0  0  0  0  0  0  0  0  0
  187.5090  177.8980  135.8950 C   0  0  0  0  0  3  0  0  0  0  0  0
  1 11  1  0  0  0  0
  2  7  1  0  0  0  0
  2  3  1  0  0  0  0
  3  9  1  0  0  0  0
  5  4  2  0  0  0  0
  5 16  1  0  0  0  0
  6 13  1  0  0  0  0
  7 17  2  0  0  0  0
  8  1  2  0  0  0  0
  9  6  1  0  0  0  0
 10 14  2  0  0  0  0
 10 15  1  0  0  0  0
 12 22  1  0  0  0  0
 14 19  1  0  0  0  0
 15  2  2  0  0  0  0
 16 10  1  0  0  0  0
 17  1  1  0  0  0  0
 18 13  1  0  0  0  0
 19 20  2  0  0  0  0
 19  7  1  0  0  0  0
 20  8  1  0  0  0  0
 21 15  1  0  0  0  0
 21 12  2  0  0  0  0
 22  3  2  0  0  0  0
 22 23  1  0  0  0  0
 23 18  1  0  0  0  0
 24 31  2  0  0  0  0
 24 28  1  0  0  0  0
 25 30  1  0  0  0  0
 27 24  1  0  0  0  0
 28 25  2  0  0  0  0
 29 26  1  0  0  0  0
 29 30  2  0  0  0  0
 30  5  1  0  0  0  0
 31 29  1  0  0  0  0
M  END
>  <MODEL>
3

>  <REMARK>
 VINA RESULT:     -11.1      2.252      3.108
  Name = 
  1 active torsions:
  status: ('A' for Active; 'I' for Inactive)
    1  A    between atoms: C_9  and  C_22
                            x       y       z     vdW  Elec       q    Type
                         _______ _______ _______ _____ _____    ______ ____

>  <TORSDO>
F 1

$$$$
=
 OpenBabel10272400133D

 31 35  0  0  0  0  0  0  0  0999 V2000
  186.1000  178.1640  146.7860 C   0  0  0  0  0  0  0  0  0  0  0  0
  186.9870  178.1340  143.1180 C   0  0  0  0  0  0  0  0  0  0  0  0
  188.3960  177.8490  143.0320 C   0  0  0  0  0  0  0  0  0  0  0  0
  182.0400  179.1630  141.6030 O   0  0  0  0  0  0  0  0  0  0  0  0
  182.7660  179.0870  140.5760 C   0  0  0  0  0  0  0  0  0  0  0  0
  190.5390  178.1010  144.3600 C   0  0  0  0  0  2  0  0  0  0  0  0
  186.2530  178.2190  144.3450 C   0  0  0  0  0  0  0  0  0  0  0  0
  184.7310  178.4140  146.7210 C   0  0  0  0  0  3  0  0  0  0  0  0
  189.1730  177.4430  144.2650 C   0  0  0  0  0  2  0  0  0  0  0  0
  184.8850  178.6100  141.9320 C   0  0  0  0  0  0  0  0  0  0  0  0
  186.7050  178.0110  147.9880 F   0  0  0  0  0  0  0  0  0  0  0  0
  188.2780  178.0620  140.6030 C   0  0  0  0  0  3  0  0  0  0  0  0
  191.6070  177.2150  143.7210 C   0  0  0  0  0  2  0  0  0  0  0  0
  184.2320  178.6650  143.1190 N   0  0  0  0  0  0  0  0  0  0  0  0
  186.2660  178.3520  141.9070 C   0  0  0  0  0  0  0  0  0  0  0  0
  184.1690  178.8160  140.7040 N   0  0  0  0  0  2  0  0  0  0  0  0
  186.8480  178.0710  145.6110 C   0  0  0  0  0  3  0  0  0  0  0  0
  191.1570  176.6080  142.3930 C   0  0  0  0  0  2  0  0  0  0  0  0
  184.8610  178.4840  144.3030 C   0  0  0  0  0  0  0  0  0  0  0  0
  184.1140  178.5750  145.4810 C   0  0  0  0  0  3  0  0  0  0  0  0
  186.9210  178.3120  140.6770 C   0  0  0  0  0  3  0  0  0  0  0  0
  189.0250  177.8190  141.7490 C   0  0  0  0  0  0  0  0  0  0  0  0
  190.5060  177.6630  141.5140 C   0  0  0  0  0  2  0  0  0  0  0  0
  181.0590  179.7380  136.6880 C   0  0  0  0  0  0  0  0  0  0  0  0
  181.7650  180.5640  138.8470 C   0  0  0  0  0  3  0  0  0  0  0  0
  182.4160  176.9180  138.6280 O   0  0  0  0  0  1  0  0  0  0  0  0
  180.4670  179.9810  135.3470 C   0  0  0  0  0  1  0  0  0  0  0  0
  181.2090  180.7940  137.5870 C   0  0  0  0  0  3  0  0  0  0  0  0
  182.0250  178.2130  138.3090 C   0  0  0  0  0  0  0  0  0  0  0  0
  182.1810  179.2770  139.2280 C   0  0  0  0  0  0  0  0  0  0  0  0
  181.4660  178.4520  137.0490 C   0  0  0  0  0  3  0  0  0  0  0  0
  1 11  1  0  0  0  0
  2  7  1  0  0  0  0
  3  2  1  0  0  0  0
  3  9  1  0  0  0  0
  5 16  1  0  0  0  0
  5  4  2  0  0  0  0
  7 17  1  0  0  0  0
  8  1  1  0  0  0  0
  9  6  1  0  0  0  0
 10 14  2  0  0  0  0
 12 21  2  0  0  0  0
 12 22  1  0  0  0  0
 13  6  1  0  0  0  0
 14 19  1  0  0  0  0
 15 10  1  0  0  0  0
 15  2  2  0  0  0  0
 16 10  1  0  0  0  0
 17  1  2  0  0  0  0
 18 13  1  0  0  0  0
 19  7  2  0  0  0  0
 19 20  1  0  0  0  0
 20  8  2  0  0  0  0
 21 15  1  0  0  0  0
 22  3  2  0  0  0  0
 23 22  1  0  0  0  0
 23 18  1  0  0  0  0
 24 31  2  0  0  0  0
 24 28  1  0  0  0  0
 25 30  1  0  0  0  0
 27 24  1  0  0  0  0
 28 25  2  0  0  0  0
 29 26  1  0  0  0  0
 29 30  2  0  0  0  0
 30  5  1  0  0  0  0
 31 29  1  0  0  0  0
M  END
>  <MODEL>
4

>  <REMARK>
 VINA RESULT:     -10.8      3.574      6.775
  Name = 
  1 active torsions:
  status: ('A' for Active; 'I' for Inactive)
    1  A    between atoms: C_9  and  C_22
                            x       y       z     vdW  Elec       q    Type
                         _______ _______ _______ _____ _____    ______ ____

>  <TORSDO>
F 1

$$$$
=
 OpenBabel10272400133D

 31 35  0  0  0  0  0  0  0  0999 V2000
  188.8060  177.5560  147.6570 C   0  0  0  0  0  0  0  0  0  0  0  0
  187.4410  177.8930  144.1540 C   0  0  0  0  0  0  0  0  0  0  0  0
  186.0670  178.3030  144.2800 C   0  0  0  0  0  0  0  0  0  0  0  0
  192.0230  176.5430  141.9150 O   0  0  0  0  0  0  0  0  0  0  0  0
  191.1760  176.7460  141.0040 C   0  0  0  0  0  0  0  0  0  0  0  0
  184.1070  178.1510  145.8790 C   0  0  0  0  0  2  0  0  0  0  0  0
  188.3220  177.6680  145.2610 C   0  0  0  0  0  0  0  0  0  0  0  0
  190.1240  177.1950  147.3890 C   0  0  0  0  0  3  0  0  0  0  0  0
  185.5030  178.6950  145.6280 C   0  0  0  0  0  2  0  0  0  0  0  0
  189.3120  177.3160  142.6650 C   0  0  0  0  0  0  0  0  0  0  0  0
  188.3840  177.6830  148.9380 F   0  0  0  0  0  0  0  0  0  0  0  0
  185.8370  178.2350  141.8500 C   0  0  0  0  0  3  0  0  0  0  0  0
  183.0500  179.1630  145.4410 C   0  0  0  0  0  2  0  0  0  0  0  0
  190.1110  177.1300  143.7440 N   0  0  0  0  0  0  0  0  0  0  0  0
  187.9700  177.6920  142.8450 C   0  0  0  0  0  0  0  0  0  0  0  0
  189.8340  177.1270  141.3400 N   0  0  0  0  0  2  0  0  0  0  0  0
  187.9190  177.7870  146.6040 C   0  0  0  0  0  3  0  0  0  0  0  0
  183.3720  179.8130  144.0960 C   0  0  0  0  0  2  0  0  0  0  0  0
  189.6650  177.2890  145.0120 C   0  0  0  0  0  0  0  0  0  0  0  0
  190.5510  177.0600  146.0690 C   0  0  0  0  0  3  0  0  0  0  0  0
  187.1630  177.8660  141.7220 C   0  0  0  0  0  3  0  0  0  0  0  0
  185.2770  178.4680  143.1000 C   0  0  0  0  0  0  0  0  0  0  0  0
  183.7980  178.7640  143.0820 C   0  0  0  0  0  2  0  0  0  0  0  0
  192.1770  176.2720  136.8540 C   0  0  0  0  0  0  0  0  0  0  0  0
  190.5790  176.1640  138.6640 C   0  0  0  0  0  3  0  0  0  0  0  0
  193.8670  177.2880  139.9620 O   0  0  0  0  0  1  0  0  0  0  0  0
  192.5050  176.1040  135.4150 C   0  0  0  0  0  1  0  0  0  0  0  0
  190.8860  176.0050  137.3120 C   0  0  0  0  0  3  0  0  0  0  0  0
  192.8590  176.8620  139.1060 C   0  0  0  0  0  0  0  0  0  0  0  0
  191.5550  176.5930  139.5800 C   0  0  0  0  0  0  0  0  0  0  0  0
  193.1590  176.7000  137.7490 C   0  0  0  0  0  3  0  0  0  0  0  0
  1 11  1  0  0  0  0
  2  3  1  0  0  0  0
  2  7  1  0  0  0  0
  3  9  1  0  0  0  0
  5 16  1  0  0  0  0
  5  4  2  0  0  0  0
  7 17  1  0  0  0  0
  8  1  1  0  0  0  0
  9  6  1  0  0  0  0
 10 15  1  0  0  0  0
 10 14  2  0  0  0  0
 12 22  1  0  0  0  0
 13  6  1  0  0  0  0
 14 19  1  0  0  0  0
 15  2  2  0  0  0  0
 16 10  1  0  0  0  0
 17  1  2  0  0  0  0
 18 13  1  0  0  0  0
 19  7  2  0  0  0  0
 19 20  1  0  0  0  0
 20  8  2  0  0  0  0
 21 12  2  0  0  0  0
 21 15  1  0  0  0  0
 22  3  2  0  0  0  0
 23 22  1  0  0  0  0
 23 18  1  0  0  0  0
 24 28  2  0  0  0  0
 24 31  1  0  0  0  0
 25 30  2  0  0  0  0
 27 24  1  0  0  0  0
 28 25  1  0  0  0  0
 29 30  1  0  0  0  0
 29 26  1  0  0  0  0
 30  5  1  0  0  0  0
 31 29  2  0  0  0  0
M  END
>  <MODEL>
5

>  <REMARK>
 VINA RESULT:     -10.6      1.889      4.210
  Name = 
  1 active torsions:
  status: ('A' for Active; 'I' for Inactive)
    1  A    between atoms: C_9  and  C_22
                            x       y       z     vdW  Elec       q    Type
                         _______ _______ _______ _____ _____    ______ ____

>  <TORSDO>
F 1

$$$$
=
 OpenBabel10272400133D

 31 35  0  0  0  0  0  0  0  0999 V2000
  186.7110  178.0980  147.4060 C   0  0  0  0  0  0  0  0  0  0  0  0
  187.2910  178.0280  143.6780 C   0  0  0  0  0  0  0  0  0  0  0  0
  188.6960  177.7880  143.4780 C   0  0  0  0  0  0  0  0  0  0  0  0
  182.2010  178.8610  142.5670 O   0  0  0  0  0  0  0  0  0  0  0  0
  182.8410  178.7900  141.4840 C   0  0  0  0  0  0  0  0  0  0  0  0
  190.9320  178.1370  144.6180 C   0  0  0  0  0  2  0  0  0  0  0  0
  186.6590  178.1120  144.9610 C   0  0  0  0  0  0  0  0  0  0  0  0
  185.3340  178.3000  147.4520 C   0  0  0  0  0  3  0  0  0  0  0  0
  189.5870  177.4320  144.6490 C   0  0  0  0  0  2  0  0  0  0  0  0
  185.0810  178.4100  142.6650 C   0  0  0  0  0  0  0  0  0  0  0  0
  187.4190  177.9890  148.5560 F   0  0  0  0  0  0  0  0  0  0  0  0
  188.3690  177.9500  141.0650 C   0  0  0  0  0  3  0  0  0  0  0  0
  191.9730  177.2760  143.9070 C   0  0  0  0  0  2  0  0  0  0  0  0
  184.5270  178.4660  143.9010 N   0  0  0  0  0  0  0  0  0  0  0  0
  186.4630  178.1980  142.5290 C   0  0  0  0  0  0  0  0  0  0  0  0
  184.2590  178.5680  141.4980 N   0  0  0  0  0  2  0  0  0  0  0  0
  187.3610  178.0070  146.1750 C   0  0  0  0  0  3  0  0  0  0  0  0
  191.4370  176.6280  142.6310 C   0  0  0  0  0  2  0  0  0  0  0  0
  185.2590  178.3290  145.0310 C   0  0  0  0  0  0  0  0  0  0  0  0
  184.6110  178.4170  146.2660 C   0  0  0  0  0  3  0  0  0  0  0  0
  187.0150  178.1560  141.2490 C   0  0  0  0  0  3  0  0  0  0  0  0
  189.2160  177.7540  142.1490 C   0  0  0  0  0  0  0  0  0  0  0  0
  190.6780  177.6440  141.7920 C   0  0  0  0  0  2  0  0  0  0  0  0
  180.7300  179.1500  137.7610 C   0  0  0  0  0  0  0  0  0  0  0  0
  180.8850  178.3220  140.0260 C   0  0  0  0  0  3  0  0  0  0  0  0
  183.9210  180.2880  139.2010 O   0  0  0  0  0  1  0  0  0  0  0  0
  179.9850  179.2660  136.4800 C   0  0  0  0  0  1  0  0  0  0  0  0
  180.1840  178.4300  138.8230 C   0  0  0  0  0  3  0  0  0  0  0  0
  182.6840  179.6620  139.1040 C   0  0  0  0  0  0  0  0  0  0  0  0
  182.1400  178.9340  140.1860 C   0  0  0  0  0  0  0  0  0  0  0  0
  181.9760  179.7650  137.9020 C   0  0  0  0  0  3  0  0  0  0  0  0
  1  8  1  0  0  0  0
  1 11  1  0  0  0  0
  2  7  1  0  0  0  0
  3  2  1  0  0  0  0
  3  9  1  0  0  0  0
  5 16  1  0  0  0  0
  5  4  2  0  0  0  0
  6  9  1  0  0  0  0
  7 19  2  0  0  0  0
  7 17  1  0  0  0  0
 10 14  2  0  0  0  0
 12 21  2  0  0  0  0
 12 22  1  0  0  0  0
 13  6  1  0  0  0  0
 14 19  1  0  0  0  0
 15 10  1  0  0  0  0
 15  2  2  0  0  0  0
 16 10  1  0  0  0  0
 17  1  2  0  0  0  0
 18 13  1  0  0  0  0
 19 20  1  0  0  0  0
 20  8  2  0  0  0  0
 21 15  1  0  0  0  0
 22  3  2  0  0  0  0
 23 22  1  0  0  0  0
 23 18  1  0  0  0  0
 24 31  2  0  0  0  0
 24 28  1  0  0  0  0
 25 30  1  0  0  0  0
 27 24  1  0  0  0  0
 28 25  2  0  0  0  0
 29 26  1  0  0  0  0
 29 30  2  0  0  0  0
 30  5  1  0  0  0  0
 31 29  1  0  0  0  0
M  END
>  <MODEL>
6

>  <REMARK>
 VINA RESULT:     -10.4      3.487      6.823
  Name = 
  1 active torsions:
  status: ('A' for Active; 'I' for Inactive)
    1  A    between atoms: C_9  and  C_22
                            x       y       z     vdW  Elec       q    Type
                         _______ _______ _______ _____ _____    ______ ____

>  <TORSDO>
F 1

$$$$
=
 OpenBabel10272400133D

 31 35  0  0  0  0  0  0  0  0999 V2000
  192.4860  177.0420  141.1850 C   0  0  0  0  0  0  0  0  0  0  0  0
  189.4340  177.4540  143.3670 C   0  0  0  0  0  0  0  0  0  0  0  0
  189.8540  177.2070  144.7210 C   0  0  0  0  0  0  0  0  0  0  0  0
  186.3090  178.6520  139.2890 O   0  0  0  0  0  0  0  0  0  0  0  0
  185.6140  178.6520  140.3400 C   0  0  0  0  0  0  0  0  0  0  0  0
  191.5980  175.9230  146.0380 C   0  0  0  0  0  2  0  0  0  0  0  0
  190.3050  177.4100  142.2300 C   0  0  0  0  0  0  0  0  0  0  0  0
  191.9520  177.3360  139.9320 C   0  0  0  0  0  3  0  0  0  0  0  0
  191.3210  177.0460  145.0530 C   0  0  0  0  0  2  0  0  0  0  0  0
  187.6040  178.0340  141.8280 C   0  0  0  0  0  0  0  0  0  0  0  0
  193.7970  176.7220  141.3050 F   0  0  0  0  0  0  0  0  0  0  0  0
  187.5560  177.5300  145.4790 C   0  0  0  0  0  3  0  0  0  0  0  0
  191.6060  176.4550  147.4690 C   0  0  0  0  0  2  0  0  0  0  0  0
  188.4710  177.9950  140.7870 N   0  0  0  0  0  0  0  0  0  0  0  0
  188.0620  177.7600  143.1280 C   0  0  0  0  0  0  0  0  0  0  0  0
  186.2210  178.3520  141.6050 N   0  0  0  0  0  2  0  0  0  0  0  0
  191.6690  177.0780  142.3160 C   0  0  0  0  0  3  0  0  0  0  0  0
  190.4640  177.4320  147.7460 C   0  0  0  0  0  2  0  0  0  0  0  0
  189.7800  177.6950  140.9440 C   0  0  0  0  0  0  0  0  0  0  0  0
  190.6020  177.6600  139.8130 C   0  0  0  0  0  3  0  0  0  0  0  0
  187.1520  177.7930  144.1840 C   0  0  0  0  0  3  0  0  0  0  0  0
  188.8850  177.2500  145.7710 C   0  0  0  0  0  0  0  0  0  0  0  0
  189.1500  176.8880  147.2110 C   0  0  0  0  0  2  0  0  0  0  0  0
  181.4280  179.5770  140.0750 C   0  0  0  0  0  0  0  0  0  0  0  0
  183.6360  179.4960  139.0970 C   0  0  0  0  0  3  0  0  0  0  0  0
  183.7590  178.2070  142.5730 O   0  0  0  0  0  1  0  0  0  0  0  0
  179.9820  179.9020  139.9660 C   0  0  0  0  0  1  0  0  0  0  0  0
  182.2780  179.8020  138.9920 C   0  0  0  0  0  3  0  0  0  0  0  0
  183.2950  178.7340  141.3740 C   0  0  0  0  0  0  0  0  0  0  0  0
  184.1650  178.9600  140.2820 C   0  0  0  0  0  0  0  0  0  0  0  0
  181.9360  179.0440  141.2610 C   0  0  0  0  0  3  0  0  0  0  0  0
  1 11  1  0  0  0  0
  1 17  1  0  0  0  0
  2  3  1  0  0  0  0
  3  9  1  0  0  0  0
  3 22  2  0  0  0  0
  4  5  2  0  0  0  0
  5 16  1  0  0  0  0
  6 13  1  0  0  0  0
  7 17  2  0  0  0  0
  7  2  1  0  0  0  0
  8  1  2  0  0  0  0
  9  6  1  0  0  0  0
 10 15  1  0  0  0  0
 12 22  1  0  0  0  0
 13 18  1  0  0  0  0
 14 19  1  0  0  0  0
 14 10  2  0  0  0  0
 15  2  2  0  0  0  0
 15 21  1  0  0  0  0
 16 10  1  0  0  0  0
 19  7  1  0  0  0  0
 20  8  1  0  0  0  0
 20 19  2  0  0  0  0
 21 12  2  0  0  0  0
 22 23  1  0  0  0  0
 23 18  1  0  0  0  0
 24 31  1  0  0  0  0
 25 30  2  0  0  0  0
 27 24  1  0  0  0  0
 28 25  1  0  0  0  0
 28 24  2  0  0  0  0
 29 26  1  0  0  0  0
 30  5  1  0  0  0  0
 30 29  1  0  0  0  0
 31 29  2  0  0  0  0
M  END
>  <MODEL>
7

>  <REMARK>
 VINA RESULT:     -10.3      2.993      6.748
  Name = 
  1 active torsions:
  status: ('A' for Active; 'I' for Inactive)
    1  A    between atoms: C_9  and  C_22
                            x       y       z     vdW  Elec       q    Type
                         _______ _______ _______ _____ _____    ______ ____

>  <TORSDO>
F 1

$$$$
=
 OpenBabel10272400133D

 31 35  0  0  0  0  0  0  0  0999 V2000
  189.3740  177.5510  147.3860 C   0  0  0  0  0  0  0  0  0  0  0  0
  187.7750  177.8420  143.9800 C   0  0  0  0  0  0  0  0  0  0  0  0
  186.4010  178.2150  144.1950 C   0  0  0  0  0  0  0  0  0  0  0  0
  192.2340  176.6050  141.4470 O   0  0  0  0  0  0  0  0  0  0  0  0
  191.3240  176.7830  140.5930 C   0  0  0  0  0  0  0  0  0  0  0  0
  184.5550  178.0170  145.9190 C   0  0  0  0  0  2  0  0  0  0  0  0
  188.7320  177.6430  145.0270 C   0  0  0  0  0  0  0  0  0  0  0  0
  190.6810  177.2230  147.0330 C   0  0  0  0  0  3  0  0  0  0  0  0
  185.9170  178.5960  145.5770 C   0  0  0  0  0  2  0  0  0  0  0  0
  189.5590  177.3090  142.3720 C   0  0  0  0  0  0  0  0  0  0  0  0
  189.0340  177.6710  148.6920 F   0  0  0  0  0  0  0  0  0  0  0  0
  186.0150  178.1340  141.7860 C   0  0  0  0  0  3  0  0  0  0  0  0
  183.4460  179.0000  145.5500 C   0  0  0  0  0  2  0  0  0  0  0  0
  190.4310  177.1470  143.3970 N   0  0  0  0  0  0  0  0  0  0  0  0
  188.2220  177.6500  142.6400 C   0  0  0  0  0  0  0  0  0  0  0  0
  189.9980  177.1300  141.0160 N   0  0  0  0  0  2  0  0  0  0  0  0
  188.4150  177.7550  146.3930 C   0  0  0  0  0  3  0  0  0  0  0  0
  183.6610  179.6540  144.1860 C   0  0  0  0  0  2  0  0  0  0  0  0
  190.0650  177.2980  144.6910 C   0  0  0  0  0  0  0  0  0  0  0  0
  191.0240  177.0960  145.6880 C   0  0  0  0  0  3  0  0  0  0  0  0
  187.3390  177.7990  141.5720 C   0  0  0  0  0  3  0  0  0  0  0  0
  185.5320  178.3560  143.0700 C   0  0  0  0  0  0  0  0  0  0  0  0
  184.0480  178.6140  143.1470 C   0  0  0  0  0  2  0  0  0  0  0  0
  192.2620  176.3590  136.4230 C   0  0  0  0  0  0  0  0  0  0  0  0
  192.9530  176.6130  138.7260 C   0  0  0  0  0  3  0  0  0  0  0  0
  189.2490  176.5340  138.5320 O   0  0  0  0  0  1  0  0  0  0  0  0
  192.6050  176.2120  134.9850 C   0  0  0  0  0  1  0  0  0  0  0  0
  193.2760  176.4740  137.3740 C   0  0  0  0  0  3  0  0  0  0  0  0
  190.5920  176.5170  138.1760 C   0  0  0  0  0  0  0  0  0  0  0  0
  191.6130  176.6360  139.1480 C   0  0  0  0  0  0  0  0  0  0  0  0
  190.9250  176.3800  136.8250 C   0  0  0  0  0  3  0  0  0  0  0  0
  1 11  1  0  0  0  0
  2  3  1  0  0  0  0
  2  7  1  0  0  0  0
  3  9  1  0  0  0  0
  5 16  1  0  0  0  0
  5  4  2  0  0  0  0
  7 17  1  0  0  0  0
  8  1  1  0  0  0  0
  9  6  1  0  0  0  0
 10 15  1  0  0  0  0
 10 14  2  0  0  0  0
 12 22  1  0  0  0  0
 13  6  1  0  0  0  0
 14 19  1  0  0  0  0
 15  2  2  0  0  0  0
 16 10  1  0  0  0  0
 17  1  2  0  0  0  0
 18 13  1  0  0  0  0
 19  7  2  0  0  0  0
 19 20  1  0  0  0  0
 20  8  2  0  0  0  0
 21 12  2  0  0  0  0
 21 15  1  0  0  0  0
 22 23  1  0  0  0  0
 22  3  2  0  0  0  0
 23 18  1  0  0  0  0
 24 31  2  0  0  0  0
 24 28  1  0  0  0  0
 25 30  1  0  0  0  0
 27 24  1  0  0  0  0
 28 25  2  0  0  0  0
 29 26  1  0  0  0  0
 29 30  2  0  0  0  0
 30  5  1  0  0  0  0
 31 29  1  0  0  0  0
M  END
>  <MODEL>
8

>  <REMARK>
 VINA RESULT:     -10.3      1.793      4.300
  Name = 
  1 active torsions:
  status: ('A' for Active; 'I' for Inactive)
    1  A    between atoms: C_9  and  C_22
                            x       y       z     vdW  Elec       q    Type
                         _______ _______ _______ _____ _____    ______ ____

>  <TORSDO>
F 1

$$$$
=
 OpenBabel10272400133D

 31 35  0  0  0  0  0  0  0  0999 V2000
  185.6970  178.3130  146.3480 C   0  0  0  0  0  0  0  0  0  0  0  0
  184.5470  178.4770  142.7570 C   0  0  0  0  0  0  0  0  0  0  0  0
  183.1360  178.7600  142.7840 C   0  0  0  0  0  0  0  0  0  0  0  0
  189.3730  177.5250  140.8510 O   0  0  0  0  0  0  0  0  0  0  0  0
  188.5750  177.6370  139.8830 C   0  0  0  0  0  0  0  0  0  0  0  0
  181.0940  178.4500  144.2530 C   0  0  0  0  0  2  0  0  0  0  0  0
  185.3680  178.3490  143.9240 C   0  0  0  0  0  0  0  0  0  0  0  0
  187.0580  178.0710  146.1750 C   0  0  0  0  0  3  0  0  0  0  0  0
  182.4490  179.1160  144.0840 C   0  0  0  0  0  2  0  0  0  0  0  0
  186.5590  178.0550  141.4060 C   0  0  0  0  0  0  0  0  0  0  0  0
  185.1800  178.4170  147.5960 F   0  0  0  0  0  0  0  0  0  0  0  0
  183.0780  178.6400  140.3460 C   0  0  0  0  0  3  0  0  0  0  0  0
  179.9820  179.3550  143.7270 C   0  0  0  0  0  2  0  0  0  0  0  0
  187.2960  177.9570  142.5390 N   0  0  0  0  0  0  0  0  0  0  0  0
  185.1790  178.3080  141.4900 C   0  0  0  0  0  0  0  0  0  0  0  0
  187.1840  177.8980  140.1220 N   0  0  0  0  0  2  0  0  0  0  0  0
  184.8660  178.4470  145.2340 C   0  0  0  0  0  3  0  0  0  0  0  0
  180.3340  180.0130  142.3930 C   0  0  0  0  0  2  0  0  0  0  0  0
  186.7540  178.0910  143.7710 C   0  0  0  0  0  0  0  0  0  0  0  0
  187.5840  177.9580  144.8880 C   0  0  0  0  0  3  0  0  0  0  0  0
  184.4370  178.3920  140.3130 C   0  0  0  0  0  3  0  0  0  0  0  0
  182.4160  178.8360  141.5520 C   0  0  0  0  0  0  0  0  0  0  0  0
  180.9210  178.9950  141.4300 C   0  0  0  0  0  2  0  0  0  0  0  0
  189.9170  177.3150  135.8150 C   0  0  0  0  0  0  0  0  0  0  0  0
  188.4830  178.3030  137.4920 C   0  0  0  0  0  3  0  0  0  0  0  0
  190.6940  175.7750  139.0680 O   0  0  0  0  0  1  0  0  0  0  0  0
  190.3690  177.2180  134.4040 C   0  0  0  0  0  1  0  0  0  0  0  0
  188.9070  178.2130  136.1650 C   0  0  0  0  0  3  0  0  0  0  0  0
  190.0840  176.5960  138.1260 C   0  0  0  0  0  0  0  0  0  0  0  0
  189.0610  177.5010  138.4900 C   0  0  0  0  0  0  0  0  0  0  0  0
  190.5030  176.5100  136.7940 C   0  0  0  0  0  3  0  0  0  0  0  0
  1 11  1  0  0  0  0
  2  3  1  0  0  0  0
  2  7  1  0  0  0  0
  3  9  1  0  0  0  0
  5 16  1  0  0  0  0
  5  4  2  0  0  0  0
  7 17  1  0  0  0  0
  8  1  1  0  0  0  0
  9  6  1  0  0  0  0
 10 15  1  0  0  0  0
 10 14  2  0  0  0  0
 12 22  1  0  0  0  0
 13  6  1  0  0  0  0
 14 19  1  0  0  0  0
 15  2  2  0  0  0  0
 16 10  1  0  0  0  0
 17  1  2  0  0  0  0
 18 13  1  0  0  0  0
 19  7  2  0  0  0  0
 19 20  1  0  0  0  0
 20  8  2  0  0  0  0
 21 12  2  0  0  0  0
 21 15  1  0  0  0  0
 22  3  2  0  0  0  0
 23 22  1  0  0  0  0
 23 18  1  0  0  0  0
 24 28  2  0  0  0  0
 24 31  1  0  0  0  0
 25 30  2  0  0  0  0
 27 24  1  0  0  0  0
 28 25  1  0  0  0  0
 29 30  1  0  0  0  0
 29 26  1  0  0  0  0
 30  5  1  0  0  0  0
 31 29  2  0  0  0  0
M  END
>  <MODEL>
9

>  <REMARK>
 VINA RESULT:      -9.8      2.010      5.061
  Name = 
  1 active torsions:
  status: ('A' for Active; 'I' for Inactive)
    1  A    between atoms: C_9  and  C_22
                            x       y       z     vdW  Elec       q    Type
                         _______ _______ _______ _____ _____    ______ ____

>  <TORSDO>
F 1

$$$$
