=
 OpenBabel10272413323D

 32 37  0  0  1  0  0  0  0  0999 V2000
  189.0010  178.3130  138.4100 C   0  0  2  0  0  3  0  0  0  0  0  0
  188.2120  177.2500  142.4510 C   0  0  0  0  0  0  0  0  0  0  0  0
  183.8910  179.4280  142.2740 C   0  0  0  0  0  3  0  0  0  0  0  0
  183.7040  179.0720  143.6110 C   0  0  0  0  0  3  0  0  0  0  0  0
  189.6390  177.1850  140.5660 C   0  0  2  0  0  3  0  0  0  0  0  0
  187.5250  178.2770  140.4040 N   0  0  0  0  0  0  0  0  0  0  0  0
  189.3360  179.6540  138.3980 F   0  0  0  0  0  0  0  0  0  0  0  0
  185.0730  179.0640  141.6280 C   0  0  0  0  0  3  0  0  0  0  0  0
  187.2570  177.9670  141.7030 C   0  0  2  0  0  3  0  0  0  0  0  0
  186.0570  178.3480  142.3190 C   0  0  0  0  0  0  0  0  0  0  0  0
  186.8120  177.2880  144.3730 C   0  0  0  0  0  0  0  0  0  0  0  0
  191.0770  176.9350  138.6260 C   0  0  0  0  0  0  0  0  0  0  0  0
  188.6890  177.8950  139.8180 C   0  0  0  0  0  0  0  0  0  0  0  0
  190.8890  176.7490  139.9370 C   0  0  0  0  0  3  0  0  0  0  0  0
  190.0790  177.5510  137.8530 O   0  0  0  0  0  0  0  0  0  0  0  0
  184.6660  178.3770  144.2750 N   0  0  0  0  0  0  0  0  0  0  0  0
  185.8290  178.0060  143.6710 C   0  0  0  0  0  0  0  0  0  0  0  0
  189.3790  176.8770  141.8650 N   0  0  0  0  0  0  0  0  0  0  0  0
  187.9680  176.9320  143.7500 N   0  0  0  0  0  0  0  0  0  0  0  0
  192.3090  176.4720  137.9660 C   0  0  0  0  0  0  0  0  0  0  0  0
  193.4680  176.9020  138.3560 N   0  0  0  0  0  2  0  0  0  0  0  0
  192.2080  175.5610  136.9110 O   0  0  0  0  0  0  0  0  0  0  0  0
  191.6320  174.2720  137.0700 C   0  0  0  0  0  1  0  0  0  0  0  0
  186.6000  176.8850  145.7980 C   0  0  0  0  0  2  0  0  0  0  0  0
  191.3730  176.8210  146.1730 C   0  0  0  0  0  1  0  0  0  0  0  0
  188.9750  176.6830  146.7570 C   0  0  2  0  0  3  0  0  0  0  0  0
  187.5960  178.3800  147.6110 C   0  0  0  0  0  0  0  0  0  0  0  0
  188.7040  178.4820  148.3140 C   0  0  0  0  0  3  0  0  0  0  0  0
  189.6920  177.4320  147.8820 C   0  0  2  0  0  3  0  0  0  0  0  0
  190.1190  177.6290  146.4360 C   0  0  1  0  0  3  0  0  0  0  0  0
  186.4200  179.2760  147.7790 C   0  0  0  0  0  1  0  0  0  0  0  0
  187.6960  177.3650  146.6270 N   0  0  0  0  0  0  0  0  0  0  0  0
  1  7  1  1  0  0  0
  1 13  1  0  0  0  0
  2 19  1  0  0  0  0
  3  4  1  0  0  0  0
  4 16  2  0  0  0  0
  5 14  1  6  0  0  0
  5 18  1  0  0  0  0
  8  3  2  0  0  0  0
  8 10  1  0  0  0  0
  9  6  1  1  0  0  0
  9 10  1  0  0  0  0
  9  2  1  0  0  0  0
 10 17  2  0  0  0  0
 11 24  1  0  0  0  0
 12 14  2  0  0  0  0
 13  6  2  0  0  0  0
 13  5  1  0  0  0  0
 15  1  1  0  0  0  0
 15 12  1  0  0  0  0
 17 16  1  0  0  0  0
 17 11  1  0  0  0  0
 18  2  2  0  0  0  0
 19 11  2  0  0  0  0
 20 21  2  0  0  0  0
 20 12  1  0  0  0  0
 22 23  1  0  0  0  0
 22 20  1  0  0  0  0
 24 32  1  0  0  0  0
 26 32  1  6  0  0  0
 26 29  1  0  0  0  0
 27 31  1  0  0  0  0
 27 28  2  0  0  0  0
 29 28  1  6  0  0  0
 30 25  1  1  0  0  0
 30 26  1  0  0  0  0
 30 29  1  0  0  0  0
 32 27  1  0  0  0  0
M  END
>  <MODEL>
1

>  <REMARK>
 VINA RESULT:      -8.9      0.000      0.000
  Name = 
  4 active torsions:
  status: ('A' for Active; 'I' for Inactive)
    1  A    between atoms: C_1  and  O_10
    2  A    between atoms: C_1  and  C_19
    3  A    between atoms: C_16  and  C_27
    4  A    between atoms: C_27  and  N_32
                            x       y       z     vdW  Elec       q    Type
                         _______ _______ _______ _____ _____    ______ ____

>  <TORSDO>
F 4

$$$$
=
 OpenBabel10272413323D

 32 37  0  0  1  0  0  0  0  0999 V2000
  190.4580  177.0760  142.3970 C   0  0  2  0  0  3  0  0  0  0  0  0
  186.7950  178.3770  140.6720 C   0  0  0  0  0  0  0  0  0  0  0  0
  184.7060  178.5690  145.0370 C   0  0  0  0  0  3  0  0  0  0  0  0
  183.5250  178.9660  144.4070 C   0  0  0  0  0  3  0  0  0  0  0  0
  189.0610  177.7480  140.4160 C   0  0  2  0  0  3  0  0  0  0  0  0
  188.0990  177.8180  142.5970 N   0  0  0  0  0  0  0  0  0  0  0  0
  190.3070  175.7410  142.7210 F   0  0  0  0  0  0  0  0  0  0  0  0
  185.8410  178.3160  144.2660 C   0  0  0  0  0  3  0  0  0  0  0  0
  186.9090  178.2150  142.0680 C   0  0  2  0  0  3  0  0  0  0  0  0
  185.7900  178.4620  142.8750 C   0  0  0  0  0  0  0  0  0  0  0  0
  184.5140  179.0170  140.8800 C   0  0  0  0  0  0  0  0  0  0  0  0
  191.4200  177.2740  140.0960 C   0  0  0  0  0  0  0  0  0  0  0  0
  189.1780  177.5890  141.8040 C   0  0  0  0  0  0  0  0  0  0  0  0
  190.2240  177.5240  139.5530 C   0  0  0  0  0  3  0  0  0  0  0  0
  191.5610  177.2220  141.4930 O   0  0  0  0  0  0  0  0  0  0  0  0
  183.4840  179.1060  143.0550 N   0  0  0  0  0  0  0  0  0  0  0  0
  184.5760  178.8680  142.2760 C   0  0  0  0  0  0  0  0  0  0  0  0
  187.8730  178.1390  139.8810 N   0  0  0  0  0  0  0  0  0  0  0  0
  185.6170  178.7690  140.1220 N   0  0  0  0  0  0  0  0  0  0  0  0
  192.6090  177.0840  139.2500 C   0  0  0  0  0  0  0  0  0  0  0  0
  193.7990  177.2480  139.7390 N   0  0  0  0  0  2  0  0  0  0  0  0
  192.4360  176.7230  137.9110 O   0  0  0  0  0  0  0  0  0  0  0  0
  193.5010  176.2240  137.1140 C   0  0  0  0  0  1  0  0  0  0  0  0
  183.2560  179.4690  140.2090 C   0  0  0  0  0  2  0  0  0  0  0  0
  183.4230  175.1340  138.1820 C   0  0  0  0  0  1  0  0  0  0  0  0
  182.6910  177.4230  138.7600 C   0  0  2  0  0  3  0  0  0  0  0  0
  181.1260  178.0730  140.3840 C   0  0  0  0  0  0  0  0  0  0  0  0
  180.5530  177.0560  139.7750 C   0  0  0  0  0  3  0  0  0  0  0  0
  181.4470  176.5360  138.6810 C   0  0  2  0  0  3  0  0  0  0  0  0
  182.7490  175.9820  139.2400 C   0  0  1  0  0  3  0  0  0  0  0  0
  180.5140  178.8110  141.5220 C   0  0  0  0  0  1  0  0  0  0  0  0
  182.4240  178.3220  139.8720 N   0  0  0  0  0  0  0  0  0  0  0  0
  1  7  1  6  0  0  0
  4  3  1  0  0  0  0
  5 14  1  1  0  0  0
  5 13  1  0  0  0  0
  8  3  2  0  0  0  0
  9  2  1  6  0  0  0
  9  6  1  0  0  0  0
  9 10  1  0  0  0  0
 10  8  1  0  0  0  0
 11 17  1  0  0  0  0
 12 15  1  0  0  0  0
 13  1  1  0  0  0  0
 13  6  2  0  0  0  0
 14 12  2  0  0  0  0
 15  1  1  0  0  0  0
 16  4  2  0  0  0  0
 17 10  2  0  0  0  0
 17 16  1  0  0  0  0
 18  5  1  0  0  0  0
 18  2  2  0  0  0  0
 19  2  1  0  0  0  0
 19 11  2  0  0  0  0
 20 21  2  0  0  0  0
 20 12  1  0  0  0  0
 22 20  1  0  0  0  0
 23 22  1  0  0  0  0
 24 11  1  0  0  0  0
 26 30  1  0  0  0  0
 26 32  1  1  0  0  0
 27 31  1  0  0  0  0
 28 27  2  0  0  0  0
 29 26  1  0  0  0  0
 29 30  1  0  0  0  0
 29 28  1  1  0  0  0
 30 25  1  6  0  0  0
 32 24  1  0  0  0  0
 32 27  1  0  0  0  0
M  END
>  <MODEL>
2

>  <REMARK>
 VINA RESULT:      -8.7      2.835      5.890
  Name = 
  4 active torsions:
  status: ('A' for Active; 'I' for Inactive)
    1  A    between atoms: C_1  and  O_10
    2  A    between atoms: C_1  and  C_19
    3  A    between atoms: C_16  and  C_27
    4  A    between atoms: C_27  and  N_32
                            x       y       z     vdW  Elec       q    Type
                         _______ _______ _______ _____ _____    ______ ____

>  <TORSDO>
F 4

$$$$
=
 OpenBabel10272413323D

 32 37  0  0  1  0  0  0  0  0999 V2000
  187.4710  177.8150  146.1310 C   0  0  2  0  0  3  0  0  0  0  0  0
  185.7970  178.3010  142.2530 C   0  0  0  0  0  0  0  0  0  0  0  0
  181.3860  178.9550  144.1420 C   0  0  0  0  0  3  0  0  0  0  0  0
  180.8940  179.0780  142.8420 C   0  0  0  0  0  3  0  0  0  0  0  0
  187.6880  177.9460  143.6280 C   0  0  2  0  0  3  0  0  0  0  0  0
  185.5460  178.2580  144.6300 N   0  0  0  0  0  0  0  0  0  0  0  0
  187.1350  176.5470  146.5660 F   0  0  0  0  0  0  0  0  0  0  0  0
  182.7490  178.7280  144.3390 C   0  0  0  0  0  3  0  0  0  0  0  0
  184.9820  178.3970  143.3980 C   0  0  2  0  0  3  0  0  0  0  0  0
  183.6090  178.6270  143.2390 C   0  0  0  0  0  0  0  0  0  0  0  0
  183.9260  178.6580  140.8280 C   0  0  0  0  0  0  0  0  0  0  0  0
  189.6920  177.7430  144.9820 C   0  0  0  0  0  0  0  0  0  0  0  0
  186.8800  178.0440  144.7700 C   0  0  0  0  0  0  0  0  0  0  0  0
  189.1310  177.7360  143.7690 C   0  0  0  0  0  3  0  0  0  0  0  0
  188.8980  177.9500  146.1230 O   0  0  0  0  0  0  0  0  0  0  0  0
  181.7360  178.9780  141.7790 N   0  0  0  0  0  0  0  0  0  0  0  0
  183.0710  178.7590  141.9390 C   0  0  0  0  0  0  0  0  0  0  0  0
  187.1290  178.0780  142.3950 N   0  0  0  0  0  0  0  0  0  0  0  0
  185.2550  178.4330  141.0130 N   0  0  0  0  0  0  0  0  0  0  0  0
  191.1450  177.5720  145.1450 C   0  0  0  0  0  0  0  0  0  0  0  0
  191.9450  177.7330  144.1370 N   0  0  0  0  0  2  0  0  0  0  0  0
  191.6490  177.2320  146.4040 O   0  0  0  0  0  0  0  0  0  0  0  0
  192.0290  175.9040  146.7380 C   0  0  0  0  0  1  0  0  0  0  0  0
  183.4020  178.8160  139.4360 C   0  0  0  0  0  2  0  0  0  0  0  0
  187.3770  177.9370  136.9170 C   0  0  0  0  0  1  0  0  0  0  0  0
  184.9920  178.1580  137.5290 C   0  0  2  0  0  3  0  0  0  0  0  0
  183.5580  176.5020  138.3720 C   0  0  0  0  0  0  0  0  0  0  0  0
  184.1990  175.9030  137.3900 C   0  0  0  0  0  3  0  0  0  0  0  0
  185.1570  176.8600  136.7350 C   0  0  2  0  0  3  0  0  0  0  0  0
  186.2430  177.3110  137.7000 C   0  0  1  0  0  3  0  0  0  0  0  0
  182.5450  175.8320  139.2320 C   0  0  0  0  0  1  0  0  0  0  0  0
  184.0110  177.8320  138.5520 N   0  0  0  0  0  0  0  0  0  0  0  0
  1  7  1  6  0  0  0
  2 18  2  0  0  0  0
  3  8  1  0  0  0  0
  4  3  2  0  0  0  0
  5 14  1  1  0  0  0
  5 13  1  0  0  0  0
  6 13  2  0  0  0  0
  9  2  1  6  0  0  0
  9  6  1  0  0  0  0
 10  9  1  0  0  0  0
 10  8  2  0  0  0  0
 11 19  2  0  0  0  0
 11 17  1  0  0  0  0
 12 20  1  0  0  0  0
 12 15  1  0  0  0  0
 13  1  1  0  0  0  0
 14 12  2  0  0  0  0
 15  1  1  0  0  0  0
 16 17  2  0  0  0  0
 16  4  1  0  0  0  0
 17 10  1  0  0  0  0
 18  5  1  0  0  0  0
 19  2  1  0  0  0  0
 20 22  1  0  0  0  0
 21 20  2  0  0  0  0
 22 23  1  0  0  0  0
 24 11  1  0  0  0  0
 26 30  1  0  0  0  0
 26 32  1  1  0  0  0
 27 32  1  0  0  0  0
 27 31  1  0  0  0  0
 28 27  2  0  0  0  0
 29 28  1  1  0  0  0
 29 26  1  0  0  0  0
 29 30  1  0  0  0  0
 30 25  1  6  0  0  0
 32 24  1  0  0  0  0
M  END
>  <MODEL>
3

>  <REMARK>
 VINA RESULT:      -8.6      3.832      7.229
  Name = 
  4 active torsions:
  status: ('A' for Active; 'I' for Inactive)
    1  A    between atoms: C_1  and  O_10
    2  A    between atoms: C_1  and  C_19
    3  A    between atoms: C_16  and  C_27
    4  A    between atoms: C_27  and  N_32
                            x       y       z     vdW  Elec       q    Type
                         _______ _______ _______ _____ _____    ______ ____

>  <TORSDO>
F 4

$$$$
=
 OpenBabel10272413323D

 32 37  0  0  1  0  0  0  0  0999 V2000
  190.9230  177.1010  143.2730 C   0  0  2  0  0  3  0  0  0  0  0  0
  187.1800  178.2510  141.6140 C   0  0  0  0  0  0  0  0  0  0  0  0
  188.9640  177.9100  137.1250 C   0  0  0  0  0  3  0  0  0  0  0  0
  187.7190  178.3180  136.6450 C   0  0  0  0  0  3  0  0  0  0  0  0
  188.5040  177.7540  143.5090 C   0  0  0  0  0  0  0  0  0  0  0  0
  189.4530  177.5650  141.3280 N   0  0  0  0  0  0  0  0  0  0  0  0
  191.7600  178.1980  143.1940 F   0  0  0  0  0  0  0  0  0  0  0  0
  189.1590  177.7840  138.5010 C   0  0  0  0  0  3  0  0  0  0  0  0
  188.2710  177.9510  140.7740 C   0  0  0  0  0  0  0  0  0  0  0  0
  188.1110  178.0650  139.3860 C   0  0  0  0  0  0  0  0  0  0  0  0
  185.8080  178.7590  139.7390 C   0  0  0  0  0  0  0  0  0  0  0  0
  189.7540  177.0990  145.4850 C   0  0  0  0  0  0  0  0  0  0  0  0
  189.5910  177.4520  142.6750 C   0  0  0  0  0  0  0  0  0  0  0  0
  188.6370  177.6140  144.9620 C   0  0  0  0  0  3  0  0  0  0  0  0
  190.8030  176.6940  144.6420 O   0  0  0  0  0  0  0  0  0  0  0  0
  186.7070  178.5900  137.5110 N   0  0  0  0  0  0  0  0  0  0  0  0
  186.8660  178.4740  138.8590 C   0  0  0  0  0  0  0  0  0  0  0  0
  187.3240  178.1450  142.9610 N   0  0  0  0  0  0  0  0  0  0  0  0
  185.9920  178.6410  141.0820 N   0  0  0  0  0  0  0  0  0  0  0  0
  189.8940  176.9150  146.9380 C   0  0  0  0  0  0  0  0  0  0  0  0
  191.0610  176.7230  147.4700 N   0  0  0  0  0  2  0  0  0  0  0  0
  188.7470  176.9490  147.7380 O   0  0  0  0  0  0  0  0  0  0  0  0
  188.4500  178.0410  148.5960 C   0  0  0  0  0  1  0  0  0  0  0  0
  184.4660  179.1720  139.2220 C   0  0  0  0  0  2  0  0  0  0  0  0
  183.6970  174.8950  137.2100 C   0  0  0  0  0  1  0  0  0  0  0  0
  183.3130  177.1720  138.0940 C   0  0  2  0  0  3  0  0  0  0  0  0
  182.5790  177.7850  140.2370 C   0  0  0  0  0  0  0  0  0  0  0  0
  181.7860  176.7900  139.8980 C   0  0  0  0  0  3  0  0  0  0  0  0
  182.1330  176.2960  138.5200 C   0  0  2  0  0  3  0  0  0  0  0  0
  183.5400  175.7180  138.4720 C   0  0  1  0  0  3  0  0  0  0  0  0
  182.5100  178.4940  141.5440 C   0  0  0  0  0  1  0  0  0  0  0  0
  183.5490  178.0400  139.2370 N   0  0  0  0  0  0  0  0  0  0  0  0
  1  7  1  1  0  0  0
  1 15  1  0  0  0  0
  2 18  2  0  0  0  0
  3  8  1  0  0  0  0
  4  3  2  0  0  0  0
  4 16  1  0  0  0  0
  5 14  1  0  0  0  0
  6 13  1  0  0  0  0
  8 10  2  0  0  0  0
  9  6  2  0  0  0  0
  9  2  1  0  0  0  0
 10  9  1  0  0  0  0
 11 19  2  0  0  0  0
 12 20  1  0  0  0  0
 13  1  1  0  0  0  0
 13  5  2  0  0  0  0
 14 12  2  0  0  0  0
 15 12  1  0  0  0  0
 16 17  2  0  0  0  0
 17 10  1  0  0  0  0
 17 11  1  0  0  0  0
 18  5  1  0  0  0  0
 19  2  1  0  0  0  0
 20 21  2  0  0  0  0
 20 22  1  0  0  0  0
 22 23  1  0  0  0  0
 24 32  1  0  0  0  0
 24 11  1  0  0  0  0
 26 30  1  0  0  0  0
 26 29  1  0  0  0  0
 26 32  1  1  0  0  0
 27 31  1  0  0  0  0
 28 27  2  0  0  0  0
 29 28  1  1  0  0  0
 30 25  1  6  0  0  0
 30 29  1  0  0  0  0
 32 27  1  0  0  0  0
M  END
>  <MODEL>
4

>  <REMARK>
 VINA RESULT:      -8.5      3.539      7.602
  Name = 
  4 active torsions:
  status: ('A' for Active; 'I' for Inactive)
    1  A    between atoms: C_1  and  O_10
    2  A    between atoms: C_1  and  C_19
    3  A    between atoms: C_16  and  C_27
    4  A    between atoms: C_27  and  N_32
                            x       y       z     vdW  Elec       q    Type
                         _______ _______ _______ _____ _____    ______ ____

>  <TORSDO>
F 4

$$$$
=
 OpenBabel10272413323D

 32 37  0  0  1  0  0  0  0  0999 V2000
  187.4820  177.8550  146.1250 C   0  0  2  0  0  3  0  0  0  0  0  0
  185.8730  178.2690  142.2100 C   0  0  0  0  0  0  0  0  0  0  0  0
  181.4300  178.9480  144.0120 C   0  0  0  0  0  3  0  0  0  0  0  0
  180.9600  179.0470  142.7020 C   0  0  0  0  0  3  0  0  0  0  0  0
  187.7410  177.9410  143.6240 C   0  0  2  0  0  3  0  0  0  0  0  0
  185.5820  178.2680  144.5830 N   0  0  0  0  0  0  0  0  0  0  0  0
  187.1400  176.5940  146.5760 F   0  0  0  0  0  0  0  0  0  0  0  0
  182.7890  178.7270  144.2370 C   0  0  0  0  0  3  0  0  0  0  0  0
  185.0390  178.3830  143.3400 C   0  0  2  0  0  3  0  0  0  0  0  0
  183.6680  178.6080  143.1530 C   0  0  0  0  0  0  0  0  0  0  0  0
  184.0260  178.5960  140.7480 C   0  0  0  0  0  0  0  0  0  0  0  0
  189.7220  177.7670  145.0150 C   0  0  0  0  0  0  0  0  0  0  0  0
  186.9140  178.0580  144.7500 C   0  0  0  0  0  0  0  0  0  0  0  0
  189.1820  177.7370  143.7930 C   0  0  0  0  0  3  0  0  0  0  0  0
  188.9080  177.9930  146.1380 O   0  0  0  0  0  0  0  0  0  0  0  0
  181.8200  178.9290  141.6550 N   0  0  0  0  0  0  0  0  0  0  0  0
  183.1520  178.7150  141.8420 C   0  0  0  0  0  0  0  0  0  0  0  0
  187.2030  178.0500  142.3800 N   0  0  0  0  0  0  0  0  0  0  0  0
  185.3520  178.3770  140.9600 N   0  0  0  0  0  0  0  0  0  0  0  0
  191.1720  177.6010  145.2060 C   0  0  0  0  0  0  0  0  0  0  0  0
  191.9950  177.8150  144.2270 N   0  0  0  0  0  2  0  0  0  0  0  0
  191.6490  177.2090  146.4600 O   0  0  0  0  0  0  0  0  0  0  0  0
  192.0190  175.8680  146.7480 C   0  0  0  0  0  1  0  0  0  0  0  0
  183.5250  178.7280  139.3450 C   0  0  0  0  0  2  0  0  0  0  0  0
  180.6080  175.0340  138.4680 C   0  0  0  0  0  1  0  0  0  0  0  0
  182.6040  176.3400  139.1160 C   0  0  2  0  0  3  0  0  0  0  0  0
  184.4400  176.9320  137.7800 C   0  0  0  0  0  0  0  0  0  0  0  0
  184.2310  175.6630  137.4950 C   0  0  0  0  0  3  0  0  0  0  0  0
  183.0750  175.1350  138.3000 C   0  0  2  0  0  3  0  0  0  0  0  0
  181.7760  175.8430  137.9430 C   0  0  1  0  0  3  0  0  0  0  0  0
  185.5040  177.7590  137.1480 C   0  0  0  0  0  1  0  0  0  0  0  0
  183.4810  177.4230  138.6990 N   0  0  0  0  0  0  0  0  0  0  0  0
  1 15  1  0  0  0  0
  1  7  1  6  0  0  0
  2 18  2  0  0  0  0
  3  8  1  0  0  0  0
  4  3  2  0  0  0  0
  5 14  1  1  0  0  0
  5 13  1  0  0  0  0
  6 13  2  0  0  0  0
  9  2  1  6  0  0  0
  9  6  1  0  0  0  0
 10  9  1  0  0  0  0
 10  8  2  0  0  0  0
 11 19  2  0  0  0  0
 11 17  1  0  0  0  0
 12 20  1  0  0  0  0
 12 15  1  0  0  0  0
 13  1  1  0  0  0  0
 14 12  2  0  0  0  0
 16 17  2  0  0  0  0
 16  4  1  0  0  0  0
 17 10  1  0  0  0  0
 18  5  1  0  0  0  0
 19  2  1  0  0  0  0
 20 22  1  0  0  0  0
 21 20  2  0  0  0  0
 22 23  1  0  0  0  0
 24 11  1  0  0  0  0
 26 32  1  6  0  0  0
 27 32  1  0  0  0  0
 28 27  2  0  0  0  0
 29 28  1  6  0  0  0
 29 26  1  0  0  0  0
 30 29  1  0  0  0  0
 30 25  1  1  0  0  0
 30 26  1  0  0  0  0
 31 27  1  0  0  0  0
 32 24  1  0  0  0  0
M  END
>  <MODEL>
5

>  <REMARK>
 VINA RESULT:      -8.5      4.082      7.524
  Name = 
  4 active torsions:
  status: ('A' for Active; 'I' for Inactive)
    1  A    between atoms: C_1  and  O_10
    2  A    between atoms: C_1  and  C_19
    3  A    between atoms: C_16  and  C_27
    4  A    between atoms: C_27  and  N_32
                            x       y       z     vdW  Elec       q    Type
                         _______ _______ _______ _____ _____    ______ ____

>  <TORSDO>
F 4

$$$$
=
 OpenBabel10272413323D

 32 37  0  0  1  0  0  0  0  0999 V2000
  187.0870  177.9370  145.5700 C   0  0  2  0  0  3  0  0  0  0  0  0
  188.2900  177.9050  141.4910 C   0  0  0  0  0  0  0  0  0  0  0  0
  183.8210  179.1140  140.0710 C   0  0  0  0  0  3  0  0  0  0  0  0
  184.2720  179.0590  138.7510 C   0  0  0  0  0  3  0  0  0  0  0  0
  188.8330  177.6570  143.7800 C   0  0  2  0  0  3  0  0  0  0  0  0
  186.6090  178.2530  143.1550 N   0  0  0  0  0  0  0  0  0  0  0  0
  186.3720  176.7760  145.7940 F   0  0  0  0  0  0  0  0  0  0  0  0
  184.7110  178.8380  141.1100 C   0  0  0  0  0  3  0  0  0  0  0  0
  186.9640  178.2290  141.8410 C   0  0  2  0  0  3  0  0  0  0  0  0
  186.0420  178.5130  140.8240 C   0  0  0  0  0  0  0  0  0  0  0  0
  187.7940  178.1440  139.1780 C   0  0  0  0  0  0  0  0  0  0  0  0
  189.4990  177.5510  146.1120 C   0  0  0  0  0  0  0  0  0  0  0  0
  187.5150  177.9830  144.1310 C   0  0  0  0  0  0  0  0  0  0  0  0
  189.8230  177.3860  144.8250 C   0  0  0  0  0  3  0  0  0  0  0  0
  188.2080  177.9830  146.4620 O   0  0  0  0  0  0  0  0  0  0  0  0
  185.5660  178.7420  138.4820 N   0  0  0  0  0  0  0  0  0  0  0  0
  186.4590  178.4700  139.4750 C   0  0  0  0  0  0  0  0  0  0  0  0
  189.1920  177.6270  142.4690 N   0  0  0  0  0  0  0  0  0  0  0  0
  188.6660  177.8720  140.1860 N   0  0  0  0  0  0  0  0  0  0  0  0
  190.4880  177.3210  147.1770 C   0  0  0  0  0  0  0  0  0  0  0  0
  190.2300  177.6580  148.4020 N   0  0  0  0  0  2  0  0  0  0  0  0
  191.7120  176.7310  146.8470 O   0  0  0  0  0  0  0  0  0  0  0  0
  192.3430  175.7700  147.6810 C   0  0  0  0  0  1  0  0  0  0  0  0
  188.2820  178.1120  137.7640 C   0  0  0  0  0  2  0  0  0  0  0  0
  192.7630  176.5550  138.4110 C   0  0  0  0  0  1  0  0  0  0  0  0
  190.5800  177.0370  137.3570 C   0  0  2  0  0  3  0  0  0  0  0  0
  188.6920  175.6470  137.2430 C   0  0  0  0  0  0  0  0  0  0  0  0
  189.6960  174.8510  136.9420 C   0  0  0  0  0  3  0  0  0  0  0  0
  190.9910  175.6170  136.9610 C   0  0  2  0  0  3  0  0  0  0  0  0
  191.3060  176.1470  138.3520 C   0  0  1  0  0  3  0  0  0  0  0  0
  187.2750  175.2010  137.3240 C   0  0  0  0  0  1  0  0  0  0  0  0
  189.1410  176.9550  137.5530 N   0  0  0  0  0  0  0  0  0  0  0  0
  1  7  1  6  0  0  0
  1 15  1  0  0  0  0
  2  9  1  0  0  0  0
  2 18  2  0  0  0  0
  3  8  1  0  0  0  0
  4  3  2  0  0  0  0
  5 13  1  0  0  0  0
  5 14  1  1  0  0  0
  6 13  2  0  0  0  0
  9 10  1  6  0  0  0
  9  6  1  0  0  0  0
 10  8  2  0  0  0  0
 11 17  1  0  0  0  0
 11 19  2  0  0  0  0
 12 15  1  0  0  0  0
 12 20  1  0  0  0  0
 13  1  1  0  0  0  0
 14 12  2  0  0  0  0
 16  4  1  0  0  0  0
 16 17  2  0  0  0  0
 17 10  1  0  0  0  0
 18  5  1  0  0  0  0
 19  2  1  0  0  0  0
 20 21  2  0  0  0  0
 22 20  1  0  0  0  0
 22 23  1  0  0  0  0
 24 11  1  0  0  0  0
 26 32  1  1  0  0  0
 26 30  1  0  0  0  0
 27 31  1  0  0  0  0
 27 32  1  0  0  0  0
 28 27  2  0  0  0  0
 29 28  1  1  0  0  0
 29 26  1  0  0  0  0
 29 30  1  0  0  0  0
 30 25  1  6  0  0  0
 32 24  1  0  0  0  0
M  END
>  <MODEL>
6

>  <REMARK>
 VINA RESULT:      -8.5      3.273      7.418
  Name = 
  4 active torsions:
  status: ('A' for Active; 'I' for Inactive)
    1  A    between atoms: C_1  and  O_10
    2  A    between atoms: C_1  and  C_19
    3  A    between atoms: C_16  and  C_27
    4  A    between atoms: C_27  and  N_32
                            x       y       z     vdW  Elec       q    Type
                         _______ _______ _______ _____ _____    ______ ____

>  <TORSDO>
F 4

$$$$
=
 OpenBabel10272413323D

 32 37  0  0  1  0  0  0  0  0999 V2000
  190.9560  176.8490  144.0920 C   0  0  2  0  0  3  0  0  0  0  0  0
  188.4990  177.8430  140.7670 C   0  0  0  0  0  0  0  0  0  0  0  0
  191.8830  176.2680  137.6820 C   0  0  0  0  0  3  0  0  0  0  0  0
  191.0410  176.6410  136.6340 C   0  0  0  0  0  3  0  0  0  0  0  0
  188.8140  177.7270  143.1090 C   0  0  2  0  0  3  0  0  0  0  0  0
  190.5260  176.9330  141.6500 N   0  0  0  0  0  0  0  0  0  0  0  0
  191.9320  177.8240  144.1860 F   0  0  0  0  0  0  0  0  0  0  0  0
  191.4680  176.4700  138.9990 C   0  0  0  0  0  3  0  0  0  0  0  0
  189.7670  177.2610  140.5680 C   0  0  2  0  0  3  0  0  0  0  0  0
  190.2170  177.0410  139.2590 C   0  0  0  0  0  0  0  0  0  0  0  0
  188.1350  177.9790  138.4210 C   0  0  0  0  0  0  0  0  0  0  0  0
  189.0000  177.4840  145.5170 C   0  0  0  0  0  0  0  0  0  0  0  0
  190.0740  177.1440  142.9140 C   0  0  0  0  0  0  0  0  0  0  0  0
  188.3090  177.9400  144.4670 C   0  0  0  0  0  3  0  0  0  0  0  0
  190.2130  176.8030  145.3170 O   0  0  0  0  0  0  0  0  0  0  0  0
  189.8270  177.1960  136.8950 N   0  0  0  0  0  0  0  0  0  0  0  0
  189.3930  177.4040  138.1700 C   0  0  0  0  0  0  0  0  0  0  0  0
  188.0540  178.0620  142.0320 N   0  0  0  0  0  0  0  0  0  0  0  0
  187.7260  178.1820  139.7030 N   0  0  0  0  0  0  0  0  0  0  0  0
  188.4940  177.6530  146.8880 C   0  0  0  0  0  0  0  0  0  0  0  0
  189.3040  177.9310  147.8610 N   0  0  0  0  0  2  0  0  0  0  0  0
  187.1230  177.5090  147.1260 O   0  0  0  0  0  0  0  0  0  0  0  0
  186.2560  178.6230  147.2800 C   0  0  0  0  0  1  0  0  0  0  0  0
  187.2230  178.3550  137.2970 C   0  0  0  0  0  2  0  0  0  0  0  0
  186.6450  173.7350  136.1830 C   0  0  0  0  0  1  0  0  0  0  0  0
  186.3480  176.1880  136.2290 C   0  0  2  0  0  3  0  0  0  0  0  0
  184.8530  177.4380  137.5360 C   0  0  0  0  0  0  0  0  0  0  0  0
  184.1260  176.4380  137.0850 C   0  0  0  0  0  3  0  0  0  0  0  0
  184.9600  175.5460  136.2050 C   0  0  2  0  0  3  0  0  0  0  0  0
  186.0930  174.8950  136.9840 C   0  0  1  0  0  3  0  0  0  0  0  0
  184.3340  178.4980  138.4440 C   0  0  0  0  0  1  0  0  0  0  0  0
  186.2010  177.3340  137.1130 N   0  0  0  0  0  0  0  0  0  0  0  0
  1  7  1  1  0  0  0
  1 15  1  0  0  0  0
  2 18  2  0  0  0  0
  3  8  1  0  0  0  0
  4 16  1  0  0  0  0
  4  3  2  0  0  0  0
  5 14  1  1  0  0  0
  6 13  2  0  0  0  0
  8 10  2  0  0  0  0
  9 10  1  6  0  0  0
  9  2  1  0  0  0  0
  9  6  1  0  0  0  0
 11 19  2  0  0  0  0
 12 20  1  0  0  0  0
 13  5  1  0  0  0  0
 13  1  1  0  0  0  0
 14 12  2  0  0  0  0
 15 12  1  0  0  0  0
 16 17  2  0  0  0  0
 17 11  1  0  0  0  0
 17 10  1  0  0  0  0
 18  5  1  0  0  0  0
 19  2  1  0  0  0  0
 20 22  1  0  0  0  0
 20 21  2  0  0  0  0
 22 23  1  0  0  0  0
 24 11  1  0  0  0  0
 26 30  1  0  0  0  0
 26 32  1  1  0  0  0
 27 31  1  0  0  0  0
 28 27  2  0  0  0  0
 29 26  1  0  0  0  0
 29 30  1  0  0  0  0
 29 28  1  1  0  0  0
 30 25  1  6  0  0  0
 32 24  1  0  0  0  0
 32 27  1  0  0  0  0
M  END
>  <MODEL>
7

>  <REMARK>
 VINA RESULT:      -8.5      3.591      8.421
  Name = 
  4 active torsions:
  status: ('A' for Active; 'I' for Inactive)
    1  A    between atoms: C_1  and  O_10
    2  A    between atoms: C_1  and  C_19
    3  A    between atoms: C_16  and  C_27
    4  A    between atoms: C_27  and  N_32
                            x       y       z     vdW  Elec       q    Type
                         _______ _______ _______ _____ _____    ______ ____

>  <TORSDO>
F 4

$$$$
=
 OpenBabel10272413323D

 32 37  0  0  1  0  0  0  0  0999 V2000
  184.6250  178.4150  144.9000 C   0  0  2  0  0  3  0  0  0  0  0  0
  186.8850  178.4010  141.2980 C   0  0  0  0  0  0  0  0  0  0  0  0
  190.8650  177.0380  143.6960 C   0  0  0  0  0  3  0  0  0  0  0  0
  191.5580  177.0790  142.4850 C   0  0  0  0  0  3  0  0  0  0  0  0
  184.8200  178.7090  142.4090 C   0  0  2  0  0  3  0  0  0  0  0  0
  186.7390  178.0380  143.6570 N   0  0  0  0  0  0  0  0  0  0  0  0
  184.9690  179.5590  145.5940 F   0  0  0  0  0  0  0  0  0  0  0  0
  189.5070  177.3590  143.7200 C   0  0  0  0  0  3  0  0  0  0  0  0
  187.4900  178.0460  142.5200 C   0  0  2  0  0  3  0  0  0  0  0  0
  188.8520  177.7160  142.5350 C   0  0  0  0  0  0  0  0  0  0  0  0
  188.9390  178.1030  140.1360 C   0  0  0  0  0  0  0  0  0  0  0  0
  182.6360  178.8800  143.4550 C   0  0  0  0  0  0  0  0  0  0  0  0
  185.4180  178.3530  143.6260 C   0  0  0  0  0  0  0  0  0  0  0  0
  183.3910  179.0290  142.3620 C   0  0  0  0  0  3  0  0  0  0  0  0
  183.2140  178.4190  144.6500 O   0  0  0  0  0  0  0  0  0  0  0  0
  190.9140  177.4280  141.3400 N   0  0  0  0  0  0  0  0  0  0  0  0
  189.5880  177.7440  141.3300 C   0  0  0  0  0  0  0  0  0  0  0  0
  185.5660  178.7240  141.2720 N   0  0  0  0  0  0  0  0  0  0  0  0
  187.6160  178.4190  140.1520 N   0  0  0  0  0  0  0  0  0  0  0  0
  181.1920  179.1600  143.4210 C   0  0  0  0  0  0  0  0  0  0  0  0
  180.3590  178.4070  144.0690 N   0  0  0  0  0  2  0  0  0  0  0  0
  180.7320  180.2510  142.6770 O   0  0  0  0  0  0  0  0  0  0  0  0
  179.9820  180.0950  141.4810 C   0  0  0  0  0  1  0  0  0  0  0  0
  189.6760  178.1210  138.8350 C   0  0  0  0  0  2  0  0  0  0  0  0
  186.5270  176.4560  135.6350 C   0  0  0  0  0  1  0  0  0  0  0  0
  188.0000  176.6030  137.6150 C   0  0  2  0  0  3  0  0  0  0  0  0
  190.2070  175.8340  137.8340 C   0  0  0  0  0  0  0  0  0  0  0  0
  189.5800  174.8450  137.2320 C   0  0  0  0  0  3  0  0  0  0  0  0
  188.1290  175.1930  137.0350 C   0  0  2  0  0  3  0  0  0  0  0  0
  187.9630  176.3900  136.1110 C   0  0  1  0  0  3  0  0  0  0  0  0
  191.6570  175.8160  138.1690 C   0  0  0  0  0  1  0  0  0  0  0  0
  189.3470  176.9390  138.0510 N   0  0  0  0  0  0  0  0  0  0  0  0
  1  7  1  6  0  0  0
  3  8  1  0  0  0  0
  4  3  2  0  0  0  0
  5 14  1  6  0  0  0
  5 13  1  0  0  0  0
  9  2  1  1  0  0  0
  9 10  1  0  0  0  0
  9  6  1  0  0  0  0
 10  8  2  0  0  0  0
 11 19  2  0  0  0  0
 11 17  1  0  0  0  0
 12 15  1  0  0  0  0
 13  6  2  0  0  0  0
 13  1  1  0  0  0  0
 14 12  2  0  0  0  0
 15  1  1  0  0  0  0
 16  4  1  0  0  0  0
 17 16  2  0  0  0  0
 17 10  1  0  0  0  0
 18  2  2  0  0  0  0
 18  5  1  0  0  0  0
 19  2  1  0  0  0  0
 20 12  1  0  0  0  0
 20 21  2  0  0  0  0
 22 20  1  0  0  0  0
 23 22  1  0  0  0  0
 24 11  1  0  0  0  0
 26 32  1  6  0  0  0
 27 32  1  0  0  0  0
 27 31  1  0  0  0  0
 28 27  2  0  0  0  0
 29 28  1  6  0  0  0
 29 26  1  0  0  0  0
 30 25  1  1  0  0  0
 30 29  1  0  0  0  0
 30 26  1  0  0  0  0
 32 24  1  0  0  0  0
M  END
>  <MODEL>
8

>  <REMARK>
 VINA RESULT:      -8.5      3.842      8.768
  Name = 
  4 active torsions:
  status: ('A' for Active; 'I' for Inactive)
    1  A    between atoms: C_1  and  O_10
    2  A    between atoms: C_1  and  C_19
    3  A    between atoms: C_16  and  C_27
    4  A    between atoms: C_27  and  N_32
                            x       y       z     vdW  Elec       q    Type
                         _______ _______ _______ _____ _____    ______ ____

>  <TORSDO>
F 4

$$$$
=
 OpenBabel10272413323D

 32 37  0  0  1  0  0  0  0  0999 V2000
  191.3320  176.5900  143.3930 C   0  0  2  0  0  3  0  0  0  0  0  0
  188.3940  177.8090  140.5720 C   0  0  0  0  0  0  0  0  0  0  0  0
  191.1150  176.1940  136.9060 C   0  0  0  0  0  3  0  0  0  0  0  0
  190.1260  176.6410  136.0300 C   0  0  0  0  0  3  0  0  0  0  0  0
  189.0990  177.5960  142.8190 C   0  0  0  0  0  0  0  0  0  0  0  0
  190.4940  176.7780  141.0650 N   0  0  0  0  0  0  0  0  0  0  0  0
  192.3570  177.5160  143.3430 F   0  0  0  0  0  0  0  0  0  0  0  0
  190.9430  176.3680  138.2800 C   0  0  0  0  0  3  0  0  0  0  0  0
  189.5780  177.1780  140.1410 C   0  0  0  0  0  0  0  0  0  0  0  0
  189.7850  176.9850  138.7680 C   0  0  0  0  0  0  0  0  0  0  0  0
  187.6400  178.0440  138.3280 C   0  0  0  0  0  0  0  0  0  0  0  0
  189.6840  177.2610  145.1510 C   0  0  0  0  0  0  0  0  0  0  0  0
  190.2770  176.9650  142.3940 C   0  0  0  0  0  0  0  0  0  0  0  0
  188.8460  177.7830  144.2500 C   0  0  0  0  0  3  0  0  0  0  0  0
  190.8090  176.5340  144.7260 O   0  0  0  0  0  0  0  0  0  0  0  0
  189.0040  177.2400  136.5120 N   0  0  0  0  0  0  0  0  0  0  0  0
  188.8060  177.4220  137.8480 C   0  0  0  0  0  0  0  0  0  0  0  0
  188.1840  178.0020  141.9000 N   0  0  0  0  0  0  0  0  0  0  0  0
  187.4670  178.2190  139.6660 N   0  0  0  0  0  0  0  0  0  0  0  0
  189.4290  177.4040  146.5940 C   0  0  0  0  0  0  0  0  0  0  0  0
  190.2830  176.9600  147.4620 N   0  0  0  0  0  2  0  0  0  0  0  0
  188.2490  178.0260  147.0140 O   0  0  0  0  0  0  0  0  0  0  0  0
  187.8530  178.0650  148.3770 C   0  0  0  0  0  1  0  0  0  0  0  0
  186.5690  178.4990  137.3900 C   0  0  0  0  0  2  0  0  0  0  0  0
  182.1540  179.4410  138.9880 C   0  0  0  0  0  1  0  0  0  0  0  0
  184.3670  178.3740  138.7080 C   0  0  2  0  0  3  0  0  0  0  0  0
  184.9270  176.5450  137.3470 C   0  0  0  0  0  0  0  0  0  0  0  0
  183.8030  176.1810  137.9280 C   0  0  0  0  0  3  0  0  0  0  0  0
  183.3240  177.2640  138.8570 C   0  0  2  0  0  3  0  0  0  0  0  0
  182.9840  178.5390  138.0990 C   0  0  1  0  0  3  0  0  0  0  0  0
  185.6610  175.7070  136.3610 C   0  0  0  0  0  1  0  0  0  0  0  0
  185.3030  177.8600  137.7200 N   0  0  0  0  0  0  0  0  0  0  0  0
  1  7  1  1  0  0  0
  1 15  1  0  0  0  0
  2 18  2  0  0  0  0
  3  8  1  0  0  0  0
  4 16  1  0  0  0  0
  4  3  2  0  0  0  0
  5 14  1  0  0  0  0
  6 13  1  0  0  0  0
  8 10  2  0  0  0  0
  9  2  1  0  0  0  0
  9  6  2  0  0  0  0
 10  9  1  0  0  0  0
 11 19  2  0  0  0  0
 12 20  1  0  0  0  0
 13  5  2  0  0  0  0
 13  1  1  0  0  0  0
 14 12  2  0  0  0  0
 15 12  1  0  0  0  0
 16 17  2  0  0  0  0
 17 11  1  0  0  0  0
 17 10  1  0  0  0  0
 18  5  1  0  0  0  0
 19  2  1  0  0  0  0
 20 22  1  0  0  0  0
 20 21  2  0  0  0  0
 22 23  1  0  0  0  0
 24 32  1  0  0  0  0
 24 11  1  0  0  0  0
 26 32  1  6  0  0  0
 26 29  1  0  0  0  0
 27 32  1  0  0  0  0
 27 28  2  0  0  0  0
 29 28  1  6  0  0  0
 30 26  1  0  0  0  0
 30 29  1  0  0  0  0
 30 25  1  1  0  0  0
 31 27  1  0  0  0  0
M  END
>  <MODEL>
9

>  <REMARK>
 VINA RESULT:      -8.4      3.456      8.246
  Name = 
  4 active torsions:
  status: ('A' for Active; 'I' for Inactive)
    1  A    between atoms: C_1  and  O_10
    2  A    between atoms: C_1  and  C_19
    3  A    between atoms: C_16  and  C_27
    4  A    between atoms: C_27  and  N_32
                            x       y       z     vdW  Elec       q    Type
                         _______ _______ _______ _____ _____    ______ ____

>  <TORSDO>
F 4

$$$$
