=
 OpenBabel10272400413D

 25 28  0  0  1  0  0  0  0  0999 V2000
  182.9440  178.6560  141.7770 C   0  0  0  0  0  0  0  0  0  0  0  0
  184.0580  178.6410  142.6200 C   0  0  0  0  0  0  0  0  0  0  0  0
  181.4790  179.0200  143.6380 C   0  0  0  0  0  3  0  0  0  0  0  0
  182.8400  178.5510  140.2920 C   0  0  2  0  0  3  0  0  0  0  0  0
  187.5170  177.2000  142.6650 N   0  0  0  0  0  2  0  0  0  0  0  0
  181.2030  176.2560  139.8200 C   0  0  0  0  0  2  0  0  0  0  0  0
  182.5590  178.9960  144.4730 N   0  0  0  0  0  0  0  0  0  0  0  0
  181.3760  178.7290  139.9890 N   0  0  1  0  0  0  0  0  0  0  0  0
  180.7280  177.6060  139.2920 C   0  0  0  0  0  2  0  0  0  0  0  0
  185.0200  178.8440  144.9310 C   0  0  1  0  0  3  0  0  0  0  0  0
  184.6760  178.3160  146.3130 C   0  0  0  0  0  1  0  0  0  0  0  0
  185.4560  178.5340  142.0880 C   0  0  0  0  0  2  0  0  0  0  0  0
  182.6740  176.1680  139.5970 C   0  0  0  0  0  3  0  0  0  0  0  0
  181.6990  178.8420  142.2760 C   0  0  0  0  0  0  0  0  0  0  0  0
  180.7450  178.8760  141.2430 N   0  0  0  0  0  2  0  0  0  0  0  0
  186.1450  178.0760  144.3880 N   0  0  0  0  0  0  0  0  0  0  0  0
  183.4340  177.2450  139.8080 C   0  0  0  0  0  3  0  0  0  0  0  0
  186.3760  177.9320  143.1130 C   0  0  0  0  0  0  0  0  0  0  0  0
  183.8320  178.7980  144.0040 C   0  0  0  0  0  0  0  0  0  0  0  0
  188.4580  176.5810  143.5880 C   0  0  0  0  0  2  0  0  0  0  0  0
  189.7830  177.3280  143.5580 C   0  0  2  0  0  3  0  0  0  0  0  0
  190.8700  176.3920  143.0520 C   0  0  0  0  0  1  0  0  0  0  0  0
  190.1350  177.8460  144.9530 C   0  0  2  0  0  3  0  0  0  0  0  0
  191.4550  177.5190  145.2720 O   0  0  0  0  0  1  0  0  0  0  0  0
  189.2190  177.2350  146.0000 C   0  0  0  0  0  1  0  0  0  0  0  0
  1 14  2  0  0  0  0
  1  2  1  0  0  0  0
  2 19  2  0  0  0  0
  3  7  2  0  0  0  0
  4 17  1  1  0  0  0
  4  1  1  0  0  0  0
  5 18  1  0  0  0  0
  5 20  1  0  0  0  0
  8  9  1  1  0  0  0
  8  4  1  0  0  0  0
  8 15  1  0  0  0  0
  9  6  1  0  0  0  0
 10 11  1  1  0  0  0
 12  2  1  0  0  0  0
 12 18  1  0  0  0  0
 13 17  2  0  0  0  0
 13  6  1  0  0  0  0
 14  3  1  0  0  0  0
 15 14  1  0  0  0  0
 16 10  1  0  0  0  0
 18 16  2  0  0  0  0
 19  7  1  0  0  0  0
 19 10  1  0  0  0  0
 21 22  1  1  0  0  0
 21 20  1  0  0  0  0
 21 23  1  0  0  0  0
 23 24  1  0  0  0  0
 23 25  1  1  0  0  0
M  END
>  <MODEL>
1

>  <REMARK>
 VINA RESULT:      -8.0      0.000      0.000
  Name = 
  3 active torsions:
  status: ('A' for Active; 'I' for Inactive)
    1  A    between atoms: C_2  and  C_21
    2  A    between atoms: N_6  and  C_15
    3  A    between atoms: C_15  and  C_21
                            x       y       z     vdW  Elec       q    Type
                         _______ _______ _______ _____ _____    ______ ____

>  <TORSDO>
F 3

$$$$
=
 OpenBabel10272400413D

 25 28  0  0  1  0  0  0  0  0999 V2000
  188.1350  178.2530  138.9240 C   0  0  0  0  0  0  0  0  0  0  0  0
  187.6600  178.3890  140.2300 C   0  0  0  0  0  0  0  0  0  0  0  0
  185.9130  178.4290  138.0450 C   0  0  0  0  0  3  0  0  0  0  0  0
  189.5260  178.1270  138.3970 C   0  0  2  0  0  3  0  0  0  0  0  0
  188.6880  177.4180  143.7010 N   0  0  0  0  0  2  0  0  0  0  0  0
  189.5720  175.6340  137.0010 C   0  0  0  0  0  2  0  0  0  0  0  0
  185.4360  178.5530  139.3180 N   0  0  0  0  0  0  0  0  0  0  0  0
  189.3760  178.1090  136.8990 N   0  0  1  0  0  0  0  0  0  0  0  0
  189.8890  176.9070  136.2220 C   0  0  0  0  0  2  0  0  0  0  0  0
  185.7310  178.7290  141.8030 C   0  0  1  0  0  3  0  0  0  0  0  0
  184.3280  178.1670  141.9560 C   0  0  0  0  0  1  0  0  0  0  0  0
  188.5840  178.4650  141.4090 C   0  0  0  0  0  2  0  0  0  0  0  0
  190.2230  175.7390  138.3380 C   0  0  0  0  0  3  0  0  0  0  0  0
  187.2840  178.2750  137.8710 C   0  0  0  0  0  0  0  0  0  0  0  0
  187.9870  178.1770  136.6560 N   0  0  0  0  0  2  0  0  0  0  0  0
  186.6080  178.1140  142.8040 N   0  0  0  0  0  0  0  0  0  0  0  0
  190.2080  176.9080  138.9820 C   0  0  0  0  0  3  0  0  0  0  0  0
  187.8980  177.9950  142.6610 C   0  0  0  0  0  0  0  0  0  0  0  0
  186.2660  178.5220  140.4090 C   0  0  0  0  0  0  0  0  0  0  0  0
  188.1070  176.9340  144.9440 C   0  0  0  0  0  2  0  0  0  0  0  0
  188.7050  177.6840  146.1260 C   0  0  2  0  0  3  0  0  0  0  0  0
  190.0400  177.0530  146.4900 C   0  0  0  0  0  1  0  0  0  0  0  0
  187.7530  177.6420  147.3210 C   0  0  2  0  0  3  0  0  0  0  0  0
  186.6600  178.4830  147.0990 O   0  0  0  0  0  1  0  0  0  0  0  0
  188.4600  178.0900  148.5880 C   0  0  0  0  0  1  0  0  0  0  0  0
  1  2  1  0  0  0  0
  2 19  2  0  0  0  0
  2 12  1  0  0  0  0
  3  7  2  0  0  0  0
  4  1  1  0  0  0  0
  4 17  1  1  0  0  0
  5 20  1  0  0  0  0
  6 13  1  0  0  0  0
  7 19  1  0  0  0  0
  8  9  1  1  0  0  0
  8  4  1  0  0  0  0
  9  6  1  0  0  0  0
 10 11  1  6  0  0  0
 10 16  1  0  0  0  0
 12 18  1  0  0  0  0
 13 17  2  0  0  0  0
 14  3  1  0  0  0  0
 14  1  2  0  0  0  0
 15  8  1  0  0  0  0
 15 14  1  0  0  0  0
 18 16  2  0  0  0  0
 18  5  1  0  0  0  0
 19 10  1  0  0  0  0
 20 21  1  0  0  0  0
 21 22  1  1  0  0  0
 21 23  1  0  0  0  0
 23 25  1  1  0  0  0
 24 23  1  0  0  0  0
M  END
>  <MODEL>
2

>  <REMARK>
 VINA RESULT:      -7.7      3.808      5.661
  Name = 
  3 active torsions:
  status: ('A' for Active; 'I' for Inactive)
    1  A    between atoms: C_2  and  C_21
    2  A    between atoms: N_6  and  C_15
    3  A    between atoms: C_15  and  C_21
                            x       y       z     vdW  Elec       q    Type
                         _______ _______ _______ _____ _____    ______ ____

>  <TORSDO>
F 3

$$$$
=
 OpenBabel10272400413D

 25 28  0  0  1  0  0  0  0  0999 V2000
  188.2250  177.3350  144.7170 C   0  0  0  0  0  0  0  0  0  0  0  0
  186.9750  177.5760  144.1410 C   0  0  0  0  0  0  0  0  0  0  0  0
  187.3860  177.8940  146.8900 C   0  0  0  0  0  3  0  0  0  0  0  0
  189.5010  176.8480  144.1160 C   0  0  2  0  0  3  0  0  0  0  0  0
  185.5670  178.5610  140.8100 N   0  0  0  0  0  2  0  0  0  0  0  0
  191.4070  178.9130  144.6350 C   0  0  0  0  0  2  0  0  0  0  0  0
  186.1630  178.1420  146.3380 N   0  0  0  0  0  0  0  0  0  0  0  0
  190.4520  176.7110  145.2750 N   0  0  1  0  0  0  0  0  0  0  0  0
  191.6790  177.5190  145.1930 C   0  0  0  0  0  2  0  0  0  0  0  0
  184.5620  178.2190  144.4080 C   0  0  1  0  0  3  0  0  0  0  0  0
  183.7880  179.2870  145.1610 C   0  0  0  0  0  1  0  0  0  0  0  0
  186.7070  177.3210  142.6880 C   0  0  0  0  0  2  0  0  0  0  0  0
  190.8480  178.7580  143.2620 C   0  0  0  0  0  3  0  0  0  0  0  0
  188.4160  177.4900  146.0480 C   0  0  0  0  0  0  0  0  0  0  0  0
  189.7310  177.1420  146.4100 N   0  0  0  0  0  2  0  0  0  0  0  0
  184.6400  178.5890  142.9920 N   0  0  0  0  0  0  0  0  0  0  0  0
  189.9660  177.7850  143.0210 C   0  0  0  0  0  3  0  0  0  0  0  0
  185.5850  178.1870  142.1890 C   0  0  0  0  0  0  0  0  0  0  0  0
  185.9360  178.0090  144.9920 C   0  0  0  0  0  0  0  0  0  0  0  0
  184.5220  179.4000  140.2440 C   0  0  0  0  0  2  0  0  0  0  0  0
  184.4240  179.1670  138.7430 C   0  0  2  0  0  3  0  0  0  0  0  0
  183.0420  178.6240  138.4130 C   0  0  0  0  0  1  0  0  0  0  0  0
  185.5040  178.1860  138.2840 C   0  0  2  0  0  3  0  0  0  0  0  0
  186.5230  178.8680  137.6160 O   0  0  0  0  0  1  0  0  0  0  0  0
  184.9210  177.1450  137.3460 C   0  0  0  0  0  1  0  0  0  0  0  0
  1 14  1  0  0  0  0
  2  1  2  0  0  0  0
  2 19  1  0  0  0  0
  4 17  1  6  0  0  0
  4  1  1  0  0  0  0
  4  8  1  0  0  0  0
  5 18  1  0  0  0  0
  6  9  1  0  0  0  0
  7  3  1  0  0  0  0
  8  9  1  6  0  0  0
  8 15  1  0  0  0  0
 10 19  1  0  0  0  0
 10 11  1  1  0  0  0
 12  2  1  0  0  0  0
 13  6  1  0  0  0  0
 14 15  1  0  0  0  0
 14  3  2  0  0  0  0
 16 10  1  0  0  0  0
 17 13  2  0  0  0  0
 18 12  1  0  0  0  0
 18 16  2  0  0  0  0
 19  7  2  0  0  0  0
 20  5  1  0  0  0  0
 21 22  1  1  0  0  0
 21 20  1  0  0  0  0
 23 25  1  6  0  0  0
 23 21  1  0  0  0  0
 24 23  1  0  0  0  0
M  END
>  <MODEL>
3

>  <REMARK>
 VINA RESULT:      -7.7      2.938      7.326
  Name = 
  3 active torsions:
  status: ('A' for Active; 'I' for Inactive)
    1  A    between atoms: C_2  and  C_21
    2  A    between atoms: N_6  and  C_15
    3  A    between atoms: C_15  and  C_21
                            x       y       z     vdW  Elec       q    Type
                         _______ _______ _______ _____ _____    ______ ____

>  <TORSDO>
F 3

$$$$
=
 OpenBabel10272400413D

 25 28  0  0  1  0  0  0  0  0999 V2000
  189.8000  177.2200  137.7890 C   0  0  0  0  0  0  0  0  0  0  0  0
  189.5600  177.5610  139.1220 C   0  0  0  0  0  0  0  0  0  0  0  0
  187.7460  178.2460  137.1040 C   0  0  0  0  0  3  0  0  0  0  0  0
  190.9650  176.5420  137.1480 C   0  0  2  0  0  3  0  0  0  0  0  0
  190.4900  176.3350  142.5400 N   0  0  0  0  0  2  0  0  0  0  0  0
  189.8780  174.2060  135.9100 C   0  0  0  0  0  2  0  0  0  0  0  0
  187.4950  178.5750  138.4050 N   0  0  0  0  0  0  0  0  0  0  0  0
  190.6600  176.5520  135.6740 N   0  0  1  0  0  0  0  0  0  0  0  0
  190.5850  175.2310  135.0280 C   0  0  0  0  0  2  0  0  0  0  0  0
  188.1000  178.6720  140.8380 C   0  0  1  0  0  3  0  0  0  0  0  0
  186.6150  178.7170  141.1510 C   0  0  0  0  0  1  0  0  0  0  0  0
  190.5600  177.2880  140.2060 C   0  0  0  0  0  2  0  0  0  0  0  0
  190.6570  174.0720  137.1740 C   0  0  0  0  0  3  0  0  0  0  0  0
  188.9200  177.5560  136.8180 C   0  0  0  0  0  0  0  0  0  0  0  0
  189.3930  177.1610  135.5530 N   0  0  0  0  0  2  0  0  0  0  0  0
  188.7660  177.7810  141.7920 N   0  0  0  0  0  0  0  0  0  0  0  0
  191.1720  175.1640  137.7440 C   0  0  0  0  0  3  0  0  0  0  0  0
  189.8830  177.1570  141.5410 C   0  0  0  0  0  0  0  0  0  0  0  0
  188.3580  178.2400  139.4170 C   0  0  0  0  0  0  0  0  0  0  0  0
  189.9020  176.1470  143.8580 C   0  0  0  0  0  2  0  0  0  0  0  0
  190.4780  177.1630  144.8340 C   0  0  2  0  0  3  0  0  0  0  0  0
  191.6550  176.5370  145.5650 C   0  0  0  0  0  1  0  0  0  0  0  0
  189.4080  177.6090  145.8310 C   0  0  2  0  0  3  0  0  0  0  0  0
  189.5330  176.8950  147.0250 O   0  0  0  0  0  1  0  0  0  0  0  0
  188.0170  177.3760  145.2690 C   0  0  0  0  0  1  0  0  0  0  0  0
  1  2  1  0  0  0  0
  2 19  2  0  0  0  0
  2 12  1  0  0  0  0
  3  7  2  0  0  0  0
  4 17  1  1  0  0  0
  4  1  1  0  0  0  0
  5 20  1  0  0  0  0
  6 13  1  0  0  0  0
  7 19  1  0  0  0  0
  8  9  1  1  0  0  0
  8  4  1  0  0  0  0
  9  6  1  0  0  0  0
 10 11  1  1  0  0  0
 10 16  1  0  0  0  0
 12 18  1  0  0  0  0
 13 17  2  0  0  0  0
 14  3  1  0  0  0  0
 14  1  2  0  0  0  0
 15  8  1  0  0  0  0
 15 14  1  0  0  0  0
 18 16  2  0  0  0  0
 18  5  1  0  0  0  0
 19 10  1  0  0  0  0
 20 21  1  0  0  0  0
 21 22  1  1  0  0  0
 21 23  1  0  0  0  0
 23 25  1  6  0  0  0
 23 24  1  0  0  0  0
M  END
>  <MODEL>
4

>  <REMARK>
 VINA RESULT:      -7.5      4.656      6.883
  Name = 
  3 active torsions:
  status: ('A' for Active; 'I' for Inactive)
    1  A    between atoms: C_2  and  C_21
    2  A    between atoms: N_6  and  C_15
    3  A    between atoms: C_15  and  C_21
                            x       y       z     vdW  Elec       q    Type
                         _______ _______ _______ _____ _____    ______ ____

>  <TORSDO>
F 3

$$$$
=
 OpenBabel10272400413D

 25 28  0  0  1  0  0  0  0  0999 V2000
  189.0040  176.8830  144.7810 C   0  0  0  0  0  0  0  0  0  0  0  0
  187.6930  177.2970  145.0310 C   0  0  0  0  0  0  0  0  0  0  0  0
  189.7150  177.6710  146.9290 C   0  0  0  0  0  3  0  0  0  0  0  0
  189.5980  176.1670  143.6140 C   0  0  2  0  0  3  0  0  0  0  0  0
  184.6660  178.3430  143.0850 N   0  0  0  0  0  2  0  0  0  0  0  0
  191.6270  177.9160  142.6190 C   0  0  0  0  0  2  0  0  0  0  0  0
  188.4400  178.0890  147.1800 N   0  0  0  0  0  0  0  0  0  0  0  0
  191.0360  175.9310  143.9910 N   0  0  1  0  0  0  0  0  0  0  0  0
  192.0370  176.5240  143.0890 C   0  0  0  0  0  2  0  0  0  0  0  0
  186.0160  178.3360  146.5850 C   0  0  1  0  0  3  0  0  0  0  0  0
  185.9700  179.5490  147.4970 C   0  0  0  0  0  1  0  0  0  0  0  0
  186.5760  177.0220  144.0690 C   0  0  0  0  0  2  0  0  0  0  0  0
  190.3390  177.7910  141.8800 C   0  0  0  0  0  3  0  0  0  0  0  0
  189.9770  177.0660  145.7040 C   0  0  0  0  0  0  0  0  0  0  0  0
  191.1980  176.5250  145.2600 N   0  0  0  0  0  2  0  0  0  0  0  0
  185.2570  178.6220  145.3640 N   0  0  0  0  0  0  0  0  0  0  0  0
  189.3970  176.9650  142.3420 C   0  0  0  0  0  3  0  0  0  0  0  0
  185.4760  178.0350  144.2200 C   0  0  0  0  0  0  0  0  0  0  0  0
  187.4320  177.9320  146.2640 C   0  0  0  0  0  0  0  0  0  0  0  0
  183.5830  179.3140  143.1400 C   0  0  0  0  0  2  0  0  0  0  0  0
  182.3180  178.7160  142.5420 C   0  0  2  0  0  3  0  0  0  0  0  0
  182.3930  178.8090  141.0260 C   0  0  0  0  0  1  0  0  0  0  0  0
  181.0830  179.4550  143.0600 C   0  0  2  0  0  3  0  0  0  0  0  0
  180.5540  178.7940  144.1700 O   0  0  0  0  0  1  0  0  0  0  0  0
  180.0130  179.5320  141.9850 C   0  0  0  0  0  1  0  0  0  0  0  0
  1  2  2  0  0  0  0
  1 14  1  0  0  0  0
  2 19  1  0  0  0  0
  3  7  1  0  0  0  0
  4 17  1  6  0  0  0
  4  8  1  0  0  0  0
  4  1  1  0  0  0  0
  5 20  1  0  0  0  0
  5 18  1  0  0  0  0
  6  9  1  0  0  0  0
  8  9  1  6  0  0  0
  8 15  1  0  0  0  0
 10 11  1  1  0  0  0
 12 18  1  0  0  0  0
 12  2  1  0  0  0  0
 13 17  2  0  0  0  0
 13  6  1  0  0  0  0
 14  3  2  0  0  0  0
 15 14  1  0  0  0  0
 16 10  1  0  0  0  0
 18 16  2  0  0  0  0
 19 10  1  0  0  0  0
 19  7  2  0  0  0  0
 21 22  1  6  0  0  0
 21 23  1  0  0  0  0
 21 20  1  0  0  0  0
 23 25  1  6  0  0  0
 23 24  1  0  0  0  0
M  END
>  <MODEL>
5

>  <REMARK>
 VINA RESULT:      -7.2      3.041      7.732
  Name = 
  3 active torsions:
  status: ('A' for Active; 'I' for Inactive)
    1  A    between atoms: C_2  and  C_21
    2  A    between atoms: N_6  and  C_15
    3  A    between atoms: C_15  and  C_21
                            x       y       z     vdW  Elec       q    Type
                         _______ _______ _______ _____ _____    ______ ____

>  <TORSDO>
F 3

$$$$
=
 OpenBabel10272400413D

 25 28  0  0  1  0  0  0  0  0999 V2000
  190.1010  176.9080  140.1680 C   0  0  0  0  0  0  0  0  0  0  0  0
  189.8960  176.9440  141.5500 C   0  0  0  0  0  0  0  0  0  0  0  0
  192.3750  177.6120  140.4370 C   0  0  0  0  0  3  0  0  0  0  0  0
  189.1950  176.4980  139.0560 C   0  0  2  0  0  3  0  0  0  0  0  0
  187.0520  177.3890  143.9500 N   0  0  0  0  0  2  0  0  0  0  0  0
  188.9790  178.8040  137.3810 C   0  0  0  0  0  2  0  0  0  0  0  0
  192.1840  177.6610  141.7880 N   0  0  0  0  0  0  0  0  0  0  0  0
  190.0350  176.5970  137.8110 N   0  0  1  0  0  0  0  0  0  0  0  0
  189.5380  177.5200  136.7770 C   0  0  0  0  0  2  0  0  0  0  0  0
  190.8020  177.3450  143.8570 C   0  0  1  0  0  3  0  0  0  0  0  0
  191.6630  178.4000  144.5300 C   0  0  0  0  0  1  0  0  0  0  0  0
  188.6070  176.5000  142.1740 C   0  0  0  0  0  2  0  0  0  0  0  0
  187.8430  178.4360  138.2740 C   0  0  0  0  0  3  0  0  0  0  0  0
  191.3040  177.2310  139.6370 C   0  0  0  0  0  0  0  0  0  0  0  0
  191.2930  177.0710  138.2390 N   0  0  0  0  0  2  0  0  0  0  0  0
  189.4000  177.5600  144.2290 N   0  0  0  0  0  0  0  0  0  0  0  0
  187.9430  177.3520  139.0470 C   0  0  0  0  0  3  0  0  0  0  0  0
  188.3910  177.1760  143.4990 C   0  0  0  0  0  0  0  0  0  0  0  0
  190.9760  177.3530  142.3600 C   0  0  0  0  0  0  0  0  0  0  0  0
  186.7510  178.0390  145.2160 C   0  0  0  0  0  2  0  0  0  0  0  0
  185.5410  178.9490  145.0600 C   0  0  2  0  0  3  0  0  0  0  0  0
  184.6050  178.7390  146.2410 C   0  0  0  0  0  1  0  0  0  0  0  0
  184.8160  178.6510  143.7470 C   0  0  2  0  0  3  0  0  0  0  0  0
  185.2330  179.5380  142.7520 O   0  0  0  0  0  1  0  0  0  0  0  0
  183.3140  178.7860  143.9200 C   0  0  0  0  0  1  0  0  0  0  0  0
  1  2  1  0  0  0  0
  2 12  1  0  0  0  0
  2 19  2  0  0  0  0
  3  7  2  0  0  0  0
  4 17  1  6  0  0  0
  4  1  1  0  0  0  0
  5 20  1  0  0  0  0
  6 13  1  0  0  0  0
  7 19  1  0  0  0  0
  8  9  1  6  0  0  0
  8 15  1  0  0  0  0
  8  4  1  0  0  0  0
  9  6  1  0  0  0  0
 10 16  1  0  0  0  0
 10 11  1  1  0  0  0
 12 18  1  0  0  0  0
 13 17  2  0  0  0  0
 14  1  2  0  0  0  0
 14  3  1  0  0  0  0
 15 14  1  0  0  0  0
 18  5  1  0  0  0  0
 18 16  2  0  0  0  0
 19 10  1  0  0  0  0
 21 20  1  0  0  0  0
 21 22  1  1  0  0  0
 23 25  1  1  0  0  0
 23 21  1  0  0  0  0
 24 23  1  0  0  0  0
M  END
>  <MODEL>
6

>  <REMARK>
 VINA RESULT:      -7.2      3.609      7.149
  Name = 
  3 active torsions:
  status: ('A' for Active; 'I' for Inactive)
    1  A    between atoms: C_2  and  C_21
    2  A    between atoms: N_6  and  C_15
    3  A    between atoms: C_15  and  C_21
                            x       y       z     vdW  Elec       q    Type
                         _______ _______ _______ _____ _____    ______ ____

>  <TORSDO>
F 3

$$$$
=
 OpenBabel10272400413D

 25 28  0  0  1  0  0  0  0  0999 V2000
  188.2940  177.8500  138.1660 C   0  0  0  0  0  0  0  0  0  0  0  0
  188.2210  178.1270  139.5330 C   0  0  0  0  0  0  0  0  0  0  0  0
  185.9380  178.2100  137.9180 C   0  0  0  0  0  3  0  0  0  0  0  0
  189.4620  177.5360  137.2920 C   0  0  2  0  0  3  0  0  0  0  0  0
  190.1020  177.2880  142.6650 N   0  0  0  0  0  2  0  0  0  0  0  0
  188.8950  174.9620  136.1850 C   0  0  0  0  0  2  0  0  0  0  0  0
  185.8530  178.4720  139.2550 N   0  0  0  0  0  0  0  0  0  0  0  0
  188.8940  177.4310  135.9020 N   0  0  1  0  0  0  0  0  0  0  0  0
  189.0880  176.1360  135.2290 C   0  0  0  0  0  2  0  0  0  0  0  0
  186.8530  178.7850  141.5340 C   0  0  1  0  0  3  0  0  0  0  0  0
  185.5080  178.3930  142.1200 C   0  0  0  0  0  1  0  0  0  0  0  0
  189.4450  178.1810  140.3990 C   0  0  0  0  0  2  0  0  0  0  0  0
  189.9040  175.0870  137.2750 C   0  0  0  0  0  3  0  0  0  0  0  0
  187.1850  177.8940  137.3900 C   0  0  0  0  0  0  0  0  0  0  0  0
  187.5040  177.6350  136.0440 N   0  0  0  0  0  2  0  0  0  0  0  0
  187.9210  178.1470  142.3100 N   0  0  0  0  0  0  0  0  0  0  0  0
  190.1740  176.2920  137.7820 C   0  0  0  0  0  3  0  0  0  0  0  0
  189.1030  177.8770  141.8310 C   0  0  0  0  0  0  0  0  0  0  0  0
  186.9520  178.4240  140.0740 C   0  0  0  0  0  0  0  0  0  0  0  0
  189.8560  176.9580  144.0610 C   0  0  0  0  0  2  0  0  0  0  0  0
  190.7280  177.8210  144.9610 C   0  0  2  0  0  3  0  0  0  0  0  0
  191.6100  178.7080  144.0960 C   0  0  0  0  0  1  0  0  0  0  0  0
  191.5870  176.9430  145.8720 C   0  0  2  0  0  3  0  0  0  0  0  0
  191.9810  175.7860  145.1960 O   0  0  0  0  0  1  0  0  0  0  0  0
  190.8140  176.5390  147.1150 C   0  0  0  0  0  1  0  0  0  0  0  0
  1  2  1  0  0  0  0
  2 19  2  0  0  0  0
  2 12  1  0  0  0  0
  3  7  2  0  0  0  0
  4 17  1  1  0  0  0
  4  1  1  0  0  0  0
  5 20  1  0  0  0  0
  6 13  1  0  0  0  0
  7 19  1  0  0  0  0
  8  9  1  1  0  0  0
  8 15  1  0  0  0  0
  8  4  1  0  0  0  0
  9  6  1  0  0  0  0
 10 11  1  1  0  0  0
 10 16  1  0  0  0  0
 12 18  1  0  0  0  0
 13 17  2  0  0  0  0
 14  3  1  0  0  0  0
 14  1  2  0  0  0  0
 15 14  1  0  0  0  0
 18 16  2  0  0  0  0
 18  5  1  0  0  0  0
 19 10  1  0  0  0  0
 20 21  1  0  0  0  0
 21 22  1  6  0  0  0
 21 23  1  0  0  0  0
 23 25  1  1  0  0  0
 24 23  1  0  0  0  0
M  END
>  <MODEL>
7

>  <REMARK>
 VINA RESULT:      -7.1      4.133      5.711
  Name = 
  3 active torsions:
  status: ('A' for Active; 'I' for Inactive)
    1  A    between atoms: C_2  and  C_21
    2  A    between atoms: N_6  and  C_15
    3  A    between atoms: C_15  and  C_21
                            x       y       z     vdW  Elec       q    Type
                         _______ _______ _______ _____ _____    ______ ____

>  <TORSDO>
F 3

$$$$
=
 OpenBabel10272400413D

 25 28  0  0  1  0  0  0  0  0999 V2000
  186.5200  178.3930  142.3530 C   0  0  0  0  0  0  0  0  0  0  0  0
  187.8190  178.0480  141.9740 C   0  0  0  0  0  0  0  0  0  0  0  0
  186.7250  177.1360  144.3820 C   0  0  0  0  0  3  0  0  0  0  0  0
  185.5110  179.2760  141.6970 C   0  0  2  0  0  3  0  0  0  0  0  0
  189.8090  177.6670  138.8200 N   0  0  0  0  0  2  0  0  0  0  0  0
  183.2460  177.5990  141.2250 C   0  0  0  0  0  2  0  0  0  0  0  0
  187.9930  176.7830  144.0170 N   0  0  0  0  0  0  0  0  0  0  0  0
  184.3450  179.3120  142.6490 N   0  0  1  0  0  0  0  0  0  0  0  0
  183.0640  178.8300  142.1070 C   0  0  0  0  0  2  0  0  0  0  0  0
  189.9740  176.8630  142.4810 C   0  0  1  0  0  3  0  0  0  0  0  0
  190.3770  175.5000  143.0160 C   0  0  0  0  0  1  0  0  0  0  0  0
  188.4590  178.6020  140.7350 C   0  0  0  0  0  2  0  0  0  0  0  0
  184.1310  177.9760  140.0860 C   0  0  0  0  0  3  0  0  0  0  0  0
  185.9970  177.9500  143.5210 C   0  0  0  0  0  0  0  0  0  0  0  0
  184.7030  178.4650  143.7190 N   0  0  0  0  0  2  0  0  0  0  0  0
  190.1790  176.8900  141.0290 N   0  0  0  0  0  0  0  0  0  0  0  0
  185.1820  178.7690  140.3090 C   0  0  0  0  0  3  0  0  0  0  0  0
  189.5230  177.6740  140.2200 C   0  0  0  0  0  0  0  0  0  0  0  0
  188.5500  177.2040  142.8360 C   0  0  0  0  0  0  0  0  0  0  0  0
  190.8190  176.7990  138.2350 C   0  0  0  0  0  2  0  0  0  0  0  0
  190.2310  176.0350  137.0590 C   0  0  2  0  0  3  0  0  0  0  0  0
  188.7350  175.8650  137.2740 C   0  0  0  0  0  1  0  0  0  0  0  0
  190.9060  174.6700  136.9190 C   0  0  2  0  0  3  0  0  0  0  0  0
  190.1250  173.6800  137.5200 O   0  0  0  0  0  1  0  0  0  0  0  0
  192.2740  174.6760  137.5790 C   0  0  0  0  0  1  0  0  0  0  0  0
  1 14  1  0  0  0  0
  2  1  2  0  0  0  0
  2 19  1  0  0  0  0
  4 17  1  6  0  0  0
  4  1  1  0  0  0  0
  4  8  1  0  0  0  0
  5 18  1  0  0  0  0
  6  9  1  0  0  0  0
  7  3  1  0  0  0  0
  8  9  1  6  0  0  0
  8 15  1  0  0  0  0
 10 19  1  0  0  0  0
 10 11  1  6  0  0  0
 12  2  1  0  0  0  0
 13 17  2  0  0  0  0
 13  6  1  0  0  0  0
 14 15  1  0  0  0  0
 14  3  2  0  0  0  0
 16 10  1  0  0  0  0
 18 12  1  0  0  0  0
 18 16  2  0  0  0  0
 19  7  2  0  0  0  0
 20  5  1  0  0  0  0
 21 22  1  1  0  0  0
 21 20  1  0  0  0  0
 23 21  1  0  0  0  0
 23 24  1  0  0  0  0
 23 25  1  1  0  0  0
M  END
>  <MODEL>
8

>  <REMARK>
 VINA RESULT:      -7.0      3.626      5.450
  Name = 
  3 active torsions:
  status: ('A' for Active; 'I' for Inactive)
    1  A    between atoms: C_2  and  C_21
    2  A    between atoms: N_6  and  C_15
    3  A    between atoms: C_15  and  C_21
                            x       y       z     vdW  Elec       q    Type
                         _______ _______ _______ _____ _____    ______ ____

>  <TORSDO>
F 3

$$$$
=
 OpenBabel10272400413D

 25 28  0  0  1  0  0  0  0  0999 V2000
  189.1220  178.0070  141.0830 C   0  0  0  0  0  0  0  0  0  0  0  0
  187.8400  178.3480  140.6460 C   0  0  0  0  0  0  0  0  0  0  0  0
  189.6770  177.1250  138.9260 C   0  0  0  0  0  3  0  0  0  0  0  0
  189.7990  178.2270  142.3950 C   0  0  2  0  0  3  0  0  0  0  0  0
  184.4290  178.8730  142.1070 N   0  0  0  0  0  2  0  0  0  0  0  0
  190.4920  175.6150  143.3250 C   0  0  0  0  0  2  0  0  0  0  0  0
  188.4230  177.4440  138.4900 N   0  0  0  0  0  0  0  0  0  0  0  0
  191.2010  177.7150  142.2020 N   0  0  1  0  0  0  0  0  0  0  0  0
  191.6120  176.6260  143.1040 C   0  0  0  0  0  2  0  0  0  0  0  0
  186.1420  178.4400  138.7980 C   0  0  1  0  0  3  0  0  0  0  0  0
  185.6420  177.4940  137.7200 C   0  0  0  0  0  1  0  0  0  0  0  0
  186.8720  179.0890  141.5200 C   0  0  0  0  0  2  0  0  0  0  0  0
  189.3400  176.3320  143.9410 C   0  0  0  0  0  3  0  0  0  0  0  0
  190.0070  177.4170  140.2450 C   0  0  0  0  0  0  0  0  0  0  0  0
  191.2450  177.2170  140.8830 N   0  0  0  0  0  2  0  0  0  0  0  0
  185.1570  178.4970  139.8830 N   0  0  0  0  0  0  0  0  0  0  0  0
  189.0260  177.5570  143.5120 C   0  0  0  0  0  3  0  0  0  0  0  0
  185.4540  178.8020  141.1150 C   0  0  0  0  0  0  0  0  0  0  0  0
  187.4970  178.0310  139.3140 C   0  0  0  0  0  0  0  0  0  0  0  0
  183.0310  178.6070  141.8030 C   0  0  0  0  0  2  0  0  0  0  0  0
  182.1410  179.2070  142.8820 C   0  0  2  0  0  3  0  0  0  0  0  0
  182.6630  178.7880  144.2480 C   0  0  0  0  0  1  0  0  0  0  0  0
  180.6950  178.7420  142.7000 C   0  0  2  0  0  3  0  0  0  0  0  0
  179.9840  179.6650  141.9300 O   0  0  0  0  0  1  0  0  0  0  0  0
  180.0040  178.5970  144.0440 C   0  0  0  0  0  1  0  0  0  0  0  0
  1  4  1  0  0  0  0
  2  1  1  0  0  0  0
  2 12  1  0  0  0  0
  3 14  1  0  0  0  0
  4 17  1  1  0  0  0
  6 13  1  0  0  0  0
  7  3  2  0  0  0  0
  7 19  1  0  0  0  0
  8  4  1  0  0  0  0
  8  9  1  1  0  0  0
  9  6  1  0  0  0  0
 10 11  1  6  0  0  0
 10 19  1  0  0  0  0
 10 16  1  0  0  0  0
 14 15  1  0  0  0  0
 14  1  2  0  0  0  0
 15  8  1  0  0  0  0
 16 18  2  0  0  0  0
 17 13  2  0  0  0  0
 18 12  1  0  0  0  0
 18  5  1  0  0  0  0
 19  2  2  0  0  0  0
 20  5  1  0  0  0  0
 20 21  1  0  0  0  0
 21 22  1  1  0  0  0
 23 21  1  0  0  0  0
 23 25  1  1  0  0  0
 24 23  1  0  0  0  0
M  END
>  <MODEL>
9

>  <REMARK>
 VINA RESULT:      -7.0      3.517      8.019
  Name = 
  3 active torsions:
  status: ('A' for Active; 'I' for Inactive)
    1  A    between atoms: C_2  and  C_21
    2  A    between atoms: N_6  and  C_15
    3  A    between atoms: C_15  and  C_21
                            x       y       z     vdW  Elec       q    Type
                         _______ _______ _______ _____ _____    ______ ____

>  <TORSDO>
F 3

$$$$
