=
 OpenBabel10272415103D

 34 38  0  0  1  0  0  0  0  0999 V2000
  185.4210  178.3160  142.4140 C   0  0  2  0  0  3  0  0  0  0  0  0
  185.4980  179.4270  146.0970 C   0  0  0  0  0  2  0  0  0  0  0  0
  183.7360  179.6120  144.3780 C   0  0  0  0  0  2  0  0  0  0  0  0
  183.3490  177.7410  141.1090 C   0  0  0  0  0  3  0  0  0  0  0  0
  181.1530  178.4190  141.8740 C   0  0  0  0  0  3  0  0  0  0  0  0
  181.9630  177.7810  140.9290 C   0  0  0  0  0  3  0  0  0  0  0  0
  183.1120  178.9700  143.1840 C   0  0  0  0  0  0  0  0  0  0  0  0
  183.9270  178.3300  142.2380 C   0  0  0  0  0  0  0  0  0  0  0  0
  181.7270  179.0180  142.9990 C   0  0  0  0  0  3  0  0  0  0  0  0
  186.1830  178.4420  147.0350 C   0  0  0  0  0  2  0  0  0  0  0  0
  187.3310  177.8070  146.3860 N   0  0  0  0  0  0  0  0  0  0  0  0
  186.7770  176.6610  145.6660 C   0  0  0  0  0  2  0  0  0  0  0  0
  184.8250  178.7050  144.9380 C   0  0  1  0  0  3  0  0  0  0  0  0
  186.5820  176.9770  144.1830 C   0  0  0  0  0  2  0  0  0  0  0  0
  185.8940  178.3170  143.8840 C   0  0  1  0  0  3  0  0  0  0  0  0
  188.2200  177.2950  147.4390 C   0  0  0  0  0  3  0  0  0  0  0  0
  189.6480  177.1430  146.9340 C   0  0  0  0  0  1  0  0  0  0  0  0
  188.2560  178.2370  148.6340 C   0  0  0  0  0  1  0  0  0  0  0  0
  186.0800  179.4440  141.6240 C   0  0  0  0  0  2  0  0  0  0  0  0
  186.7480  178.9380  140.5020 O   0  0  0  0  0  0  0  0  0  0  0  0
  187.9020  178.3360  141.0080 C   0  0  0  0  0  2  0  0  0  0  0  0
  188.9300  176.8730  137.5960 C   0  0  0  0  0  2  0  0  0  0  0  0
  190.0170  177.5710  140.1360 N   0  0  0  0  0  0  0  0  0  0  0  0
  192.6440  176.2210  137.1030 C   0  0  0  0  0  0  0  0  0  0  0  0
  191.2720  176.3480  136.8390 C   0  0  0  0  0  3  0  0  0  0  0  0
  190.4080  176.8160  137.8340 C   0  0  0  0  0  0  0  0  0  0  0  0
  192.2740  176.9860  139.3760 C   0  0  0  0  0  3  0  0  0  0  0  0
  190.9100  177.1290  139.1080 C   0  0  0  0  0  0  0  0  0  0  0  0
  193.1390  176.5360  138.3740 C   0  0  0  0  0  3  0  0  0  0  0  0
  188.7780  177.8780  139.8910 C   0  0  0  0  0  0  0  0  0  0  0  0
  188.2680  177.9370  138.4740 C   0  0  0  0  0  2  0  0  0  0  0  0
  193.5950  175.7470  136.0510 C   0  0  1  0  0  3  0  0  0  0  0  0
  193.0030  175.9270  134.6650 C   0  0  0  0  0  1  0  0  0  0  0  0
  194.8090  176.4340  136.1460 O   0  0  0  0  0  1  0  0  0  0  0  0
  1 19  1  6  0  0  0
  1 15  1  0  0  0  0
  2 10  1  0  0  0  0
  4  8  1  0  0  0  0
  5  9  2  0  0  0  0
  6  4  2  0  0  0  0
  6  5  1  0  0  0  0
  7  3  1  0  0  0  0
  8  1  1  0  0  0  0
  8  7  2  0  0  0  0
  9  7  1  0  0  0  0
 11 10  1  0  0  0  0
 11 16  1  0  0  0  0
 12 11  1  0  0  0  0
 13  3  1  6  0  0  0
 13  2  1  0  0  0  0
 14 12  1  0  0  0  0
 15 14  1  1  0  0  0
 15 13  1  0  0  0  0
 16 18  1  0  0  0  0
 17 16  1  0  0  0  0
 20 21  1  0  0  0  0
 20 19  1  0  0  0  0
 22 26  1  0  0  0  0
 22 31  1  0  0  0  0
 24 29  1  0  0  0  0
 25 24  2  0  0  0  0
 25 26  1  0  0  0  0
 26 28  2  0  0  0  0
 28 27  1  0  0  0  0
 28 23  1  0  0  0  0
 29 27  2  0  0  0  0
 30 23  2  0  0  0  0
 30 21  1  0  0  0  0
 31 30  1  0  0  0  0
 32 33  1  6  0  0  0
 32 34  1  0  0  0  0
 32 24  1  0  0  0  0
M  END
>  <MODEL>
1

>  <REMARK>
 VINA RESULT:      -9.4      0.000      0.000
  Name = 
  6 active torsions:
  status: ('A' for Active; 'I' for Inactive)
    1  A    between atoms: C_1  and  C_9
    2  A    between atoms: C_3  and  N_25
    3  A    between atoms: C_7  and  C_11
    4  A    between atoms: O_8  and  C_9
    5  A    between atoms: O_8  and  C_18
    6  A    between atoms: C_18  and  C_30
                            x       y       z     vdW  Elec       q    Type
                         _______ _______ _______ _____ _____    ______ ____

>  <TORSDO>
F 6

$$$$
=
 OpenBabel10272415103D

 34 38  0  0  1  0  0  0  0  0999 V2000
  183.2880  179.0390  139.2370 C   0  0  2  0  0  3  0  0  0  0  0  0
  183.7820  176.1750  136.7160 C   0  0  0  0  0  2  0  0  0  0  0  0
  181.9940  177.8640  136.9300 C   0  0  0  0  0  2  0  0  0  0  0  0
  181.9970  181.1530  138.8040 C   0  0  0  0  0  3  0  0  0  0  0  0
  180.4300  181.3160  136.9650 C   0  0  0  0  0  3  0  0  0  0  0  0
  181.0620  181.8910  138.0720 C   0  0  0  0  0  3  0  0  0  0  0  0
  181.6710  179.2680  137.3170 C   0  0  0  0  0  0  0  0  0  0  0  0
  182.3080  179.8430  138.4270 C   0  0  0  0  0  0  0  0  0  0  0  0
  180.7300  180.0020  136.5900 C   0  0  0  0  0  3  0  0  0  0  0  0
  185.2220  175.9800  136.2610 C   0  0  0  0  0  2  0  0  0  0  0  0
  186.1590  176.2240  137.3590 N   0  0  0  0  0  0  0  0  0  0  0  0
  186.4000  177.6660  137.3410 C   0  0  0  0  0  2  0  0  0  0  0  0
  183.4980  177.6360  137.0310 C   0  0  1  0  0  3  0  0  0  0  0  0
  185.5540  178.3850  138.3930 C   0  0  0  0  0  2  0  0  0  0  0  0
  184.0730  177.9820  138.4280 C   0  0  1  0  0  3  0  0  0  0  0  0
  187.4240  175.5480  137.0340 C   0  0  0  0  0  3  0  0  0  0  0  0
  187.4140  175.0100  135.6110 C   0  0  0  0  0  1  0  0  0  0  0  0
  188.6030  176.5020  137.1530 C   0  0  0  0  0  1  0  0  0  0  0  0
  182.6150  178.4120  140.4540 C   0  0  0  0  0  2  0  0  0  0  0  0
  183.5700  178.0180  141.4000 O   0  0  0  0  0  0  0  0  0  0  0  0
  183.3660  178.8620  142.4940 C   0  0  0  0  0  2  0  0  0  0  0  0
  185.1210  178.9860  145.9210 C   0  0  0  0  0  2  0  0  0  0  0  0
  185.5380  178.1210  143.2380 N   0  0  0  0  0  0  0  0  0  0  0  0
  188.5070  177.2680  146.1330 C   0  0  0  0  0  0  0  0  0  0  0  0
  187.3310  177.9350  146.5070 C   0  0  0  0  0  3  0  0  0  0  0  0
  186.3410  178.1960  145.5560 C   0  0  0  0  0  0  0  0  0  0  0  0
  187.7150  177.1680  143.8410 C   0  0  0  0  0  3  0  0  0  0  0  0
  186.5370  177.8180  144.2180 C   0  0  0  0  0  0  0  0  0  0  0  0
  188.6960  176.8920  144.7970 C   0  0  0  0  0  3  0  0  0  0  0  0
  184.3630  178.5690  143.5650 C   0  0  0  0  0  0  0  0  0  0  0  0
  183.9410  178.6360  145.0110 C   0  0  0  0  0  2  0  0  0  0  0  0
  189.5720  176.9530  147.1330 C   0  0  1  0  0  3  0  0  0  0  0  0
  190.9360  176.8860  146.4710 C   0  0  0  0  0  1  0  0  0  0  0  0
  189.5810  177.9080  148.1540 O   0  0  0  0  0  1  0  0  0  0  0  0
  1 19  1  1  0  0  0
  3 13  1  0  0  0  0
  3  7  1  0  0  0  0
  5  6  1  0  0  0  0
  6  4  2  0  0  0  0
  7  8  2  0  0  0  0
  8  4  1  0  0  0  0
  8  1  1  0  0  0  0
  9  5  2  0  0  0  0
  9  7  1  0  0  0  0
 10  2  1  0  0  0  0
 10 11  1  0  0  0  0
 12 11  1  0  0  0  0
 12 14  1  0  0  0  0
 13  2  1  1  0  0  0
 13 15  1  0  0  0  0
 15 14  1  6  0  0  0
 15  1  1  0  0  0  0
 16 18  1  0  0  0  0
 16 11  1  0  0  0  0
 17 16  1  0  0  0  0
 19 20  1  0  0  0  0
 20 21  1  0  0  0  0
 21 30  1  0  0  0  0
 23 30  2  0  0  0  0
 23 28  1  0  0  0  0
 24 25  1  0  0  0  0
 24 32  1  0  0  0  0
 26 22  1  0  0  0  0
 26 25  2  0  0  0  0
 27 28  2  0  0  0  0
 27 29  1  0  0  0  0
 28 26  1  0  0  0  0
 29 24  2  0  0  0  0
 30 31  1  0  0  0  0
 31 22  1  0  0  0  0
 32 33  1  6  0  0  0
 32 34  1  0  0  0  0
M  END
>  <MODEL>
2

>  <REMARK>
 VINA RESULT:      -9.1      3.412      8.247
  Name = 
  6 active torsions:
  status: ('A' for Active; 'I' for Inactive)
    1  A    between atoms: C_1  and  C_9
    2  A    between atoms: C_3  and  N_25
    3  A    between atoms: C_7  and  C_11
    4  A    between atoms: O_8  and  C_9
    5  A    between atoms: O_8  and  C_18
    6  A    between atoms: C_18  and  C_30
                            x       y       z     vdW  Elec       q    Type
                         _______ _______ _______ _____ _____    ______ ____

>  <TORSDO>
F 6

$$$$
=
 OpenBabel10272415103D

 34 38  0  0  1  0  0  0  0  0999 V2000
  185.1970  177.8330  138.4800 C   0  0  2  0  0  3  0  0  0  0  0  0
  183.9820  176.7770  134.9850 C   0  0  0  0  0  2  0  0  0  0  0  0
  186.0590  177.8930  135.7180 C   0  0  0  0  0  2  0  0  0  0  0  0
  187.6010  178.0910  139.1690 C   0  0  0  0  0  3  0  0  0  0  0  0
  189.3680  178.2880  137.5230 C   0  0  0  0  0  3  0  0  0  0  0  0
  188.9560  178.2470  138.8590 C   0  0  0  0  0  3  0  0  0  0  0  0
  187.0730  178.0090  136.8050 C   0  0  0  0  0  0  0  0  0  0  0  0
  186.6570  177.9660  138.1450 C   0  0  0  0  0  0  0  0  0  0  0  0
  188.4260  178.1740  136.4960 C   0  0  0  0  0  3  0  0  0  0  0  0
  183.2740  175.4290  134.9470 C   0  0  0  0  0  2  0  0  0  0  0  0
  182.4660  175.2240  136.1500 N   0  0  0  0  0  0  0  0  0  0  0  0
  183.3860  174.6580  137.1360 C   0  0  0  0  0  2  0  0  0  0  0  0
  185.0480  176.8080  136.0700 C   0  0  1  0  0  3  0  0  0  0  0  0
  183.8910  175.7290  138.1050 C   0  0  0  0  0  2  0  0  0  0  0  0
  184.3740  177.0310  137.4480 C   0  0  1  0  0  3  0  0  0  0  0  0
  181.4480  174.2080  135.8440 C   0  0  0  0  0  3  0  0  0  0  0  0
  182.0630  172.9960  135.1600 C   0  0  0  0  0  1  0  0  0  0  0  0
  180.7620  173.7180  137.1110 C   0  0  0  0  0  1  0  0  0  0  0  0
  184.5650  179.1960  138.7470 C   0  0  0  0  0  2  0  0  0  0  0  0
  184.8010  179.6020  140.0660 O   0  0  0  0  0  0  0  0  0  0  0  0
  183.8780  178.8890  140.8350 C   0  0  0  0  0  2  0  0  0  0  0  0
  184.2180  179.2100  144.6590 C   0  0  0  0  0  2  0  0  0  0  0  0
  185.6320  178.2690  142.3710 N   0  0  0  0  0  0  0  0  0  0  0  0
  187.3220  177.6470  146.2030 C   0  0  0  0  0  0  0  0  0  0  0  0
  186.0750  178.2770  146.0780 C   0  0  0  0  0  3  0  0  0  0  0  0
  185.5060  178.4610  144.8140 C   0  0  0  0  0  0  0  0  0  0  0  0
  187.4500  177.4320  143.7890 C   0  0  0  0  0  3  0  0  0  0  0  0
  186.2000  178.0440  143.6660 C   0  0  0  0  0  0  0  0  0  0  0  0
  188.0080  177.2320  145.0550 C   0  0  0  0  0  3  0  0  0  0  0  0
  184.4090  178.6770  142.2140 C   0  0  0  0  0  0  0  0  0  0  0  0
  183.4750  178.7780  143.3920 C   0  0  0  0  0  2  0  0  0  0  0  0
  187.9420  177.4140  147.5430 C   0  0  1  0  0  3  0  0  0  0  0  0
  189.4070  177.0390  147.4040 C   0  0  0  0  0  1  0  0  0  0  0  0
  187.8130  178.5520  148.3450 O   0  0  0  0  0  1  0  0  0  0  0  0
  1 19  1  6  0  0  0
  3 13  1  0  0  0  0
  3  7  1  0  0  0  0
  5  6  2  0  0  0  0
  6  4  1  0  0  0  0
  7  8  1  0  0  0  0
  8  1  1  0  0  0  0
  8  4  2  0  0  0  0
  9  7  2  0  0  0  0
  9  5  1  0  0  0  0
 10  2  1  0  0  0  0
 10 11  1  0  0  0  0
 11 12  1  0  0  0  0
 12 14  1  0  0  0  0
 13  2  1  6  0  0  0
 13 15  1  0  0  0  0
 15 14  1  1  0  0  0
 15  1  1  0  0  0  0
 16 11  1  0  0  0  0
 16 18  1  0  0  0  0
 17 16  1  0  0  0  0
 19 20  1  0  0  0  0
 20 21  1  0  0  0  0
 21 30  1  0  0  0  0
 22 26  1  0  0  0  0
 23 28  1  0  0  0  0
 24 32  1  0  0  0  0
 25 24  1  0  0  0  0
 26 25  2  0  0  0  0
 27 29  1  0  0  0  0
 28 27  2  0  0  0  0
 28 26  1  0  0  0  0
 29 24  2  0  0  0  0
 30 23  2  0  0  0  0
 30 31  1  0  0  0  0
 31 22  1  0  0  0  0
 32 33  1  6  0  0  0
 32 34  1  0  0  0  0
M  END
>  <MODEL>
3

>  <REMARK>
 VINA RESULT:      -9.0      3.799      9.317
  Name = 
  6 active torsions:
  status: ('A' for Active; 'I' for Inactive)
    1  A    between atoms: C_1  and  C_9
    2  A    between atoms: C_3  and  N_25
    3  A    between atoms: C_7  and  C_11
    4  A    between atoms: O_8  and  C_9
    5  A    between atoms: O_8  and  C_18
    6  A    between atoms: C_18  and  C_30
                            x       y       z     vdW  Elec       q    Type
                         _______ _______ _______ _____ _____    ______ ____

>  <TORSDO>
F 6

$$$$
=
 OpenBabel10272415103D

 34 38  0  0  1  0  0  0  0  0999 V2000
  185.5170  178.1840  142.3700 C   0  0  2  0  0  3  0  0  0  0  0  0
  185.6540  179.5310  145.9710 C   0  0  0  0  0  2  0  0  0  0  0  0
  183.8880  179.6630  144.2500 C   0  0  0  0  0  2  0  0  0  0  0  0
  183.4190  177.5960  141.1130 C   0  0  0  0  0  3  0  0  0  0  0  0
  181.2520  178.3970  141.8400 C   0  0  0  0  0  3  0  0  0  0  0  0
  182.0340  177.6710  140.9360 C   0  0  0  0  0  3  0  0  0  0  0  0
  183.2360  178.9660  143.1040 C   0  0  0  0  0  0  0  0  0  0  0  0
  184.0230  178.2380  142.1990 C   0  0  0  0  0  0  0  0  0  0  0  0
  181.8520  179.0490  142.9210 C   0  0  0  0  0  3  0  0  0  0  0  0
  186.3100  178.5870  146.9690 C   0  0  0  0  0  2  0  0  0  0  0  0
  187.4320  177.8720  146.3600 N   0  0  0  0  0  0  0  0  0  0  0  0
  186.8360  176.7010  145.7190 C   0  0  0  0  0  2  0  0  0  0  0  0
  184.9500  178.7580  144.8650 C   0  0  1  0  0  3  0  0  0  0  0  0
  186.6420  176.9250  144.2190 C   0  0  0  0  0  2  0  0  0  0  0  0
  185.9980  178.2650  143.8350 C   0  0  1  0  0  3  0  0  0  0  0  0
  188.3100  177.4000  147.4410 C   0  0  0  0  0  3  0  0  0  0  0  0
  188.9520  178.5650  148.1810 C   0  0  0  0  0  1  0  0  0  0  0  0
  187.5320  176.5830  148.4630 C   0  0  0  0  0  1  0  0  0  0  0  0
  186.2090  179.2340  141.5050 C   0  0  0  0  0  2  0  0  0  0  0  0
  186.8270  178.6370  140.3990 O   0  0  0  0  0  0  0  0  0  0  0  0
  188.1460  179.0950  140.4300 C   0  0  0  0  0  2  0  0  0  0  0  0
  189.7180  175.9650  142.0350 C   0  0  0  0  0  2  0  0  0  0  0  0
  189.2870  178.7400  142.5250 N   0  0  0  0  0  0  0  0  0  0  0  0
  191.5630  176.5120  145.3150 C   0  0  0  0  0  0  0  0  0  0  0  0
  191.0640  175.8920  144.1600 C   0  0  0  0  0  3  0  0  0  0  0  0
  190.3330  176.6330  143.2280 C   0  0  0  0  0  0  0  0  0  0  0  0
  190.5520  178.6070  144.6220 C   0  0  0  0  0  3  0  0  0  0  0  0
  190.0700  177.9930  143.4640 C   0  0  0  0  0  0  0  0  0  0  0  0
  191.2990  177.8680  145.5440 C   0  0  0  0  0  3  0  0  0  0  0  0
  188.9610  178.2620  141.3620 C   0  0  0  0  0  0  0  0  0  0  0  0
  189.5340  176.9530  140.8810 C   0  0  0  0  0  2  0  0  0  0  0  0
  192.3700  175.7510  146.3170 C   0  0  1  0  0  3  0  0  0  0  0  0
  191.6920  175.7550  147.6750 C   0  0  0  0  0  1  0  0  0  0  0  0
  192.5700  174.4360  145.8850 O   0  0  0  0  0  1  0  0  0  0  0  0
  1 19  1  6  0  0  0
  1 15  1  0  0  0  0
  2 10  1  0  0  0  0
  4  8  1  0  0  0  0
  5  9  2  0  0  0  0
  6  4  2  0  0  0  0
  6  5  1  0  0  0  0
  7  3  1  0  0  0  0
  8  1  1  0  0  0  0
  8  7  2  0  0  0  0
  9  7  1  0  0  0  0
 11 10  1  0  0  0  0
 11 16  1  0  0  0  0
 12 11  1  0  0  0  0
 13  3  1  6  0  0  0
 13  2  1  0  0  0  0
 14 12  1  0  0  0  0
 15 14  1  1  0  0  0
 15 13  1  0  0  0  0
 16 17  1  0  0  0  0
 16 18  1  0  0  0  0
 20 21  1  0  0  0  0
 20 19  1  0  0  0  0
 21 30  1  0  0  0  0
 22 26  1  0  0  0  0
 23 28  1  0  0  0  0
 24 29  1  0  0  0  0
 24 32  1  0  0  0  0
 25 24  2  0  0  0  0
 26 28  2  0  0  0  0
 26 25  1  0  0  0  0
 27 29  2  0  0  0  0
 28 27  1  0  0  0  0
 30 23  2  0  0  0  0
 31 30  1  0  0  0  0
 31 22  1  0  0  0  0
 32 33  1  1  0  0  0
 34 32  1  0  0  0  0
M  END
>  <MODEL>
4

>  <REMARK>
 VINA RESULT:      -8.8      2.964      4.511
  Name = 
  6 active torsions:
  status: ('A' for Active; 'I' for Inactive)
    1  A    between atoms: C_1  and  C_9
    2  A    between atoms: C_3  and  N_25
    3  A    between atoms: C_7  and  C_11
    4  A    between atoms: O_8  and  C_9
    5  A    between atoms: O_8  and  C_18
    6  A    between atoms: C_18  and  C_30
                            x       y       z     vdW  Elec       q    Type
                         _______ _______ _______ _____ _____    ______ ____

>  <TORSDO>
F 6

$$$$
=
 OpenBabel10272415103D

 34 38  0  0  1  0  0  0  0  0999 V2000
  190.3890  176.9310  138.0550 C   0  0  2  0  0  3  0  0  0  0  0  0
  191.3550  173.4860  136.6390 C   0  0  0  0  0  2  0  0  0  0  0  0
  189.3110  174.8440  136.3650 C   0  0  0  0  0  2  0  0  0  0  0  0
  188.7650  178.5360  137.0010 C   0  0  0  0  0  3  0  0  0  0  0  0
  187.1940  177.8050  135.3080 C   0  0  0  0  0  3  0  0  0  0  0  0
  187.7210  178.8190  136.1150 C   0  0  0  0  0  3  0  0  0  0  0  0
  188.7590  176.2260  136.2670 C   0  0  0  0  0  0  0  0  0  0  0  0
  189.2900  177.2410  137.0770 C   0  0  0  0  0  0  0  0  0  0  0  0
  187.7090  176.5070  135.3880 C   0  0  0  0  0  3  0  0  0  0  0  0
  192.8080  173.3740  136.1990 C   0  0  0  0  0  2  0  0  0  0  0  0
  193.6900  174.1260  137.0920 N   0  0  0  0  0  0  0  0  0  0  0  0
  193.6880  175.4920  136.5700 C   0  0  0  0  0  2  0  0  0  0  0  0
  190.8320  174.9030  136.4520 C   0  0  1  0  0  3  0  0  0  0  0  0
  192.7330  176.3880  137.3590 C   0  0  0  0  0  2  0  0  0  0  0  0
  191.3390  175.7960  137.6130 C   0  0  1  0  0  3  0  0  0  0  0  0
  195.0500  173.5860  136.9470 C   0  0  0  0  0  3  0  0  0  0  0  0
  196.0470  174.6820  136.5990 C   0  0  0  0  0  1  0  0  0  0  0  0
  195.5220  172.9320  138.2370 C   0  0  0  0  0  1  0  0  0  0  0  0
  189.8280  176.6660  139.4500 C   0  0  0  0  0  2  0  0  0  0  0  0
  190.8340  176.2090  140.3100 O   0  0  0  0  0  0  0  0  0  0  0  0
  191.3540  177.3600  140.9060 C   0  0  0  0  0  2  0  0  0  0  0  0
  191.2470  177.5030  144.7540 C   0  0  0  0  0  2  0  0  0  0  0  0
  189.5290  177.3710  142.4830 N   0  0  0  0  0  0  0  0  0  0  0  0
  187.7940  177.7570  146.3260 C   0  0  0  0  0  0  0  0  0  0  0  0
  189.1900  177.7280  146.1850 C   0  0  0  0  0  3  0  0  0  0  0  0
  189.7620  177.6240  144.9140 C   0  0  0  0  0  0  0  0  0  0  0  0
  187.5500  177.5280  143.9220 C   0  0  0  0  0  3  0  0  0  0  0  0
  188.9390  177.5160  143.7800 C   0  0  0  0  0  0  0  0  0  0  0  0
  186.9790  177.6510  145.1930 C   0  0  0  0  0  3  0  0  0  0  0  0
  190.8040  177.5220  142.2840 C   0  0  0  0  0  0  0  0  0  0  0  0
  191.7010  178.0200  143.3870 C   0  0  0  0  0  2  0  0  0  0  0  0
  187.1540  177.8930  147.6700 C   0  0  1  0  0  3  0  0  0  0  0  0
  188.1990  178.1000  148.7500 C   0  0  0  0  0  1  0  0  0  0  0  0
  186.2460  178.9570  147.6720 O   0  0  0  0  0  1  0  0  0  0  0  0
  1 19  1  1  0  0  0
  4  8  1  0  0  0  0
  5  9  2  0  0  0  0
  5  6  1  0  0  0  0
  6  4  2  0  0  0  0
  7  3  1  0  0  0  0
  7  8  2  0  0  0  0
  8  1  1  0  0  0  0
  9  7  1  0  0  0  0
 10  2  1  0  0  0  0
 10 11  1  0  0  0  0
 12 11  1  0  0  0  0
 12 14  1  0  0  0  0
 13  3  1  1  0  0  0
 13  2  1  0  0  0  0
 13 15  1  0  0  0  0
 15 14  1  6  0  0  0
 15  1  1  0  0  0  0
 16 11  1  0  0  0  0
 16 18  1  0  0  0  0
 17 16  1  0  0  0  0
 19 20  1  0  0  0  0
 20 21  1  0  0  0  0
 21 30  1  0  0  0  0
 22 26  1  0  0  0  0
 23 28  1  0  0  0  0
 24 32  1  0  0  0  0
 25 24  1  0  0  0  0
 26 25  2  0  0  0  0
 27 29  1  0  0  0  0
 28 27  2  0  0  0  0
 28 26  1  0  0  0  0
 29 24  2  0  0  0  0
 30 23  2  0  0  0  0
 30 31  1  0  0  0  0
 31 22  1  0  0  0  0
 32 34  1  0  0  0  0
 32 33  1  1  0  0  0
M  END
>  <MODEL>
5

>  <REMARK>
 VINA RESULT:      -8.7      3.203      9.714
  Name = 
  6 active torsions:
  status: ('A' for Active; 'I' for Inactive)
    1  A    between atoms: C_1  and  C_9
    2  A    between atoms: C_3  and  N_25
    3  A    between atoms: C_7  and  C_11
    4  A    between atoms: O_8  and  C_9
    5  A    between atoms: O_8  and  C_18
    6  A    between atoms: C_18  and  C_30
                            x       y       z     vdW  Elec       q    Type
                         _______ _______ _______ _____ _____    ______ ____

>  <TORSDO>
F 6

$$$$
=
 OpenBabel10272415103D

 34 38  0  0  1  0  0  0  0  0999 V2000
  182.7990  178.9200  139.0020 C   0  0  2  0  0  3  0  0  0  0  0  0
  182.3180  175.8320  136.7570 C   0  0  0  0  0  2  0  0  0  0  0  0
  181.0000  177.9090  136.9730 C   0  0  0  0  0  2  0  0  0  0  0  0
  181.9770  181.2400  138.4830 C   0  0  0  0  0  3  0  0  0  0  0  0
  180.2740  181.6250  136.8040 C   0  0  0  0  0  3  0  0  0  0  0  0
  181.1510  182.1180  137.7750 C   0  0  0  0  0  3  0  0  0  0  0  0
  181.0530  179.3750  137.2410 C   0  0  0  0  0  0  0  0  0  0  0  0
  181.9350  179.8670  138.2160 C   0  0  0  0  0  0  0  0  0  0  0  0
  180.2210  180.2520  136.5400 C   0  0  0  0  0  3  0  0  0  0  0  0
  183.6100  175.2660  136.1840 C   0  0  0  0  0  2  0  0  0  0  0  0
  184.7050  175.3670  137.1500 N   0  0  0  0  0  0  0  0  0  0  0  0
  185.2620  176.7050  136.9570 C   0  0  0  0  0  2  0  0  0  0  0  0
  182.4140  177.3390  136.9450 C   0  0  1  0  0  3  0  0  0  0  0  0
  184.7360  177.6840  138.0080 C   0  0  0  0  0  2  0  0  0  0  0  0
  183.2180  177.6470  138.2340 C   0  0  1  0  0  3  0  0  0  0  0  0
  185.7340  174.3870  136.7720 C   0  0  0  0  0  3  0  0  0  0  0  0
  187.1330  174.9610  136.9400 C   0  0  0  0  0  1  0  0  0  0  0  0
  185.6460  173.1370  137.6340 C   0  0  0  0  0  1  0  0  0  0  0  0
  182.1550  178.5670  140.3400 C   0  0  0  0  0  2  0  0  0  0  0  0
  182.5900  179.4410  141.3450 O   0  0  0  0  0  0  0  0  0  0  0  0
  182.4630  178.7180  142.5330 C   0  0  0  0  0  2  0  0  0  0  0  0
  186.1760  177.7790  142.9530 C   0  0  0  0  0  2  0  0  0  0  0  0
  183.8780  178.5020  144.4750 N   0  0  0  0  0  0  0  0  0  0  0  0
  187.5700  177.9920  146.4840 C   0  0  0  0  0  0  0  0  0  0  0  0
  187.5000  177.8360  145.0910 C   0  0  0  0  0  3  0  0  0  0  0  0
  186.2860  178.0280  144.4260 C   0  0  0  0  0  0  0  0  0  0  0  0
  185.1940  178.4830  146.5440 C   0  0  0  0  0  3  0  0  0  0  0  0
  185.1280  178.3450  145.1560 C   0  0  0  0  0  0  0  0  0  0  0  0
  186.4130  178.3090  147.2060 C   0  0  0  0  0  3  0  0  0  0  0  0
  183.7980  178.5490  143.1790 C   0  0  0  0  0  0  0  0  0  0  0  0
  185.0440  178.6030  142.3340 C   0  0  0  0  0  2  0  0  0  0  0  0
  188.8600  177.8180  147.2200 C   0  0  1  0  0  3  0  0  0  0  0  0
  188.7150  178.2320  148.6730 C   0  0  0  0  0  1  0  0  0  0  0  0
  189.2920  176.4910  147.1400 O   0  0  0  0  0  1  0  0  0  0  0  0
  1 19  1  1  0  0  0
  3  7  1  0  0  0  0
  5  6  1  0  0  0  0
  6  4  2  0  0  0  0
  7  8  2  0  0  0  0
  8  4  1  0  0  0  0
  8  1  1  0  0  0  0
  9  5  2  0  0  0  0
  9  7  1  0  0  0  0
 10  2  1  0  0  0  0
 10 11  1  0  0  0  0
 12 11  1  0  0  0  0
 12 14  1  0  0  0  0
 13  2  1  1  0  0  0
 13  3  1  0  0  0  0
 13 15  1  0  0  0  0
 15 14  1  6  0  0  0
 15  1  1  0  0  0  0
 16 17  1  0  0  0  0
 16 11  1  0  0  0  0
 16 18  1  0  0  0  0
 19 20  1  0  0  0  0
 20 21  1  0  0  0  0
 21 30  1  0  0  0  0
 22 26  1  0  0  0  0
 23 28  1  0  0  0  0
 24 29  1  0  0  0  0
 24 32  1  0  0  0  0
 25 24  2  0  0  0  0
 26 25  1  0  0  0  0
 26 28  2  0  0  0  0
 27 29  2  0  0  0  0
 28 27  1  0  0  0  0
 30 23  2  0  0  0  0
 31 22  1  0  0  0  0
 31 30  1  0  0  0  0
 32 33  1  1  0  0  0
 34 32  1  0  0  0  0
M  END
>  <MODEL>
6

>  <REMARK>
 VINA RESULT:      -8.4      3.994      8.675
  Name = 
  6 active torsions:
  status: ('A' for Active; 'I' for Inactive)
    1  A    between atoms: C_1  and  C_9
    2  A    between atoms: C_3  and  N_25
    3  A    between atoms: C_7  and  C_11
    4  A    between atoms: O_8  and  C_9
    5  A    between atoms: O_8  and  C_18
    6  A    between atoms: C_18  and  C_30
                            x       y       z     vdW  Elec       q    Type
                         _______ _______ _______ _____ _____    ______ ____

>  <TORSDO>
F 6

$$$$
=
 OpenBabel10272415103D

 34 38  0  0  1  0  0  0  0  0999 V2000
  189.6430  175.7990  137.7020 C   0  0  2  0  0  3  0  0  0  0  0  0
  187.3560  177.7290  135.2850 C   0  0  0  0  0  2  0  0  0  0  0  0
  189.7540  177.1600  135.1500 C   0  0  0  0  0  2  0  0  0  0  0  0
  191.7210  174.5410  137.0490 C   0  0  0  0  0  3  0  0  0  0  0  0
  192.8140  174.9350  134.9230 C   0  0  0  0  0  3  0  0  0  0  0  0
  192.7570  174.2660  136.1500 C   0  0  0  0  0  3  0  0  0  0  0  0
  190.7970  176.1490  135.4890 C   0  0  0  0  0  0  0  0  0  0  0  0
  190.7370  175.4790  136.7200 C   0  0  0  0  0  0  0  0  0  0  0  0
  191.8370  175.8810  134.5940 C   0  0  0  0  0  3  0  0  0  0  0  0
  185.9570  177.1440  135.1420 C   0  0  0  0  0  2  0  0  0  0  0  0
  185.4750  176.6120  136.4180 N   0  0  0  0  0  0  0  0  0  0  0  0
  185.9880  175.2450  136.4800 C   0  0  0  0  0  2  0  0  0  0  0  0
  188.3820  176.6410  135.5620 C   0  0  1  0  0  3  0  0  0  0  0  0
  187.2480  175.1620  137.3430 C   0  0  0  0  0  2  0  0  0  0  0  0
  188.3090  176.2340  137.0570 C   0  0  1  0  0  3  0  0  0  0  0  0
  184.0070  176.5440  136.3540 C   0  0  0  0  0  3  0  0  0  0  0  0
  183.3650  177.6500  137.1780 C   0  0  0  0  0  1  0  0  0  0  0  0
  183.5120  176.6950  134.9230 C   0  0  0  0  0  1  0  0  0  0  0  0
  190.1120  176.8180  138.7370 C   0  0  0  0  0  2  0  0  0  0  0  0
  190.4220  176.1870  139.9480 O   0  0  0  0  0  0  0  0  0  0  0  0
  191.2280  177.0980  140.6360 C   0  0  0  0  0  2  0  0  0  0  0  0
  191.2020  177.4320  144.4740 C   0  0  0  0  0  2  0  0  0  0  0  0
  189.4400  177.1270  142.2540 N   0  0  0  0  0  0  0  0  0  0  0  0
  187.7780  177.6490  146.1140 C   0  0  0  0  0  0  0  0  0  0  0  0
  189.1710  177.6600  145.9400 C   0  0  0  0  0  3  0  0  0  0  0  0
  189.7180  177.5110  144.6630 C   0  0  0  0  0  0  0  0  0  0  0  0
  187.4890  177.2900  143.7310 C   0  0  0  0  0  3  0  0  0  0  0  0
  188.8740  177.3180  143.5560 C   0  0  0  0  0  0  0  0  0  0  0  0
  186.9420  177.4580  145.0070 C   0  0  0  0  0  3  0  0  0  0  0  0
  190.7040  177.3110  142.0170 C   0  0  0  0  0  0  0  0  0  0  0  0
  191.6080  177.8940  143.0720 C   0  0  0  0  0  2  0  0  0  0  0  0
  187.1640  177.8310  147.4640 C   0  0  1  0  0  3  0  0  0  0  0  0
  188.2330  178.0230  148.5250 C   0  0  0  0  0  1  0  0  0  0  0  0
  186.2920  178.9240  147.4600 O   0  0  0  0  0  1  0  0  0  0  0  0
  1 19  1  1  0  0  0
  2 13  1  0  0  0  0
  3  7  1  0  0  0  0
  5  6  1  0  0  0  0
  6  4  2  0  0  0  0
  7  8  2  0  0  0  0
  8  4  1  0  0  0  0
  8  1  1  0  0  0  0
  9  5  2  0  0  0  0
  9  7  1  0  0  0  0
 10  2  1  0  0  0  0
 10 11  1  0  0  0  0
 11 12  1  0  0  0  0
 12 14  1  0  0  0  0
 13  3  1  1  0  0  0
 13 15  1  0  0  0  0
 15 14  1  6  0  0  0
 15  1  1  0  0  0  0
 16 11  1  0  0  0  0
 16 17  1  0  0  0  0
 18 16  1  0  0  0  0
 19 20  1  0  0  0  0
 20 21  1  0  0  0  0
 21 30  1  0  0  0  0
 22 26  1  0  0  0  0
 23 28  1  0  0  0  0
 24 32  1  0  0  0  0
 25 24  1  0  0  0  0
 26 25  2  0  0  0  0
 27 29  1  0  0  0  0
 28 27  2  0  0  0  0
 28 26  1  0  0  0  0
 29 24  2  0  0  0  0
 30 23  2  0  0  0  0
 30 31  1  0  0  0  0
 31 22  1  0  0  0  0
 32 33  1  1  0  0  0
 34 32  1  0  0  0  0
M  END
>  <MODEL>
7

>  <REMARK>
 VINA RESULT:      -8.3      3.007      9.897
  Name = 
  6 active torsions:
  status: ('A' for Active; 'I' for Inactive)
    1  A    between atoms: C_1  and  C_9
    2  A    between atoms: C_3  and  N_25
    3  A    between atoms: C_7  and  C_11
    4  A    between atoms: O_8  and  C_9
    5  A    between atoms: O_8  and  C_18
    6  A    between atoms: C_18  and  C_30
                            x       y       z     vdW  Elec       q    Type
                         _______ _______ _______ _____ _____    ______ ____

>  <TORSDO>
F 6

$$$$
=
 OpenBabel10272415103D

 34 38  0  0  1  0  0  0  0  0999 V2000
  183.6580  178.8580  139.0010 C   0  0  2  0  0  3  0  0  0  0  0  0
  182.0210  175.4130  138.4950 C   0  0  0  0  0  2  0  0  0  0  0  0
  181.0360  177.6360  138.9260 C   0  0  0  0  0  2  0  0  0  0  0  0
  182.5690  181.0730  138.5190 C   0  0  0  0  0  3  0  0  0  0  0  0
  180.1680  181.2650  138.2650 C   0  0  0  0  0  3  0  0  0  0  0  0
  181.4350  181.8570  138.2880 C   0  0  0  0  0  3  0  0  0  0  0  0
  181.1680  179.1030  138.6960 C   0  0  0  0  0  0  0  0  0  0  0  0
  182.4410  179.6950  138.7190 C   0  0  0  0  0  0  0  0  0  0  0  0
  180.0330  179.8890  138.4740 C   0  0  0  0  0  3  0  0  0  0  0  0
  182.6720  174.5610  137.4140 C   0  0  0  0  0  2  0  0  0  0  0  0
  184.1250  174.7450  137.4020 N   0  0  0  0  0  0  0  0  0  0  0  0
  184.3540  175.9120  136.5510 C   0  0  0  0  0  2  0  0  0  0  0  0
  182.1310  176.8950  138.1680 C   0  0  1  0  0  3  0  0  0  0  0  0
  184.5710  177.1750  137.3870 C   0  0  0  0  0  2  0  0  0  0  0  0
  183.5560  177.3940  138.5180 C   0  0  1  0  0  3  0  0  0  0  0  0
  184.7230  173.5770  136.7400 C   0  0  0  0  0  3  0  0  0  0  0  0
  184.9450  173.8330  135.2570 C   0  0  0  0  0  1  0  0  0  0  0  0
  186.0740  173.2320  137.3510 C   0  0  0  0  0  1  0  0  0  0  0  0
  184.0430  178.9240  140.4770 C   0  0  0  0  0  2  0  0  0  0  0  0
  185.2920  179.5380  140.6360 O   0  0  0  0  0  0  0  0  0  0  0  0
  186.2260  178.5230  140.4120 C   0  0  0  0  0  2  0  0  0  0  0  0
  189.1600  177.4400  142.6610 C   0  0  0  0  0  2  0  0  0  0  0  0
  186.3950  178.1210  142.7840 N   0  0  0  0  0  0  0  0  0  0  0  0
  188.4620  177.3490  146.3980 C   0  0  0  0  0  0  0  0  0  0  0  0
  189.1450  177.2980  145.1730 C   0  0  0  0  0  3  0  0  0  0  0  0
  188.4670  177.5770  143.9820 C   0  0  0  0  0  0  0  0  0  0  0  0
  186.4110  177.9080  145.2270 C   0  0  0  0  0  3  0  0  0  0  0  0
  187.0950  177.8750  144.0090 C   0  0  0  0  0  0  0  0  0  0  0  0
  187.0940  177.6480  146.4190 C   0  0  0  0  0  3  0  0  0  0  0  0
  187.0150  178.2650  141.6520 C   0  0  0  0  0  0  0  0  0  0  0  0
  188.5190  178.3430  141.6030 C   0  0  0  0  0  2  0  0  0  0  0  0
  189.1660  177.0810  147.6890 C   0  0  1  0  0  3  0  0  0  0  0  0
  190.6600  176.9240  147.4700 C   0  0  0  0  0  1  0  0  0  0  0  0
  188.9210  178.1130  148.6000 O   0  0  0  0  0  1  0  0  0  0  0  0
  1 19  1  1  0  0  0
  4  8  1  0  0  0  0
  5  6  1  0  0  0  0
  5  9  2  0  0  0  0
  6  4  2  0  0  0  0
  7  8  2  0  0  0  0
  7  3  1  0  0  0  0
  8  1  1  0  0  0  0
  9  7  1  0  0  0  0
 10  2  1  0  0  0  0
 11 10  1  0  0  0  0
 12 14  1  0  0  0  0
 12 11  1  0  0  0  0
 13  2  1  1  0  0  0
 13 15  1  0  0  0  0
 13  3  1  0  0  0  0
 15 14  1  6  0  0  0
 15  1  1  0  0  0  0
 16 18  1  0  0  0  0
 16 11  1  0  0  0  0
 17 16  1  0  0  0  0
 19 20  1  0  0  0  0
 21 20  1  0  0  0  0
 21 30  1  0  0  0  0
 22 26  1  0  0  0  0
 23 28  1  0  0  0  0
 24 29  1  0  0  0  0
 24 32  1  0  0  0  0
 25 24  2  0  0  0  0
 26 28  2  0  0  0  0
 26 25  1  0  0  0  0
 27 29  2  0  0  0  0
 28 27  1  0  0  0  0
 30 23  2  0  0  0  0
 31 30  1  0  0  0  0
 31 22  1  0  0  0  0
 32 33  1  6  0  0  0
 32 34  1  0  0  0  0
M  END
>  <MODEL>
8

>  <REMARK>
 VINA RESULT:      -8.3      4.032      8.075
  Name = 
  6 active torsions:
  status: ('A' for Active; 'I' for Inactive)
    1  A    between atoms: C_1  and  C_9
    2  A    between atoms: C_3  and  N_25
    3  A    between atoms: C_7  and  C_11
    4  A    between atoms: O_8  and  C_9
    5  A    between atoms: O_8  and  C_18
    6  A    between atoms: C_18  and  C_30
                            x       y       z     vdW  Elec       q    Type
                         _______ _______ _______ _____ _____    ______ ____

>  <TORSDO>
F 6

$$$$
=
 OpenBabel10272415103D

 34 38  0  0  1  0  0  0  0  0999 V2000
  181.2020  180.4810  138.4740 C   0  0  2  0  0  3  0  0  0  0  0  0
  180.4830  177.8750  135.7360 C   0  0  0  0  0  2  0  0  0  0  0  0
  180.0990  180.3130  135.8040 C   0  0  0  0  0  2  0  0  0  0  0  0
  181.6130  182.9300  138.0810 C   0  0  0  0  0  3  0  0  0  0  0  0
  180.9920  183.9910  135.9940 C   0  0  0  0  0  3  0  0  0  0  0  0
  181.5380  184.0730  137.2790 C   0  0  0  0  0  3  0  0  0  0  0  0
  180.6050  181.6220  136.3080 C   0  0  0  0  0  0  0  0  0  0  0  0
  181.1520  181.7020  137.5970 C   0  0  0  0  0  0  0  0  0  0  0  0
  180.5200  182.7670  135.5100 C   0  0  0  0  0  3  0  0  0  0  0  0
  181.5680  176.8200  135.5740 C   0  0  0  0  0  2  0  0  0  0  0  0
  182.1470  176.4540  136.8680 N   0  0  0  0  0  0  0  0  0  0  0  0
  183.2040  177.4350  137.1040 C   0  0  0  0  0  2  0  0  0  0  0  0
  181.0720  179.2040  136.1870 C   0  0  1  0  0  3  0  0  0  0  0  0
  182.7330  178.5460  138.0440 C   0  0  0  0  0  2  0  0  0  0  0  0
  181.3610  179.1480  137.7090 C   0  0  1  0  0  3  0  0  0  0  0  0
  182.7760  175.1330  136.7250 C   0  0  0  0  0  3  0  0  0  0  0  0
  183.8760  174.9290  137.7560 C   0  0  0  0  0  1  0  0  0  0  0  0
  181.7600  174.0160  136.9160 C   0  0  0  0  0  1  0  0  0  0  0  0
  180.0060  180.4320  139.4210 C   0  0  0  0  0  2  0  0  0  0  0  0
  180.4130  180.6430  140.7440 O   0  0  0  0  0  0  0  0  0  0  0  0
  180.2360  179.4120  141.3790 C   0  0  0  0  0  2  0  0  0  0  0  0
  182.4760  179.0950  144.4980 C   0  0  0  0  0  2  0  0  0  0  0  0
  182.5920  178.9690  141.6530 N   0  0  0  0  0  0  0  0  0  0  0  0
  186.0880  178.0860  143.8720 C   0  0  0  0  0  0  0  0  0  0  0  0
  184.8940  178.4020  144.5370 C   0  0  0  0  0  3  0  0  0  0  0  0
  183.7340  178.6700  143.8050 C   0  0  0  0  0  0  0  0  0  0  0  0
  184.9650  178.3580  141.7380 C   0  0  0  0  0  3  0  0  0  0  0  0
  183.7720  178.6560  142.4010 C   0  0  0  0  0  0  0  0  0  0  0  0
  186.1200  178.0720  142.4720 C   0  0  0  0  0  3  0  0  0  0  0  0
  181.4270  179.0870  142.2180 C   0  0  0  0  0  0  0  0  0  0  0  0
  181.2390  178.7360  143.6710 C   0  0  0  0  0  2  0  0  0  0  0  0
  187.3370  177.7700  144.6290 C   0  0  1  0  0  3  0  0  0  0  0  0
  187.0480  177.6090  146.1100 C   0  0  0  0  0  1  0  0  0  0  0  0
  187.9300  176.6070  144.1280 O   0  0  0  0  0  1  0  0  0  0  0  0
  1 19  1  6  0  0  0
  3 13  1  0  0  0  0
  3  7  1  0  0  0  0
  5  6  1  0  0  0  0
  6  4  2  0  0  0  0
  7  8  2  0  0  0  0
  8  4  1  0  0  0  0
  8  1  1  0  0  0  0
  9  5  2  0  0  0  0
  9  7  1  0  0  0  0
 10  2  1  0  0  0  0
 10 11  1  0  0  0  0
 11 12  1  0  0  0  0
 12 14  1  0  0  0  0
 13  2  1  1  0  0  0
 13 15  1  0  0  0  0
 15 14  1  6  0  0  0
 15  1  1  0  0  0  0
 16 11  1  0  0  0  0
 16 18  1  0  0  0  0
 16 17  1  0  0  0  0
 19 20  1  0  0  0  0
 20 21  1  0  0  0  0
 21 30  1  0  0  0  0
 23 30  2  0  0  0  0
 23 28  1  0  0  0  0
 24 25  1  0  0  0  0
 24 32  1  0  0  0  0
 26 22  1  0  0  0  0
 26 25  2  0  0  0  0
 27 28  2  0  0  0  0
 27 29  1  0  0  0  0
 28 26  1  0  0  0  0
 29 24  2  0  0  0  0
 30 31  1  0  0  0  0
 31 22  1  0  0  0  0
 32 33  1  1  0  0  0
 34 32  1  0  0  0  0
M  END
>  <MODEL>
9

>  <REMARK>
 VINA RESULT:      -8.2      5.043      9.290
  Name = 
  6 active torsions:
  status: ('A' for Active; 'I' for Inactive)
    1  A    between atoms: C_1  and  C_9
    2  A    between atoms: C_3  and  N_25
    3  A    between atoms: C_7  and  C_11
    4  A    between atoms: O_8  and  C_9
    5  A    between atoms: O_8  and  C_18
    6  A    between atoms: C_18  and  C_30
                            x       y       z     vdW  Elec       q    Type
                         _______ _______ _______ _____ _____    ______ ____

>  <TORSDO>
F 6

$$$$
