=
 OpenBabel10272414363D

 43 48  0  0  1  0  0  0  0  0999 V2000
  186.2610  178.5240  137.8430 N   0  0  0  0  0  0  0  0  0  0  0  0
  184.3760  178.8100  144.9820 C   0  0  0  0  0  0  0  0  0  0  0  0
  187.7460  178.4060  137.6950 C   0  0  2  0  0  3  0  0  0  0  0  0
  186.9860  178.4010  136.5430 C   0  0  0  0  0  2  0  0  0  0  0  0
  182.7910  178.7070  140.1990 C   0  0  0  0  0  0  0  0  0  0  0  0
  185.0840  178.6150  138.6330 C   0  0  0  0  0  0  0  0  0  0  0  0
  183.0230  178.7770  142.9760 C   0  0  0  0  0  0  0  0  0  0  0  0
  185.5350  178.7920  144.2070 C   0  0  0  0  0  3  0  0  0  0  0  0
  184.4710  178.8190  146.3230 F   0  0  0  0  0  0  0  0  0  0  0  0
  184.1950  178.7490  142.1860 C   0  0  0  0  0  0  0  0  0  0  0  0
  183.1210  178.8060  144.3680 C   0  0  0  0  0  3  0  0  0  0  0  0
  185.4470  178.7630  142.8160 C   0  0  0  0  0  3  0  0  0  0  0  0
  185.1780  178.6620  139.9900 N   0  0  0  0  0  0  0  0  0  0  0  0
  184.0750  178.7080  140.7880 C   0  0  0  0  0  0  0  0  0  0  0  0
  181.6640  178.7430  141.0270 C   0  0  0  0  0  3  0  0  0  0  0  0
  182.6770  178.6730  138.7980 C   0  0  0  0  0  0  0  0  0  0  0  0
  183.8330  178.6200  138.0160 C   0  0  0  0  0  3  0  0  0  0  0  0
  181.8010  178.7750  142.3790 N   0  0  0  0  0  0  0  0  0  0  0  0
  181.3430  178.6640  138.1170 C   0  0  0  0  0  2  0  0  0  0  0  0
  180.6330  181.1530  135.3510 C   0  0  0  0  0  3  0  0  0  0  0  0
  180.6360  182.3600  136.0580 C   0  0  0  0  0  0  0  0  0  0  0  0
  181.0920  181.1550  138.1070 C   0  0  0  0  0  3  0  0  0  0  0  0
  180.8690  179.9490  136.0220 C   0  0  0  0  0  3  0  0  0  0  0  0
  181.1030  179.9500  137.4010 C   0  0  0  0  0  0  0  0  0  0  0  0
  180.8590  182.3590  137.4360 C   0  0  0  0  0  3  0  0  0  0  0  0
  181.0500  184.7820  136.0840 C   0  0  0  0  0  1  0  0  0  0  0  0
  180.3820  183.6440  135.3500 C   0  0  0  0  0  2  0  0  0  0  0  0
  188.2420  176.7170  138.1230 S   0  0  0  0  0  0  0  0  0  0  0  0
  190.0020  177.0530  137.7790 C   0  0  0  0  0  2  0  0  0  0  0  0
  190.4590  176.1520  140.1270 C   0  0  0  0  0  2  0  0  0  0  0  0
  193.0980  177.1340  139.8380 C   0  0  0  0  0  2  0  0  0  0  0  0
  190.9540  176.2480  138.6730 C   0  0  2  0  0  3  0  0  0  0  0  0
  192.3820  176.7320  138.5850 C   0  0  0  0  0  0  0  0  0  0  0  0
  190.9880  177.2770  140.9740 C   0  0  0  0  0  0  0  0  0  0  0  0
  192.1810  177.7280  140.7910 N   0  0  0  0  0  0  0  0  0  0  0  0
  193.0410  176.5810  137.4970 N   0  0  0  0  0  2  0  0  0  0  0  0
  190.1000  177.9040  141.9960 C   0  0  0  0  0  2  0  0  0  0  0  0
  188.8150  177.1290  142.1770 C   0  0  0  0  0  2  0  0  0  0  0  0
  188.9480  176.1450  143.2380 N   0  0  0  0  0  2  0  0  0  0  0  0
  190.2410  177.0200  145.6250 N   0  0  0  0  0  2  0  0  0  0  0  0
  188.1880  177.7240  146.6400 C   0  0  0  0  0  1  0  0  0  0  0  0
  188.9600  177.1460  145.5150 C   0  0  0  0  0  0  0  0  0  0  0  0
  188.2630  176.6550  144.3500 N   0  0  0  0  0  2  0  0  0  0  0  0
  1  6  1  0  0  0  0
  2  9  1  0  0  0  0
  3  1  1  0  0  0  0
  3 28  1  1  0  0  0
  4  3  1  0  0  0  0
  4  1  1  0  0  0  0
  5 14  1  0  0  0  0
  5 15  1  0  0  0  0
  6 13  1  0  0  0  0
  7 11  2  0  0  0  0
  8  2  2  0  0  0  0
 10 12  2  0  0  0  0
 10  7  1  0  0  0  0
 11  2  1  0  0  0  0
 12  8  1  0  0  0  0
 13 14  2  0  0  0  0
 14 10  1  0  0  0  0
 15 18  2  0  0  0  0
 16  5  2  0  0  0  0
 17  6  2  0  0  0  0
 17 16  1  0  0  0  0
 18  7  1  0  0  0  0
 19 16  1  0  0  0  0
 20 23  2  0  0  0  0
 20 21  1  0  0  0  0
 21 25  2  0  0  0  0
 23 24  1  0  0  0  0
 24 22  2  0  0  0  0
 24 19  1  0  0  0  0
 25 22  1  0  0  0  0
 27 21  1  0  0  0  0
 27 26  1  0  0  0  0
 29 28  1  0  0  0  0
 30 34  1  0  0  0  0
 31 35  1  0  0  0  0
 32 29  1  6  0  0  0
 32 30  1  0  0  0  0
 33 32  1  0  0  0  0
 33 31  1  0  0  0  0
 34 37  1  0  0  0  0
 35 34  2  0  0  0  0
 36 33  2  0  0  0  0
 37 38  1  0  0  0  0
 38 39  1  0  0  0  0
 39 43  1  0  0  0  0
 42 40  2  0  0  0  0
 42 41  1  0  0  0  0
 43 42  1  0  0  0  0
M  END
>  <MODEL>
1

>  <REMARK>
 VINA RESULT:      -9.1      0.000      0.000
  Name = 
  10 active torsions:
  status: ('A' for Active; 'I' for Inactive)
    1  A    between atoms: C_1  and  C_34
    2  A    between atoms: C_1  and  C_35
    3  A    between atoms: C_3  and  C_12
    4  A    between atoms: C_3  and  S_17
    5  A    between atoms: C_6  and  S_17
    6  A    between atoms: C_11  and  C_14
    7  A    between atoms: C_11  and  N_36
    8  A    between atoms: C_14  and  C_22
    9  A    between atoms: C_19  and  C_37
   10  A    between atoms: N_36  and  N_40
                            x       y       z     vdW  Elec       q    Type
                         _______ _______ _______ _____ _____    ______ ____

>  <TORSDO>
F 10

$$$$
=
 OpenBabel10272414363D

 43 48  0  0  1  0  0  0  0  0999 V2000
  188.5310  177.2850  141.5350 N   0  0  0  0  0  0  0  0  0  0  0  0
  181.3570  179.0270  141.8720 C   0  0  0  0  0  0  0  0  0  0  0  0
  188.9520  177.0600  140.1160 C   0  0  2  0  0  3  0  0  0  0  0  0
  189.9200  176.9590  141.0950 C   0  0  0  0  0  2  0  0  0  0  0  0
  185.6620  178.3590  144.4060 C   0  0  0  0  0  0  0  0  0  0  0  0
  187.5590  177.6200  142.5150 C   0  0  0  0  0  0  0  0  0  0  0  0
  183.0450  178.8770  143.6000 C   0  0  0  0  0  0  0  0  0  0  0  0
  182.2930  178.6300  140.9170 C   0  0  0  0  0  3  0  0  0  0  0  0
  180.0970  179.3040  141.4940 F   0  0  0  0  0  0  0  0  0  0  0  0
  183.9990  178.4840  142.6340 C   0  0  0  0  0  0  0  0  0  0  0  0
  181.7320  179.1470  143.2120 C   0  0  0  0  0  3  0  0  0  0  0  0
  183.6070  178.3590  141.2940 C   0  0  0  0  0  3  0  0  0  0  0  0
  186.2730  177.8660  142.1420 N   0  0  0  0  0  0  0  0  0  0  0  0
  185.3180  178.2290  143.0420 C   0  0  0  0  0  0  0  0  0  0  0  0
  184.6770  178.7440  145.3220 C   0  0  0  0  0  3  0  0  0  0  0  0
  186.9830  178.0950  144.8100 C   0  0  0  0  0  0  0  0  0  0  0  0
  187.9340  177.7310  143.8540 C   0  0  0  0  0  3  0  0  0  0  0  0
  183.4070  178.9940  144.9060 N   0  0  0  0  0  0  0  0  0  0  0  0
  187.4080  178.2220  146.2410 C   0  0  0  0  0  2  0  0  0  0  0  0
  191.0520  177.2660  145.8520 C   0  0  0  0  0  3  0  0  0  0  0  0
  191.2090  176.3410  146.8900 C   0  0  0  0  0  0  0  0  0  0  0  0
  188.8890  176.6500  147.5080 C   0  0  0  0  0  3  0  0  0  0  0  0
  189.8120  177.8740  145.6370 C   0  0  0  0  0  3  0  0  0  0  0  0
  188.7270  177.5630  146.4640 C   0  0  0  0  0  0  0  0  0  0  0  0
  190.1280  176.0400  147.7210 C   0  0  0  0  0  3  0  0  0  0  0  0
  192.9190  175.8270  148.5770 C   0  0  0  0  0  1  0  0  0  0  0  0
  192.5270  175.6930  147.1250 C   0  0  0  0  0  2  0  0  0  0  0  0
  189.0740  178.6640  139.2830 S   0  0  0  0  0  0  0  0  0  0  0  0
  188.4870  177.9820  137.6950 C   0  0  0  0  0  2  0  0  0  0  0  0
  187.4600  175.7060  137.1450 C   0  0  0  0  0  2  0  0  0  0  0  0
  185.1100  177.1010  136.4090 C   0  0  0  0  0  2  0  0  0  0  0  0
  187.2700  177.0610  137.8500 C   0  0  2  0  0  3  0  0  0  0  0  0
  185.9780  177.7360  137.4540 C   0  0  0  0  0  0  0  0  0  0  0  0
  186.9640  175.7390  135.7260 C   0  0  0  0  0  0  0  0  0  0  0  0
  185.9130  176.4160  135.4160 N   0  0  0  0  0  0  0  0  0  0  0  0
  185.5200  178.7020  138.1580 N   0  0  0  0  0  2  0  0  0  0  0  0
  187.7310  175.0210  134.6650 C   0  0  0  0  0  2  0  0  0  0  0  0
  189.0640  175.6800  134.3920 C   0  0  0  0  0  2  0  0  0  0  0  0
  190.1540  174.8960  134.9480 N   0  0  0  0  0  2  0  0  0  0  0  0
  190.6420  174.4880  137.7290 N   0  0  0  0  0  2  0  0  0  0  0  0
  192.0470  176.4190  137.9040 C   0  0  0  0  0  1  0  0  0  0  0  0
  191.1920  175.4910  137.1290 C   0  0  0  0  0  0  0  0  0  0  0  0
  190.9160  175.7670  135.7390 N   0  0  0  0  0  2  0  0  0  0  0  0
  1  6  1  0  0  0  0
  2 11  1  0  0  0  0
  3 28  1  6  0  0  0
  3  4  1  0  0  0  0
  3  1  1  0  0  0  0
  4  1  1  0  0  0  0
  5 16  1  0  0  0  0
  5 15  1  0  0  0  0
  6 17  1  0  0  0  0
  7 18  1  0  0  0  0
  8 12  1  0  0  0  0
  8  2  2  0  0  0  0
  9  2  1  0  0  0  0
 10 14  1  0  0  0  0
 10  7  1  0  0  0  0
 11  7  2  0  0  0  0
 12 10  2  0  0  0  0
 13  6  2  0  0  0  0
 13 14  1  0  0  0  0
 14  5  2  0  0  0  0
 16 19  1  0  0  0  0
 17 16  2  0  0  0  0
 18 15  2  0  0  0  0
 19 24  1  0  0  0  0
 20 21  1  0  0  0  0
 21 27  1  0  0  0  0
 21 25  2  0  0  0  0
 22 25  1  0  0  0  0
 23 20  2  0  0  0  0
 23 24  1  0  0  0  0
 24 22  2  0  0  0  0
 27 26  1  0  0  0  0
 29 28  1  0  0  0  0
 30 32  1  0  0  0  0
 31 33  1  0  0  0  0
 32 29  1  6  0  0  0
 33 32  1  0  0  0  0
 33 36  2  0  0  0  0
 34 30  1  0  0  0  0
 35 34  2  0  0  0  0
 35 31  1  0  0  0  0
 37 34  1  0  0  0  0
 38 37  1  0  0  0  0
 38 39  1  0  0  0  0
 39 43  1  0  0  0  0
 42 40  2  0  0  0  0
 42 41  1  0  0  0  0
 43 42  1  0  0  0  0
M  END
>  <MODEL>
2

>  <REMARK>
 VINA RESULT:      -8.9      3.237      8.725
  Name = 
  10 active torsions:
  status: ('A' for Active; 'I' for Inactive)
    1  A    between atoms: C_1  and  C_34
    2  A    between atoms: C_1  and  C_35
    3  A    between atoms: C_3  and  C_12
    4  A    between atoms: C_3  and  S_17
    5  A    between atoms: C_6  and  S_17
    6  A    between atoms: C_11  and  C_14
    7  A    between atoms: C_11  and  N_36
    8  A    between atoms: C_14  and  C_22
    9  A    between atoms: C_19  and  C_37
   10  A    between atoms: N_36  and  N_40
                            x       y       z     vdW  Elec       q    Type
                         _______ _______ _______ _____ _____    ______ ____

>  <TORSDO>
F 10

$$$$
=
 OpenBabel10272414363D

 43 48  0  0  1  0  0  0  0  0999 V2000
  188.4560  177.2960  141.5140 N   0  0  0  0  0  0  0  0  0  0  0  0
  181.2740  178.9840  141.9300 C   0  0  0  0  0  0  0  0  0  0  0  0
  188.8570  177.0470  140.0940 C   0  0  2  0  0  3  0  0  0  0  0  0
  189.8410  176.9730  141.0580 C   0  0  0  0  0  2  0  0  0  0  0  0
  185.6240  178.4030  144.4080 C   0  0  0  0  0  0  0  0  0  0  0  0
  187.4970  177.6430  142.5030 C   0  0  0  0  0  0  0  0  0  0  0  0
  182.9900  178.8830  143.6330 C   0  0  0  0  0  0  0  0  0  0  0  0
  182.1980  178.5770  140.9680 C   0  0  0  0  0  3  0  0  0  0  0  0
  180.0060  179.2430  141.5670 F   0  0  0  0  0  0  0  0  0  0  0  0
  183.9320  178.4790  142.6610 C   0  0  0  0  0  0  0  0  0  0  0  0
  181.6680  179.1340  143.2620 C   0  0  0  0  0  3  0  0  0  0  0  0
  183.5200  178.3230  141.3300 C   0  0  0  0  0  3  0  0  0  0  0  0
  186.2030  177.8700  142.1450 N   0  0  0  0  0  0  0  0  0  0  0  0
  185.2600  178.2430  143.0530 C   0  0  0  0  0  0  0  0  0  0  0  0
  184.6490  178.7980  145.3320 C   0  0  0  0  0  3  0  0  0  0  0  0
  186.9530  178.1580  144.7970 C   0  0  0  0  0  0  0  0  0  0  0  0
  187.8920  177.7830  143.8330 C   0  0  0  0  0  3  0  0  0  0  0  0
  183.3710  179.0280  144.9310 N   0  0  0  0  0  0  0  0  0  0  0  0
  187.3990  178.3160  146.2180 C   0  0  0  0  0  2  0  0  0  0  0  0
  191.0410  177.3240  145.9020 C   0  0  0  0  0  3  0  0  0  0  0  0
  191.1450  176.3360  146.8870 C   0  0  0  0  0  0  0  0  0  0  0  0
  188.8090  176.6470  147.4390 C   0  0  0  0  0  3  0  0  0  0  0  0
  189.8180  177.9650  145.6810 C   0  0  0  0  0  3  0  0  0  0  0  0
  188.6990  177.6230  146.4470 C   0  0  0  0  0  0  0  0  0  0  0  0
  190.0310  176.0030  147.6580 C   0  0  0  0  0  3  0  0  0  0  0  0
  192.9200  175.9260  148.5360 C   0  0  0  0  0  1  0  0  0  0  0  0
  192.4440  175.6530  147.1290 C   0  0  0  0  0  2  0  0  0  0  0  0
  188.9520  178.6350  139.2270 S   0  0  0  0  0  0  0  0  0  0  0  0
  189.4340  177.8460  137.6530 C   0  0  0  0  0  2  0  0  0  0  0  0
  187.1330  178.6080  136.8410 C   0  0  0  0  0  2  0  0  0  0  0  0
  187.4650  176.8250  134.6680 C   0  0  0  0  0  2  0  0  0  0  0  0
  188.5970  178.3250  136.4600 C   0  0  2  0  0  3  0  0  0  0  0  0
  188.7110  177.4070  135.2670 C   0  0  0  0  0  0  0  0  0  0  0  0
  186.2640  177.3930  136.6670 C   0  0  0  0  0  0  0  0  0  0  0  0
  186.4670  176.5790  135.6890 N   0  0  0  0  0  0  0  0  0  0  0  0
  189.8210  177.3130  134.6360 N   0  0  0  0  0  2  0  0  0  0  0  0
  185.1950  177.1070  137.6690 C   0  0  0  0  0  2  0  0  0  0  0  0
  184.0800  176.2740  137.0790 C   0  0  0  0  0  2  0  0  0  0  0  0
  183.6890  175.2110  137.9900 N   0  0  0  0  0  2  0  0  0  0  0  0
  185.5160  173.0210  138.0120 N   0  0  0  0  0  2  0  0  0  0  0  0
  184.1870  171.7230  136.4990 C   0  0  0  0  0  1  0  0  0  0  0  0
  184.4390  172.9420  137.3020 C   0  0  0  0  0  0  0  0  0  0  0  0
  183.5240  174.0550  137.2150 N   0  0  0  0  0  2  0  0  0  0  0  0
  1  6  1  0  0  0  0
  2 11  1  0  0  0  0
  3 28  1  6  0  0  0
  3  4  1  0  0  0  0
  3  1  1  0  0  0  0
  4  1  1  0  0  0  0
  5 16  1  0  0  0  0
  5 15  1  0  0  0  0
  6 17  1  0  0  0  0
  7 18  1  0  0  0  0
  8 12  1  0  0  0  0
  8  2  2  0  0  0  0
  9  2  1  0  0  0  0
 10 14  1  0  0  0  0
 10  7  1  0  0  0  0
 11  7  2  0  0  0  0
 12 10  2  0  0  0  0
 13  6  2  0  0  0  0
 13 14  1  0  0  0  0
 14  5  2  0  0  0  0
 16 19  1  0  0  0  0
 17 16  2  0  0  0  0
 18 15  2  0  0  0  0
 19 24  1  0  0  0  0
 20 21  1  0  0  0  0
 21 27  1  0  0  0  0
 21 25  2  0  0  0  0
 22 25  1  0  0  0  0
 23 20  2  0  0  0  0
 23 24  1  0  0  0  0
 24 22  2  0  0  0  0
 27 26  1  0  0  0  0
 29 28  1  0  0  0  0
 31 33  1  0  0  0  0
 31 35  1  0  0  0  0
 32 30  1  0  0  0  0
 32 29  1  1  0  0  0
 33 32  1  0  0  0  0
 34 30  1  0  0  0  0
 34 37  1  0  0  0  0
 35 34  2  0  0  0  0
 36 33  2  0  0  0  0
 38 37  1  0  0  0  0
 38 39  1  0  0  0  0
 41 42  1  0  0  0  0
 42 40  2  0  0  0  0
 43 42  1  0  0  0  0
 43 39  1  0  0  0  0
M  END
>  <MODEL>
3

>  <REMARK>
 VINA RESULT:      -8.8      3.387      8.674
  Name = 
  10 active torsions:
  status: ('A' for Active; 'I' for Inactive)
    1  A    between atoms: C_1  and  C_34
    2  A    between atoms: C_1  and  C_35
    3  A    between atoms: C_3  and  C_12
    4  A    between atoms: C_3  and  S_17
    5  A    between atoms: C_6  and  S_17
    6  A    between atoms: C_11  and  C_14
    7  A    between atoms: C_11  and  N_36
    8  A    between atoms: C_14  and  C_22
    9  A    between atoms: C_19  and  C_37
   10  A    between atoms: N_36  and  N_40
                            x       y       z     vdW  Elec       q    Type
                         _______ _______ _______ _____ _____    ______ ____

>  <TORSDO>
F 10

$$$$
=
 OpenBabel10272414363D

 43 48  0  0  1  0  0  0  0  0999 V2000
  186.2540  178.5440  137.8290 N   0  0  0  0  0  0  0  0  0  0  0  0
  184.5910  178.7310  145.0270 C   0  0  0  0  0  0  0  0  0  0  0  0
  187.7330  178.4240  137.6340 C   0  0  2  0  0  3  0  0  0  0  0  0
  186.9380  178.4370  136.5060 C   0  0  0  0  0  2  0  0  0  0  0  0
  182.8590  178.7030  140.2940 C   0  0  0  0  0  0  0  0  0  0  0  0
  185.1020  178.6270  138.6570 C   0  0  0  0  0  0  0  0  0  0  0  0
  183.1770  178.7330  143.0630 C   0  0  0  0  0  0  0  0  0  0  0  0
  185.7260  178.7210  144.2160 C   0  0  0  0  0  3  0  0  0  0  0  0
  184.7280  178.7210  146.3640 F   0  0  0  0  0  0  0  0  0  0  0  0
  184.3240  178.7120  142.2370 C   0  0  0  0  0  0  0  0  0  0  0  0
  183.3180  178.7410  144.4510 C   0  0  0  0  0  3  0  0  0  0  0  0
  185.5950  178.7130  142.8280 C   0  0  0  0  0  3  0  0  0  0  0  0
  185.2380  178.6530  140.0110 N   0  0  0  0  0  0  0  0  0  0  0  0
  184.1610  178.6920  140.8420 C   0  0  0  0  0  0  0  0  0  0  0  0
  181.7580  178.7310  141.1570 C   0  0  0  0  0  3  0  0  0  0  0  0
  182.7020  178.6900  138.8960 C   0  0  0  0  0  0  0  0  0  0  0  0
  183.8330  178.6450  138.0780 C   0  0  0  0  0  3  0  0  0  0  0  0
  181.9370  178.7430  142.5050 N   0  0  0  0  0  0  0  0  0  0  0  0
  181.3470  178.6960  138.2570 C   0  0  0  0  0  2  0  0  0  0  0  0
  180.8640  182.4100  137.6920 C   0  0  0  0  0  3  0  0  0  0  0  0
  180.6060  182.4490  136.3170 C   0  0  0  0  0  0  0  0  0  0  0  0
  180.8400  180.0420  136.2090 C   0  0  0  0  0  3  0  0  0  0  0  0
  181.1000  181.1850  138.3240 C   0  0  0  0  0  3  0  0  0  0  0  0
  181.0830  179.9990  137.5830 C   0  0  0  0  0  0  0  0  0  0  0  0
  180.6010  181.2660  135.5770 C   0  0  0  0  0  3  0  0  0  0  0  0
  181.1650  184.8420  136.2970 C   0  0  0  0  0  1  0  0  0  0  0  0
  180.3580  183.7490  135.6380 C   0  0  0  0  0  2  0  0  0  0  0  0
  188.2350  176.7260  138.0210 S   0  0  0  0  0  0  0  0  0  0  0  0
  189.6580  176.7950  136.8800 C   0  0  0  0  0  2  0  0  0  0  0  0
  191.1500  175.7700  138.6860 C   0  0  0  0  0  2  0  0  0  0  0  0
  193.2980  176.0270  136.8610 C   0  0  0  0  0  2  0  0  0  0  0  0
  190.7380  175.7540  137.2030 C   0  0  2  0  0  3  0  0  0  0  0  0
  191.9280  175.8470  136.2780 C   0  0  0  0  0  0  0  0  0  0  0  0
  192.3020  176.7030  138.9380 C   0  0  0  0  0  0  0  0  0  0  0  0
  193.2440  176.8280  138.0690 N   0  0  0  0  0  0  0  0  0  0  0  0
  191.8000  175.5440  135.0410 N   0  0  0  0  0  2  0  0  0  0  0  0
  192.3190  177.5270  140.1820 C   0  0  0  0  0  2  0  0  0  0  0  0
  191.0960  177.2830  141.0360 C   0  0  0  0  0  2  0  0  0  0  0  0
  191.4680  177.0290  142.4170 N   0  0  0  0  0  2  0  0  0  0  0  0
  191.5000  177.3310  145.2540 N   0  0  0  0  0  2  0  0  0  0  0  0
  189.1360  177.7000  145.3750 C   0  0  0  0  0  1  0  0  0  0  0  0
  190.3810  177.4400  144.6160 C   0  0  0  0  0  0  0  0  0  0  0  0
  190.3150  177.2290  143.1900 N   0  0  0  0  0  2  0  0  0  0  0  0
  1  6  1  0  0  0  0
  2  9  1  0  0  0  0
  3  1  1  0  0  0  0
  3 28  1  1  0  0  0
  4  3  1  0  0  0  0
  4  1  1  0  0  0  0
  5 14  1  0  0  0  0
  5 15  1  0  0  0  0
  6 13  1  0  0  0  0
  7 11  2  0  0  0  0
  8  2  2  0  0  0  0
 10 12  2  0  0  0  0
 10  7  1  0  0  0  0
 11  2  1  0  0  0  0
 12  8  1  0  0  0  0
 13 14  2  0  0  0  0
 14 10  1  0  0  0  0
 15 18  2  0  0  0  0
 16  5  2  0  0  0  0
 17  6  2  0  0  0  0
 17 16  1  0  0  0  0
 18  7  1  0  0  0  0
 19 16  1  0  0  0  0
 20 23  1  0  0  0  0
 21 20  2  0  0  0  0
 22 24  1  0  0  0  0
 24 19  1  0  0  0  0
 24 23  2  0  0  0  0
 25 22  2  0  0  0  0
 25 21  1  0  0  0  0
 27 26  1  0  0  0  0
 27 21  1  0  0  0  0
 29 28  1  0  0  0  0
 30 34  1  0  0  0  0
 31 35  1  0  0  0  0
 32 29  1  1  0  0  0
 32 30  1  0  0  0  0
 33 31  1  0  0  0  0
 33 32  1  0  0  0  0
 34 37  1  0  0  0  0
 35 34  2  0  0  0  0
 36 33  2  0  0  0  0
 37 38  1  0  0  0  0
 38 39  1  0  0  0  0
 39 43  1  0  0  0  0
 42 40  2  0  0  0  0
 42 41  1  0  0  0  0
 43 42  1  0  0  0  0
M  END
>  <MODEL>
4

>  <REMARK>
 VINA RESULT:      -8.6      0.930      1.577
  Name = 
  10 active torsions:
  status: ('A' for Active; 'I' for Inactive)
    1  A    between atoms: C_1  and  C_34
    2  A    between atoms: C_1  and  C_35
    3  A    between atoms: C_3  and  C_12
    4  A    between atoms: C_3  and  S_17
    5  A    between atoms: C_6  and  S_17
    6  A    between atoms: C_11  and  C_14
    7  A    between atoms: C_11  and  N_36
    8  A    between atoms: C_14  and  C_22
    9  A    between atoms: C_19  and  C_37
   10  A    between atoms: N_36  and  N_40
                            x       y       z     vdW  Elec       q    Type
                         _______ _______ _______ _____ _____    ______ ____

>  <TORSDO>
F 10

$$$$
=
 OpenBabel10272414363D

 43 48  0  0  1  0  0  0  0  0999 V2000
  188.4630  177.3400  141.6120 N   0  0  0  0  0  0  0  0  0  0  0  0
  181.2820  179.0380  142.0070 C   0  0  0  0  0  0  0  0  0  0  0  0
  188.8730  177.1160  140.1900 C   0  0  2  0  0  3  0  0  0  0  0  0
  189.8500  177.0220  141.1610 C   0  0  0  0  0  2  0  0  0  0  0  0
  185.6120  178.4000  144.5060 C   0  0  0  0  0  0  0  0  0  0  0  0
  187.4970  177.6710  142.6000 C   0  0  0  0  0  0  0  0  0  0  0  0
  182.9850  178.9010  143.7210 C   0  0  0  0  0  0  0  0  0  0  0  0
  182.2120  178.6460  141.0450 C   0  0  0  0  0  3  0  0  0  0  0  0
  180.0170  179.3070  141.6400 F   0  0  0  0  0  0  0  0  0  0  0  0
  183.9330  178.5130  142.7480 C   0  0  0  0  0  0  0  0  0  0  0  0
  181.6670  179.1620  143.3450 C   0  0  0  0  0  3  0  0  0  0  0  0
  183.5310  178.3830  141.4120 C   0  0  0  0  0  3  0  0  0  0  0  0
  186.2070  177.9080  142.2370 N   0  0  0  0  0  0  0  0  0  0  0  0
  185.2580  178.2660  143.1450 C   0  0  0  0  0  0  0  0  0  0  0  0
  184.6320  178.7800  145.4300 C   0  0  0  0  0  3  0  0  0  0  0  0
  186.9380  178.1450  144.8990 C   0  0  0  0  0  0  0  0  0  0  0  0
  187.8830  177.7850  143.9360 C   0  0  0  0  0  3  0  0  0  0  0  0
  183.3570  179.0210  145.0240 N   0  0  0  0  0  0  0  0  0  0  0  0
  187.3740  178.2750  146.3270 C   0  0  0  0  0  2  0  0  0  0  0  0
  190.1510  176.1640  147.8020 C   0  0  0  0  0  3  0  0  0  0  0  0
  191.2020  176.4310  146.9180 C   0  0  0  0  0  0  0  0  0  0  0  0
  189.7530  177.8950  145.6460 C   0  0  0  0  0  3  0  0  0  0  0  0
  188.9050  176.7690  147.6120 C   0  0  0  0  0  3  0  0  0  0  0  0
  188.7070  177.6400  146.5350 C   0  0  0  0  0  0  0  0  0  0  0  0
  190.9990  177.2920  145.8380 C   0  0  0  0  0  3  0  0  0  0  0  0
  192.9000  175.7980  148.5770 C   0  0  0  0  0  1  0  0  0  0  0  0
  192.5280  175.7880  147.1130 C   0  0  0  0  0  2  0  0  0  0  0  0
  188.9790  178.7200  139.3540 S   0  0  0  0  0  0  0  0  0  0  0  0
  189.6640  177.9800  137.8330 C   0  0  0  0  0  2  0  0  0  0  0  0
  187.4070  178.7530  136.9160 C   0  0  0  0  0  2  0  0  0  0  0  0
  187.5830  176.6150  135.0690 C   0  0  0  0  0  2  0  0  0  0  0  0
  188.8420  178.3100  136.5810 C   0  0  2  0  0  3  0  0  0  0  0  0
  188.8740  177.2000  135.5570 C   0  0  0  0  0  0  0  0  0  0  0  0
  186.4550  177.5890  136.9510 C   0  0  0  0  0  0  0  0  0  0  0  0
  186.5870  176.6120  136.1220 N   0  0  0  0  0  0  0  0  0  0  0  0
  189.9660  176.9270  134.9460 N   0  0  0  0  0  2  0  0  0  0  0  0
  185.3860  177.5480  137.9920 C   0  0  0  0  0  2  0  0  0  0  0  0
  184.0080  177.4530  137.3780 C   0  0  0  0  0  2  0  0  0  0  0  0
  183.4780  176.1050  137.4980 N   0  0  0  0  0  2  0  0  0  0  0  0
  180.8460  175.0120  137.6160 N   0  0  0  0  0  2  0  0  0  0  0  0
  180.6380  175.4140  139.9680 C   0  0  0  0  0  1  0  0  0  0  0  0
  181.3950  175.4600  138.6960 C   0  0  0  0  0  0  0  0  0  0  0  0
  182.6980  176.0800  138.6640 N   0  0  0  0  0  2  0  0  0  0  0  0
  1  6  1  0  0  0  0
  2 11  1  0  0  0  0
  3 28  1  6  0  0  0
  3  4  1  0  0  0  0
  3  1  1  0  0  0  0
  4  1  1  0  0  0  0
  5 16  1  0  0  0  0
  5 15  1  0  0  0  0
  6 17  1  0  0  0  0
  7 18  1  0  0  0  0
  8 12  1  0  0  0  0
  8  2  2  0  0  0  0
  9  2  1  0  0  0  0
 10 14  1  0  0  0  0
 10  7  1  0  0  0  0
 11  7  2  0  0  0  0
 12 10  2  0  0  0  0
 13  6  2  0  0  0  0
 13 14  1  0  0  0  0
 14  5  2  0  0  0  0
 16 19  1  0  0  0  0
 17 16  2  0  0  0  0
 18 15  2  0  0  0  0
 19 24  1  0  0  0  0
 21 27  1  0  0  0  0
 21 20  2  0  0  0  0
 22 25  2  0  0  0  0
 22 24  1  0  0  0  0
 23 20  1  0  0  0  0
 24 23  2  0  0  0  0
 25 21  1  0  0  0  0
 27 26  1  0  0  0  0
 29 28  1  0  0  0  0
 30 34  1  0  0  0  0
 31 33  1  0  0  0  0
 31 35  1  0  0  0  0
 32 30  1  0  0  0  0
 32 29  1  1  0  0  0
 33 32  1  0  0  0  0
 34 37  1  0  0  0  0
 35 34  2  0  0  0  0
 36 33  2  0  0  0  0
 38 39  1  0  0  0  0
 38 37  1  0  0  0  0
 39 43  1  0  0  0  0
 40 42  2  0  0  0  0
 42 41  1  0  0  0  0
 43 42  1  0  0  0  0
M  END
>  <MODEL>
5

>  <REMARK>
 VINA RESULT:      -8.6      3.260      8.670
  Name = 
  10 active torsions:
  status: ('A' for Active; 'I' for Inactive)
    1  A    between atoms: C_1  and  C_34
    2  A    between atoms: C_1  and  C_35
    3  A    between atoms: C_3  and  C_12
    4  A    between atoms: C_3  and  S_17
    5  A    between atoms: C_6  and  S_17
    6  A    between atoms: C_11  and  C_14
    7  A    between atoms: C_11  and  N_36
    8  A    between atoms: C_14  and  C_22
    9  A    between atoms: C_19  and  C_37
   10  A    between atoms: N_36  and  N_40
                            x       y       z     vdW  Elec       q    Type
                         _______ _______ _______ _____ _____    ______ ____

>  <TORSDO>
F 10

$$$$
=
 OpenBabel10272414363D

 43 48  0  0  1  0  0  0  0  0999 V2000
  188.5910  177.2220  141.6650 N   0  0  0  0  0  0  0  0  0  0  0  0
  181.4370  179.0210  142.1060 C   0  0  0  0  0  0  0  0  0  0  0  0
  188.9820  176.9670  140.2430 C   0  0  2  0  0  3  0  0  0  0  0  0
  189.9690  176.8770  141.2040 C   0  0  0  0  0  2  0  0  0  0  0  0
  185.7860  178.3720  144.5690 C   0  0  0  0  0  0  0  0  0  0  0  0
  187.6400  177.5830  142.6570 C   0  0  0  0  0  0  0  0  0  0  0  0
  183.1570  178.8920  143.8040 C   0  0  0  0  0  0  0  0  0  0  0  0
  182.3510  178.5990  141.1410 C   0  0  0  0  0  3  0  0  0  0  0  0
  180.1720  179.2990  141.7480 F   0  0  0  0  0  0  0  0  0  0  0  0
  184.0890  178.4740  142.8280 C   0  0  0  0  0  0  0  0  0  0  0  0
  181.8380  179.1640  143.4370 C   0  0  0  0  0  3  0  0  0  0  0  0
  183.6710  178.3250  141.4990 C   0  0  0  0  0  3  0  0  0  0  0  0
  186.3490  177.8300  142.3040 N   0  0  0  0  0  0  0  0  0  0  0  0
  185.4150  178.2180  143.2150 C   0  0  0  0  0  0  0  0  0  0  0  0
  184.8210  178.7810  145.4960 C   0  0  0  0  0  3  0  0  0  0  0  0
  187.1130  178.1060  144.9530 C   0  0  0  0  0  0  0  0  0  0  0  0
  188.0420  177.7170  143.9860 C   0  0  0  0  0  3  0  0  0  0  0  0
  183.5450  179.0310  145.1000 N   0  0  0  0  0  0  0  0  0  0  0  0
  187.5660  178.2570  146.3730 C   0  0  0  0  0  2  0  0  0  0  0  0
  190.2090  175.9610  147.8190 C   0  0  0  0  0  3  0  0  0  0  0  0
  191.3020  176.2430  146.9930 C   0  0  0  0  0  0  0  0  0  0  0  0
  189.9560  177.8310  145.7590 C   0  0  0  0  0  3  0  0  0  0  0  0
  188.9930  176.6220  147.6190 C   0  0  0  0  0  3  0  0  0  0  0  0
  188.8670  177.5620  146.5910 C   0  0  0  0  0  0  0  0  0  0  0  0
  191.1720  177.1730  145.9600 C   0  0  0  0  0  3  0  0  0  0  0  0
  193.1070  175.7880  148.5970 C   0  0  0  0  0  1  0  0  0  0  0  0
  192.5970  175.5400  147.1970 C   0  0  0  0  0  2  0  0  0  0  0  0
  189.1000  178.5540  139.3760 S   0  0  0  0  0  0  0  0  0  0  0  0
  189.5730  177.7590  137.8030 C   0  0  0  0  0  2  0  0  0  0  0  0
  190.9730  175.6200  137.7380 C   0  0  0  0  0  2  0  0  0  0  0  0
  189.0570  174.5880  135.9280 C   0  0  0  0  0  2  0  0  0  0  0  0
  189.5650  176.2270  137.8780 C   0  0  2  0  0  3  0  0  0  0  0  0
  188.5770  175.6040  136.9200 C   0  0  0  0  0  0  0  0  0  0  0  0
  191.3130  175.3180  136.3060 C   0  0  0  0  0  0  0  0  0  0  0  0
  190.4090  174.8870  135.4960 N   0  0  0  0  0  0  0  0  0  0  0  0
  187.3200  175.7650  137.1050 N   0  0  0  0  0  2  0  0  0  0  0  0
  192.6990  175.5720  135.8120 C   0  0  0  0  0  2  0  0  0  0  0  0
  193.4630  176.4940  136.7330 C   0  0  0  0  0  2  0  0  0  0  0  0
  194.7990  176.7500  136.2210 N   0  0  0  0  0  2  0  0  0  0  0  0
  197.4730  175.7890  136.4650 N   0  0  0  0  0  2  0  0  0  0  0  0
  197.0000  173.7690  135.2670 C   0  0  0  0  0  1  0  0  0  0  0  0
  196.5940  175.0690  135.8500 C   0  0  0  0  0  0  0  0  0  0  0  0
  195.2490  175.5510  135.6490 N   0  0  0  0  0  2  0  0  0  0  0  0
  1  6  1  0  0  0  0
  2 11  1  0  0  0  0
  3 28  1  6  0  0  0
  3  4  1  0  0  0  0
  3  1  1  0  0  0  0
  4  1  1  0  0  0  0
  5 16  1  0  0  0  0
  5 15  1  0  0  0  0
  6 17  1  0  0  0  0
  7 18  1  0  0  0  0
  8 12  1  0  0  0  0
  8  2  2  0  0  0  0
  9  2  1  0  0  0  0
 10 14  1  0  0  0  0
 10  7  1  0  0  0  0
 11  7  2  0  0  0  0
 12 10  2  0  0  0  0
 13  6  2  0  0  0  0
 13 14  1  0  0  0  0
 14  5  2  0  0  0  0
 16 19  1  0  0  0  0
 17 16  2  0  0  0  0
 18 15  2  0  0  0  0
 19 24  1  0  0  0  0
 21 27  1  0  0  0  0
 21 20  2  0  0  0  0
 22 25  2  0  0  0  0
 22 24  1  0  0  0  0
 23 20  1  0  0  0  0
 24 23  2  0  0  0  0
 25 21  1  0  0  0  0
 27 26  1  0  0  0  0
 29 28  1  0  0  0  0
 30 32  1  0  0  0  0
 31 33  1  0  0  0  0
 32 29  1  6  0  0  0
 33 36  2  0  0  0  0
 33 32  1  0  0  0  0
 34 30  1  0  0  0  0
 35 31  1  0  0  0  0
 35 34  2  0  0  0  0
 37 34  1  0  0  0  0
 37 38  1  0  0  0  0
 39 38  1  0  0  0  0
 41 42  1  0  0  0  0
 42 40  2  0  0  0  0
 43 42  1  0  0  0  0
 43 39  1  0  0  0  0
M  END
>  <MODEL>
6

>  <REMARK>
 VINA RESULT:      -8.5      3.446      8.989
  Name = 
  10 active torsions:
  status: ('A' for Active; 'I' for Inactive)
    1  A    between atoms: C_1  and  C_34
    2  A    between atoms: C_1  and  C_35
    3  A    between atoms: C_3  and  C_12
    4  A    between atoms: C_3  and  S_17
    5  A    between atoms: C_6  and  S_17
    6  A    between atoms: C_11  and  C_14
    7  A    between atoms: C_11  and  N_36
    8  A    between atoms: C_14  and  C_22
    9  A    between atoms: C_19  and  C_37
   10  A    between atoms: N_36  and  N_40
                            x       y       z     vdW  Elec       q    Type
                         _______ _______ _______ _____ _____    ______ ____

>  <TORSDO>
F 10

$$$$
=
 OpenBabel10272414363D

 43 48  0  0  1  0  0  0  0  0999 V2000
  190.8640  177.6640  141.4290 N   0  0  0  0  0  0  0  0  0  0  0  0
  183.8280  179.0390  139.6390 C   0  0  0  0  0  0  0  0  0  0  0  0
  191.0980  177.9260  142.8840 C   0  0  2  0  0  3  0  0  0  0  0  0
  192.1590  177.4510  142.1410 C   0  0  0  0  0  2  0  0  0  0  0  0
  188.3400  177.4210  138.0830 C   0  0  0  0  0  0  0  0  0  0  0  0
  190.0230  177.6060  140.2860 C   0  0  0  0  0  0  0  0  0  0  0  0
  185.6700  178.1830  138.3240 C   0  0  0  0  0  0  0  0  0  0  0  0
  184.6680  179.1630  140.7450 C   0  0  0  0  0  3  0  0  0  0  0  0
  182.5320  179.3800  139.7470 F   0  0  0  0  0  0  0  0  0  0  0  0
  186.5230  178.2970  139.4440 C   0  0  0  0  0  0  0  0  0  0  0  0
  184.3280  178.5530  138.4290 C   0  0  0  0  0  3  0  0  0  0  0  0
  186.0100  178.7960  140.6490 C   0  0  0  0  0  3  0  0  0  0  0  0
  188.7190  177.9850  140.3820 N   0  0  0  0  0  0  0  0  0  0  0  0
  187.8670  177.9080  139.3220 C   0  0  0  0  0  0  0  0  0  0  0  0
  187.4540  177.3350  137.0030 C   0  0  0  0  0  3  0  0  0  0  0  0
  189.6890  177.0400  137.9640 C   0  0  0  0  0  0  0  0  0  0  0  0
  190.5280  177.1280  139.0770 C   0  0  0  0  0  3  0  0  0  0  0  0
  186.1560  177.7110  137.1440 N   0  0  0  0  0  0  0  0  0  0  0  0
  190.2460  176.5110  136.6780 C   0  0  0  0  0  2  0  0  0  0  0  0
  193.8500  175.5500  137.3350 C   0  0  0  0  0  3  0  0  0  0  0  0
  193.7560  174.1560  137.4070 C   0  0  0  0  0  0  0  0  0  0  0  0
  191.3720  174.3010  137.0120 C   0  0  0  0  0  3  0  0  0  0  0  0
  192.7070  176.3160  137.0910 C   0  0  0  0  0  3  0  0  0  0  0  0
  191.4670  175.6910  136.9250 C   0  0  0  0  0  0  0  0  0  0  0  0
  192.5160  173.5340  137.2520 C   0  0  0  0  0  3  0  0  0  0  0  0
  195.7520  173.9180  138.8210 C   0  0  0  0  0  1  0  0  0  0  0  0
  194.9680  173.3350  137.6690 C   0  0  0  0  0  2  0  0  0  0  0  0
  190.3580  176.5800  143.8450 S   0  0  0  0  0  0  0  0  0  0  0  0
  189.0930  177.6770  144.5710 C   0  0  0  0  0  2  0  0  0  0  0  0
  186.7100  177.2240  145.3790 C   0  0  0  0  0  2  0  0  0  0  0  0
  187.6250  177.8430  147.9850 C   0  0  0  0  0  2  0  0  0  0  0  0
  188.2110  176.9720  145.6100 C   0  0  2  0  0  3  0  0  0  0  0  0
  188.6300  177.2750  147.0280 C   0  0  0  0  0  0  0  0  0  0  0  0
  186.2240  178.4340  146.1280 C   0  0  0  0  0  0  0  0  0  0  0  0
  186.6890  178.7110  147.2970 N   0  0  0  0  0  0  0  0  0  0  0  0
  189.7500  176.8390  147.4700 N   0  0  0  0  0  2  0  0  0  0  0  0
  185.2320  179.3450  145.4830 C   0  0  0  0  0  2  0  0  0  0  0  0
  184.3840  178.6210  144.4620 C   0  0  0  0  0  2  0  0  0  0  0  0
  182.9690  178.7880  144.7510 N   0  0  0  0  0  2  0  0  0  0  0  0
  180.2370  178.2910  144.0990 N   0  0  0  0  0  2  0  0  0  0  0  0
  180.3600  179.5260  142.0510 C   0  0  0  0  0  1  0  0  0  0  0  0
  180.9610  179.0020  143.2990 C   0  0  0  0  0  0  0  0  0  0  0  0
  182.3630  179.2200  143.5620 N   0  0  0  0  0  2  0  0  0  0  0  0
  1  4  1  0  0  0  0
  1  3  1  0  0  0  0
  2  9  1  0  0  0  0
  2  8  1  0  0  0  0
  3 28  1  1  0  0  0
  4  3  1  0  0  0  0
  5 14  1  0  0  0  0
  6 13  1  0  0  0  0
  6  1  1  0  0  0  0
  7 11  1  0  0  0  0
  7 10  2  0  0  0  0
 10 12  1  0  0  0  0
 11  2  2  0  0  0  0
 12  8  2  0  0  0  0
 14 10  1  0  0  0  0
 14 13  2  0  0  0  0
 15 18  2  0  0  0  0
 15  5  1  0  0  0  0
 16  5  2  0  0  0  0
 16 17  1  0  0  0  0
 17  6  2  0  0  0  0
 18  7  1  0  0  0  0
 19 24  1  0  0  0  0
 19 16  1  0  0  0  0
 20 21  1  0  0  0  0
 21 27  1  0  0  0  0
 22 25  1  0  0  0  0
 23 20  2  0  0  0  0
 24 22  2  0  0  0  0
 24 23  1  0  0  0  0
 25 21  2  0  0  0  0
 27 26  1  0  0  0  0
 28 29  1  0  0  0  0
 30 32  1  0  0  0  0
 30 34  1  0  0  0  0
 32 29  1  6  0  0  0
 32 33  1  0  0  0  0
 33 36  2  0  0  0  0
 33 31  1  0  0  0  0
 34 35  2  0  0  0  0
 35 31  1  0  0  0  0
 37 34  1  0  0  0  0
 38 39  1  0  0  0  0
 38 37  1  0  0  0  0
 41 42  1  0  0  0  0
 42 43  1  0  0  0  0
 42 40  2  0  0  0  0
 43 39  1  0  0  0  0
M  END
>  <MODEL>
7

>  <REMARK>
 VINA RESULT:      -8.4      3.205      8.978
  Name = 
  10 active torsions:
  status: ('A' for Active; 'I' for Inactive)
    1  A    between atoms: C_1  and  C_34
    2  A    between atoms: C_1  and  C_35
    3  A    between atoms: C_3  and  C_12
    4  A    between atoms: C_3  and  S_17
    5  A    between atoms: C_6  and  S_17
    6  A    between atoms: C_11  and  C_14
    7  A    between atoms: C_11  and  N_36
    8  A    between atoms: C_14  and  C_22
    9  A    between atoms: C_19  and  C_37
   10  A    between atoms: N_36  and  N_40
                            x       y       z     vdW  Elec       q    Type
                         _______ _______ _______ _____ _____    ______ ____

>  <TORSDO>
F 10

$$$$
=
 OpenBabel10272414363D

 43 48  0  0  1  0  0  0  0  0999 V2000
  186.3290  178.4190  137.7660 N   0  0  0  0  0  0  0  0  0  0  0  0
  183.6910  179.0970  144.6350 C   0  0  0  0  0  0  0  0  0  0  0  0
  187.8230  178.5180  137.7640 C   0  0  2  0  0  3  0  0  0  0  0  0
  187.1950  178.2830  136.5570 C   0  0  0  0  0  2  0  0  0  0  0  0
  182.6440  178.2890  139.7720 C   0  0  0  0  0  0  0  0  0  0  0  0
  185.0760  178.4020  138.4340 C   0  0  0  0  0  0  0  0  0  0  0  0
  182.5730  178.6620  142.5330 C   0  0  0  0  0  0  0  0  0  0  0  0
  184.9140  179.1830  143.9720 C   0  0  0  0  0  3  0  0  0  0  0  0
  183.6440  179.2510  145.9700 F   0  0  0  0  0  0  0  0  0  0  0  0
  183.8120  178.7400  141.8580 C   0  0  0  0  0  0  0  0  0  0  0  0
  182.5200  178.8400  143.9160 C   0  0  0  0  0  3  0  0  0  0  0  0
  184.9770  179.0070  142.5900 C   0  0  0  0  0  3  0  0  0  0  0  0
  185.0210  178.5930  139.7810 N   0  0  0  0  0  0  0  0  0  0  0  0
  183.8460  178.5450  140.4670 C   0  0  0  0  0  0  0  0  0  0  0  0
  181.4430  178.2300  140.4880 C   0  0  0  0  0  3  0  0  0  0  0  0
  182.6820  178.1030  138.3780 C   0  0  0  0  0  0  0  0  0  0  0  0
  183.9080  178.1540  137.7120 C   0  0  0  0  0  3  0  0  0  0  0  0
  181.4320  178.4140  141.8350 N   0  0  0  0  0  0  0  0  0  0  0  0
  181.4410  177.8220  137.5870 C   0  0  0  0  0  2  0  0  0  0  0  0
  181.6880  174.6640  135.5110 C   0  0  0  0  0  3  0  0  0  0  0  0
  181.2850  173.6930  136.4340 C   0  0  0  0  0  0  0  0  0  0  0  0
  180.9910  175.4160  138.1100 C   0  0  0  0  0  3  0  0  0  0  0  0
  181.7340  176.0100  135.8860 C   0  0  0  0  0  3  0  0  0  0  0  0
  181.3800  176.3880  137.1860 C   0  0  0  0  0  0  0  0  0  0  0  0
  180.9420  174.0700  137.7340 C   0  0  0  0  0  3  0  0  0  0  0  0
  182.3530  171.4990  136.7190 C   0  0  0  0  0  1  0  0  0  0  0  0
  181.2370  172.2600  136.0420 C   0  0  0  0  0  2  0  0  0  0  0  0
  188.5100  176.9740  138.4180 S   0  0  0  0  0  0  0  0  0  0  0  0
  189.0640  177.7740  139.9620 C   0  0  0  0  0  2  0  0  0  0  0  0
  189.1940  176.4920  142.1700 C   0  0  0  0  0  2  0  0  0  0  0  0
  191.7950  177.5650  142.4790 C   0  0  0  0  0  2  0  0  0  0  0  0
  189.9030  176.8470  140.8520 C   0  0  2  0  0  3  0  0  0  0  0  0
  191.3020  177.3700  141.0770 C   0  0  0  0  0  0  0  0  0  0  0  0
  189.5290  177.4650  143.2660 C   0  0  0  0  0  0  0  0  0  0  0  0
  190.7120  177.9660  143.3560 N   0  0  0  0  0  0  0  0  0  0  0  0
  192.1290  177.4230  140.1010 N   0  0  0  0  0  2  0  0  0  0  0  0
  188.4630  177.8870  144.2220 C   0  0  0  0  0  2  0  0  0  0  0  0
  188.4760  177.0560  145.4840 C   0  0  0  0  0  2  0  0  0  0  0  0
  189.1740  177.7470  146.5540 N   0  0  0  0  0  2  0  0  0  0  0  0
  191.9080  177.1240  146.0290 N   0  0  0  0  0  2  0  0  0  0  0  0
  192.0280  175.5330  147.8150 C   0  0  0  0  0  1  0  0  0  0  0  0
  191.2990  176.5340  147.0040 C   0  0  0  0  0  0  0  0  0  0  0  0
  189.8990  176.7750  147.2590 N   0  0  0  0  0  2  0  0  0  0  0  0
  1  6  1  0  0  0  0
  2  9  1  0  0  0  0
  3  1  1  0  0  0  0
  3 28  1  1  0  0  0
  4  3  1  0  0  0  0
  4  1  1  0  0  0  0
  5 14  1  0  0  0  0
  5 15  1  0  0  0  0
  6 13  1  0  0  0  0
  7 11  1  0  0  0  0
  8  2  1  0  0  0  0
 10  7  2  0  0  0  0
 10 12  1  0  0  0  0
 11  2  2  0  0  0  0
 12  8  2  0  0  0  0
 13 14  2  0  0  0  0
 14 10  1  0  0  0  0
 15 18  2  0  0  0  0
 16  5  2  0  0  0  0
 17 16  1  0  0  0  0
 17  6  2  0  0  0  0
 18  7  1  0  0  0  0
 19 16  1  0  0  0  0
 20 23  2  0  0  0  0
 20 21  1  0  0  0  0
 21 25  2  0  0  0  0
 23 24  1  0  0  0  0
 24 19  1  0  0  0  0
 24 22  2  0  0  0  0
 25 22  1  0  0  0  0
 27 21  1  0  0  0  0
 27 26  1  0  0  0  0
 28 29  1  0  0  0  0
 30 34  1  0  0  0  0
 31 35  1  0  0  0  0
 32 29  1  1  0  0  0
 32 33  1  0  0  0  0
 32 30  1  0  0  0  0
 33 31  1  0  0  0  0
 34 35  2  0  0  0  0
 34 37  1  0  0  0  0
 36 33  2  0  0  0  0
 37 38  1  0  0  0  0
 38 39  1  0  0  0  0
 39 43  1  0  0  0  0
 40 42  2  0  0  0  0
 42 43  1  0  0  0  0
 42 41  1  0  0  0  0
M  END
>  <MODEL>
8

>  <REMARK>
 VINA RESULT:      -8.4      2.472      4.040
  Name = 
  10 active torsions:
  status: ('A' for Active; 'I' for Inactive)
    1  A    between atoms: C_1  and  C_34
    2  A    between atoms: C_1  and  C_35
    3  A    between atoms: C_3  and  C_12
    4  A    between atoms: C_3  and  S_17
    5  A    between atoms: C_6  and  S_17
    6  A    between atoms: C_11  and  C_14
    7  A    between atoms: C_11  and  N_36
    8  A    between atoms: C_14  and  C_22
    9  A    between atoms: C_19  and  C_37
   10  A    between atoms: N_36  and  N_40
                            x       y       z     vdW  Elec       q    Type
                         _______ _______ _______ _____ _____    ______ ____

>  <TORSDO>
F 10

$$$$
=
 OpenBabel10272414363D

 43 48  0  0  1  0  0  0  0  0999 V2000
  188.4140  178.3820  139.5850 N   0  0  0  0  0  0  0  0  0  0  0  0
  189.9260  177.0820  146.7000 C   0  0  0  0  0  0  0  0  0  0  0  0
  189.6490  178.2440  138.7510 C   0  0  2  0  0  3  0  0  0  0  0  0
  188.4670  178.5340  138.1000 C   0  0  0  0  0  2  0  0  0  0  0  0
  186.4000  178.1490  143.2610 C   0  0  0  0  0  0  0  0  0  0  0  0
  187.7310  178.3330  140.8300 C   0  0  0  0  0  0  0  0  0  0  0  0
  187.8380  177.5670  145.5760 C   0  0  0  0  0  0  0  0  0  0  0  0
  190.6100  177.1990  145.4910 C   0  0  0  0  0  3  0  0  0  0  0  0
  190.6020  176.7770  147.8210 F   0  0  0  0  0  0  0  0  0  0  0  0
  188.5260  177.6770  144.3460 C   0  0  0  0  0  0  0  0  0  0  0  0
  188.5420  177.2690  146.7440 C   0  0  0  0  0  3  0  0  0  0  0  0
  189.9150  177.4960  144.3190 C   0  0  0  0  0  3  0  0  0  0  0  0
  188.4180  178.0610  141.9720 N   0  0  0  0  0  0  0  0  0  0  0  0
  187.7980  177.9650  143.1800 C   0  0  0  0  0  0  0  0  0  0  0  0
  185.7700  178.0370  144.5060 C   0  0  0  0  0  3  0  0  0  0  0  0
  185.6770  178.4450  142.0910 C   0  0  0  0  0  0  0  0  0  0  0  0
  186.3500  178.5290  140.8710 C   0  0  0  0  0  3  0  0  0  0  0  0
  186.4910  177.7500  145.6210 N   0  0  0  0  0  0  0  0  0  0  0  0
  184.1920  178.6460  142.1140 C   0  0  0  0  0  2  0  0  0  0  0  0
  183.0010  179.3740  138.5930 C   0  0  0  0  0  3  0  0  0  0  0  0
  182.5380  178.1160  138.1920 C   0  0  0  0  0  0  0  0  0  0  0  0
  183.1620  177.2040  140.3450 C   0  0  0  0  0  3  0  0  0  0  0  0
  183.5350  179.5470  139.8730 C   0  0  0  0  0  3  0  0  0  0  0  0
  183.6110  178.4620  140.7530 C   0  0  0  0  0  0  0  0  0  0  0  0
  182.6250  177.0320  139.0660 C   0  0  0  0  0  3  0  0  0  0  0  0
  180.6650  177.1710  136.9120 C   0  0  0  0  0  1  0  0  0  0  0  0
  181.9710  177.9250  136.8300 C   0  0  0  0  0  2  0  0  0  0  0  0
  190.0400  176.4840  138.5760 S   0  0  0  0  0  0  0  0  0  0  0  0
  190.2920  176.6290  136.7740 C   0  0  0  0  0  2  0  0  0  0  0  0
  188.1970  175.8250  135.5490 C   0  0  0  0  0  2  0  0  0  0  0  0
  188.4690  173.3930  136.9710 C   0  0  0  0  0  2  0  0  0  0  0  0
  189.6360  175.4910  135.9810 C   0  0  2  0  0  3  0  0  0  0  0  0
  189.7260  174.1620  136.6930 C   0  0  0  0  0  0  0  0  0  0  0  0
  187.1880  175.3830  136.5730 C   0  0  0  0  0  0  0  0  0  0  0  0
  187.3610  174.2900  137.2320 N   0  0  0  0  0  0  0  0  0  0  0  0
  190.8640  173.5960  136.8460 N   0  0  0  0  0  2  0  0  0  0  0  0
  186.0060  176.2490  136.8580 C   0  0  0  0  0  2  0  0  0  0  0  0
  185.0950  176.3710  135.6580 C   0  0  0  0  0  2  0  0  0  0  0  0
  184.6520  175.0620  135.2080 N   0  0  0  0  0  2  0  0  0  0  0  0
  184.0690  172.9750  137.0620 N   0  0  0  0  0  2  0  0  0  0  0  0
  181.7970  173.6770  137.3460 C   0  0  0  0  0  1  0  0  0  0  0  0
  183.1450  173.8210  136.7500 C   0  0  0  0  0  0  0  0  0  0  0  0
  183.3830  174.8500  135.7660 N   0  0  0  0  0  2  0  0  0  0  0  0
  1  6  1  0  0  0  0
  2 11  1  0  0  0  0
  2  9  1  0  0  0  0
  3 28  1  6  0  0  0
  3  1  1  0  0  0  0
  4  3  1  0  0  0  0
  4  1  1  0  0  0  0
  5 15  1  0  0  0  0
  6 17  2  0  0  0  0
  6 13  1  0  0  0  0
  7 18  1  0  0  0  0
  7 11  2  0  0  0  0
  8  2  2  0  0  0  0
 10  7  1  0  0  0  0
 12 10  2  0  0  0  0
 12  8  1  0  0  0  0
 13 14  2  0  0  0  0
 14  5  1  0  0  0  0
 14 10  1  0  0  0  0
 15 18  2  0  0  0  0
 16 19  1  0  0  0  0
 16  5  2  0  0  0  0
 17 16  1  0  0  0  0
 20 23  1  0  0  0  0
 21 20  2  0  0  0  0
 21 25  1  0  0  0  0
 22 24  1  0  0  0  0
 23 24  2  0  0  0  0
 24 19  1  0  0  0  0
 25 22  2  0  0  0  0
 27 26  1  0  0  0  0
 27 21  1  0  0  0  0
 29 28  1  0  0  0  0
 30 32  1  0  0  0  0
 30 34  1  0  0  0  0
 31 35  1  0  0  0  0
 32 33  1  0  0  0  0
 32 29  1  1  0  0  0
 33 36  2  0  0  0  0
 33 31  1  0  0  0  0
 34 37  1  0  0  0  0
 34 35  2  0  0  0  0
 38 37  1  0  0  0  0
 39 38  1  0  0  0  0
 39 43  1  0  0  0  0
 42 40  2  0  0  0  0
 42 41  1  0  0  0  0
 43 42  1  0  0  0  0
M  END
>  <MODEL>
9

>  <REMARK>
 VINA RESULT:      -8.2      2.983      6.023
  Name = 
  10 active torsions:
  status: ('A' for Active; 'I' for Inactive)
    1  A    between atoms: C_1  and  C_34
    2  A    between atoms: C_1  and  C_35
    3  A    between atoms: C_3  and  C_12
    4  A    between atoms: C_3  and  S_17
    5  A    between atoms: C_6  and  S_17
    6  A    between atoms: C_11  and  C_14
    7  A    between atoms: C_11  and  N_36
    8  A    between atoms: C_14  and  C_22
    9  A    between atoms: C_19  and  C_37
   10  A    between atoms: N_36  and  N_40
                            x       y       z     vdW  Elec       q    Type
                         _______ _______ _______ _____ _____    ______ ____

>  <TORSDO>
F 10

$$$$
