=
 OpenBabel10272400553D

 25 29  0  0  1  0  0  0  0  0999 V2000
  187.7340  177.5000  145.5930 C   0  0  0  0  0  0  0  0  0  0  0  0
  186.8690  177.6540  144.5010 C   0  0  0  0  0  0  0  0  0  0  0  0
  186.2980  178.7780  147.0480 C   0  0  0  0  0  3  0  0  0  0  0  0
  188.9850  176.7040  145.7260 C   0  0  2  0  0  3  0  0  0  0  0  0
  187.3500  177.9780  142.0640 C   0  0  1  0  0  0  0  0  0  0  0  0
  191.6820  176.8950  146.7210 C   0  0  0  0  0  3  0  0  0  0  0  0
  185.4240  178.9730  145.9710 C   0  0  0  0  0  3  0  0  0  0  0  0
  189.3270  177.0120  147.1600 C   0  0  0  0  0  0  0  0  0  0  0  0
  190.7030  176.8440  147.6340 C   0  0  0  0  0  3  0  0  0  0  0  0
  184.7270  178.6830  143.6230 N   0  0  0  0  0  0  0  0  0  0  0  0
  183.5300  179.4710  143.8840 C   0  0  0  0  0  1  0  0  0  0  0  0
  188.5990  178.8450  142.1160 C   0  0  0  0  0  2  0  0  0  0  0  0
  187.2300  176.9770  143.2130 C   0  0  0  0  0  2  0  0  0  0  0  0
  191.3770  177.1650  145.2900 C   0  0  0  0  0  3  0  0  0  0  0  0
  187.4410  178.0220  146.8280 C   0  0  0  0  0  0  0  0  0  0  0  0
  188.4570  177.7470  147.7790 N   0  0  0  0  0  0  0  0  0  0  0  0
  184.8600  178.1760  142.2620 C   0  0  0  0  0  2  0  0  0  0  0  0
  189.4570  176.6220  141.2750 C   0  0  0  0  0  1  0  0  0  0  0  0
  190.1160  177.1410  144.8300 C   0  0  0  0  0  3  0  0  0  0  0  0
  186.1100  178.7370  141.6010 C   0  0  0  0  0  2  0  0  0  0  0  0
  185.6780  178.4230  144.6890 C   0  0  0  0  0  0  0  0  0  0  0  0
  188.4770  177.7630  141.0550 C   0  0  1  0  0  0  0  0  0  0  0  0
  188.3300  178.3050  139.6680 C   0  0  0  0  0  0  0  0  0  0  0  0
  188.9650  179.3370  139.3250 O   0  0  0  0  0  1  0  0  0  0  0  0
  187.4610  177.7010  138.7680 O   0  0  0  0  0  0  0  0  0  0  0  0
  1  4  1  0  0  0  0
  1 15  1  0  0  0  0
  2 21  1  0  0  0  0
  2  1  2  0  0  0  0
  4 19  1  6  0  0  0
  4  8  1  0  0  0  0
  5 20  1  6  0  0  0
  5 12  1  0  0  0  0
  5 13  1  0  0  0  0
  6  9  2  0  0  0  0
  7  3  1  0  0  0  0
  8  9  1  0  0  0  0
  8 16  2  0  0  0  0
 10 11  1  0  0  0  0
 10 21  1  0  0  0  0
 13  2  1  0  0  0  0
 14  6  1  0  0  0  0
 15  3  2  0  0  0  0
 15 16  1  0  0  0  0
 17 10  1  0  0  0  0
 19 14  2  0  0  0  0
 20 17  1  0  0  0  0
 21  7  2  0  0  0  0
 22 18  1  1  0  0  0
 22  5  1  0  0  0  0
 22 12  1  0  0  0  0
 23 22  1  0  0  0  0
 24 23  1  0  0  0  0
 25 23  2  0  0  0  0
M  END
>  <MODEL>
1

>  <REMARK>
 VINA RESULT:     -10.2      0.000      0.000
  Name = 
  1 active torsions:
  status: ('A' for Active; 'I' for Inactive)
    1  A    between atoms: C_2  and  C_25
                            x       y       z     vdW  Elec       q    Type
                         _______ _______ _______ _____ _____    ______ ____

>  <TORSDO>
F 1

$$$$
=
 OpenBabel10272400553D

 25 29  0  0  1  0  0  0  0  0999 V2000
  187.5340  178.1040  145.7110 C   0  0  0  0  0  0  0  0  0  0  0  0
  188.8750  177.9190  145.3460 C   0  0  0  0  0  0  0  0  0  0  0  0
  187.8370  176.9590  147.8100 C   0  0  0  0  0  3  0  0  0  0  0  0
  186.4470  178.8630  145.0330 C   0  0  2  0  0  3  0  0  0  0  0  0
  189.9140  177.4430  143.1160 C   0  0  1  0  0  0  0  0  0  0  0  0
  183.6790  178.6350  144.2680 C   0  0  0  0  0  3  0  0  0  0  0  0
  189.1760  176.7350  147.4660 C   0  0  0  0  0  3  0  0  0  0  0  0
  185.3280  178.6230  146.0110 C   0  0  0  0  0  0  0  0  0  0  0  0
  183.9360  178.7710  145.5760 C   0  0  0  0  0  3  0  0  0  0  0  0
  191.1190  176.9170  145.9590 N   0  0  0  0  0  0  0  0  0  0  0  0
  191.9320  176.1870  146.9230 C   0  0  0  0  0  1  0  0  0  0  0  0
  188.8690  176.5380  142.4840 C   0  0  0  0  0  2  0  0  0  0  0  0
  189.3420  178.5100  144.0490 C   0  0  0  0  0  2  0  0  0  0  0  0
  184.7650  178.2960  143.3090 C   0  0  0  0  0  3  0  0  0  0  0  0
  187.0450  177.6620  146.9140 C   0  0  0  0  0  0  0  0  0  0  0  0
  185.6650  177.9550  147.0690 N   0  0  0  0  0  0  0  0  0  0  0  0
  191.8130  177.3420  144.7480 C   0  0  0  0  0  2  0  0  0  0  0  0
  188.6780  178.6790  141.1560 C   0  0  0  0  0  1  0  0  0  0  0  0
  186.0560  178.3370  143.6750 C   0  0  0  0  0  3  0  0  0  0  0  0
  191.1860  176.7020  143.5190 C   0  0  0  0  0  2  0  0  0  0  0  0
  189.7250  177.2030  146.2450 C   0  0  0  0  0  0  0  0  0  0  0  0
  189.5950  177.5620  141.6270 C   0  0  1  0  0  0  0  0  0  0  0  0
  190.5260  176.9490  140.6280 C   0  0  0  0  0  0  0  0  0  0  0  0
  190.2060  175.8800  140.0440 O   0  0  0  0  0  0  0  0  0  0  0  0
  191.7630  177.5280  140.3750 O   0  0  0  0  0  1  0  0  0  0  0  0
  1 15  1  0  0  0  0
  2  1  2  0  0  0  0
  2 21  1  0  0  0  0
  4 19  1  6  0  0  0
  4  1  1  0  0  0  0
  4  8  1  0  0  0  0
  5 12  1  1  0  0  0
  5 20  1  0  0  0  0
  5 13  1  0  0  0  0
  6  9  2  0  0  0  0
  7  3  1  0  0  0  0
  8 16  2  0  0  0  0
  9  8  1  0  0  0  0
 10 21  1  0  0  0  0
 10 11  1  0  0  0  0
 13  2  1  0  0  0  0
 14 19  2  0  0  0  0
 14  6  1  0  0  0  0
 15 16  1  0  0  0  0
 15  3  2  0  0  0  0
 17 10  1  0  0  0  0
 20 17  1  0  0  0  0
 21  7  2  0  0  0  0
 22 18  1  6  0  0  0
 22 12  1  0  0  0  0
 22  5  1  0  0  0  0
 23 22  1  0  0  0  0
 24 23  2  0  0  0  0
 25 23  1  0  0  0  0
M  END
>  <MODEL>
2

>  <REMARK>
 VINA RESULT:     -10.1      1.754      4.847
  Name = 
  1 active torsions:
  status: ('A' for Active; 'I' for Inactive)
    1  A    between atoms: C_2  and  C_25
                            x       y       z     vdW  Elec       q    Type
                         _______ _______ _______ _____ _____    ______ ____

>  <TORSDO>
F 1

$$$$
=
 OpenBabel10272400553D

 25 29  0  0  1  0  0  0  0  0999 V2000
  187.1320  177.7610  143.0680 C   0  0  0  0  0  0  0  0  0  0  0  0
  188.4290  177.2400  143.1650 C   0  0  0  0  0  0  0  0  0  0  0  0
  187.5800  178.7630  140.9230 C   0  0  0  0  0  3  0  0  0  0  0  0
  185.9530  177.5820  143.9590 C   0  0  2  0  0  3  0  0  0  0  0  0
  189.9470  176.9810  145.1430 C   0  0  1  0  0  0  0  0  0  0  0  0
  183.8450  179.0760  145.2350 C   0  0  0  0  0  3  0  0  0  0  0  0
  188.8920  178.2790  140.9990 C   0  0  0  0  0  3  0  0  0  0  0  0
  184.9440  178.4090  143.2090 C   0  0  0  0  0  0  0  0  0  0  0  0
  183.7640  178.9290  143.9050 C   0  0  0  0  0  3  0  0  0  0  0  0
  190.7260  177.0600  142.1090 N   0  0  0  0  0  0  0  0  0  0  0  0
  191.6060  177.3690  140.9910 C   0  0  0  0  0  1  0  0  0  0  0  0
  189.6160  178.2320  145.9410 C   0  0  0  0  0  2  0  0  0  0  0  0
  188.7670  176.4020  144.3630 C   0  0  0  0  0  2  0  0  0  0  0  0
  185.1070  178.7690  145.9590 C   0  0  0  0  0  3  0  0  0  0  0  0
  186.7190  178.4730  141.9710 C   0  0  0  0  0  0  0  0  0  0  0  0
  185.3720  178.9040  142.0900 N   0  0  0  0  0  0  0  0  0  0  0  0
  191.3220  176.2620  143.1750 C   0  0  0  0  0  2  0  0  0  0  0  0
  188.6340  176.3650  147.3320 C   0  0  0  0  0  1  0  0  0  0  0  0
  186.1210  178.1300  145.3540 C   0  0  0  0  0  3  0  0  0  0  0  0
  191.3230  177.0330  144.4860 C   0  0  0  0  0  2  0  0  0  0  0  0
  189.3460  177.5130  142.1030 C   0  0  0  0  0  0  0  0  0  0  0  0
  189.8820  176.9240  146.6680 C   0  0  1  0  0  0  0  0  0  0  0  0
  191.1540  176.9280  147.4550 C   0  0  0  0  0  0  0  0  0  0  0  0
  191.4320  177.9080  148.1960 O   0  0  0  0  0  1  0  0  0  0  0  0
  192.0550  175.8770  147.3380 O   0  0  0  0  0  0  0  0  0  0  0  0
  1  2  1  0  0  0  0
  1  4  1  0  0  0  0
  2 13  1  0  0  0  0
  3  7  2  0  0  0  0
  3 15  1  0  0  0  0
  4 19  1  1  0  0  0
  5 13  1  6  0  0  0
  5 12  1  0  0  0  0
  5 22  1  0  0  0  0
  6 14  1  0  0  0  0
  7 21  1  0  0  0  0
  8  9  1  0  0  0  0
  8  4  1  0  0  0  0
  9  6  2  0  0  0  0
 10 17  1  0  0  0  0
 11 10  1  0  0  0  0
 12 22  1  0  0  0  0
 15 16  1  0  0  0  0
 15  1  2  0  0  0  0
 16  8  2  0  0  0  0
 17 20  1  0  0  0  0
 19 14  2  0  0  0  0
 20  5  1  0  0  0  0
 21 10  1  0  0  0  0
 21  2  2  0  0  0  0
 22 18  1  1  0  0  0
 22 23  1  0  0  0  0
 23 24  1  0  0  0  0
 25 23  2  0  0  0  0
M  END
>  <MODEL>
3

>  <REMARK>
 VINA RESULT:      -9.9      3.152      6.286
  Name = 
  1 active torsions:
  status: ('A' for Active; 'I' for Inactive)
    1  A    between atoms: C_2  and  C_25
                            x       y       z     vdW  Elec       q    Type
                         _______ _______ _______ _____ _____    ______ ____

>  <TORSDO>
F 1

$$$$
=
 OpenBabel10272400553D

 25 29  0  0  1  0  0  0  0  0999 V2000
  189.1200  177.2470  143.4150 C   0  0  0  0  0  0  0  0  0  0  0  0
  188.1650  177.2940  144.4400 C   0  0  0  0  0  0  0  0  0  0  0  0
  190.9380  177.6550  144.9440 C   0  0  0  0  0  3  0  0  0  0  0  0
  188.9670  176.9220  141.9700 C   0  0  2  0  0  3  0  0  0  0  0  0
  185.8350  178.2130  144.4670 C   0  0  1  0  0  0  0  0  0  0  0  0
  189.7570  177.8440  139.3570 C   0  0  0  0  0  3  0  0  0  0  0  0
  190.0080  177.7330  145.9890 C   0  0  0  0  0  3  0  0  0  0  0  0
  190.4000  177.0560  141.5310 C   0  0  0  0  0  0  0  0  0  0  0  0
  190.7110  177.2880  140.1170 C   0  0  0  0  0  3  0  0  0  0  0  0
  187.7210  177.6640  146.9070 N   0  0  0  0  0  0  0  0  0  0  0  0
  188.2490  177.9260  148.2380 C   0  0  0  0  0  1  0  0  0  0  0  0
  185.9820  179.4320  143.5700 C   0  0  0  0  0  2  0  0  0  0  0  0
  186.7320  177.0370  144.0830 C   0  0  0  0  0  2  0  0  0  0  0  0
  188.4550  178.2540  139.9490 C   0  0  0  0  0  3  0  0  0  0  0  0
  190.4610  177.3950  143.6680 C   0  0  0  0  0  0  0  0  0  0  0  0
  191.2390  177.3150  142.4840 N   0  0  0  0  0  0  0  0  0  0  0  0
  186.2740  177.4980  146.8280 C   0  0  0  0  0  2  0  0  0  0  0  0
  184.5910  177.8420  142.1840 C   0  0  0  0  0  1  0  0  0  0  0  0
  188.1050  177.8830  141.1900 C   0  0  0  0  0  3  0  0  0  0  0  0
  185.6590  178.5690  145.9410 C   0  0  0  0  0  2  0  0  0  0  0  0
  188.6180  177.5540  145.7710 C   0  0  0  0  0  0  0  0  0  0  0  0
  184.7160  178.5940  143.4990 C   0  0  1  0  0  0  0  0  0  0  0  0
  183.5050  179.3000  144.0220 C   0  0  0  0  0  0  0  0  0  0  0  0
  183.4930  180.5570  144.0960 O   0  0  0  0  0  0  0  0  0  0  0  0
  182.4090  178.5740  144.4710 O   0  0  0  0  0  1  0  0  0  0  0  0
  1 15  2  0  0  0  0
  1  2  1  0  0  0  0
  2 21  2  0  0  0  0
  3  7  2  0  0  0  0
  4 19  1  6  0  0  0
  4  1  1  0  0  0  0
  5 12  1  6  0  0  0
  5 20  1  0  0  0  0
  6 14  1  0  0  0  0
  6  9  2  0  0  0  0
  8  4  1  0  0  0  0
  8 16  2  0  0  0  0
  9  8  1  0  0  0  0
 10 11  1  0  0  0  0
 13  2  1  0  0  0  0
 13  5  1  0  0  0  0
 14 19  2  0  0  0  0
 15  3  1  0  0  0  0
 16 15  1  0  0  0  0
 17 10  1  0  0  0  0
 20 17  1  0  0  0  0
 21  7  1  0  0  0  0
 21 10  1  0  0  0  0
 22 18  1  6  0  0  0
 22 12  1  0  0  0  0
 22 23  1  0  0  0  0
 22  5  1  0  0  0  0
 23 24  2  0  0  0  0
 23 25  1  0  0  0  0
M  END
>  <MODEL>
4

>  <REMARK>
 VINA RESULT:      -9.4      2.646      5.182
  Name = 
  1 active torsions:
  status: ('A' for Active; 'I' for Inactive)
    1  A    between atoms: C_2  and  C_25
                            x       y       z     vdW  Elec       q    Type
                         _______ _______ _______ _____ _____    ______ ____

>  <TORSDO>
F 1

$$$$
=
 OpenBabel10272400553D

 25 29  0  0  1  0  0  0  0  0999 V2000
  186.6280  178.0270  144.9010 C   0  0  0  0  0  0  0  0  0  0  0  0
  186.6860  177.8460  143.5130 C   0  0  0  0  0  0  0  0  0  0  0  0
  184.8460  179.6410  144.7240 C   0  0  0  0  0  3  0  0  0  0  0  0
  187.3550  177.3260  145.9950 C   0  0  2  0  0  3  0  0  0  0  0  0
  188.6390  177.4680  141.9900 C   0  0  1  0  0  0  0  0  0  0  0  0
  188.8070  177.8430  148.4290 C   0  0  0  0  0  3  0  0  0  0  0  0
  184.8940  179.5030  143.3310 C   0  0  0  0  0  3  0  0  0  0  0  0
  186.7660  178.0380  147.1830 C   0  0  0  0  0  0  0  0  0  0  0  0
  187.4820  178.0380  148.4620 C   0  0  0  0  0  3  0  0  0  0  0  0
  185.7910  178.5400  141.2460 N   0  0  0  0  0  0  0  0  0  0  0  0
  184.8570  179.3470  140.4740 C   0  0  0  0  0  1  0  0  0  0  0  0
  189.7030  178.3360  142.6430 C   0  0  0  0  0  2  0  0  0  0  0  0
  187.6520  176.8350  142.9710 C   0  0  0  0  0  2  0  0  0  0  0  0
  189.5220  177.6870  147.1330 C   0  0  0  0  0  3  0  0  0  0  0  0
  185.7200  178.8750  145.4830 C   0  0  0  0  0  0  0  0  0  0  0  0
  185.8440  178.9020  146.8960 N   0  0  0  0  0  0  0  0  0  0  0  0
  186.6610  177.6670  140.4640 C   0  0  0  0  0  2  0  0  0  0  0  0
  190.4970  175.9830  143.1030 C   0  0  0  0  0  1  0  0  0  0  0  0
  188.8510  177.5100  145.9840 C   0  0  0  0  0  3  0  0  0  0  0  0
  188.1210  178.0390  140.6730 C   0  0  0  0  0  2  0  0  0  0  0  0
  185.7980  178.6140  142.6950 C   0  0  0  0  0  0  0  0  0  0  0  0
  190.0910  176.9940  142.0440 C   0  0  1  0  0  0  0  0  0  0  0  0
  190.9450  177.1140  140.8220 C   0  0  0  0  0  0  0  0  0  0  0  0
  191.8230  178.0140  140.7530 O   0  0  0  0  0  1  0  0  0  0  0  0
  190.7450  176.2640  139.7410 O   0  0  0  0  0  0  0  0  0  0  0  0
  1 15  1  0  0  0  0
  1  4  1  0  0  0  0
  2  1  2  0  0  0  0
  3 15  2  0  0  0  0
  4 19  1  6  0  0  0
  4  8  1  0  0  0  0
  5 20  1  6  0  0  0
  5 22  1  0  0  0  0
  5 12  1  0  0  0  0
  5 13  1  0  0  0  0
  6  9  2  0  0  0  0
  7  3  1  0  0  0  0
  8  9  1  0  0  0  0
 10 21  1  0  0  0  0
 11 10  1  0  0  0  0
 13  2  1  0  0  0  0
 14  6  1  0  0  0  0
 15 16  1  0  0  0  0
 16  8  2  0  0  0  0
 17 20  1  0  0  0  0
 17 10  1  0  0  0  0
 19 14  2  0  0  0  0
 21  7  2  0  0  0  0
 21  2  1  0  0  0  0
 22 12  1  0  0  0  0
 22 18  1  1  0  0  0
 23 22  1  0  0  0  0
 24 23  1  0  0  0  0
 25 23  2  0  0  0  0
M  END
>  <MODEL>
5

>  <REMARK>
 VINA RESULT:      -9.4      1.733      2.556
  Name = 
  1 active torsions:
  status: ('A' for Active; 'I' for Inactive)
    1  A    between atoms: C_2  and  C_25
                            x       y       z     vdW  Elec       q    Type
                         _______ _______ _______ _____ _____    ______ ____

>  <TORSDO>
F 1

$$$$
=
 OpenBabel10272400553D

 25 29  0  0  1  0  0  0  0  0999 V2000
  185.3440  178.6870  144.7120 C   0  0  0  0  0  0  0  0  0  0  0  0
  186.6500  178.5150  145.1900 C   0  0  0  0  0  0  0  0  0  0  0  0
  184.3820  178.2770  146.8840 C   0  0  0  0  0  3  0  0  0  0  0  0
  184.8570  179.1030  143.3680 C   0  0  2  0  0  3  0  0  0  0  0  0
  188.6600  177.4650  144.1230 C   0  0  1  0  0  0  0  0  0  0  0  0
  182.9030  178.4110  141.3670 C   0  0  0  0  0  3  0  0  0  0  0  0
  185.6720  178.0740  147.3900 C   0  0  0  0  0  3  0  0  0  0  0  0
  183.3730  179.0810  143.6220 C   0  0  0  0  0  0  0  0  0  0  0  0
  182.4420  178.9660  142.4960 C   0  0  0  0  0  3  0  0  0  0  0  0
  188.1250  177.9500  147.1710 N   0  0  0  0  0  0  0  0  0  0  0  0
  188.2330  177.6260  148.5870 C   0  0  0  0  0  1  0  0  0  0  0  0
  188.0260  176.3230  143.3460 C   0  0  0  0  0  2  0  0  0  0  0  0
  187.7860  178.7150  144.2310 C   0  0  0  0  0  2  0  0  0  0  0  0
  184.2940  177.8880  141.2870 C   0  0  0  0  0  3  0  0  0  0  0  0
  184.2540  178.5980  145.5400 C   0  0  0  0  0  0  0  0  0  0  0  0
  183.0350  178.8040  144.8420 N   0  0  0  0  0  0  0  0  0  0  0  0
  189.3910  178.0380  146.4510 C   0  0  0  0  0  2  0  0  0  0  0  0
  188.7700  177.9240  141.5390 C   0  0  0  0  0  1  0  0  0  0  0  0
  185.1940  178.1510  142.2480 C   0  0  0  0  0  3  0  0  0  0  0  0
  189.4500  176.9990  145.3420 C   0  0  0  0  0  2  0  0  0  0  0  0
  186.8250  178.1890  146.5710 C   0  0  0  0  0  0  0  0  0  0  0  0
  189.1880  177.0910  142.7390 C   0  0  1  0  0  0  0  0  0  0  0  0
  190.4430  176.2820  142.6300 C   0  0  0  0  0  0  0  0  0  0  0  0
  190.4090  175.0390  142.8290 O   0  0  0  0  0  1  0  0  0  0  0  0
  191.6550  176.9030  142.3550 O   0  0  0  0  0  0  0  0  0  0  0  0
  1  2  2  0  0  0  0
  1 15  1  0  0  0  0
  2 21  1  0  0  0  0
  3  7  1  0  0  0  0
  4 19  1  6  0  0  0
  4  8  1  0  0  0  0
  4  1  1  0  0  0  0
  5 12  1  1  0  0  0
  5 13  1  0  0  0  0
  5 20  1  0  0  0  0
  6  9  2  0  0  0  0
  8 16  2  0  0  0  0
  9  8  1  0  0  0  0
 10 11  1  0  0  0  0
 13  2  1  0  0  0  0
 14  6  1  0  0  0  0
 14 19  2  0  0  0  0
 15  3  2  0  0  0  0
 16 15  1  0  0  0  0
 17 10  1  0  0  0  0
 20 17  1  0  0  0  0
 21 10  1  0  0  0  0
 21  7  2  0  0  0  0
 22 18  1  6  0  0  0
 22 12  1  0  0  0  0
 22  5  1  0  0  0  0
 23 22  1  0  0  0  0
 23 24  1  0  0  0  0
 25 23  2  0  0  0  0
M  END
>  <MODEL>
6

>  <REMARK>
 VINA RESULT:      -8.8      1.956      5.304
  Name = 
  1 active torsions:
  status: ('A' for Active; 'I' for Inactive)
    1  A    between atoms: C_2  and  C_25
                            x       y       z     vdW  Elec       q    Type
                         _______ _______ _______ _____ _____    ______ ____

>  <TORSDO>
F 1

$$$$
=
 OpenBabel10272400553D

 25 29  0  0  1  0  0  0  0  0999 V2000
  189.5830  177.6310  144.2210 C   0  0  0  0  0  0  0  0  0  0  0  0
  189.3500  177.9440  142.8750 C   0  0  0  0  0  0  0  0  0  0  0  0
  191.3090  176.0440  143.6640 C   0  0  0  0  0  3  0  0  0  0  0  0
  189.0100  178.2240  145.4610 C   0  0  2  0  0  3  0  0  0  0  0  0
  187.2220  178.4640  141.6590 C   0  0  1  0  0  0  0  0  0  0  0  0
  187.8750  177.4730  148.0010 C   0  0  0  0  0  3  0  0  0  0  0  0
  191.0850  176.3140  142.3080 C   0  0  0  0  0  3  0  0  0  0  0  0
  189.7380  177.4010  146.4910 C   0  0  0  0  0  0  0  0  0  0  0  0
  189.1920  177.2780  147.8450 C   0  0  0  0  0  3  0  0  0  0  0  0
  189.9390  177.4710  140.4570 N   0  0  0  0  0  0  0  0  0  0  0  0
  190.7580  176.7430  139.4980 C   0  0  0  0  0  1  0  0  0  0  0  0
  186.2410  177.5350  142.3580 C   0  0  0  0  0  2  0  0  0  0  0  0
  188.3330  179.0010  142.5610 C   0  0  0  0  0  2  0  0  0  0  0  0
  187.0020  177.7520  146.8290 C   0  0  0  0  0  3  0  0  0  0  0  0
  190.5490  176.7320  144.5980 C   0  0  0  0  0  0  0  0  0  0  0  0
  190.6060  176.5690  146.0070 N   0  0  0  0  0  0  0  0  0  0  0  0
  188.9870  178.4140  139.8800 C   0  0  0  0  0  2  0  0  0  0  0  0
  185.5380  179.8330  143.1380 C   0  0  0  0  0  1  0  0  0  0  0  0
  187.5220  178.0390  145.6250 C   0  0  0  0  0  3  0  0  0  0  0  0
  187.5610  178.0220  140.2380 C   0  0  0  0  0  2  0  0  0  0  0  0
  190.1180  177.2590  141.8820 C   0  0  0  0  0  0  0  0  0  0  0  0
  185.7950  178.9280  141.9440 C   0  0  1  0  0  0  0  0  0  0  0  0
  184.7900  178.9250  140.8350 C   0  0  0  0  0  0  0  0  0  0  0  0
  183.9370  178.0010  140.7620 O   0  0  0  0  0  1  0  0  0  0  0  0
  184.8200  179.9130  139.8590 O   0  0  0  0  0  0  0  0  0  0  0  0
  1 15  1  0  0  0  0
  1  4  1  0  0  0  0
  2  1  2  0  0  0  0
  3 15  2  0  0  0  0
  4 19  1  6  0  0  0
  4  8  1  0  0  0  0
  5 20  1  6  0  0  0
  5 22  1  0  0  0  0
  5 12  1  0  0  0  0
  5 13  1  0  0  0  0
  7  3  1  0  0  0  0
  8  9  1  0  0  0  0
  9  6  2  0  0  0  0
 10 21  1  0  0  0  0
 11 10  1  0  0  0  0
 13  2  1  0  0  0  0
 14  6  1  0  0  0  0
 15 16  1  0  0  0  0
 16  8  2  0  0  0  0
 17 20  1  0  0  0  0
 17 10  1  0  0  0  0
 19 14  2  0  0  0  0
 21  7  2  0  0  0  0
 21  2  1  0  0  0  0
 22 12  1  0  0  0  0
 22 18  1  1  0  0  0
 23 22  1  0  0  0  0
 24 23  1  0  0  0  0
 25 23  2  0  0  0  0
M  END
>  <MODEL>
7

>  <REMARK>
 VINA RESULT:      -8.4      2.144      4.338
  Name = 
  1 active torsions:
  status: ('A' for Active; 'I' for Inactive)
    1  A    between atoms: C_2  and  C_25
                            x       y       z     vdW  Elec       q    Type
                         _______ _______ _______ _____ _____    ______ ____

>  <TORSDO>
F 1

$$$$
=
 OpenBabel10272400553D

 25 29  0  0  1  0  0  0  0  0999 V2000
  187.5880  178.3450  141.1910 C   0  0  0  0  0  0  0  0  0  0  0  0
  187.8820  178.2750  142.5590 C   0  0  0  0  0  0  0  0  0  0  0  0
  185.2120  178.2550  141.5880 C   0  0  0  0  0  3  0  0  0  0  0  0
  188.4880  178.5390  140.0210 C   0  0  2  0  0  3  0  0  0  0  0  0
  189.7380  177.1140  143.7780 C   0  0  1  0  0  0  0  0  0  0  0  0
  189.0050  177.5080  137.3800 C   0  0  0  0  0  3  0  0  0  0  0  0
  185.4710  178.1590  142.9610 C   0  0  0  0  0  3  0  0  0  0  0  0
  187.4670  178.5270  138.9150 C   0  0  0  0  0  0  0  0  0  0  0  0
  187.8810  178.2210  137.5430 C   0  0  0  0  0  3  0  0  0  0  0  0
  186.9730  178.0510  144.9140 N   0  0  0  0  0  0  0  0  0  0  0  0
  185.8180  177.9520  145.7940 C   0  0  0  0  0  1  0  0  0  0  0  0
  189.9030  175.8530  142.9450 C   0  0  0  0  0  2  0  0  0  0  0  0
  189.3210  178.3480  142.9770 C   0  0  0  0  0  2  0  0  0  0  0  0
  189.7660  177.0070  138.5560 C   0  0  0  0  0  3  0  0  0  0  0  0
  186.2960  178.3620  140.7290 C   0  0  0  0  0  0  0  0  0  0  0  0
  186.2370  178.4340  139.3120 N   0  0  0  0  0  0  0  0  0  0  0  0
  188.2710  178.0530  145.5800 C   0  0  0  0  0  2  0  0  0  0  0  0
  191.9980  177.1720  142.4410 C   0  0  0  0  0  1  0  0  0  0  0  0
  189.4890  177.4330  139.7990 C   0  0  0  0  0  3  0  0  0  0  0  0
  189.1010  176.8570  145.1410 C   0  0  0  0  0  2  0  0  0  0  0  0
  186.7920  178.1690  143.4780 C   0  0  0  0  0  0  0  0  0  0  0  0
  191.1310  176.5420  143.5180 C   0  0  1  0  0  0  0  0  0  0  0  0
  191.8090  175.7510  144.5930 C   0  0  0  0  0  0  0  0  0  0  0  0
  192.1570  174.5610  144.3730 O   0  0  0  0  0  0  0  0  0  0  0  0
  192.0170  176.3090  145.8480 O   0  0  0  0  0  1  0  0  0  0  0  0
  1  2  1  0  0  0  0
  2 13  1  0  0  0  0
  2 21  2  0  0  0  0
  3  7  2  0  0  0  0
  4 19  1  6  0  0  0
  4  1  1  0  0  0  0
  5 12  1  6  0  0  0
  5 20  1  0  0  0  0
  6  9  2  0  0  0  0
  6 14  1  0  0  0  0
  7 21  1  0  0  0  0
  8 16  2  0  0  0  0
  8  4  1  0  0  0  0
  9  8  1  0  0  0  0
 10 17  1  0  0  0  0
 10 11  1  0  0  0  0
 12 22  1  0  0  0  0
 13  5  1  0  0  0  0
 14 19  2  0  0  0  0
 15  1  2  0  0  0  0
 15  3  1  0  0  0  0
 16 15  1  0  0  0  0
 20 17  1  0  0  0  0
 21 10  1  0  0  0  0
 22 18  1  6  0  0  0
 22  5  1  0  0  0  0
 22 23  1  0  0  0  0
 23 25  1  0  0  0  0
 24 23  2  0  0  0  0
M  END
>  <MODEL>
8

>  <REMARK>
 VINA RESULT:      -8.0      2.793      5.882
  Name = 
  1 active torsions:
  status: ('A' for Active; 'I' for Inactive)
    1  A    between atoms: C_2  and  C_25
                            x       y       z     vdW  Elec       q    Type
                         _______ _______ _______ _____ _____    ______ ____

>  <TORSDO>
F 1

$$$$
=
 OpenBabel10272400553D

 25 29  0  0  1  0  0  0  0  0999 V2000
  189.6190  177.0560  142.8960 C   0  0  0  0  0  0  0  0  0  0  0  0
  189.3240  176.8710  144.2530 C   0  0  0  0  0  0  0  0  0  0  0  0
  191.9820  177.2600  143.3260 C   0  0  0  0  0  3  0  0  0  0  0  0
  188.7330  176.9940  141.7000 C   0  0  2  0  0  3  0  0  0  0  0  0
  187.3870  177.6630  145.6310 C   0  0  1  0  0  0  0  0  0  0  0  0
  188.1310  178.4130  139.2660 C   0  0  0  0  0  3  0  0  0  0  0  0
  191.7200  177.1040  144.6930 C   0  0  0  0  0  3  0  0  0  0  0  0
  189.7470  177.2720  140.6230 C   0  0  0  0  0  0  0  0  0  0  0  0
  189.3060  177.7720  139.3170 C   0  0  0  0  0  3  0  0  0  0  0  0
  190.2200  176.7640  146.6210 N   0  0  0  0  0  0  0  0  0  0  0  0
  191.3670  176.8020  147.5170 C   0  0  0  0  0  1  0  0  0  0  0  0
  187.1230  179.0310  145.0210 C   0  0  0  0  0  2  0  0  0  0  0  0
  187.8970  176.6190  144.6380 C   0  0  0  0  0  2  0  0  0  0  0  0
  187.3360  178.6490  140.5020 C   0  0  0  0  0  3  0  0  0  0  0  0
  190.9070  177.2170  142.4500 C   0  0  0  0  0  0  0  0  0  0  0  0
  190.9680  177.3900  141.0430 N   0  0  0  0  0  0  0  0  0  0  0  0
  188.9280  176.5490  147.2640 C   0  0  0  0  0  2  0  0  0  0  0  0
  185.1350  177.6590  144.2800 C   0  0  0  0  0  1  0  0  0  0  0  0
  187.6490  178.0410  141.6580 C   0  0  0  0  0  3  0  0  0  0  0  0
  188.0070  177.7350  147.0240 C   0  0  0  0  0  2  0  0  0  0  0  0
  190.4060  176.9050  145.1880 C   0  0  0  0  0  0  0  0  0  0  0  0
  185.9540  178.1630  145.4570 C   0  0  1  0  0  0  0  0  0  0  0  0
  185.2200  178.7060  146.6430 C   0  0  0  0  0  0  0  0  0  0  0  0
  184.2200  178.0910  147.0980 O   0  0  0  0  0  0  0  0  0  0  0  0
  185.6080  179.9100  147.2160 O   0  0  0  0  0  1  0  0  0  0  0  0
  1  2  1  0  0  0  0
  2 13  1  0  0  0  0
  2 21  2  0  0  0  0
  3  7  2  0  0  0  0
  4 19  1  1  0  0  0
  4  1  1  0  0  0  0
  5 13  1  6  0  0  0
  5 20  1  0  0  0  0
  6  9  2  0  0  0  0
  6 14  1  0  0  0  0
  7 21  1  0  0  0  0
  8 16  2  0  0  0  0
  8  4  1  0  0  0  0
  9  8  1  0  0  0  0
 10 17  1  0  0  0  0
 10 11  1  0  0  0  0
 12 22  1  0  0  0  0
 12  5  1  0  0  0  0
 14 19  2  0  0  0  0
 15  1  2  0  0  0  0
 15  3  1  0  0  0  0
 16 15  1  0  0  0  0
 20 17  1  0  0  0  0
 21 10  1  0  0  0  0
 22 18  1  6  0  0  0
 22  5  1  0  0  0  0
 22 23  1  0  0  0  0
 23 24  2  0  0  0  0
 23 25  1  0  0  0  0
M  END
>  <MODEL>
9

>  <REMARK>
 VINA RESULT:      -7.6      3.049      6.280
  Name = 
  1 active torsions:
  status: ('A' for Active; 'I' for Inactive)
    1  A    between atoms: C_2  and  C_25
                            x       y       z     vdW  Elec       q    Type
                         _______ _______ _______ _____ _____    ______ ____

>  <TORSDO>
F 1

$$$$
