=
 OpenBabel10272415333D

 34 38  0  0  1  0  0  0  0  0999 V2000
  182.4060  176.0680  136.9690 C   0  0  2  0  0  0  0  0  0  0  0  0
  186.9960  175.3400  137.4110 C   0  0  0  0  0  1  0  0  0  0  0  0
  184.2610  174.6830  137.5860 O   0  0  0  0  0  0  0  0  0  0  0  0
  180.5350  174.6510  136.1740 C   0  0  0  0  0  2  0  0  0  0  0  0
  181.2960  173.4330  136.0240 O   0  0  0  0  0  0  0  0  0  0  0  0
  182.8300  174.7240  137.7900 C   0  0  2  0  0  3  0  0  0  0  0  0
  181.3790  175.8200  135.9390 C   0  0  0  0  0  2  0  0  0  0  0  0
  182.3850  173.3540  136.9970 C   0  0  0  0  0  2  0  0  0  0  0  0
  186.0400  175.9010  136.4960 C   0  0  0  0  0  0  0  0  0  0  0  0
  186.3830  176.8280  135.5200 C   0  0  0  0  0  0  0  0  0  0  0  0
  185.3640  177.5890  134.8210 C   0  0  0  0  0  3  0  0  0  0  0  0
  184.6800  175.6080  136.7830 C   0  0  0  0  0  0  0  0  0  0  0  0
  183.9550  177.3570  135.2680 C   0  0  0  0  0  3  0  0  0  0  0  0
  183.6860  176.4230  136.2820 C   0  0  0  0  0  0  0  0  0  0  0  0
  182.0840  177.2010  139.3660 C   0  0  1  0  0  3  0  0  0  0  0  0
  183.4630  179.8310  138.7230 C   0  0  0  0  0  2  0  0  0  0  0  0
  184.3180  178.3500  142.2450 C   0  0  0  0  0  2  0  0  0  0  0  0
  181.7780  178.7630  137.3200 C   0  0  0  0  0  0  0  0  0  0  0  0
  181.8420  177.2670  137.8090 C   0  0  1  0  0  3  0  0  0  0  0  0
  186.0580  179.0550  140.9330 C   0  0  2  0  0  3  0  0  0  0  0  0
  183.1030  178.3890  141.4690 C   0  0  0  0  0  2  0  0  0  0  0  0
  186.9840  178.1690  141.5430 O   0  0  0  0  0  1  0  0  0  0  0  0
  183.3630  177.6550  140.0820 C   0  0  2  0  0  3  0  0  0  0  0  0
  181.5060  179.0380  136.0950 O   0  0  0  0  0  0  0  0  0  0  0  0
  181.3800  181.1480  137.9680 C   0  0  0  0  0  1  0  0  0  0  0  0
  185.0900  179.4650  141.8760 O   0  0  0  0  0  0  0  0  0  0  0  0
  185.6450  178.5800  139.5540 C   0  0  0  0  0  0  0  0  0  0  0  0
  184.1590  178.4980  139.1510 C   0  0  2  0  0  3  0  0  0  0  0  0
  186.5310  177.9740  138.7910 C   0  0  0  0  0  2  0  0  0  0  0  0
  181.9610  179.8230  138.3260 C   0  0  2  0  0  3  0  0  0  0  0  0
  180.9520  176.7910  140.3340 C   0  0  0  0  0  1  0  0  0  0  0  0
  187.8140  176.9460  135.1020 C   0  0  0  0  0  0  0  0  0  0  0  0
  188.2740  176.1130  134.3460 O   0  0  0  0  0  0  0  0  0  0  0  0
  188.6990  177.9380  135.7840 C   0  0  0  0  0  1  0  0  0  0  0  0
  1  7  1  6  0  0  0
  1  6  1  0  0  0  0
  1 19  1  0  0  0  0
  3  6  1  0  0  0  0
  5  4  1  0  0  0  0
  5  8  1  0  0  0  0
  6  8  1  6  0  0  0
  7  4  1  0  0  0  0
  9 12  1  0  0  0  0
  9  2  1  0  0  0  0
 10  9  2  0  0  0  0
 11 13  2  0  0  0  0
 11 10  1  0  0  0  0
 12  3  1  0  0  0  0
 13 14  1  0  0  0  0
 14 12  2  0  0  0  0
 14  1  1  0  0  0  0
 15 23  1  0  0  0  0
 15 31  1  1  0  0  0
 18 30  1  0  0  0  0
 19 18  1  6  0  0  0
 19 15  1  0  0  0  0
 20 22  1  1  0  0  0
 20 26  1  0  0  0  0
 21 17  1  0  0  0  0
 23 21  1  1  0  0  0
 24 18  2  0  0  0  0
 26 17  1  0  0  0  0
 27 20  1  0  0  0  0
 28 16  1  1  0  0  0
 28 27  1  0  0  0  0
 28 23  1  0  0  0  0
 29 27  2  0  0  0  0
 30 25  1  6  0  0  0
 30 16  1  0  0  0  0
 32 10  1  0  0  0  0
 32 34  1  0  0  0  0
 33 32  2  0  0  0  0
M  END
>  <MODEL>
1

>  <REMARK>
 VINA RESULT:      -5.8      0.000      0.000
  Name = 
  2 active torsions:
  status: ('A' for Active; 'I' for Inactive)
    1  A    between atoms: C_1  and  C_9
    2  A    between atoms: C_3  and  C_25
                            x       y       z     vdW  Elec       q    Type
                         _______ _______ _______ _____ _____    ______ ____

>  <TORSDO>
F 2

$$$$
=
 OpenBabel10272415333D

 34 38  0  0  1  0  0  0  0  0999 V2000
  191.2420  175.0750  135.6500 C   0  0  2  0  0  0  0  0  0  0  0  0
  195.3220  174.1260  137.7120 C   0  0  0  0  0  1  0  0  0  0  0  0
  192.6460  173.6490  136.9680 O   0  0  0  0  0  0  0  0  0  0  0  0
  189.6400  173.7000  134.3520 C   0  0  0  0  0  2  0  0  0  0  0  0
  190.2980  172.4310  134.5600 O   0  0  0  0  0  0  0  0  0  0  0  0
  191.2410  173.7920  136.6570 C   0  0  2  0  0  3  0  0  0  0  0  0
  190.6120  174.7910  134.3460 C   0  0  0  0  0  2  0  0  0  0  0  0
  190.9770  172.3810  135.8550 C   0  0  0  0  0  2  0  0  0  0  0  0
  194.7890  174.6540  136.4850 C   0  0  0  0  0  0  0  0  0  0  0  0
  195.5250  175.4620  135.6290 C   0  0  0  0  0  0  0  0  0  0  0  0
  194.8770  176.2120  134.5690 C   0  0  0  0  0  3  0  0  0  0  0  0
  193.3930  174.4680  136.3000 C   0  0  0  0  0  0  0  0  0  0  0  0
  193.3860  176.1050  134.5120 C   0  0  0  0  0  3  0  0  0  0  0  0
  192.7050  175.2880  135.4300 C   0  0  0  0  0  0  0  0  0  0  0  0
  189.2330  176.8140  135.3730 C   0  0  1  0  0  3  0  0  0  0  0  0
  188.0900  176.5110  138.1710 C   0  0  0  0  0  2  0  0  0  0  0  0
  185.4140  176.7000  135.3190 C   0  0  0  0  0  2  0  0  0  0  0  0
  190.4520  176.8390  137.6610 C   0  0  0  0  0  0  0  0  0  0  0  0
  190.5310  176.3780  136.1570 C   0  0  1  0  0  3  0  0  0  0  0  0
  185.2020  175.0300  136.8720 C   0  0  2  0  0  3  0  0  0  0  0  0
  186.6760  177.3690  135.5230 C   0  0  0  0  0  2  0  0  0  0  0  0
  184.5050  174.1760  135.9780 O   0  0  0  0  0  1  0  0  0  0  0  0
  187.8220  176.2700  135.6290 C   0  0  2  0  0  3  0  0  0  0  0  0
  191.4460  176.6540  138.4520 O   0  0  0  0  0  0  0  0  0  0  0  0
  189.4080  178.4160  139.3010 C   0  0  0  0  0  1  0  0  0  0  0  0
  184.8980  176.3790  136.5860 O   0  0  0  0  0  0  0  0  0  0  0  0
  186.6360  174.5860  137.0770 C   0  0  0  0  0  0  0  0  0  0  0  0
  187.8070  175.5810  136.9470 C   0  0  2  0  0  3  0  0  0  0  0  0
  186.9140  173.2980  137.0940 C   0  0  0  0  0  2  0  0  0  0  0  0
  189.2400  177.5520  138.0980 C   0  0  2  0  0  3  0  0  0  0  0  0
  189.2700  177.9680  134.3470 C   0  0  0  0  0  1  0  0  0  0  0  0
  197.0170  175.4580  135.7280 C   0  0  0  0  0  0  0  0  0  0  0  0
  197.5570  176.2610  136.4640 O   0  0  0  0  0  0  0  0  0  0  0  0
  197.8150  174.6350  134.7690 C   0  0  0  0  0  1  0  0  0  0  0  0
  1  7  1  6  0  0  0
  1 19  1  0  0  0  0
  1  6  1  0  0  0  0
  4  5  1  0  0  0  0
  5  8  1  0  0  0  0
  6  8  1  6  0  0  0
  6  3  1  0  0  0  0
  7  4  1  0  0  0  0
  9  2  1  0  0  0  0
 10 32  1  0  0  0  0
 10  9  2  0  0  0  0
 11 10  1  0  0  0  0
 12  9  1  0  0  0  0
 12  3  1  0  0  0  0
 13 11  2  0  0  0  0
 13 14  1  0  0  0  0
 14  1  1  0  0  0  0
 14 12  2  0  0  0  0
 15 31  1  1  0  0  0
 15 23  1  0  0  0  0
 15 19  1  0  0  0  0
 17 21  1  0  0  0  0
 17 26  1  0  0  0  0
 18 30  1  0  0  0  0
 18 24  2  0  0  0  0
 19 18  1  1  0  0  0
 20 22  1  6  0  0  0
 20 27  1  0  0  0  0
 23 21  1  1  0  0  0
 23 28  1  0  0  0  0
 26 20  1  0  0  0  0
 27 29  2  0  0  0  0
 28 27  1  0  0  0  0
 28 16  1  1  0  0  0
 30 16  1  0  0  0  0
 30 25  1  1  0  0  0
 32 33  2  0  0  0  0
 34 32  1  0  0  0  0
M  END
>  <MODEL>
2

>  <REMARK>
 VINA RESULT:      -5.6      4.759      8.334
  Name = 
  2 active torsions:
  status: ('A' for Active; 'I' for Inactive)
    1  A    between atoms: C_1  and  C_9
    2  A    between atoms: C_3  and  C_25
                            x       y       z     vdW  Elec       q    Type
                         _______ _______ _______ _____ _____    ______ ____

>  <TORSDO>
F 2

$$$$
=
 OpenBabel10272415333D

 34 38  0  0  1  0  0  0  0  0999 V2000
  181.4190  179.4450  139.2600 C   0  0  2  0  0  0  0  0  0  0  0  0
  185.7810  179.1110  140.8910 C   0  0  0  0  0  1  0  0  0  0  0  0
  183.7200  180.1140  139.2520 O   0  0  0  0  0  0  0  0  0  0  0  0
  179.9880  181.3680  138.6340 C   0  0  0  0  0  2  0  0  0  0  0  0
  180.9980  182.3890  138.7870 O   0  0  0  0  0  0  0  0  0  0  0  0
  182.5540  180.2490  138.4080 C   0  0  2  0  0  3  0  0  0  0  0  0
  180.2270  180.2620  139.5570 C   0  0  0  0  0  2  0  0  0  0  0  0
  182.3330  181.8770  138.4760 C   0  0  0  0  0  2  0  0  0  0  0  0
  184.4200  179.1410  141.3500 C   0  0  0  0  0  0  0  0  0  0  0  0
  184.0270  178.6390  142.5840 C   0  0  0  0  0  0  0  0  0  0  0  0
  182.6260  178.4140  142.8880 C   0  0  0  0  0  3  0  0  0  0  0  0
  183.4600  179.5300  140.3780 C   0  0  0  0  0  0  0  0  0  0  0  0
  181.6650  178.6930  141.7760 C   0  0  0  0  0  3  0  0  0  0  0  0
  182.1370  179.1740  140.5440 C   0  0  0  0  0  0  0  0  0  0  0  0
  181.1030  177.9390  137.0770 C   0  0  1  0  0  3  0  0  0  0  0  0
  182.4480  175.4370  138.1520 C   0  0  0  0  0  2  0  0  0  0  0  0
  183.3450  176.3140  134.4440 C   0  0  0  0  0  2  0  0  0  0  0  0
  180.7660  176.7340  139.3480 C   0  0  0  0  0  0  0  0  0  0  0  0
  180.8490  178.1300  138.6220 C   0  0  1  0  0  3  0  0  0  0  0  0
  185.0680  175.8170  135.8680 C   0  0  2  0  0  3  0  0  0  0  0  0
  182.1240  176.4140  135.2050 C   0  0  0  0  0  2  0  0  0  0  0  0
  186.0080  176.5830  135.1310 O   0  0  0  0  0  1  0  0  0  0  0  0
  182.3820  177.3620  136.4560 C   0  0  2  0  0  3  0  0  0  0  0  0
  180.4810  176.6660  140.5990 O   0  0  0  0  0  0  0  0  0  0  0  0
  180.3460  174.2800  139.0930 C   0  0  0  0  0  1  0  0  0  0  0  0
  184.1020  175.2670  134.9970 O   0  0  0  0  0  0  0  0  0  0  0  0
  184.6500  176.5140  137.1480 C   0  0  0  0  0  0  0  0  0  0  0  0
  183.1610  176.6750  137.5190 C   0  0  2  0  0  3  0  0  0  0  0  0
  185.5370  177.2280  137.8100 C   0  0  0  0  0  2  0  0  0  0  0  0
  180.9440  175.5240  138.5300 C   0  0  2  0  0  3  0  0  0  0  0  0
  179.9820  178.1970  136.0450 C   0  0  0  0  0  1  0  0  0  0  0  0
  185.0570  178.4460  143.6500 C   0  0  0  0  0  0  0  0  0  0  0  0
  185.8990  177.5820  143.5020 O   0  0  0  0  0  0  0  0  0  0  0  0
  184.9020  179.1530  144.9580 C   0  0  0  0  0  1  0  0  0  0  0  0
  1  7  1  1  0  0  0
  1 14  1  0  0  0  0
  2  9  1  0  0  0  0
  3 12  1  0  0  0  0
  4  5  1  0  0  0  0
  4  7  1  0  0  0  0
  6  8  1  1  0  0  0
  6  3  1  0  0  0  0
  6  1  1  0  0  0  0
  8  5  1  0  0  0  0
  9 10  1  0  0  0  0
 10 11  2  0  0  0  0
 10 32  1  0  0  0  0
 12 14  1  0  0  0  0
 12  9  2  0  0  0  0
 13 11  1  0  0  0  0
 14 13  2  0  0  0  0
 15 31  1  1  0  0  0
 15 19  1  0  0  0  0
 16 30  1  0  0  0  0
 17 26  1  0  0  0  0
 17 21  1  0  0  0  0
 18 24  2  0  0  0  0
 19  1  1  0  0  0  0
 19 18  1  1  0  0  0
 20 22  1  6  0  0  0
 20 27  1  0  0  0  0
 23 21  1  6  0  0  0
 23 15  1  0  0  0  0
 23 28  1  0  0  0  0
 26 20  1  0  0  0  0
 27 28  1  0  0  0  0
 27 29  2  0  0  0  0
 28 16  1  6  0  0  0
 30 25  1  1  0  0  0
 30 18  1  0  0  0  0
 32 34  1  0  0  0  0
 33 32  2  0  0  0  0
M  END
>  <MODEL>
3

>  <REMARK>
 VINA RESULT:      -5.1      2.032      6.317
  Name = 
  2 active torsions:
  status: ('A' for Active; 'I' for Inactive)
    1  A    between atoms: C_1  and  C_9
    2  A    between atoms: C_3  and  C_25
                            x       y       z     vdW  Elec       q    Type
                         _______ _______ _______ _____ _____    ______ ____

>  <TORSDO>
F 2

$$$$
=
 OpenBabel10272415333D

 34 38  0  0  1  0  0  0  0  0999 V2000
  184.1890  177.6640  138.1120 C   0  0  2  0  0  0  0  0  0  0  0  0
  188.7810  178.3350  137.5940 C   0  0  0  0  0  1  0  0  0  0  0  0
  186.2270  178.7790  138.6990 O   0  0  0  0  0  0  0  0  0  0  0  0
  182.7110  177.5260  140.0960 C   0  0  0  0  0  2  0  0  0  0  0  0
  183.7100  177.8800  141.0770 O   0  0  0  0  0  0  0  0  0  0  0  0
  184.8050  178.9580  138.8910 C   0  0  2  0  0  3  0  0  0  0  0  0
  183.3210  176.8300  138.9650 C   0  0  0  0  0  2  0  0  0  0  0  0
  184.7090  178.7950  140.5240 C   0  0  0  0  0  2  0  0  0  0  0  0
  187.8100  177.2770  137.6640 C   0  0  0  0  0  0  0  0  0  0  0  0
  188.0400  176.0060  137.1540 C   0  0  0  0  0  0  0  0  0  0  0  0
  186.9510  175.0640  136.9740 C   0  0  0  0  0  3  0  0  0  0  0  0
  186.5170  177.6670  138.1050 C   0  0  0  0  0  0  0  0  0  0  0  0
  185.5850  175.5760  137.3070 C   0  0  0  0  0  3  0  0  0  0  0  0
  185.4250  176.8840  137.7930 C   0  0  0  0  0  0  0  0  0  0  0  0
  183.2970  176.7990  135.7470 C   0  0  1  0  0  3  0  0  0  0  0  0
  180.3310  177.0440  136.3560 C   0  0  0  0  0  2  0  0  0  0  0  0
  181.3430  173.7980  134.4160 C   0  0  0  0  0  2  0  0  0  0  0  0
  181.9900  178.7740  136.8030 C   0  0  0  0  0  0  0  0  0  0  0  0
  183.3300  177.9460  136.8300 C   0  0  1  0  0  3  0  0  0  0  0  0
  179.9820  173.5670  136.2430 C   0  0  2  0  0  3  0  0  0  0  0  0
  181.8040  175.1630  134.3460 C   0  0  0  0  0  2  0  0  0  0  0  0
  180.4120  172.2390  136.4980 O   0  0  0  0  0  1  0  0  0  0  0  0
  182.3610  175.5840  135.7760 C   0  0  2  0  0  3  0  0  0  0  0  0
  181.8470  179.8070  137.5530 O   0  0  0  0  0  0  0  0  0  0  0  0
  179.9820  179.4370  135.4640 C   0  0  0  0  0  1  0  0  0  0  0  0
  180.0080  173.8250  134.8550 O   0  0  0  0  0  0  0  0  0  0  0  0
  180.5790  174.5540  137.2260 C   0  0  0  0  0  0  0  0  0  0  0  0
  181.2620  175.8490  136.7410 C   0  0  2  0  0  3  0  0  0  0  0  0
  180.7650  174.1830  138.4760 C   0  0  0  0  0  2  0  0  0  0  0  0
  180.9530  178.3700  135.8400 C   0  0  2  0  0  3  0  0  0  0  0  0
  184.1400  176.8960  134.4560 C   0  0  0  0  0  1  0  0  0  0  0  0
  189.4480  175.5670  136.9060 C   0  0  0  0  0  0  0  0  0  0  0  0
  190.1040  175.1490  137.8400 O   0  0  0  0  0  0  0  0  0  0  0  0
  190.0860  175.8550  135.5860 C   0  0  0  0  0  1  0  0  0  0  0  0
  1  6  1  0  0  0  0
  1  7  1  1  0  0  0
  2  9  1  0  0  0  0
  3  6  1  0  0  0  0
  4  5  1  0  0  0  0
  6  8  1  1  0  0  0
  7  4  1  0  0  0  0
  8  5  1  0  0  0  0
  9 12  1  0  0  0  0
 10  9  2  0  0  0  0
 11 10  1  0  0  0  0
 11 13  2  0  0  0  0
 12  3  1  0  0  0  0
 13 14  1  0  0  0  0
 14 12  2  0  0  0  0
 14  1  1  0  0  0  0
 15 31  1  6  0  0  0
 15 23  1  0  0  0  0
 15 19  1  0  0  0  0
 17 26  1  0  0  0  0
 18 24  2  0  0  0  0
 19 18  1  1  0  0  0
 19  1  1  0  0  0  0
 20 22  1  6  0  0  0
 20 27  1  0  0  0  0
 21 17  1  0  0  0  0
 23 21  1  6  0  0  0
 23 28  1  0  0  0  0
 26 20  1  0  0  0  0
 27 29  2  0  0  0  0
 28 16  1  6  0  0  0
 28 27  1  0  0  0  0
 30 25  1  1  0  0  0
 30 16  1  0  0  0  0
 30 18  1  0  0  0  0
 32 10  1  0  0  0  0
 32 33  2  0  0  0  0
 34 32  1  0  0  0  0
M  END
>  <MODEL>
4

>  <REMARK>
 VINA RESULT:      -4.8      1.904      5.396
  Name = 
  2 active torsions:
  status: ('A' for Active; 'I' for Inactive)
    1  A    between atoms: C_1  and  C_9
    2  A    between atoms: C_3  and  C_25
                            x       y       z     vdW  Elec       q    Type
                         _______ _______ _______ _____ _____    ______ ____

>  <TORSDO>
F 2

$$$$
=
 OpenBabel10272415333D

 34 38  0  0  1  0  0  0  0  0999 V2000
  183.3980  176.0530  136.9220 C   0  0  2  0  0  0  0  0  0  0  0  0
  187.7030  174.2470  136.9390 C   0  0  0  0  0  1  0  0  0  0  0  0
  184.9010  174.2100  136.6360 O   0  0  0  0  0  0  0  0  0  0  0  0
  181.4570  175.7900  135.4040 C   0  0  0  0  0  2  0  0  0  0  0  0
  182.0270  174.7520  134.5770 O   0  0  0  0  0  0  0  0  0  0  0  0
  183.4810  174.4300  136.7960 C   0  0  2  0  0  3  0  0  0  0  0  0
  182.5010  176.6690  135.9240 C   0  0  0  0  0  2  0  0  0  0  0  0
  182.9400  173.8980  135.3370 C   0  0  0  0  0  2  0  0  0  0  0  0
  186.9890  175.4200  136.5160 C   0  0  0  0  0  0  0  0  0  0  0  0
  187.6100  176.6410  136.2850 C   0  0  0  0  0  0  0  0  0  0  0  0
  186.8360  177.8610  136.1530 C   0  0  0  0  0  3  0  0  0  0  0  0
  185.5730  175.3130  136.5460 C   0  0  0  0  0  0  0  0  0  0  0  0
  185.3590  177.7200  136.3470 C   0  0  0  0  0  3  0  0  0  0  0  0
  184.8030  176.4560  136.6050 C   0  0  0  0  0  0  0  0  0  0  0  0
  183.2990  178.1410  138.5860 C   0  0  1  0  0  3  0  0  0  0  0  0
  180.2740  178.3050  138.7980 C   0  0  0  0  0  2  0  0  0  0  0  0
  182.0840  181.7610  138.4720 C   0  0  0  0  0  2  0  0  0  0  0  0
  181.5740  176.2550  139.0230 C   0  0  0  0  0  0  0  0  0  0  0  0
  182.9190  176.6370  138.2970 C   0  0  1  0  0  3  0  0  0  0  0  0
  180.2830  181.3680  137.1120 C   0  0  2  0  0  3  0  0  0  0  0  0
  182.4210  180.5420  139.1640 C   0  0  0  0  0  2  0  0  0  0  0  0
  180.7390  182.2640  136.1110 O   0  0  0  0  0  1  0  0  0  0  0  0
  182.5070  179.3610  138.1010 C   0  0  2  0  0  3  0  0  0  0  0  0
  181.1320  175.0500  138.9830 O   0  0  0  0  0  0  0  0  0  0  0  0
  179.9820  176.8050  140.8740 C   0  0  0  0  0  1  0  0  0  0  0  0
  180.6820  181.8240  138.3880 O   0  0  0  0  0  0  0  0  0  0  0  0
  180.4840  179.9200  136.7100 C   0  0  0  0  0  0  0  0  0  0  0  0
  181.1590  178.9130  137.6630 C   0  0  2  0  0  3  0  0  0  0  0  0
  180.3370  179.5790  135.4460 C   0  0  0  0  0  2  0  0  0  0  0  0
  180.8970  177.3010  139.8070 C   0  0  2  0  0  3  0  0  0  0  0  0
  184.4640  178.5020  139.5350 C   0  0  0  0  0  1  0  0  0  0  0  0
  189.0860  176.6700  136.0480 C   0  0  0  0  0  0  0  0  0  0  0  0
  189.8290  176.8310  136.9960 O   0  0  0  0  0  0  0  0  0  0  0  0
  189.6040  176.7280  134.6470 C   0  0  0  0  0  1  0  0  0  0  0  0
  1  7  1  6  0  0  0
  1 19  1  0  0  0  0
  3  6  1  0  0  0  0
  4  7  1  0  0  0  0
  5  8  1  0  0  0  0
  5  4  1  0  0  0  0
  6  8  1  6  0  0  0
  6  1  1  0  0  0  0
  9 12  1  0  0  0  0
  9  2  1  0  0  0  0
 10  9  2  0  0  0  0
 11 10  1  0  0  0  0
 11 13  2  0  0  0  0
 12 14  2  0  0  0  0
 12  3  1  0  0  0  0
 13 14  1  0  0  0  0
 14  1  1  0  0  0  0
 15 31  1  1  0  0  0
 16 30  1  0  0  0  0
 17 21  1  0  0  0  0
 18 30  1  0  0  0  0
 19 15  1  0  0  0  0
 19 18  1  6  0  0  0
 20 22  1  6  0  0  0
 20 26  1  0  0  0  0
 23 15  1  0  0  0  0
 23 21  1  1  0  0  0
 24 18  2  0  0  0  0
 26 17  1  0  0  0  0
 27 20  1  0  0  0  0
 27 28  1  0  0  0  0
 28 23  1  0  0  0  0
 28 16  1  1  0  0  0
 29 27  2  0  0  0  0
 30 25  1  6  0  0  0
 32 10  1  0  0  0  0
 32 33  2  0  0  0  0
 34 32  1  0  0  0  0
M  END
>  <MODEL>
5

>  <REMARK>
 VINA RESULT:      -4.7      2.099      3.748
  Name = 
  2 active torsions:
  status: ('A' for Active; 'I' for Inactive)
    1  A    between atoms: C_1  and  C_9
    2  A    between atoms: C_3  and  C_25
                            x       y       z     vdW  Elec       q    Type
                         _______ _______ _______ _____ _____    ______ ____

>  <TORSDO>
F 2

$$$$
=
 OpenBabel10272415333D

 34 38  0  0  1  0  0  0  0  0999 V2000
  192.4120  174.8550  136.1490 C   0  0  2  0  0  0  0  0  0  0  0  0
  189.0420  177.6280  134.4880 C   0  0  0  0  0  1  0  0  0  0  0  0
  190.8180  175.4400  134.4580 O   0  0  0  0  0  0  0  0  0  0  0  0
  192.7090  172.3960  136.2000 C   0  0  0  0  0  2  0  0  0  0  0  0
  191.5540  172.0680  135.3970 O   0  0  0  0  0  0  0  0  0  0  0  0
  191.9750  174.5840  134.6010 C   0  0  2  0  0  3  0  0  0  0  0  0
  192.4800  173.6230  136.9580 C   0  0  0  0  0  2  0  0  0  0  0  0
  191.2700  173.1110  134.4110 C   0  0  0  0  0  2  0  0  0  0  0  0
  189.4720  177.0060  135.7110 C   0  0  0  0  0  0  0  0  0  0  0  0
  189.0930  177.4660  136.9660 C   0  0  0  0  0  0  0  0  0  0  0  0
  189.7720  177.0110  138.1650 C   0  0  0  0  0  3  0  0  0  0  0  0
  190.4790  176.0150  135.5670 C   0  0  0  0  0  0  0  0  0  0  0  0
  190.9270  176.0850  137.9480 C   0  0  0  0  0  3  0  0  0  0  0  0
  191.2710  175.6840  136.6470 C   0  0  0  0  0  0  0  0  0  0  0  0
  194.7850  174.8360  137.3750 C   0  0  1  0  0  3  0  0  0  0  0  0
  196.4990  174.9210  134.8690 C   0  0  0  0  0  2  0  0  0  0  0  0
  197.7790  172.4780  137.6470 C   0  0  0  0  0  2  0  0  0  0  0  0
  194.5900  176.3760  135.2980 C   0  0  0  0  0  0  0  0  0  0  0  0
  193.7930  175.5610  136.3850 C   0  0  1  0  0  3  0  0  0  0  0  0
  197.6560  171.6840  135.5030 C   0  0  2  0  0  3  0  0  0  0  0  0
  197.1630  173.7810  137.6990 C   0  0  0  0  0  2  0  0  0  0  0  0
  197.4950  170.3380  135.9230 O   0  0  0  0  0  1  0  0  0  0  0  0
  195.7390  173.6970  136.9930 C   0  0  2  0  0  3  0  0  0  0  0  0
  193.9670  177.1070  134.4450 O   0  0  0  0  0  0  0  0  0  0  0  0
  196.7550  177.4810  134.7010 C   0  0  0  0  0  1  0  0  0  0  0  0
  198.4650  172.3850  136.4240 O   0  0  0  0  0  0  0  0  0  0  0  0
  196.3550  172.2810  135.0040 C   0  0  0  0  0  0  0  0  0  0  0  0
  195.8580  173.6500  135.5110 C   0  0  2  0  0  3  0  0  0  0  0  0
  195.5060  171.5150  134.3500 C   0  0  0  0  0  2  0  0  0  0  0  0
  196.0610  176.3320  135.3490 C   0  0  2  0  0  3  0  0  0  0  0  0
  194.9750  175.3370  138.8240 C   0  0  0  0  0  1  0  0  0  0  0  0
  187.8890  178.3440  137.0840 C   0  0  0  0  0  0  0  0  0  0  0  0
  188.0360  179.5490  137.0330 O   0  0  0  0  0  0  0  0  0  0  0  0
  186.5780  177.7450  137.4830 C   0  0  0  0  0  1  0  0  0  0  0  0
  1 19  1  0  0  0  0
  1 14  1  0  0  0  0
  1  7  1  1  0  0  0
  2  9  1  0  0  0  0
  3  6  1  0  0  0  0
  3 12  1  0  0  0  0
  4  7  1  0  0  0  0
  5  4  1  0  0  0  0
  6  8  1  1  0  0  0
  6  1  1  0  0  0  0
  8  5  1  0  0  0  0
  9 10  1  0  0  0  0
 10 32  1  0  0  0  0
 10 11  2  0  0  0  0
 12  9  2  0  0  0  0
 12 14  1  0  0  0  0
 13 11  1  0  0  0  0
 14 13  2  0  0  0  0
 15 31  1  6  0  0  0
 16 30  1  0  0  0  0
 17 21  1  0  0  0  0
 18 30  1  0  0  0  0
 19 18  1  6  0  0  0
 19 15  1  0  0  0  0
 20 22  1  1  0  0  0
 20 26  1  0  0  0  0
 23 15  1  0  0  0  0
 23 21  1  1  0  0  0
 24 18  2  0  0  0  0
 26 17  1  0  0  0  0
 27 20  1  0  0  0  0
 27 28  1  0  0  0  0
 28 16  1  1  0  0  0
 28 23  1  0  0  0  0
 29 27  2  0  0  0  0
 30 25  1  6  0  0  0
 32 34  1  0  0  0  0
 33 32  2  0  0  0  0
M  END
>  <MODEL>
6

>  <REMARK>
 VINA RESULT:      -4.6      6.740     11.304
  Name = 
  2 active torsions:
  status: ('A' for Active; 'I' for Inactive)
    1  A    between atoms: C_1  and  C_9
    2  A    between atoms: C_3  and  C_25
                            x       y       z     vdW  Elec       q    Type
                         _______ _______ _______ _____ _____    ______ ____

>  <TORSDO>
F 2

$$$$
=
 OpenBabel10272415333D

 34 38  0  0  1  0  0  0  0  0999 V2000
  188.3580  175.1540  135.8500 C   0  0  2  0  0  0  0  0  0  0  0  0
  192.5880  174.6650  137.7640 C   0  0  0  0  0  1  0  0  0  0  0  0
  189.9170  173.9530  137.2160 O   0  0  0  0  0  0  0  0  0  0  0  0
  186.7910  173.5640  134.7760 C   0  0  0  0  0  2  0  0  0  0  0  0
  187.5410  172.3640  135.0640 O   0  0  0  0  0  0  0  0  0  0  0  0
  188.4920  173.9770  136.9710 C   0  0  2  0  0  3  0  0  0  0  0  0
  187.6850  174.7070  134.6150 C   0  0  0  0  0  2  0  0  0  0  0  0
  188.2850  172.4820  136.3190 C   0  0  0  0  0  2  0  0  0  0  0  0
  191.9620  175.0380  136.5250 C   0  0  0  0  0  0  0  0  0  0  0  0
  192.5990  175.8050  135.5570 C   0  0  0  0  0  0  0  0  0  0  0  0
  191.8510  176.4070  134.4700 C   0  0  0  0  0  3  0  0  0  0  0  0
  190.5740  174.7490  136.4350 C   0  0  0  0  0  0  0  0  0  0  0  0
  190.3690  176.2020  134.5050 C   0  0  0  0  0  3  0  0  0  0  0  0
  189.7910  175.4370  135.5310 C   0  0  0  0  0  0  0  0  0  0  0  0
  186.3110  176.8160  135.4170 C   0  0  1  0  0  3  0  0  0  0  0  0
  185.0570  176.5890  138.1740 C   0  0  0  0  0  2  0  0  0  0  0  0
  182.5040  176.5780  135.2060 C   0  0  0  0  0  2  0  0  0  0  0  0
  187.4280  176.9720  137.7510 C   0  0  0  0  0  0  0  0  0  0  0  0
  187.5870  176.4540  136.2720 C   0  0  1  0  0  3  0  0  0  0  0  0
  182.2740  174.9660  136.8170 C   0  0  2  0  0  3  0  0  0  0  0  0
  183.7340  177.2950  135.4350 C   0  0  0  0  0  2  0  0  0  0  0  0
  181.6430  174.0540  135.9310 O   0  0  0  0  0  1  0  0  0  0  0  0
  184.9070  176.2380  135.6360 C   0  0  2  0  0  3  0  0  0  0  0  0
  188.3920  176.8510  138.5910 O   0  0  0  0  0  0  0  0  0  0  0  0
  186.2670  178.5790  139.2780 C   0  0  0  0  0  1  0  0  0  0  0  0
  181.9420  176.2920  136.4630 O   0  0  0  0  0  0  0  0  0  0  0  0
  183.7110  174.5760  137.1010 C   0  0  0  0  0  0  0  0  0  0  0  0
  184.8550  175.6030  136.9790 C   0  0  2  0  0  3  0  0  0  0  0  0
  184.0270  173.3000  137.1830 C   0  0  0  0  0  2  0  0  0  0  0  0
  186.1780  177.6630  138.1060 C   0  0  2  0  0  3  0  0  0  0  0  0
  186.3580  177.9290  134.3460 C   0  0  0  0  0  1  0  0  0  0  0  0
  194.0910  175.9030  135.5750 C   0  0  0  0  0  0  0  0  0  0  0  0
  194.6060  176.9040  136.0310 O   0  0  0  0  0  0  0  0  0  0  0  0
  194.9030  174.8860  134.8390 C   0  0  0  0  0  1  0  0  0  0  0  0
  1  7  1  6  0  0  0
  1 19  1  0  0  0  0
  1  6  1  0  0  0  0
  4  5  1  0  0  0  0
  5  8  1  0  0  0  0
  6  8  1  6  0  0  0
  6  3  1  0  0  0  0
  7  4  1  0  0  0  0
  9  2  1  0  0  0  0
 10 32  1  0  0  0  0
 10  9  2  0  0  0  0
 11 13  2  0  0  0  0
 11 10  1  0  0  0  0
 12  9  1  0  0  0  0
 12  3  1  0  0  0  0
 13 14  1  0  0  0  0
 14  1  1  0  0  0  0
 14 12  2  0  0  0  0
 15 31  1  1  0  0  0
 15 23  1  0  0  0  0
 15 19  1  0  0  0  0
 17 21  1  0  0  0  0
 17 26  1  0  0  0  0
 18 30  1  0  0  0  0
 18 24  2  0  0  0  0
 19 18  1  1  0  0  0
 20 22  1  6  0  0  0
 20 27  1  0  0  0  0
 23 21  1  1  0  0  0
 23 28  1  0  0  0  0
 26 20  1  0  0  0  0
 27 29  2  0  0  0  0
 28 27  1  0  0  0  0
 28 16  1  1  0  0  0
 30 16  1  0  0  0  0
 30 25  1  1  0  0  0
 32 33  2  0  0  0  0
 34 32  1  0  0  0  0
M  END
>  <MODEL>
7

>  <REMARK>
 VINA RESULT:      -4.5      3.169      6.248
  Name = 
  2 active torsions:
  status: ('A' for Active; 'I' for Inactive)
    1  A    between atoms: C_1  and  C_9
    2  A    between atoms: C_3  and  C_25
                            x       y       z     vdW  Elec       q    Type
                         _______ _______ _______ _____ _____    ______ ____

>  <TORSDO>
F 2

$$$$
=
 OpenBabel10272415333D

 34 38  0  0  1  0  0  0  0  0999 V2000
  183.4720  174.3540  136.3440 C   0  0  2  0  0  0  0  0  0  0  0  0
  187.4190  176.2990  137.9070 C   0  0  0  0  0  1  0  0  0  0  0  0
  185.4150  174.3240  137.7460 O   0  0  0  0  0  0  0  0  0  0  0  0
  182.8580  172.0370  135.7180 C   0  0  0  0  0  2  0  0  0  0  0  0
  184.0910  171.4140  136.1390 O   0  0  0  0  0  0  0  0  0  0  0  0
  184.1520  173.6270  137.6360 C   0  0  2  0  0  3  0  0  0  0  0  0
  183.0970  173.4090  135.2760 C   0  0  0  0  0  2  0  0  0  0  0  0
  184.6860  172.1140  137.2780 C   0  0  0  0  0  2  0  0  0  0  0  0
  186.6920  176.0790  136.6860 C   0  0  0  0  0  0  0  0  0  0  0  0
  186.8850  176.8460  135.5440 C   0  0  0  0  0  0  0  0  0  0  0  0
  185.9410  176.7970  134.4430 C   0  0  0  0  0  3  0  0  0  0  0  0
  185.6120  175.1620  136.7790 C   0  0  0  0  0  0  0  0  0  0  0  0
  184.7380  175.9330  134.6530 C   0  0  0  0  0  3  0  0  0  0  0  0
  184.5960  175.2070  135.8470 C   0  0  0  0  0  0  0  0  0  0  0  0
  181.7780  175.4210  138.1140 C   0  0  1  0  0  3  0  0  0  0  0  0
  182.0480  178.3040  137.1960 C   0  0  0  0  0  2  0  0  0  0  0  0
  181.9700  177.8210  141.0810 C   0  0  0  0  0  2  0  0  0  0  0  0
  181.6830  176.4010  135.7160 C   0  0  0  0  0  0  0  0  0  0  0  0
  182.1720  175.1950  136.6030 C   0  0  1  0  0  3  0  0  0  0  0  0
  183.6110  179.1560  140.2040 C   0  0  2  0  0  3  0  0  0  0  0  0
  181.2720  177.1700  140.0000 C   0  0  0  0  0  2  0  0  0  0  0  0
  184.4980  178.9170  141.2870 O   0  0  0  0  0  1  0  0  0  0  0  0
  182.3450  176.5220  139.0200 C   0  0  2  0  0  3  0  0  0  0  0  0
  181.8320  176.3740  134.4400 O   0  0  0  0  0  0  0  0  0  0  0  0
  180.0940  178.3240  135.5150 C   0  0  0  0  0  1  0  0  0  0  0  0
  182.2750  179.1270  140.6590 O   0  0  0  0  0  0  0  0  0  0  0  0
  184.0230  178.3980  138.9580 C   0  0  0  0  0  0  0  0  0  0  0  0
  183.0070  177.5470  138.1700 C   0  0  2  0  0  3  0  0  0  0  0  0
  185.3040  178.2370  138.6970 C   0  0  0  0  0  2  0  0  0  0  0  0
  180.9850  177.5090  136.3880 C   0  0  2  0  0  3  0  0  0  0  0  0
  180.6450  174.6050  138.7750 C   0  0  0  0  0  1  0  0  0  0  0  0
  188.1480  177.6330  135.4030 C   0  0  0  0  0  0  0  0  0  0  0  0
  188.1600  178.7910  135.7730 O   0  0  0  0  0  0  0  0  0  0  0  0
  189.2850  177.0640  134.6190 C   0  0  0  0  0  1  0  0  0  0  0  0
  1  7  1  6  0  0  0
  1 19  1  0  0  0  0
  1  6  1  0  0  0  0
  4  5  1  0  0  0  0
  5  8  1  0  0  0  0
  6  8  1  6  0  0  0
  6  3  1  0  0  0  0
  7  4  1  0  0  0  0
  9 12  1  0  0  0  0
  9  2  1  0  0  0  0
 10  9  2  0  0  0  0
 11 13  2  0  0  0  0
 11 10  1  0  0  0  0
 12  3  1  0  0  0  0
 13 14  1  0  0  0  0
 14  1  1  0  0  0  0
 14 12  2  0  0  0  0
 15 31  1  6  0  0  0
 15 23  1  0  0  0  0
 18 30  1  0  0  0  0
 19 18  1  1  0  0  0
 19 15  1  0  0  0  0
 20 26  1  0  0  0  0
 20 22  1  1  0  0  0
 21 17  1  0  0  0  0
 23 21  1  6  0  0  0
 24 18  2  0  0  0  0
 26 17  1  0  0  0  0
 27 20  1  0  0  0  0
 28 16  1  1  0  0  0
 28 27  1  0  0  0  0
 28 23  1  0  0  0  0
 29 27  2  0  0  0  0
 30 25  1  6  0  0  0
 30 16  1  0  0  0  0
 32 10  1  0  0  0  0
 32 33  2  0  0  0  0
 34 32  1  0  0  0  0
M  END
>  <MODEL>
8

>  <REMARK>
 VINA RESULT:      -4.2      1.708      2.353
  Name = 
  2 active torsions:
  status: ('A' for Active; 'I' for Inactive)
    1  A    between atoms: C_1  and  C_9
    2  A    between atoms: C_3  and  C_25
                            x       y       z     vdW  Elec       q    Type
                         _______ _______ _______ _____ _____    ______ ____

>  <TORSDO>
F 2

$$$$
=
 OpenBabel10272415333D

 34 38  0  0  1  0  0  0  0  0999 V2000
  187.4340  176.7630  137.0360 C   0  0  2  0  0  0  0  0  0  0  0  0
  191.0550  175.5560  134.3460 C   0  0  0  0  0  1  0  0  0  0  0  0
  189.3720  177.3310  135.7470 O   0  0  0  0  0  0  0  0  0  0  0  0
  187.1730  178.3710  138.9030 C   0  0  0  0  0  2  0  0  0  0  0  0
  188.4900  178.9560  138.8090 O   0  0  0  0  0  0  0  0  0  0  0  0
  188.2290  177.9990  136.3280 C   0  0  2  0  0  3  0  0  0  0  0  0
  187.1960  176.9740  138.4770 C   0  0  0  0  0  2  0  0  0  0  0  0
  188.9830  178.9570  137.4310 C   0  0  0  0  0  2  0  0  0  0  0  0
  190.3580  175.1360  135.5320 C   0  0  0  0  0  0  0  0  0  0  0  0
  190.4220  173.8400  136.0260 C   0  0  0  0  0  0  0  0  0  0  0  0
  189.4860  173.3770  137.0330 C   0  0  0  0  0  3  0  0  0  0  0  0
  189.4310  176.0760  136.0560 C   0  0  0  0  0  0  0  0  0  0  0  0
  188.4300  174.3560  137.4410 C   0  0  0  0  0  3  0  0  0  0  0  0
  188.4110  175.6420  136.8780 C   0  0  0  0  0  0  0  0  0  0  0  0
  185.0640  175.5870  137.4070 C   0  0  1  0  0  3  0  0  0  0  0  0
  183.3460  178.0340  136.8710 C   0  0  0  0  0  2  0  0  0  0  0  0
  182.1710  175.8360  139.8900 C   0  0  0  0  0  2  0  0  0  0  0  0
  185.1930  177.2960  135.4610 C   0  0  0  0  0  0  0  0  0  0  0  0
  186.0250  176.3960  136.4520 C   0  0  1  0  0  3  0  0  0  0  0  0
  182.3260  178.0980  140.2140 C   0  0  2  0  0  3  0  0  0  0  0  0
  182.7330  175.5090  138.6030 C   0  0  0  0  0  2  0  0  0  0  0  0
  182.5430  177.9660  141.6100 O   0  0  0  0  0  1  0  0  0  0  0  0
  184.1580  176.2060  138.4790 C   0  0  2  0  0  3  0  0  0  0  0  0
  185.7850  177.9730  134.5440 O   0  0  0  0  0  0  0  0  0  0  0  0
  182.9840  177.6670  134.3460 C   0  0  0  0  0  1  0  0  0  0  0  0
  181.4890  177.0580  139.7550 O   0  0  0  0  0  0  0  0  0  0  0  0
  183.6010  178.4510  139.4740 C   0  0  0  0  0  0  0  0  0  0  0  0
  184.0400  177.6650  138.2220 C   0  0  2  0  0  3  0  0  0  0  0  0
  184.4810  179.2430  140.0520 C   0  0  0  0  0  2  0  0  0  0  0  0
  183.7260  177.2670  135.5750 C   0  0  2  0  0  3  0  0  0  0  0  0
  184.8540  174.0670  137.2280 C   0  0  0  0  0  1  0  0  0  0  0  0
  191.5500  172.9550  135.6000 C   0  0  0  0  0  0  0  0  0  0  0  0
  191.3060  171.9940  134.8960 O   0  0  0  0  0  0  0  0  0  0  0  0
  192.8980  173.1330  136.2190 C   0  0  0  0  0  1  0  0  0  0  0  0
  1  7  1  1  0  0  0
  2  9  1  0  0  0  0
  3 12  1  0  0  0  0
  3  6  1  0  0  0  0
  5  4  1  0  0  0  0
  6  1  1  0  0  0  0
  6  8  1  1  0  0  0
  7  4  1  0  0  0  0
  8  5  1  0  0  0  0
  9 10  2  0  0  0  0
  9 12  1  0  0  0  0
 10 11  1  0  0  0  0
 11 13  2  0  0  0  0
 12 14  2  0  0  0  0
 14  1  1  0  0  0  0
 14 13  1  0  0  0  0
 15 31  1  6  0  0  0
 15 23  1  0  0  0  0
 18 30  1  0  0  0  0
 19 18  1  1  0  0  0
 19  1  1  0  0  0  0
 19 15  1  0  0  0  0
 20 22  1  1  0  0  0
 21 17  1  0  0  0  0
 23 21  1  6  0  0  0
 24 18  2  0  0  0  0
 26 17  1  0  0  0  0
 26 20  1  0  0  0  0
 27 29  2  0  0  0  0
 27 20  1  0  0  0  0
 28 16  1  6  0  0  0
 28 23  1  0  0  0  0
 28 27  1  0  0  0  0
 30 25  1  6  0  0  0
 30 16  1  0  0  0  0
 32 10  1  0  0  0  0
 32 34  1  0  0  0  0
 33 32  2  0  0  0  0
M  END
>  <MODEL>
9

>  <REMARK>
 VINA RESULT:      -3.5      2.634      5.241
  Name = 
  2 active torsions:
  status: ('A' for Active; 'I' for Inactive)
    1  A    between atoms: C_1  and  C_9
    2  A    between atoms: C_3  and  C_25
                            x       y       z     vdW  Elec       q    Type
                         _______ _______ _______ _____ _____    ______ ____

>  <TORSDO>
F 2

$$$$
