=
 OpenBabel10272413283D

 32 38  0  0  1  0  0  0  0  0999 V2000
  187.7490  178.6280  136.9500 C   0  0  1  0  0  3  0  0  0  0  0  0
  187.3360  178.0210  142.0900 C   0  0  0  0  0  0  0  0  0  0  0  0
  182.7450  179.1340  143.0900 C   0  0  0  0  0  3  0  0  0  0  0  0
  182.9710  178.9350  144.5140 C   0  0  0  0  0  3  0  0  0  0  0  0
  188.9360  177.5820  143.9540 C   0  0  0  0  0  0  0  0  0  0  0  0
  189.1870  177.4750  145.3350 C   0  0  0  0  0  0  0  0  0  0  0  0
  188.2030  177.8060  139.7430 C   0  0  1  0  0  3  0  0  0  0  0  0
  185.7270  178.0350  140.2320 C   0  0  0  0  0  2  0  0  0  0  0  0
  188.7960  177.4660  147.4430 C   0  0  0  0  0  0  0  0  0  0  0  0
  186.6460  177.9510  137.6730 C   0  0  2  0  0  3  0  0  0  0  0  0
  183.7880  178.8530  142.1540 C   0  0  0  0  0  3  0  0  0  0  0  0
  186.0350  178.1820  141.7110 N   0  0  0  0  0  0  0  0  0  0  0  0
  185.0560  178.4570  142.5720 C   0  0  0  0  0  0  0  0  0  0  0  0
  186.6080  177.9970  144.4440 C   0  0  0  0  0  0  0  0  0  0  0  0
  190.0710  177.2140  147.2460 N   0  0  0  0  0  0  0  0  0  0  0  0
  188.9760  179.1820  137.6650 C   0  0  0  0  0  2  0  0  0  0  0  0
  186.8630  178.3790  139.2450 C   0  0  2  0  0  3  0  0  0  0  0  0
  190.3360  177.2060  145.9260 N   0  0  0  0  0  0  0  0  0  0  0  0
  189.4300  178.3550  138.9700 C   0  0  0  0  0  2  0  0  0  0  0  0
  187.7310  177.1030  137.1550 C   0  0  1  0  0  3  0  0  0  0  0  0
  184.2710  178.5690  144.8960 C   0  0  0  0  0  3  0  0  0  0  0  0
  185.3160  178.3170  143.9920 C   0  0  0  0  0  0  0  0  0  0  0  0
  186.8830  177.9300  145.8430 C   0  0  0  0  0  3  0  0  0  0  0  0
  188.4490  178.0590  141.1480 C   0  0  0  0  0  2  0  0  0  0  0  0
  190.1210  177.4920  143.1250 O   0  0  0  0  0  1  0  0  0  0  0  0
  188.1400  177.5770  148.7740 C   0  0  0  0  0  1  0  0  0  0  0  0
  187.6160  177.8670  143.4960 C   0  0  0  0  0  0  0  0  0  0  0  0
  188.1660  177.6320  146.2260 C   0  0  0  0  0  0  0  0  0  0  0  0
  188.0130  176.7970  135.8350 O   0  0  0  0  0  0  0  0  0  0  0  0
  189.0710  176.0150  135.2950 C   0  0  0  0  0  0  0  0  0  0  0  0
  190.4200  176.1580  135.7980 C   0  0  0  0  0  1  0  0  0  0  0  0
  188.7860  175.2580  134.3540 O   0  0  0  0  0  0  0  0  0  0  0  0
  1 20  1  0  0  0  0
  1 16  1  1  0  0  0
  1 10  1  0  0  0  0
  2 27  2  0  0  0  0
  3  4  1  0  0  0  0
  4 21  2  0  0  0  0
  5  6  2  0  0  0  0
  6 18  1  0  0  0  0
  6 28  1  0  0  0  0
  7 19  1  6  0  0  0
  7 24  1  0  0  0  0
  8 12  1  0  0  0  0
  9 26  1  0  0  0  0
 10 17  1  0  0  0  0
 11 13  1  0  0  0  0
 11  3  2  0  0  0  0
 12  2  1  0  0  0  0
 12 13  1  0  0  0  0
 13 22  2  0  0  0  0
 14 23  2  0  0  0  0
 15  9  1  0  0  0  0
 16 19  1  0  0  0  0
 17  7  1  0  0  0  0
 17  8  1  0  0  0  0
 18 15  2  0  0  0  0
 20 10  1  0  0  0  0
 22 14  1  0  0  0  0
 22 21  1  0  0  0  0
 23 28  1  0  0  0  0
 24  2  1  0  0  0  0
 25  5  1  0  0  0  0
 27  5  1  0  0  0  0
 27 14  1  0  0  0  0
 28  9  2  0  0  0  0
 29 20  1  0  0  0  0
 30 31  1  0  0  0  0
 30 29  1  0  0  0  0
 32 30  2  0  0  0  0
M  END
>  <MODEL>
1

>  <REMARK>
 VINA RESULT:     -10.6      0.000      0.000
  Name = 
  2 active torsions:
  status: ('A' for Active; 'I' for Inactive)
    1  A    between atoms: C_1  and  O_10
    2  A    between atoms: O_10  and  C_24
                            x       y       z     vdW  Elec       q    Type
                         _______ _______ _______ _____ _____    ______ ____

>  <TORSDO>
F 2

$$$$
=
 OpenBabel10272413283D

 32 38  0  0  1  0  0  0  0  0999 V2000
  182.8040  178.5680  138.9600 C   0  0  1  0  0  3  0  0  0  0  0  0
  186.7310  178.0820  142.3220 C   0  0  0  0  0  0  0  0  0  0  0  0
  190.6300  177.3870  139.5590 C   0  0  0  0  0  3  0  0  0  0  0  0
  191.4770  177.2370  140.7340 C   0  0  0  0  0  3  0  0  0  0  0  0
  186.9220  177.8890  144.8030 C   0  0  0  0  0  0  0  0  0  0  0  0
  187.7170  177.6570  145.9420 C   0  0  0  0  0  0  0  0  0  0  0  0
  184.4850  178.6920  141.3770 C   0  0  1  0  0  3  0  0  0  0  0  0
  186.5760  178.6860  139.9440 C   0  0  0  0  0  2  0  0  0  0  0  0
  189.4700  177.2550  147.1080 C   0  0  0  0  0  0  0  0  0  0  0  0
  184.1370  179.2080  138.8590 C   0  0  2  0  0  3  0  0  0  0  0  0
  189.2500  177.7270  139.7120 C   0  0  0  0  0  3  0  0  0  0  0  0
  187.3820  178.1800  141.1270 N   0  0  0  0  0  0  0  0  0  0  0  0
  188.6650  177.8530  140.9690 C   0  0  0  0  0  0  0  0  0  0  0  0
  188.8970  177.6850  143.4270 C   0  0  0  0  0  0  0  0  0  0  0  0
  188.4400  177.3750  147.9160 N   0  0  0  0  0  0  0  0  0  0  0  0
  182.3960  177.7160  140.1560 C   0  0  0  0  0  2  0  0  0  0  0  0
  185.0560  178.4210  139.9720 C   0  0  2  0  0  3  0  0  0  0  0  0
  187.3290  177.6380  147.2040 N   0  0  0  0  0  0  0  0  0  0  0  0
  183.0370  178.1690  141.5620 C   0  0  0  0  0  2  0  0  0  0  0  0
  183.0550  180.0000  139.4640 C   0  0  1  0  0  3  0  0  0  0  0  0
  190.8410  177.3370  141.9810 C   0  0  0  0  0  3  0  0  0  0  0  0
  189.4810  177.6430  142.1490 C   0  0  0  0  0  0  0  0  0  0  0  0
  189.6840  177.4070  144.5850 C   0  0  0  0  0  3  0  0  0  0  0  0
  185.2770  178.1070  142.4400 C   0  0  0  0  0  2  0  0  0  0  0  0
  185.5050  178.0030  145.0780 O   0  0  0  0  0  1  0  0  0  0  0  0
  190.8610  176.9410  147.5340 C   0  0  0  0  0  1  0  0  0  0  0  0
  187.5240  177.8860  143.5100 C   0  0  0  0  0  0  0  0  0  0  0  0
  189.0570  177.4430  145.8040 C   0  0  0  0  0  0  0  0  0  0  0  0
  181.9500  180.5480  138.8370 O   0  0  0  0  0  0  0  0  0  0  0  0
  181.7570  181.8630  138.3330 C   0  0  0  0  0  0  0  0  0  0  0  0
  180.5640  182.1950  137.5850 C   0  0  0  0  0  1  0  0  0  0  0  0
  182.6730  182.6780  138.5250 O   0  0  0  0  0  0  0  0  0  0  0  0
  1 20  1  0  0  0  0
  1 16  1  1  0  0  0
  2 24  1  0  0  0  0
  2 27  2  0  0  0  0
  3 11  2  0  0  0  0
  3  4  1  0  0  0  0
  4 21  2  0  0  0  0
  5 25  1  0  0  0  0
  5  6  2  0  0  0  0
  6 18  1  0  0  0  0
  7 19  1  6  0  0  0
  7 24  1  0  0  0  0
  8 17  1  0  0  0  0
  8 12  1  0  0  0  0
  9 26  1  0  0  0  0
  9 15  1  0  0  0  0
 10  1  1  0  0  0  0
 10 20  1  0  0  0  0
 10 17  1  0  0  0  0
 11 13  1  0  0  0  0
 12  2  1  0  0  0  0
 13 12  1  0  0  0  0
 13 22  2  0  0  0  0
 14 27  1  0  0  0  0
 14 23  2  0  0  0  0
 16 19  1  0  0  0  0
 17  7  1  0  0  0  0
 18 15  2  0  0  0  0
 21 22  1  0  0  0  0
 22 14  1  0  0  0  0
 23 28  1  0  0  0  0
 27  5  1  0  0  0  0
 28  6  1  0  0  0  0
 28  9  2  0  0  0  0
 29 20  1  0  0  0  0
 30 32  2  0  0  0  0
 30 29  1  0  0  0  0
 31 30  1  0  0  0  0
M  END
>  <MODEL>
2

>  <REMARK>
 VINA RESULT:     -10.0      3.084      5.537
  Name = 
  2 active torsions:
  status: ('A' for Active; 'I' for Inactive)
    1  A    between atoms: C_1  and  O_10
    2  A    between atoms: O_10  and  C_24
                            x       y       z     vdW  Elec       q    Type
                         _______ _______ _______ _____ _____    ______ ____

>  <TORSDO>
F 2

$$$$
=
 OpenBabel10272413283D

 32 38  0  0  1  0  0  0  0  0999 V2000
  181.4800  179.8380  139.4200 C   0  0  1  0  0  3  0  0  0  0  0  0
  185.7150  178.3780  142.0440 C   0  0  0  0  0  0  0  0  0  0  0  0
  184.4210  178.6190  146.6900 C   0  0  0  0  0  3  0  0  0  0  0  0
  185.7580  178.2350  147.1180 C   0  0  0  0  0  3  0  0  0  0  0  0
  188.0890  177.8970  141.4450 C   0  0  0  0  0  0  0  0  0  0  0  0
  189.4080  177.6150  141.8510 C   0  0  0  0  0  0  0  0  0  0  0  0
  184.0800  178.6650  140.1600 C   0  0  1  0  0  3  0  0  0  0  0  0
  183.3140  178.4410  142.5650 C   0  0  0  0  0  2  0  0  0  0  0  0
  191.0520  177.2170  143.1680 C   0  0  0  0  0  0  0  0  0  0  0  0
  181.5280  178.8980  140.5650 C   0  0  2  0  0  3  0  0  0  0  0  0
  184.0960  178.6480  145.2990 C   0  0  0  0  0  3  0  0  0  0  0  0
  184.7610  178.3990  143.0200 N   0  0  0  0  0  0  0  0  0  0  0  0
  185.0520  178.3860  144.3210 C   0  0  0  0  0  0  0  0  0  0  0  0
  187.4090  177.8760  143.7620 C   0  0  0  0  0  0  0  0  0  0  0  0
  191.4860  177.1930  141.9270 N   0  0  0  0  0  0  0  0  0  0  0  0
  182.7360  180.4500  138.8120 C   0  0  0  0  0  2  0  0  0  0  0  0
  183.0310  179.1020  141.2000 C   0  0  2  0  0  3  0  0  0  0  0  0
  190.4650  177.4310  141.0820 N   0  0  0  0  0  0  0  0  0  0  0  0
  184.0410  179.5070  138.8580 C   0  0  0  0  0  2  0  0  0  0  0  0
  181.5500  178.3140  139.2150 C   0  0  1  0  0  3  0  0  0  0  0  0
  186.7010  178.0140  146.1020 C   0  0  0  0  0  3  0  0  0  0  0  0
  186.4060  178.0660  144.7300 C   0  0  0  0  0  0  0  0  0  0  0  0
  188.7570  177.6330  144.1640 C   0  0  0  0  0  3  0  0  0  0  0  0
  185.4400  178.7290  140.6550 C   0  0  0  0  0  2  0  0  0  0  0  0
  187.9390  178.1170  140.0210 O   0  0  0  0  0  1  0  0  0  0  0  0
  191.8990  177.0190  144.3750 C   0  0  0  0  0  1  0  0  0  0  0  0
  187.0660  178.0500  142.4270 C   0  0  0  0  0  0  0  0  0  0  0  0
  189.6960  177.4750  143.1770 C   0  0  0  0  0  0  0  0  0  0  0  0
  180.5180  178.2650  138.2940 O   0  0  0  0  0  0  0  0  0  0  0  0
  180.5270  177.7940  136.9520 C   0  0  0  0  0  0  0  0  0  0  0  0
  181.1000  178.6000  135.8960 C   0  0  0  0  0  1  0  0  0  0  0  0
  179.9820  176.7010  136.7370 O   0  0  0  0  0  0  0  0  0  0  0  0
  1 16  1  6  0  0  0
  1 10  1  0  0  0  0
  2 27  2  0  0  0  0
  2 12  1  0  0  0  0
  3  4  1  0  0  0  0
  5  6  2  0  0  0  0
  5 27  1  0  0  0  0
  6 28  1  0  0  0  0
  7 19  1  6  0  0  0
  7 24  1  0  0  0  0
  7 17  1  0  0  0  0
  8 12  1  0  0  0  0
  9 28  2  0  0  0  0
  9 26  1  0  0  0  0
 10 17  1  0  0  0  0
 11  3  2  0  0  0  0
 12 13  1  0  0  0  0
 13 22  2  0  0  0  0
 13 11  1  0  0  0  0
 14 23  2  0  0  0  0
 14 22  1  0  0  0  0
 15  9  1  0  0  0  0
 16 19  1  0  0  0  0
 17  8  1  0  0  0  0
 18  6  1  0  0  0  0
 18 15  2  0  0  0  0
 20  1  1  0  0  0  0
 20 10  1  0  0  0  0
 21  4  2  0  0  0  0
 22 21  1  0  0  0  0
 24  2  1  0  0  0  0
 25  5  1  0  0  0  0
 27 14  1  0  0  0  0
 28 23  1  0  0  0  0
 29 20  1  0  0  0  0
 30 29  1  0  0  0  0
 31 30  1  0  0  0  0
 32 30  2  0  0  0  0
M  END
>  <MODEL>
3

>  <REMARK>
 VINA RESULT:      -9.4      3.287      5.011
  Name = 
  2 active torsions:
  status: ('A' for Active; 'I' for Inactive)
    1  A    between atoms: C_1  and  O_10
    2  A    between atoms: O_10  and  C_24
                            x       y       z     vdW  Elec       q    Type
                         _______ _______ _______ _____ _____    ______ ____

>  <TORSDO>
F 2

$$$$
=
 OpenBabel10272413283D

 32 38  0  0  1  0  0  0  0  0999 V2000
  191.0480  176.7820  137.2230 C   0  0  1  0  0  3  0  0  0  0  0  0
  189.3000  177.2590  142.0890 C   0  0  0  0  0  0  0  0  0  0  0  0
  184.8860  179.1590  141.6230 C   0  0  0  0  0  3  0  0  0  0  0  0
  184.7210  179.2150  143.0690 C   0  0  0  0  0  3  0  0  0  0  0  0
  190.2950  176.9820  144.3610 C   0  0  0  0  0  0  0  0  0  0  0  0
  190.1800  177.1160  145.7580 C   0  0  0  0  0  0  0  0  0  0  0  0
  190.6560  176.4710  140.1270 C   0  0  1  0  0  3  0  0  0  0  0  0
  188.2190  177.1260  139.8850 C   0  0  0  0  0  2  0  0  0  0  0  0
  189.2960  177.5750  147.6560 C   0  0  0  0  0  0  0  0  0  0  0  0
  189.6990  176.4160  137.7160 C   0  0  2  0  0  3  0  0  0  0  0  0
  186.0550  178.5610  141.0610 C   0  0  0  0  0  3  0  0  0  0  0  0
  188.1820  177.5170  141.3510 N   0  0  0  0  0  0  0  0  0  0  0  0
  187.0900  178.0870  141.8620 C   0  0  0  0  0  0  0  0  0  0  0  0
  188.0340  177.7970  144.1320 C   0  0  0  0  0  0  0  0  0  0  0  0
  190.5130  177.1180  147.8530 N   0  0  0  0  0  0  0  0  0  0  0  0
  192.1450  177.2930  138.1490 C   0  0  0  0  0  2  0  0  0  0  0  0
  189.6040  177.1120  139.2030 C   0  0  2  0  0  3  0  0  0  0  0  0
  191.0830  176.8140  146.6720 N   0  0  0  0  0  0  0  0  0  0  0  0
  192.1120  176.6860  139.6400 C   0  0  0  0  0  2  0  0  0  0  0  0
  190.7040  175.3440  137.6480 C   0  0  1  0  0  3  0  0  0  0  0  0
  185.8010  178.7590  143.8400 C   0  0  0  0  0  3  0  0  0  0  0  0
  186.9690  178.1950  143.3030 C   0  0  0  0  0  0  0  0  0  0  0  0
  187.9440  177.9700  145.5460 C   0  0  0  0  0  3  0  0  0  0  0  0
  190.5970  176.9600  141.4890 C   0  0  0  0  0  2  0  0  0  0  0  0
  191.6080  176.5710  143.9070 O   0  0  0  0  0  1  0  0  0  0  0  0
  188.3690  178.0340  148.7260 C   0  0  0  0  0  1  0  0  0  0  0  0
  189.1990  177.3480  143.5240 C   0  0  0  0  0  0  0  0  0  0  0  0
  189.0200  177.5820  146.3030 C   0  0  0  0  0  0  0  0  0  0  0  0
  191.2370  174.7490  136.5180 O   0  0  0  0  0  0  0  0  0  0  0  0
  192.2110  173.7190  136.4130 C   0  0  0  0  0  0  0  0  0  0  0  0
  193.4800  173.8370  137.0960 C   0  0  0  0  0  1  0  0  0  0  0  0
  191.9350  172.7580  135.6780 O   0  0  0  0  0  0  0  0  0  0  0  0
  1 20  1  0  0  0  0
  1 10  1  0  0  0  0
  1 16  1  1  0  0  0
  2 27  2  0  0  0  0
  3  4  1  0  0  0  0
  4 21  2  0  0  0  0
  5  6  2  0  0  0  0
  6 28  1  0  0  0  0
  6 18  1  0  0  0  0
  7 19  1  6  0  0  0
  7 24  1  0  0  0  0
  8 12  1  0  0  0  0
  9 15  1  0  0  0  0
  9 26  1  0  0  0  0
 10 17  1  0  0  0  0
 11  3  2  0  0  0  0
 11 13  1  0  0  0  0
 12 13  1  0  0  0  0
 12  2  1  0  0  0  0
 13 22  2  0  0  0  0
 14 23  2  0  0  0  0
 16 19  1  0  0  0  0
 17  8  1  0  0  0  0
 17  7  1  0  0  0  0
 18 15  2  0  0  0  0
 20 10  1  0  0  0  0
 22 21  1  0  0  0  0
 22 14  1  0  0  0  0
 23 28  1  0  0  0  0
 24  2  1  0  0  0  0
 25  5  1  0  0  0  0
 27 14  1  0  0  0  0
 27  5  1  0  0  0  0
 28  9  2  0  0  0  0
 29 20  1  0  0  0  0
 30 29  1  0  0  0  0
 30 31  1  0  0  0  0
 32 30  2  0  0  0  0
M  END
>  <MODEL>
4

>  <REMARK>
 VINA RESULT:      -8.8      1.969      2.590
  Name = 
  2 active torsions:
  status: ('A' for Active; 'I' for Inactive)
    1  A    between atoms: C_1  and  O_10
    2  A    between atoms: O_10  and  C_24
                            x       y       z     vdW  Elec       q    Type
                         _______ _______ _______ _____ _____    ______ ____

>  <TORSDO>
F 2

$$$$
=
 OpenBabel10272413283D

 32 38  0  0  1  0  0  0  0  0999 V2000
  191.7100  177.8620  144.2460 C   0  0  1  0  0  3  0  0  0  0  0  0
  187.4410  178.1480  141.3040 C   0  0  0  0  0  0  0  0  0  0  0  0
  189.0850  178.2180  136.7650 C   0  0  0  0  0  3  0  0  0  0  0  0
  187.7330  178.3560  136.2410 C   0  0  0  0  0  3  0  0  0  0  0  0
  185.0090  178.4920  141.7450 C   0  0  0  0  0  0  0  0  0  0  0  0
  183.7090  178.7150  141.2530 C   0  0  0  0  0  0  0  0  0  0  0  0
  188.9280  177.7240  143.2830 C   0  0  1  0  0  3  0  0  0  0  0  0
  189.7490  177.4000  140.9070 C   0  0  0  0  0  2  0  0  0  0  0  0
  182.1320  179.0030  139.8290 C   0  0  0  0  0  0  0  0  0  0  0  0
  191.4260  177.0740  143.0230 C   0  0  2  0  0  3  0  0  0  0  0  0
  189.2940  178.0430  138.1670 C   0  0  0  0  0  3  0  0  0  0  0  0
  188.4140  177.8970  140.3810 N   0  0  0  0  0  0  0  0  0  0  0  0
  188.2350  178.0700  139.0720 C   0  0  0  0  0  0  0  0  0  0  0  0
  185.8130  178.3820  139.4700 C   0  0  0  0  0  0  0  0  0  0  0  0
  181.6250  179.0520  141.0410 N   0  0  0  0  0  0  0  0  0  0  0  0
  190.7000  178.8350  144.8430 C   0  0  0  0  0  2  0  0  0  0  0  0
  190.1390  177.8310  142.3370 C   0  0  2  0  0  3  0  0  0  0  0  0
  182.5980  178.8640  141.9520 N   0  0  0  0  0  0  0  0  0  0  0  0
  189.1580  178.4130  144.6530 C   0  0  0  0  0  2  0  0  0  0  0  0
  191.1030  176.4500  144.3150 C   0  0  1  0  0  3  0  0  0  0  0  0
  186.6990  178.4130  137.1880 C   0  0  0  0  0  3  0  0  0  0  0  0
  186.8890  178.2710  138.5720 C   0  0  0  0  0  0  0  0  0  0  0  0
  184.4980  178.6530  138.9840 C   0  0  0  0  0  3  0  0  0  0  0  0
  187.7160  178.2910  142.7300 C   0  0  0  0  0  2  0  0  0  0  0  0
  185.1190  178.5530  143.1880 O   0  0  0  0  0  1  0  0  0  0  0  0
  181.3620  179.1920  138.5700 C   0  0  0  0  0  1  0  0  0  0  0  0
  186.0930  178.3390  140.8300 C   0  0  0  0  0  0  0  0  0  0  0  0
  183.4900  178.7700  139.9070 C   0  0  0  0  0  0  0  0  0  0  0  0
  191.9820  175.9840  145.2770 O   0  0  0  0  0  0  0  0  0  0  0  0
  191.8090  175.8810  146.6850 C   0  0  0  0  0  0  0  0  0  0  0  0
  190.5950  176.3570  147.3110 C   0  0  0  0  0  1  0  0  0  0  0  0
  192.7590  175.4170  147.3350 O   0  0  0  0  0  0  0  0  0  0  0  0
  1 20  1  0  0  0  0
  1 16  1  6  0  0  0
  2 24  1  0  0  0  0
  3 11  1  0  0  0  0
  4  3  2  0  0  0  0
  4 21  1  0  0  0  0
  5 25  1  0  0  0  0
  6  5  2  0  0  0  0
  6 18  1  0  0  0  0
  7 24  1  6  0  0  0
  7 19  1  0  0  0  0
  8 17  1  0  0  0  0
  9 28  2  0  0  0  0
  9 15  1  0  0  0  0
 10  1  1  0  0  0  0
 10 20  1  0  0  0  0
 11 13  2  0  0  0  0
 12  8  1  0  0  0  0
 12  2  1  0  0  0  0
 13 12  1  0  0  0  0
 14 27  1  0  0  0  0
 15 18  2  0  0  0  0
 17 10  1  0  0  0  0
 17  7  1  0  0  0  0
 19 16  1  0  0  0  0
 20 29  1  0  0  0  0
 21 22  2  0  0  0  0
 22 13  1  0  0  0  0
 22 14  1  0  0  0  0
 23 14  2  0  0  0  0
 23 28  1  0  0  0  0
 26  9  1  0  0  0  0
 27  2  2  0  0  0  0
 27  5  1  0  0  0  0
 28  6  1  0  0  0  0
 29 30  1  0  0  0  0
 30 31  1  0  0  0  0
 30 32  2  0  0  0  0
M  END
>  <MODEL>
5

>  <REMARK>
 VINA RESULT:      -8.7      3.349      7.763
  Name = 
  2 active torsions:
  status: ('A' for Active; 'I' for Inactive)
    1  A    between atoms: C_1  and  O_10
    2  A    between atoms: O_10  and  C_24
                            x       y       z     vdW  Elec       q    Type
                         _______ _______ _______ _____ _____    ______ ____

>  <TORSDO>
F 2

$$$$
=
 OpenBabel10272413283D

 32 38  0  0  1  0  0  0  0  0999 V2000
  193.3550  175.1900  136.6520 C   0  0  1  0  0  3  0  0  0  0  0  0
  189.7730  177.2540  139.7940 C   0  0  0  0  0  0  0  0  0  0  0  0
  191.6310  176.8070  144.2290 C   0  0  0  0  0  3  0  0  0  0  0  0
  190.4340  177.3840  144.8250 C   0  0  0  0  0  3  0  0  0  0  0  0
  187.4370  178.0840  139.5090 C   0  0  0  0  0  0  0  0  0  0  0  0
  186.2410  178.5570  140.0830 C   0  0  0  0  0  0  0  0  0  0  0  0
  191.0790  176.7330  137.7140 C   0  0  1  0  0  3  0  0  0  0  0  0
  192.1870  176.8330  139.9910 C   0  0  0  0  0  2  0  0  0  0  0  0
  184.8660  179.1900  141.6010 C   0  0  0  0  0  0  0  0  0  0  0  0
  193.6000  176.1230  137.7780 C   0  0  2  0  0  3  0  0  0  0  0  0
  191.7570  176.7350  142.8080 C   0  0  0  0  0  3  0  0  0  0  0  0
  190.8350  177.0880  140.6340 N   0  0  0  0  0  0  0  0  0  0  0  0
  190.7270  177.1400  141.9620 C   0  0  0  0  0  0  0  0  0  0  0  0
  188.4180  177.9950  141.7140 C   0  0  0  0  0  0  0  0  0  0  0  0
  184.2780  179.2830  140.4290 N   0  0  0  0  0  0  0  0  0  0  0  0
  191.9520  174.7740  136.2280 C   0  0  0  0  0  2  0  0  0  0  0  0
  192.1830  176.1420  138.6110 C   0  0  2  0  0  3  0  0  0  0  0  0
  185.1290  178.8980  139.4590 N   0  0  0  0  0  0  0  0  0  0  0  0
  190.8190  175.9000  136.4320 C   0  0  0  0  0  2  0  0  0  0  0  0
  193.4830  176.7080  136.4330 C   0  0  1  0  0  3  0  0  0  0  0  0
  189.4060  177.7460  143.9410 C   0  0  0  0  0  3  0  0  0  0  0  0
  189.5030  177.6560  142.5430 C   0  0  0  0  0  0  0  0  0  0  0  0
  187.1870  178.4340  142.2890 C   0  0  0  0  0  3  0  0  0  0  0  0
  189.8040  176.8700  138.3870 C   0  0  0  0  0  2  0  0  0  0  0  0
  187.3600  177.8480  138.0820 O   0  0  0  0  0  1  0  0  0  0  0  0
  184.2280  179.5080  142.9070 C   0  0  0  0  0  1  0  0  0  0  0  0
  188.5490  177.7770  140.3480 C   0  0  0  0  0  0  0  0  0  0  0  0
  186.1580  178.7340  141.4340 C   0  0  0  0  0  0  0  0  0  0  0  0
  194.3770  176.6070  135.3820 O   0  0  0  0  0  0  0  0  0  0  0  0
  195.5970  177.3040  135.1640 C   0  0  0  0  0  0  0  0  0  0  0  0
  196.7640  176.6030  134.6750 C   0  0  0  0  0  1  0  0  0  0  0  0
  195.6160  178.5090  135.4590 O   0  0  0  0  0  0  0  0  0  0  0  0
  1 16  1  1  0  0  0
  1 10  1  0  0  0  0
  2 27  2  0  0  0  0
  2 12  1  0  0  0  0
  3  4  1  0  0  0  0
  5  6  2  0  0  0  0
  5 27  1  0  0  0  0
  6 28  1  0  0  0  0
  7 19  1  6  0  0  0
  7 24  1  0  0  0  0
  7 17  1  0  0  0  0
  8 12  1  0  0  0  0
  9 26  1  0  0  0  0
 10 17  1  0  0  0  0
 11  3  2  0  0  0  0
 12 13  1  0  0  0  0
 13 22  2  0  0  0  0
 13 11  1  0  0  0  0
 14 23  2  0  0  0  0
 14 22  1  0  0  0  0
 15  9  1  0  0  0  0
 16 19  1  0  0  0  0
 17  8  1  0  0  0  0
 18  6  1  0  0  0  0
 18 15  2  0  0  0  0
 20  1  1  0  0  0  0
 20 10  1  0  0  0  0
 21  4  2  0  0  0  0
 22 21  1  0  0  0  0
 24  2  1  0  0  0  0
 25  5  1  0  0  0  0
 27 14  1  0  0  0  0
 28  9  2  0  0  0  0
 28 23  1  0  0  0  0
 29 20  1  0  0  0  0
 30 29  1  0  0  0  0
 30 32  2  0  0  0  0
 31 30  1  0  0  0  0
M  END
>  <MODEL>
6

>  <REMARK>
 VINA RESULT:      -8.7      3.129      6.148
  Name = 
  2 active torsions:
  status: ('A' for Active; 'I' for Inactive)
    1  A    between atoms: C_1  and  O_10
    2  A    between atoms: O_10  and  C_24
                            x       y       z     vdW  Elec       q    Type
                         _______ _______ _______ _____ _____    ______ ____

>  <TORSDO>
F 2

$$$$
=
 OpenBabel10272413283D

 32 38  0  0  1  0  0  0  0  0999 V2000
  183.7170  179.6100  144.9070 C   0  0  1  0  0  3  0  0  0  0  0  0
  187.9210  177.7070  142.5260 C   0  0  0  0  0  0  0  0  0  0  0  0
  190.9430  176.5560  146.1110 C   0  0  0  0  0  3  0  0  0  0  0  0
  191.9660  176.1420  145.1620 C   0  0  0  0  0  3  0  0  0  0  0  0
  188.6930  177.5490  140.1580 C   0  0  0  0  0  0  0  0  0  0  0  0
  189.7090  177.2370  139.2340 C   0  0  0  0  0  0  0  0  0  0  0  0
  185.5470  178.4230  142.9250 C   0  0  1  0  0  3  0  0  0  0  0  0
  186.9870  177.4870  144.7890 C   0  0  0  0  0  2  0  0  0  0  0  0
  191.6120  176.5770  138.5020 C   0  0  0  0  0  0  0  0  0  0  0  0
  184.4690  178.3890  145.2840 C   0  0  2  0  0  3  0  0  0  0  0  0
  189.6550  176.9580  145.6430 C   0  0  0  0  0  3  0  0  0  0  0  0
  188.1630  177.4000  143.8330 N   0  0  0  0  0  0  0  0  0  0  0  0
  189.3630  177.0360  144.2840 C   0  0  0  0  0  0  0  0  0  0  0  0
  190.1520  176.8370  141.9460 C   0  0  0  0  0  0  0  0  0  0  0  0
  190.8630  176.9270  137.4810 N   0  0  0  0  0  0  0  0  0  0  0  0
  184.0690  180.4380  143.6760 C   0  0  0  0  0  2  0  0  0  0  0  0
  185.8700  178.4900  144.4290 C   0  0  2  0  0  3  0  0  0  0  0  0
  189.6580  177.3380  137.9180 N   0  0  0  0  0  0  0  0  0  0  0  0
  184.6560  179.5940  142.4360 C   0  0  0  0  0  2  0  0  0  0  0  0
  183.2860  178.2130  144.4280 C   0  0  1  0  0  3  0  0  0  0  0  0
  191.6460  176.2690  143.8020 C   0  0  0  0  0  3  0  0  0  0  0  0
  190.3940  176.6900  143.3240 C   0  0  0  0  0  0  0  0  0  0  0  0
  191.1890  176.5660  141.0030 C   0  0  0  0  0  3  0  0  0  0  0  0
  186.7270  178.4210  142.0850 C   0  0  0  0  0  2  0  0  0  0  0  0
  187.5160  178.1530  139.5690 O   0  0  0  0  0  1  0  0  0  0  0  0
  193.0160  176.0930  138.4090 C   0  0  0  0  0  1  0  0  0  0  0  0
  188.9270  177.3610  141.5530 C   0  0  0  0  0  0  0  0  0  0  0  0
  190.9030  176.7450  139.6740 C   0  0  0  0  0  0  0  0  0  0  0  0
  181.9550  178.3680  144.7750 O   0  0  0  0  0  0  0  0  0  0  0  0
  180.7990  178.3630  143.9470 C   0  0  0  0  0  0  0  0  0  0  0  0
  180.5790  179.4240  142.9890 C   0  0  0  0  0  1  0  0  0  0  0  0
  179.9840  177.4450  144.1260 O   0  0  0  0  0  0  0  0  0  0  0  0
  1 16  1  6  0  0  0
  1 10  1  0  0  0  0
  2 12  1  0  0  0  0
  4  3  2  0  0  0  0
  5 27  1  0  0  0  0
  6 28  1  0  0  0  0
  6  5  2  0  0  0  0
  7 24  1  6  0  0  0
  7 17  1  0  0  0  0
  9 28  2  0  0  0  0
 11  3  1  0  0  0  0
 12 13  1  0  0  0  0
 12  8  1  0  0  0  0
 13 11  2  0  0  0  0
 14 22  1  0  0  0  0
 15 18  2  0  0  0  0
 15  9  1  0  0  0  0
 17  8  1  0  0  0  0
 17 10  1  0  0  0  0
 18  6  1  0  0  0  0
 19  7  1  0  0  0  0
 19 16  1  0  0  0  0
 20 29  1  0  0  0  0
 20  1  1  0  0  0  0
 20 10  1  0  0  0  0
 21  4  1  0  0  0  0
 22 21  2  0  0  0  0
 22 13  1  0  0  0  0
 23 14  2  0  0  0  0
 24  2  1  0  0  0  0
 25  5  1  0  0  0  0
 26  9  1  0  0  0  0
 27 14  1  0  0  0  0
 27  2  2  0  0  0  0
 28 23  1  0  0  0  0
 30 32  2  0  0  0  0
 30 29  1  0  0  0  0
 31 30  1  0  0  0  0
M  END
>  <MODEL>
7

>  <REMARK>
 VINA RESULT:      -8.1      3.363      7.733
  Name = 
  2 active torsions:
  status: ('A' for Active; 'I' for Inactive)
    1  A    between atoms: C_1  and  O_10
    2  A    between atoms: O_10  and  C_24
                            x       y       z     vdW  Elec       q    Type
                         _______ _______ _______ _____ _____    ______ ____

>  <TORSDO>
F 2

$$$$
=
 OpenBabel10272413283D

 32 38  0  0  1  0  0  0  0  0999 V2000
  190.3120  177.7990  146.5980 C   0  0  1  0  0  3  0  0  0  0  0  0
  186.0900  178.1730  143.6000 C   0  0  0  0  0  0  0  0  0  0  0  0
  187.8050  178.4130  139.0930 C   0  0  0  0  0  3  0  0  0  0  0  0
  186.4620  178.5630  138.5530 C   0  0  0  0  0  3  0  0  0  0  0  0
  183.6490  178.4900  144.0140 C   0  0  0  0  0  0  0  0  0  0  0  0
  182.3560  178.7260  143.5090 C   0  0  0  0  0  0  0  0  0  0  0  0
  187.5470  177.6840  145.5860 C   0  0  1  0  0  3  0  0  0  0  0  0
  188.4070  177.4490  143.2140 C   0  0  0  0  0  2  0  0  0  0  0  0
  180.8010  179.0580  142.0710 C   0  0  0  0  0  0  0  0  0  0  0  0
  190.0520  177.0540  145.3430 C   0  0  2  0  0  3  0  0  0  0  0  0
  187.9920  178.1880  140.4910 C   0  0  0  0  0  3  0  0  0  0  0  0
  187.0780  177.9590  142.6850 N   0  0  0  0  0  0  0  0  0  0  0  0
  186.9200  178.1780  141.3790 C   0  0  0  0  0  0  0  0  0  0  0  0
  184.4890  178.4660  141.7500 C   0  0  0  0  0  0  0  0  0  0  0  0
  180.2740  179.0620  143.2750 N   0  0  0  0  0  0  0  0  0  0  0  0
  189.2880  178.7450  147.2130 C   0  0  0  0  0  2  0  0  0  0  0  0
  188.7720  177.8300  144.6640 C   0  0  2  0  0  3  0  0  0  0  0  0
  181.2340  178.8450  144.1940 N   0  0  0  0  0  0  0  0  0  0  0  0
  187.7510  178.3240  146.9830 C   0  0  0  0  0  2  0  0  0  0  0  0
  189.7100  176.3820  146.6070 C   0  0  1  0  0  3  0  0  0  0  0  0
  185.4120  178.5830  139.4840 C   0  0  0  0  0  3  0  0  0  0  0  0
  185.5800  178.3910  140.8650 C   0  0  0  0  0  0  0  0  0  0  0  0
  183.1810  178.7480  141.2520 C   0  0  0  0  0  3  0  0  0  0  0  0
  186.3400  178.2660  145.0340 C   0  0  0  0  0  2  0  0  0  0  0  0
  183.7350  178.5000  145.4590 O   0  0  0  0  0  1  0  0  0  0  0  0
  180.0500  179.2890  140.8070 C   0  0  0  0  0  1  0  0  0  0  0  0
  184.7480  178.3750  143.1120 C   0  0  0  0  0  0  0  0  0  0  0  0
  182.1590  178.8290  142.1630 C   0  0  0  0  0  0  0  0  0  0  0  0
  190.5760  175.8850  147.5660 O   0  0  0  0  0  0  0  0  0  0  0  0
  191.9550  175.5590  147.4550 C   0  0  0  0  0  0  0  0  0  0  0  0
  192.8770  175.9010  148.5160 C   0  0  0  0  0  1  0  0  0  0  0  0
  192.3220  175.0210  146.3990 O   0  0  0  0  0  0  0  0  0  0  0  0
  1 20  1  0  0  0  0
  1 16  1  6  0  0  0
  2 24  1  0  0  0  0
  3 11  1  0  0  0  0
  4  3  2  0  0  0  0
  4 21  1  0  0  0  0
  5 25  1  0  0  0  0
  6  5  2  0  0  0  0
  6 18  1  0  0  0  0
  7 24  1  6  0  0  0
  7 19  1  0  0  0  0
  8 17  1  0  0  0  0
  9 28  2  0  0  0  0
  9 15  1  0  0  0  0
 10  1  1  0  0  0  0
 10 20  1  0  0  0  0
 11 13  2  0  0  0  0
 12  8  1  0  0  0  0
 12  2  1  0  0  0  0
 13 12  1  0  0  0  0
 14 27  1  0  0  0  0
 15 18  2  0  0  0  0
 17 10  1  0  0  0  0
 17  7  1  0  0  0  0
 19 16  1  0  0  0  0
 20 29  1  0  0  0  0
 21 22  2  0  0  0  0
 22 13  1  0  0  0  0
 22 14  1  0  0  0  0
 23 14  2  0  0  0  0
 23 28  1  0  0  0  0
 26  9  1  0  0  0  0
 27  2  2  0  0  0  0
 27  5  1  0  0  0  0
 28  6  1  0  0  0  0
 30 29  1  0  0  0  0
 30 31  1  0  0  0  0
 32 30  2  0  0  0  0
M  END
>  <MODEL>
8

>  <REMARK>
 VINA RESULT:      -8.0      3.653      7.877
  Name = 
  2 active torsions:
  status: ('A' for Active; 'I' for Inactive)
    1  A    between atoms: C_1  and  O_10
    2  A    between atoms: O_10  and  C_24
                            x       y       z     vdW  Elec       q    Type
                         _______ _______ _______ _____ _____    ______ ____

>  <TORSDO>
F 2

$$$$
=
 OpenBabel10272413283D

 32 38  0  0  1  0  0  0  0  0999 V2000
  191.3950  175.4120  147.5350 C   0  0  1  0  0  3  0  0  0  0  0  0
  189.2080  177.2900  143.2170 C   0  0  0  0  0  0  0  0  0  0  0  0
  184.7030  178.4350  144.5240 C   0  0  0  0  0  3  0  0  0  0  0  0
  184.3760  178.8420  143.1650 C   0  0  0  0  0  3  0  0  0  0  0  0
  189.8760  177.4410  140.8170 C   0  0  0  0  0  0  0  0  0  0  0  0
  189.5410  177.7460  139.4830 C   0  0  0  0  0  0  0  0  0  0  0  0
  190.9660  176.5860  144.8660 C   0  0  1  0  0  3  0  0  0  0  0  0
  188.7320  177.5190  145.6170 C   0  0  0  0  0  2  0  0  0  0  0  0
  188.3590  178.3960  137.8180 C   0  0  0  0  0  0  0  0  0  0  0  0
  190.5570  176.6300  147.4280 C   0  0  2  0  0  3  0  0  0  0  0  0
  186.0360  178.0380  144.8490 C   0  0  0  0  0  3  0  0  0  0  0  0
  188.2820  177.5990  144.1700 N   0  0  0  0  0  0  0  0  0  0  0  0
  187.0310  177.9590  143.8790 C   0  0  0  0  0  0  0  0  0  0  0  0
  187.6690  178.1490  141.4950 C   0  0  0  0  0  0  0  0  0  0  0  0
  189.5500  178.0470  137.3830 N   0  0  0  0  0  0  0  0  0  0  0  0
  191.7860  174.5800  146.3190 C   0  0  0  0  0  2  0  0  0  0  0  0
  189.8640  176.5210  145.9410 C   0  0  2  0  0  3  0  0  0  0  0  0
  190.3130  177.6430  138.4170 N   0  0  0  0  0  0  0  0  0  0  0  0
  191.9810  175.4190  144.9580 C   0  0  0  0  0  2  0  0  0  0  0  0
  192.0160  176.8100  147.3690 C   0  0  1  0  0  3  0  0  0  0  0  0
  185.3960  178.7130  142.2100 C   0  0  0  0  0  3  0  0  0  0  0  0
  186.7040  178.2980  142.5070 C   0  0  0  0  0  0  0  0  0  0  0  0
  187.3270  178.4130  140.1340 C   0  0  0  0  0  3  0  0  0  0  0  0
  190.4480  176.5820  143.5130 C   0  0  0  0  0  2  0  0  0  0  0  0
  191.1840  176.8410  140.9810 O   0  0  0  0  0  1  0  0  0  0  0  0
  187.2410  178.8730  136.9600 C   0  0  0  0  0  1  0  0  0  0  0  0
  188.9080  177.6300  141.8480 C   0  0  0  0  0  0  0  0  0  0  0  0
  188.3020  178.2330  139.1870 C   0  0  0  0  0  0  0  0  0  0  0  0
  192.9320  176.6620  148.3960 O   0  0  0  0  0  0  0  0  0  0  0  0
  193.1440  177.4770  149.5410 C   0  0  0  0  0  0  0  0  0  0  0  0
  194.2100  177.1730  150.4710 C   0  0  0  0  0  1  0  0  0  0  0  0
  192.3500  178.4130  149.7200 O   0  0  0  0  0  0  0  0  0  0  0  0
  1 16  1  6  0  0  0
  2 24  1  0  0  0  0
  2 12  1  0  0  0  0
  3 11  1  0  0  0  0
  4  3  2  0  0  0  0
  5 25  1  0  0  0  0
  5 27  1  0  0  0  0
  6  5  2  0  0  0  0
  7 24  1  6  0  0  0
  7 19  1  0  0  0  0
  7 17  1  0  0  0  0
  8 17  1  0  0  0  0
  9 28  2  0  0  0  0
 10  1  1  0  0  0  0
 12  8  1  0  0  0  0
 13 12  1  0  0  0  0
 13 11  2  0  0  0  0
 14 27  1  0  0  0  0
 14 22  1  0  0  0  0
 15  9  1  0  0  0  0
 15 18  2  0  0  0  0
 17 10  1  0  0  0  0
 18  6  1  0  0  0  0
 19 16  1  0  0  0  0
 20 10  1  0  0  0  0
 20  1  1  0  0  0  0
 20 29  1  0  0  0  0
 21 22  2  0  0  0  0
 21  4  1  0  0  0  0
 22 13  1  0  0  0  0
 23 14  2  0  0  0  0
 26  9  1  0  0  0  0
 27  2  2  0  0  0  0
 28  6  1  0  0  0  0
 28 23  1  0  0  0  0
 29 30  1  0  0  0  0
 30 32  2  0  0  0  0
 30 31  1  0  0  0  0
M  END
>  <MODEL>
9

>  <REMARK>
 VINA RESULT:      -8.0      3.045      8.214
  Name = 
  2 active torsions:
  status: ('A' for Active; 'I' for Inactive)
    1  A    between atoms: C_1  and  O_10
    2  A    between atoms: O_10  and  C_24
                            x       y       z     vdW  Elec       q    Type
                         _______ _______ _______ _____ _____    ______ ____

>  <TORSDO>
F 2

$$$$
