=
 OpenBabel10272400523D

 25 27  0  0  1  0  0  0  0  0999 V2000
  183.9440  178.4450  142.0870 C   0  0  0  0  0  0  0  0  0  0  0  0
  184.9100  178.2550  143.0860 C   0  0  0  0  0  0  0  0  0  0  0  0
  182.3220  179.0430  143.7600 C   0  0  0  0  0  3  0  0  0  0  0  0
  184.1430  178.1860  140.6300 C   0  0  1  0  0  3  0  0  0  0  0  0
  183.2620  178.8580  144.7300 N   0  0  0  0  0  0  0  0  0  0  0  0
  182.7510  178.1300  139.9870 C   0  0  2  0  0  3  0  0  0  0  0  0
  185.4850  178.2780  145.4590 C   0  0  0  0  0  0  0  0  0  0  0  0
  185.1320  178.4900  146.8910 C   0  0  0  0  0  1  0  0  0  0  0  0
  186.2140  177.8480  142.7810 C   0  0  0  0  0  3  0  0  0  0  0  0
  182.6680  178.8380  142.4250 C   0  0  0  0  0  0  0  0  0  0  0  0
  181.5300  178.9750  141.0660 S   0  0  0  0  0  0  0  0  0  0  0  0
  186.7850  177.8740  145.1350 C   0  0  0  0  0  3  0  0  0  0  0  0
  187.1510  177.6630  143.8020 C   0  0  0  0  0  0  0  0  0  0  0  0
  184.5390  178.4730  144.4350 C   0  0  0  0  0  0  0  0  0  0  0  0
  182.0170  175.5830  139.6420 C   0  0  0  0  0  3  0  0  0  0  0  0
  182.3520  176.7320  139.7970 C   0  0  0  0  0  0  0  0  0  0  0  0
  184.4750  180.0930  139.2500 O   0  0  0  0  0  0  0  0  0  0  0  0
  184.9750  179.2610  139.9940 C   0  0  0  0  0  3  0  0  0  0  0  0
  188.5340  177.2220  143.4730 C   0  0  0  0  0  2  0  0  0  0  0  0
  189.5480  178.0670  144.2240 C   0  0  0  0  0  2  0  0  0  0  0  0
  190.7980  177.2580  144.5200 C   0  0  2  0  0  3  0  0  0  0  0  0
  190.7820  176.0830  143.7700 O   0  0  0  0  0  1  0  0  0  0  0  0
  190.8900  176.9250  145.9720 C   0  0  0  0  0  0  0  0  0  0  0  0
  192.0170  176.7380  146.5000 O   0  0  0  0  0  0  0  0  0  0  0  0
  189.7400  176.8160  146.7430 O   0  0  0  0  0  1  0  0  0  0  0  0
  1 10  2  0  0  0  0
  1  2  1  0  0  0  0
  2 14  1  0  0  0  0
  3  5  2  0  0  0  0
  4 18  1  6  0  0  0
  4  1  1  0  0  0  0
  6 16  1  1  0  0  0
  6  4  1  0  0  0  0
  6 11  1  0  0  0  0
  7  8  1  0  0  0  0
  9  2  2  0  0  0  0
  9 13  1  0  0  0  0
 10  3  1  0  0  0  0
 11 10  1  0  0  0  0
 12  7  1  0  0  0  0
 13 12  2  0  0  0  0
 14  5  1  0  0  0  0
 14  7  2  0  0  0  0
 15 16  3  0  0  0  0
 17 18  2  0  0  0  0
 19 13  1  0  0  0  0
 19 20  1  0  0  0  0
 20 21  1  0  0  0  0
 21 22  1  6  0  0  0
 21 23  1  0  0  0  0
 23 24  2  0  0  0  0
 23 25  1  0  0  0  0
M  END
>  <MODEL>
1

>  <REMARK>
 VINA RESULT:      -8.3      0.000      0.000
  Name = 
  6 active torsions:
  status: ('A' for Active; 'I' for Inactive)
    1  A    between atoms: C_2  and  C_21
    2  A    between atoms: C_5  and  C_22
    3  A    between atoms: C_6  and  C_15
    4  A    between atoms: C_6  and  C_23
    5  A    between atoms: C_10  and  C_11
    6  A    between atoms: C_15  and  C_21
                            x       y       z     vdW  Elec       q    Type
                         _______ _______ _______ _____ _____    ______ ____

>  <TORSDO>
F 6

$$$$
=
 OpenBabel10272400523D

 25 27  0  0  1  0  0  0  0  0999 V2000
  188.6860  177.3290  144.8920 C   0  0  0  0  0  0  0  0  0  0  0  0
  187.3350  177.6760  144.7540 C   0  0  0  0  0  0  0  0  0  0  0  0
  188.4540  177.3510  147.2860 C   0  0  0  0  0  3  0  0  0  0  0  0
  189.6600  177.1780  143.7710 C   0  0  1  0  0  3  0  0  0  0  0  0
  187.1400  177.6890  147.1510 N   0  0  0  0  0  0  0  0  0  0  0  0
  191.0660  177.2020  144.3860 C   0  0  2  0  0  3  0  0  0  0  0  0
  185.2030  178.2160  145.8170 C   0  0  0  0  0  0  0  0  0  0  0  0
  184.3560  178.4200  147.0260 C   0  0  0  0  0  1  0  0  0  0  0  0
  186.7470  177.8590  143.4970 C   0  0  0  0  0  3  0  0  0  0  0  0
  189.2340  177.1650  146.1460 C   0  0  0  0  0  0  0  0  0  0  0  0
  190.9710  176.7920  146.1730 S   0  0  0  0  0  0  0  0  0  0  0  0
  184.6310  178.3910  144.5510 C   0  0  0  0  0  3  0  0  0  0  0  0
  185.3970  178.2100  143.3950 C   0  0  0  0  0  0  0  0  0  0  0  0
  186.5590  177.8560  145.9260 C   0  0  0  0  0  0  0  0  0  0  0  0
  192.1420  179.6310  144.0880 C   0  0  0  0  0  3  0  0  0  0  0  0
  191.6540  178.5350  144.2200 C   0  0  0  0  0  0  0  0  0  0  0  0
  190.3440  175.1000  142.8390 O   0  0  0  0  0  0  0  0  0  0  0  0
  189.4350  175.8980  143.0210 C   0  0  0  0  0  3  0  0  0  0  0  0
  184.7780  178.4110  142.0570 C   0  0  0  0  0  2  0  0  0  0  0  0
  185.7870  179.0200  141.0980 C   0  0  0  0  0  2  0  0  0  0  0  0
  185.6290  178.4210  139.7120 C   0  0  2  0  0  3  0  0  0  0  0  0
  186.8060  178.6020  138.9880 O   0  0  0  0  0  1  0  0  0  0  0  0
  184.4900  179.0520  138.9820 C   0  0  0  0  0  0  0  0  0  0  0  0
  183.7240  178.3390  138.2830 O   0  0  0  0  0  0  0  0  0  0  0  0
  184.2720  180.4210  139.0660 O   0  0  0  0  0  1  0  0  0  0  0  0
  1 10  1  0  0  0  0
  2  1  2  0  0  0  0
  2 14  1  0  0  0  0
  4 18  1  1  0  0  0
  4  6  1  0  0  0  0
  4  1  1  0  0  0  0
  5  3  1  0  0  0  0
  6 16  1  1  0  0  0
  6 11  1  0  0  0  0
  7 14  1  0  0  0  0
  7  8  1  0  0  0  0
  9  2  1  0  0  0  0
 10 11  1  0  0  0  0
 10  3  2  0  0  0  0
 12  7  2  0  0  0  0
 13  9  2  0  0  0  0
 13 12  1  0  0  0  0
 14  5  2  0  0  0  0
 15 16  3  0  0  0  0
 17 18  2  0  0  0  0
 19 13  1  0  0  0  0
 20 19  1  0  0  0  0
 21 22  1  6  0  0  0
 21 20  1  0  0  0  0
 23 25  1  0  0  0  0
 23 21  1  0  0  0  0
 24 23  2  0  0  0  0
M  END
>  <MODEL>
2

>  <REMARK>
 VINA RESULT:      -8.1      3.094      7.148
  Name = 
  6 active torsions:
  status: ('A' for Active; 'I' for Inactive)
    1  A    between atoms: C_2  and  C_21
    2  A    between atoms: C_5  and  C_22
    3  A    between atoms: C_6  and  C_15
    4  A    between atoms: C_6  and  C_23
    5  A    between atoms: C_10  and  C_11
    6  A    between atoms: C_15  and  C_21
                            x       y       z     vdW  Elec       q    Type
                         _______ _______ _______ _____ _____    ______ ____

>  <TORSDO>
F 6

$$$$
=
 OpenBabel10272400523D

 25 27  0  0  1  0  0  0  0  0999 V2000
  183.9400  178.4820  142.1170 C   0  0  0  0  0  0  0  0  0  0  0  0
  184.9400  178.2630  143.0750 C   0  0  0  0  0  0  0  0  0  0  0  0
  182.3960  179.0940  143.8560 C   0  0  0  0  0  3  0  0  0  0  0  0
  184.0770  178.2330  140.6510 C   0  0  1  0  0  3  0  0  0  0  0  0
  183.3680  178.8820  144.7880 N   0  0  0  0  0  0  0  0  0  0  0  0
  182.6610  178.2090  140.0610 C   0  0  2  0  0  3  0  0  0  0  0  0
  185.6060  178.2530  145.4250 C   0  0  0  0  0  0  0  0  0  0  0  0
  185.3120  178.4580  146.8710 C   0  0  0  0  0  1  0  0  0  0  0  0
  186.2230  177.8340  142.7160 C   0  0  0  0  0  3  0  0  0  0  0  0
  182.6860  178.8960  142.5070 C   0  0  0  0  0  0  0  0  0  0  0  0
  181.4990  179.0670  141.1950 S   0  0  0  0  0  0  0  0  0  0  0  0
  186.8850  177.8270  145.0470 C   0  0  0  0  0  3  0  0  0  0  0  0
  187.1950  177.6220  143.6990 C   0  0  0  0  0  0  0  0  0  0  0  0
  184.6250  178.4750  144.4400 C   0  0  0  0  0  0  0  0  0  0  0  0
  181.8740  175.6780  139.7160 C   0  0  0  0  0  3  0  0  0  0  0  0
  182.2280  176.8200  139.8750 C   0  0  0  0  0  0  0  0  0  0  0  0
  184.4270  180.0380  139.1440 O   0  0  0  0  0  0  0  0  0  0  0  0
  184.9050  179.2970  139.9920 C   0  0  0  0  0  3  0  0  0  0  0  0
  188.5550  177.1570  143.3130 C   0  0  0  0  0  2  0  0  0  0  0  0
  189.1370  178.0660  142.2450 C   0  0  0  0  0  2  0  0  0  0  0  0
  189.6340  177.2480  141.0660 C   0  0  2  0  0  3  0  0  0  0  0  0
  191.0010  177.4600  140.8930 O   0  0  0  0  0  1  0  0  0  0  0  0
  188.9070  177.6150  139.8150 C   0  0  0  0  0  0  0  0  0  0  0  0
  188.2930  178.7120  139.7480 O   0  0  0  0  0  1  0  0  0  0  0  0
  188.8990  176.7520  138.7270 O   0  0  0  0  0  0  0  0  0  0  0  0
  1 10  2  0  0  0  0
  1  2  1  0  0  0  0
  2 14  1  0  0  0  0
  3  5  2  0  0  0  0
  4 18  1  6  0  0  0
  4  1  1  0  0  0  0
  6 16  1  1  0  0  0
  6  4  1  0  0  0  0
  6 11  1  0  0  0  0
  7  8  1  0  0  0  0
  9  2  2  0  0  0  0
  9 13  1  0  0  0  0
 10  3  1  0  0  0  0
 11 10  1  0  0  0  0
 12  7  1  0  0  0  0
 13 12  2  0  0  0  0
 14  5  1  0  0  0  0
 14  7  2  0  0  0  0
 15 16  3  0  0  0  0
 17 18  2  0  0  0  0
 19 13  1  0  0  0  0
 20 19  1  0  0  0  0
 21 22  1  6  0  0  0
 21 20  1  0  0  0  0
 23 21  1  0  0  0  0
 24 23  1  0  0  0  0
 25 23  2  0  0  0  0
M  END
>  <MODEL>
3

>  <REMARK>
 VINA RESULT:      -8.1      2.015      2.818
  Name = 
  6 active torsions:
  status: ('A' for Active; 'I' for Inactive)
    1  A    between atoms: C_2  and  C_21
    2  A    between atoms: C_5  and  C_22
    3  A    between atoms: C_6  and  C_15
    4  A    between atoms: C_6  and  C_23
    5  A    between atoms: C_10  and  C_11
    6  A    between atoms: C_15  and  C_21
                            x       y       z     vdW  Elec       q    Type
                         _______ _______ _______ _____ _____    ______ ____

>  <TORSDO>
F 6

$$$$
=
 OpenBabel10272400523D

 25 27  0  0  1  0  0  0  0  0999 V2000
  188.1460  177.5410  144.4000 C   0  0  0  0  0  0  0  0  0  0  0  0
  186.8940  177.9330  143.9030 C   0  0  0  0  0  0  0  0  0  0  0  0
  187.3250  177.7480  146.6510 C   0  0  0  0  0  3  0  0  0  0  0  0
  189.3590  177.2690  143.5720 C   0  0  1  0  0  3  0  0  0  0  0  0
  186.1080  178.1280  146.1680 N   0  0  0  0  0  0  0  0  0  0  0  0
  190.5650  177.2810  144.5210 C   0  0  2  0  0  3  0  0  0  0  0  0
  184.6000  178.6360  144.3580 C   0  0  0  0  0  0  0  0  0  0  0  0
  183.4910  178.9620  145.2990 C   0  0  0  0  0  1  0  0  0  0  0  0
  186.6500  178.0480  142.5300 C   0  0  0  0  0  3  0  0  0  0  0  0
  188.3530  177.4470  145.7580 C   0  0  0  0  0  0  0  0  0  0  0  0
  190.0040  177.0060  146.2470 S   0  0  0  0  0  0  0  0  0  0  0  0
  184.3730  178.7420  142.9810 C   0  0  0  0  0  3  0  0  0  0  0  0
  185.3920  178.4450  142.0690 C   0  0  0  0  0  0  0  0  0  0  0  0
  185.8630  178.2290  144.8280 C   0  0  0  0  0  0  0  0  0  0  0  0
  191.8200  179.6340  144.3470 C   0  0  0  0  0  3  0  0  0  0  0  0
  191.2520  178.5720  144.4290 C   0  0  0  0  0  0  0  0  0  0  0  0
  190.2120  175.1920  142.7910 O   0  0  0  0  0  0  0  0  0  0  0  0
  189.2530  175.9490  142.8690 C   0  0  0  0  0  3  0  0  0  0  0  0
  185.1390  178.5740  140.6080 C   0  0  0  0  0  2  0  0  0  0  0  0
  183.6500  178.7040  140.3410 C   0  0  0  0  0  2  0  0  0  0  0  0
  183.4060  179.4790  139.0590 C   0  0  2  0  0  3  0  0  0  0  0  0
  184.3200  180.5270  138.9650 O   0  0  0  0  0  1  0  0  0  0  0  0
  182.0160  180.0210  139.0160 C   0  0  0  0  0  0  0  0  0  0  0  0
  181.1270  179.5190  139.7510 O   0  0  0  0  0  1  0  0  0  0  0  0
  181.6960  181.0710  138.1650 O   0  0  0  0  0  0  0  0  0  0  0  0
  1 10  1  0  0  0  0
  2  1  2  0  0  0  0
  2 14  1  0  0  0  0
  4 18  1  1  0  0  0
  4  1  1  0  0  0  0
  4  6  1  0  0  0  0
  5  3  1  0  0  0  0
  6 16  1  1  0  0  0
  6 11  1  0  0  0  0
  7 14  1  0  0  0  0
  7  8  1  0  0  0  0
  9  2  1  0  0  0  0
 10 11  1  0  0  0  0
 10  3  2  0  0  0  0
 12  7  2  0  0  0  0
 13  9  2  0  0  0  0
 13 12  1  0  0  0  0
 14  5  2  0  0  0  0
 15 16  3  0  0  0  0
 17 18  2  0  0  0  0
 19 13  1  0  0  0  0
 20 19  1  0  0  0  0
 21 22  1  1  0  0  0
 21 20  1  0  0  0  0
 23 21  1  0  0  0  0
 23 24  1  0  0  0  0
 25 23  2  0  0  0  0
M  END
>  <MODEL>
4

>  <REMARK>
 VINA RESULT:      -8.0      2.790      7.551
  Name = 
  6 active torsions:
  status: ('A' for Active; 'I' for Inactive)
    1  A    between atoms: C_2  and  C_21
    2  A    between atoms: C_5  and  C_22
    3  A    between atoms: C_6  and  C_15
    4  A    between atoms: C_6  and  C_23
    5  A    between atoms: C_10  and  C_11
    6  A    between atoms: C_15  and  C_21
                            x       y       z     vdW  Elec       q    Type
                         _______ _______ _______ _____ _____    ______ ____

>  <TORSDO>
F 6

$$$$
=
 OpenBabel10272400523D

 25 27  0  0  1  0  0  0  0  0999 V2000
  187.6350  177.6890  144.3810 C   0  0  0  0  0  0  0  0  0  0  0  0
  186.3770  178.0390  143.8690 C   0  0  0  0  0  0  0  0  0  0  0  0
  186.8340  178.0520  146.6190 C   0  0  0  0  0  3  0  0  0  0  0  0
  188.8430  177.3650  143.5630 C   0  0  1  0  0  3  0  0  0  0  0  0
  185.6110  178.3910  146.1210 N   0  0  0  0  0  0  0  0  0  0  0  0
  190.0570  177.4490  144.4970 C   0  0  2  0  0  3  0  0  0  0  0  0
  184.0840  178.7610  144.2940 C   0  0  0  0  0  0  0  0  0  0  0  0
  182.9820  179.1490  145.2200 C   0  0  0  0  0  1  0  0  0  0  0  0
  186.1210  178.0540  142.4930 C   0  0  0  0  0  3  0  0  0  0  0  0
  187.8550  177.6930  145.7400 C   0  0  0  0  0  0  0  0  0  0  0  0
  189.5130  177.2960  146.2440 S   0  0  0  0  0  0  0  0  0  0  0  0
  183.8440  178.7680  142.9150 C   0  0  0  0  0  3  0  0  0  0  0  0
  184.8550  178.4120  142.0180 C   0  0  0  0  0  0  0  0  0  0  0  0
  185.3530  178.3950  144.7800 C   0  0  0  0  0  0  0  0  0  0  0  0
  191.2940  179.7940  144.1560 C   0  0  0  0  0  3  0  0  0  0  0  0
  190.7370  178.7340  144.3070 C   0  0  0  0  0  0  0  0  0  0  0  0
  189.7340  175.3840  142.5980 O   0  0  0  0  0  0  0  0  0  0  0  0
  188.7380  175.9970  142.9560 C   0  0  0  0  0  3  0  0  0  0  0  0
  184.5900  178.4350  140.5530 C   0  0  0  0  0  2  0  0  0  0  0  0
  185.8720  178.7210  139.7910 C   0  0  0  0  0  2  0  0  0  0  0  0
  185.6890  178.4170  138.3140 C   0  0  2  0  0  3  0  0  0  0  0  0
  184.7300  177.4190  138.1570 O   0  0  0  0  0  1  0  0  0  0  0  0
  186.9740  177.9790  137.6950 C   0  0  0  0  0  0  0  0  0  0  0  0
  187.8370  177.3880  138.3950 O   0  0  0  0  0  1  0  0  0  0  0  0
  187.2270  178.2240  136.3510 O   0  0  0  0  0  0  0  0  0  0  0  0
  1 10  1  0  0  0  0
  2  1  2  0  0  0  0
  2 14  1  0  0  0  0
  4 18  1  1  0  0  0
  4  1  1  0  0  0  0
  4  6  1  0  0  0  0
  5  3  1  0  0  0  0
  6 16  1  1  0  0  0
  6 11  1  0  0  0  0
  7 14  1  0  0  0  0
  7  8  1  0  0  0  0
  9  2  1  0  0  0  0
 10 11  1  0  0  0  0
 10  3  2  0  0  0  0
 12  7  2  0  0  0  0
 13  9  2  0  0  0  0
 13 12  1  0  0  0  0
 14  5  2  0  0  0  0
 15 16  3  0  0  0  0
 17 18  2  0  0  0  0
 19 13  1  0  0  0  0
 20 19  1  0  0  0  0
 21 22  1  1  0  0  0
 21 20  1  0  0  0  0
 23 21  1  0  0  0  0
 23 24  1  0  0  0  0
 25 23  2  0  0  0  0
M  END
>  <MODEL>
5

>  <REMARK>
 VINA RESULT:      -7.3      2.828      6.713
  Name = 
  6 active torsions:
  status: ('A' for Active; 'I' for Inactive)
    1  A    between atoms: C_2  and  C_21
    2  A    between atoms: C_5  and  C_22
    3  A    between atoms: C_6  and  C_15
    4  A    between atoms: C_6  and  C_23
    5  A    between atoms: C_10  and  C_11
    6  A    between atoms: C_15  and  C_21
                            x       y       z     vdW  Elec       q    Type
                         _______ _______ _______ _____ _____    ______ ____

>  <TORSDO>
F 6

$$$$
=
 OpenBabel10272400523D

 25 27  0  0  1  0  0  0  0  0999 V2000
  189.7970  177.1780  139.0610 C   0  0  0  0  0  0  0  0  0  0  0  0
  189.1650  177.4190  140.2890 C   0  0  0  0  0  0  0  0  0  0  0  0
  188.0280  178.3340  137.9140 C   0  0  0  0  0  3  0  0  0  0  0  0
  191.0430  176.3770  138.8720 C   0  0  1  0  0  3  0  0  0  0  0  0
  187.4130  178.5690  139.1080 N   0  0  0  0  0  0  0  0  0  0  0  0
  191.1400  176.0350  137.3800 C   0  0  2  0  0  3  0  0  0  0  0  0
  187.2790  178.3820  141.5060 C   0  0  0  0  0  0  0  0  0  0  0  0
  185.9890  179.1260  141.5490 C   0  0  0  0  0  1  0  0  0  0  0  0
  189.7030  176.9620  141.4970 C   0  0  0  0  0  3  0  0  0  0  0  0
  189.2340  177.6360  137.8910 C   0  0  0  0  0  0  0  0  0  0  0  0
  190.1080  177.2000  136.4050 S   0  0  0  0  0  0  0  0  0  0  0  0
  187.8340  177.9210  142.7060 C   0  0  0  0  0  3  0  0  0  0  0  0
  189.0430  177.2170  142.7030 C   0  0  0  0  0  0  0  0  0  0  0  0
  187.9420  178.1360  140.2900 C   0  0  0  0  0  0  0  0  0  0  0  0
  190.2820  173.5360  136.9710 C   0  0  0  0  0  3  0  0  0  0  0  0
  190.6720  174.6630  137.1570 C   0  0  0  0  0  0  0  0  0  0  0  0
  193.3600  176.9120  138.8440 O   0  0  0  0  0  0  0  0  0  0  0  0
  192.2550  177.1410  139.3180 C   0  0  0  0  0  3  0  0  0  0  0  0
  189.6150  176.7210  143.9850 C   0  0  0  0  0  2  0  0  0  0  0  0
  189.5110  177.7930  145.0560 C   0  0  0  0  0  2  0  0  0  0  0  0
  188.6950  177.2880  146.2330 C   0  0  2  0  0  3  0  0  0  0  0  0
  187.5050  178.0080  146.3190 O   0  0  0  0  0  1  0  0  0  0  0  0
  189.4560  177.4230  147.5100 C   0  0  0  0  0  0  0  0  0  0  0  0
  190.6110  176.9320  147.6030 O   0  0  0  0  0  0  0  0  0  0  0  0
  188.8960  178.0810  148.5970 O   0  0  0  0  0  1  0  0  0  0  0  0
  1  2  1  0  0  0  0
  2 14  2  0  0  0  0
  2  9  1  0  0  0  0
  3  5  2  0  0  0  0
  4  1  1  0  0  0  0
  4 18  1  6  0  0  0
  5 14  1  0  0  0  0
  6 16  1  1  0  0  0
  6  4  1  0  0  0  0
  7  8  1  0  0  0  0
  7 12  2  0  0  0  0
  9 13  2  0  0  0  0
 10  3  1  0  0  0  0
 10  1  2  0  0  0  0
 11  6  1  0  0  0  0
 11 10  1  0  0  0  0
 13 12  1  0  0  0  0
 13 19  1  0  0  0  0
 14  7  1  0  0  0  0
 15 16  3  0  0  0  0
 17 18  2  0  0  0  0
 19 20  1  0  0  0  0
 20 21  1  0  0  0  0
 21 22  1  1  0  0  0
 21 23  1  0  0  0  0
 23 24  2  0  0  0  0
 23 25  1  0  0  0  0
M  END
>  <MODEL>
6

>  <REMARK>
 VINA RESULT:      -7.0      4.527      6.140
  Name = 
  6 active torsions:
  status: ('A' for Active; 'I' for Inactive)
    1  A    between atoms: C_2  and  C_21
    2  A    between atoms: C_5  and  C_22
    3  A    between atoms: C_6  and  C_15
    4  A    between atoms: C_6  and  C_23
    5  A    between atoms: C_10  and  C_11
    6  A    between atoms: C_15  and  C_21
                            x       y       z     vdW  Elec       q    Type
                         _______ _______ _______ _____ _____    ______ ____

>  <TORSDO>
F 6

$$$$
=
 OpenBabel10272400523D

 25 27  0  0  1  0  0  0  0  0999 V2000
  188.6410  177.3850  144.7380 C   0  0  0  0  0  0  0  0  0  0  0  0
  187.3180  177.7660  144.4720 C   0  0  0  0  0  0  0  0  0  0  0  0
  188.1770  177.3920  147.0970 C   0  0  0  0  0  3  0  0  0  0  0  0
  189.7170  177.2200  143.7150 C   0  0  1  0  0  3  0  0  0  0  0  0
  186.8910  177.7630  146.8390 N   0  0  0  0  0  0  0  0  0  0  0  0
  191.0560  177.2050  144.4640 C   0  0  2  0  0  3  0  0  0  0  0  0
  185.1070  178.3480  145.3280 C   0  0  0  0  0  0  0  0  0  0  0  0
  184.1500  178.5620  146.4510 C   0  0  0  0  0  1  0  0  0  0  0  0
  186.8600  177.9740  143.1660 C   0  0  0  0  0  3  0  0  0  0  0  0
  189.0600  177.1970  146.0370 C   0  0  0  0  0  0  0  0  0  0  0  0
  190.7770  176.7820  146.2290 S   0  0  0  0  0  0  0  0  0  0  0  0
  184.6650  178.5480  144.0150 C   0  0  0  0  0  3  0  0  0  0  0  0
  185.5350  178.3580  142.9370 C   0  0  0  0  0  0  0  0  0  0  0  0
  186.4360  177.9540  145.5650 C   0  0  0  0  0  0  0  0  0  0  0  0
  192.2100  179.6100  144.2880 C   0  0  0  0  0  3  0  0  0  0  0  0
  191.6880  178.5250  144.3710 C   0  0  0  0  0  0  0  0  0  0  0  0
  189.0670  175.9650  141.8030 O   0  0  0  0  0  0  0  0  0  0  0  0
  189.5360  175.9530  142.9330 C   0  0  0  0  0  3  0  0  0  0  0  0
  185.0550  178.5860  141.5470 C   0  0  0  0  0  2  0  0  0  0  0  0
  183.7620  177.8260  141.3060 C   0  0  0  0  0  2  0  0  0  0  0  0
  183.0020  178.4300  140.1390 C   0  0  2  0  0  3  0  0  0  0  0  0
  181.8870  179.1180  140.6130 O   0  0  0  0  0  1  0  0  0  0  0  0
  182.5680  177.3730  139.1780 C   0  0  0  0  0  0  0  0  0  0  0  0
  182.0600  177.7020  138.0750 O   0  0  0  0  0  0  0  0  0  0  0  0
  182.7160  176.0290  139.4960 O   0  0  0  0  0  1  0  0  0  0  0  0
  1 10  1  0  0  0  0
  2  1  2  0  0  0  0
  2 14  1  0  0  0  0
  4 18  1  1  0  0  0
  4  6  1  0  0  0  0
  4  1  1  0  0  0  0
  5  3  1  0  0  0  0
  6 16  1  1  0  0  0
  6 11  1  0  0  0  0
  7 14  1  0  0  0  0
  7  8  1  0  0  0  0
  9  2  1  0  0  0  0
 10 11  1  0  0  0  0
 10  3  2  0  0  0  0
 12  7  2  0  0  0  0
 13  9  2  0  0  0  0
 13 12  1  0  0  0  0
 14  5  2  0  0  0  0
 15 16  3  0  0  0  0
 17 18  2  0  0  0  0
 19 13  1  0  0  0  0
 20 19  1  0  0  0  0
 21 22  1  1  0  0  0
 21 20  1  0  0  0  0
 23 25  1  0  0  0  0
 23 21  1  0  0  0  0
 24 23  2  0  0  0  0
M  END
>  <MODEL>
7

>  <REMARK>
 VINA RESULT:      -6.7      3.072      7.466
  Name = 
  6 active torsions:
  status: ('A' for Active; 'I' for Inactive)
    1  A    between atoms: C_2  and  C_21
    2  A    between atoms: C_5  and  C_22
    3  A    between atoms: C_6  and  C_15
    4  A    between atoms: C_6  and  C_23
    5  A    between atoms: C_10  and  C_11
    6  A    between atoms: C_15  and  C_21
                            x       y       z     vdW  Elec       q    Type
                         _______ _______ _______ _____ _____    ______ ____

>  <TORSDO>
F 6

$$$$
=
 OpenBabel10272400523D

 25 27  0  0  1  0  0  0  0  0999 V2000
  189.1180  177.3090  139.0610 C   0  0  0  0  0  0  0  0  0  0  0  0
  188.5050  177.5370  140.3010 C   0  0  0  0  0  0  0  0  0  0  0  0
  187.2940  178.4130  137.9490 C   0  0  0  0  0  3  0  0  0  0  0  0
  190.3820  176.5430  138.8470 C   0  0  1  0  0  3  0  0  0  0  0  0
  186.6980  178.6340  139.1550 N   0  0  0  0  0  0  0  0  0  0  0  0
  190.4560  176.1990  137.3540 C   0  0  2  0  0  3  0  0  0  0  0  0
  186.6210  178.4510  141.5570 C   0  0  0  0  0  0  0  0  0  0  0  0
  185.3110  179.1590  141.6250 C   0  0  0  0  0  1  0  0  0  0  0  0
  189.0820  177.0980  141.4990 C   0  0  0  0  0  3  0  0  0  0  0  0
  188.5170  177.7480  137.9010 C   0  0  0  0  0  0  0  0  0  0  0  0
  189.3710  177.3320  136.3990 S   0  0  0  0  0  0  0  0  0  0  0  0
  187.2140  178.0080  142.7450 C   0  0  0  0  0  3  0  0  0  0  0  0
  188.4410  177.3380  142.7180 C   0  0  0  0  0  0  0  0  0  0  0  0
  187.2640  178.2190  140.3270 C   0  0  0  0  0  0  0  0  0  0  0  0
  189.6640  173.6730  136.9790 C   0  0  0  0  0  3  0  0  0  0  0  0
  190.0220  174.8140  137.1450 C   0  0  0  0  0  0  0  0  0  0  0  0
  192.2640  177.0090  140.2230 O   0  0  0  0  0  0  0  0  0  0  0  0
  191.5810  177.3420  139.2640 C   0  0  0  0  0  3  0  0  0  0  0  0
  189.0550  176.8630  143.9880 C   0  0  0  0  0  2  0  0  0  0  0  0
  189.4660  178.0450  144.8480 C   0  0  0  0  0  2  0  0  0  0  0  0
  190.9580  178.0010  145.1300 C   0  0  2  0  0  3  0  0  0  0  0  0
  191.6570  177.8810  143.9320 O   0  0  0  0  0  1  0  0  0  0  0  0
  191.2990  176.8590  146.0280 C   0  0  0  0  0  0  0  0  0  0  0  0
  190.9710  176.8980  147.2420 O   0  0  0  0  0  1  0  0  0  0  0  0
  191.9810  175.7550  145.5320 O   0  0  0  0  0  0  0  0  0  0  0  0
  1  2  1  0  0  0  0
  2 14  2  0  0  0  0
  2  9  1  0  0  0  0
  3  5  2  0  0  0  0
  4  1  1  0  0  0  0
  4 18  1  6  0  0  0
  5 14  1  0  0  0  0
  6 16  1  1  0  0  0
  6  4  1  0  0  0  0
  7  8  1  0  0  0  0
  7 12  2  0  0  0  0
  9 13  2  0  0  0  0
 10  3  1  0  0  0  0
 10  1  2  0  0  0  0
 11  6  1  0  0  0  0
 11 10  1  0  0  0  0
 13 12  1  0  0  0  0
 13 19  1  0  0  0  0
 14  7  1  0  0  0  0
 15 16  3  0  0  0  0
 18 17  2  0  0  0  0
 19 20  1  0  0  0  0
 20 21  1  0  0  0  0
 21 22  1  6  0  0  0
 21 23  1  0  0  0  0
 23 24  1  0  0  0  0
 25 23  2  0  0  0  0
M  END
>  <MODEL>
8

>  <REMARK>
 VINA RESULT:      -6.4      4.144      5.581
  Name = 
  6 active torsions:
  status: ('A' for Active; 'I' for Inactive)
    1  A    between atoms: C_2  and  C_21
    2  A    between atoms: C_5  and  C_22
    3  A    between atoms: C_6  and  C_15
    4  A    between atoms: C_6  and  C_23
    5  A    between atoms: C_10  and  C_11
    6  A    between atoms: C_15  and  C_21
                            x       y       z     vdW  Elec       q    Type
                         _______ _______ _______ _____ _____    ______ ____

>  <TORSDO>
F 6

$$$$
=
 OpenBabel10272400523D

 25 27  0  0  1  0  0  0  0  0999 V2000
  189.2370  177.9620  142.5470 C   0  0  0  0  0  0  0  0  0  0  0  0
  187.8710  178.2710  142.6090 C   0  0  0  0  0  0  0  0  0  0  0  0
  189.1120  177.8510  140.1480 C   0  0  0  0  0  3  0  0  0  0  0  0
  190.1310  177.7500  143.7250 C   0  0  1  0  0  3  0  0  0  0  0  0
  187.7830  178.1520  140.2080 N   0  0  0  0  0  0  0  0  0  0  0  0
  191.3950  177.0470  143.2130 C   0  0  2  0  0  3  0  0  0  0  0  0
  185.7690  178.6610  141.4290 C   0  0  0  0  0  0  0  0  0  0  0  0
  184.9680  178.7620  140.1760 C   0  0  0  0  0  1  0  0  0  0  0  0
  187.2160  178.4740  143.8290 C   0  0  0  0  0  3  0  0  0  0  0  0
  189.8470  177.7600  141.3290 C   0  0  0  0  0  0  0  0  0  0  0  0
  191.5640  177.3090  141.4030 S   0  0  0  0  0  0  0  0  0  0  0  0
  185.1310  178.8660  142.6580 C   0  0  0  0  0  3  0  0  0  0  0  0
  185.8520  178.7770  143.8540 C   0  0  0  0  0  0  0  0  0  0  0  0
  187.1440  178.3640  141.3970 C   0  0  0  0  0  0  0  0  0  0  0  0
  191.2320  174.4280  143.7210 C   0  0  0  0  0  3  0  0  0  0  0  0
  191.3090  175.6110  143.4940 C   0  0  0  0  0  0  0  0  0  0  0  0
  191.5110  179.6480  144.1040 O   0  0  0  0  0  0  0  0  0  0  0  0
  190.4810  179.0510  144.3840 C   0  0  0  0  0  3  0  0  0  0  0  0
  185.1580  178.9840  145.1540 C   0  0  0  0  0  2  0  0  0  0  0  0
  185.5170  177.8720  146.1250 C   0  0  0  0  0  2  0  0  0  0  0  0
  186.0650  178.4510  147.4170 C   0  0  2  0  0  3  0  0  0  0  0  0
  185.9820  179.8410  147.3780 O   0  0  0  0  0  1  0  0  0  0  0  0
  187.4830  178.0380  147.6300 C   0  0  0  0  0  0  0  0  0  0  0  0
  188.0960  178.4180  148.6610 O   0  0  0  0  0  1  0  0  0  0  0  0
  188.1320  177.2430  146.6940 O   0  0  0  0  0  0  0  0  0  0  0  0
  1  2  1  0  0  0  0
  1  4  1  0  0  0  0
  2  9  1  0  0  0  0
  3  5  2  0  0  0  0
  3 10  1  0  0  0  0
  4 18  1  6  0  0  0
  5 14  1  0  0  0  0
  6 16  1  6  0  0  0
  6  4  1  0  0  0  0
  7 12  2  0  0  0  0
  8  7  1  0  0  0  0
  9 13  2  0  0  0  0
 10 11  1  0  0  0  0
 10  1  2  0  0  0  0
 11  6  1  0  0  0  0
 12 13  1  0  0  0  0
 13 19  1  0  0  0  0
 14  7  1  0  0  0  0
 14  2  2  0  0  0  0
 16 15  3  0  0  0  0
 17 18  2  0  0  0  0
 19 20  1  0  0  0  0
 20 21  1  0  0  0  0
 21 22  1  6  0  0  0
 21 23  1  0  0  0  0
 23 24  1  0  0  0  0
 25 23  2  0  0  0  0
M  END
>  <MODEL>
9

>  <REMARK>
 VINA RESULT:      -6.3      3.561      6.336
  Name = 
  6 active torsions:
  status: ('A' for Active; 'I' for Inactive)
    1  A    between atoms: C_2  and  C_21
    2  A    between atoms: C_5  and  C_22
    3  A    between atoms: C_6  and  C_15
    4  A    between atoms: C_6  and  C_23
    5  A    between atoms: C_10  and  C_11
    6  A    between atoms: C_15  and  C_21
                            x       y       z     vdW  Elec       q    Type
                         _______ _______ _______ _____ _____    ______ ____

>  <TORSDO>
F 6

$$$$
