=
 OpenBabel10272401043D

 27 31  0  0  1  0  0  0  0  0999 V2000
  189.9000  178.6550  144.0310 N   0  0  0  0  0  2  0  0  0  0  0  0
  191.1190  177.6740  142.0900 C   0  0  0  0  0  0  0  0  0  0  0  0
  188.5620  177.3440  141.6980 N   0  0  0  0  0  0  0  0  0  0  0  0
  191.7240  176.6560  138.1190 C   0  0  0  0  0  3  0  0  0  0  0  0
  190.9170  175.8220  135.9730 F   0  0  0  0  0  0  0  0  0  0  0  0
  192.3400  177.7120  141.5400 C   0  0  0  0  0  3  0  0  0  0  0  0
  188.9610  176.6200  139.0480 C   0  0  0  0  0  2  0  0  0  0  0  0
  185.9540  177.9590  144.2990 C   0  0  0  0  0  0  0  0  0  0  0  0
  189.3680  176.1830  137.6660 C   0  0  0  0  0  3  0  0  0  0  0  0
  184.6980  178.0210  144.3350 O   0  0  0  0  0  0  0  0  0  0  0  0
  190.1280  176.9650  139.9480 C   0  0  0  0  0  0  0  0  0  0  0  0
  191.0890  177.9470  143.5680 C   0  0  2  0  0  3  0  0  0  0  0  0
  190.6320  176.2170  137.2370 C   0  0  0  0  0  0  0  0  0  0  0  0
  191.4950  177.0010  139.3840 C   0  0  0  0  0  0  0  0  0  0  0  0
  188.8190  177.7060  144.2210 C   0  0  1  0  0  3  0  0  0  0  0  0
  189.9290  177.2980  141.2420 C   0  0  0  0  0  0  0  0  0  0  0  0
  186.6460  177.7100  143.0310 C   0  0  0  0  0  2  0  0  0  0  0  0
  192.5530  177.4020  140.1960 O   0  0  0  0  0  0  0  0  0  0  0  0
  186.7360  178.1530  145.5210 C   0  0  0  0  0  3  0  0  0  0  0  0
  188.0640  178.0510  145.4840 C   0  0  0  0  0  3  0  0  0  0  0  0
  187.9790  177.6220  142.9730 C   0  0  0  0  0  0  0  0  0  0  0  0
  192.2640  174.6770  146.1180 C   0  0  0  0  0  3  0  0  0  0  0  0
  191.5190  176.7960  144.4430 C   0  0  0  0  0  0  0  0  0  0  0  0
  191.7450  175.5180  143.9090 C   0  0  0  0  0  3  0  0  0  0  0  0
  192.1190  174.4620  144.7450 C   0  0  0  0  0  3  0  0  0  0  0  0
  192.0310  175.9460  146.6560 C   0  0  0  0  0  3  0  0  0  0  0  0
  191.6570  177.0020  145.8200 C   0  0  0  0  0  3  0  0  0  0  0  0
  1 15  1  0  0  0  0
  2 12  1  0  0  0  0
  3 21  2  0  0  0  0
  4 14  2  0  0  0  0
  5 13  1  0  0  0  0
  6  2  2  0  0  0  0
  7 11  1  0  0  0  0
  8 10  2  0  0  0  0
  8 19  1  0  0  0  0
  9  7  1  0  0  0  0
 11 16  2  0  0  0  0
 12  1  1  0  0  0  0
 12 23  1  1  0  0  0
 13  9  2  0  0  0  0
 13  4  1  0  0  0  0
 14 11  1  0  0  0  0
 14 18  1  0  0  0  0
 15 20  1  1  0  0  0
 16  3  1  0  0  0  0
 16  2  1  0  0  0  0
 17  8  1  0  0  0  0
 18  6  1  0  0  0  0
 20 19  2  0  0  0  0
 21 17  1  0  0  0  0
 21 15  1  0  0  0  0
 22 26  1  0  0  0  0
 23 27  1  0  0  0  0
 24 23  2  0  0  0  0
 24 25  1  0  0  0  0
 25 22  2  0  0  0  0
 27 26  2  0  0  0  0
M  END
>  <MODEL>
1

>  <REMARK>
 VINA RESULT:      -8.7      0.000      0.000
  Name = 
  1 active torsions:
  status: ('A' for Active; 'I' for Inactive)
    1  A    between atoms: C_9  and  C_15
                            x       y       z     vdW  Elec       q    Type
                         _______ _______ _______ _____ _____    ______ ____

>  <TORSDO>
F 1

$$$$
=
 OpenBabel10272401043D

 27 31  0  0  1  0  0  0  0  0999 V2000
  184.8340  179.6040  139.9460 N   0  0  0  0  0  2  0  0  0  0  0  0
  184.5540  178.9710  142.3410 C   0  0  0  0  0  0  0  0  0  0  0  0
  186.9070  178.1670  141.5550 N   0  0  0  0  0  2  0  0  0  0  0  0
  185.7660  178.2760  146.2420 C   0  0  0  0  0  3  0  0  0  0  0  0
  187.3620  177.4020  147.8670 F   0  0  0  0  0  0  0  0  0  0  0  0
  183.7630  179.2710  143.3800 C   0  0  0  0  0  3  0  0  0  0  0  0
  187.7130  177.6580  144.1620 C   0  0  0  0  0  2  0  0  0  0  0  0
  188.0210  178.1400  137.9900 C   0  0  0  0  0  0  0  0  0  0  0  0
  187.9530  177.3740  145.6210 C   0  0  0  0  0  3  0  0  0  0  0  0
  189.1020  177.9530  137.3740 O   0  0  0  0  0  0  0  0  0  0  0  0
  186.3260  178.1820  143.8620 C   0  0  0  0  0  0  0  0  0  0  0  0
  183.9170  179.1640  140.9930 C   0  0  2  0  0  3  0  0  0  0  0  0
  187.0670  177.6740  146.5740 C   0  0  0  0  0  0  0  0  0  0  0  0
  185.4150  178.5110  144.9800 C   0  0  0  0  0  0  0  0  0  0  0  0
  185.5380  178.4540  139.4090 C   0  0  1  0  0  3  0  0  0  0  0  0
  185.9320  178.4090  142.5890 C   0  0  0  0  0  0  0  0  0  0  0  0
  187.9880  178.0900  139.4550 C   0  0  0  0  0  3  0  0  0  0  0  0
  184.1720  179.0720  144.6990 O   0  0  0  0  0  0  0  0  0  0  0  0
  186.7910  178.4260  137.2510 C   0  0  0  0  0  3  0  0  0  0  0  0
  185.6430  178.5860  137.9070 C   0  0  0  0  0  3  0  0  0  0  0  0
  186.8470  178.2660  140.1300 C   0  0  0  0  0  0  0  0  0  0  0  0
  181.1270  176.1150  139.7680 C   0  0  0  0  0  3  0  0  0  0  0  0
  182.9560  178.0780  140.5750 C   0  0  0  0  0  0  0  0  0  0  0  0
  183.4100  176.8890  139.9850 C   0  0  0  0  0  3  0  0  0  0  0  0
  182.4970  175.9090  139.5840 C   0  0  0  0  0  3  0  0  0  0  0  0
  180.6700  177.3020  140.3490 C   0  0  0  0  0  3  0  0  0  0  0  0
  181.5830  178.2820  140.7490 C   0  0  0  0  0  3  0  0  0  0  0  0
  1 12  1  0  0  0  0
  2 16  1  0  0  0  0
  2  6  2  0  0  0  0
  3 16  1  0  0  0  0
  4 13  1  0  0  0  0
  6 18  1  0  0  0  0
  7  9  1  0  0  0  0
  8 17  1  0  0  0  0
  9 13  2  0  0  0  0
 10  8  2  0  0  0  0
 11  7  1  0  0  0  0
 11 14  1  0  0  0  0
 12 23  1  6  0  0  0
 12  2  1  0  0  0  0
 13  5  1  0  0  0  0
 14  4  2  0  0  0  0
 15 20  1  6  0  0  0
 15  1  1  0  0  0  0
 15 21  1  0  0  0  0
 16 11  2  0  0  0  0
 17 21  2  0  0  0  0
 18 14  1  0  0  0  0
 19 20  2  0  0  0  0
 19  8  1  0  0  0  0
 21  3  1  0  0  0  0
 22 26  1  0  0  0  0
 23 27  1  0  0  0  0
 24 23  2  0  0  0  0
 25 22  2  0  0  0  0
 25 24  1  0  0  0  0
 26 27  2  0  0  0  0
M  END
>  <MODEL>
2

>  <REMARK>
 VINA RESULT:      -8.3      4.248      8.541
  Name = 
  1 active torsions:
  status: ('A' for Active; 'I' for Inactive)
    1  A    between atoms: C_9  and  C_15
                            x       y       z     vdW  Elec       q    Type
                         _______ _______ _______ _____ _____    ______ ____

>  <TORSDO>
F 1

$$$$
=
 OpenBabel10272401043D

 27 31  0  0  1  0  0  0  0  0999 V2000
  184.8570  179.4750  138.9910 N   0  0  0  0  0  2  0  0  0  0  0  0
  183.8290  179.0150  141.2150 C   0  0  0  0  0  0  0  0  0  0  0  0
  186.3590  178.3940  141.3420 N   0  0  0  0  0  2  0  0  0  0  0  0
  183.6980  178.7690  145.3490 C   0  0  0  0  0  3  0  0  0  0  0  0
  184.7070  178.1980  147.4950 F   0  0  0  0  0  0  0  0  0  0  0  0
  182.7150  179.3170  141.8950 C   0  0  0  0  0  3  0  0  0  0  0  0
  186.2700  178.1850  144.1080 C   0  0  0  0  0  3  0  0  0  0  0  0
  188.6110  178.1880  138.3690 C   0  0  0  0  0  0  0  0  0  0  0  0
  186.0220  178.0470  145.5870 C   0  0  0  0  0  3  0  0  0  0  0  0
  189.8460  178.0640  138.1680 O   0  0  0  0  0  0  0  0  0  0  0  0
  185.0340  178.5380  143.3120 C   0  0  0  0  0  0  0  0  0  0  0  0
  183.6740  179.0310  139.7200 C   0  0  2  0  0  3  0  0  0  0  0  0
  184.8480  178.3320  146.1550 C   0  0  0  0  0  0  0  0  0  0  0  0
  183.7780  178.8620  144.0230 C   0  0  1  0  0  3  0  0  0  0  0  0
  185.7790  178.3630  138.8460 C   0  0  1  0  0  3  0  0  0  0  0  0
  185.0780  178.6190  141.9640 C   0  0  0  0  0  0  0  0  0  0  0  0
  188.0880  178.2550  139.7370 C   0  0  0  0  0  3  0  0  0  0  0  0
  182.6680  179.2690  143.2890 O   0  0  0  0  0  0  0  0  0  0  0  0
  187.6860  178.2860  137.2390 C   0  0  0  0  0  3  0  0  0  0  0  0
  186.3750  178.3820  137.4580 C   0  0  0  0  0  3  0  0  0  0  0  0
  186.7770  178.3690  139.9750 C   0  0  0  0  0  0  0  0  0  0  0  0
  181.7480  175.5910  137.9760 C   0  0  0  0  0  3  0  0  0  0  0  0
  182.9870  177.8220  139.1320 C   0  0  0  0  0  0  0  0  0  0  0  0
  182.9050  176.6140  139.8400 C   0  0  0  0  0  3  0  0  0  0  0  0
  182.2840  175.5020  139.2640 C   0  0  0  0  0  3  0  0  0  0  0  0
  181.8340  176.7910  137.2640 C   0  0  0  0  0  3  0  0  0  0  0  0
  182.4550  177.9030  137.8400 C   0  0  0  0  0  3  0  0  0  0  0  0
  1 12  1  0  0  0  0
  2  6  2  0  0  0  0
  2 16  1  0  0  0  0
  3 16  1  0  0  0  0
  4 13  2  0  0  0  0
  6 18  1  0  0  0  0
  7  9  2  0  0  0  0
  8 17  1  0  0  0  0
  9 13  1  0  0  0  0
 10  8  2  0  0  0  0
 11 14  1  0  0  0  0
 11  7  1  0  0  0  0
 12 23  1  6  0  0  0
 12  2  1  0  0  0  0
 13  5  1  0  0  0  0
 14  4  1  6  0  0  0
 15 20  1  6  0  0  0
 15  1  1  0  0  0  0
 15 21  1  0  0  0  0
 16 11  2  0  0  0  0
 17 21  2  0  0  0  0
 18 14  1  0  0  0  0
 19 20  2  0  0  0  0
 19  8  1  0  0  0  0
 21  3  1  0  0  0  0
 22 25  1  0  0  0  0
 23 24  1  0  0  0  0
 25 24  2  0  0  0  0
 26 27  1  0  0  0  0
 26 22  2  0  0  0  0
 27 23  2  0  0  0  0
M  END
>  <MODEL>
3

>  <REMARK>
 VINA RESULT:      -8.3      4.702      9.069
  Name = 
  1 active torsions:
  status: ('A' for Active; 'I' for Inactive)
    1  A    between atoms: C_9  and  C_15
                            x       y       z     vdW  Elec       q    Type
                         _______ _______ _______ _____ _____    ______ ____

>  <TORSDO>
F 1

$$$$
=
 OpenBabel10272401043D

 27 31  0  0  1  0  0  0  0  0999 V2000
  189.7320  177.8360  137.0740 N   0  0  0  0  0  2  0  0  0  0  0  0
  188.5290  177.7660  139.2560 C   0  0  0  0  0  0  0  0  0  0  0  0
  190.7350  176.3950  139.4970 N   0  0  0  0  0  2  0  0  0  0  0  0
  188.1740  177.6650  143.3840 C   0  0  0  0  0  3  0  0  0  0  0  0
  188.8760  176.8580  145.5760 F   0  0  0  0  0  0  0  0  0  0  0  0
  187.5400  178.4130  139.8860 C   0  0  0  0  0  3  0  0  0  0  0  0
  190.4830  176.2860  142.2590 C   0  0  0  0  0  3  0  0  0  0  0  0
  192.9210  175.4370  136.6240 C   0  0  0  0  0  0  0  0  0  0  0  0
  190.1490  176.2640  143.7270 C   0  0  0  0  0  3  0  0  0  0  0  0
  194.0640  174.9310  136.4770 O   0  0  0  0  0  0  0  0  0  0  0  0
  189.4470  176.9870  141.4070 C   0  0  0  0  0  0  0  0  0  0  0  0
  188.4430  177.7960  137.7560 C   0  0  2  0  0  3  0  0  0  0  0  0
  189.1010  176.9110  144.2420 C   0  0  0  0  0  0  0  0  0  0  0  0
  188.3290  177.7000  142.0620 C   0  0  1  0  0  3  0  0  0  0  0  0
  190.2670  176.4900  136.9790 C   0  0  1  0  0  3  0  0  0  0  0  0
  189.5650  177.0200  140.0620 C   0  0  0  0  0  0  0  0  0  0  0  0
  192.3940  175.6930  137.9680 C   0  0  0  0  0  3  0  0  0  0  0  0
  187.4280  178.4140  141.2770 O   0  0  0  0  0  0  0  0  0  0  0  0
  192.1150  175.7910  135.4550 C   0  0  0  0  0  3  0  0  0  0  0  0
  190.8920  176.2920  135.6180 C   0  0  0  0  0  3  0  0  0  0  0  0
  191.1760  176.2120  138.1490 C   0  0  0  0  0  0  0  0  0  0  0  0
  185.5800  175.1190  135.9630 C   0  0  0  0  0  3  0  0  0  0  0  0
  187.4370  176.8470  137.1510 C   0  0  0  0  0  0  0  0  0  0  0  0
  187.4780  175.4710  137.4240 C   0  0  0  0  0  3  0  0  0  0  0  0
  186.5490  174.6100  136.8320 C   0  0  0  0  0  3  0  0  0  0  0  0
  185.5410  176.4880  135.6830 C   0  0  0  0  0  3  0  0  0  0  0  0
  186.4700  177.3490  136.2740 C   0  0  0  0  0  3  0  0  0  0  0  0
  1 12  1  0  0  0  0
  2  6  2  0  0  0  0
  2 16  1  0  0  0  0
  3 16  1  0  0  0  0
  4 13  2  0  0  0  0
  6 18  1  0  0  0  0
  7  9  2  0  0  0  0
  8 17  1  0  0  0  0
  9 13  1  0  0  0  0
 10  8  2  0  0  0  0
 11 14  1  0  0  0  0
 11  7  1  0  0  0  0
 12 23  1  6  0  0  0
 12  2  1  0  0  0  0
 13  5  1  0  0  0  0
 14  4  1  6  0  0  0
 15 20  1  6  0  0  0
 15  1  1  0  0  0  0
 15 21  1  0  0  0  0
 16 11  2  0  0  0  0
 17 21  2  0  0  0  0
 18 14  1  0  0  0  0
 19 20  2  0  0  0  0
 19  8  1  0  0  0  0
 21  3  1  0  0  0  0
 22 25  1  0  0  0  0
 23 24  1  0  0  0  0
 25 24  2  0  0  0  0
 26 22  2  0  0  0  0
 26 27  1  0  0  0  0
 27 23  2  0  0  0  0
M  END
>  <MODEL>
4

>  <REMARK>
 VINA RESULT:      -7.4      3.177      8.066
  Name = 
  1 active torsions:
  status: ('A' for Active; 'I' for Inactive)
    1  A    between atoms: C_9  and  C_15
                            x       y       z     vdW  Elec       q    Type
                         _______ _______ _______ _____ _____    ______ ____

>  <TORSDO>
F 1

$$$$
=
 OpenBabel10272401043D

 27 31  0  0  1  0  0  0  0  0999 V2000
  182.3620  177.7490  140.7190 N   0  0  0  0  0  2  0  0  0  0  0  0
  184.0360  178.0200  138.8910 C   0  0  0  0  0  0  0  0  0  0  0  0
  185.2220  178.5060  141.1620 N   0  0  0  0  0  0  0  0  0  0  0  0
  187.7810  177.8350  137.1270 C   0  0  0  0  0  3  0  0  0  0  0  0
  190.2020  178.1300  137.2000 F   0  0  0  0  0  0  0  0  0  0  0  0
  184.1810  177.7000  137.5980 C   0  0  0  0  0  3  0  0  0  0  0  0
  187.7330  178.4270  139.9810 C   0  0  0  0  0  3  0  0  0  0  0  0
  183.4250  178.9190  144.4110 C   0  0  0  0  0  0  0  0  0  0  0  0
  188.9990  178.4200  139.1660 C   0  0  0  0  0  3  0  0  0  0  0  0
  183.7440  179.0070  145.6240 O   0  0  0  0  0  0  0  0  0  0  0  0
  186.4780  178.2170  139.1630 C   0  0  0  0  0  0  0  0  0  0  0  0
  182.6100  178.1680  139.3430 C   0  0  2  0  0  3  0  0  0  0  0  0
  189.0200  178.1320  137.8620 C   0  0  0  0  0  0  0  0  0  0  0  0
  186.5930  177.8780  137.7280 C   0  0  1  0  0  3  0  0  0  0  0  0
  182.7220  178.8260  141.6220 C   0  0  1  0  0  3  0  0  0  0  0  0
  185.2580  178.2770  139.7400 C   0  0  0  0  0  0  0  0  0  0  0  0
  184.4580  178.7330  143.3870 C   0  0  0  0  0  2  0  0  0  0  0  0
  185.4390  177.6030  137.0010 O   0  0  0  0  0  0  0  0  0  0  0  0
  182.0190  178.9840  144.0110 C   0  0  0  0  0  3  0  0  0  0  0  0
  181.6900  178.9260  142.7210 C   0  0  0  0  0  3  0  0  0  0  0  0
  184.1450  178.6560  142.0900 C   0  0  0  0  0  0  0  0  0  0  0  0
  180.7590  181.8790  138.1680 C   0  0  0  0  0  3  0  0  0  0  0  0
  181.9420  179.4620  138.9480 C   0  0  0  0  0  0  0  0  0  0  0  0
  180.5730  179.5130  138.6440 C   0  0  0  0  0  3  0  0  0  0  0  0
  179.9830  180.7200  138.2580 C   0  0  0  0  0  3  0  0  0  0  0  0
  182.1250  181.8310  138.4610 C   0  0  0  0  0  3  0  0  0  0  0  0
  182.7150  180.6240  138.8480 C   0  0  0  0  0  3  0  0  0  0  0  0
  1 15  1  0  0  0  0
  2 12  1  0  0  0  0
  2 16  1  0  0  0  0
  3 21  2  0  0  0  0
  4 13  2  0  0  0  0
  5 13  1  0  0  0  0
  6  2  2  0  0  0  0
  8 10  2  0  0  0  0
  9  7  2  0  0  0  0
 11 16  2  0  0  0  0
 11  7  1  0  0  0  0
 12 23  1  1  0  0  0
 12  1  1  0  0  0  0
 13  9  1  0  0  0  0
 14  4  1  6  0  0  0
 14 11  1  0  0  0  0
 15 21  1  0  0  0  0
 15 20  1  1  0  0  0
 16  3  1  0  0  0  0
 17  8  1  0  0  0  0
 18  6  1  0  0  0  0
 18 14  1  0  0  0  0
 19  8  1  0  0  0  0
 20 19  2  0  0  0  0
 21 17  1  0  0  0  0
 22 25  2  0  0  0  0
 22 26  1  0  0  0  0
 24 23  2  0  0  0  0
 25 24  1  0  0  0  0
 26 27  2  0  0  0  0
 27 23  1  0  0  0  0
M  END
>  <MODEL>
5

>  <REMARK>
 VINA RESULT:      -7.3      5.002      8.064
  Name = 
  1 active torsions:
  status: ('A' for Active; 'I' for Inactive)
    1  A    between atoms: C_9  and  C_15
                            x       y       z     vdW  Elec       q    Type
                         _______ _______ _______ _____ _____    ______ ____

>  <TORSDO>
F 1

$$$$
=
 OpenBabel10272401043D

 27 31  0  0  1  0  0  0  0  0999 V2000
  186.1750  178.9170  137.9950 N   0  0  0  0  0  2  0  0  0  0  0  0
  184.6810  178.7100  139.9800 C   0  0  0  0  0  0  0  0  0  0  0  0
  187.0980  178.0530  140.7070 N   0  0  0  0  0  2  0  0  0  0  0  0
  183.6670  178.8940  143.9940 C   0  0  0  0  0  3  0  0  0  0  0  0
  184.1740  178.5260  146.3520 F   0  0  0  0  0  0  0  0  0  0  0  0
  183.4620  179.1030  140.3730 C   0  0  0  0  0  3  0  0  0  0  0  0
  186.4170  178.1320  143.3970 C   0  0  0  0  0  3  0  0  0  0  0  0
  189.9180  177.4970  138.3220 C   0  0  0  0  0  0  0  0  0  0  0  0
  185.8550  178.1520  144.7940 C   0  0  0  0  0  3  0  0  0  0  0  0
  191.1610  177.3260  138.4040 O   0  0  0  0  0  0  0  0  0  0  0  0
  185.3930  178.4270  142.3230 C   0  0  0  0  0  0  0  0  0  0  0  0
  184.8470  178.5750  138.4920 C   0  0  2  0  0  3  0  0  0  0  0  0
  184.6010  178.5180  145.0670 C   0  0  0  0  0  0  0  0  0  0  0  0
  184.0300  178.8490  142.7130 C   0  0  1  0  0  3  0  0  0  0  0  0
  187.0590  177.7780  138.1600 C   0  0  1  0  0  3  0  0  0  0  0  0
  185.7250  178.3680  141.0150 C   0  0  0  0  0  0  0  0  0  0  0  0
  189.1200  177.7150  139.5320 C   0  0  0  0  0  3  0  0  0  0  0  0
  183.1180  179.2000  141.7220 O   0  0  0  0  0  0  0  0  0  0  0  0
  189.2580  177.4960  137.0150 C   0  0  0  0  0  3  0  0  0  0  0  0
  187.9360  177.6410  136.9370 C   0  0  0  0  0  3  0  0  0  0  0  0
  187.7950  177.8790  139.4710 C   0  0  0  0  0  0  0  0  0  0  0  0
  183.1990  175.0070  136.7240 C   0  0  0  0  0  3  0  0  0  0  0  0
  184.2500  177.3270  137.8890 C   0  0  0  0  0  0  0  0  0  0  0  0
  183.7260  176.3070  138.6970 C   0  0  0  0  0  3  0  0  0  0  0  0
  183.2000  175.1500  138.1140 C   0  0  0  0  0  3  0  0  0  0  0  0
  183.7270  176.0180  135.9160 C   0  0  0  0  0  3  0  0  0  0  0  0
  184.2530  177.1750  136.4990 C   0  0  0  0  0  3  0  0  0  0  0  0
  1 15  1  0  0  0  0
  1 12  1  0  0  0  0
  2  6  2  0  0  0  0
  2 16  1  0  0  0  0
  3 16  1  0  0  0  0
  4 13  2  0  0  0  0
  6 18  1  0  0  0  0
  7  9  2  0  0  0  0
  8 10  2  0  0  0  0
  8 17  1  0  0  0  0
  9 13  1  0  0  0  0
 11 14  1  0  0  0  0
 11  7  1  0  0  0  0
 12 23  1  1  0  0  0
 12  2  1  0  0  0  0
 13  5  1  0  0  0  0
 14  4  1  6  0  0  0
 15 20  1  6  0  0  0
 15 21  1  0  0  0  0
 16 11  2  0  0  0  0
 18 14  1  0  0  0  0
 19  8  1  0  0  0  0
 20 19  2  0  0  0  0
 21 17  2  0  0  0  0
 21  3  1  0  0  0  0
 22 25  1  0  0  0  0
 23 24  1  0  0  0  0
 25 24  2  0  0  0  0
 26 27  1  0  0  0  0
 26 22  2  0  0  0  0
 27 23  2  0  0  0  0
M  END
>  <MODEL>
6

>  <REMARK>
 VINA RESULT:      -7.3      4.400      8.789
  Name = 
  1 active torsions:
  status: ('A' for Active; 'I' for Inactive)
    1  A    between atoms: C_9  and  C_15
                            x       y       z     vdW  Elec       q    Type
                         _______ _______ _______ _____ _____    ______ ____

>  <TORSDO>
F 1

$$$$
=
 OpenBabel10272401043D

 27 31  0  0  1  0  0  0  0  0999 V2000
  189.4290  178.2310  137.6910 N   0  0  0  0  0  2  0  0  0  0  0  0
  187.8080  178.0580  139.5760 C   0  0  0  0  0  0  0  0  0  0  0  0
  190.0440  176.9410  140.3190 N   0  0  0  0  0  2  0  0  0  0  0  0
  186.6030  177.9720  143.5400 C   0  0  0  0  0  3  0  0  0  0  0  0
  186.9070  177.2740  145.8580 F   0  0  0  0  0  0  0  0  0  0  0  0
  186.6450  178.6010  139.9620 C   0  0  0  0  0  3  0  0  0  0  0  0
  189.2290  176.8400  142.9700 C   0  0  0  0  0  3  0  0  0  0  0  0
  192.8750  176.1920  138.0000 C   0  0  0  0  0  0  0  0  0  0  0  0
  188.5970  176.8010  144.3360 C   0  0  0  0  0  3  0  0  0  0  0  0
  194.0700  175.8130  138.1120 O   0  0  0  0  0  0  0  0  0  0  0  0
  188.3290  177.4120  141.8970 C   0  0  0  0  0  0  0  0  0  0  0  0
  188.0370  178.0590  138.0900 C   0  0  2  0  0  3  0  0  0  0  0  0
  187.4020  177.3350  144.5990 C   0  0  0  0  0  0  0  0  0  0  0  0
  187.0280  178.0060  142.2790 C   0  0  1  0  0  3  0  0  0  0  0  0
  190.1110  176.9520  137.7570 C   0  0  1  0  0  3  0  0  0  0  0  0
  188.7230  177.4410  140.6050 C   0  0  0  0  0  0  0  0  0  0  0  0
  192.0530  176.4060  139.1950 C   0  0  0  0  0  3  0  0  0  0  0  0
  186.2430  178.6070  141.2990 O   0  0  0  0  0  0  0  0  0  0  0  0
  192.3010  176.4400  136.6770 C   0  0  0  0  0  3  0  0  0  0  0  0
  191.0250  176.8060  136.5640 C   0  0  0  0  0  3  0  0  0  0  0  0
  190.7760  176.7900  139.1000 C   0  0  0  0  0  0  0  0  0  0  0  0
  185.8810  174.9920  135.9650 C   0  0  0  0  0  3  0  0  0  0  0  0
  187.2870  176.9980  137.3240 C   0  0  0  0  0  0  0  0  0  0  0  0
  186.3550  177.3370  136.3300 C   0  0  0  0  0  3  0  0  0  0  0  0
  185.6560  176.3350  135.6510 C   0  0  0  0  0  3  0  0  0  0  0  0
  186.8020  174.6500  136.9590 C   0  0  0  0  0  3  0  0  0  0  0  0
  187.5010  175.6520  137.6390 C   0  0  0  0  0  3  0  0  0  0  0  0
  1 15  1  0  0  0  0
  1 12  1  0  0  0  0
  2  6  2  0  0  0  0
  2 16  1  0  0  0  0
  3 16  1  0  0  0  0
  4 13  2  0  0  0  0
  6 18  1  0  0  0  0
  7  9  2  0  0  0  0
  8 10  2  0  0  0  0
  8 17  1  0  0  0  0
  9 13  1  0  0  0  0
 11 14  1  0  0  0  0
 11  7  1  0  0  0  0
 12 23  1  1  0  0  0
 12  2  1  0  0  0  0
 13  5  1  0  0  0  0
 14  4  1  6  0  0  0
 15 20  1  6  0  0  0
 15 21  1  0  0  0  0
 16 11  2  0  0  0  0
 18 14  1  0  0  0  0
 19  8  1  0  0  0  0
 20 19  2  0  0  0  0
 21 17  2  0  0  0  0
 21  3  1  0  0  0  0
 22 26  1  0  0  0  0
 23 27  1  0  0  0  0
 24 23  2  0  0  0  0
 25 22  2  0  0  0  0
 25 24  1  0  0  0  0
 26 27  2  0  0  0  0
M  END
>  <MODEL>
7

>  <REMARK>
 VINA RESULT:      -7.2      3.203      7.923
  Name = 
  1 active torsions:
  status: ('A' for Active; 'I' for Inactive)
    1  A    between atoms: C_9  and  C_15
                            x       y       z     vdW  Elec       q    Type
                         _______ _______ _______ _____ _____    ______ ____

>  <TORSDO>
F 1

$$$$
=
 OpenBabel10272401043D

 27 31  0  0  1  0  0  0  0  0999 V2000
  189.6950  177.8920  137.0100 N   0  0  0  0  0  2  0  0  0  0  0  0
  187.4560  178.0380  138.0960 C   0  0  0  0  0  0  0  0  0  0  0  0
  189.2530  177.7740  139.9670 N   0  0  0  0  0  2  0  0  0  0  0  0
  184.7360  179.0830  141.0420 C   0  0  0  0  0  3  0  0  0  0  0  0
  184.1020  179.3270  143.3850 F   0  0  0  0  0  0  0  0  0  0  0  0
  186.2060  178.4120  137.7890 C   0  0  0  0  0  3  0  0  0  0  0  0
  187.4280  178.4310  141.9510 C   0  0  0  0  0  3  0  0  0  0  0  0
  192.8280  176.9020  139.3210 C   0  0  0  0  0  0  0  0  0  0  0  0
  186.2940  178.7350  142.8950 C   0  0  0  0  0  3  0  0  0  0  0  0
  193.8910  176.8590  139.9910 O   0  0  0  0  0  0  0  0  0  0  0  0
  187.0150  178.3780  140.4970 C   0  0  0  0  0  0  0  0  0  0  0  0
  188.2750  177.5690  136.9260 C   0  0  2  0  0  3  0  0  0  0  0  0
  185.0660  179.0510  142.4750 C   0  0  0  0  0  0  0  0  0  0  0  0
  185.6390  178.7660  140.1170 C   0  0  1  0  0  3  0  0  0  0  0  0
  190.3660  176.9010  137.8300 C   0  0  1  0  0  3  0  0  0  0  0  0
  187.9030  178.0380  139.5370 C   0  0  0  0  0  0  0  0  0  0  0  0
  191.5750  177.3340  139.9490 C   0  0  0  0  0  3  0  0  0  0  0  0
  185.2910  178.7970  138.7690 O   0  0  0  0  0  0  0  0  0  0  0  0
  192.8340  176.5380  137.9030 C   0  0  0  0  0  3  0  0  0  0  0  0
  191.6980  176.5510  137.2080 C   0  0  0  0  0  3  0  0  0  0  0  0
  190.4290  177.3700  139.2610 C   0  0  0  0  0  0  0  0  0  0  0  0
  187.4800  173.5680  135.5350 C   0  0  0  0  0  3  0  0  0  0  0  0
  187.9730  176.1690  136.4500 C   0  0  0  0  0  0  0  0  0  0  0  0
  187.4120  175.2120  137.3100 C   0  0  0  0  0  3  0  0  0  0  0  0
  187.1640  173.9150  136.8510 C   0  0  0  0  0  3  0  0  0  0  0  0
  188.0450  174.5160  134.6770 C   0  0  0  0  0  3  0  0  0  0  0  0
  188.2930  175.8130  135.1360 C   0  0  0  0  0  3  0  0  0  0  0  0
  1 15  1  0  0  0  0
  2 16  1  0  0  0  0
  4 13  2  0  0  0  0
  6  2  2  0  0  0  0
  6 18  1  0  0  0  0
  7  9  2  0  0  0  0
  8 17  1  0  0  0  0
  8 10  2  0  0  0  0
 11  7  1  0  0  0  0
 12 23  1  1  0  0  0
 12  1  1  0  0  0  0
 12  2  1  0  0  0  0
 13  9  1  0  0  0  0
 13  5  1  0  0  0  0
 14 11  1  0  0  0  0
 14  4  1  1  0  0  0
 15 20  1  6  0  0  0
 15 21  1  0  0  0  0
 16  3  1  0  0  0  0
 16 11  2  0  0  0  0
 18 14  1  0  0  0  0
 19  8  1  0  0  0  0
 20 19  2  0  0  0  0
 21 17  2  0  0  0  0
 21  3  1  0  0  0  0
 22 25  1  0  0  0  0
 23 24  1  0  0  0  0
 25 24  2  0  0  0  0
 26 27  1  0  0  0  0
 26 22  2  0  0  0  0
 27 23  2  0  0  0  0
M  END
>  <MODEL>
8

>  <REMARK>
 VINA RESULT:      -7.2      4.000      7.960
  Name = 
  1 active torsions:
  status: ('A' for Active; 'I' for Inactive)
    1  A    between atoms: C_9  and  C_15
                            x       y       z     vdW  Elec       q    Type
                         _______ _______ _______ _____ _____    ______ ____

>  <TORSDO>
F 1

$$$$
=
 OpenBabel10272401043D

 27 31  0  0  1  0  0  0  0  0999 V2000
  186.9930  178.7880  137.7930 N   0  0  0  0  0  2  0  0  0  0  0  0
  185.0800  178.7060  139.3890 C   0  0  0  0  0  0  0  0  0  0  0  0
  187.2510  178.0730  140.6870 N   0  0  0  0  0  2  0  0  0  0  0  0
  183.1770  179.1270  143.0460 C   0  0  0  0  0  3  0  0  0  0  0  0
  183.1220  178.8900  145.4730 F   0  0  0  0  0  0  0  0  0  0  0  0
  183.8110  179.1310  139.4690 C   0  0  0  0  0  3  0  0  0  0  0  0
  185.9740  178.3110  143.1390 C   0  0  0  0  0  3  0  0  0  0  0  0
  190.5310  177.3590  139.0470 C   0  0  0  0  0  0  0  0  0  0  0  0
  185.1080  178.4150  144.3670 C   0  0  0  0  0  3  0  0  0  0  0  0
  191.7180  177.1840  139.4220 O   0  0  0  0  0  0  0  0  0  0  0  0
  185.2300  178.5520  141.8440 C   0  0  0  0  0  0  0  0  0  0  0  0
  185.5790  178.4860  137.9880 C   0  0  2  0  0  3  0  0  0  0  0  0
  183.8320  178.8050  144.3230 C   0  0  0  0  0  0  0  0  0  0  0  0
  183.8220  179.0060  141.8880 C   0  0  1  0  0  3  0  0  0  0  0  0
  187.7910  177.6530  138.2170 C   0  0  1  0  0  3  0  0  0  0  0  0
  185.8510  178.4150  140.6530 C   0  0  0  0  0  0  0  0  0  0  0  0
  189.4810  177.6520  140.0280 C   0  0  0  0  0  3  0  0  0  0  0  0
  183.1700  179.3070  140.6960 O   0  0  0  0  0  0  0  0  0  0  0  0
  190.1880  177.2890  137.6260 C   0  0  0  0  0  3  0  0  0  0  0  0
  188.9220  177.4400  137.2380 C   0  0  0  0  0  3  0  0  0  0  0  0
  188.2090  177.8230  139.6550 C   0  0  0  0  0  0  0  0  0  0  0  0
  184.1740  174.8490  136.1490 C   0  0  0  0  0  3  0  0  0  0  0  0
  185.1100  177.2100  137.3320 C   0  0  0  0  0  0  0  0  0  0  0  0
  185.3370  176.9650  135.9700 C   0  0  0  0  0  3  0  0  0  0  0  0
  184.8710  175.7860  135.3810 C   0  0  0  0  0  3  0  0  0  0  0  0
  183.9390  175.0930  137.5060 C   0  0  0  0  0  3  0  0  0  0  0  0
  184.4050  176.2720  138.0950 C   0  0  0  0  0  3  0  0  0  0  0  0
  1 12  1  0  0  0  0
  1 15  1  0  0  0  0
  2  6  2  0  0  0  0
  2 16  1  0  0  0  0
  4 13  2  0  0  0  0
  6 18  1  0  0  0  0
  7  9  2  0  0  0  0
  8 10  2  0  0  0  0
  8 17  1  0  0  0  0
 11 14  1  0  0  0  0
 11  7  1  0  0  0  0
 12 23  1  1  0  0  0
 12  2  1  0  0  0  0
 13  9  1  0  0  0  0
 13  5  1  0  0  0  0
 14  4  1  6  0  0  0
 15 20  1  6  0  0  0
 15 21  1  0  0  0  0
 16  3  1  0  0  0  0
 16 11  2  0  0  0  0
 18 14  1  0  0  0  0
 19  8  1  0  0  0  0
 20 19  2  0  0  0  0
 21 17  2  0  0  0  0
 21  3  1  0  0  0  0
 22 26  1  0  0  0  0
 23 27  1  0  0  0  0
 24 23  2  0  0  0  0
 25 24  1  0  0  0  0
 25 22  2  0  0  0  0
 26 27  2  0  0  0  0
M  END
>  <MODEL>
9

>  <REMARK>
 VINA RESULT:      -7.2      4.342      8.627
  Name = 
  1 active torsions:
  status: ('A' for Active; 'I' for Inactive)
    1  A    between atoms: C_9  and  C_15
                            x       y       z     vdW  Elec       q    Type
                         _______ _______ _______ _____ _____    ______ ____

>  <TORSDO>
F 1

$$$$
