=
 OpenBabel10272401543D

 28 31  0  0  1  0  0  0  0  0999 V2000
  190.5560  176.5670  143.7590 C   0  0  1  0  0  3  0  0  0  0  0  0
  185.6230  177.9600  143.0650 C   0  0  0  0  0  3  0  0  0  0  0  0
  188.9420  177.8570  148.3650 C   0  0  0  0  0  1  0  0  0  0  0  0
  184.8820  178.6040  145.2880 C   0  0  0  0  0  0  0  0  0  0  0  0
  187.1700  177.8080  144.9710 C   0  0  0  0  0  0  0  0  0  0  0  0
  183.3620  178.7540  143.4080 C   0  0  0  0  0  0  0  0  0  0  0  0
  185.9020  178.1190  144.4330 C   0  0  0  0  0  0  0  0  0  0  0  0
  186.3810  178.4660  147.1800 C   0  0  0  0  0  3  0  0  0  0  0  0
  183.6220  178.9170  144.7710 C   0  0  0  0  0  3  0  0  0  0  0  0
  189.6960  177.1830  146.0590 C   0  0  0  0  0  0  0  0  0  0  0  0
  188.2020  177.3310  144.1500 C   0  0  0  0  0  3  0  0  0  0  0  0
  185.1280  178.7730  146.6490 C   0  0  0  0  0  3  0  0  0  0  0  0
  191.9290  176.1910  145.8570 C   0  0  0  0  0  3  0  0  0  0  0  0
  188.6780  177.6740  146.9000 C   0  0  0  0  0  0  0  0  0  0  0  0
  191.0300  176.8430  146.5960 C   0  0  0  0  0  3  0  0  0  0  0  0
  181.7820  179.1470  142.7680 Cl  0  0  0  0  0  0  0  0  0  0  0  0
  184.3610  178.2760  142.5570 C   0  0  0  0  0  3  0  0  0  0  0  0
  187.4110  177.9840  146.3580 C   0  0  0  0  0  0  0  0  0  0  0  0
  191.6020  175.6960  144.4740 C   0  0  0  0  0  2  0  0  0  0  0  0
  189.4530  177.0190  144.6820 C   0  0  0  0  0  0  0  0  0  0  0  0
  191.1550  177.7270  142.9560 C   0  0  2  0  0  3  0  0  0  0  0  0
  191.2270  178.8840  143.7380 O   0  0  0  0  0  1  0  0  0  0  0  0
  190.4810  177.9630  141.5920 C   0  0  0  0  0  2  0  0  0  0  0  0
  192.4910  177.3580  140.3450 C   0  0  0  0  0  2  0  0  0  0  0  0
  191.1670  177.2970  140.4380 C   0  0  0  0  0  0  0  0  0  0  0  0
  190.3770  176.5660  139.4310 C   0  0  0  0  0  0  0  0  0  0  0  0
  189.0730  176.9580  139.1530 O   0  0  0  0  0  1  0  0  0  0  0  0
  190.8720  175.5860  138.8130 O   0  0  0  0  0  0  0  0  0  0  0  0
  1 21  1  1  0  0  0
  1 19  1  0  0  0  0
  1 20  1  0  0  0  0
  2  7  1  0  0  0  0
  4 12  1  0  0  0  0
  5 18  1  0  0  0  0
  6  9  2  0  0  0  0
  7  5  1  0  0  0  0
  7  4  2  0  0  0  0
  9  4  1  0  0  0  0
 10 15  1  0  0  0  0
 10 14  1  0  0  0  0
 11 20  1  0  0  0  0
 11  5  2  0  0  0  0
 12  8  2  0  0  0  0
 13 15  2  0  0  0  0
 14  3  1  0  0  0  0
 16  6  1  0  0  0  0
 17  2  2  0  0  0  0
 17  6  1  0  0  0  0
 18 14  2  0  0  0  0
 18  8  1  0  0  0  0
 19 13  1  0  0  0  0
 20 10  2  0  0  0  0
 21 22  1  1  0  0  0
 23 21  1  0  0  0  0
 24 25  2  0  0  0  0
 25 23  1  0  0  0  0
 26 25  1  0  0  0  0
 27 26  1  0  0  0  0
 28 26  2  0  0  0  0
M  END
>  <MODEL>
1

>  <REMARK>
 VINA RESULT:     -11.8      0.000      0.000
  Name = 
  4 active torsions:
  status: ('A' for Active; 'I' for Inactive)
    1  A    between atoms: C_1  and  C_2
    2  A    between atoms: C_2  and  C_3
    3  A    between atoms: C_3  and  C_11
    4  A    between atoms: C_6  and  C_11
                            x       y       z     vdW  Elec       q    Type
                         _______ _______ _______ _____ _____    ______ ____

>  <TORSDO>
F 4

$$$$
=
 OpenBabel10272401543D

 28 31  0  0  1  0  0  0  0  0999 V2000
  190.3230  176.5280  143.4980 C   0  0  1  0  0  3  0  0  0  0  0  0
  185.3750  177.9980  143.1570 C   0  0  0  0  0  3  0  0  0  0  0  0
  189.0650  177.8470  148.2050 C   0  0  0  0  0  1  0  0  0  0  0  0
  184.8060  178.6550  145.4270 C   0  0  0  0  0  0  0  0  0  0  0  0
  187.0530  177.8230  144.9470 C   0  0  0  0  0  0  0  0  0  0  0  0
  183.1570  178.8270  143.6610 C   0  0  0  0  0  0  0  0  0  0  0  0
  185.7540  178.1540  144.5020 C   0  0  0  0  0  0  0  0  0  0  0  0
  186.4350  178.4950  147.2060 C   0  0  0  0  0  3  0  0  0  0  0  0
  183.5170  178.9870  145.0010 C   0  0  0  0  0  3  0  0  0  0  0  0
  189.6400  177.1590  145.8520 C   0  0  0  0  0  0  0  0  0  0  0  0
  188.0150  177.3300  144.0560 C   0  0  0  0  0  3  0  0  0  0  0  0
  185.1530  178.8210  146.7670 C   0  0  0  0  0  3  0  0  0  0  0  0
  191.8380  176.1320  145.4910 C   0  0  0  0  0  3  0  0  0  0  0  0
  188.6930  177.6660  146.7630 C   0  0  0  0  0  0  0  0  0  0  0  0
  191.0050  176.7990  146.2920 C   0  0  0  0  0  3  0  0  0  0  0  0
  181.5410  179.2440  143.1350 Cl  0  0  0  0  0  0  0  0  0  0  0  0
  184.0850  178.3330  142.7410 C   0  0  0  0  0  3  0  0  0  0  0  0
  187.3960  177.9960  146.3130 C   0  0  0  0  0  0  0  0  0  0  0  0
  191.4040  175.6420  144.1360 C   0  0  0  0  0  2  0  0  0  0  0  0
  189.2960  176.9990  144.4960 C   0  0  0  0  0  0  0  0  0  0  0  0
  190.8810  177.6780  142.6510 C   0  0  2  0  0  3  0  0  0  0  0  0
  191.6520  178.5410  143.4360 O   0  0  0  0  0  1  0  0  0  0  0  0
  189.8210  178.4140  141.8120 C   0  0  0  0  0  2  0  0  0  0  0  0
  190.4030  176.8620  140.0190 C   0  0  0  0  0  2  0  0  0  0  0  0
  189.6520  177.8820  140.4210 C   0  0  0  0  0  0  0  0  0  0  0  0
  188.6470  178.4730  139.5200 C   0  0  0  0  0  0  0  0  0  0  0  0
  189.0470  179.0780  138.3340 O   0  0  0  0  0  0  0  0  0  0  0  0
  187.4210  178.4360  139.8110 O   0  0  0  0  0  1  0  0  0  0  0  0
  1 21  1  1  0  0  0
  1 19  1  0  0  0  0
  1 20  1  0  0  0  0
  2  7  1  0  0  0  0
  4 12  1  0  0  0  0
  5 18  1  0  0  0  0
  6  9  2  0  0  0  0
  7  5  1  0  0  0  0
  7  4  2  0  0  0  0
  9  4  1  0  0  0  0
 10 15  1  0  0  0  0
 10 14  1  0  0  0  0
 11 20  1  0  0  0  0
 11  5  2  0  0  0  0
 12  8  2  0  0  0  0
 13 15  2  0  0  0  0
 14  3  1  0  0  0  0
 16  6  1  0  0  0  0
 17  2  2  0  0  0  0
 17  6  1  0  0  0  0
 18 14  2  0  0  0  0
 18  8  1  0  0  0  0
 19 13  1  0  0  0  0
 20 10  2  0  0  0  0
 21 22  1  1  0  0  0
 23 21  1  0  0  0  0
 24 25  2  0  0  0  0
 25 23  1  0  0  0  0
 26 28  1  0  0  0  0
 26 25  1  0  0  0  0
 27 26  2  0  0  0  0
M  END
>  <MODEL>
2

>  <REMARK>
 VINA RESULT:     -11.6      1.029      1.237
  Name = 
  4 active torsions:
  status: ('A' for Active; 'I' for Inactive)
    1  A    between atoms: C_1  and  C_2
    2  A    between atoms: C_2  and  C_3
    3  A    between atoms: C_3  and  C_11
    4  A    between atoms: C_6  and  C_11
                            x       y       z     vdW  Elec       q    Type
                         _______ _______ _______ _____ _____    ______ ____

>  <TORSDO>
F 4

$$$$
=
 OpenBabel10272401543D

 28 31  0  0  1  0  0  0  0  0999 V2000
  189.2150  176.7240  142.1750 C   0  0  1  0  0  3  0  0  0  0  0  0
  184.2550  178.1900  142.1510 C   0  0  0  0  0  3  0  0  0  0  0  0
  188.2120  177.8830  146.9850 C   0  0  0  0  0  1  0  0  0  0  0  0
  183.8080  178.7700  144.4680 C   0  0  0  0  0  0  0  0  0  0  0  0
  186.0270  177.9600  143.8410 C   0  0  0  0  0  0  0  0  0  0  0  0
  182.0660  178.9950  142.8000 C   0  0  0  0  0  0  0  0  0  0  0  0
  184.7060  178.3020  143.4770 C   0  0  0  0  0  0  0  0  0  0  0  0
  185.5300  178.5560  146.1510 C   0  0  0  0  0  3  0  0  0  0  0  0
  182.4970  179.1120  144.1230 C   0  0  0  0  0  3  0  0  0  0  0  0
  188.6600  177.2760  144.5820 C   0  0  0  0  0  0  0  0  0  0  0  0
  186.9400  177.5000  142.8830 C   0  0  0  0  0  3  0  0  0  0  0  0
  184.2260  178.8920  145.7920 C   0  0  0  0  0  3  0  0  0  0  0  0
  190.8360  176.2670  144.0700 C   0  0  0  0  0  3  0  0  0  0  0  0
  187.7630  177.7490  145.5600 C   0  0  0  0  0  0  0  0  0  0  0  0
  190.0460  176.9040  144.9360 C   0  0  0  0  0  3  0  0  0  0  0  0
  180.4240  179.4250  142.3760 Cl  0  0  0  0  0  0  0  0  0  0  0  0
  182.9430  178.5350  141.8150 C   0  0  0  0  0  3  0  0  0  0  0  0
  186.4420  178.0900  145.1910 C   0  0  0  0  0  0  0  0  0  0  0  0
  190.3310  175.8210  142.7250 C   0  0  0  0  0  2  0  0  0  0  0  0
  188.2440  177.1590  143.2430 C   0  0  0  0  0  0  0  0  0  0  0  0
  189.7260  177.9040  141.3390 C   0  0  2  0  0  3  0  0  0  0  0  0
  188.6590  178.5990  140.7600 O   0  0  0  0  0  1  0  0  0  0  0  0
  190.8200  177.5290  140.3230 C   0  0  0  0  0  2  0  0  0  0  0  0
  189.0690  177.0190  138.7000 C   0  0  0  0  0  2  0  0  0  0  0  0
  190.3180  176.8140  139.1050 C   0  0  0  0  0  0  0  0  0  0  0  0
  191.2110  175.9110  138.3580 C   0  0  0  0  0  0  0  0  0  0  0  0
  190.7930  174.6230  138.0460 O   0  0  0  0  0  1  0  0  0  0  0  0
  192.3550  176.2940  137.9930 O   0  0  0  0  0  0  0  0  0  0  0  0
  1 21  1  1  0  0  0
  1 19  1  0  0  0  0
  1 20  1  0  0  0  0
  2  7  1  0  0  0  0
  4 12  1  0  0  0  0
  5 18  1  0  0  0  0
  6  9  2  0  0  0  0
  7  5  1  0  0  0  0
  7  4  2  0  0  0  0
  9  4  1  0  0  0  0
 10 15  1  0  0  0  0
 10 14  1  0  0  0  0
 11 20  1  0  0  0  0
 11  5  2  0  0  0  0
 12  8  2  0  0  0  0
 13 15  2  0  0  0  0
 14  3  1  0  0  0  0
 16  6  1  0  0  0  0
 17  2  2  0  0  0  0
 17  6  1  0  0  0  0
 18 14  2  0  0  0  0
 18  8  1  0  0  0  0
 19 13  1  0  0  0  0
 20 10  2  0  0  0  0
 21 22  1  6  0  0  0
 23 21  1  0  0  0  0
 24 25  2  0  0  0  0
 25 23  1  0  0  0  0
 26 25  1  0  0  0  0
 27 26  1  0  0  0  0
 28 26  2  0  0  0  0
M  END
>  <MODEL>
3

>  <REMARK>
 VINA RESULT:     -10.0      1.384      1.989
  Name = 
  4 active torsions:
  status: ('A' for Active; 'I' for Inactive)
    1  A    between atoms: C_1  and  C_2
    2  A    between atoms: C_2  and  C_3
    3  A    between atoms: C_3  and  C_11
    4  A    between atoms: C_6  and  C_11
                            x       y       z     vdW  Elec       q    Type
                         _______ _______ _______ _____ _____    ______ ____

>  <TORSDO>
F 4

$$$$
=
 OpenBabel10272401543D

 28 31  0  0  1  0  0  0  0  0999 V2000
  187.9200  177.2360  143.0440 C   0  0  1  0  0  3  0  0  0  0  0  0
  183.7180  178.1300  140.1650 C   0  0  0  0  0  3  0  0  0  0  0  0
  184.4290  178.7880  146.3440 C   0  0  0  0  0  1  0  0  0  0  0  0
  182.0650  178.9030  141.7710 C   0  0  0  0  0  0  0  0  0  0  0  0
  184.2970  178.2820  142.5500 C   0  0  0  0  0  0  0  0  0  0  0  0
  181.4990  178.7520  139.4210 C   0  0  0  0  0  0  0  0  0  0  0  0
  183.3730  178.4340  141.4930 C   0  0  0  0  0  0  0  0  0  0  0  0
  182.6070  179.0650  144.1210 C   0  0  0  0  0  3  0  0  0  0  0  0
  181.1400  179.0580  140.7350 C   0  0  0  0  0  3  0  0  0  0  0  0
  186.1290  177.9780  144.6720 C   0  0  0  0  0  0  0  0  0  0  0  0
  185.5990  177.8260  142.3070 C   0  0  0  0  0  3  0  0  0  0  0  0
  181.6940  179.2130  143.0780 C   0  0  0  0  0  3  0  0  0  0  0  0
  188.2700  177.1690  145.5540 C   0  0  0  0  0  3  0  0  0  0  0  0
  184.8300  178.4520  144.9370 C   0  0  0  0  0  0  0  0  0  0  0  0
  187.1150  177.8040  145.7600 C   0  0  0  0  0  3  0  0  0  0  0  0
  180.3350  178.9480  138.1290 Cl  0  0  0  0  0  0  0  0  0  0  0  0
  182.7860  178.2890  139.1360 C   0  0  0  0  0  3  0  0  0  0  0  0
  183.9090  178.6020  143.8770 C   0  0  0  0  0  0  0  0  0  0  0  0
  188.5910  176.5260  144.2320 C   0  0  0  0  0  2  0  0  0  0  0  0
  186.5100  177.6720  143.3520 C   0  0  0  0  0  0  0  0  0  0  0  0
  188.7610  178.3680  142.4410 C   0  0  2  0  0  3  0  0  0  0  0  0
  188.2140  178.7970  141.2270 O   0  0  0  0  0  1  0  0  0  0  0  0
  190.2650  178.0530  142.3450 C   0  0  0  0  0  2  0  0  0  0  0  0
  191.1020  179.5380  144.0930 C   0  0  0  0  0  2  0  0  0  0  0  0
  191.0320  178.3030  143.6090 C   0  0  0  0  0  0  0  0  0  0  0  0
  191.6830  177.1830  144.3110 C   0  0  0  0  0  0  0  0  0  0  0  0
  191.9700  177.2870  145.6670 O   0  0  0  0  0  1  0  0  0  0  0  0
  191.9820  176.1240  143.6970 O   0  0  0  0  0  0  0  0  0  0  0  0
  1 21  1  1  0  0  0
  1 20  1  0  0  0  0
  1 19  1  0  0  0  0
  2  7  1  0  0  0  0
  4 12  1  0  0  0  0
  5 18  1  0  0  0  0
  6  9  2  0  0  0  0
  7  4  2  0  0  0  0
  7  5  1  0  0  0  0
  9  4  1  0  0  0  0
 10 14  1  0  0  0  0
 10 15  1  0  0  0  0
 11  5  2  0  0  0  0
 11 20  1  0  0  0  0
 12  8  2  0  0  0  0
 13 15  2  0  0  0  0
 14  3  1  0  0  0  0
 16  6  1  0  0  0  0
 17  6  1  0  0  0  0
 17  2  2  0  0  0  0
 18  8  1  0  0  0  0
 18 14  2  0  0  0  0
 19 13  1  0  0  0  0
 20 10  2  0  0  0  0
 21 22  1  6  0  0  0
 23 21  1  0  0  0  0
 23 25  1  0  0  0  0
 25 24  2  0  0  0  0
 25 26  1  0  0  0  0
 26 27  1  0  0  0  0
 28 26  2  0  0  0  0
M  END
>  <MODEL>
4

>  <REMARK>
 VINA RESULT:      -9.0      2.137      4.208
  Name = 
  4 active torsions:
  status: ('A' for Active; 'I' for Inactive)
    1  A    between atoms: C_1  and  C_2
    2  A    between atoms: C_2  and  C_3
    3  A    between atoms: C_3  and  C_11
    4  A    between atoms: C_6  and  C_11
                            x       y       z     vdW  Elec       q    Type
                         _______ _______ _______ _____ _____    ______ ____

>  <TORSDO>
F 4

$$$$
=
 OpenBabel10272401543D

 28 31  0  0  1  0  0  0  0  0999 V2000
  189.4720  178.0430  138.8350 C   0  0  1  0  0  3  0  0  0  0  0  0
  189.0350  177.6670  143.9750 C   0  0  0  0  0  3  0  0  0  0  0  0
  184.5500  178.7080  139.7420 C   0  0  0  0  0  1  0  0  0  0  0  0
  186.6570  177.9600  144.3800 C   0  0  0  0  0  0  0  0  0  0  0  0
  187.5060  178.0670  142.0910 C   0  0  0  0  0  0  0  0  0  0  0  0
  188.1660  177.5650  146.2320 C   0  0  0  0  0  0  0  0  0  0  0  0
  187.7430  177.8970  143.4730 C   0  0  0  0  0  0  0  0  0  0  0  0
  185.1290  178.3530  142.5480 C   0  0  0  0  0  3  0  0  0  0  0  0
  186.8760  177.7940  145.7500 C   0  0  0  0  0  3  0  0  0  0  0  0
  187.0180  178.4140  139.3350 C   0  0  0  0  0  0  0  0  0  0  0  0
  188.5580  178.0050  141.1680 C   0  0  0  0  0  3  0  0  0  0  0  0
  185.3640  178.1860  143.9120 C   0  0  0  0  0  3  0  0  0  0  0  0
  187.8230  178.7500  137.0430 C   0  0  0  0  0  3  0  0  0  0  0  0
  185.9430  178.4660  140.2440 C   0  0  0  0  0  0  0  0  0  0  0  0
  186.7990  178.5940  137.8840 C   0  0  0  0  0  3  0  0  0  0  0  0
  188.4330  177.3590  147.9490 Cl  0  0  0  0  0  0  0  0  0  0  0  0
  189.2450  177.5020  145.3460 C   0  0  0  0  0  3  0  0  0  0  0  0
  186.1850  178.2960  141.6250 C   0  0  0  0  0  0  0  0  0  0  0  0
  189.2420  178.8340  137.5360 C   0  0  0  0  0  2  0  0  0  0  0  0
  188.3240  178.1760  139.8030 C   0  0  0  0  0  0  0  0  0  0  0  0
  189.8760  176.5820  138.6100 C   0  0  2  0  0  3  0  0  0  0  0  0
  190.5450  176.0760  139.7280 O   0  0  0  0  0  1  0  0  0  0  0  0
  190.6340  176.3340  137.2930 C   0  0  0  0  0  2  0  0  0  0  0  0
  191.9990  174.3120  137.3800 C   0  0  0  0  0  2  0  0  0  0  0  0
  191.9510  175.6370  137.4560 C   0  0  0  0  0  0  0  0  0  0  0  0
  193.1790  176.4210  137.6780 C   0  0  0  0  0  0  0  0  0  0  0  0
  194.0710  176.6270  136.6320 O   0  0  0  0  0  0  0  0  0  0  0  0
  193.4330  176.9130  138.8110 O   0  0  0  0  0  1  0  0  0  0  0  0
  1 21  1  6  0  0  0
  1 20  1  0  0  0  0
  2 17  1  0  0  0  0
  3 14  1  0  0  0  0
  4  9  2  0  0  0  0
  5  7  1  0  0  0  0
  6 16  1  0  0  0  0
  7  2  2  0  0  0  0
  7  4  1  0  0  0  0
  8 12  2  0  0  0  0
  9  6  1  0  0  0  0
 10 20  2  0  0  0  0
 10 14  1  0  0  0  0
 11  5  2  0  0  0  0
 12  4  1  0  0  0  0
 13 19  1  0  0  0  0
 13 15  2  0  0  0  0
 14 18  2  0  0  0  0
 15 10  1  0  0  0  0
 17  6  2  0  0  0  0
 18  5  1  0  0  0  0
 18  8  1  0  0  0  0
 19  1  1  0  0  0  0
 20 11  1  0  0  0  0
 21 22  1  1  0  0  0
 23 25  1  0  0  0  0
 23 21  1  0  0  0  0
 24 25  2  0  0  0  0
 25 26  1  0  0  0  0
 26 28  1  0  0  0  0
 27 26  2  0  0  0  0
M  END
>  <MODEL>
5

>  <REMARK>
 VINA RESULT:      -8.9      2.910      5.704
  Name = 
  4 active torsions:
  status: ('A' for Active; 'I' for Inactive)
    1  A    between atoms: C_1  and  C_2
    2  A    between atoms: C_2  and  C_3
    3  A    between atoms: C_3  and  C_11
    4  A    between atoms: C_6  and  C_11
                            x       y       z     vdW  Elec       q    Type
                         _______ _______ _______ _____ _____    ______ ____

>  <TORSDO>
F 4

$$$$
=
 OpenBabel10272401543D

 28 31  0  0  1  0  0  0  0  0999 V2000
  189.2340  178.4170  143.8170 C   0  0  1  0  0  3  0  0  0  0  0  0
  185.2040  178.9460  140.6190 C   0  0  0  0  0  3  0  0  0  0  0  0
  190.9690  176.8960  139.3270 C   0  0  0  0  0  1  0  0  0  0  0  0
  186.0560  178.1800  138.4760 C   0  0  0  0  0  0  0  0  0  0  0  0
  187.5370  178.1950  140.4210 C   0  0  0  0  0  0  0  0  0  0  0  0
  183.7590  178.9200  138.6770 C   0  0  0  0  0  0  0  0  0  0  0  0
  186.2680  178.4430  139.8520 C   0  0  0  0  0  0  0  0  0  0  0  0
  188.3440  177.4350  138.2510 C   0  0  0  0  0  3  0  0  0  0  0  0
  184.8060  178.4200  137.9000 C   0  0  0  0  0  3  0  0  0  0  0  0
  190.0780  177.7020  141.5400 C   0  0  0  0  0  0  0  0  0  0  0  0
  187.7770  178.4390  141.7790 C   0  0  0  0  0  3  0  0  0  0  0  0
  187.0920  177.6800  137.6900 C   0  0  0  0  0  3  0  0  0  0  0  0
  191.6780  177.8930  143.3890 C   0  0  0  0  0  3  0  0  0  0  0  0
  189.8550  177.4360  140.1750 C   0  0  0  0  0  0  0  0  0  0  0  0
  191.3980  177.4580  142.1590 C   0  0  0  0  0  3  0  0  0  0  0  0
  182.1960  179.2190  137.9480 Cl  0  0  0  0  0  0  0  0  0  0  0  0
  183.9570  179.1830  140.0350 C   0  0  0  0  0  3  0  0  0  0  0  0
  188.5850  177.6850  139.6110 C   0  0  0  0  0  0  0  0  0  0  0  0
  190.6980  178.7250  144.1720 C   0  0  0  0  0  2  0  0  0  0  0  0
  189.0310  178.1990  142.3390 C   0  0  0  0  0  0  0  0  0  0  0  0
  188.6120  177.2980  144.6610 C   0  0  2  0  0  3  0  0  0  0  0  0
  188.7670  176.0590  144.0320 O   0  0  0  0  0  1  0  0  0  0  0  0
  187.1620  177.5730  145.1000 C   0  0  0  0  0  2  0  0  0  0  0  0
  187.9610  177.6810  147.4040 C   0  0  0  0  0  2  0  0  0  0  0  0
  187.0170  178.0050  146.5280 C   0  0  0  0  0  0  0  0  0  0  0  0
  185.8480  178.7990  146.9440 C   0  0  0  0  0  0  0  0  0  0  0  0
  184.5640  178.3510  146.6540 O   0  0  0  0  0  0  0  0  0  0  0  0
  185.9960  179.8850  147.5660 O   0  0  0  0  0  1  0  0  0  0  0  0
  1 19  1  0  0  0  0
  1 21  1  1  0  0  0
  3 14  1  0  0  0  0
  4  7  1  0  0  0  0
  5 11  1  0  0  0  0
  6 17  2  0  0  0  0
  7  5  1  0  0  0  0
  7  2  2  0  0  0  0
  8 18  1  0  0  0  0
  9  4  2  0  0  0  0
  9  6  1  0  0  0  0
 10 15  1  0  0  0  0
 10 20  1  0  0  0  0
 11 20  2  0  0  0  0
 12  8  2  0  0  0  0
 12  4  1  0  0  0  0
 13 19  1  0  0  0  0
 14 10  2  0  0  0  0
 15 13  2  0  0  0  0
 16  6  1  0  0  0  0
 17  2  1  0  0  0  0
 18 14  1  0  0  0  0
 18  5  2  0  0  0  0
 20  1  1  0  0  0  0
 21 22  1  6  0  0  0
 21 23  1  0  0  0  0
 23 25  1  0  0  0  0
 25 26  1  0  0  0  0
 25 24  2  0  0  0  0
 26 28  1  0  0  0  0
 27 26  2  0  0  0  0
M  END
>  <MODEL>
6

>  <REMARK>
 VINA RESULT:      -8.9      3.105      6.213
  Name = 
  4 active torsions:
  status: ('A' for Active; 'I' for Inactive)
    1  A    between atoms: C_1  and  C_2
    2  A    between atoms: C_2  and  C_3
    3  A    between atoms: C_3  and  C_11
    4  A    between atoms: C_6  and  C_11
                            x       y       z     vdW  Elec       q    Type
                         _______ _______ _______ _____ _____    ______ ____

>  <TORSDO>
F 4

$$$$
=
 OpenBabel10272401543D

 28 31  0  0  1  0  0  0  0  0999 V2000
  183.2230  178.4200  139.1120 C   0  0  1  0  0  3  0  0  0  0  0  0
  186.7720  177.8340  142.8290 C   0  0  0  0  0  3  0  0  0  0  0  0
  180.7390  179.3810  143.4010 C   0  0  0  0  0  1  0  0  0  0  0  0
  185.5440  178.2720  144.8810 C   0  0  0  0  0  0  0  0  0  0  0  0
  184.3870  178.4270  142.7340 C   0  0  0  0  0  0  0  0  0  0  0  0
  187.8930  177.6880  144.9700 C   0  0  0  0  0  0  0  0  0  0  0  0
  185.5680  178.1770  143.4670 C   0  0  0  0  0  0  0  0  0  0  0  0
  183.1990  178.8550  144.8170 C   0  0  0  0  0  3  0  0  0  0  0  0
  186.7050  178.0280  145.6200 C   0  0  0  0  0  3  0  0  0  0  0  0
  182.0240  178.9350  141.2810 C   0  0  0  0  0  0  0  0  0  0  0  0
  184.3760  178.3350  141.3350 C   0  0  0  0  0  3  0  0  0  0  0  0
  184.3650  178.6100  145.5420 C   0  0  0  0  0  3  0  0  0  0  0  0
  180.8540  179.3210  139.1610 C   0  0  0  0  0  3  0  0  0  0  0  0
  182.0080  179.0190  142.6870 C   0  0  0  0  0  0  0  0  0  0  0  0
  180.8040  179.1980  140.4880 C   0  0  0  0  0  3  0  0  0  0  0  0
  189.3420  177.3840  145.9030 Cl  0  0  0  0  0  0  0  0  0  0  0  0
  187.9270  177.5920  143.5770 C   0  0  0  0  0  3  0  0  0  0  0  0
  183.1910  178.7690  143.4170 C   0  0  0  0  0  0  0  0  0  0  0  0
  182.1600  179.2840  138.4150 C   0  0  0  0  0  2  0  0  0  0  0  0
  183.2110  178.5860  140.6110 C   0  0  0  0  0  0  0  0  0  0  0  0
  183.2010  176.9450  138.6910 C   0  0  2  0  0  3  0  0  0  0  0  0
  182.6710  176.1480  139.7100 O   0  0  0  0  0  1  0  0  0  0  0  0
  184.5460  176.4230  138.1560 C   0  0  0  0  0  2  0  0  0  0  0  0
  184.4980  177.1560  135.8280 C   0  0  0  0  0  2  0  0  0  0  0  0
  185.1050  177.2100  137.0080 C   0  0  0  0  0  0  0  0  0  0  0  0
  186.3020  178.0470  137.2000 C   0  0  0  0  0  0  0  0  0  0  0  0
  186.6520  178.4790  138.4730 O   0  0  0  0  0  1  0  0  0  0  0  0
  187.0200  178.3770  136.2180 O   0  0  0  0  0  0  0  0  0  0  0  0
  1 21  1  1  0  0  0
  1 20  1  0  0  0  0
  2  7  2  0  0  0  0
  2 17  1  0  0  0  0
  4 12  1  0  0  0  0
  4  9  2  0  0  0  0
  5 18  1  0  0  0  0
  5  7  1  0  0  0  0
  6  9  1  0  0  0  0
  6 16  1  0  0  0  0
  7  4  1  0  0  0  0
  8 12  2  0  0  0  0
 10 14  1  0  0  0  0
 11  5  2  0  0  0  0
 13 15  2  0  0  0  0
 14  3  1  0  0  0  0
 14 18  2  0  0  0  0
 15 10  1  0  0  0  0
 17  6  2  0  0  0  0
 18  8  1  0  0  0  0
 19  1  1  0  0  0  0
 19 13  1  0  0  0  0
 20 10  2  0  0  0  0
 20 11  1  0  0  0  0
 21 22  1  1  0  0  0
 23 21  1  0  0  0  0
 24 25  2  0  0  0  0
 25 26  1  0  0  0  0
 25 23  1  0  0  0  0
 26 27  1  0  0  0  0
 28 26  2  0  0  0  0
M  END
>  <MODEL>
7

>  <REMARK>
 VINA RESULT:      -8.8      3.695      7.247
  Name = 
  4 active torsions:
  status: ('A' for Active; 'I' for Inactive)
    1  A    between atoms: C_1  and  C_2
    2  A    between atoms: C_2  and  C_3
    3  A    between atoms: C_3  and  C_11
    4  A    between atoms: C_6  and  C_11
                            x       y       z     vdW  Elec       q    Type
                         _______ _______ _______ _____ _____    ______ ____

>  <TORSDO>
F 4

$$$$
