=
 OpenBabel10272414133D

 43 47  0  0  1  0  0  0  0  0999 V2000
  188.9900  179.0440  138.8190 N   0  0  0  0  0  2  0  0  0  0  0  0
  189.4800  177.7720  139.0540 C   0  0  1  0  0  3  0  0  0  0  0  0
  188.6080  179.3780  137.4140 C   0  0  0  0  0  2  0  0  0  0  0  0
  189.8980  176.9460  138.1490 C   0  0  0  0  0  2  0  0  0  0  0  0
  189.3820  177.1450  136.8570 C   0  0  1  0  0  3  0  0  0  0  0  0
  189.3420  178.5340  136.4070 N   0  0  0  0  0  2  0  0  0  0  0  0
  193.6500  174.4190  137.3990 C   0  0  0  0  0  0  0  0  0  0  0  0
  188.9430  175.1420  135.4220 N   0  0  0  0  0  0  0  0  0  0  0  0
  191.3180  174.1970  136.7260 C   0  0  0  0  0  0  0  0  0  0  0  0
  193.4900  175.8000  137.3000 C   0  0  0  0  0  3  0  0  0  0  0  0
  194.9960  173.8740  137.7910 C   0  0  0  0  0  1  0  0  0  0  0  0
  191.2400  175.5570  136.3590 C   0  0  0  0  0  0  0  0  0  0  0  0
  192.5400  173.5970  137.1500 C   0  0  0  0  0  3  0  0  0  0  0  0
  192.3580  176.3490  136.7630 C   0  0  0  0  0  3  0  0  0  0  0  0
  189.9890  176.1330  135.8550 C   0  0  2  0  0  3  0  0  0  0  0  0
  188.7840  174.1660  136.5350 C   0  0  0  0  0  2  0  0  0  0  0  0
  190.0650  173.4180  136.9130 C   0  0  0  0  0  2  0  0  0  0  0  0
  187.5630  175.6200  135.2720 C   0  0  0  0  0  2  0  0  0  0  0  0
  186.2960  174.4520  135.9140 S   0  0  0  0  0  0  0  0  0  0  0  0
  184.0450  175.3580  137.2890 C   0  0  0  0  0  3  0  0  0  0  0  0
  183.9480  177.6370  138.1170 C   0  0  0  0  0  0  0  0  0  0  0  0
  185.9980  176.7980  137.1120 C   0  0  0  0  0  3  0  0  0  0  0  0
  183.3700  176.3480  137.9950 C   0  0  0  0  0  3  0  0  0  0  0  0
  185.3570  175.6410  136.8310 C   0  0  0  0  0  0  0  0  0  0  0  0
  185.2740  177.8340  137.7120 C   0  0  0  0  0  3  0  0  0  0  0  0
  182.9170  179.7290  139.1860 N   0  0  0  0  0  0  0  0  0  0  0  0
  183.2980  178.7570  138.6620 C   0  0  0  0  0  0  0  0  0  0  0  0
  189.8980  177.4150  140.4830 C   0  0  0  0  0  2  0  0  0  0  0  0
  188.8370  177.0830  141.2990 O   0  0  0  0  0  0  0  0  0  0  0  0
  189.2340  176.7780  142.6180 C   0  0  0  0  0  2  0  0  0  0  0  0
  187.9580  176.4310  143.3270 C   0  0  0  0  0  2  0  0  0  0  0  0
  187.8390  176.9880  144.6270 N   0  0  0  0  0  0  0  0  0  0  0  0
  186.5520  177.7390  144.7040 C   0  0  0  0  0  0  0  0  0  0  0  0
  184.6280  178.6020  143.5810 C   0  0  0  0  0  3  0  0  0  0  0  0
  184.7960  178.7490  145.9700 C   0  0  0  0  0  3  0  0  0  0  0  0
  184.0540  178.8650  144.7980 C   0  0  0  0  0  3  0  0  0  0  0  0
  186.0700  178.1340  145.9330 C   0  0  0  0  0  3  0  0  0  0  0  0
  185.9190  178.0360  143.5360 C   0  0  0  0  0  3  0  0  0  0  0  0
  188.9770  177.8130  145.0180 C   0  0  0  0  0  2  0  0  0  0  0  0
  190.0500  177.1890  145.9480 C   0  0  0  0  0  2  0  0  0  0  0  0
  189.6020  176.7880  147.3440 C   0  0  0  0  0  2  0  0  0  0  0  0
  188.0180  177.9390  148.9720 C   0  0  0  0  0  1  0  0  0  0  0  0
  189.2340  178.0500  148.0480 C   0  0  0  0  0  2  0  0  0  0  0  0
  1  2  1  0  0  0  0
  2 28  1  1  0  0  0
  3  1  1  0  0  0  0
  4  2  1  0  0  0  0
  5  4  1  1  0  0  0
  6  5  1  0  0  0  0
  6  3  1  0  0  0  0
  7 11  1  0  0  0  0
  8 15  1  0  0  0  0
  8 16  1  0  0  0  0
  9 17  1  0  0  0  0
  9 13  1  0  0  0  0
 10  7  1  0  0  0  0
 12  9  2  0  0  0  0
 12 14  1  0  0  0  0
 13  7  2  0  0  0  0
 14 10  2  0  0  0  0
 15 12  1  1  0  0  0
 15  5  1  0  0  0  0
 16 17  1  0  0  0  0
 18  8  1  0  0  0  0
 18 19  1  0  0  0  0
 19 24  1  0  0  0  0
 20 23  1  0  0  0  0
 21 27  1  0  0  0  0
 22 25  2  0  0  0  0
 23 21  2  0  0  0  0
 24 22  1  0  0  0  0
 24 20  2  0  0  0  0
 25 21  1  0  0  0  0
 27 26  3  0  0  0  0
 28 29  1  0  0  0  0
 29 30  1  0  0  0  0
 30 31  1  0  0  0  0
 31 32  1  0  0  0  0
 32 33  1  0  0  0  0
 32 39  1  0  0  0  0
 33 37  1  0  0  0  0
 34 36  2  0  0  0  0
 36 35  1  0  0  0  0
 37 35  2  0  0  0  0
 38 34  1  0  0  0  0
 38 33  2  0  0  0  0
 39 40  1  0  0  0  0
 40 41  1  0  0  0  0
 41 43  1  0  0  0  0
 43 42  1  0  0  0  0
M  END
>  <MODEL>
1

>  <REMARK>
 VINA RESULT:      -8.0      0.000      0.000
  Name = 
  15 active torsions:
  status: ('A' for Active; 'I' for Inactive)
    1  A    between atoms: S_1  and  C_34
    2  A    between atoms: S_1  and  C_35
    3  A    between atoms: C_3  and  C_4
    4  A    between atoms: C_3  and  O_12
    5  A    between atoms: C_4  and  N_14
    6  A    between atoms: C_6  and  C_17
    7  A    between atoms: N_8  and  C_34
    8  A    between atoms: C_10  and  C_22
    9  A    between atoms: C_10  and  C_41
   10  A    between atoms: C_11  and  N_14
   11  A    between atoms: O_12  and  C_17
   12  A    between atoms: N_14  and  C_41
   13  A    between atoms: C_19  and  C_37
   14  A    between atoms: C_22  and  C_42
   15  A    between atoms: C_27  and  C_30
                            x       y       z     vdW  Elec       q    Type
                         _______ _______ _______ _____ _____    ______ ____

>  <TORSDO>
F 15

$$$$
=
 OpenBabel10272414133D

 43 47  0  0  1  0  0  0  0  0999 V2000
  189.0160  179.0230  138.8500 N   0  0  0  0  0  2  0  0  0  0  0  0
  189.2820  177.6820  139.0610 C   0  0  1  0  0  3  0  0  0  0  0  0
  188.8340  179.4670  137.4350 C   0  0  0  0  0  2  0  0  0  0  0  0
  189.6590  176.8360  138.1560 C   0  0  0  0  0  2  0  0  0  0  0  0
  189.3130  177.1630  136.8340 C   0  0  1  0  0  3  0  0  0  0  0  0
  189.5300  178.5580  136.4570 N   0  0  0  0  0  2  0  0  0  0  0  0
  193.4110  174.1920  137.3980 C   0  0  0  0  0  0  0  0  0  0  0  0
  188.7550  175.1790  135.4150 N   0  0  0  0  0  0  0  0  0  0  0  0
  191.0700  174.1050  136.7270 C   0  0  0  0  0  0  0  0  0  0  0  0
  193.3340  175.5790  137.2870 C   0  0  0  0  0  3  0  0  0  0  0  0
  194.7230  173.5720  137.7930 C   0  0  0  0  0  1  0  0  0  0  0  0
  191.0720  175.4630  136.3480 C   0  0  0  0  0  0  0  0  0  0  0  0
  192.2540  173.4360  137.1550 C   0  0  0  0  0  3  0  0  0  0  0  0
  192.2360  176.1910  136.7460 C   0  0  0  0  0  3  0  0  0  0  0  0
  189.8570  176.1090  135.8400 C   0  0  2  0  0  3  0  0  0  0  0  0
  188.5380  174.2230  136.5370 C   0  0  0  0  0  2  0  0  0  0  0  0
  189.7730  173.4030  136.9200 C   0  0  0  0  0  2  0  0  0  0  0  0
  187.4050  175.7370  135.2620 C   0  0  0  0  0  2  0  0  0  0  0  0
  186.0770  174.6820  135.9730 S   0  0  0  0  0  0  0  0  0  0  0  0
  183.8990  175.8710  137.2460 C   0  0  0  0  0  3  0  0  0  0  0  0
  184.1080  178.0790  138.2320 C   0  0  0  0  0  0  0  0  0  0  0  0
  186.0690  176.9670  137.3180 C   0  0  0  0  0  3  0  0  0  0  0  0
  183.3390  176.9160  137.9730 C   0  0  0  0  0  3  0  0  0  0  0  0
  185.2730  175.9550  136.9060 C   0  0  0  0  0  0  0  0  0  0  0  0
  185.4780  178.0720  137.9390 C   0  0  0  0  0  3  0  0  0  0  0  0
  183.2440  180.3160  139.1400 N   0  0  0  0  0  0  0  0  0  0  0  0
  183.6080  179.2570  138.8110 C   0  0  0  0  0  0  0  0  0  0  0  0
  189.4940  177.2080  140.5010 C   0  0  0  0  0  2  0  0  0  0  0  0
  189.1320  178.1440  141.4460 O   0  0  0  0  0  0  0  0  0  0  0  0
  187.8310  177.9380  141.9530 C   0  0  0  0  0  2  0  0  0  0  0  0
  188.0210  177.0230  143.1270 C   0  0  0  0  0  2  0  0  0  0  0  0
  187.9250  177.6620  144.3900 N   0  0  0  0  0  0  0  0  0  0  0  0
  189.0960  177.2500  145.2190 C   0  0  0  0  0  0  0  0  0  0  0  0
  191.4150  176.6850  145.3290 C   0  0  0  0  0  3  0  0  0  0  0  0
  190.1270  176.8910  147.3440 C   0  0  0  0  0  3  0  0  0  0  0  0
  191.3530  176.7620  146.6970 C   0  0  0  0  0  3  0  0  0  0  0  0
  188.9660  177.1810  146.5900 C   0  0  0  0  0  3  0  0  0  0  0  0
  190.2490  176.9230  144.5730 C   0  0  0  0  0  3  0  0  0  0  0  0
  186.6590  177.4190  145.0750 C   0  0  0  0  0  2  0  0  0  0  0  0
  185.8540  178.6440  145.5800 C   0  0  0  0  0  2  0  0  0  0  0  0
  184.5000  178.8910  144.9360 C   0  0  0  0  0  2  0  0  0  0  0  0
  184.1080  178.4420  142.4600 C   0  0  0  0  0  1  0  0  0  0  0  0
  184.7710  179.3120  143.5310 C   0  0  0  0  0  2  0  0  0  0  0  0
  1  2  1  0  0  0  0
  2 28  1  1  0  0  0
  3  1  1  0  0  0  0
  4  2  1  0  0  0  0
  5  4  1  1  0  0  0
  6  5  1  0  0  0  0
  6  3  1  0  0  0  0
  7 11  1  0  0  0  0
  8 15  1  0  0  0  0
  8 16  1  0  0  0  0
  9 17  1  0  0  0  0
  9 13  1  0  0  0  0
 10  7  1  0  0  0  0
 12  9  2  0  0  0  0
 12 14  1  0  0  0  0
 13  7  2  0  0  0  0
 14 10  2  0  0  0  0
 15 12  1  1  0  0  0
 15  5  1  0  0  0  0
 16 17  1  0  0  0  0
 18  8  1  0  0  0  0
 18 19  1  0  0  0  0
 19 24  1  0  0  0  0
 20 23  1  0  0  0  0
 21 27  1  0  0  0  0
 22 25  2  0  0  0  0
 23 21  2  0  0  0  0
 24 20  2  0  0  0  0
 24 22  1  0  0  0  0
 25 21  1  0  0  0  0
 27 26  3  0  0  0  0
 28 29  1  0  0  0  0
 29 30  1  0  0  0  0
 30 31  1  0  0  0  0
 31 32  1  0  0  0  0
 32 39  1  0  0  0  0
 32 33  1  0  0  0  0
 33 37  1  0  0  0  0
 34 36  2  0  0  0  0
 36 35  1  0  0  0  0
 37 35  2  0  0  0  0
 38 33  2  0  0  0  0
 38 34  1  0  0  0  0
 39 40  1  0  0  0  0
 41 40  1  0  0  0  0
 42 43  1  0  0  0  0
 43 41  1  0  0  0  0
M  END
>  <MODEL>
2

>  <REMARK>
 VINA RESULT:      -7.9      0.759      2.879
  Name = 
  15 active torsions:
  status: ('A' for Active; 'I' for Inactive)
    1  A    between atoms: S_1  and  C_34
    2  A    between atoms: S_1  and  C_35
    3  A    between atoms: C_3  and  C_4
    4  A    between atoms: C_3  and  O_12
    5  A    between atoms: C_4  and  N_14
    6  A    between atoms: C_6  and  C_17
    7  A    between atoms: N_8  and  C_34
    8  A    between atoms: C_10  and  C_22
    9  A    between atoms: C_10  and  C_41
   10  A    between atoms: C_11  and  N_14
   11  A    between atoms: O_12  and  C_17
   12  A    between atoms: N_14  and  C_41
   13  A    between atoms: C_19  and  C_37
   14  A    between atoms: C_22  and  C_42
   15  A    between atoms: C_27  and  C_30
                            x       y       z     vdW  Elec       q    Type
                         _______ _______ _______ _____ _____    ______ ____

>  <TORSDO>
F 15

$$$$
=
 OpenBabel10272414133D

 43 47  0  0  1  0  0  0  0  0999 V2000
  188.9790  178.9290  138.8910 N   0  0  0  0  0  2  0  0  0  0  0  0
  189.6910  177.7660  139.1210 C   0  0  1  0  0  3  0  0  0  0  0  0
  188.4840  179.1610  137.5010 C   0  0  0  0  0  2  0  0  0  0  0  0
  190.2040  177.0030  138.2090 C   0  0  0  0  0  2  0  0  0  0  0  0
  189.6050  177.0810  136.9400 C   0  0  1  0  0  3  0  0  0  0  0  0
  189.3070  178.4330  136.4720 N   0  0  0  0  0  2  0  0  0  0  0  0
  193.9170  174.4660  137.6520 C   0  0  0  0  0  0  0  0  0  0  0  0
  189.3650  175.1760  135.3360 N   0  0  0  0  0  0  0  0  0  0  0  0
  191.6590  174.2180  136.7690 C   0  0  0  0  0  0  0  0  0  0  0  0
  193.7120  175.8450  137.6360 C   0  0  0  0  0  3  0  0  0  0  0  0
  195.2470  173.9400  138.1170 C   0  0  0  0  0  1  0  0  0  0  0  0
  191.5590  175.5970  136.4920 C   0  0  0  0  0  0  0  0  0  0  0  0
  192.8650  173.6290  137.2520 C   0  0  0  0  0  3  0  0  0  0  0  0
  192.6070  176.3940  137.0450 C   0  0  0  0  0  3  0  0  0  0  0  0
  190.3320  176.1660  135.9250 C   0  0  2  0  0  3  0  0  0  0  0  0
  189.1530  174.1160  136.3610 C   0  0  0  0  0  2  0  0  0  0  0  0
  190.4270  173.3860  136.7930 C   0  0  0  0  0  2  0  0  0  0  0  0
  187.9850  175.6170  135.1030 C   0  0  0  0  0  2  0  0  0  0  0  0
  186.7120  174.4530  135.7410 S   0  0  0  0  0  0  0  0  0  0  0  0
  185.7930  176.5790  137.2950 C   0  0  0  0  0  3  0  0  0  0  0  0
  183.5440  177.4390  136.9920 C   0  0  0  0  0  0  0  0  0  0  0  0
  184.4040  175.7320  135.4870 C   0  0  0  0  0  3  0  0  0  0  0  0
  184.8110  177.5070  137.6250 C   0  0  0  0  0  3  0  0  0  0  0  0
  185.5310  175.6780  136.2320 C   0  0  0  0  0  0  0  0  0  0  0  0
  183.3700  176.5800  135.8990 C   0  0  0  0  0  3  0  0  0  0  0  0
  181.5710  178.8560  137.8150 N   0  0  0  0  0  0  0  0  0  0  0  0
  182.4270  178.2110  137.3520 C   0  0  0  0  0  0  0  0  0  0  0  0
  190.2270  177.5170  140.5330 C   0  0  0  0  0  2  0  0  0  0  0  0
  190.0250  176.2280  140.9780 O   0  0  0  0  0  0  0  0  0  0  0  0
  190.0200  176.1270  142.3850 C   0  0  0  0  0  2  0  0  0  0  0  0
  188.6830  176.6690  142.8000 C   0  0  0  0  0  2  0  0  0  0  0  0
  188.5650  176.9430  144.1870 N   0  0  0  0  0  0  0  0  0  0  0  0
  187.2090  177.5120  144.4430 C   0  0  0  0  0  0  0  0  0  0  0  0
  185.6010  178.3120  146.0190 C   0  0  0  0  0  3  0  0  0  0  0  0
  185.1750  178.4920  143.6640 C   0  0  0  0  0  3  0  0  0  0  0  0
  184.8530  178.8070  144.9820 C   0  0  0  0  0  3  0  0  0  0  0  0
  186.4070  177.8590  143.3770 C   0  0  0  0  0  3  0  0  0  0  0  0
  186.8050  177.6330  145.7370 C   0  0  0  0  0  3  0  0  0  0  0  0
  189.6240  177.8020  144.7070 C   0  0  0  0  0  2  0  0  0  0  0  0
  190.4940  177.2660  145.8730 C   0  0  0  0  0  2  0  0  0  0  0  0
  191.7630  176.5180  145.4990 C   0  0  0  0  0  2  0  0  0  0  0  0
  192.2470  176.0640  147.9570 C   0  0  0  0  0  1  0  0  0  0  0  0
  191.9790  175.4940  146.5620 C   0  0  0  0  0  2  0  0  0  0  0  0
  1  2  1  0  0  0  0
  2 28  1  1  0  0  0
  3  1  1  0  0  0  0
  4  2  1  0  0  0  0
  5  4  1  1  0  0  0
  6  5  1  0  0  0  0
  6  3  1  0  0  0  0
  7 11  1  0  0  0  0
  8 15  1  0  0  0  0
  8 16  1  0  0  0  0
  9 17  1  0  0  0  0
  9 13  1  0  0  0  0
 10  7  1  0  0  0  0
 12  9  2  0  0  0  0
 12 14  1  0  0  0  0
 13  7  2  0  0  0  0
 14 10  2  0  0  0  0
 15 12  1  1  0  0  0
 15  5  1  0  0  0  0
 16 17  1  0  0  0  0
 18  8  1  0  0  0  0
 18 19  1  0  0  0  0
 19 24  1  0  0  0  0
 20 23  1  0  0  0  0
 21 27  1  0  0  0  0
 21 23  2  0  0  0  0
 22 25  2  0  0  0  0
 22 24  1  0  0  0  0
 24 20  2  0  0  0  0
 25 21  1  0  0  0  0
 27 26  3  0  0  0  0
 28 29  1  0  0  0  0
 29 30  1  0  0  0  0
 30 31  1  0  0  0  0
 31 32  1  0  0  0  0
 32 33  1  0  0  0  0
 32 39  1  0  0  0  0
 33 38  1  0  0  0  0
 35 36  2  0  0  0  0
 36 34  1  0  0  0  0
 37 35  1  0  0  0  0
 37 33  2  0  0  0  0
 38 34  2  0  0  0  0
 39 40  1  0  0  0  0
 41 40  1  0  0  0  0
 41 43  1  0  0  0  0
 43 42  1  0  0  0  0
M  END
>  <MODEL>
3

>  <REMARK>
 VINA RESULT:      -7.3      1.047      1.622
  Name = 
  15 active torsions:
  status: ('A' for Active; 'I' for Inactive)
    1  A    between atoms: S_1  and  C_34
    2  A    between atoms: S_1  and  C_35
    3  A    between atoms: C_3  and  C_4
    4  A    between atoms: C_3  and  O_12
    5  A    between atoms: C_4  and  N_14
    6  A    between atoms: C_6  and  C_17
    7  A    between atoms: N_8  and  C_34
    8  A    between atoms: C_10  and  C_22
    9  A    between atoms: C_10  and  C_41
   10  A    between atoms: C_11  and  N_14
   11  A    between atoms: O_12  and  C_17
   12  A    between atoms: N_14  and  C_41
   13  A    between atoms: C_19  and  C_37
   14  A    between atoms: C_22  and  C_42
   15  A    between atoms: C_27  and  C_30
                            x       y       z     vdW  Elec       q    Type
                         _______ _______ _______ _____ _____    ______ ____

>  <TORSDO>
F 15

$$$$
=
 OpenBabel10272414133D

 43 47  0  0  1  0  0  0  0  0999 V2000
  189.5730  177.5080  140.8030 N   0  0  0  0  0  2  0  0  0  0  0  0
  189.0130  177.4200  139.5420 C   0  0  1  0  0  3  0  0  0  0  0  0
  188.6870  177.9740  141.9120 C   0  0  0  0  0  2  0  0  0  0  0  0
  187.8930  177.9560  139.1750 C   0  0  0  0  0  2  0  0  0  0  0  0
  186.9750  178.2160  140.2070 C   0  0  1  0  0  3  0  0  0  0  0  0
  187.5430  178.8150  141.4130 N   0  0  0  0  0  2  0  0  0  0  0  0
  184.3750  177.0070  135.9970 C   0  0  0  0  0  0  0  0  0  0  0  0
  184.6620  179.0100  140.7400 N   0  0  0  0  0  0  0  0  0  0  0  0
  184.0490  177.5400  138.3530 C   0  0  0  0  0  0  0  0  0  0  0  0
  185.6750  177.4940  136.1240 C   0  0  0  0  0  3  0  0  0  0  0  0
  183.9200  176.5050  134.6550 C   0  0  0  0  0  1  0  0  0  0  0  0
  185.2500  178.2790  138.4070 C   0  0  0  0  0  0  0  0  0  0  0  0
  183.5540  176.9890  137.1350 C   0  0  0  0  0  3  0  0  0  0  0  0
  186.0860  178.1410  137.2570 C   0  0  0  0  0  3  0  0  0  0  0  0
  185.6990  178.9000  139.6570 C   0  0  2  0  0  3  0  0  0  0  0  0
  184.0490  177.6610  140.8920 C   0  0  0  0  0  2  0  0  0  0  0  0
  183.3980  177.1130  139.6190 C   0  0  0  0  0  2  0  0  0  0  0  0
  185.1230  179.2610  142.1110 C   0  0  0  0  0  2  0  0  0  0  0  0
  183.8870  178.8320  143.4030 S   0  0  0  0  0  0  0  0  0  0  0  0
  184.8340  178.9350  146.0250 C   0  0  0  0  0  3  0  0  0  0  0  0
  187.0050  178.0030  146.5830 C   0  0  0  0  0  0  0  0  0  0  0  0
  186.1000  177.7150  144.3430 C   0  0  0  0  0  3  0  0  0  0  0  0
  185.7960  178.6280  146.9820 C   0  0  0  0  0  3  0  0  0  0  0  0
  185.0460  178.4840  144.6970 C   0  0  0  0  0  0  0  0  0  0  0  0
  187.1240  177.5140  145.2760 C   0  0  0  0  0  3  0  0  0  0  0  0
  188.9590  177.7410  148.2240 N   0  0  0  0  0  0  0  0  0  0  0  0
  188.1110  177.7900  147.4230 C   0  0  0  0  0  0  0  0  0  0  0  0
  189.9080  176.9650  138.3870 C   0  0  0  0  0  2  0  0  0  0  0  0
  189.6460  177.6160  137.2000 O   0  0  0  0  0  0  0  0  0  0  0  0
  189.6990  176.7590  136.0800 C   0  0  0  0  0  2  0  0  0  0  0  0
  188.8350  175.5910  136.4540 C   0  0  0  0  0  2  0  0  0  0  0  0
  188.3350  174.8530  135.3500 N   0  0  0  0  0  0  0  0  0  0  0  0
  187.0680  174.1830  135.7630 C   0  0  0  0  0  0  0  0  0  0  0  0
  185.4780  173.7160  137.4850 C   0  0  0  0  0  3  0  0  0  0  0  0
  185.0500  173.0200  135.2280 C   0  0  0  0  0  3  0  0  0  0  0  0
  184.6210  173.2180  136.5380 C   0  0  0  0  0  3  0  0  0  0  0  0
  186.2950  173.5490  134.8130 C   0  0  0  0  0  3  0  0  0  0  0  0
  186.7420  174.1980  137.0850 C   0  0  0  0  0  3  0  0  0  0  0  0
  189.2970  173.9070  134.7940 C   0  0  0  0  0  2  0  0  0  0  0  0
  190.1220  173.0380  135.7780 C   0  0  0  0  0  2  0  0  0  0  0  0
  191.5380  172.6790  135.3600 C   0  0  0  0  0  2  0  0  0  0  0  0
  192.1830  174.2140  137.2850 C   0  0  0  0  0  1  0  0  0  0  0  0
  192.4130  173.7910  135.8330 C   0  0  0  0  0  2  0  0  0  0  0  0
  1  3  1  0  0  0  0
  2 28  1  6  0  0  0
  2  1  1  0  0  0  0
  4  2  1  0  0  0  0
  5  4  1  6  0  0  0
  5  6  1  0  0  0  0
  6  3  1  0  0  0  0
  7 10  2  0  0  0  0
  7 13  1  0  0  0  0
  8 16  1  0  0  0  0
  8 18  1  0  0  0  0
  9 12  1  0  0  0  0
  9 17  1  0  0  0  0
 10 14  1  0  0  0  0
 11  7  1  0  0  0  0
 13  9  2  0  0  0  0
 14 12  2  0  0  0  0
 15 12  1  6  0  0  0
 15  5  1  0  0  0  0
 15  8  1  0  0  0  0
 17 16  1  0  0  0  0
 18 19  1  0  0  0  0
 19 24  1  0  0  0  0
 20 23  1  0  0  0  0
 21 23  2  0  0  0  0
 21 27  1  0  0  0  0
 22 24  1  0  0  0  0
 22 25  2  0  0  0  0
 24 20  2  0  0  0  0
 25 21  1  0  0  0  0
 27 26  3  0  0  0  0
 29 28  1  0  0  0  0
 30 31  1  0  0  0  0
 30 29  1  0  0  0  0
 32 33  1  0  0  0  0
 32 31  1  0  0  0  0
 33 38  1  0  0  0  0
 35 36  2  0  0  0  0
 36 34  1  0  0  0  0
 37 35  1  0  0  0  0
 37 33  2  0  0  0  0
 38 34  2  0  0  0  0
 39 32  1  0  0  0  0
 39 40  1  0  0  0  0
 41 40  1  0  0  0  0
 41 43  1  0  0  0  0
 43 42  1  0  0  0  0
M  END
>  <MODEL>
4

>  <REMARK>
 VINA RESULT:      -6.8      2.334      8.665
  Name = 
  15 active torsions:
  status: ('A' for Active; 'I' for Inactive)
    1  A    between atoms: S_1  and  C_34
    2  A    between atoms: S_1  and  C_35
    3  A    between atoms: C_3  and  C_4
    4  A    between atoms: C_3  and  O_12
    5  A    between atoms: C_4  and  N_14
    6  A    between atoms: C_6  and  C_17
    7  A    between atoms: N_8  and  C_34
    8  A    between atoms: C_10  and  C_22
    9  A    between atoms: C_10  and  C_41
   10  A    between atoms: C_11  and  N_14
   11  A    between atoms: O_12  and  C_17
   12  A    between atoms: N_14  and  C_41
   13  A    between atoms: C_19  and  C_37
   14  A    between atoms: C_22  and  C_42
   15  A    between atoms: C_27  and  C_30
                            x       y       z     vdW  Elec       q    Type
                         _______ _______ _______ _____ _____    ______ ____

>  <TORSDO>
F 15

$$$$
=
 OpenBabel10272414133D

 43 47  0  0  1  0  0  0  0  0999 V2000
  186.9810  178.4960  139.7300 N   0  0  0  0  0  2  0  0  0  0  0  0
  188.1480  177.7550  139.7790 C   0  0  1  0  0  3  0  0  0  0  0  0
  186.1880  178.4350  138.4650 C   0  0  0  0  0  2  0  0  0  0  0  0
  188.7590  177.2410  138.7600 C   0  0  0  0  0  2  0  0  0  0  0  0
  187.9610  177.0030  137.6280 C   0  0  1  0  0  3  0  0  0  0  0  0
  187.0370  178.0790  137.2750 N   0  0  0  0  0  2  0  0  0  0  0  0
  192.7480  175.2730  137.8190 C   0  0  0  0  0  0  0  0  0  0  0  0
  188.0350  175.3740  135.7300 N   0  0  0  0  0  0  0  0  0  0  0  0
  190.5470  174.7010  136.9430 C   0  0  0  0  0  0  0  0  0  0  0  0
  192.2640  176.5620  138.0380 C   0  0  0  0  0  3  0  0  0  0  0  0
  194.1790  174.9700  138.1670 C   0  0  0  0  0  1  0  0  0  0  0  0
  190.1510  176.0540  136.9040 C   0  0  0  0  0  0  0  0  0  0  0  0
  191.8700  174.3090  137.3000 C   0  0  0  0  0  3  0  0  0  0  0  0
  191.0420  176.9540  137.5660 C   0  0  0  0  0  3  0  0  0  0  0  0
  188.8070  176.4370  136.4610 C   0  0  2  0  0  3  0  0  0  0  0  0
  188.0960  174.1410  136.5640 C   0  0  0  0  0  2  0  0  0  0  0  0
  189.5140  173.6360  136.8470 C   0  0  0  0  0  2  0  0  0  0  0  0
  186.5830  175.5460  135.5970 C   0  0  0  0  0  2  0  0  0  0  0  0
  185.7700  174.2570  134.5670 S   0  0  0  0  0  0  0  0  0  0  0  0
  183.7980  175.2780  136.2540 C   0  0  0  0  0  3  0  0  0  0  0  0
  181.9530  173.8760  136.9740 C   0  0  0  0  0  0  0  0  0  0  0  0
  183.5440  173.0400  135.3360 C   0  0  0  0  0  3  0  0  0  0  0  0
  182.6010  175.1360  136.9490 C   0  0  0  0  0  3  0  0  0  0  0  0
  184.2540  174.1810  135.4800 C   0  0  0  0  0  0  0  0  0  0  0  0
  182.4090  172.8540  136.1320 C   0  0  0  0  0  3  0  0  0  0  0  0
  179.9960  173.1620  138.4710 N   0  0  0  0  0  0  0  0  0  0  0  0
  180.8340  173.5660  137.7670 C   0  0  0  0  0  0  0  0  0  0  0  0
  188.9880  177.8200  141.0570 C   0  0  0  0  0  2  0  0  0  0  0  0
  189.5250  176.6040  141.4240 O   0  0  0  0  0  0  0  0  0  0  0  0
  189.0660  176.1580  142.6810 C   0  0  0  0  0  2  0  0  0  0  0  0
  188.6790  177.4110  143.4110 C   0  0  0  0  0  2  0  0  0  0  0  0
  188.0230  177.1910  144.6490 N   0  0  0  0  0  0  0  0  0  0  0  0
  186.6330  177.7250  144.5500 C   0  0  0  0  0  0  0  0  0  0  0  0
  184.7650  178.7540  145.6280 C   0  0  0  0  0  3  0  0  0  0  0  0
  184.7440  178.4020  143.2540 C   0  0  0  0  0  3  0  0  0  0  0  0
  184.1960  178.9740  144.4000 C   0  0  0  0  0  3  0  0  0  0  0  0
  186.0180  177.7910  143.3180 C   0  0  0  0  0  3  0  0  0  0  0  0
  186.0120  178.0990  145.7020 C   0  0  0  0  0  3  0  0  0  0  0  0
  188.7380  177.7390  145.7970 C   0  0  0  0  0  2  0  0  0  0  0  0
  190.2690  177.9500  145.6740 C   0  0  0  0  0  2  0  0  0  0  0  0
  191.1500  176.7250  145.8530 C   0  0  0  0  0  2  0  0  0  0  0  0
  192.4850  175.7230  147.7750 C   0  0  0  0  0  1  0  0  0  0  0  0
  191.2330  176.4760  147.3220 C   0  0  0  0  0  2  0  0  0  0  0  0
  1  2  1  0  0  0  0
  2 28  1  6  0  0  0
  3  1  1  0  0  0  0
  4  2  1  0  0  0  0
  5  4  1  1  0  0  0
  6  5  1  0  0  0  0
  6  3  1  0  0  0  0
  7 10  1  0  0  0  0
  7 11  1  0  0  0  0
  8 15  1  0  0  0  0
  8 16  1  0  0  0  0
  9 13  1  0  0  0  0
 12  9  2  0  0  0  0
 12 14  1  0  0  0  0
 13  7  2  0  0  0  0
 14 10  2  0  0  0  0
 15 12  1  1  0  0  0
 15  5  1  0  0  0  0
 16 17  1  0  0  0  0
 17  9  1  0  0  0  0
 18  8  1  0  0  0  0
 19 24  1  0  0  0  0
 19 18  1  0  0  0  0
 20 23  1  0  0  0  0
 21 27  1  0  0  0  0
 22 24  1  0  0  0  0
 22 25  2  0  0  0  0
 23 21  2  0  0  0  0
 24 20  2  0  0  0  0
 25 21  1  0  0  0  0
 27 26  3  0  0  0  0
 28 29  1  0  0  0  0
 29 30  1  0  0  0  0
 30 31  1  0  0  0  0
 31 32  1  0  0  0  0
 32 39  1  0  0  0  0
 33 32  1  0  0  0  0
 33 38  1  0  0  0  0
 34 38  2  0  0  0  0
 35 37  1  0  0  0  0
 35 36  2  0  0  0  0
 36 34  1  0  0  0  0
 37 33  2  0  0  0  0
 40 39  1  0  0  0  0
 40 41  1  0  0  0  0
 41 43  1  0  0  0  0
 43 42  1  0  0  0  0
M  END
>  <MODEL>
5

>  <REMARK>
 VINA RESULT:      -6.8      1.889      2.580
  Name = 
  15 active torsions:
  status: ('A' for Active; 'I' for Inactive)
    1  A    between atoms: S_1  and  C_34
    2  A    between atoms: S_1  and  C_35
    3  A    between atoms: C_3  and  C_4
    4  A    between atoms: C_3  and  O_12
    5  A    between atoms: C_4  and  N_14
    6  A    between atoms: C_6  and  C_17
    7  A    between atoms: N_8  and  C_34
    8  A    between atoms: C_10  and  C_22
    9  A    between atoms: C_10  and  C_41
   10  A    between atoms: C_11  and  N_14
   11  A    between atoms: O_12  and  C_17
   12  A    between atoms: N_14  and  C_41
   13  A    between atoms: C_19  and  C_37
   14  A    between atoms: C_22  and  C_42
   15  A    between atoms: C_27  and  C_30
                            x       y       z     vdW  Elec       q    Type
                         _______ _______ _______ _____ _____    ______ ____

>  <TORSDO>
F 15

$$$$
=
 OpenBabel10272414133D

 43 47  0  0  1  0  0  0  0  0999 V2000
  187.2800  178.6780  138.7930 N   0  0  0  0  0  2  0  0  0  0  0  0
  188.3670  178.3620  137.9990 C   0  0  1  0  0  3  0  0  0  0  0  0
  187.3590  178.3000  140.2370 C   0  0  0  0  0  2  0  0  0  0  0  0
  189.3150  177.5370  138.3100 C   0  0  0  0  0  2  0  0  0  0  0  0
  189.5160  177.3310  139.6860 C   0  0  1  0  0  3  0  0  0  0  0  0
  188.3000  177.1510  140.4760 N   0  0  0  0  0  2  0  0  0  0  0  0
  192.7760  175.4080  136.2780 C   0  0  0  0  0  0  0  0  0  0  0  0
  191.4910  176.7190  141.0960 N   0  0  0  0  0  0  0  0  0  0  0  0
  192.7020  176.3610  138.5200 C   0  0  0  0  0  0  0  0  0  0  0  0
  191.3900  175.2730  136.3490 C   0  0  0  0  0  3  0  0  0  0  0  0
  193.4840  174.9360  135.0380 C   0  0  0  0  0  1  0  0  0  0  0  0
  191.3590  175.9700  138.6990 C   0  0  0  0  0  0  0  0  0  0  0  0
  193.4480  175.9980  137.3600 C   0  0  0  0  0  3  0  0  0  0  0  0
  190.7120  175.4990  137.5160 C   0  0  0  0  0  3  0  0  0  0  0  0
  190.6370  176.2920  139.9340 C   0  0  2  0  0  3  0  0  0  0  0  0
  192.3960  177.7920  140.5980 C   0  0  0  0  0  2  0  0  0  0  0  0
  193.2960  177.3730  139.4330 C   0  0  0  0  0  2  0  0  0  0  0  0
  190.8360  177.4070  142.2160 C   0  0  0  0  0  2  0  0  0  0  0  0
  191.0950  176.5930  143.8440 S   0  0  0  0  0  0  0  0  0  0  0  0
  188.3190  176.8540  143.7660 C   0  0  0  0  0  3  0  0  0  0  0  0
  187.1170  177.7590  145.6710 C   0  0  0  0  0  0  0  0  0  0  0  0
  189.5080  177.3370  145.8330 C   0  0  0  0  0  3  0  0  0  0  0  0
  187.1130  177.1850  144.3740 C   0  0  0  0  0  3  0  0  0  0  0  0
  189.5080  176.9790  144.5290 C   0  0  0  0  0  0  0  0  0  0  0  0
  188.3110  177.7870  146.4030 C   0  0  0  0  0  3  0  0  0  0  0  0
  185.1610  178.8110  146.9530 N   0  0  0  0  0  0  0  0  0  0  0  0
  185.9860  178.2800  146.3200 C   0  0  0  0  0  0  0  0  0  0  0  0
  188.2990  178.7190  136.5120 C   0  0  0  0  0  2  0  0  0  0  0  0
  187.0210  178.6860  135.9960 O   0  0  0  0  0  0  0  0  0  0  0  0
  186.9050  177.8430  134.8710 C   0  0  0  0  0  2  0  0  0  0  0  0
  185.6730  177.0270  135.1320 C   0  0  0  0  0  2  0  0  0  0  0  0
  185.3400  176.8910  136.5050 N   0  0  0  0  0  0  0  0  0  0  0  0
  185.6060  175.4820  136.9190 C   0  0  0  0  0  0  0  0  0  0  0  0
  184.7380  173.3540  137.5730 C   0  0  0  0  0  3  0  0  0  0  0  0
  187.0930  173.6340  137.2010 C   0  0  0  0  0  3  0  0  0  0  0  0
  185.9890  172.8130  137.4180 C   0  0  0  0  0  3  0  0  0  0  0  0
  186.8990  175.0030  136.9050 C   0  0  0  0  0  3  0  0  0  0  0  0
  184.5480  174.7300  137.3300 C   0  0  0  0  0  3  0  0  0  0  0  0
  183.9770  177.3050  136.8220 C   0  0  0  0  0  2  0  0  0  0  0  0
  183.7350  178.0770  138.1450 C   0  0  0  0  0  2  0  0  0  0  0  0
  182.4790  177.7290  138.9260 C   0  0  0  0  0  2  0  0  0  0  0  0
  183.7610  178.2750  141.0560 C   0  0  0  0  0  1  0  0  0  0  0  0
  182.9320  177.2590  140.2670 C   0  0  0  0  0  2  0  0  0  0  0  0
  1  3  1  0  0  0  0
  2 28  1  6  0  0  0
  2  4  1  0  0  0  0
  2  1  1  0  0  0  0
  3  6  1  0  0  0  0
  5  4  1  6  0  0  0
  5 15  1  0  0  0  0
  5  6  1  0  0  0  0
  7 10  2  0  0  0  0
  7 13  1  0  0  0  0
  8 18  1  0  0  0  0
  9 12  1  0  0  0  0
  9 17  1  0  0  0  0
 10 14  1  0  0  0  0
 11  7  1  0  0  0  0
 13  9  2  0  0  0  0
 14 12  2  0  0  0  0
 15 12  1  6  0  0  0
 15  8  1  0  0  0  0
 16  8  1  0  0  0  0
 17 16  1  0  0  0  0
 18 19  1  0  0  0  0
 19 24  1  0  0  0  0
 20 23  2  0  0  0  0
 20 24  1  0  0  0  0
 21 27  1  0  0  0  0
 21 25  2  0  0  0  0
 22 25  1  0  0  0  0
 23 21  1  0  0  0  0
 24 22  2  0  0  0  0
 27 26  3  0  0  0  0
 29 28  1  0  0  0  0
 30 31  1  0  0  0  0
 30 29  1  0  0  0  0
 31 32  1  0  0  0  0
 32 39  1  0  0  0  0
 32 33  1  0  0  0  0
 33 38  1  0  0  0  0
 35 36  2  0  0  0  0
 36 34  1  0  0  0  0
 37 33  2  0  0  0  0
 37 35  1  0  0  0  0
 38 34  2  0  0  0  0
 39 40  1  0  0  0  0
 40 41  1  0  0  0  0
 41 43  1  0  0  0  0
 43 42  1  0  0  0  0
M  END
>  <MODEL>
6

>  <REMARK>
 VINA RESULT:      -6.8      2.550      7.130
  Name = 
  15 active torsions:
  status: ('A' for Active; 'I' for Inactive)
    1  A    between atoms: S_1  and  C_34
    2  A    between atoms: S_1  and  C_35
    3  A    between atoms: C_3  and  C_4
    4  A    between atoms: C_3  and  O_12
    5  A    between atoms: C_4  and  N_14
    6  A    between atoms: C_6  and  C_17
    7  A    between atoms: N_8  and  C_34
    8  A    between atoms: C_10  and  C_22
    9  A    between atoms: C_10  and  C_41
   10  A    between atoms: C_11  and  N_14
   11  A    between atoms: O_12  and  C_17
   12  A    between atoms: N_14  and  C_41
   13  A    between atoms: C_19  and  C_37
   14  A    between atoms: C_22  and  C_42
   15  A    between atoms: C_27  and  C_30
                            x       y       z     vdW  Elec       q    Type
                         _______ _______ _______ _____ _____    ______ ____

>  <TORSDO>
F 15

$$$$
=
 OpenBabel10272414133D

 43 47  0  0  1  0  0  0  0  0999 V2000
  189.0690  177.4140  142.0900 N   0  0  0  0  0  2  0  0  0  0  0  0
  188.6210  178.2090  141.0510 C   0  0  1  0  0  3  0  0  0  0  0  0
  190.2260  176.5110  141.8070 C   0  0  0  0  0  2  0  0  0  0  0  0
  188.9160  178.0530  139.8000 C   0  0  0  0  0  2  0  0  0  0  0  0
  190.1150  177.3680  139.5370 C   0  0  1  0  0  3  0  0  0  0  0  0
  190.3410  176.1710  140.3450 N   0  0  0  0  0  2  0  0  0  0  0  0
  193.6600  174.5470  137.2100 C   0  0  0  0  0  0  0  0  0  0  0  0
  189.0420  176.8360  137.3400 N   0  0  0  0  0  0  0  0  0  0  0  0
  191.2760  175.0450  137.1470 C   0  0  0  0  0  0  0  0  0  0  0  0
  193.8170  175.6670  138.0250 C   0  0  0  0  0  3  0  0  0  0  0  0
  194.8800  173.7510  136.8350 C   0  0  0  0  0  1  0  0  0  0  0  0
  191.4720  176.3160  137.7280 C   0  0  0  0  0  0  0  0  0  0  0  0
  192.3670  174.1980  136.7930 C   0  0  0  0  0  3  0  0  0  0  0  0
  192.7860  176.5400  138.2410 C   0  0  0  0  0  3  0  0  0  0  0  0
  190.3360  177.1990  138.0140 C   0  0  2  0  0  3  0  0  0  0  0  0
  188.8010  175.3920  137.6120 C   0  0  0  0  0  2  0  0  0  0  0  0
  189.9100  174.4590  137.1190 C   0  0  0  0  0  2  0  0  0  0  0  0
  187.8050  177.4280  137.8630 C   0  0  0  0  0  2  0  0  0  0  0  0
  186.5490  177.7950  136.5700 S   0  0  0  0  0  0  0  0  0  0  0  0
  184.7920  175.7250  137.2060 C   0  0  0  0  0  3  0  0  0  0  0  0
  182.8950  176.1290  138.6640 C   0  0  0  0  0  0  0  0  0  0  0  0
  184.5360  177.8860  138.2920 C   0  0  0  0  0  3  0  0  0  0  0  0
  183.6870  175.2390  137.8960 C   0  0  0  0  0  3  0  0  0  0  0  0
  185.1650  177.0780  137.4090 C   0  0  0  0  0  0  0  0  0  0  0  0
  183.3540  177.4330  138.8890 C   0  0  0  0  0  3  0  0  0  0  0  0
  180.6130  175.4450  139.6160 N   0  0  0  0  0  0  0  0  0  0  0  0
  181.6730  175.7940  139.2710 C   0  0  0  0  0  0  0  0  0  0  0  0
  187.4230  179.1250  141.3110 C   0  0  0  0  0  2  0  0  0  0  0  0
  186.2060  178.4910  141.1730 O   0  0  0  0  0  0  0  0  0  0  0  0
  185.1600  179.1600  141.8430 C   0  0  0  0  0  2  0  0  0  0  0  0
  184.9140  178.3410  143.0760 C   0  0  0  0  0  2  0  0  0  0  0  0
  184.8410  179.0950  144.2770 N   0  0  0  0  0  0  0  0  0  0  0  0
  185.8290  178.5380  145.2460 C   0  0  0  0  0  0  0  0  0  0  0  0
  187.8310  177.2880  145.6220 C   0  0  0  0  0  3  0  0  0  0  0  0
  186.7380  178.3940  147.4510 C   0  0  0  0  0  3  0  0  0  0  0  0
  187.8340  177.7140  146.9260 C   0  0  0  0  0  3  0  0  0  0  0  0
  185.7200  178.8550  146.5830 C   0  0  0  0  0  3  0  0  0  0  0  0
  186.7900  177.7030  144.7650 C   0  0  0  0  0  3  0  0  0  0  0  0
  183.4980  179.1630  144.8450 C   0  0  0  0  0  2  0  0  0  0  0  0
  182.3450  178.4550  144.0870 C   0  0  0  0  0  2  0  0  0  0  0  0
  181.4080  179.3370  143.2800 C   0  0  0  0  0  2  0  0  0  0  0  0
  180.8070  179.2120  140.8090 C   0  0  0  0  0  1  0  0  0  0  0  0
  180.8980  178.4960  142.1580 C   0  0  0  0  0  2  0  0  0  0  0  0
  2 28  1  6  0  0  0
  2  1  1  0  0  0  0
  3  1  1  0  0  0  0
  4  2  1  0  0  0  0
  5  4  1  6  0  0  0
  5  6  1  0  0  0  0
  6  3  1  0  0  0  0
  7 10  1  0  0  0  0
  8 16  1  0  0  0  0
  8 18  1  0  0  0  0
  8 15  1  0  0  0  0
  9 12  2  0  0  0  0
 10 14  2  0  0  0  0
 11  7  1  0  0  0  0
 12 14  1  0  0  0  0
 13  9  1  0  0  0  0
 13  7  2  0  0  0  0
 15 12  1  1  0  0  0
 15  5  1  0  0  0  0
 17  9  1  0  0  0  0
 17 16  1  0  0  0  0
 19 24  1  0  0  0  0
 19 18  1  0  0  0  0
 20 24  2  0  0  0  0
 20 23  1  0  0  0  0
 21 25  1  0  0  0  0
 21 27  1  0  0  0  0
 22 25  2  0  0  0  0
 23 21  2  0  0  0  0
 24 22  1  0  0  0  0
 27 26  3  0  0  0  0
 29 28  1  0  0  0  0
 29 30  1  0  0  0  0
 30 31  1  0  0  0  0
 31 32  1  0  0  0  0
 32 39  1  0  0  0  0
 32 33  1  0  0  0  0
 33 37  1  0  0  0  0
 34 36  2  0  0  0  0
 36 35  1  0  0  0  0
 37 35  2  0  0  0  0
 38 33  2  0  0  0  0
 38 34  1  0  0  0  0
 40 39  1  0  0  0  0
 41 40  1  0  0  0  0
 42 43  1  0  0  0  0
 43 41  1  0  0  0  0
M  END
>  <MODEL>
7

>  <REMARK>
 VINA RESULT:      -6.8      2.013      4.062
  Name = 
  15 active torsions:
  status: ('A' for Active; 'I' for Inactive)
    1  A    between atoms: S_1  and  C_34
    2  A    between atoms: S_1  and  C_35
    3  A    between atoms: C_3  and  C_4
    4  A    between atoms: C_3  and  O_12
    5  A    between atoms: C_4  and  N_14
    6  A    between atoms: C_6  and  C_17
    7  A    between atoms: N_8  and  C_34
    8  A    between atoms: C_10  and  C_22
    9  A    between atoms: C_10  and  C_41
   10  A    between atoms: C_11  and  N_14
   11  A    between atoms: O_12  and  C_17
   12  A    between atoms: N_14  and  C_41
   13  A    between atoms: C_19  and  C_37
   14  A    between atoms: C_22  and  C_42
   15  A    between atoms: C_27  and  C_30
                            x       y       z     vdW  Elec       q    Type
                         _______ _______ _______ _____ _____    ______ ____

>  <TORSDO>
F 15

$$$$
=
 OpenBabel10272414133D

 43 47  0  0  1  0  0  0  0  0999 V2000
  192.0460  177.3370  140.5890 N   0  0  0  0  0  2  0  0  0  0  0  0
  190.9490  176.9920  139.8200 C   0  0  1  0  0  3  0  0  0  0  0  0
  193.3580  177.4620  139.8860 C   0  0  0  0  0  2  0  0  0  0  0  0
  190.9920  176.5010  138.6220 C   0  0  0  0  0  2  0  0  0  0  0  0
  192.1550  176.7870  137.8870 C   0  0  1  0  0  3  0  0  0  0  0  0
  193.4100  176.6450  138.6230 N   0  0  0  0  0  2  0  0  0  0  0  0
  194.3210  172.3870  136.5140 C   0  0  0  0  0  0  0  0  0  0  0  0
  190.6960  176.0180  136.0070 N   0  0  0  0  0  0  0  0  0  0  0  0
  192.2210  173.6120  136.3500 C   0  0  0  0  0  0  0  0  0  0  0  0
  194.9210  173.5780  136.9180 C   0  0  0  0  0  3  0  0  0  0  0  0
  195.1750  171.1560  136.3870 C   0  0  0  0  0  1  0  0  0  0  0  0
  192.8740  174.8550  136.4840 C   0  0  0  0  0  0  0  0  0  0  0  0
  192.9400  172.3840  136.2620 C   0  0  0  0  0  3  0  0  0  0  0  0
  194.2480  174.7680  136.8650 C   0  0  0  0  0  3  0  0  0  0  0  0
  192.1150  176.1100  136.4960 C   0  0  2  0  0  3  0  0  0  0  0  0
  190.0570  174.8880  136.7370 C   0  0  0  0  0  2  0  0  0  0  0  0
  190.7480  173.5360  136.5450 C   0  0  0  0  0  2  0  0  0  0  0  0
  189.7810  177.1170  136.3390 C   0  0  0  0  0  2  0  0  0  0  0  0
  188.4410  177.3710  135.1050 S   0  0  0  0  0  0  0  0  0  0  0  0
  185.7980  177.1200  135.9590 C   0  0  0  0  0  3  0  0  0  0  0  0
  185.1110  178.0210  138.1050 C   0  0  0  0  0  0  0  0  0  0  0  0
  187.4590  178.0570  137.4700 C   0  0  0  0  0  3  0  0  0  0  0  0
  184.8100  177.3020  136.9200 C   0  0  0  0  0  3  0  0  0  0  0  0
  187.1150  177.5480  136.2650 C   0  0  0  0  0  0  0  0  0  0  0  0
  186.4420  178.3520  138.3850 C   0  0  0  0  0  3  0  0  0  0  0  0
  183.5070  178.6960  139.9900 N   0  0  0  0  0  0  0  0  0  0  0  0
  184.1640  178.4070  139.0690 C   0  0  0  0  0  0  0  0  0  0  0  0
  189.5980  176.8370  140.5220 C   0  0  0  0  0  2  0  0  0  0  0  0
  189.0480  178.0350  140.9250 O   0  0  0  0  0  0  0  0  0  0  0  0
  189.0210  178.1820  142.3280 C   0  0  0  0  0  2  0  0  0  0  0  0
  188.0090  177.1770  142.7960 C   0  0  0  0  0  2  0  0  0  0  0  0
  187.7330  177.2280  144.1870 N   0  0  0  0  0  0  0  0  0  0  0  0
  186.4010  177.8720  144.3810 C   0  0  0  0  0  0  0  0  0  0  0  0
  184.2900  178.5050  143.4570 C   0  0  0  0  0  3  0  0  0  0  0  0
  184.7180  178.8000  145.8000 C   0  0  0  0  0  3  0  0  0  0  0  0
  183.8380  178.7870  144.7200 C   0  0  0  0  0  3  0  0  0  0  0  0
  186.0290  178.2930  145.6400 C   0  0  0  0  0  3  0  0  0  0  0  0
  185.6130  178.0480  143.2850 C   0  0  0  0  0  3  0  0  0  0  0  0
  188.7750  177.8830  144.9690 C   0  0  0  0  0  2  0  0  0  0  0  0
  189.7790  176.9920  145.7450 C   0  0  0  0  0  2  0  0  0  0  0  0
  189.5240  176.8010  147.2310 C   0  0  0  0  0  2  0  0  0  0  0  0
  188.1000  178.0140  148.9580 C   0  0  0  0  0  1  0  0  0  0  0  0
  189.0310  178.1110  147.7470 C   0  0  0  0  0  2  0  0  0  0  0  0
  2 28  1  1  0  0  0
  2  1  1  0  0  0  0
  3  1  1  0  0  0  0
  4  2  1  0  0  0  0
  5  4  1  1  0  0  0
  5  6  1  0  0  0  0
  6  3  1  0  0  0  0
  7 10  1  0  0  0  0
  8 18  1  0  0  0  0
  8 15  1  0  0  0  0
  8 16  1  0  0  0  0
  9 12  2  0  0  0  0
  9 17  1  0  0  0  0
 11  7  1  0  0  0  0
 12 14  1  0  0  0  0
 13  9  1  0  0  0  0
 13  7  2  0  0  0  0
 14 10  2  0  0  0  0
 15 12  1  1  0  0  0
 15  5  1  0  0  0  0
 17 16  1  0  0  0  0
 19 24  1  0  0  0  0
 19 18  1  0  0  0  0
 20 24  2  0  0  0  0
 20 23  1  0  0  0  0
 21 25  1  0  0  0  0
 21 27  1  0  0  0  0
 22 25  2  0  0  0  0
 23 21  2  0  0  0  0
 24 22  1  0  0  0  0
 27 26  3  0  0  0  0
 28 29  1  0  0  0  0
 29 30  1  0  0  0  0
 30 31  1  0  0  0  0
 31 32  1  0  0  0  0
 32 33  1  0  0  0  0
 32 39  1  0  0  0  0
 33 37  1  0  0  0  0
 34 36  2  0  0  0  0
 36 35  1  0  0  0  0
 37 35  2  0  0  0  0
 38 34  1  0  0  0  0
 38 33  2  0  0  0  0
 39 40  1  0  0  0  0
 40 41  1  0  0  0  0
 41 43  1  0  0  0  0
 43 42  1  0  0  0  0
M  END
>  <MODEL>
8

>  <REMARK>
 VINA RESULT:      -6.7      1.638      2.107
  Name = 
  15 active torsions:
  status: ('A' for Active; 'I' for Inactive)
    1  A    between atoms: S_1  and  C_34
    2  A    between atoms: S_1  and  C_35
    3  A    between atoms: C_3  and  C_4
    4  A    between atoms: C_3  and  O_12
    5  A    between atoms: C_4  and  N_14
    6  A    between atoms: C_6  and  C_17
    7  A    between atoms: N_8  and  C_34
    8  A    between atoms: C_10  and  C_22
    9  A    between atoms: C_10  and  C_41
   10  A    between atoms: C_11  and  N_14
   11  A    between atoms: O_12  and  C_17
   12  A    between atoms: N_14  and  C_41
   13  A    between atoms: C_19  and  C_37
   14  A    between atoms: C_22  and  C_42
   15  A    between atoms: C_27  and  C_30
                            x       y       z     vdW  Elec       q    Type
                         _______ _______ _______ _____ _____    ______ ____

>  <TORSDO>
F 15

$$$$
=
 OpenBabel10272414133D

 43 47  0  0  1  0  0  0  0  0999 V2000
  186.1690  179.1910  140.5110 N   0  0  0  0  0  2  0  0  0  0  0  0
  187.2590  178.4460  140.0980 C   0  0  1  0  0  3  0  0  0  0  0  0
  184.9710  179.1970  139.6180 C   0  0  0  0  0  2  0  0  0  0  0  0
  187.4480  177.9850  138.9030 C   0  0  0  0  0  2  0  0  0  0  0  0
  186.2900  177.8070  138.1280 C   0  0  1  0  0  3  0  0  0  0  0  0
  185.3240  178.9020  138.1860 N   0  0  0  0  0  2  0  0  0  0  0  0
  190.4130  175.1730  136.7110 C   0  0  0  0  0  0  0  0  0  0  0  0
  185.4800  176.5530  136.1190 N   0  0  0  0  0  0  0  0  0  0  0  0
  187.9890  175.2030  136.4580 C   0  0  0  0  0  0  0  0  0  0  0  0
  190.3220  176.4720  137.2070 C   0  0  0  0  0  3  0  0  0  0  0  0
  191.7720  174.5410  136.5880 C   0  0  0  0  0  1  0  0  0  0  0  0
  187.9290  176.5920  136.6910 C   0  0  0  0  0  0  0  0  0  0  0  0
  189.2290  174.5040  136.3660 C   0  0  0  0  0  3  0  0  0  0  0  0
  189.1470  177.1720  137.1610 C   0  0  0  0  0  3  0  0  0  0  0  0
  186.6440  177.3010  136.7080 C   0  0  2  0  0  3  0  0  0  0  0  0
  185.4640  175.2060  136.7530 C   0  0  0  0  0  2  0  0  0  0  0  0
  186.7450  174.3930  136.5490 C   0  0  0  0  0  2  0  0  0  0  0  0
  184.1270  177.0260  136.4370 C   0  0  0  0  0  2  0  0  0  0  0  0
  183.1650  175.8720  137.4980 S   0  0  0  0  0  0  0  0  0  0  0  0
  181.9110  178.3480  137.7800 C   0  0  0  0  0  3  0  0  0  0  0  0
  180.9530  179.0030  139.9110 C   0  0  0  0  0  0  0  0  0  0  0  0
  181.8500  176.7610  139.6220 C   0  0  0  0  0  3  0  0  0  0  0  0
  181.1980  179.2690  138.5400 C   0  0  0  0  0  3  0  0  0  0  0  0
  182.2500  177.1080  138.3780 C   0  0  0  0  0  0  0  0  0  0  0  0
  181.2440  177.7330  140.4250 C   0  0  0  0  0  3  0  0  0  0  0  0
  180.0610  180.7860  141.5260 N   0  0  0  0  0  0  0  0  0  0  0  0
  180.3910  179.9190  140.8160 C   0  0  0  0  0  0  0  0  0  0  0  0
  188.5050  178.4420  140.9860 C   0  0  0  0  0  2  0  0  0  0  0  0
  189.0510  177.1880  141.1610 O   0  0  0  0  0  0  0  0  0  0  0  0
  188.8030  176.6550  142.4440 C   0  0  0  0  0  2  0  0  0  0  0  0
  187.9780  177.7000  143.1360 C   0  0  0  0  0  2  0  0  0  0  0  0
  187.7670  177.4610  144.5190 N   0  0  0  0  0  0  0  0  0  0  0  0
  186.4360  178.0180  144.8980 C   0  0  0  0  0  0  0  0  0  0  0  0
  184.2000  178.5650  144.2580 C   0  0  0  0  0  3  0  0  0  0  0  0
  184.8880  178.7900  146.5460 C   0  0  0  0  0  3  0  0  0  0  0  0
  183.8880  178.7700  145.5770 C   0  0  0  0  0  3  0  0  0  0  0  0
  186.1960  178.3670  146.2100 C   0  0  0  0  0  3  0  0  0  0  0  0
  185.5150  178.1930  143.9110 C   0  0  0  0  0  3  0  0  0  0  0  0
  188.8360  177.9710  145.3720 C   0  0  0  0  0  2  0  0  0  0  0  0
  189.7560  176.9460  146.0850 C   0  0  0  0  0  2  0  0  0  0  0  0
  189.6290  176.8410  147.5950 C   0  0  0  0  0  2  0  0  0  0  0  0
  188.2260  178.0090  149.3700 C   0  0  0  0  0  1  0  0  0  0  0  0
  189.0050  178.1150  148.0570 C   0  0  0  0  0  2  0  0  0  0  0  0
  2  1  1  0  0  0  0
  2 28  1  6  0  0  0
  3  1  1  0  0  0  0
  4  2  1  0  0  0  0
  5  6  1  0  0  0  0
  5  4  1  6  0  0  0
  6  3  1  0  0  0  0
  7 10  1  0  0  0  0
  8 18  1  0  0  0  0
  8 15  1  0  0  0  0
  8 16  1  0  0  0  0
  9 17  1  0  0  0  0
  9 12  2  0  0  0  0
 11  7  1  0  0  0  0
 12 14  1  0  0  0  0
 13  9  1  0  0  0  0
 13  7  2  0  0  0  0
 14 10  2  0  0  0  0
 15 12  1  1  0  0  0
 15  5  1  0  0  0  0
 17 16  1  0  0  0  0
 18 19  1  0  0  0  0
 19 24  1  0  0  0  0
 20 24  2  0  0  0  0
 20 23  1  0  0  0  0
 21 25  1  0  0  0  0
 21 27  1  0  0  0  0
 22 25  2  0  0  0  0
 23 21  2  0  0  0  0
 24 22  1  0  0  0  0
 27 26  3  0  0  0  0
 28 29  1  0  0  0  0
 29 30  1  0  0  0  0
 30 31  1  0  0  0  0
 31 32  1  0  0  0  0
 32 33  1  0  0  0  0
 32 39  1  0  0  0  0
 33 37  1  0  0  0  0
 34 36  2  0  0  0  0
 36 35  1  0  0  0  0
 37 35  2  0  0  0  0
 38 34  1  0  0  0  0
 38 33  2  0  0  0  0
 39 40  1  0  0  0  0
 40 41  1  0  0  0  0
 41 43  1  0  0  0  0
 43 42  1  0  0  0  0
M  END
>  <MODEL>
9

>  <REMARK>
 VINA RESULT:      -6.7      1.839      2.965
  Name = 
  15 active torsions:
  status: ('A' for Active; 'I' for Inactive)
    1  A    between atoms: S_1  and  C_34
    2  A    between atoms: S_1  and  C_35
    3  A    between atoms: C_3  and  C_4
    4  A    between atoms: C_3  and  O_12
    5  A    between atoms: C_4  and  N_14
    6  A    between atoms: C_6  and  C_17
    7  A    between atoms: N_8  and  C_34
    8  A    between atoms: C_10  and  C_22
    9  A    between atoms: C_10  and  C_41
   10  A    between atoms: C_11  and  N_14
   11  A    between atoms: O_12  and  C_17
   12  A    between atoms: N_14  and  C_41
   13  A    between atoms: C_19  and  C_37
   14  A    between atoms: C_22  and  C_42
   15  A    between atoms: C_27  and  C_30
                            x       y       z     vdW  Elec       q    Type
                         _______ _______ _______ _____ _____    ______ ____

>  <TORSDO>
F 15

$$$$
