=
 OpenBabel10272413243D

 32 37  0  0  1  0  0  0  0  0999 V2000
  183.0670  178.4130  144.9540 C   0  0  0  0  0  2  0  0  0  0  0  0
  187.7630  177.8570  143.0540 C   0  0  0  0  0  0  0  0  0  0  0  0
  190.2090  176.4590  147.0490 O   0  0  0  0  0  0  0  0  0  0  0  0
  191.4310  176.9360  146.5450 C   0  0  0  0  0  2  0  0  0  0  0  0
  188.8250  177.6420  140.7890 C   0  0  0  0  0  0  0  0  0  0  0  0
  189.9540  177.3560  140.1460 C   0  0  0  0  0  0  0  0  0  0  0  0
  185.4160  178.5000  143.2730 C   0  0  0  0  0  0  0  0  0  0  0  0
  186.7140  178.0810  145.3040 C   0  0  0  0  0  3  0  0  0  0  0  0
  192.2250  176.7510  139.7980 C   0  0  1  0  0  3  0  0  0  0  0  0
  184.3900  178.7910  145.6200 C   0  0  0  0  0  2  0  0  0  0  0  0
  189.2270  177.3760  146.6320 C   0  0  0  0  0  2  0  0  0  0  0  0
  187.8650  177.7740  144.4940 N   0  0  0  0  0  0  0  0  0  0  0  0
  189.1000  177.3940  145.1240 C   0  0  0  0  0  0  0  0  0  0  0  0
  190.0920  177.2170  142.9370 N   0  0  0  0  0  0  0  0  0  0  0  0
  191.4850  176.9760  138.4570 C   0  0  0  0  0  2  0  0  0  0  0  0
  184.1030  178.8710  142.7170 C   0  0  0  0  0  0  0  0  0  0  0  0
  185.5470  178.4100  144.7460 C   0  0  0  0  0  0  0  0  0  0  0  0
  190.1420  177.3450  138.7810 O   0  0  0  0  0  0  0  0  0  0  0  0
  183.9690  179.1090  141.4850 O   0  0  0  0  0  0  0  0  0  0  0  0
  182.9820  178.9800  143.6090 N   0  0  0  0  0  0  0  0  0  0  0  0
  191.4800  176.7120  145.0320 C   0  0  0  0  0  2  0  0  0  0  0  0
  190.1880  177.1430  144.3730 C   0  0  0  0  0  0  0  0  0  0  0  0
  191.2570  176.9270  142.1350 C   0  0  0  0  0  3  0  0  0  0  0  0
  186.4580  178.2410  142.4780 C   0  0  0  0  0  3  0  0  0  0  0  0
  187.6870  177.9750  140.0610 O   0  0  0  0  0  1  0  0  0  0  0  0
  193.2430  177.6960  139.9280 O   0  0  0  0  0  1  0  0  0  0  0  0
  188.8420  177.5850  142.2890 C   0  0  0  0  0  0  0  0  0  0  0  0
  191.1700  177.0050  140.8100 C   0  0  0  0  0  0  0  0  0  0  0  0
  181.7280  179.5780  143.1700 C   0  0  0  0  0  2  0  0  0  0  0  0
  180.7640  178.5160  142.7620 C   0  0  0  0  0  0  0  0  0  0  0  0
  179.9830  177.8830  143.7190 O   0  0  0  0  0  1  0  0  0  0  0  0
  180.6340  178.2190  141.5470 O   0  0  0  0  0  0  0  0  0  0  0  0
  1 10  1  0  0  0  0
  2 12  1  0  0  0  0
  4  3  1  0  0  0  0
  5 27  1  0  0  0  0
  6  5  2  0  0  0  0
  6 28  1  0  0  0  0
  7 17  1  0  0  0  0
  9 26  1  1  0  0  0
  9 28  1  0  0  0  0
 11  3  1  0  0  0  0
 12 13  1  0  0  0  0
 12  8  1  0  0  0  0
 13 11  1  0  0  0  0
 14 22  1  0  0  0  0
 15 18  1  0  0  0  0
 15  9  1  0  0  0  0
 16  7  1  0  0  0  0
 16 20  1  0  0  0  0
 17  8  2  0  0  0  0
 17 10  1  0  0  0  0
 18  6  1  0  0  0  0
 19 16  2  0  0  0  0
 20  1  1  0  0  0  0
 21  4  1  0  0  0  0
 22 21  1  0  0  0  0
 22 13  2  0  0  0  0
 23 14  1  0  0  0  0
 24  2  1  0  0  0  0
 24  7  2  0  0  0  0
 25  5  1  0  0  0  0
 27 14  1  0  0  0  0
 27  2  2  0  0  0  0
 28 23  2  0  0  0  0
 29 20  1  0  0  0  0
 30 29  1  0  0  0  0
 30 31  1  0  0  0  0
 32 30  2  0  0  0  0
M  END
>  <MODEL>
1

>  <REMARK>
 VINA RESULT:      -9.8      0.000      0.000
  Name = 
  2 active torsions:
  status: ('A' for Active; 'I' for Inactive)
    1  A    between atoms: C_1  and  C_10
    2  A    between atoms: C_10  and  N_24
                            x       y       z     vdW  Elec       q    Type
                         _______ _______ _______ _____ _____    ______ ____

>  <TORSDO>
F 2

$$$$
=
 OpenBabel10272413243D

 32 37  0  0  1  0  0  0  0  0999 V2000
  186.9870  177.7910  137.4190 C   0  0  0  0  0  2  0  0  0  0  0  0
  187.7100  177.9200  142.4620 C   0  0  0  0  0  0  0  0  0  0  0  0
  183.1170  178.4930  144.0340 O   0  0  0  0  0  0  0  0  0  0  0  0
  183.5350  179.0930  145.2330 C   0  0  0  0  0  2  0  0  0  0  0  0
  189.5270  177.3060  144.0830 C   0  0  0  0  0  0  0  0  0  0  0  0
  189.8180  177.1400  145.3710 C   0  0  0  0  0  0  0  0  0  0  0  0
  188.1500  177.9670  140.0590 C   0  0  0  0  0  0  0  0  0  0  0  0
  185.9080  178.5400  140.8560 C   0  0  0  0  0  3  0  0  0  0  0  0
  189.5240  177.0680  147.7280 C   0  0  1  0  0  3  0  0  0  0  0  0
  186.2780  178.6850  138.4380 C   0  0  0  0  0  2  0  0  0  0  0  0
  183.9980  178.9510  143.0370 C   0  0  0  0  0  2  0  0  0  0  0  0
  186.3410  178.3100  142.2100 N   0  0  0  0  0  0  0  0  0  0  0  0
  185.4110  178.4740  143.2950 C   0  0  0  0  0  0  0  0  0  0  0  0
  187.1820  177.9010  144.8230 N   0  0  0  0  0  0  0  0  0  0  0  0
  190.9640  176.6740  147.3220 C   0  0  0  0  0  2  0  0  0  0  0  0
  189.0210  177.7960  138.8850 C   0  0  0  0  0  0  0  0  0  0  0  0
  186.7420  178.3690  139.8280 C   0  0  0  0  0  0  0  0  0  0  0  0
  191.0340  176.7620  145.8970 O   0  0  0  0  0  0  0  0  0  0  0  0
  190.2610  177.6030  139.0250 O   0  0  0  0  0  0  0  0  0  0  0  0
  188.4380  177.8780  137.5750 N   0  0  0  0  0  0  0  0  0  0  0  0
  184.8360  178.4380  145.7040 C   0  0  0  0  0  2  0  0  0  0  0  0
  185.8200  178.2970  144.5640 C   0  0  0  0  0  0  0  0  0  0  0  0
  187.6110  177.6930  146.1850 C   0  0  0  0  0  3  0  0  0  0  0  0
  188.6040  177.7570  141.2980 C   0  0  0  0  0  3  0  0  0  0  0  0
  190.5140  177.0940  143.1250 O   0  0  0  0  0  1  0  0  0  0  0  0
  189.5620  178.2380  148.4870 O   0  0  0  0  0  1  0  0  0  0  0  0
  188.1270  177.7160  143.7310 C   0  0  0  0  0  0  0  0  0  0  0  0
  188.8700  177.3370  146.4230 C   0  0  0  0  0  0  0  0  0  0  0  0
  189.2740  177.9660  136.3840 C   0  0  0  0  0  2  0  0  0  0  0  0
  189.3100  176.6530  135.6800 C   0  0  0  0  0  0  0  0  0  0  0  0
  189.8860  175.5500  136.2950 O   0  0  0  0  0  1  0  0  0  0  0  0
  188.7860  176.5360  134.5420 O   0  0  0  0  0  0  0  0  0  0  0  0
  1 20  1  0  0  0  0
  1 10  1  0  0  0  0
  2 27  2  0  0  0  0
  3  4  1  0  0  0  0
  4 21  1  0  0  0  0
  5  6  2  0  0  0  0
  6 18  1  0  0  0  0
  6 28  1  0  0  0  0
  7 24  2  0  0  0  0
  8 12  1  0  0  0  0
  9 26  1  1  0  0  0
 10 17  1  0  0  0  0
 11 13  1  0  0  0  0
 11  3  1  0  0  0  0
 12  2  1  0  0  0  0
 12 13  1  0  0  0  0
 13 22  2  0  0  0  0
 14 23  1  0  0  0  0
 15  9  1  0  0  0  0
 16 19  2  0  0  0  0
 16  7  1  0  0  0  0
 17  7  1  0  0  0  0
 17  8  2  0  0  0  0
 18 15  1  0  0  0  0
 20 16  1  0  0  0  0
 22 14  1  0  0  0  0
 22 21  1  0  0  0  0
 23 28  2  0  0  0  0
 24  2  1  0  0  0  0
 25  5  1  0  0  0  0
 27  5  1  0  0  0  0
 27 14  1  0  0  0  0
 28  9  1  0  0  0  0
 29 20  1  0  0  0  0
 30 31  1  0  0  0  0
 30 29  1  0  0  0  0
 32 30  2  0  0  0  0
M  END
>  <MODEL>
2

>  <REMARK>
 VINA RESULT:      -9.8      2.324      6.981
  Name = 
  2 active torsions:
  status: ('A' for Active; 'I' for Inactive)
    1  A    between atoms: C_1  and  C_10
    2  A    between atoms: C_10  and  N_24
                            x       y       z     vdW  Elec       q    Type
                         _______ _______ _______ _____ _____    ______ ____

>  <TORSDO>
F 2

$$$$
=
 OpenBabel10272413243D

 32 37  0  0  1  0  0  0  0  0999 V2000
  191.9500  177.5600  140.5550 C   0  0  0  0  0  2  0  0  0  0  0  0
  187.3400  177.9450  142.6930 C   0  0  0  0  0  0  0  0  0  0  0  0
  188.5450  178.2790  147.4190 O   0  0  0  0  0  0  0  0  0  0  0  0
  187.3020  177.7750  147.8370 C   0  0  0  0  0  2  0  0  0  0  0  0
  184.9990  178.4690  141.9520 C   0  0  0  0  0  0  0  0  0  0  0  0
  183.7660  178.7450  142.3720 C   0  0  0  0  0  0  0  0  0  0  0  0
  189.1030  177.5360  141.0520 C   0  0  0  0  0  0  0  0  0  0  0  0
  189.6600  177.4150  143.4320 C   0  0  0  0  0  3  0  0  0  0  0  0
  181.9620  179.1510  143.8640 C   0  0  1  0  0  3  0  0  0  0  0  0
  191.4730  176.9180  141.8590 C   0  0  0  0  0  2  0  0  0  0  0  0
  188.8830  177.5720  146.2500 C   0  0  0  0  0  2  0  0  0  0  0  0
  188.2970  177.7410  143.7580 N   0  0  0  0  0  0  0  0  0  0  0  0
  187.9000  177.8560  145.1360 C   0  0  0  0  0  0  0  0  0  0  0  0
  185.6610  178.3350  144.3900 N   0  0  0  0  0  0  0  0  0  0  0  0
  181.5160  179.2680  142.3860 C   0  0  0  0  0  2  0  0  0  0  0  0
  189.6070  177.4250  139.6730 C   0  0  0  0  0  0  0  0  0  0  0  0
  190.0630  177.3290  142.1620 C   0  0  0  0  0  0  0  0  0  0  0  0
  182.6660  178.9950  141.5820 O   0  0  0  0  0  0  0  0  0  0  0  0
  188.8120  177.4420  138.6930 O   0  0  0  0  0  0  0  0  0  0  0  0
  191.0200  177.2720  139.4640 N   0  0  0  0  0  0  0  0  0  0  0  0
  186.2060  178.2760  146.8940 C   0  0  0  0  0  2  0  0  0  0  0  0
  186.6180  178.1230  145.4460 C   0  0  0  0  0  0  0  0  0  0  0  0
  184.2910  178.6410  144.7280 C   0  0  0  0  0  3  0  0  0  0  0  0
  187.8230  177.8240  141.3030 C   0  0  0  0  0  3  0  0  0  0  0  0
  185.2590  178.4080  140.5860 O   0  0  0  0  0  1  0  0  0  0  0  0
  181.2860  178.0920  144.4690 O   0  0  0  0  0  1  0  0  0  0  0  0
  186.0550  178.2370  142.9920 C   0  0  0  0  0  0  0  0  0  0  0  0
  183.4070  178.8270  143.7530 C   0  0  0  0  0  0  0  0  0  0  0  0
  191.5520  176.9110  138.1570 C   0  0  0  0  0  2  0  0  0  0  0  0
  191.8140  175.4450  138.0920 C   0  0  0  0  0  0  0  0  0  0  0  0
  193.1190  174.9730  138.0720 O   0  0  0  0  0  0  0  0  0  0  0  0
  190.8530  174.6340  138.0940 O   0  0  0  0  0  1  0  0  0  0  0  0
  1 10  1  0  0  0  0
  2 27  2  0  0  0  0
  2 12  1  0  0  0  0
  3  4  1  0  0  0  0
  5  6  2  0  0  0  0
  5 27  1  0  0  0  0
  6 28  1  0  0  0  0
  7 24  2  0  0  0  0
  7 17  1  0  0  0  0
  8 12  1  0  0  0  0
  9 26  1  6  0  0  0
 10 17  1  0  0  0  0
 11  3  1  0  0  0  0
 12 13  1  0  0  0  0
 13 22  2  0  0  0  0
 13 11  1  0  0  0  0
 14 23  1  0  0  0  0
 14 22  1  0  0  0  0
 15  9  1  0  0  0  0
 16  7  1  0  0  0  0
 17  8  2  0  0  0  0
 18  6  1  0  0  0  0
 18 15  1  0  0  0  0
 19 16  2  0  0  0  0
 20 16  1  0  0  0  0
 20  1  1  0  0  0  0
 21  4  1  0  0  0  0
 22 21  1  0  0  0  0
 24  2  1  0  0  0  0
 25  5  1  0  0  0  0
 27 14  1  0  0  0  0
 28  9  1  0  0  0  0
 28 23  2  0  0  0  0
 29 20  1  0  0  0  0
 30 32  1  0  0  0  0
 30 29  1  0  0  0  0
 31 30  2  0  0  0  0
M  END
>  <MODEL>
3

>  <REMARK>
 VINA RESULT:      -9.5      1.559      7.501
  Name = 
  2 active torsions:
  status: ('A' for Active; 'I' for Inactive)
    1  A    between atoms: C_1  and  C_10
    2  A    between atoms: C_10  and  N_24
                            x       y       z     vdW  Elec       q    Type
                         _______ _______ _______ _____ _____    ______ ____

>  <TORSDO>
F 2

$$$$
=
 OpenBabel10272413243D

 32 37  0  0  1  0  0  0  0  0999 V2000
  183.0210  179.5150  139.0100 C   0  0  0  0  0  2  0  0  0  0  0  0
  186.4410  178.1810  142.5450 C   0  0  0  0  0  0  0  0  0  0  0  0
  190.5320  178.0770  139.8710 O   0  0  0  0  0  0  0  0  0  0  0  0
  191.1550  177.1700  140.7450 C   0  0  0  0  0  2  0  0  0  0  0  0
  186.5750  178.1110  145.0510 C   0  0  0  0  0  0  0  0  0  0  0  0
  187.3920  177.9430  146.0880 C   0  0  0  0  0  0  0  0  0  0  0  0
  184.3080  178.5790  141.4230 C   0  0  0  0  0  0  0  0  0  0  0  0
  186.3100  178.2390  140.0570 C   0  0  0  0  0  3  0  0  0  0  0  0
  189.3990  177.5540  147.2990 C   0  0  1  0  0  3  0  0  0  0  0  0
  184.2030  178.5580  138.8470 C   0  0  0  0  0  2  0  0  0  0  0  0
  189.1780  177.7000  139.8150 C   0  0  0  0  0  2  0  0  0  0  0  0
  187.0920  178.0940  141.2570 N   0  0  0  0  0  0  0  0  0  0  0  0
  188.5080  177.8610  141.1620 C   0  0  0  0  0  0  0  0  0  0  0  0
  188.5970  177.7800  143.5670 N   0  0  0  0  0  0  0  0  0  0  0  0
  188.1960  177.7750  148.2470 C   0  0  0  0  0  2  0  0  0  0  0  0
  182.8600  178.8470  141.4210 C   0  0  0  0  0  0  0  0  0  0  0  0
  184.9990  178.4830  140.1150 C   0  0  0  0  0  0  0  0  0  0  0  0
  187.0490  177.9850  147.4210 O   0  0  0  0  0  0  0  0  0  0  0  0
  182.1930  178.7900  142.4910 O   0  0  0  0  0  0  0  0  0  0  0  0
  182.2150  179.1500  140.1740 N   0  0  0  0  0  0  0  0  0  0  0  0
  190.7320  177.4750  142.1830 C   0  0  0  0  0  2  0  0  0  0  0  0
  189.2370  177.6880  142.2790 C   0  0  0  0  0  0  0  0  0  0  0  0
  189.3870  177.6130  144.7640 C   0  0  0  0  0  3  0  0  0  0  0  0
  184.9870  178.4350  142.5640 C   0  0  0  0  0  3  0  0  0  0  0  0
  185.2230  178.3530  145.2780 O   0  0  0  0  0  1  0  0  0  0  0  0
  189.8900  176.2590  147.4680 O   0  0  0  0  0  1  0  0  0  0  0  0
  187.1660  178.0320  143.6750 C   0  0  0  0  0  0  0  0  0  0  0  0
  188.7930  177.6890  145.9510 C   0  0  0  0  0  0  0  0  0  0  0  0
  180.7630  179.1790  140.0660 C   0  0  0  0  0  2  0  0  0  0  0  0
  180.2570  180.5660  140.2730 C   0  0  0  0  0  0  0  0  0  0  0  0
  180.0500  181.4000  139.1840 O   0  0  0  0  0  0  0  0  0  0  0  0
  179.9820  180.9680  141.4340 O   0  0  0  0  0  1  0  0  0  0  0  0
  1 20  1  0  0  0  0
  2 24  1  0  0  0  0
  2 27  2  0  0  0  0
  3  4  1  0  0  0  0
  4 21  1  0  0  0  0
  5 25  1  0  0  0  0
  5  6  2  0  0  0  0
  6 18  1  0  0  0  0
  7 24  2  0  0  0  0
  8 17  2  0  0  0  0
  8 12  1  0  0  0  0
  9 26  1  6  0  0  0
  9 15  1  0  0  0  0
 10  1  1  0  0  0  0
 10 17  1  0  0  0  0
 11  3  1  0  0  0  0
 11 13  1  0  0  0  0
 12  2  1  0  0  0  0
 13 12  1  0  0  0  0
 13 22  2  0  0  0  0
 14 27  1  0  0  0  0
 14 23  1  0  0  0  0
 16  7  1  0  0  0  0
 16 19  2  0  0  0  0
 17  7  1  0  0  0  0
 18 15  1  0  0  0  0
 20 16  1  0  0  0  0
 21 22  1  0  0  0  0
 22 14  1  0  0  0  0
 23 28  2  0  0  0  0
 27  5  1  0  0  0  0
 28  6  1  0  0  0  0
 28  9  1  0  0  0  0
 29 20  1  0  0  0  0
 29 30  1  0  0  0  0
 30 32  1  0  0  0  0
 31 30  2  0  0  0  0
M  END
>  <MODEL>
4

>  <REMARK>
 VINA RESULT:      -9.4      2.244      5.236
  Name = 
  2 active torsions:
  status: ('A' for Active; 'I' for Inactive)
    1  A    between atoms: C_1  and  C_10
    2  A    between atoms: C_10  and  N_24
                            x       y       z     vdW  Elec       q    Type
                         _______ _______ _______ _____ _____    ______ ____

>  <TORSDO>
F 2

$$$$
=
 OpenBabel10272413243D

 32 37  0  0  1  0  0  0  0  0999 V2000
  189.6920  176.6760  136.8210 C   0  0  0  0  0  2  0  0  0  0  0  0
  189.1940  177.3880  141.8430 C   0  0  0  0  0  0  0  0  0  0  0  0
  184.4380  178.4720  142.1500 O   0  0  0  0  0  0  0  0  0  0  0  0
  184.6130  179.1870  143.3460 C   0  0  0  0  0  2  0  0  0  0  0  0
  190.5010  176.8590  143.9210 C   0  0  0  0  0  0  0  0  0  0  0  0
  190.4570  176.8370  145.2510 C   0  0  0  0  0  0  0  0  0  0  0  0
  190.1990  177.1020  139.6340 C   0  0  0  0  0  0  0  0  0  0  0  0
  187.9000  177.9250  139.7820 C   0  0  0  0  0  3  0  0  0  0  0  0
  189.6020  177.0830  147.4540 C   0  0  1  0  0  3  0  0  0  0  0  0
  188.8500  177.7380  137.5310 C   0  0  0  0  0  2  0  0  0  0  0  0
  185.5730  178.7390  141.3620 C   0  0  0  0  0  2  0  0  0  0  0  0
  187.9710  177.8370  141.2180 N   0  0  0  0  0  0  0  0  0  0  0  0
  186.8290  178.2010  142.0130 C   0  0  0  0  0  0  0  0  0  0  0  0
  188.1170  177.7030  143.9860 N   0  0  0  0  0  0  0  0  0  0  0  0
  191.0510  176.5410  147.4640 C   0  0  0  0  0  2  0  0  0  0  0  0
  191.3060  176.7250  138.7390 C   0  0  0  0  0  0  0  0  0  0  0  0
  188.9340  177.5680  139.0190 C   0  0  0  0  0  0  0  0  0  0  0  0
  191.4680  176.4440  146.1000 O   0  0  0  0  0  0  0  0  0  0  0  0
  192.4510  176.4650  139.2030 O   0  0  0  0  0  0  0  0  0  0  0  0
  191.0650  176.6810  137.3240 N   0  0  0  0  0  0  0  0  0  0  0  0
  185.6930  178.5080  144.1920 C   0  0  0  0  0  2  0  0  0  0  0  0
  186.9030  178.1570  143.3550 C   0  0  0  0  0  0  0  0  0  0  0  0
  188.1850  177.6390  145.4260 C   0  0  0  0  0  3  0  0  0  0  0  0
  190.3210  177.0190  140.9630 C   0  0  0  0  0  3  0  0  0  0  0  0
  191.6630  176.4590  143.2670 O   0  0  0  0  0  1  0  0  0  0  0  0
  189.5710  178.3330  148.0710 O   0  0  0  0  0  1  0  0  0  0  0  0
  189.2740  177.3180  143.1900 C   0  0  0  0  0  0  0  0  0  0  0  0
  189.3090  177.2290  146.0060 C   0  0  0  0  0  0  0  0  0  0  0  0
  192.1660  176.5610  136.3770 C   0  0  0  0  0  2  0  0  0  0  0  0
  192.2390  175.1700  135.8440 C   0  0  0  0  0  0  0  0  0  0  0  0
  191.9390  174.9190  134.5130 O   0  0  0  0  0  0  0  0  0  0  0  0
  192.6100  174.2290  136.5930 O   0  0  0  0  0  1  0  0  0  0  0  0
  1 20  1  0  0  0  0
  1 10  1  0  0  0  0
  2 27  2  0  0  0  0
  3  4  1  0  0  0  0
  4 21  1  0  0  0  0
  5  6  2  0  0  0  0
  6 28  1  0  0  0  0
  6 18  1  0  0  0  0
  7 24  2  0  0  0  0
  8 12  1  0  0  0  0
  9 15  1  0  0  0  0
  9 26  1  1  0  0  0
 10 17  1  0  0  0  0
 11 13  1  0  0  0  0
 11  3  1  0  0  0  0
 12  2  1  0  0  0  0
 12 13  1  0  0  0  0
 13 22  2  0  0  0  0
 14 23  1  0  0  0  0
 16 19  2  0  0  0  0
 16  7  1  0  0  0  0
 17  7  1  0  0  0  0
 17  8  2  0  0  0  0
 18 15  1  0  0  0  0
 20 16  1  0  0  0  0
 22 14  1  0  0  0  0
 22 21  1  0  0  0  0
 23 28  2  0  0  0  0
 24  2  1  0  0  0  0
 25  5  1  0  0  0  0
 27  5  1  0  0  0  0
 27 14  1  0  0  0  0
 28  9  1  0  0  0  0
 29 20  1  0  0  0  0
 30 29  1  0  0  0  0
 30 32  1  0  0  0  0
 31 30  2  0  0  0  0
M  END
>  <MODEL>
5

>  <REMARK>
 VINA RESULT:      -9.3      2.246      7.966
  Name = 
  2 active torsions:
  status: ('A' for Active; 'I' for Inactive)
    1  A    between atoms: C_1  and  C_10
    2  A    between atoms: C_10  and  N_24
                            x       y       z     vdW  Elec       q    Type
                         _______ _______ _______ _____ _____    ______ ____

>  <TORSDO>
F 2

$$$$
=
 OpenBabel10272413243D

 32 37  0  0  1  0  0  0  0  0999 V2000
  182.9780  179.4490  141.8300 C   0  0  0  0  0  2  0  0  0  0  0  0
  187.4670  177.7510  143.5430 C   0  0  0  0  0  0  0  0  0  0  0  0
  190.1340  177.9180  139.4510 O   0  0  0  0  0  0  0  0  0  0  0  0
  191.0160  176.9240  139.9090 C   0  0  0  0  0  2  0  0  0  0  0  0
  188.5910  177.4220  145.7650 C   0  0  0  0  0  0  0  0  0  0  0  0
  189.7480  177.1460  146.3630 C   0  0  0  0  0  0  0  0  0  0  0  0
  185.0820  178.2660  143.4200 C   0  0  0  0  0  0  0  0  0  0  0  0
  186.3520  178.0660  141.3370 C   0  0  0  0  0  3  0  0  0  0  0  0
  192.0530  176.6310  146.6190 C   0  0  1  0  0  3  0  0  0  0  0  0
  183.9520  178.5120  141.1150 C   0  0  0  0  0  2  0  0  0  0  0  0
  188.8560  177.5510  139.9100 C   0  0  0  0  0  2  0  0  0  0  0  0
  187.5430  177.7970  142.1000 N   0  0  0  0  0  0  0  0  0  0  0  0
  188.7910  177.5730  141.4210 C   0  0  0  0  0  0  0  0  0  0  0  0
  189.8320  177.2440  143.5670 N   0  0  0  0  0  0  0  0  0  0  0  0
  191.3420  176.7550  147.9880 C   0  0  0  0  0  2  0  0  0  0  0  0
  183.7680  178.5340  144.0270 C   0  0  0  0  0  0  0  0  0  0  0  0
  185.1860  178.3040  141.9420 C   0  0  0  0  0  0  0  0  0  0  0  0
  189.9690  177.0510  147.7190 O   0  0  0  0  0  0  0  0  0  0  0  0
  183.5840  178.3690  145.2650 O   0  0  0  0  0  0  0  0  0  0  0  0
  182.6910  178.9660  143.1800 N   0  0  0  0  0  0  0  0  0  0  0  0
  191.2180  177.0800  141.4180 C   0  0  0  0  0  2  0  0  0  0  0  0
  189.8980  177.2840  142.1280 C   0  0  0  0  0  0  0  0  0  0  0  0
  191.0280  176.9520  144.3220 C   0  0  0  0  0  3  0  0  0  0  0  0
  186.1550  178.0040  144.1720 C   0  0  0  0  0  3  0  0  0  0  0  0
  187.4550  177.6410  146.5390 O   0  0  0  0  0  1  0  0  0  0  0  0
  192.5140  175.3250  146.4540 O   0  0  0  0  0  1  0  0  0  0  0  0
  188.5770  177.4840  144.2660 C   0  0  0  0  0  0  0  0  0  0  0  0
  190.9630  176.9060  145.6500 C   0  0  0  0  0  0  0  0  0  0  0  0
  181.3200  179.0080  143.6710 C   0  0  0  0  0  2  0  0  0  0  0  0
  180.4090  179.5380  142.6160 C   0  0  0  0  0  0  0  0  0  0  0  0
  179.9820  178.7100  141.5870 O   0  0  0  0  0  0  0  0  0  0  0  0
  179.9990  180.7250  142.6790 O   0  0  0  0  0  1  0  0  0  0  0  0
  1 20  1  0  0  0  0
  2 24  1  0  0  0  0
  2 27  2  0  0  0  0
  3  4  1  0  0  0  0
  3 11  1  0  0  0  0
  4 21  1  0  0  0  0
  5  6  2  0  0  0  0
  5 25  1  0  0  0  0
  6 18  1  0  0  0  0
  7 16  1  0  0  0  0
  7 24  2  0  0  0  0
  8 17  2  0  0  0  0
  8 12  1  0  0  0  0
  9 26  1  6  0  0  0
  9 15  1  0  0  0  0
 10  1  1  0  0  0  0
 10 17  1  0  0  0  0
 11 13  1  0  0  0  0
 12  2  1  0  0  0  0
 13 12  1  0  0  0  0
 13 22  2  0  0  0  0
 14 27  1  0  0  0  0
 14 23  1  0  0  0  0
 16 19  2  0  0  0  0
 17  7  1  0  0  0  0
 18 15  1  0  0  0  0
 20 29  1  0  0  0  0
 20 16  1  0  0  0  0
 21 22  1  0  0  0  0
 22 14  1  0  0  0  0
 23 28  2  0  0  0  0
 27  5  1  0  0  0  0
 28  6  1  0  0  0  0
 28  9  1  0  0  0  0
 30 32  1  0  0  0  0
 30 29  1  0  0  0  0
 31 30  2  0  0  0  0
M  END
>  <MODEL>
6

>  <REMARK>
 VINA RESULT:      -9.2      1.487      4.621
  Name = 
  2 active torsions:
  status: ('A' for Active; 'I' for Inactive)
    1  A    between atoms: C_1  and  C_10
    2  A    between atoms: C_10  and  N_24
                            x       y       z     vdW  Elec       q    Type
                         _______ _______ _______ _____ _____    ______ ____

>  <TORSDO>
F 2

$$$$
=
 OpenBabel10272413243D

 32 37  0  0  1  0  0  0  0  0999 V2000
  180.9840  178.5350  141.7670 C   0  0  0  0  0  2  0  0  0  0  0  0
  185.9820  178.2850  142.7340 C   0  0  0  0  0  0  0  0  0  0  0  0
  185.9480  177.6070  147.5740 O   0  0  0  0  0  0  0  0  0  0  0  0
  187.2330  178.1550  147.7240 C   0  0  0  0  0  2  0  0  0  0  0  0
  188.0990  177.9390  141.4300 C   0  0  0  0  0  0  0  0  0  0  0  0
  189.4070  177.7080  141.5280 C   0  0  0  0  0  0  0  0  0  0  0  0
  183.8650  178.6910  141.5840 C   0  0  0  0  0  0  0  0  0  0  0  0
  183.8840  178.6400  144.0300 C   0  0  0  0  0  3  0  0  0  0  0  0
  191.5280  177.3180  142.5240 C   0  0  1  0  0  3  0  0  0  0  0  0
  181.7310  179.1250  142.9640 C   0  0  0  0  0  2  0  0  0  0  0  0
  185.3130  178.3610  146.5700 C   0  0  0  0  0  2  0  0  0  0  0  0
  185.2980  178.3730  144.0050 N   0  0  0  0  0  0  0  0  0  0  0  0
  186.0150  178.2000  145.2390 C   0  0  0  0  0  0  0  0  0  0  0  0
  188.0300  177.8920  143.9580 N   0  0  0  0  0  0  0  0  0  0  0  0
  191.6160  177.3140  140.9790 C   0  0  0  0  0  2  0  0  0  0  0  0
  183.0430  178.8540  140.3720 C   0  0  0  0  0  0  0  0  0  0  0  0
  183.1880  178.7780  142.9000 C   0  0  0  0  0  0  0  0  0  0  0  0
  190.2970  177.5680  140.4870 O   0  0  0  0  0  0  0  0  0  0  0  0
  183.5830  178.9390  139.2350 O   0  0  0  0  0  0  0  0  0  0  0  0
  181.6160  178.9390  140.5120 N   0  0  0  0  0  0  0  0  0  0  0  0
  188.0930  177.7730  146.5170 C   0  0  0  0  0  2  0  0  0  0  0  0
  187.3430  177.9870  145.2210 C   0  0  0  0  0  0  0  0  0  0  0  0
  189.4530  177.6440  143.9440 C   0  0  0  0  0  3  0  0  0  0  0  0
  185.1790  178.4610  141.5070 C   0  0  0  0  0  3  0  0  0  0  0  0
  187.5200  178.0650  140.1710 O   0  0  0  0  0  1  0  0  0  0  0  0
  192.2850  178.3760  143.0270 O   0  0  0  0  0  1  0  0  0  0  0  0
  187.3110  178.0500  142.7020 C   0  0  0  0  0  0  0  0  0  0  0  0
  190.0870  177.5660  142.7780 C   0  0  0  0  0  0  0  0  0  0  0  0
  180.7750  179.3450  139.3940 C   0  0  0  0  0  2  0  0  0  0  0  0
  180.7020  180.8320  139.3160 C   0  0  0  0  0  0  0  0  0  0  0  0
  181.3960  181.5100  138.3240 O   0  0  0  0  0  0  0  0  0  0  0  0
  179.9820  181.4690  140.1270 O   0  0  0  0  0  1  0  0  0  0  0  0
  1 10  1  0  0  0  0
  2 12  1  0  0  0  0
  3  4  1  0  0  0  0
  5  6  2  0  0  0  0
  5 27  1  0  0  0  0
  6 28  1  0  0  0  0
  7 17  1  0  0  0  0
  9 28  1  0  0  0  0
  9 26  1  1  0  0  0
 11  3  1  0  0  0  0
 12  8  1  0  0  0  0
 12 13  1  0  0  0  0
 13 11  1  0  0  0  0
 14 22  1  0  0  0  0
 15  9  1  0  0  0  0
 16 20  1  0  0  0  0
 16  7  1  0  0  0  0
 17 10  1  0  0  0  0
 17  8  2  0  0  0  0
 18 15  1  0  0  0  0
 18  6  1  0  0  0  0
 19 16  2  0  0  0  0
 20  1  1  0  0  0  0
 21  4  1  0  0  0  0
 22 13  2  0  0  0  0
 22 21  1  0  0  0  0
 23 14  1  0  0  0  0
 24  7  2  0  0  0  0
 24  2  1  0  0  0  0
 25  5  1  0  0  0  0
 27  2  2  0  0  0  0
 27 14  1  0  0  0  0
 28 23  2  0  0  0  0
 29 20  1  0  0  0  0
 30 29  1  0  0  0  0
 30 32  1  0  0  0  0
 31 30  2  0  0  0  0
M  END
>  <MODEL>
7

>  <REMARK>
 VINA RESULT:      -9.1      2.174      3.179
  Name = 
  2 active torsions:
  status: ('A' for Active; 'I' for Inactive)
    1  A    between atoms: C_1  and  C_10
    2  A    between atoms: C_10  and  N_24
                            x       y       z     vdW  Elec       q    Type
                         _______ _______ _______ _____ _____    ______ ____

>  <TORSDO>
F 2

$$$$
=
 OpenBabel10272413243D

 32 37  0  0  1  0  0  0  0  0999 V2000
  191.5130  176.5330  145.1290 C   0  0  0  0  0  2  0  0  0  0  0  0
  187.6860  178.0400  142.1200 C   0  0  0  0  0  0  0  0  0  0  0  0
  189.7400  177.5620  137.7110 O   0  0  0  0  0  0  0  0  0  0  0  0
  188.8880  178.5210  137.1400 C   0  0  0  0  0  2  0  0  0  0  0  0
  185.2080  178.3930  142.3220 C   0  0  0  0  0  0  0  0  0  0  0  0
  184.0880  178.6260  141.6410 C   0  0  0  0  0  0  0  0  0  0  0  0
  189.0540  177.6570  144.1080 C   0  0  0  0  0  0  0  0  0  0  0  0
  190.1460  177.7020  141.9190 C   0  0  0  0  0  3  0  0  0  0  0  0
  182.6500  179.0190  139.7910 C   0  0  1  0  0  3  0  0  0  0  0  0
  191.6060  177.3840  143.8620 C   0  0  0  0  0  2  0  0  0  0  0  0
  190.0300  178.0180  139.0100 C   0  0  0  0  0  2  0  0  0  0  0  0
  188.8690  177.9330  141.2960 N   0  0  0  0  0  0  0  0  0  0  0  0
  188.7830  178.0590  139.8660 C   0  0  0  0  0  0  0  0  0  0  0  0
  186.4130  178.4140  140.0980 N   0  0  0  0  0  0  0  0  0  0  0  0
  181.8660  178.9900  141.1250 C   0  0  0  0  0  2  0  0  0  0  0  0
  189.2350  177.4870  145.5590 C   0  0  0  0  0  0  0  0  0  0  0  0
  190.2520  177.5540  143.2410 C   0  0  0  0  0  0  0  0  0  0  0  0
  182.8210  178.7610  142.1640 O   0  0  0  0  0  0  0  0  0  0  0  0
  188.2830  177.7110  146.3580 O   0  0  0  0  0  0  0  0  0  0  0  0
  190.5220  177.0840  146.0520 N   0  0  0  0  0  0  0  0  0  0  0  0
  187.5010  178.4130  137.7770 C   0  0  0  0  0  2  0  0  0  0  0  0
  187.5980  178.3130  139.2840 C   0  0  0  0  0  0  0  0  0  0  0  0
  185.1400  178.6660  139.4650 C   0  0  0  0  0  3  0  0  0  0  0  0
  187.8480  177.8870  143.5800 C   0  0  0  0  0  3  0  0  0  0  0  0
  185.1530  178.2690  143.7070 O   0  0  0  0  0  1  0  0  0  0  0  0
  182.5500  180.2890  139.2230 O   0  0  0  0  0  1  0  0  0  0  0  0
  186.4860  178.2720  141.5450 C   0  0  0  0  0  0  0  0  0  0  0  0
  184.0490  178.7680  140.2190 C   0  0  0  0  0  0  0  0  0  0  0  0
  190.8340  177.1390  147.4740 C   0  0  0  0  0  2  0  0  0  0  0  0
  191.8480  176.1030  147.8220 C   0  0  0  0  0  0  0  0  0  0  0  0
  193.0410  176.4740  148.4270 O   0  0  0  0  0  1  0  0  0  0  0  0
  191.6070  174.8880  147.6000 O   0  0  0  0  0  0  0  0  0  0  0  0
  1 20  1  0  0  0  0
  2 24  1  0  0  0  0
  3 11  1  0  0  0  0
  4  3  1  0  0  0  0
  4 21  1  0  0  0  0
  5 25  1  0  0  0  0
  6 18  1  0  0  0  0
  6  5  2  0  0  0  0
  7 16  1  0  0  0  0
  8 17  2  0  0  0  0
  9 26  1  1  0  0  0
  9 28  1  0  0  0  0
  9 15  1  0  0  0  0
 10  1  1  0  0  0  0
 11 13  1  0  0  0  0
 12  8  1  0  0  0  0
 12  2  1  0  0  0  0
 13 12  1  0  0  0  0
 14 27  1  0  0  0  0
 15 18  1  0  0  0  0
 16 20  1  0  0  0  0
 16 19  2  0  0  0  0
 17 10  1  0  0  0  0
 17  7  1  0  0  0  0
 20 29  1  0  0  0  0
 21 22  1  0  0  0  0
 22 13  2  0  0  0  0
 22 14  1  0  0  0  0
 23 14  1  0  0  0  0
 23 28  2  0  0  0  0
 24  7  2  0  0  0  0
 27  2  2  0  0  0  0
 27  5  1  0  0  0  0
 28  6  1  0  0  0  0
 29 30  1  0  0  0  0
 30 31  1  0  0  0  0
 32 30  2  0  0  0  0
M  END
>  <MODEL>
8

>  <REMARK>
 VINA RESULT:      -9.1      2.236      7.817
  Name = 
  2 active torsions:
  status: ('A' for Active; 'I' for Inactive)
    1  A    between atoms: C_1  and  C_10
    2  A    between atoms: C_10  and  N_24
                            x       y       z     vdW  Elec       q    Type
                         _______ _______ _______ _____ _____    ______ ____

>  <TORSDO>
F 2

$$$$
=
 OpenBabel10272413243D

 32 37  0  0  1  0  0  0  0  0999 V2000
  190.5240  177.1880  147.4960 C   0  0  0  0  0  2  0  0  0  0  0  0
  187.6720  177.7240  143.3060 C   0  0  0  0  0  0  0  0  0  0  0  0
  183.5580  179.5380  145.2210 O   0  0  0  0  0  0  0  0  0  0  0  0
  182.7760  179.0580  144.1570 C   0  0  0  0  0  2  0  0  0  0  0  0
  188.0330  177.7750  140.8210 C   0  0  0  0  0  0  0  0  0  0  0  0
  187.4600  178.0390  139.6490 C   0  0  0  0  0  0  0  0  0  0  0  0
  189.4680  177.0290  144.8100 C   0  0  0  0  0  0  0  0  0  0  0  0
  187.3080  177.6630  145.7700 C   0  0  0  0  0  3  0  0  0  0  0  0
  185.7950  178.6820  138.0810 C   0  0  1  0  0  3  0  0  0  0  0  0
  189.0270  176.9110  147.3470 C   0  0  0  0  0  2  0  0  0  0  0  0
  184.5380  178.5580  145.4620 C   0  0  0  0  0  2  0  0  0  0  0  0
  186.8100  177.9340  144.4470 N   0  0  0  0  0  0  0  0  0  0  0  0
  185.4620  178.4060  144.2740 C   0  0  0  0  0  0  0  0  0  0  0  0
  185.8360  178.4240  141.8950 N   0  0  0  0  0  0  0  0  0  0  0  0
  187.1270  178.3190  137.3800 C   0  0  0  0  0  2  0  0  0  0  0  0
  190.8400  176.5710  145.0860 C   0  0  0  0  0  0  0  0  0  0  0  0
  188.5630  177.2500  145.9630 C   0  0  0  0  0  0  0  0  0  0  0  0
  188.0460  177.9380  138.4070 O   0  0  0  0  0  0  0  0  0  0  0  0
  191.6050  176.2230  144.1440 O   0  0  0  0  0  0  0  0  0  0  0  0
  191.2840  176.5050  146.4510 N   0  0  0  0  0  0  0  0  0  0  0  0
  183.5740  179.1520  142.8560 C   0  0  0  0  0  2  0  0  0  0  0  0
  184.9810  178.6240  143.0370 C   0  0  0  0  0  0  0  0  0  0  0  0
  185.3200  178.6790  140.5710 C   0  0  0  0  0  3  0  0  0  0  0  0
  189.0480  177.2510  143.5610 C   0  0  0  0  0  3  0  0  0  0  0  0
  189.3560  177.3450  140.8550 O   0  0  0  0  0  1  0  0  0  0  0  0
  184.8040  177.7840  137.6840 O   0  0  0  0  0  1  0  0  0  0  0  0
  187.2070  177.9620  142.0600 C   0  0  0  0  0  0  0  0  0  0  0  0
  186.1080  178.4840  139.5180 C   0  0  0  0  0  0  0  0  0  0  0  0
  192.5270  175.8320  146.8040 C   0  0  0  0  0  2  0  0  0  0  0  0
  192.6880  175.7880  148.2860 C   0  0  0  0  0  0  0  0  0  0  0  0
  193.1290  176.9120  148.9710 O   0  0  0  0  0  1  0  0  0  0  0  0
  192.3880  174.7440  148.9190 O   0  0  0  0  0  0  0  0  0  0  0  0
  2 24  1  0  0  0  0
  2 12  1  0  0  0  0
  3 11  1  0  0  0  0
  4  3  1  0  0  0  0
  5 25  1  0  0  0  0
  5 27  1  0  0  0  0
  6  5  2  0  0  0  0
  7 16  1  0  0  0  0
  7 17  1  0  0  0  0
  8 17  2  0  0  0  0
  9 26  1  6  0  0  0
  9 28  1  0  0  0  0
 10  1  1  0  0  0  0
 12  8  1  0  0  0  0
 13 12  1  0  0  0  0
 13 11  1  0  0  0  0
 14 27  1  0  0  0  0
 14 22  1  0  0  0  0
 15  9  1  0  0  0  0
 15 18  1  0  0  0  0
 16 20  1  0  0  0  0
 17 10  1  0  0  0  0
 18  6  1  0  0  0  0
 19 16  2  0  0  0  0
 20 29  1  0  0  0  0
 20  1  1  0  0  0  0
 21 22  1  0  0  0  0
 21  4  1  0  0  0  0
 22 13  2  0  0  0  0
 23 14  1  0  0  0  0
 24  7  2  0  0  0  0
 27  2  2  0  0  0  0
 28  6  1  0  0  0  0
 28 23  2  0  0  0  0
 29 30  1  0  0  0  0
 30 32  2  0  0  0  0
 30 31  1  0  0  0  0
M  END
>  <MODEL>
9

>  <REMARK>
 VINA RESULT:      -9.1      2.467      7.117
  Name = 
  2 active torsions:
  status: ('A' for Active; 'I' for Inactive)
    1  A    between atoms: C_1  and  C_10
    2  A    between atoms: C_10  and  N_24
                            x       y       z     vdW  Elec       q    Type
                         _______ _______ _______ _____ _____    ______ ____

>  <TORSDO>
F 2

$$$$
