=
 OpenBabel10272413143D

 32 37  0  0  1  0  0  0  0  0999 V2000
  186.0880  178.0790  139.7530 C   0  0  1  0  0  3  0  0  0  0  0  0
  186.9740  177.9110  142.0860 C   0  0  1  0  0  3  0  0  0  0  0  0
  186.4180  178.6670  138.3840 C   0  0  0  0  0  2  0  0  0  0  0  0
  187.2350  178.4430  140.6890 C   0  0  1  0  0  3  0  0  0  0  0  0
  188.1200  178.1940  142.9680 N   0  0  1  0  0  0  0  0  0  0  0  0
  184.0040  178.7710  145.9300 C   0  0  0  0  0  3  0  0  0  0  0  0
  185.7180  178.6550  142.5420 C   0  0  1  0  0  3  0  0  0  0  0  0
  186.2940  178.0590  146.2510 C   0  0  0  0  0  3  0  0  0  0  0  0
  186.5160  178.1280  144.8710 C   0  0  0  0  0  0  0  0  0  0  0  0
  188.5760  178.0310  140.1740 C   0  0  0  0  0  0  0  0  0  0  0  0
  187.8530  177.7040  144.3320 C   0  0  0  0  0  2  0  0  0  0  0  0
  189.6110  177.8500  141.0910 O   0  0  0  0  0  0  0  0  0  0  0  0
  188.8030  177.9170  138.8620 C   0  0  0  0  0  3  0  0  0  0  0  0
  184.5790  178.2170  141.7290 N   0  0  0  0  0  2  0  0  0  0  0  0
  184.7820  178.6550  140.3370 C   0  0  2  0  0  3  0  0  0  0  0  0
  185.4610  178.4830  144.0100 C   0  0  0  0  0  0  0  0  0  0  0  0
  189.3430  177.5190  142.4580 C   0  0  2  0  0  3  0  0  0  0  0  0
  187.6950  178.0160  137.8370 C   0  0  0  0  0  2  0  0  0  0  0  0
  185.0410  178.3820  146.7800 C   0  0  0  0  0  3  0  0  0  0  0  0
  184.2150  178.8300  144.5510 C   0  0  0  0  0  3  0  0  0  0  0  0
  181.1630  179.1400  139.9670 C   0  0  1  0  0  3  0  0  0  0  0  0
  179.9830  176.3820  137.8030 O   0  0  0  0  0  0  0  0  0  0  0  0
  180.5440  180.3130  140.3630 F   0  0  0  0  0  0  0  0  0  0  0  0
  182.0110  176.4570  138.9170 N   0  0  0  0  0  2  0  0  0  0  0  0
  183.5680  178.2880  139.4730 C   0  0  1  0  0  3  0  0  0  0  0  0
  180.3400  178.4580  138.8830 C   0  0  0  0  0  2  0  0  0  0  0  0
  182.9480  176.9600  139.9140 C   0  0  0  0  0  2  0  0  0  0  0  0
  182.5590  179.4040  139.4730 C   0  0  0  0  0  0  0  0  0  0  0  0
  182.8250  180.5100  138.7750 C   0  0  0  0  0  2  0  0  0  0  0  0
  180.7600  177.0510  138.5310 C   0  0  0  0  0  0  0  0  0  0  0  0
  189.3550  175.9900  142.6440 C   0  0  0  0  0  2  0  0  0  0  0  0
  190.6160  175.5370  143.0340 O   0  0  0  0  0  1  0  0  0  0  0  0
  1  3  1  6  0  0  0
  1 15  1  0  0  0  0
  1  4  1  0  0  0  0
  2  7  1  0  0  0  0
  2  5  1  0  0  0  0
  4  2  1  0  0  0  0
  5 11  1  0  0  0  0
  6 19  1  0  0  0  0
  7 16  1  0  0  0  0
  8 19  2  0  0  0  0
  9  8  1  0  0  0  0
 10  4  1  0  0  0  0
 10 12  1  0  0  0  0
 11  9  1  0  0  0  0
 12 17  1  0  0  0  0
 13 10  2  0  0  0  0
 14  7  1  0  0  0  0
 15 14  1  0  0  0  0
 16 20  1  0  0  0  0
 16  9  2  0  0  0  0
 17 31  1  0  0  0  0
 17  5  1  0  0  0  0
 18  3  1  0  0  0  0
 18 13  1  0  0  0  0
 20  6  2  0  0  0  0
 21 23  1  0  0  0  0
 22 30  2  0  0  0  0
 24 27  1  0  0  0  0
 25 27  1  0  0  0  0
 25 15  1  0  0  0  0
 26 21  1  0  0  0  0
 28 25  1  0  0  0  0
 28 21  1  0  0  0  0
 29 28  2  0  0  0  0
 30 26  1  0  0  0  0
 30 24  1  0  0  0  0
 31 32  1  0  0  0  0
M  END
>  <MODEL>
1

>  <REMARK>
 VINA RESULT:      -8.8      0.000      0.000
  Name = 
  2 active torsions:
  status: ('A' for Active; 'I' for Inactive)
    1  A    between atoms: C_13  and  C_29
    2  A    between atoms: C_16  and  C_27
                            x       y       z     vdW  Elec       q    Type
                         _______ _______ _______ _____ _____    ______ ____

>  <TORSDO>
F 2

$$$$
=
 OpenBabel10272413143D

 32 37  0  0  1  0  0  0  0  0999 V2000
  187.2860  178.2690  141.3070 C   0  0  1  0  0  3  0  0  0  0  0  0
  188.2610  177.4050  139.1720 C   0  0  1  0  0  3  0  0  0  0  0  0
  186.3280  179.3290  141.8460 C   0  0  0  0  0  2  0  0  0  0  0  0
  187.3100  178.4130  139.7890 C   0  0  1  0  0  3  0  0  0  0  0  0
  188.2230  177.4930  137.7020 N   0  0  1  0  0  0  0  0  0  0  0  0
  193.1070  176.5380  138.8380 C   0  0  0  0  0  3  0  0  0  0  0  0
  189.6330  177.7970  139.7220 C   0  0  1  0  0  3  0  0  0  0  0  0
  191.6120  176.0230  137.0060 C   0  0  0  0  0  3  0  0  0  0  0  0
  190.5440  176.5900  137.7090 C   0  0  0  0  0  0  0  0  0  0  0  0
  185.9540  178.3610  139.1650 C   0  0  0  0  0  0  0  0  0  0  0  0
  189.1690  176.5340  137.1040 C   0  0  0  0  0  2  0  0  0  0  0  0
  185.8570  177.9910  137.8240 O   0  0  0  0  0  0  0  0  0  0  0  0
  184.8670  178.7340  139.8480 C   0  0  0  0  0  3  0  0  0  0  0  0
  189.6630  177.5420  141.1660 N   0  0  0  0  0  2  0  0  0  0  0  0
  188.7210  178.4560  141.8380 C   0  0  2  0  0  3  0  0  0  0  0  0
  190.7510  177.1000  139.0040 C   0  0  0  0  0  0  0  0  0  0  0  0
  186.8590  177.1790  137.2020 C   0  0  2  0  0  3  0  0  0  0  0  0
  184.9110  179.0560  141.3240 C   0  0  0  0  0  2  0  0  0  0  0  0
  192.8920  175.9990  137.5680 C   0  0  0  0  0  3  0  0  0  0  0  0
  192.0420  177.0950  139.5500 C   0  0  0  0  0  3  0  0  0  0  0  0
  190.6180  176.8620  144.5450 C   0  0  1  0  0  3  0  0  0  0  0  0
  188.3540  176.7920  147.4690 O   0  0  0  0  0  0  0  0  0  0  0  0
  191.9820  176.6470  144.4460 F   0  0  0  0  0  0  0  0  0  0  0  0
  187.7180  177.1410  145.2720 N   0  0  0  0  0  2  0  0  0  0  0  0
  188.7880  178.2760  143.3600 C   0  0  1  0  0  3  0  0  0  0  0  0
  190.2100  176.9510  146.0090 C   0  0  0  0  0  2  0  0  0  0  0  0
  187.9060  177.1150  143.8260 C   0  0  0  0  0  2  0  0  0  0  0  0
  190.2130  178.1130  143.8140 C   0  0  0  0  0  0  0  0  0  0  0  0
  191.0110  179.1830  143.8230 C   0  0  0  0  0  2  0  0  0  0  0  0
  188.7250  176.9360  146.2760 C   0  0  0  0  0  0  0  0  0  0  0  0
  186.4680  175.6930  137.2960 C   0  0  0  0  0  2  0  0  0  0  0  0
  185.0870  175.5230  137.1760 O   0  0  0  0  0  1  0  0  0  0  0  0
  1 15  1  0  0  0  0
  1  3  1  1  0  0  0
  2  7  1  0  0  0  0
  2  4  1  0  0  0  0
  4  1  1  0  0  0  0
  5  2  1  0  0  0  0
  6 20  1  0  0  0  0
  7 14  1  0  0  0  0
  8 19  1  0  0  0  0
  8  9  2  0  0  0  0
  9 16  1  0  0  0  0
 10  4  1  0  0  0  0
 10 13  2  0  0  0  0
 11  5  1  0  0  0  0
 11  9  1  0  0  0  0
 12 10  1  0  0  0  0
 13 18  1  0  0  0  0
 14 15  1  0  0  0  0
 15 25  1  0  0  0  0
 16 20  2  0  0  0  0
 16  7  1  0  0  0  0
 17 31  1  0  0  0  0
 17  5  1  0  0  0  0
 17 12  1  0  0  0  0
 18  3  1  0  0  0  0
 19  6  2  0  0  0  0
 21 26  1  0  0  0  0
 23 21  1  0  0  0  0
 24 30  1  0  0  0  0
 25 28  1  0  0  0  0
 25 27  1  0  0  0  0
 26 30  1  0  0  0  0
 27 24  1  0  0  0  0
 28 29  2  0  0  0  0
 28 21  1  0  0  0  0
 30 22  2  0  0  0  0
 32 31  1  0  0  0  0
M  END
>  <MODEL>
2

>  <REMARK>
 VINA RESULT:      -8.8      3.839      8.007
  Name = 
  2 active torsions:
  status: ('A' for Active; 'I' for Inactive)
    1  A    between atoms: C_13  and  C_29
    2  A    between atoms: C_16  and  C_27
                            x       y       z     vdW  Elec       q    Type
                         _______ _______ _______ _____ _____    ______ ____

>  <TORSDO>
F 2

$$$$
=
 OpenBabel10272413143D

 32 37  0  0  1  0  0  0  0  0999 V2000
  186.9910  178.0750  139.3500 C   0  0  1  0  0  3  0  0  0  0  0  0
  187.2850  177.8930  141.8270 C   0  0  1  0  0  3  0  0  0  0  0  0
  187.6830  178.6010  138.0950 C   0  0  0  0  0  2  0  0  0  0  0  0
  187.9120  178.3680  140.5290 C   0  0  1  0  0  3  0  0  0  0  0  0
  188.2100  178.1040  142.9540 N   0  0  1  0  0  0  0  0  0  0  0  0
  183.5750  179.0830  144.8530 C   0  0  0  0  0  3  0  0  0  0  0  0
  186.0240  178.7460  141.9680 C   0  0  1  0  0  3  0  0  0  0  0  0
  185.6570  178.1970  145.7110 C   0  0  0  0  0  3  0  0  0  0  0  0
  186.2030  178.2140  144.4230 C   0  0  0  0  0  0  0  0  0  0  0  0
  189.2970  177.8380  140.3480 C   0  0  0  0  0  0  0  0  0  0  0  0
  187.5890  177.6710  144.2180 C   0  0  0  0  0  2  0  0  0  0  0  0
  190.0670  177.5960  141.4850 O   0  0  0  0  0  0  0  0  0  0  0  0
  189.8160  177.6730  139.1270 C   0  0  0  0  0  3  0  0  0  0  0  0
  185.0760  178.3820  140.9110 N   0  0  0  0  0  2  0  0  0  0  0  0
  185.6370  178.7680  139.6040 C   0  0  2  0  0  3  0  0  0  0  0  0
  185.4140  178.6320  143.3340 C   0  0  0  0  0  0  0  0  0  0  0  0
  189.4570  177.3210  142.7510 C   0  0  2  0  0  3  0  0  0  0  0  0
  188.9940  177.8360  137.8690 C   0  0  0  0  0  2  0  0  0  0  0  0
  184.3460  178.6330  145.9260 C   0  0  0  0  0  3  0  0  0  0  0  0
  184.1100  179.0910  143.5620 C   0  0  0  0  0  3  0  0  0  0  0  0
  182.1240  177.9650  138.9100 C   0  0  1  0  0  3  0  0  0  0  0  0
  182.0630  176.5360  135.4990 O   0  0  0  0  0  0  0  0  0  0  0  0
  181.1020  178.4220  139.7220 F   0  0  0  0  0  0  0  0  0  0  0  0
  183.9390  176.7800  136.8310 N   0  0  0  0  0  2  0  0  0  0  0  0
  184.6350  178.4790  138.4790 C   0  0  1  0  0  3  0  0  0  0  0  0
  181.5950  177.6970  137.5080 C   0  0  0  0  0  2  0  0  0  0  0  0
  184.6410  176.9990  138.0900 C   0  0  0  0  0  2  0  0  0  0  0  0
  183.2580  178.9520  138.8590 C   0  0  0  0  0  0  0  0  0  0  0  0
  183.0060  180.2630  138.8580 C   0  0  0  0  0  2  0  0  0  0  0  0
  182.5350  176.9630  136.5830 C   0  0  0  0  0  0  0  0  0  0  0  0
  189.2970  175.8020  142.9420 C   0  0  0  0  0  2  0  0  0  0  0  0
  190.5350  175.1560  142.9310 O   0  0  0  0  0  1  0  0  0  0  0  0
  1  3  1  6  0  0  0
  1 15  1  0  0  0  0
  1  4  1  0  0  0  0
  2  7  1  0  0  0  0
  2  5  1  0  0  0  0
  4  2  1  0  0  0  0
  5 11  1  0  0  0  0
  6 19  1  0  0  0  0
  7 16  1  0  0  0  0
  8 19  2  0  0  0  0
  9  8  1  0  0  0  0
 10  4  1  0  0  0  0
 10 12  1  0  0  0  0
 11  9  1  0  0  0  0
 12 17  1  0  0  0  0
 13 10  2  0  0  0  0
 14  7  1  0  0  0  0
 15 14  1  0  0  0  0
 16 20  1  0  0  0  0
 16  9  2  0  0  0  0
 17 31  1  0  0  0  0
 17  5  1  0  0  0  0
 18  3  1  0  0  0  0
 18 13  1  0  0  0  0
 20  6  2  0  0  0  0
 21 23  1  0  0  0  0
 22 30  2  0  0  0  0
 24 27  1  0  0  0  0
 25 28  1  0  0  0  0
 25 15  1  0  0  0  0
 26 21  1  0  0  0  0
 27 25  1  0  0  0  0
 28 21  1  0  0  0  0
 29 28  2  0  0  0  0
 30 24  1  0  0  0  0
 30 26  1  0  0  0  0
 32 31  1  0  0  0  0
M  END
>  <MODEL>
3

>  <REMARK>
 VINA RESULT:      -8.7      1.284      1.389
  Name = 
  2 active torsions:
  status: ('A' for Active; 'I' for Inactive)
    1  A    between atoms: C_13  and  C_29
    2  A    between atoms: C_16  and  C_27
                            x       y       z     vdW  Elec       q    Type
                         _______ _______ _______ _____ _____    ______ ____

>  <TORSDO>
F 2

$$$$
=
 OpenBabel10272413143D

 32 37  0  0  1  0  0  0  0  0999 V2000
  186.6970  177.7600  143.1600 C   0  0  1  0  0  3  0  0  0  0  0  0
  185.9080  178.1430  140.8180 C   0  0  1  0  0  3  0  0  0  0  0  0
  186.5480  178.2990  144.5800 C   0  0  0  0  0  2  0  0  0  0  0  0
  185.8010  178.6020  142.2600 C   0  0  1  0  0  3  0  0  0  0  0  0
  184.9800  178.9050  139.9640 N   0  0  1  0  0  0  0  0  0  0  0  0
  189.1430  178.2050  137.0940 C   0  0  0  0  0  3  0  0  0  0  0  0
  187.3660  178.4130  140.4450 C   0  0  1  0  0  3  0  0  0  0  0  0
  186.7650  178.4130  136.6930 C   0  0  0  0  0  3  0  0  0  0  0  0
  186.5270  178.4320  138.0710 C   0  0  0  0  0  0  0  0  0  0  0  0
  184.3820  178.6650  142.7250 C   0  0  0  0  0  0  0  0  0  0  0  0
  185.1070  178.4800  138.5590 C   0  0  0  0  0  2  0  0  0  0  0  0
  183.3910  178.9600  141.7900 O   0  0  0  0  0  0  0  0  0  0  0  0
  184.0750  178.5210  144.0190 C   0  0  0  0  0  3  0  0  0  0  0  0
  188.2330  177.5160  141.2150 N   0  0  0  0  0  2  0  0  0  0  0  0
  188.1470  177.8680  142.6440 C   0  0  2  0  0  3  0  0  0  0  0  0
  187.6030  178.2950  138.9690 C   0  0  0  0  0  0  0  0  0  0  0  0
  183.5760  178.6810  140.3980 C   0  0  2  0  0  3  0  0  0  0  0  0
  185.1000  178.1140  145.0530 C   0  0  0  0  0  2  0  0  0  0  0  0
  188.0700  178.3030  136.2050 C   0  0  0  0  0  3  0  0  0  0  0  0
  188.9110  178.2100  138.4720 C   0  0  0  0  0  3  0  0  0  0  0  0
  191.4200  177.8500  144.3020 C   0  0  1  0  0  3  0  0  0  0  0  0
  192.2990  174.2880  144.7770 O   0  0  0  0  0  0  0  0  0  0  0  0
  191.9650  179.0000  144.8450 F   0  0  0  0  0  0  0  0  0  0  0  0
  190.6730  175.1030  143.3460 N   0  0  0  0  0  2  0  0  0  0  0  0
  189.1070  177.0050  143.4720 C   0  0  1  0  0  3  0  0  0  0  0  0
  191.9890  176.6240  145.0030 C   0  0  0  0  0  2  0  0  0  0  0  0
  189.9950  176.1390  142.5750 C   0  0  0  0  0  2  0  0  0  0  0  0
  189.9200  177.8600  144.4060 C   0  0  0  0  0  0  0  0  0  0  0  0
  189.3250  178.3770  145.4830 C   0  0  0  0  0  2  0  0  0  0  0  0
  191.6770  175.2970  144.3560 C   0  0  0  0  0  0  0  0  0  0  0  0
  183.0160  177.2870  140.0590 C   0  0  0  0  0  2  0  0  0  0  0  0
  181.6370  177.2310  140.2660 O   0  0  0  0  0  1  0  0  0  0  0  0
  1  3  1  1  0  0  0
  2  4  1  0  0  0  0
  3 18  1  0  0  0  0
  4 10  1  0  0  0  0
  4  1  1  0  0  0  0
  5 17  1  0  0  0  0
  5  2  1  0  0  0  0
  6 20  1  0  0  0  0
  7  2  1  0  0  0  0
  7 14  1  0  0  0  0
  8  9  2  0  0  0  0
  9 11  1  0  0  0  0
  9 16  1  0  0  0  0
 10 13  2  0  0  0  0
 11  5  1  0  0  0  0
 12 10  1  0  0  0  0
 13 18  1  0  0  0  0
 14 15  1  0  0  0  0
 15  1  1  0  0  0  0
 15 25  1  0  0  0  0
 16  7  1  0  0  0  0
 17 12  1  0  0  0  0
 19  8  1  0  0  0  0
 19  6  2  0  0  0  0
 20 16  2  0  0  0  0
 21 28  1  0  0  0  0
 21 23  1  0  0  0  0
 21 26  1  0  0  0  0
 24 30  1  0  0  0  0
 25 28  1  0  0  0  0
 27 24  1  0  0  0  0
 27 25  1  0  0  0  0
 28 29  2  0  0  0  0
 30 22  2  0  0  0  0
 30 26  1  0  0  0  0
 31 32  1  0  0  0  0
 31 17  1  0  0  0  0
M  END
>  <MODEL>
4

>  <REMARK>
 VINA RESULT:      -8.3      2.994      8.202
  Name = 
  2 active torsions:
  status: ('A' for Active; 'I' for Inactive)
    1  A    between atoms: C_13  and  C_29
    2  A    between atoms: C_16  and  C_27
                            x       y       z     vdW  Elec       q    Type
                         _______ _______ _______ _____ _____    ______ ____

>  <TORSDO>
F 2

$$$$
=
 OpenBabel10272413143D

 32 37  0  0  1  0  0  0  0  0999 V2000
  186.0400  178.5960  142.6750 C   0  0  1  0  0  3  0  0  0  0  0  0
  188.4000  177.9500  142.1560 C   0  0  1  0  0  3  0  0  0  0  0  0
  184.9010  178.2980  143.6460 C   0  0  0  0  0  2  0  0  0  0  0  0
  187.2240  177.7300  143.0890 C   0  0  1  0  0  3  0  0  0  0  0  0
  189.5680  177.1730  142.6060 N   0  0  1  0  0  0  0  0  0  0  0  0
  189.7330  176.9700  137.5080 C   0  0  0  0  0  3  0  0  0  0  0  0
  187.8950  177.4690  140.7950 C   0  0  1  0  0  3  0  0  0  0  0  0
  191.3540  176.9640  139.3050 C   0  0  0  0  0  3  0  0  0  0  0  0
  190.3330  177.1820  140.2360 C   0  0  0  0  0  0  0  0  0  0  0  0
  187.6080  177.8940  144.5240 C   0  0  0  0  0  0  0  0  0  0  0  0
  190.7000  177.3640  141.6820 C   0  0  0  0  0  2  0  0  0  0  0  0
  188.9110  177.5710  144.9020 O   0  0  0  0  0  0  0  0  0  0  0  0
  186.7070  178.2650  145.4390 C   0  0  0  0  0  3  0  0  0  0  0  0
  186.8390  178.3720  140.3280 N   0  0  0  0  0  2  0  0  0  0  0  0
  185.6710  178.2530  141.2180 C   0  0  2  0  0  3  0  0  0  0  0  0
  189.0050  177.3350  139.7960 C   0  0  0  0  0  0  0  0  0  0  0  0
  189.9900  177.6130  143.9620 C   0  0  2  0  0  3  0  0  0  0  0  0
  185.3110  178.7100  145.0660 C   0  0  0  0  0  2  0  0  0  0  0  0
  191.0540  176.8560  137.9440 C   0  0  0  0  0  3  0  0  0  0  0  0
  188.7100  177.1990  138.4320 C   0  0  0  0  0  3  0  0  0  0  0  0
  182.3770  178.1380  139.6040 C   0  0  1  0  0  3  0  0  0  0  0  0
  181.7950  181.5260  138.2390 O   0  0  0  0  0  0  0  0  0  0  0  0
  181.5130  177.0740  139.7940 F   0  0  0  0  0  0  0  0  0  0  0  0
  183.8370  180.6690  138.9110 N   0  0  0  0  0  2  0  0  0  0  0  0
  184.5130  179.1220  140.7090 C   0  0  1  0  0  3  0  0  0  0  0  0
  181.5900  179.3870  139.2320 C   0  0  0  0  0  2  0  0  0  0  0  0
  184.7620  179.6030  139.2780 C   0  0  0  0  0  2  0  0  0  0  0  0
  183.2040  178.3900  140.8340 C   0  0  0  0  0  0  0  0  0  0  0  0
  182.6660  178.2380  142.0470 C   0  0  0  0  0  2  0  0  0  0  0  0
  182.4120  180.5590  138.7540 C   0  0  0  0  0  0  0  0  0  0  0  0
  190.6740  178.9920  144.0040 C   0  0  0  0  0  2  0  0  0  0  0  0
  192.0200  178.8790  144.3550 O   0  0  0  0  0  1  0  0  0  0  0  0
  1  4  1  0  0  0  0
  1  3  1  1  0  0  0
  2  5  1  0  0  0  0
  2  4  1  0  0  0  0
  3 18  1  0  0  0  0
  4 10  1  0  0  0  0
  5 17  1  0  0  0  0
  6 19  2  0  0  0  0
  6 20  1  0  0  0  0
  7  2  1  0  0  0  0
  8  9  2  0  0  0  0
  9 11  1  0  0  0  0
 10 12  1  0  0  0  0
 10 13  2  0  0  0  0
 11  5  1  0  0  0  0
 14  7  1  0  0  0  0
 14 15  1  0  0  0  0
 15  1  1  0  0  0  0
 16  9  1  0  0  0  0
 16  7  1  0  0  0  0
 17 31  1  0  0  0  0
 17 12  1  0  0  0  0
 18 13  1  0  0  0  0
 19  8  1  0  0  0  0
 20 16  2  0  0  0  0
 21 23  1  0  0  0  0
 21 28  1  0  0  0  0
 22 30  2  0  0  0  0
 24 27  1  0  0  0  0
 25 28  1  0  0  0  0
 25 15  1  0  0  0  0
 26 21  1  0  0  0  0
 27 25  1  0  0  0  0
 28 29  2  0  0  0  0
 30 24  1  0  0  0  0
 30 26  1  0  0  0  0
 31 32  1  0  0  0  0
M  END
>  <MODEL>
5

>  <REMARK>
 VINA RESULT:      -7.9      2.148      4.996
  Name = 
  2 active torsions:
  status: ('A' for Active; 'I' for Inactive)
    1  A    between atoms: C_13  and  C_29
    2  A    between atoms: C_16  and  C_27
                            x       y       z     vdW  Elec       q    Type
                         _______ _______ _______ _____ _____    ______ ____

>  <TORSDO>
F 2

$$$$
=
 OpenBabel10272413143D

 32 37  0  0  1  0  0  0  0  0999 V2000
  188.4240  177.7560  141.2300 C   0  0  1  0  0  3  0  0  0  0  0  0
  188.9050  177.2040  138.8390 C   0  0  1  0  0  3  0  0  0  0  0  0
  187.7360  178.8000  142.1060 C   0  0  0  0  0  2  0  0  0  0  0  0
  188.2280  178.1830  139.7800 C   0  0  1  0  0  3  0  0  0  0  0  0
  188.6460  177.5740  137.4360 N   0  0  1  0  0  0  0  0  0  0  0  0
  193.4470  175.8400  137.4790 C   0  0  0  0  0  3  0  0  0  0  0  0
  190.3900  177.3160  139.1850 C   0  0  1  0  0  3  0  0  0  0  0  0
  191.6190  175.8680  135.8930 C   0  0  0  0  0  3  0  0  0  0  0  0
  190.7750  176.4150  136.8650 C   0  0  0  0  0  0  0  0  0  0  0  0
  186.7980  178.4130  139.4150 C   0  0  0  0  0  0  0  0  0  0  0  0
  189.3290  176.6400  136.5230 C   0  0  0  0  0  2  0  0  0  0  0  0
  186.4330  178.3210  138.0730 O   0  0  0  0  0  0  0  0  0  0  0  0
  185.9030  178.7780  140.3400 C   0  0  0  0  0  3  0  0  0  0  0  0
  190.6100  176.7890  140.5350 N   0  0  0  0  0  2  0  0  0  0  0  0
  189.9370  177.6630  141.5120 C   0  0  2  0  0  3  0  0  0  0  0  0
  191.2600  176.6390  138.1670 C   0  0  0  0  0  0  0  0  0  0  0  0
  187.1890  177.5280  137.1500 C   0  0  2  0  0  3  0  0  0  0  0  0
  186.2290  178.8050  141.8160 C   0  0  0  0  0  2  0  0  0  0  0  0
  192.9530  175.5830  136.1980 C   0  0  0  0  0  3  0  0  0  0  0  0
  192.6060  176.3750  138.4580 C   0  0  0  0  0  3  0  0  0  0  0  0
  188.6040  177.6400  144.9300 C   0  0  1  0  0  3  0  0  0  0  0  0
  191.4800  176.9150  147.1390 O   0  0  0  0  0  0  0  0  0  0  0  0
  187.2420  177.6270  145.1780 F   0  0  0  0  0  0  0  0  0  0  0  0
  191.6070  177.6160  144.9370 N   0  0  0  0  0  2  0  0  0  0  0  0
  190.2170  177.1900  142.9440 C   0  0  1  0  0  3  0  0  0  0  0  0
  189.3520  177.0360  146.1100 C   0  0  0  0  0  2  0  0  0  0  0  0
  191.0810  178.1960  143.7080 C   0  0  0  0  0  2  0  0  0  0  0  0
  188.9310  176.8930  143.6670 C   0  0  0  0  0  0  0  0  0  0  0  0
  188.2540  175.7880  143.3460 C   0  0  0  0  0  2  0  0  0  0  0  0
  190.8510  177.2070  146.0900 C   0  0  0  0  0  0  0  0  0  0  0  0
  186.5970  176.1090  137.0660 C   0  0  0  0  0  2  0  0  0  0  0  0
  185.2070  176.1310  137.1940 O   0  0  0  0  0  1  0  0  0  0  0  0
  1 15  1  0  0  0  0
  1  3  1  1  0  0  0
  2  7  1  0  0  0  0
  2  4  1  0  0  0  0
  4  1  1  0  0  0  0
  5  2  1  0  0  0  0
  6 20  1  0  0  0  0
  7 14  1  0  0  0  0
  8 19  1  0  0  0  0
  8  9  2  0  0  0  0
  9 16  1  0  0  0  0
 10  4  1  0  0  0  0
 10 13  2  0  0  0  0
 11  9  1  0  0  0  0
 11  5  1  0  0  0  0
 12 10  1  0  0  0  0
 13 18  1  0  0  0  0
 14 15  1  0  0  0  0
 15 25  1  0  0  0  0
 16 20  2  0  0  0  0
 16  7  1  0  0  0  0
 17  5  1  0  0  0  0
 17 12  1  0  0  0  0
 18  3  1  0  0  0  0
 19  6  2  0  0  0  0
 21 23  1  0  0  0  0
 21 26  1  0  0  0  0
 24 30  1  0  0  0  0
 25 28  1  0  0  0  0
 25 27  1  0  0  0  0
 27 24  1  0  0  0  0
 28 21  1  0  0  0  0
 29 28  2  0  0  0  0
 30 26  1  0  0  0  0
 30 22  2  0  0  0  0
 31 17  1  0  0  0  0
 31 32  1  0  0  0  0
M  END
>  <MODEL>
6

>  <REMARK>
 VINA RESULT:      -7.8      3.765      8.418
  Name = 
  2 active torsions:
  status: ('A' for Active; 'I' for Inactive)
    1  A    between atoms: C_13  and  C_29
    2  A    between atoms: C_16  and  C_27
                            x       y       z     vdW  Elec       q    Type
                         _______ _______ _______ _____ _____    ______ ____

>  <TORSDO>
F 2

$$$$
=
 OpenBabel10272413143D

 32 37  0  0  1  0  0  0  0  0999 V2000
  190.1600  176.9610  139.1640 C   0  0  1  0  0  3  0  0  0  0  0  0
  189.6070  177.3040  141.5790 C   0  0  1  0  0  3  0  0  0  0  0  0
  191.2020  177.3240  138.1090 C   0  0  0  0  0  2  0  0  0  0  0  0
  190.6050  177.5990  140.4750 C   0  0  1  0  0  3  0  0  0  0  0  0
  190.0790  177.8530  142.8620 N   0  0  1  0  0  0  0  0  0  0  0  0
  185.0210  178.5380  142.9160 C   0  0  0  0  0  3  0  0  0  0  0  0
  188.3200  177.9880  141.1150 C   0  0  1  0  0  3  0  0  0  0  0  0
  186.7410  178.1280  144.5680 C   0  0  0  0  0  3  0  0  0  0  0  0
  187.6890  177.9700  143.5520 C   0  0  0  0  0  0  0  0  0  0  0  0
  192.0000  177.2380  140.8690 C   0  0  0  0  0  0  0  0  0  0  0  0
  189.0950  177.5920  143.9270 C   0  0  0  0  0  2  0  0  0  0  0  0
  192.3530  177.3280  142.2150 O   0  0  0  0  0  0  0  0  0  0  0  0
  192.9130  176.9130  139.9480 C   0  0  0  0  0  3  0  0  0  0  0  0
  187.8130  177.3000  139.9240 N   0  0  0  0  0  2  0  0  0  0  0  0
  188.7590  177.4990  138.8110 C   0  0  2  0  0  3  0  0  0  0  0  0
  187.2920  178.0570  142.2050 C   0  0  0  0  0  0  0  0  0  0  0  0
  191.3680  177.2230  143.2500 C   0  0  2  0  0  3  0  0  0  0  0  0
  192.5570  176.7160  138.4910 C   0  0  0  0  0  2  0  0  0  0  0  0
  185.4100  178.4140  144.2520 C   0  0  0  0  0  3  0  0  0  0  0  0
  185.9610  178.3700  141.8960 C   0  0  0  0  0  3  0  0  0  0  0  0
  185.6930  176.8140  136.9140 C   0  0  1  0  0  3  0  0  0  0  0  0
  186.5480  174.1090  134.5410 O   0  0  0  0  0  0  0  0  0  0  0  0
  184.6010  177.6620  136.9700 F   0  0  0  0  0  0  0  0  0  0  0  0
  187.7720  174.7070  136.4120 N   0  0  0  0  0  2  0  0  0  0  0  0
  188.2190  176.8640  137.5230 C   0  0  1  0  0  3  0  0  0  0  0  0
  185.6820  176.0380  135.6040 C   0  0  0  0  0  2  0  0  0  0  0  0
  187.9770  175.3630  137.6980 C   0  0  0  0  0  2  0  0  0  0  0  0
  186.9800  177.5790  137.0560 C   0  0  0  0  0  0  0  0  0  0  0  0
  187.1060  178.7880  136.5040 C   0  0  0  0  0  2  0  0  0  0  0  0
  186.6700  174.9010  135.5100 C   0  0  0  0  0  0  0  0  0  0  0  0
  191.2510  175.7620  143.7210 C   0  0  0  0  0  2  0  0  0  0  0  0
  191.9820  175.5460  144.8910 O   0  0  0  0  0  1  0  0  0  0  0  0
  1  3  1  6  0  0  0
  1  4  1  0  0  0  0
  2  5  1  0  0  0  0
  3 18  1  0  0  0  0
  4 10  1  0  0  0  0
  4  2  1  0  0  0  0
  5 17  1  0  0  0  0
  5 11  1  0  0  0  0
  6 19  1  0  0  0  0
  7  2  1  0  0  0  0
  7 16  1  0  0  0  0
  9 11  1  0  0  0  0
  9  8  1  0  0  0  0
 10 12  1  0  0  0  0
 12 17  1  0  0  0  0
 13 10  2  0  0  0  0
 14  7  1  0  0  0  0
 15  1  1  0  0  0  0
 15 14  1  0  0  0  0
 16  9  2  0  0  0  0
 17 31  1  0  0  0  0
 18 13  1  0  0  0  0
 19  8  2  0  0  0  0
 20 16  1  0  0  0  0
 20  6  2  0  0  0  0
 21 23  1  0  0  0  0
 21 28  1  0  0  0  0
 22 30  2  0  0  0  0
 24 27  1  0  0  0  0
 25 27  1  0  0  0  0
 25 15  1  0  0  0  0
 26 21  1  0  0  0  0
 28 25  1  0  0  0  0
 29 28  2  0  0  0  0
 30 26  1  0  0  0  0
 30 24  1  0  0  0  0
 31 32  1  0  0  0  0
M  END
>  <MODEL>
7

>  <REMARK>
 VINA RESULT:      -7.5      3.331      4.381
  Name = 
  2 active torsions:
  status: ('A' for Active; 'I' for Inactive)
    1  A    between atoms: C_13  and  C_29
    2  A    between atoms: C_16  and  C_27
                            x       y       z     vdW  Elec       q    Type
                         _______ _______ _______ _____ _____    ______ ____

>  <TORSDO>
F 2

$$$$
=
 OpenBabel10272413143D

 32 37  0  0  1  0  0  0  0  0999 V2000
  184.0880  178.5770  142.5820 C   0  0  1  0  0  3  0  0  0  0  0  0
  183.4860  178.0030  140.2230 C   0  0  1  0  0  3  0  0  0  0  0  0
  183.6450  179.4470  143.7550 C   0  0  0  0  0  2  0  0  0  0  0  0
  183.1040  178.8190  141.4430 C   0  0  1  0  0  3  0  0  0  0  0  0
  182.4890  178.1770  139.1520 N   0  0  1  0  0  0  0  0  0  0  0  0
  186.9770  177.8790  136.7390 C   0  0  0  0  0  3  0  0  0  0  0  0
  184.8520  178.5560  139.8140 C   0  0  1  0  0  3  0  0  0  0  0  0
  184.6890  177.2680  136.2430 C   0  0  0  0  0  3  0  0  0  0  0  0
  184.3040  177.6270  137.5390 C   0  0  0  0  0  0  0  0  0  0  0  0
  181.6770  178.6080  141.8340 C   0  0  0  0  0  0  0  0  0  0  0  0
  182.8770  177.4080  137.9570 C   0  0  0  0  0  2  0  0  0  0  0  0
  180.7520  178.3140  140.8330 O   0  0  0  0  0  0  0  0  0  0  0  0
  181.2800  178.7740  143.1000 C   0  0  0  0  0  3  0  0  0  0  0  0
  185.8360  178.2170  140.8460 N   0  0  0  0  0  2  0  0  0  0  0  0
  185.5040  178.9370  142.0880 C   0  0  2  0  0  3  0  0  0  0  0  0
  185.2720  178.0770  138.4560 C   0  0  0  0  0  0  0  0  0  0  0  0
  181.1560  177.7000  139.6050 C   0  0  2  0  0  3  0  0  0  0  0  0
  182.2560  179.0040  144.2320 C   0  0  0  0  0  2  0  0  0  0  0  0
  186.0220  177.3960  135.8420 C   0  0  0  0  0  3  0  0  0  0  0  0
  186.6020  178.2270  138.0390 C   0  0  0  0  0  3  0  0  0  0  0  0
  188.2290  176.6820  143.0630 C   0  0  1  0  0  3  0  0  0  0  0  0
  188.7450  177.2180  146.6860 O   0  0  0  0  0  0  0  0  0  0  0  0
  189.0080  176.0360  142.1200 F   0  0  0  0  0  0  0  0  0  0  0  0
  186.8820  177.8610  145.4740 N   0  0  0  0  0  2  0  0  0  0  0  0
  186.5620  178.6730  143.1660 C   0  0  1  0  0  3  0  0  0  0  0  0
  189.0030  176.8280  144.3650 C   0  0  0  0  0  2  0  0  0  0  0  0
  185.9910  177.8450  144.3200 C   0  0  0  0  0  2  0  0  0  0  0  0
  187.7830  178.0290  142.5660 C   0  0  0  0  0  0  0  0  0  0  0  0
  188.6050  178.7770  141.8270 C   0  0  0  0  0  2  0  0  0  0  0  0
  188.1980  177.2890  145.5560 C   0  0  0  0  0  0  0  0  0  0  0  0
  181.0280  176.1690  139.7130 C   0  0  0  0  0  2  0  0  0  0  0  0
  179.9820  175.8070  140.5650 O   0  0  0  0  0  1  0  0  0  0  0  0
  1  3  1  1  0  0  0
  2  4  1  0  0  0  0
  3 18  1  0  0  0  0
  4 10  1  0  0  0  0
  4  1  1  0  0  0  0
  5 17  1  0  0  0  0
  5  2  1  0  0  0  0
  6 20  1  0  0  0  0
  7  2  1  0  0  0  0
  7 14  1  0  0  0  0
  8  9  2  0  0  0  0
  9 11  1  0  0  0  0
  9 16  1  0  0  0  0
 10 13  2  0  0  0  0
 11  5  1  0  0  0  0
 12 10  1  0  0  0  0
 13 18  1  0  0  0  0
 14 15  1  0  0  0  0
 15  1  1  0  0  0  0
 15 25  1  0  0  0  0
 16  7  1  0  0  0  0
 17 31  1  0  0  0  0
 17 12  1  0  0  0  0
 19  8  1  0  0  0  0
 19  6  2  0  0  0  0
 20 16  2  0  0  0  0
 21 26  1  0  0  0  0
 23 21  1  0  0  0  0
 24 30  1  0  0  0  0
 25 27  1  0  0  0  0
 26 30  1  0  0  0  0
 27 24  1  0  0  0  0
 28 21  1  0  0  0  0
 28 25  1  0  0  0  0
 29 28  2  0  0  0  0
 30 22  2  0  0  0  0
 31 32  1  0  0  0  0
M  END
>  <MODEL>
8

>  <REMARK>
 VINA RESULT:      -7.5      2.675      7.802
  Name = 
  2 active torsions:
  status: ('A' for Active; 'I' for Inactive)
    1  A    between atoms: C_13  and  C_29
    2  A    between atoms: C_16  and  C_27
                            x       y       z     vdW  Elec       q    Type
                         _______ _______ _______ _____ _____    ______ ____

>  <TORSDO>
F 2

$$$$
=
 OpenBabel10272413143D

 32 37  0  0  1  0  0  0  0  0999 V2000
  186.5040  177.8850  138.4970 C   0  0  1  0  0  3  0  0  0  0  0  0
  186.8560  178.0060  140.9700 C   0  0  1  0  0  3  0  0  0  0  0  0
  187.0850  178.3830  137.1770 C   0  0  0  0  0  2  0  0  0  0  0  0
  187.3810  178.4380  139.6140 C   0  0  1  0  0  3  0  0  0  0  0  0
  187.7510  178.4740  142.0430 N   0  0  1  0  0  0  0  0  0  0  0  0
  183.0440  178.8980  143.9730 C   0  0  0  0  0  3  0  0  0  0  0  0
  185.4760  178.6590  141.0650 C   0  0  1  0  0  3  0  0  0  0  0  0
  185.2530  178.4430  144.8520 C   0  0  0  0  0  3  0  0  0  0  0  0
  185.7710  178.4150  143.5530 C   0  0  0  0  0  0  0  0  0  0  0  0
  188.8310  178.1180  139.4460 C   0  0  0  0  0  0  0  0  0  0  0  0
  187.2240  178.0800  143.3620 C   0  0  0  0  0  2  0  0  0  0  0  0
  189.6450  178.1170  140.5780 O   0  0  0  0  0  0  0  0  0  0  0  0
  189.3530  177.9130  138.2320 C   0  0  0  0  0  3  0  0  0  0  0  0
  184.5850  178.0440  140.0770 N   0  0  0  0  0  2  0  0  0  0  0  0
  185.0600  178.3780  138.7220 C   0  0  2  0  0  3  0  0  0  0  0  0
  184.9120  178.5900  142.4530 C   0  0  0  0  0  0  0  0  0  0  0  0
  189.1040  177.8810  141.8820 C   0  0  2  0  0  3  0  0  0  0  0  0
  188.4980  177.8160  136.9890 C   0  0  0  0  0  2  0  0  0  0  0  0
  183.8920  178.6870  145.0620 C   0  0  0  0  0  3  0  0  0  0  0  0
  183.5540  178.8590  142.6730 C   0  0  0  0  0  3  0  0  0  0  0  0
  181.7460  176.8820  138.2270 C   0  0  1  0  0  3  0  0  0  0  0  0
  181.8670  175.2090  134.9300 O   0  0  0  0  0  0  0  0  0  0  0  0
  180.6760  177.2010  139.0450 F   0  0  0  0  0  0  0  0  0  0  0  0
  183.6970  175.9010  136.1660 N   0  0  0  0  0  2  0  0  0  0  0  0
  184.1010  177.8220  137.6610 C   0  0  1  0  0  3  0  0  0  0  0  0
  181.2400  176.4130  136.8700 C   0  0  0  0  0  2  0  0  0  0  0  0
  184.3780  176.3430  137.3780 C   0  0  0  0  0  2  0  0  0  0  0  0
  182.6700  178.0570  138.0610 C   0  0  0  0  0  0  0  0  0  0  0  0
  182.1750  179.2930  137.9780 C   0  0  0  0  0  2  0  0  0  0  0  0
  182.2780  175.7990  135.9630 C   0  0  0  0  0  0  0  0  0  0  0  0
  189.1920  176.3830  142.2260 C   0  0  0  0  0  2  0  0  0  0  0  0
  190.3840  175.8250  141.7620 O   0  0  0  0  0  1  0  0  0  0  0  0
  1  3  1  6  0  0  0
  1 15  1  0  0  0  0
  1  4  1  0  0  0  0
  2  7  1  0  0  0  0
  2  5  1  0  0  0  0
  4  2  1  0  0  0  0
  5 11  1  0  0  0  0
  6 19  1  0  0  0  0
  7 16  1  0  0  0  0
  8 19  2  0  0  0  0
  9  8  1  0  0  0  0
 10  4  1  0  0  0  0
 10 12  1  0  0  0  0
 11  9  1  0  0  0  0
 12 17  1  0  0  0  0
 13 10  2  0  0  0  0
 14  7  1  0  0  0  0
 15 14  1  0  0  0  0
 16 20  1  0  0  0  0
 16  9  2  0  0  0  0
 17  5  1  0  0  0  0
 17 31  1  0  0  0  0
 18  3  1  0  0  0  0
 18 13  1  0  0  0  0
 20  6  2  0  0  0  0
 21 23  1  0  0  0  0
 22 30  2  0  0  0  0
 24 27  1  0  0  0  0
 25 28  1  0  0  0  0
 25 15  1  0  0  0  0
 26 21  1  0  0  0  0
 27 25  1  0  0  0  0
 28 21  1  0  0  0  0
 29 28  2  0  0  0  0
 30 24  1  0  0  0  0
 30 26  1  0  0  0  0
 32 31  1  0  0  0  0
M  END
>  <MODEL>
9

>  <REMARK>
 VINA RESULT:      -7.5      1.704      1.984
  Name = 
  2 active torsions:
  status: ('A' for Active; 'I' for Inactive)
    1  A    between atoms: C_13  and  C_29
    2  A    between atoms: C_16  and  C_27
                            x       y       z     vdW  Elec       q    Type
                         _______ _______ _______ _____ _____    ______ ____

>  <TORSDO>
F 2

$$$$
