=
 OpenBabel10272402073D

 32 35  0  0  1  0  0  0  0  0999 V2000
  189.3240  178.4680  144.0480 C   0  0  1  0  0  3  0  0  0  0  0  0
  188.1410  177.7120  141.8500 C   0  0  0  0  0  2  0  0  0  0  0  0
  190.6620  178.8790  144.6860 C   0  0  0  0  0  2  0  0  0  0  0  0
  189.3870  178.2990  142.5060 C   0  0  2  0  0  3  0  0  0  0  0  0
  190.6440  176.3190  138.7310 C   0  0  0  0  0  2  0  0  0  0  0  0
  188.4360  177.3300  138.9220 N   0  0  1  0  0  0  0  0  0  0  0  0
  190.7010  177.7170  142.0400 C   0  0  0  0  0  0  0  0  0  0  0  0
  189.6400  177.2670  138.1080 C   0  0  0  0  0  2  0  0  0  0  0  0
  190.7590  176.5670  141.0780 C   0  0  0  0  0  2  0  0  0  0  0  0
  191.8230  178.1750  142.6120 C   0  0  0  0  0  3  0  0  0  0  0  0
  187.5960  178.6760  140.8080 C   0  0  0  0  0  2  0  0  0  0  0  0
  191.3580  176.9770  139.8150 N   0  0  0  0  0  0  0  0  0  0  0  0
  191.7260  179.2510  143.6510 C   0  0  0  0  0  2  0  0  0  0  0  0
  188.4150  178.6650  139.5210 C   0  0  0  0  0  2  0  0  0  0  0  0
  187.2560  175.7760  137.4170 C   0  0  0  0  0  2  0  0  0  0  0  0
  186.8500  177.3650  135.5880 C   0  0  0  0  0  1  0  0  0  0  0  0
  187.3200  177.1760  137.9960 C   0  0  2  0  0  3  0  0  0  0  0  0
  187.8600  176.8940  136.6080 C   0  0  1  0  0  3  0  0  0  0  0  0
  192.7730  176.5740  139.7820 C   0  0  0  0  0  2  0  0  0  0  0  0
  193.3020  176.3070  138.3670 C   0  0  0  0  0  1  0  0  0  0  0  0
  189.6240  176.3610  145.1390 O   0  0  0  0  0  1  0  0  0  0  0  0
  188.6630  177.3270  144.8420 C   0  0  1  0  0  3  0  0  0  0  0  0
  187.9350  177.7720  146.1260 C   0  0  2  0  0  3  0  0  0  0  0  0
  188.0540  176.1420  147.8690 O   0  0  0  0  0  1  0  0  0  0  0  0
  188.5730  177.1580  147.3340 C   0  0  0  0  0  0  0  0  0  0  0  0
  189.7470  177.6840  147.8550 O   0  0  0  0  0  0  0  0  0  0  0  0
  186.4490  177.4100  146.0840 C   0  0  0  0  0  2  0  0  0  0  0  0
  185.7990  179.5610  147.2110 O   0  0  0  0  0  1  0  0  0  0  0  0
  184.0840  178.4510  145.8930 C   0  0  0  0  0  2  0  0  0  0  0  0
  185.5540  178.6480  146.1850 C   0  0  2  0  0  0  0  0  0  0  0  0
  185.1830  178.4410  143.6820 C   0  0  0  0  0  1  0  0  0  0  0  0
  184.9470  179.2630  144.9330 C   0  0  1  0  0  3  0  0  0  0  0  0
  1  3  1  0  0  0  0
  1 22  1  1  0  0  0
  4  2  1  1  0  0  0
  4  1  1  0  0  0  0
  5 12  1  0  0  0  0
  6  8  1  6  0  0  0
  6 14  1  0  0  0  0
  7  4  1  0  0  0  0
  7 10  2  0  0  0  0
  8  5  1  0  0  0  0
  9  7  1  0  0  0  0
 10 13  1  0  0  0  0
 11  2  1  0  0  0  0
 12  9  1  0  0  0  0
 13  3  1  0  0  0  0
 14 11  1  0  0  0  0
 17 15  1  1  0  0  0
 17  6  1  0  0  0  0
 18 16  1  6  0  0  0
 18 15  1  0  0  0  0
 18 17  1  0  0  0  0
 19 12  1  0  0  0  0
 20 19  1  0  0  0  0
 22 21  1  1  0  0  0
 22 23  1  0  0  0  0
 23 27  1  6  0  0  0
 23 25  1  0  0  0  0
 25 26  2  0  0  0  0
 25 24  1  0  0  0  0
 27 30  1  0  0  0  0
 29 30  1  0  0  0  0
 30 28  1  1  0  0  0
 32 31  1  6  0  0  0
 32 29  1  0  0  0  0
 32 30  1  0  0  0  0
M  END
>  <MODEL>
1

>  <REMARK>
 VINA RESULT:      -7.4      0.000      0.000
  Name = 
  7 active torsions:
  status: ('A' for Active; 'I' for Inactive)
    1  A    between atoms: C_1  and  C_27
    2  A    between atoms: N_10  and  C_12
    3  A    between atoms: C_13  and  N_29
    4  A    between atoms: C_15  and  C_20
    5  A    between atoms: C_16  and  C_20
    6  A    between atoms: C_16  and  C_22
    7  A    between atoms: C_16  and  C_27
                            x       y       z     vdW  Elec       q    Type
                         _______ _______ _______ _____ _____    ______ ____

>  <TORSDO>
F 7

$$$$
=
 OpenBabel10272402073D

 32 35  0  0  1  0  0  0  0  0999 V2000
  190.1800  177.4550  142.0960 C   0  0  1  0  0  3  0  0  0  0  0  0
  188.5450  177.3600  140.0660 C   0  0  0  0  0  2  0  0  0  0  0  0
  191.6550  177.4990  142.5300 C   0  0  0  0  0  2  0  0  0  0  0  0
  189.9690  177.5860  140.5640 C   0  0  2  0  0  3  0  0  0  0  0  0
  190.2050  176.2090  136.3450 C   0  0  0  0  0  2  0  0  0  0  0  0
  188.3020  177.5200  137.1130 N   0  0  1  0  0  0  0  0  0  0  0  0
  191.0520  176.8940  139.7690 C   0  0  0  0  0  0  0  0  0  0  0  0
  189.3290  177.4180  136.0880 C   0  0  0  0  0  2  0  0  0  0  0  0
  190.7280  175.9650  138.6360 C   0  0  0  0  0  2  0  0  0  0  0  0
  192.3170  177.0340  140.1860 C   0  0  0  0  0  3  0  0  0  0  0  0
  188.0500  178.5890  139.3200 C   0  0  0  0  0  2  0  0  0  0  0  0
  191.1960  176.5090  137.3690 N   0  0  0  0  0  0  0  0  0  0  0  0
  192.6000  177.8830  141.3890 C   0  0  0  0  0  2  0  0  0  0  0  0
  188.6420  178.6940  137.9180 C   0  0  0  0  0  2  0  0  0  0  0  0
  185.9680  176.7770  136.8450 C   0  0  0  0  0  2  0  0  0  0  0  0
  185.8690  176.9420  134.3970 C   0  0  0  0  0  1  0  0  0  0  0  0
  187.0490  177.7440  136.4020 C   0  0  2  0  0  3  0  0  0  0  0  0
  186.7240  176.5200  135.5690 C   0  0  1  0  0  3  0  0  0  0  0  0
  192.4780  175.8870  137.0030 C   0  0  0  0  0  2  0  0  0  0  0  0
  192.5170  174.3720  137.2430 C   0  0  0  0  0  1  0  0  0  0  0  0
  190.2900  175.2140  142.9270 O   0  0  0  0  0  1  0  0  0  0  0  0
  189.4330  176.3080  142.8000 C   0  0  1  0  0  3  0  0  0  0  0  0
  188.8290  176.6770  144.1700 C   0  0  2  0  0  3  0  0  0  0  0  0
  186.6370  177.0810  145.0310 O   0  0  0  0  0  1  0  0  0  0  0  0
  187.3940  177.0790  144.0230 C   0  0  0  0  0  0  0  0  0  0  0  0
  186.8970  177.4750  142.7900 O   0  0  0  0  0  0  0  0  0  0  0  0
  189.6160  177.8010  144.8470 C   0  0  0  0  0  2  0  0  0  0  0  0
  191.7920  177.1980  145.9530 O   0  0  0  0  0  1  0  0  0  0  0  0
  189.7800  176.1850  146.8660 C   0  0  0  0  0  2  0  0  0  0  0  0
  190.4040  177.3010  146.0600 C   0  0  2  0  0  0  0  0  0  0  0  0
  188.5320  178.2160  147.5100 C   0  0  0  0  0  1  0  0  0  0  0  0
  189.9070  177.5800  147.4710 C   0  0  1  0  0  3  0  0  0  0  0  0
  1  3  1  0  0  0  0
  1 22  1  6  0  0  0
  4  2  1  1  0  0  0
  4  1  1  0  0  0  0
  5 12  1  0  0  0  0
  6  8  1  6  0  0  0
  6 14  1  0  0  0  0
  7 10  2  0  0  0  0
  7  4  1  0  0  0  0
  8  5  1  0  0  0  0
  9  7  1  0  0  0  0
 10 13  1  0  0  0  0
 11  2  1  0  0  0  0
 12  9  1  0  0  0  0
 13  3  1  0  0  0  0
 14 11  1  0  0  0  0
 17 15  1  1  0  0  0
 17  6  1  0  0  0  0
 18 16  1  6  0  0  0
 18 17  1  0  0  0  0
 18 15  1  0  0  0  0
 19 20  1  0  0  0  0
 19 12  1  0  0  0  0
 22 21  1  1  0  0  0
 22 23  1  0  0  0  0
 23 27  1  6  0  0  0
 25 23  1  0  0  0  0
 25 24  1  0  0  0  0
 26 25  2  0  0  0  0
 27 30  1  0  0  0  0
 29 32  1  0  0  0  0
 30 28  1  6  0  0  0
 30 29  1  0  0  0  0
 30 32  1  0  0  0  0
 32 31  1  6  0  0  0
M  END
>  <MODEL>
2

>  <REMARK>
 VINA RESULT:      -7.2      2.046      3.317
  Name = 
  7 active torsions:
  status: ('A' for Active; 'I' for Inactive)
    1  A    between atoms: C_1  and  C_27
    2  A    between atoms: N_10  and  C_12
    3  A    between atoms: C_13  and  N_29
    4  A    between atoms: C_15  and  C_20
    5  A    between atoms: C_16  and  C_20
    6  A    between atoms: C_16  and  C_22
    7  A    between atoms: C_16  and  C_27
                            x       y       z     vdW  Elec       q    Type
                         _______ _______ _______ _____ _____    ______ ____

>  <TORSDO>
F 7

$$$$
=
 OpenBabel10272402073D

 32 35  0  0  1  0  0  0  0  0999 V2000
  190.6630  177.2470  138.8600 C   0  0  1  0  0  3  0  0  0  0  0  0
  191.3070  176.8460  141.3550 C   0  0  0  0  0  2  0  0  0  0  0  0
  189.6260  177.8630  137.9050 C   0  0  0  0  0  2  0  0  0  0  0  0
  190.4220  177.5850  140.3560 C   0  0  2  0  0  3  0  0  0  0  0  0
  188.2310  177.3760  144.2170 C   0  0  0  0  0  2  0  0  0  0  0  0
  190.6640  177.4900  144.1800 N   0  0  1  0  0  0  0  0  0  0  0  0
  188.9540  177.6400  140.7070 C   0  0  0  0  0  0  0  0  0  0  0  0
  189.4630  178.0800  144.7490 C   0  0  0  0  0  2  0  0  0  0  0  0
  188.4000  176.9240  141.9040 C   0  0  0  0  0  2  0  0  0  0  0  0
  188.1290  178.2480  139.8440 C   0  0  0  0  0  3  0  0  0  0  0  0
  192.0870  177.8430  142.1980 C   0  0  0  0  0  2  0  0  0  0  0  0
  187.8980  177.8710  142.8900 N   0  0  0  0  0  0  0  0  0  0  0  0
  188.6970  178.8620  138.6000 C   0  0  0  0  0  2  0  0  0  0  0  0
  191.2240  178.4950  143.2740 C   0  0  0  0  0  2  0  0  0  0  0  0
  191.8720  175.7910  145.4930 C   0  0  0  0  0  2  0  0  0  0  0  0
  191.4720  176.7700  147.7090 C   0  0  0  0  0  1  0  0  0  0  0  0
  191.5680  177.2650  145.3010 C   0  0  2  0  0  3  0  0  0  0  0  0
  190.8480  176.4640  146.3680 C   0  0  1  0  0  3  0  0  0  0  0  0
  186.4360  177.9890  142.7660 C   0  0  0  0  0  2  0  0  0  0  0  0
  185.7160  178.1330  144.1130 C   0  0  0  0  0  1  0  0  0  0  0  0
  189.7000  175.1530  138.2190 O   0  0  0  0  0  1  0  0  0  0  0  0
  190.9160  175.7680  138.5170 C   0  0  1  0  0  3  0  0  0  0  0  0
  191.9280  175.5340  137.3780 C   0  0  2  0  0  3  0  0  0  0  0  0
  190.7110  175.6610  135.3270 O   0  0  0  0  0  0  0  0  0  0  0  0
  191.2530  174.9210  136.1890 C   0  0  0  0  0  0  0  0  0  0  0  0
  191.2430  173.5440  136.0180 O   0  0  0  0  0  1  0  0  0  0  0  0
  193.0880  174.6440  137.8310 C   0  0  0  0  0  2  0  0  0  0  0  0
  194.5530  176.2970  136.6320 O   0  0  0  0  0  1  0  0  0  0  0  0
  194.9930  173.9420  136.2230 C   0  0  0  0  0  2  0  0  0  0  0  0
  194.3960  175.0000  137.1210 C   0  0  2  0  0  0  0  0  0  0  0  0
  195.5100  173.1970  138.5190 C   0  0  0  0  0  1  0  0  0  0  0  0
  195.6990  174.3220  137.5210 C   0  0  1  0  0  3  0  0  0  0  0  0
  1 22  1  1  0  0  0
  1  4  1  0  0  0  0
  2 11  1  0  0  0  0
  3 13  1  0  0  0  0
  3  1  1  0  0  0  0
  4  7  1  0  0  0  0
  4  2  1  1  0  0  0
  5  8  1  0  0  0  0
  6 14  1  6  0  0  0
  6  8  1  0  0  0  0
  6 17  1  0  0  0  0
  7  9  1  0  0  0  0
  9 12  1  0  0  0  0
 10  7  2  0  0  0  0
 11 14  1  0  0  0  0
 12  5  1  0  0  0  0
 13 10  1  0  0  0  0
 15 18  1  0  0  0  0
 17 15  1  6  0  0  0
 17 18  1  0  0  0  0
 18 16  1  1  0  0  0
 19 12  1  0  0  0  0
 19 20  1  0  0  0  0
 22 21  1  6  0  0  0
 23 27  1  1  0  0  0
 23 22  1  0  0  0  0
 24 25  2  0  0  0  0
 25 23  1  0  0  0  0
 26 25  1  0  0  0  0
 29 30  1  0  0  0  0
 29 32  1  0  0  0  0
 30 28  1  6  0  0  0
 30 32  1  0  0  0  0
 30 27  1  0  0  0  0
 32 31  1  1  0  0  0
M  END
>  <MODEL>
3

>  <REMARK>
 VINA RESULT:      -7.2      3.879      9.111
  Name = 
  7 active torsions:
  status: ('A' for Active; 'I' for Inactive)
    1  A    between atoms: C_1  and  C_27
    2  A    between atoms: N_10  and  C_12
    3  A    between atoms: C_13  and  N_29
    4  A    between atoms: C_15  and  C_20
    5  A    between atoms: C_16  and  C_20
    6  A    between atoms: C_16  and  C_22
    7  A    between atoms: C_16  and  C_27
                            x       y       z     vdW  Elec       q    Type
                         _______ _______ _______ _____ _____    ______ ____

>  <TORSDO>
F 7

$$$$
=
 OpenBabel10272402073D

 32 35  0  0  1  0  0  0  0  0999 V2000
  190.8460  177.0720  138.9810 C   0  0  1  0  0  3  0  0  0  0  0  0
  191.4030  176.7370  141.5070 C   0  0  0  0  0  2  0  0  0  0  0  0
  189.8740  177.7130  137.9750 C   0  0  0  0  0  2  0  0  0  0  0  0
  190.5920  177.4880  140.4550 C   0  0  2  0  0  3  0  0  0  0  0  0
  188.3020  177.5870  144.2630 C   0  0  0  0  0  2  0  0  0  0  0  0
  190.7380  177.5410  144.2840 N   0  0  1  0  0  0  0  0  0  0  0  0
  189.1230  177.6540  140.7650 C   0  0  0  0  0  0  0  0  0  0  0  0
  189.5650  178.2320  144.7980 C   0  0  0  0  0  2  0  0  0  0  0  0
  188.4950  177.0270  141.9750 C   0  0  0  0  0  2  0  0  0  0  0  0
  188.3610  178.2770  139.8560 C   0  0  0  0  0  3  0  0  0  0  0  0
  192.2270  177.7160  142.3280 C   0  0  0  0  0  2  0  0  0  0  0  0
  188.0340  178.0460  142.9080 N   0  0  0  0  0  0  0  0  0  0  0  0
  188.9980  178.7990  138.6030 C   0  0  0  0  0  2  0  0  0  0  0  0
  191.3830  178.4680  143.3530 C   0  0  0  0  0  2  0  0  0  0  0  0
  191.9150  175.8320  145.6130 C   0  0  0  0  0  2  0  0  0  0  0  0
  191.4100  176.7610  147.8300 C   0  0  0  0  0  1  0  0  0  0  0  0
  191.5980  177.3050  145.4370 C   0  0  2  0  0  3  0  0  0  0  0  0
  190.8470  176.4740  146.4580 C   0  0  1  0  0  3  0  0  0  0  0  0
  186.5860  178.2540  142.7410 C   0  0  0  0  0  2  0  0  0  0  0  0
  185.7820  178.0270  144.0270 C   0  0  0  0  0  1  0  0  0  0  0  0
  189.8800  175.1010  138.0300 O   0  0  0  0  0  1  0  0  0  0  0  0
  191.0080  175.5670  138.7060 C   0  0  1  0  0  3  0  0  0  0  0  0
  192.2890  175.1860  137.9370 C   0  0  2  0  0  3  0  0  0  0  0  0
  193.8100  176.5180  139.2090 O   0  0  0  0  0  1  0  0  0  0  0  0
  193.3260  176.2580  138.0750 C   0  0  0  0  0  0  0  0  0  0  0  0
  193.7770  176.9490  136.9600 O   0  0  0  0  0  0  0  0  0  0  0  0
  192.0010  174.9320  136.4560 C   0  0  0  0  0  2  0  0  0  0  0  0
  193.6610  173.0530  136.6460 O   0  0  0  0  0  1  0  0  0  0  0  0
  192.5600  173.3310  134.4970 C   0  0  0  0  0  2  0  0  0  0  0  0
  192.5500  173.5820  135.9870 C   0  0  2  0  0  0  0  0  0  0  0  0
  190.2050  173.0380  135.1810 C   0  0  0  0  0  1  0  0  0  0  0  0
  191.6190  172.5350  135.3950 C   0  0  1  0  0  3  0  0  0  0  0  0
  1 22  1  1  0  0  0
  1  4  1  0  0  0  0
  2 11  1  0  0  0  0
  3 13  1  0  0  0  0
  3  1  1  0  0  0  0
  4  7  1  0  0  0  0
  4  2  1  1  0  0  0
  5  8  1  0  0  0  0
  6 14  1  6  0  0  0
  6  8  1  0  0  0  0
  6 17  1  0  0  0  0
  7  9  1  0  0  0  0
  9 12  1  0  0  0  0
 10  7  2  0  0  0  0
 11 14  1  0  0  0  0
 12  5  1  0  0  0  0
 13 10  1  0  0  0  0
 15 18  1  0  0  0  0
 17 15  1  6  0  0  0
 17 18  1  0  0  0  0
 18 16  1  1  0  0  0
 19 12  1  0  0  0  0
 19 20  1  0  0  0  0
 22 21  1  6  0  0  0
 23 27  1  6  0  0  0
 23 25  1  0  0  0  0
 23 22  1  0  0  0  0
 25 24  1  0  0  0  0
 26 25  2  0  0  0  0
 29 32  1  0  0  0  0
 29 30  1  0  0  0  0
 30 27  1  0  0  0  0
 30 28  1  1  0  0  0
 32 31  1  6  0  0  0
 32 30  1  0  0  0  0
M  END
>  <MODEL>
4

>  <REMARK>
 VINA RESULT:      -7.1      3.909      8.892
  Name = 
  7 active torsions:
  status: ('A' for Active; 'I' for Inactive)
    1  A    between atoms: C_1  and  C_27
    2  A    between atoms: N_10  and  C_12
    3  A    between atoms: C_13  and  N_29
    4  A    between atoms: C_15  and  C_20
    5  A    between atoms: C_16  and  C_20
    6  A    between atoms: C_16  and  C_22
    7  A    between atoms: C_16  and  C_27
                            x       y       z     vdW  Elec       q    Type
                         _______ _______ _______ _____ _____    ______ ____

>  <TORSDO>
F 7

$$$$
=
 OpenBabel10272402073D

 32 35  0  0  1  0  0  0  0  0999 V2000
  190.8410  177.5940  141.0480 C   0  0  1  0  0  3  0  0  0  0  0  0
  188.9040  177.6810  139.3040 C   0  0  0  0  0  2  0  0  0  0  0  0
  192.3390  177.3150  141.2600 C   0  0  0  0  0  2  0  0  0  0  0  0
  190.4060  177.5980  139.5580 C   0  0  2  0  0  3  0  0  0  0  0  0
  189.5890  175.7320  135.6070 C   0  0  0  0  0  2  0  0  0  0  0  0
  188.1990  177.5590  136.4240 N   0  0  1  0  0  0  0  0  0  0  0  0
  191.1470  176.5700  138.7350 C   0  0  0  0  0  0  0  0  0  0  0  0
  188.9830  177.0850  135.2940 C   0  0  0  0  0  2  0  0  0  0  0  0
  190.4280  175.6280  137.8140 C   0  0  0  0  0  2  0  0  0  0  0  0
  192.4630  176.4340  138.9450 C   0  0  0  0  0  3  0  0  0  0  0  0
  188.5840  178.9010  138.4550 C   0  0  0  0  0  2  0  0  0  0  0  0
  190.7830  175.8890  136.4250 N   0  0  0  0  0  0  0  0  0  0  0  0
  193.1360  177.3170  139.9530 C   0  0  0  0  0  2  0  0  0  0  0  0
  188.9340  178.6940  136.9850 C   0  0  0  0  0  2  0  0  0  0  0  0
  185.7520  177.5500  136.7100 C   0  0  0  0  0  2  0  0  0  0  0  0
  185.1650  177.2060  134.3510 C   0  0  0  0  0  1  0  0  0  0  0  0
  186.9280  178.0070  135.8690 C   0  0  2  0  0  3  0  0  0  0  0  0
  186.1110  176.7990  135.4560 C   0  0  1  0  0  3  0  0  0  0  0  0
  191.8060  174.9280  135.9840 C   0  0  0  0  0  2  0  0  0  0  0  0
  191.6310  173.5270  136.5850 C   0  0  0  0  0  1  0  0  0  0  0  0
  190.6610  175.5790  142.3250 O   0  0  0  0  0  1  0  0  0  0  0  0
  189.9850  176.7590  142.0160 C   0  0  1  0  0  3  0  0  0  0  0  0
  189.5700  177.4940  143.3070 C   0  0  2  0  0  3  0  0  0  0  0  0
  191.3340  178.8650  144.1540 O   0  0  0  0  0  0  0  0  0  0  0  0
  190.7630  177.7420  144.1790 C   0  0  0  0  0  0  0  0  0  0  0  0
  191.2280  176.7530  145.0330 O   0  0  0  0  0  1  0  0  0  0  0  0
  188.5140  176.7080  144.0860 C   0  0  0  0  0  2  0  0  0  0  0  0
  188.4350  178.2570  146.0640 O   0  0  0  0  0  1  0  0  0  0  0  0
  186.3730  177.1040  145.4910 C   0  0  0  0  0  2  0  0  0  0  0  0
  187.7320  177.6000  145.0540 C   0  0  2  0  0  0  0  0  0  0  0  0
  186.0400  177.9400  143.1920 C   0  0  0  0  0  1  0  0  0  0  0  0
  186.4800  178.3290  144.5890 C   0  0  1  0  0  3  0  0  0  0  0  0
  1  3  1  0  0  0  0
  1 22  1  1  0  0  0
  4  2  1  1  0  0  0
  4  1  1  0  0  0  0
  5 12  1  0  0  0  0
  6  8  1  6  0  0  0
  6 14  1  0  0  0  0
  7 10  2  0  0  0  0
  7  4  1  0  0  0  0
  8  5  1  0  0  0  0
  9  7  1  0  0  0  0
 10 13  1  0  0  0  0
 11  2  1  0  0  0  0
 12  9  1  0  0  0  0
 13  3  1  0  0  0  0
 14 11  1  0  0  0  0
 17  6  1  0  0  0  0
 17 15  1  1  0  0  0
 18 16  1  6  0  0  0
 18 17  1  0  0  0  0
 18 15  1  0  0  0  0
 19 12  1  0  0  0  0
 19 20  1  0  0  0  0
 22 21  1  1  0  0  0
 22 23  1  0  0  0  0
 23 27  1  1  0  0  0
 23 25  1  0  0  0  0
 24 25  2  0  0  0  0
 25 26  1  0  0  0  0
 27 30  1  0  0  0  0
 30 29  1  0  0  0  0
 30 28  1  1  0  0  0
 32 31  1  6  0  0  0
 32 30  1  0  0  0  0
 32 29  1  0  0  0  0
M  END
>  <MODEL>
5

>  <REMARK>
 VINA RESULT:      -6.9      1.880      3.245
  Name = 
  7 active torsions:
  status: ('A' for Active; 'I' for Inactive)
    1  A    between atoms: C_1  and  C_27
    2  A    between atoms: N_10  and  C_12
    3  A    between atoms: C_13  and  N_29
    4  A    between atoms: C_15  and  C_20
    5  A    between atoms: C_16  and  C_20
    6  A    between atoms: C_16  and  C_22
    7  A    between atoms: C_16  and  C_27
                            x       y       z     vdW  Elec       q    Type
                         _______ _______ _______ _____ _____    ______ ____

>  <TORSDO>
F 7

$$$$
=
 OpenBabel10272402073D

 32 35  0  0  1  0  0  0  0  0999 V2000
  188.5520  178.3300  139.6640 C   0  0  1  0  0  3  0  0  0  0  0  0
  185.9950  178.0680  140.1080 C   0  0  0  0  0  2  0  0  0  0  0  0
  189.6360  178.5140  138.5880 C   0  0  0  0  0  2  0  0  0  0  0  0
  187.1010  178.4300  139.1210 C   0  0  2  0  0  3  0  0  0  0  0  0
  183.5860  177.0500  136.7780 C   0  0  0  0  0  2  0  0  0  0  0  0
  183.2820  178.1840  138.9120 N   0  0  1  0  0  0  0  0  0  0  0  0
  186.9580  177.8360  137.7400 C   0  0  0  0  0  0  0  0  0  0  0  0
  182.8800  178.1700  137.5140 C   0  0  0  0  0  2  0  0  0  0  0  0
  185.8570  176.8720  137.4050 C   0  0  0  0  0  2  0  0  0  0  0  0
  187.9210  178.0950  136.8470 C   0  0  0  0  0  3  0  0  0  0  0  0
  185.0420  179.2410  140.2760 C   0  0  0  0  0  2  0  0  0  0  0  0
  184.9420  177.4480  136.4290 N   0  0  0  0  0  0  0  0  0  0  0  0
  189.0680  178.9760  137.2440 C   0  0  0  0  0  2  0  0  0  0  0  0
  184.0910  179.3910  139.0930 C   0  0  0  0  0  2  0  0  0  0  0  0
  182.1660  177.6020  141.0300 C   0  0  0  0  0  2  0  0  0  0  0  0
  179.9820  177.0090  140.0770 C   0  0  0  0  0  1  0  0  0  0  0  0
  182.0480  178.2850  139.6810 C   0  0  2  0  0  3  0  0  0  0  0  0
  181.4770  176.8970  139.8920 C   0  0  1  0  0  3  0  0  0  0  0  0
  185.2670  176.9460  135.0850 C   0  0  0  0  0  2  0  0  0  0  0  0
  184.2710  175.9020  134.5620 C   0  0  0  0  0  1  0  0  0  0  0  0
  189.7440  176.2690  139.8930 O   0  0  0  0  0  1  0  0  0  0  0  0
  188.8710  177.1230  140.5650 C   0  0  1  0  0  3  0  0  0  0  0  0
  189.4380  177.4870  141.9530 C   0  0  2  0  0  3  0  0  0  0  0  0
  190.4300  175.4210  142.6270 O   0  0  0  0  0  1  0  0  0  0  0  0
  190.6130  176.6200  142.2860 C   0  0  0  0  0  0  0  0  0  0  0  0
  191.9040  177.1200  142.1970 O   0  0  0  0  0  0  0  0  0  0  0  0
  188.3740  177.3600  143.0450 C   0  0  0  0  0  2  0  0  0  0  0  0
  189.9050  178.8290  144.3940 O   0  0  0  0  0  1  0  0  0  0  0  0
  188.9430  176.9080  145.5320 C   0  0  0  0  0  2  0  0  0  0  0  0
  188.8660  177.8960  144.3910 C   0  0  2  0  0  0  0  0  0  0  0  0
  186.5410  177.4290  145.2970 C   0  0  0  0  0  1  0  0  0  0  0  0
  187.9080  178.0270  145.5660 C   0  0  1  0  0  3  0  0  0  0  0  0
  1 22  1  6  0  0  0
  2 11  1  0  0  0  0
  3  1  1  0  0  0  0
  4  1  1  0  0  0  0
  4  2  1  1  0  0  0
  5  8  1  0  0  0  0
  6  8  1  6  0  0  0
  6 14  1  0  0  0  0
  6 17  1  0  0  0  0
  7  4  1  0  0  0  0
  9  7  1  0  0  0  0
 10 13  1  0  0  0  0
 10  7  2  0  0  0  0
 12  5  1  0  0  0  0
 12  9  1  0  0  0  0
 13  3  1  0  0  0  0
 14 11  1  0  0  0  0
 17 18  1  0  0  0  0
 17 15  1  1  0  0  0
 18 16  1  1  0  0  0
 18 15  1  0  0  0  0
 19 12  1  0  0  0  0
 20 19  1  0  0  0  0
 22 21  1  6  0  0  0
 22 23  1  0  0  0  0
 23 25  1  0  0  0  0
 23 27  1  1  0  0  0
 25 24  1  0  0  0  0
 26 25  2  0  0  0  0
 27 30  1  0  0  0  0
 29 32  1  0  0  0  0
 30 28  1  6  0  0  0
 30 29  1  0  0  0  0
 30 32  1  0  0  0  0
 32 31  1  6  0  0  0
M  END
>  <MODEL>
6

>  <REMARK>
 VINA RESULT:      -6.3      3.113      5.827
  Name = 
  7 active torsions:
  status: ('A' for Active; 'I' for Inactive)
    1  A    between atoms: C_1  and  C_27
    2  A    between atoms: N_10  and  C_12
    3  A    between atoms: C_13  and  N_29
    4  A    between atoms: C_15  and  C_20
    5  A    between atoms: C_16  and  C_20
    6  A    between atoms: C_16  and  C_22
    7  A    between atoms: C_16  and  C_27
                            x       y       z     vdW  Elec       q    Type
                         _______ _______ _______ _____ _____    ______ ____

>  <TORSDO>
F 7

$$$$
=
 OpenBabel10272402073D

 32 35  0  0  1  0  0  0  0  0999 V2000
  189.6950  178.0350  142.5050 C   0  0  1  0  0  3  0  0  0  0  0  0
  188.3580  177.9140  140.2700 C   0  0  0  0  0  2  0  0  0  0  0  0
  191.0870  177.9300  143.1530 C   0  0  0  0  0  2  0  0  0  0  0  0
  189.7190  178.0040  140.9530 C   0  0  2  0  0  3  0  0  0  0  0  0
  190.3150  176.0970  136.9830 C   0  0  0  0  0  2  0  0  0  0  0  0
  188.5480  177.7410  137.3130 N   0  0  1  0  0  0  0  0  0  0  0  0
  190.7810  177.0770  140.4090 C   0  0  0  0  0  0  0  0  0  0  0  0
  189.6770  177.3730  136.4730 C   0  0  0  0  0  2  0  0  0  0  0  0
  190.4760  176.0680  139.3400 C   0  0  0  0  0  2  0  0  0  0  0  0
  191.9830  177.0930  140.9980 C   0  0  0  0  0  3  0  0  0  0  0  0
  188.1640  179.0980  139.3350 C   0  0  0  0  0  2  0  0  0  0  0  0
  191.1900  176.3830  138.1110 N   0  0  0  0  0  0  0  0  0  0  0  0
  192.2260  178.0380  142.1370 C   0  0  0  0  0  2  0  0  0  0  0  0
  188.9510  178.9480  138.0370 C   0  0  0  0  0  2  0  0  0  0  0  0
  186.1790  177.3150  136.7830 C   0  0  0  0  0  2  0  0  0  0  0  0
  186.4310  177.1540  134.3460 C   0  0  0  0  0  1  0  0  0  0  0  0
  187.4530  178.0440  136.4000 C   0  0  2  0  0  3  0  0  0  0  0  0
  187.0440  176.7770  135.6750 C   0  0  1  0  0  3  0  0  0  0  0  0
  192.4000  175.5510  138.0110 C   0  0  0  0  0  2  0  0  0  0  0  0
  193.4810  176.1470  137.1000 C   0  0  0  0  0  1  0  0  0  0  0  0
  189.3900  176.0510  143.8060 O   0  0  0  0  0  1  0  0  0  0  0  0
  188.6930  177.0970  143.2000 C   0  0  1  0  0  3  0  0  0  0  0  0
  187.7660  177.7860  144.2220 C   0  0  2  0  0  3  0  0  0  0  0  0
  189.3740  178.3740  145.8880 O   0  0  0  0  0  0  0  0  0  0  0  0
  188.3470  177.7040  145.6010 C   0  0  0  0  0  0  0  0  0  0  0  0
  187.7470  176.9150  146.5710 O   0  0  0  0  0  1  0  0  0  0  0  0
  186.3650  177.1720  144.2120 C   0  0  0  0  0  2  0  0  0  0  0  0
  184.8240  178.0360  142.4240 O   0  0  0  0  0  1  0  0  0  0  0  0
  185.4650  179.6010  144.1700 C   0  0  0  0  0  2  0  0  0  0  0  0
  185.3060  178.1650  143.7270 C   0  0  2  0  0  0  0  0  0  0  0  0
  184.5940  178.4130  146.1510 C   0  0  0  0  0  1  0  0  0  0  0  0
  184.3070  178.7660  144.7050 C   0  0  1  0  0  3  0  0  0  0  0  0
  1  3  1  0  0  0  0
  1 22  1  1  0  0  0
  4  2  1  1  0  0  0
  4  1  1  0  0  0  0
  5 12  1  0  0  0  0
  6  8  1  6  0  0  0
  6 14  1  0  0  0  0
  7  4  1  0  0  0  0
  7 10  2  0  0  0  0
  8  5  1  0  0  0  0
  9  7  1  0  0  0  0
 10 13  1  0  0  0  0
 11  2  1  0  0  0  0
 12  9  1  0  0  0  0
 13  3  1  0  0  0  0
 14 11  1  0  0  0  0
 17 15  1  1  0  0  0
 17  6  1  0  0  0  0
 18 16  1  6  0  0  0
 18 17  1  0  0  0  0
 18 15  1  0  0  0  0
 19 12  1  0  0  0  0
 20 19  1  0  0  0  0
 22 21  1  1  0  0  0
 22 23  1  0  0  0  0
 23 27  1  1  0  0  0
 23 25  1  0  0  0  0
 25 24  2  0  0  0  0
 25 26  1  0  0  0  0
 29 32  1  0  0  0  0
 30 28  1  6  0  0  0
 30 29  1  0  0  0  0
 30 27  1  0  0  0  0
 30 32  1  0  0  0  0
 32 31  1  1  0  0  0
M  END
>  <MODEL>
7

>  <REMARK>
 VINA RESULT:      -6.2      1.539      2.072
  Name = 
  7 active torsions:
  status: ('A' for Active; 'I' for Inactive)
    1  A    between atoms: C_1  and  C_27
    2  A    between atoms: N_10  and  C_12
    3  A    between atoms: C_13  and  N_29
    4  A    between atoms: C_15  and  C_20
    5  A    between atoms: C_16  and  C_20
    6  A    between atoms: C_16  and  C_22
    7  A    between atoms: C_16  and  C_27
                            x       y       z     vdW  Elec       q    Type
                         _______ _______ _______ _____ _____    ______ ____

>  <TORSDO>
F 7

$$$$
=
 OpenBabel10272402073D

 32 35  0  0  1  0  0  0  0  0999 V2000
  188.8690  176.7710  136.8710 C   0  0  1  0  0  3  0  0  0  0  0  0
  188.5810  176.7480  139.4630 C   0  0  0  0  0  2  0  0  0  0  0  0
  188.4310  177.4400  135.5570 C   0  0  0  0  0  2  0  0  0  0  0  0
  188.3340  177.4770  138.1460 C   0  0  2  0  0  3  0  0  0  0  0  0
  185.1820  178.7410  141.0140 C   0  0  0  0  0  2  0  0  0  0  0  0
  187.4060  178.1400  141.8060 N   0  0  1  0  0  0  0  0  0  0  0  0
  186.9390  178.0270  137.9620 C   0  0  0  0  0  0  0  0  0  0  0  0
  186.3680  179.1580  141.8590 C   0  0  0  0  0  2  0  0  0  0  0  0
  185.8510  177.7740  138.9640 C   0  0  0  0  0  2  0  0  0  0  0  0
  186.6610  178.6460  136.8070 C   0  0  0  0  0  3  0  0  0  0  0  0
  189.3740  177.6350  140.4110 C   0  0  0  0  0  2  0  0  0  0  0  0
  185.4400  179.0150  139.6070 N   0  0  0  0  0  0  0  0  0  0  0  0
  187.7410  178.7890  135.7760 C   0  0  0  0  0  2  0  0  0  0  0  0
  188.5130  178.7220  141.0460 C   0  0  0  0  0  2  0  0  0  0  0  0
  187.7940  176.4350  143.5420 C   0  0  0  0  0  2  0  0  0  0  0  0
  186.7960  177.6680  145.4160 C   0  0  0  0  0  1  0  0  0  0  0  0
  187.8100  177.9100  143.1870 C   0  0  2  0  0  3  0  0  0  0  0  0
  186.6450  177.3160  143.9550 C   0  0  1  0  0  3  0  0  0  0  0  0
  184.2100  179.5190  138.9760 C   0  0  0  0  0  2  0  0  0  0  0  0
  183.2680  178.4090  138.4930 C   0  0  0  0  0  1  0  0  0  0  0  0
  187.5140  174.9560  136.1030 O   0  0  0  0  0  1  0  0  0  0  0  0
  188.6880  175.2450  136.7990 C   0  0  1  0  0  3  0  0  0  0  0  0
  189.8780  174.4830  136.1810 C   0  0  2  0  0  3  0  0  0  0  0  0
  189.7030  172.8220  134.4730 O   0  0  0  0  0  0  0  0  0  0  0  0
  189.4380  173.1490  135.6600 C   0  0  0  0  0  0  0  0  0  0  0  0
  188.7610  172.2610  136.4840 O   0  0  0  0  0  1  0  0  0  0  0  0
  191.0110  174.2960  137.1920 C   0  0  0  0  0  2  0  0  0  0  0  0
  192.6430  174.6060  135.3050 O   0  0  0  0  0  1  0  0  0  0  0  0
  193.5500  174.6560  137.5600 C   0  0  0  0  0  2  0  0  0  0  0  0
  192.3500  174.8080  136.6540 C   0  0  2  0  0  0  0  0  0  0  0  0
  192.2850  176.5620  138.4880 C   0  0  0  0  0  1  0  0  0  0  0  0
  192.9990  176.0450  137.2560 C   0  0  1  0  0  3  0  0  0  0  0  0
  1 22  1  6  0  0  0
  1  4  1  0  0  0  0
  2 11  1  0  0  0  0
  3 13  1  0  0  0  0
  3  1  1  0  0  0  0
  4  2  1  1  0  0  0
  5  8  1  0  0  0  0
  6 14  1  6  0  0  0
  6  8  1  0  0  0  0
  6 17  1  0  0  0  0
  7  4  1  0  0  0  0
  7  9  1  0  0  0  0
  9 12  1  0  0  0  0
 10  7  2  0  0  0  0
 11 14  1  0  0  0  0
 12  5  1  0  0  0  0
 13 10  1  0  0  0  0
 15 18  1  0  0  0  0
 17 15  1  6  0  0  0
 17 18  1  0  0  0  0
 18 16  1  1  0  0  0
 19 12  1  0  0  0  0
 20 19  1  0  0  0  0
 22 21  1  6  0  0  0
 23 22  1  0  0  0  0
 23 27  1  1  0  0  0
 24 25  2  0  0  0  0
 25 23  1  0  0  0  0
 25 26  1  0  0  0  0
 30 28  1  6  0  0  0
 30 27  1  0  0  0  0
 30 32  1  0  0  0  0
 30 29  1  0  0  0  0
 32 29  1  0  0  0  0
 32 31  1  1  0  0  0
M  END
>  <MODEL>
8

>  <REMARK>
 VINA RESULT:      -6.1      4.558      8.915
  Name = 
  7 active torsions:
  status: ('A' for Active; 'I' for Inactive)
    1  A    between atoms: C_1  and  C_27
    2  A    between atoms: N_10  and  C_12
    3  A    between atoms: C_13  and  N_29
    4  A    between atoms: C_15  and  C_20
    5  A    between atoms: C_16  and  C_20
    6  A    between atoms: C_16  and  C_22
    7  A    between atoms: C_16  and  C_27
                            x       y       z     vdW  Elec       q    Type
                         _______ _______ _______ _____ _____    ______ ____

>  <TORSDO>
F 7

$$$$
=
 OpenBabel10272402073D

 32 35  0  0  1  0  0  0  0  0999 V2000
  184.5230  179.2040  143.5790 C   0  0  1  0  0  3  0  0  0  0  0  0
  186.2360  178.4800  141.7500 C   0  0  0  0  0  2  0  0  0  0  0  0
  184.2990  179.4240  145.0850 C   0  0  0  0  0  2  0  0  0  0  0  0
  185.9950  178.8910  143.2000 C   0  0  2  0  0  3  0  0  0  0  0  0
  189.6690  176.3920  143.0860 C   0  0  0  0  0  2  0  0  0  0  0  0
  189.0670  177.7940  141.1880 N   0  0  1  0  0  0  0  0  0  0  0  0
  186.6930  178.0440  144.2380 C   0  0  0  0  0  0  0  0  0  0  0  0
  190.1410  177.4460  142.1060 C   0  0  0  0  0  2  0  0  0  0  0  0
  187.4790  176.8220  143.8630 C   0  0  0  0  0  2  0  0  0  0  0  0
  186.4860  178.3430  145.5280 C   0  0  0  0  0  3  0  0  0  0  0  0
  187.2260  179.4300  141.0960 C   0  0  0  0  0  2  0  0  0  0  0  0
  188.8940  177.0050  144.1560 N   0  0  0  0  0  0  0  0  0  0  0  0
  185.6070  179.5070  145.8760 C   0  0  0  0  0  2  0  0  0  0  0  0
  188.6640  179.1590  141.5280 C   0  0  0  0  0  2  0  0  0  0  0  0
  188.8410  176.9130  138.8980 C   0  0  0  0  0  2  0  0  0  0  0  0
  191.2120  176.3880  138.5310 C   0  0  0  0  0  1  0  0  0  0  0  0
  189.6560  177.7610  139.8540 C   0  0  2  0  0  3  0  0  0  0  0  0
  190.0810  176.3420  139.5320 C   0  0  1  0  0  3  0  0  0  0  0  0
  189.2260  176.3540  145.4330 C   0  0  0  0  0  2  0  0  0  0  0  0
  189.9120  177.2880  146.4380 C   0  0  0  0  0  1  0  0  0  0  0  0
  182.4690  178.0380  143.9600 O   0  0  0  0  0  1  0  0  0  0  0  0
  183.4460  178.2740  142.9930 C   0  0  1  0  0  3  0  0  0  0  0  0
  182.7970  178.7810  141.6890 C   0  0  2  0  0  3  0  0  0  0  0  0
  180.5730  177.9630  141.3800 O   0  0  0  0  0  0  0  0  0  0  0  0
  181.3090  178.8750  141.8410 C   0  0  0  0  0  0  0  0  0  0  0  0
  180.7370  179.9480  142.5100 O   0  0  0  0  0  1  0  0  0  0  0  0
  183.1400  177.8770  140.5030 C   0  0  0  0  0  2  0  0  0  0  0  0
  184.1830  179.9140  139.4610 O   0  0  0  0  0  1  0  0  0  0  0  0
  182.6040  178.6690  138.0950 C   0  0  0  0  0  2  0  0  0  0  0  0
  183.5550  178.6820  139.2690 C   0  0  2  0  0  0  0  0  0  0  0  0
  183.7320  176.4730  138.0300 C   0  0  0  0  0  1  0  0  0  0  0  0
  183.9560  177.9710  137.9850 C   0  0  1  0  0  3  0  0  0  0  0  0
  1 22  1  1  0  0  0
  1  3  1  0  0  0  0
  3 13  1  0  0  0  0
  4  2  1  6  0  0  0
  4  1  1  0  0  0  0
  4  7  1  0  0  0  0
  5 12  1  0  0  0  0
  6 14  1  1  0  0  0
  6  8  1  0  0  0  0
  7 10  2  0  0  0  0
  8  5  1  0  0  0  0
  9 12  1  0  0  0  0
  9  7  1  0  0  0  0
 10 13  1  0  0  0  0
 11 14  1  0  0  0  0
 11  2  1  0  0  0  0
 12 19  1  0  0  0  0
 15 18  1  0  0  0  0
 17 15  1  6  0  0  0
 17  6  1  0  0  0  0
 18 16  1  6  0  0  0
 18 17  1  0  0  0  0
 19 20  1  0  0  0  0
 22 21  1  1  0  0  0
 23 27  1  6  0  0  0
 23 25  1  0  0  0  0
 23 22  1  0  0  0  0
 24 25  2  0  0  0  0
 25 26  1  0  0  0  0
 29 30  1  0  0  0  0
 30 28  1  1  0  0  0
 30 27  1  0  0  0  0
 32 31  1  1  0  0  0
 32 29  1  0  0  0  0
 32 30  1  0  0  0  0
M  END
>  <MODEL>
9

>  <REMARK>
 VINA RESULT:      -6.1      3.412      6.117
  Name = 
  7 active torsions:
  status: ('A' for Active; 'I' for Inactive)
    1  A    between atoms: C_1  and  C_27
    2  A    between atoms: N_10  and  C_12
    3  A    between atoms: C_13  and  N_29
    4  A    between atoms: C_15  and  C_20
    5  A    between atoms: C_16  and  C_20
    6  A    between atoms: C_16  and  C_22
    7  A    between atoms: C_16  and  C_27
                            x       y       z     vdW  Elec       q    Type
                         _______ _______ _______ _____ _____    ______ ____

>  <TORSDO>
F 7

$$$$
