=
 OpenBabel10272400523D

 25 28  0  0  1  0  0  0  0  0999 V2000
  187.0480  178.0960  145.7630 C   0  0  0  0  0  0  0  0  0  0  0  0
  188.3790  177.7700  145.5200 C   0  0  0  0  0  0  0  0  0  0  0  0
  187.4180  178.1950  148.1030 N   0  0  0  0  0  0  0  0  0  0  0  0
  185.9600  178.2940  144.9490 C   0  0  0  0  0  0  0  0  0  0  0  0
  190.2460  176.9000  144.0780 C   0  0  2  0  0  3  0  0  0  0  0  0
  183.4530  178.8070  143.8970 C   0  0  0  0  0  3  0  0  0  0  0  0
  188.7070  177.8880  147.9060 N   0  0  0  0  0  0  0  0  0  0  0  0
  184.9090  178.6030  145.7920 C   0  0  0  0  0  0  0  0  0  0  0  0
  183.6360  178.8660  145.2910 C   0  0  0  0  0  3  0  0  0  0  0  0
  188.9090  177.6350  144.1180 C   0  0  0  0  0  2  0  0  0  0  0  0
  184.5310  178.4900  143.0420 C   0  0  0  0  0  3  0  0  0  0  0  0
  186.5900  178.2990  147.0400 C   0  0  0  0  0  0  0  0  0  0  0  0
  185.2760  178.6130  147.0950 N   0  0  0  0  0  2  0  0  0  0  0  0
  190.6710  177.2800  146.5210 C   0  0  1  0  0  3  0  0  0  0  0  0
  185.8080  178.2280  143.5660 C   0  0  0  0  0  3  0  0  0  0  0  0
  191.2060  177.4970  145.1040 C   0  0  0  0  0  2  0  0  0  0  0  0
  189.2260  177.6830  146.6540 C   0  0  0  0  0  0  0  0  0  0  0  0
  190.3790  176.9560  140.2080 C   0  0  0  0  0  0  0  0  0  0  0  0
  189.4030  176.8950  139.1760 N   0  0  0  0  0  1  0  0  0  0  0  0
  191.5980  177.0510  139.9040 O   0  0  0  0  0  0  0  0  0  0  0  0
  190.8340  176.9590  142.7090 C   0  0  0  0  0  0  0  0  0  0  0  0
  189.9600  176.9070  141.5760 N   0  0  0  0  0  2  0  0  0  0  0  0
  192.0830  177.0540  142.5600 O   0  0  0  0  0  0  0  0  0  0  0  0
  190.8230  175.9400  146.8860 O   0  0  0  0  0  0  0  0  0  0  0  0
  192.1140  175.8540  147.4120 C   0  0  0  0  0  1  0  0  0  0  0  0
  1 12  1  0  0  0  0
  2  1  2  0  0  0  0
  2 17  1  0  0  0  0
  4  1  1  0  0  0  0
  4  8  1  0  0  0  0
  5 21  1  6  0  0  0
  5 10  1  0  0  0  0
  5 16  1  0  0  0  0
  6  9  1  0  0  0  0
  7  3  1  0  0  0  0
  8 13  1  0  0  0  0
  9  8  2  0  0  0  0
 10  2  1  0  0  0  0
 11 15  1  0  0  0  0
 11  6  2  0  0  0  0
 12 13  1  0  0  0  0
 12  3  2  0  0  0  0
 14 17  1  0  0  0  0
 14 24  1  6  0  0  0
 15  4  2  0  0  0  0
 16 14  1  0  0  0  0
 17  7  2  0  0  0  0
 18 22  1  0  0  0  0
 19 18  1  0  0  0  0
 20 18  2  0  0  0  0
 22 21  1  0  0  0  0
 23 21  2  0  0  0  0
 24 25  1  0  0  0  0
M  END
>  <MODEL>
1

>  <REMARK>
 VINA RESULT:     -11.0      0.000      0.000
  Name = 
  2 active torsions:
  status: ('A' for Active; 'I' for Inactive)
    1  A    between atoms: C_6  and  C_15
    2  A    between atoms: O_13  and  C_20
                            x       y       z     vdW  Elec       q    Type
                         _______ _______ _______ _____ _____    ______ ____

>  <TORSDO>
F 2

$$$$
=
 OpenBabel10272400523D

 25 28  0  0  1  0  0  0  0  0999 V2000
  185.3990  178.3790  144.6270 C   0  0  0  0  0  0  0  0  0  0  0  0
  186.7420  178.0120  144.6430 C   0  0  0  0  0  0  0  0  0  0  0  0
  185.4450  178.9370  146.9320 N   0  0  0  0  0  0  0  0  0  0  0  0
  184.4400  178.4120  143.6460 C   0  0  0  0  0  0  0  0  0  0  0  0
  188.7660  176.8770  143.6760 C   0  0  2  0  0  3  0  0  0  0  0  0
  182.1170  178.7050  142.1720 C   0  0  0  0  0  3  0  0  0  0  0  0
  186.7400  178.5990  146.9820 N   0  0  0  0  0  0  0  0  0  0  0  0
  183.2910  178.8790  144.2560 C   0  0  0  0  0  0  0  0  0  0  0  0
  182.1070  179.0370  143.5390 C   0  0  0  0  0  3  0  0  0  0  0  0
  187.4560  177.6050  143.3830 C   0  0  0  0  0  2  0  0  0  0  0  0
  183.2940  178.2270  141.5550 C   0  0  0  0  0  3  0  0  0  0  0  0
  184.7740  178.8290  145.7620 C   0  0  0  0  0  0  0  0  0  0  0  0
  183.4740  179.1460  145.5700 N   0  0  0  0  0  2  0  0  0  0  0  0
  188.8600  177.7320  146.0330 C   0  0  1  0  0  3  0  0  0  0  0  0
  184.4790  178.0740  142.2940 C   0  0  0  0  0  3  0  0  0  0  0  0
  189.5900  177.6660  144.6900 C   0  0  0  0  0  2  0  0  0  0  0  0
  187.4210  178.1510  145.8790 C   0  0  0  0  0  0  0  0  0  0  0  0
  189.9080  177.3990  140.0110 C   0  0  0  0  0  0  0  0  0  0  0  0
  189.5220  178.2760  138.9620 N   0  0  0  0  0  1  0  0  0  0  0  0
  190.8230  176.5570  139.8110 O   0  0  0  0  0  0  0  0  0  0  0  0
  189.5390  176.6660  142.4180 C   0  0  0  0  0  0  0  0  0  0  0  0
  189.2500  177.4850  141.2800 N   0  0  0  0  0  2  0  0  0  0  0  0
  190.4330  175.7770  142.3660 O   0  0  0  0  0  0  0  0  0  0  0  0
  188.9240  176.4900  146.6690 O   0  0  0  0  0  0  0  0  0  0  0  0
  190.1470  176.4940  147.3430 C   0  0  0  0  0  1  0  0  0  0  0  0
  1  2  2  0  0  0  0
  1 12  1  0  0  0  0
  2 17  1  0  0  0  0
  3  7  1  0  0  0  0
  4  8  1  0  0  0  0
  4  1  1  0  0  0  0
  5 21  1  6  0  0  0
  5 16  1  0  0  0  0
  6  9  1  0  0  0  0
  8 13  1  0  0  0  0
  9  8  2  0  0  0  0
 10  5  1  0  0  0  0
 10  2  1  0  0  0  0
 11  6  2  0  0  0  0
 11 15  1  0  0  0  0
 12  3  2  0  0  0  0
 13 12  1  0  0  0  0
 14 24  1  6  0  0  0
 15  4  2  0  0  0  0
 16 14  1  0  0  0  0
 17 14  1  0  0  0  0
 17  7  2  0  0  0  0
 18 22  1  0  0  0  0
 19 18  1  0  0  0  0
 20 18  2  0  0  0  0
 22 21  1  0  0  0  0
 23 21  2  0  0  0  0
 24 25  1  0  0  0  0
M  END
>  <MODEL>
2

>  <REMARK>
 VINA RESULT:     -10.5      1.294      1.903
  Name = 
  2 active torsions:
  status: ('A' for Active; 'I' for Inactive)
    1  A    between atoms: C_6  and  C_15
    2  A    between atoms: O_13  and  C_20
                            x       y       z     vdW  Elec       q    Type
                         _______ _______ _______ _____ _____    ______ ____

>  <TORSDO>
F 2

$$$$
=
 OpenBabel10272400523D

 25 28  0  0  1  0  0  0  0  0999 V2000
  188.0610  177.5750  145.2820 C   0  0  0  0  0  0  0  0  0  0  0  0
  189.0860  177.3340  144.3720 C   0  0  0  0  0  0  0  0  0  0  0  0
  189.4490  176.9970  147.1160 N   0  0  0  0  0  0  0  0  0  0  0  0
  186.7620  177.9980  145.1520 C   0  0  0  0  0  0  0  0  0  0  0  0
  189.9750  176.9180  142.0570 C   0  0  2  0  0  3  0  0  0  0  0  0
  184.1420  178.7880  145.5630 C   0  0  0  0  0  3  0  0  0  0  0  0
  190.4600  176.7610  146.2690 N   0  0  0  0  0  0  0  0  0  0  0  0
  186.2510  178.0490  146.4350 C   0  0  0  0  0  0  0  0  0  0  0  0
  184.9360  178.4440  146.6720 C   0  0  0  0  0  3  0  0  0  0  0  0
  188.9090  177.6090  142.9030 C   0  0  0  0  0  2  0  0  0  0  0  0
  184.6700  178.7320  144.2550 C   0  0  0  0  0  3  0  0  0  0  0  0
  188.2540  177.4020  146.6290 C   0  0  0  0  0  0  0  0  0  0  0  0
  187.1590  177.6850  147.3700 N   0  0  0  0  0  2  0  0  0  0  0  0
  191.4950  176.5800  144.0240 C   0  0  1  0  0  3  0  0  0  0  0  0
  185.9990  178.3320  144.0350 C   0  0  0  0  0  3  0  0  0  0  0  0
  191.3620  177.1960  142.6300 C   0  0  0  0  0  2  0  0  0  0  0  0
  190.3300  176.9260  144.9140 C   0  0  0  0  0  0  0  0  0  0  0  0
  188.3710  178.1320  138.7470 C   0  0  0  0  0  0  0  0  0  0  0  0
  187.0430  178.4130  138.3270 N   0  0  0  0  0  1  0  0  0  0  0  0
  189.3230  178.2790  137.9350 O   0  0  0  0  0  0  0  0  0  0  0  0
  189.8900  177.3690  140.6380 C   0  0  0  0  0  0  0  0  0  0  0  0
  188.6070  177.6860  140.0870 N   0  0  0  0  0  2  0  0  0  0  0  0
  190.9370  177.4680  139.9410 O   0  0  0  0  0  0  0  0  0  0  0  0
  191.6140  175.1920  143.9200 O   0  0  0  0  0  0  0  0  0  0  0  0
  192.3570  174.8090  145.0390 C   0  0  0  0  0  1  0  0  0  0  0  0
  1 12  1  0  0  0  0
  2 17  1  0  0  0  0
  2  1  2  0  0  0  0
  4  1  1  0  0  0  0
  4  8  1  0  0  0  0
  5 21  1  6  0  0  0
  5 16  1  0  0  0  0
  5 10  1  0  0  0  0
  6  9  1  0  0  0  0
  7  3  1  0  0  0  0
  8  9  2  0  0  0  0
  8 13  1  0  0  0  0
 10  2  1  0  0  0  0
 11  6  2  0  0  0  0
 12  3  2  0  0  0  0
 12 13  1  0  0  0  0
 14 24  1  6  0  0  0
 14 17  1  0  0  0  0
 15 11  1  0  0  0  0
 15  4  2  0  0  0  0
 16 14  1  0  0  0  0
 17  7  2  0  0  0  0
 18 22  1  0  0  0  0
 19 18  1  0  0  0  0
 20 18  2  0  0  0  0
 22 21  1  0  0  0  0
 23 21  2  0  0  0  0
 24 25  1  0  0  0  0
M  END
>  <MODEL>
3

>  <REMARK>
 VINA RESULT:      -9.7      1.586      2.221
  Name = 
  2 active torsions:
  status: ('A' for Active; 'I' for Inactive)
    1  A    between atoms: C_6  and  C_15
    2  A    between atoms: O_13  and  C_20
                            x       y       z     vdW  Elec       q    Type
                         _______ _______ _______ _____ _____    ______ ____

>  <TORSDO>
F 2

$$$$
=
 OpenBabel10272400523D

 25 28  0  0  1  0  0  0  0  0999 V2000
  189.7540  177.3010  143.4730 C   0  0  0  0  0  0  0  0  0  0  0  0
  188.8610  177.4360  144.5320 C   0  0  0  0  0  0  0  0  0  0  0  0
  191.4840  176.5710  144.9230 N   0  0  0  0  0  0  0  0  0  0  0  0
  189.6530  177.5040  142.1190 C   0  0  0  0  0  0  0  0  0  0  0  0
  186.7390  178.2850  145.5800 C   0  0  2  0  0  3  0  0  0  0  0  0
  190.0950  177.7170  139.3960 C   0  0  0  0  0  3  0  0  0  0  0  0
  190.6490  176.6830  145.9640 N   0  0  0  0  0  0  0  0  0  0  0  0
  190.8930  177.1910  141.5960 C   0  0  0  0  0  0  0  0  0  0  0  0
  191.1440  177.2880  140.2290 C   0  0  0  0  0  3  0  0  0  0  0  0
  187.4230  177.8120  144.2990 C   0  0  0  0  0  2  0  0  0  0  0  0
  188.8300  178.0360  139.9370 C   0  0  0  0  0  3  0  0  0  0  0  0
  191.0430  176.8780  143.6820 C   0  0  0  0  0  0  0  0  0  0  0  0
  191.7730  176.7990  142.5470 N   0  0  0  0  0  2  0  0  0  0  0  0
  188.4920  177.2520  147.0470 C   0  0  1  0  0  3  0  0  0  0  0  0
  188.5950  177.9310  141.3190 C   0  0  0  0  0  3  0  0  0  0  0  0
  187.0000  177.2950  146.7110 C   0  0  0  0  0  2  0  0  0  0  0  0
  189.3480  177.0920  145.8180 C   0  0  0  0  0  0  0  0  0  0  0  0
  183.4100  178.7130  143.6480 C   0  0  0  0  0  0  0  0  0  0  0  0
  183.0570  178.7890  142.2730 N   0  0  0  0  0  1  0  0  0  0  0  0
  182.5080  178.7930  144.5250 O   0  0  0  0  0  0  0  0  0  0  0  0
  185.2750  178.4590  145.3560 C   0  0  0  0  0  0  0  0  0  0  0  0
  184.7840  178.5490  144.0150 N   0  0  0  0  0  2  0  0  0  0  0  0
  184.4880  178.5230  146.3400 O   0  0  0  0  0  0  0  0  0  0  0  0
  188.8590  178.4130  147.7300 O   0  0  0  0  0  0  0  0  0  0  0  0
  188.2330  178.3130  148.9740 C   0  0  0  0  0  1  0  0  0  0  0  0
  1 12  1  0  0  0  0
  1  2  2  0  0  0  0
  2 17  1  0  0  0  0
  3  7  1  0  0  0  0
  4  1  1  0  0  0  0
  5 21  1  6  0  0  0
  5 16  1  0  0  0  0
  6 11  2  0  0  0  0
  6  9  1  0  0  0  0
  8  4  1  0  0  0  0
  8 13  1  0  0  0  0
  9  8  2  0  0  0  0
 10  2  1  0  0  0  0
 10  5  1  0  0  0  0
 11 15  1  0  0  0  0
 12  3  2  0  0  0  0
 13 12  1  0  0  0  0
 14 24  1  6  0  0  0
 15  4  2  0  0  0  0
 16 14  1  0  0  0  0
 17  7  2  0  0  0  0
 17 14  1  0  0  0  0
 18 22  1  0  0  0  0
 18 20  2  0  0  0  0
 19 18  1  0  0  0  0
 21 23  2  0  0  0  0
 22 21  1  0  0  0  0
 24 25  1  0  0  0  0
M  END
>  <MODEL>
4

>  <REMARK>
 VINA RESULT:      -9.7      3.060      5.913
  Name = 
  2 active torsions:
  status: ('A' for Active; 'I' for Inactive)
    1  A    between atoms: C_6  and  C_15
    2  A    between atoms: O_13  and  C_20
                            x       y       z     vdW  Elec       q    Type
                         _______ _______ _______ _____ _____    ______ ____

>  <TORSDO>
F 2

$$$$
=
 OpenBabel10272400523D

 25 28  0  0  1  0  0  0  0  0999 V2000
  188.1110  177.4540  145.5470 C   0  0  0  0  0  0  0  0  0  0  0  0
  187.2880  177.7770  144.4720 C   0  0  0  0  0  0  0  0  0  0  0  0
  186.3100  177.6260  147.0800 N   0  0  0  0  0  0  0  0  0  0  0  0
  189.4450  177.1450  145.6570 C   0  0  0  0  0  0  0  0  0  0  0  0
  186.8810  178.5150  142.1040 C   0  0  2  0  0  3  0  0  0  0  0  0
  191.9800  176.4690  146.5340 C   0  0  0  0  0  3  0  0  0  0  0  0
  185.4870  177.9340  146.0680 N   0  0  0  0  0  0  0  0  0  0  0  0
  189.6690  176.9130  147.0000 C   0  0  0  0  0  0  0  0  0  0  0  0
  190.9350  176.5710  147.4710 C   0  0  0  0  0  3  0  0  0  0  0  0
  187.8040  177.7630  143.0590 C   0  0  0  0  0  2  0  0  0  0  0  0
  191.7430  176.7090  145.1630 C   0  0  0  0  0  3  0  0  0  0  0  0
  187.6160  177.3880  146.8240 C   0  0  0  0  0  0  0  0  0  0  0  0
  188.5490  177.0570  147.7460 N   0  0  0  0  0  2  0  0  0  0  0  0
  184.9470  178.4200  143.6980 C   0  0  1  0  0  3  0  0  0  0  0  0
  190.4600  177.0520  144.7060 C   0  0  0  0  0  3  0  0  0  0  0  0
  185.4380  178.0550  142.2960 C   0  0  0  0  0  2  0  0  0  0  0  0
  185.9210  178.0070  144.7700 C   0  0  0  0  0  0  0  0  0  0  0  0
  189.1090  177.4020  139.1370 C   0  0  0  0  0  0  0  0  0  0  0  0
  190.3660  176.7480  139.0250 N   0  0  0  0  0  1  0  0  0  0  0  0
  188.4920  177.7430  138.0930 O   0  0  0  0  0  0  0  0  0  0  0  0
  187.3150  178.3140  140.6910 C   0  0  0  0  0  0  0  0  0  0  0  0
  188.5660  177.6660  140.4350 N   0  0  0  0  0  2  0  0  0  0  0  0
  186.5850  178.7110  139.7420 O   0  0  0  0  0  0  0  0  0  0  0  0
  184.7130  179.7950  143.7770 O   0  0  0  0  0  0  0  0  0  0  0  0
  183.3590  179.9130  144.0950 C   0  0  0  0  0  1  0  0  0  0  0  0
  1  4  1  0  0  0  0
  1 12  1  0  0  0  0
  2 17  1  0  0  0  0
  2  1  2  0  0  0  0
  4  8  1  0  0  0  0
  5 21  1  6  0  0  0
  5 16  1  0  0  0  0
  5 10  1  0  0  0  0
  6  9  1  0  0  0  0
  7  3  1  0  0  0  0
  8  9  2  0  0  0  0
  8 13  1  0  0  0  0
 10  2  1  0  0  0  0
 11  6  2  0  0  0  0
 12  3  2  0  0  0  0
 12 13  1  0  0  0  0
 14 24  1  6  0  0  0
 14 17  1  0  0  0  0
 15 11  1  0  0  0  0
 15  4  2  0  0  0  0
 16 14  1  0  0  0  0
 17  7  2  0  0  0  0
 18 22  1  0  0  0  0
 19 18  1  0  0  0  0
 20 18  2  0  0  0  0
 22 21  1  0  0  0  0
 23 21  2  0  0  0  0
 24 25  1  0  0  0  0
M  END
>  <MODEL>
5

>  <REMARK>
 VINA RESULT:      -9.4      2.403      5.191
  Name = 
  2 active torsions:
  status: ('A' for Active; 'I' for Inactive)
    1  A    between atoms: C_6  and  C_15
    2  A    between atoms: O_13  and  C_20
                            x       y       z     vdW  Elec       q    Type
                         _______ _______ _______ _____ _____    ______ ____

>  <TORSDO>
F 2

$$$$
=
 OpenBabel10272400523D

 25 28  0  0  1  0  0  0  0  0999 V2000
  187.0650  178.1000  142.6410 C   0  0  0  0  0  0  0  0  0  0  0  0
  188.3440  177.5810  142.4650 C   0  0  0  0  0  0  0  0  0  0  0  0
  186.7990  178.4440  140.3090 N   0  0  0  0  0  0  0  0  0  0  0  0
  186.2740  178.3100  143.7430 C   0  0  0  0  0  0  0  0  0  0  0  0
  190.6160  176.8900  143.2920 C   0  0  2  0  0  3  0  0  0  0  0  0
  184.2440  178.9680  145.5040 C   0  0  0  0  0  3  0  0  0  0  0  0
  188.0240  177.9450  140.1020 N   0  0  0  0  0  0  0  0  0  0  0  0
  185.0960  178.8520  143.2650 C   0  0  0  0  0  0  0  0  0  0  0  0
  184.0560  179.1930  144.1280 C   0  0  0  0  0  3  0  0  0  0  0  0
  189.1320  177.0310  143.6230 C   0  0  0  0  0  2  0  0  0  0  0  0
  185.4500  178.4140  145.9860 C   0  0  0  0  0  3  0  0  0  0  0  0
  186.3180  178.5240  141.5710 C   0  0  0  0  0  0  0  0  0  0  0  0
  185.0990  178.9940  141.9190 N   0  0  0  0  0  2  0  0  0  0  0  0
  190.2040  177.0070  140.8200 C   0  0  1  0  0  3  0  0  0  0  0  0
  186.4870  178.0770  145.1000 C   0  0  0  0  0  3  0  0  0  0  0  0
  190.7910  176.1690  141.9580 C   0  0  0  0  0  2  0  0  0  0  0  0
  188.8140  177.4970  141.1300 C   0  0  0  0  0  0  0  0  0  0  0  0
  192.0140  176.1640  146.8300 C   0  0  0  0  0  0  0  0  0  0  0  0
  191.9850  176.8500  148.0740 N   0  0  0  0  0  1  0  0  0  0  0  0
  192.6050  175.0540  146.7480 O   0  0  0  0  0  0  0  0  0  0  0  0
  191.3270  176.1630  144.3820 C   0  0  0  0  0  0  0  0  0  0  0  0
  191.3730  176.7450  145.6890 N   0  0  0  0  0  2  0  0  0  0  0  0
  191.8760  175.0510  144.1480 O   0  0  0  0  0  0  0  0  0  0  0  0
  191.0390  178.0940  140.5520 O   0  0  0  0  0  0  0  0  0  0  0  0
  192.2280  177.5290  140.0850 C   0  0  0  0  0  1  0  0  0  0  0  0
  1  4  1  0  0  0  0
  2  1  2  0  0  0  0
  2 10  1  0  0  0  0
  3 12  2  0  0  0  0
  4 15  1  0  0  0  0
  5 10  1  0  0  0  0
  5 21  1  1  0  0  0
  6 11  1  0  0  0  0
  7  3  1  0  0  0  0
  7 17  2  0  0  0  0
  8  4  2  0  0  0  0
  8  9  1  0  0  0  0
  9  6  2  0  0  0  0
 12 13  1  0  0  0  0
 12  1  1  0  0  0  0
 13  8  1  0  0  0  0
 14 24  1  1  0  0  0
 14 17  1  0  0  0  0
 14 16  1  0  0  0  0
 15 11  2  0  0  0  0
 16  5  1  0  0  0  0
 17  2  1  0  0  0  0
 18 19  1  0  0  0  0
 20 18  2  0  0  0  0
 21 22  1  0  0  0  0
 22 18  1  0  0  0  0
 23 21  2  0  0  0  0
 25 24  1  0  0  0  0
M  END
>  <MODEL>
6

>  <REMARK>
 VINA RESULT:      -9.3      2.112      4.964
  Name = 
  2 active torsions:
  status: ('A' for Active; 'I' for Inactive)
    1  A    between atoms: C_6  and  C_15
    2  A    between atoms: O_13  and  C_20
                            x       y       z     vdW  Elec       q    Type
                         _______ _______ _______ _____ _____    ______ ____

>  <TORSDO>
F 2

$$$$
=
 OpenBabel10272400523D

 25 28  0  0  1  0  0  0  0  0999 V2000
  189.4130  177.4490  144.0670 C   0  0  0  0  0  0  0  0  0  0  0  0
  189.3730  177.5620  142.6810 C   0  0  0  0  0  0  0  0  0  0  0  0
  191.7130  176.8710  144.0320 N   0  0  0  0  0  0  0  0  0  0  0  0
  188.4780  177.6220  145.0570 C   0  0  0  0  0  0  0  0  0  0  0  0
  188.1700  177.7020  140.4780 C   0  0  2  0  0  3  0  0  0  0  0  0
  187.1100  177.8060  147.4550 C   0  0  0  0  0  3  0  0  0  0  0  0
  191.7120  176.9770  142.6970 N   0  0  0  0  0  0  0  0  0  0  0  0
  189.1350  177.3680  146.2470 C   0  0  0  0  0  0  0  0  0  0  0  0
  188.4710  177.4530  147.4690 C   0  0  0  0  0  3  0  0  0  0  0  0
  188.1310  178.0260  141.9690 C   0  0  0  0  0  2  0  0  0  0  0  0
  186.4450  178.0640  146.2360 C   0  0  0  0  0  3  0  0  0  0  0  0
  190.5710  177.1050  144.7170 C   0  0  0  0  0  0  0  0  0  0  0  0
  190.4360  177.0450  146.0610 N   0  0  0  0  0  2  0  0  0  0  0  0
  190.6550  177.3610  140.4870 C   0  0  1  0  0  3  0  0  0  0  0  0
  187.1300  177.9730  145.0130 C   0  0  0  0  0  3  0  0  0  0  0  0
  189.4970  178.1530  139.8760 C   0  0  0  0  0  2  0  0  0  0  0  0
  190.5890  177.3260  141.9920 C   0  0  0  0  0  0  0  0  0  0  0  0
  184.6000  179.0970  139.9210 C   0  0  0  0  0  0  0  0  0  0  0  0
  183.4270  179.1840  140.7200 N   0  0  0  0  0  1  0  0  0  0  0  0
  184.5830  179.5480  138.7450 O   0  0  0  0  0  0  0  0  0  0  0  0
  187.0240  178.3470  139.7740 C   0  0  0  0  0  0  0  0  0  0  0  0
  185.7800  178.4980  140.4660 N   0  0  0  0  0  2  0  0  0  0  0  0
  187.1580  178.7520  138.5860 O   0  0  0  0  0  0  0  0  0  0  0  0
  190.6580  176.0590  139.9840 O   0  0  0  0  0  0  0  0  0  0  0  0
  191.1090  176.1820  138.6680 C   0  0  0  0  0  1  0  0  0  0  0  0
  1 12  1  0  0  0  0
  1  4  1  0  0  0  0
  2  1  2  0  0  0  0
  3 12  2  0  0  0  0
  4  8  1  0  0  0  0
  5 21  1  6  0  0  0
  5 10  1  0  0  0  0
  6  9  1  0  0  0  0
  7  3  1  0  0  0  0
  8  9  2  0  0  0  0
 10  2  1  0  0  0  0
 11  6  2  0  0  0  0
 12 13  1  0  0  0  0
 13  8  1  0  0  0  0
 14 24  1  6  0  0  0
 14 17  1  0  0  0  0
 15  4  2  0  0  0  0
 15 11  1  0  0  0  0
 16  5  1  0  0  0  0
 16 14  1  0  0  0  0
 17  2  1  0  0  0  0
 17  7  2  0  0  0  0
 18 22  1  0  0  0  0
 18 19  1  0  0  0  0
 20 18  2  0  0  0  0
 21 22  1  0  0  0  0
 23 21  2  0  0  0  0
 25 24  1  0  0  0  0
M  END
>  <MODEL>
7

>  <REMARK>
 VINA RESULT:      -9.3      2.914      5.340
  Name = 
  2 active torsions:
  status: ('A' for Active; 'I' for Inactive)
    1  A    between atoms: C_6  and  C_15
    2  A    between atoms: O_13  and  C_20
                            x       y       z     vdW  Elec       q    Type
                         _______ _______ _______ _____ _____    ______ ____

>  <TORSDO>
F 2

$$$$
=
 OpenBabel10272400523D

 25 28  0  0  1  0  0  0  0  0999 V2000
  187.2060  178.2700  141.2940 C   0  0  0  0  0  0  0  0  0  0  0  0
  186.4840  178.4570  142.4690 C   0  0  0  0  0  0  0  0  0  0  0  0
  185.4540  179.1800  139.9810 N   0  0  0  0  0  0  0  0  0  0  0  0
  188.4530  177.7650  141.0210 C   0  0  0  0  0  0  0  0  0  0  0  0
  186.0240  178.0440  144.9060 C   0  0  2  0  0  3  0  0  0  0  0  0
  190.7940  176.8880  139.8340 C   0  0  0  0  0  3  0  0  0  0  0  0
  184.7340  179.3810  141.0920 N   0  0  0  0  0  0  0  0  0  0  0  0
  188.6030  177.8490  139.6500 C   0  0  0  0  0  0  0  0  0  0  0  0
  189.7710  177.4160  139.0250 C   0  0  0  0  0  3  0  0  0  0  0  0
  187.0850  178.1500  143.8140 C   0  0  0  0  0  2  0  0  0  0  0  0
  190.6330  176.8040  141.2340 C   0  0  0  0  0  3  0  0  0  0  0  0
  186.6840  178.6270  140.0770 C   0  0  0  0  0  0  0  0  0  0  0  0
  187.5190  178.3820  139.0420 N   0  0  0  0  0  2  0  0  0  0  0  0
  184.3080  179.2510  143.5310 C   0  0  1  0  0  3  0  0  0  0  0  0
  189.4490  177.2470  141.8470 C   0  0  0  0  0  3  0  0  0  0  0  0
  185.0870  179.2480  144.8480 C   0  0  0  0  0  2  0  0  0  0  0  0
  185.2050  179.0520  142.3370 C   0  0  0  0  0  0  0  0  0  0  0  0
  188.7550  177.3140  147.5540 C   0  0  0  0  0  0  0  0  0  0  0  0
  190.0910  176.8310  147.5010 N   0  0  0  0  0  1  0  0  0  0  0  0
  188.2430  177.6020  148.6680 O   0  0  0  0  0  0  0  0  0  0  0  0
  186.6650  177.9390  146.2490 C   0  0  0  0  0  0  0  0  0  0  0  0
  188.0120  177.4650  146.3390 N   0  0  0  0  0  2  0  0  0  0  0  0
  186.0220  178.2660  147.2840 O   0  0  0  0  0  0  0  0  0  0  0  0
  183.3280  178.2560  143.5560 O   0  0  0  0  0  0  0  0  0  0  0  0
  182.1790  178.8940  144.0290 C   0  0  0  0  0  1  0  0  0  0  0  0
  1  2  2  0  0  0  0
  2 10  1  0  0  0  0
  3 12  2  0  0  0  0
  3  7  1  0  0  0  0
  4  1  1  0  0  0  0
  4 15  1  0  0  0  0
  5 21  1  1  0  0  0
  6 11  1  0  0  0  0
  7 17  2  0  0  0  0
  8  4  2  0  0  0  0
  9  8  1  0  0  0  0
  9  6  2  0  0  0  0
 10  5  1  0  0  0  0
 11 15  2  0  0  0  0
 12  1  1  0  0  0  0
 13  8  1  0  0  0  0
 13 12  1  0  0  0  0
 14 24  1  1  0  0  0
 14 16  1  0  0  0  0
 16  5  1  0  0  0  0
 17  2  1  0  0  0  0
 17 14  1  0  0  0  0
 18 20  2  0  0  0  0
 19 18  1  0  0  0  0
 21 22  1  0  0  0  0
 21 23  2  0  0  0  0
 22 18  1  0  0  0  0
 24 25  1  0  0  0  0
M  END
>  <MODEL>
8

>  <REMARK>
 VINA RESULT:      -9.2      3.101      7.082
  Name = 
  2 active torsions:
  status: ('A' for Active; 'I' for Inactive)
    1  A    between atoms: C_6  and  C_15
    2  A    between atoms: O_13  and  C_20
                            x       y       z     vdW  Elec       q    Type
                         _______ _______ _______ _____ _____    ______ ____

>  <TORSDO>
F 2

$$$$
=
 OpenBabel10272400523D

 25 28  0  0  1  0  0  0  0  0999 V2000
  188.1260  177.4660  145.5110 C   0  0  0  0  0  0  0  0  0  0  0  0
  187.3190  177.7980  144.4270 C   0  0  0  0  0  0  0  0  0  0  0  0
  186.2990  177.6130  147.0160 N   0  0  0  0  0  0  0  0  0  0  0  0
  189.4580  177.1600  145.6390 C   0  0  0  0  0  0  0  0  0  0  0  0
  186.9480  178.5630  142.0600 C   0  0  2  0  0  3  0  0  0  0  0  0
  191.9820  176.4840  146.5500 C   0  0  0  0  0  3  0  0  0  0  0  0
  185.4920  177.9290  145.9950 N   0  0  0  0  0  0  0  0  0  0  0  0
  189.6620  176.9130  146.9840 C   0  0  0  0  0  0  0  0  0  0  0  0
  190.9210  176.5700  147.4710 C   0  0  0  0  0  3  0  0  0  0  0  0
  187.8590  177.8030  143.0220 C   0  0  0  0  0  2  0  0  0  0  0  0
  191.7670  176.7380  145.1780 C   0  0  0  0  0  3  0  0  0  0  0  0
  187.6100  177.3820  146.7790 C   0  0  0  0  0  0  0  0  0  0  0  0
  188.5290  177.0440  147.7120 N   0  0  0  0  0  2  0  0  0  0  0  0
  184.9880  178.4420  143.6220 C   0  0  1  0  0  3  0  0  0  0  0  0
  190.4900  177.0830  144.7050 C   0  0  0  0  0  3  0  0  0  0  0  0
  185.5050  178.0950  142.2230 C   0  0  0  0  0  2  0  0  0  0  0  0
  185.9470  178.0190  144.7040 C   0  0  0  0  0  0  0  0  0  0  0  0
  186.7210  178.1460  138.2160 C   0  0  0  0  0  0  0  0  0  0  0  0
  185.6530  178.0990  137.2800 N   0  0  0  0  0  1  0  0  0  0  0  0
  187.9090  178.0370  137.8090 O   0  0  0  0  0  0  0  0  0  0  0  0
  187.4070  178.3800  140.6530 C   0  0  0  0  0  0  0  0  0  0  0  0
  186.4310  178.3160  139.6080 N   0  0  0  0  0  2  0  0  0  0  0  0
  188.6390  178.2850  140.3960 O   0  0  0  0  0  0  0  0  0  0  0  0
  184.7490  179.8150  143.7120 O   0  0  0  0  0  0  0  0  0  0  0  0
  183.4100  179.9220  144.0950 C   0  0  0  0  0  1  0  0  0  0  0  0
  1  4  1  0  0  0  0
  1 12  1  0  0  0  0
  2 17  1  0  0  0  0
  2  1  2  0  0  0  0
  4  8  1  0  0  0  0
  5 21  1  6  0  0  0
  5 16  1  0  0  0  0
  5 10  1  0  0  0  0
  6  9  1  0  0  0  0
  7  3  1  0  0  0  0
  8  9  2  0  0  0  0
  8 13  1  0  0  0  0
 10  2  1  0  0  0  0
 11  6  2  0  0  0  0
 12  3  2  0  0  0  0
 12 13  1  0  0  0  0
 14 24  1  6  0  0  0
 14 17  1  0  0  0  0
 15 11  1  0  0  0  0
 15  4  2  0  0  0  0
 16 14  1  0  0  0  0
 17  7  2  0  0  0  0
 18 22  1  0  0  0  0
 19 18  1  0  0  0  0
 20 18  2  0  0  0  0
 22 21  1  0  0  0  0
 23 21  2  0  0  0  0
 24 25  1  0  0  0  0
M  END
>  <MODEL>
9

>  <REMARK>
 VINA RESULT:      -9.0      2.653      5.307
  Name = 
  2 active torsions:
  status: ('A' for Active; 'I' for Inactive)
    1  A    between atoms: C_6  and  C_15
    2  A    between atoms: O_13  and  C_20
                            x       y       z     vdW  Elec       q    Type
                         _______ _______ _______ _____ _____    ______ ____

>  <TORSDO>
F 2

$$$$
