=
 OpenBabel10272413353D

 32 36  0  0  0  0  0  0  0  0999 V2000
  188.4030  177.5270  137.5580 N   0  0  0  0  0  0  0  0  0  0  0  0
  188.3690  177.8060  142.6560 C   0  0  0  0  0  0  0  0  0  0  0  0
  183.8720  179.4380  143.6050 N   0  0  0  0  0  2  0  0  0  0  0  0
  183.8140  178.6380  144.8230 C   0  0  0  0  0  2  0  0  0  0  0  0
  189.8990  177.3760  144.5920 C   0  0  0  0  0  0  0  0  0  0  0  0
  190.0760  177.2990  145.9810 C   0  0  0  0  0  0  0  0  0  0  0  0
  189.0820  177.6750  140.3310 C   0  0  0  0  0  0  0  0  0  0  0  0
  186.8250  178.2310  140.8590 N   0  0  0  0  0  0  0  0  0  0  0  0
  187.4430  178.1670  138.4670 C   0  0  0  0  0  2  0  0  0  0  0  0
  184.6470  178.6920  142.6170 C   0  0  0  0  0  2  0  0  0  0  0  0
  187.0720  178.1480  142.1970 C   0  0  0  0  0  0  0  0  0  0  0  0
  186.0430  178.4030  143.1120 C   0  0  0  0  0  0  0  0  0  0  0  0
  187.5660  177.9580  144.9600 C   0  0  0  0  0  0  0  0  0  0  0  0
  189.7870  177.8530  137.9360 C   0  0  0  0  0  2  0  0  0  0  0  0
  187.7800  177.9910  139.9250 C   0  0  0  0  0  0  0  0  0  0  0  0
  190.1470  177.3430  139.3350 C   0  0  0  0  0  2  0  0  0  0  0  0
  185.1880  178.6160  145.4830 C   0  0  0  0  0  2  0  0  0  0  0  0
  186.2840  178.2910  144.4940 C   0  0  0  0  0  0  0  0  0  0  0  0
  187.7870  177.8780  146.3010 N   0  0  0  0  0  0  0  0  0  0  0  0
  189.3590  177.5690  141.6910 C   0  0  0  0  0  3  0  0  0  0  0  0
  190.9930  177.1170  143.7690 O   0  0  0  0  0  1  0  0  0  0  0  0
  188.6270  177.7090  144.0520 C   0  0  0  0  0  0  0  0  0  0  0  0
  188.9960  177.5610  146.8300 C   0  0  0  0  0  0  0  0  0  0  0  0
  189.1670  177.4950  148.2160 O   0  0  0  0  0  0  0  0  0  0  0  0
  188.2130  178.0320  149.1190 C   0  0  0  0  0  1  0  0  0  0  0  0
  191.4340  175.5310  147.0520 C   0  0  0  0  0  1  0  0  0  0  0  0
  191.4180  176.9660  146.5560 C   0  0  0  0  0  2  0  0  0  0  0  0
  188.1870  176.0830  137.5550 C   0  0  0  0  0  2  0  0  0  0  0  0
  189.0500  175.4320  136.4900 C   0  0  0  0  0  2  0  0  0  0  0  0
  189.6770  174.1990  137.0350 C   0  0  0  0  0  0  0  0  0  0  0  0
  190.8490  174.2830  137.7770 O   0  0  0  0  0  1  0  0  0  0  0  0
  189.1660  173.0740  136.7960 O   0  0  0  0  0  0  0  0  0  0  0  0
  1 14  1  0  0  0  0
  1  9  1  0  0  0  0
  2 22  1  0  0  0  0
  3  4  1  0  0  0  0
  4 17  1  0  0  0  0
  5  6  2  0  0  0  0
  6 27  1  0  0  0  0
  6 23  1  0  0  0  0
  7 20  1  0  0  0  0
  8 11  2  0  0  0  0
  9 15  1  0  0  0  0
 10 12  1  0  0  0  0
 10  3  1  0  0  0  0
 11  2  1  0  0  0  0
 11 12  1  0  0  0  0
 12 18  2  0  0  0  0
 13 19  1  0  0  0  0
 14 16  1  0  0  0  0
 15  7  2  0  0  0  0
 15  8  1  0  0  0  0
 16  7  1  0  0  0  0
 18 13  1  0  0  0  0
 18 17  1  0  0  0  0
 19 23  2  0  0  0  0
 20  2  2  0  0  0  0
 21  5  1  0  0  0  0
 22  5  1  0  0  0  0
 22 13  2  0  0  0  0
 23 24  1  0  0  0  0
 24 25  1  0  0  0  0
 27 26  1  0  0  0  0
 28  1  1  0  0  0  0
 29 30  1  0  0  0  0
 29 28  1  0  0  0  0
 30 31  1  0  0  0  0
 32 30  2  0  0  0  0
M  END
>  <MODEL>
1

>  <REMARK>
 VINA RESULT:      -9.3      0.000      0.000
  Name = 
  5 active torsions:
  status: ('A' for Active; 'I' for Inactive)
    1  A    between atoms: C_1  and  C_10
    2  A    between atoms: N_2  and  C_24
    3  A    between atoms: C_7  and  C_22
    4  A    between atoms: C_10  and  C_24
    5  A    between atoms: O_11  and  C_32
                            x       y       z     vdW  Elec       q    Type
                         _______ _______ _______ _____ _____    ______ ____

>  <TORSDO>
F 5

$$$$
=
 OpenBabel10272413353D

 32 36  0  0  0  0  0  0  0  0999 V2000
  180.6660  178.8890  140.7530 N   0  0  0  0  0  0  0  0  0  0  0  0
  185.5620  178.4660  142.1400 C   0  0  0  0  0  0  0  0  0  0  0  0
  185.3180  178.7260  147.0050 N   0  0  0  0  0  2  0  0  0  0  0  0
  186.4230  177.7830  147.1330 C   0  0  0  0  0  2  0  0  0  0  0  0
  187.8180  178.1950  141.0860 C   0  0  0  0  0  0  0  0  0  0  0  0
  189.1950  177.9820  141.2480 C   0  0  0  0  0  0  0  0  0  0  0  0
  183.5230  178.8360  140.8610 C   0  0  0  0  0  0  0  0  0  0  0  0
  183.4350  178.7090  143.2400 N   0  0  0  0  0  0  0  0  0  0  0  0
  181.3090  179.1280  142.0520 C   0  0  0  0  0  2  0  0  0  0  0  0
  184.5420  178.3470  145.8270 C   0  0  0  0  0  2  0  0  0  0  0  0
  184.7820  178.5150  143.3220 C   0  0  0  0  0  0  0  0  0  0  0  0
  185.3880  178.3690  144.5770 C   0  0  0  0  0  0  0  0  0  0  0  0
  187.5580  178.0940  143.5030 C   0  0  0  0  0  0  0  0  0  0  0  0
  181.4320  179.5100  139.6620 C   0  0  0  0  0  2  0  0  0  0  0  0
  182.7900  178.8540  142.0540 C   0  0  0  0  0  0  0  0  0  0  0  0
  182.8440  178.9310  139.5320 C   0  0  0  0  0  2  0  0  0  0  0  0
  187.4370  178.0330  146.0210 C   0  0  0  0  0  2  0  0  0  0  0  0
  186.7740  178.1400  144.6680 C   0  0  0  0  0  0  0  0  0  0  0  0
  188.8990  177.8960  143.6110 N   0  0  0  0  0  0  0  0  0  0  0  0
  184.8980  178.6260  140.9150 C   0  0  0  0  0  3  0  0  0  0  0  0
  187.3170  178.3430  139.7950 O   0  0  0  0  0  1  0  0  0  0  0  0
  186.9660  178.2530  142.2230 C   0  0  0  0  0  0  0  0  0  0  0  0
  189.7250  177.8380  142.5340 C   0  0  0  0  0  0  0  0  0  0  0  0
  191.0970  177.6340  142.7050 O   0  0  0  0  0  0  0  0  0  0  0  0
  191.6150  176.4620  143.3150 C   0  0  0  0  0  1  0  0  0  0  0  0
  190.1530  176.5290  139.4920 C   0  0  0  0  0  1  0  0  0  0  0  0
  190.0990  177.9370  140.0560 C   0  0  0  0  0  2  0  0  0  0  0  0
  180.5190  177.4510  140.5370 C   0  0  0  0  0  2  0  0  0  0  0  0
  179.9830  177.1900  139.1420 C   0  0  0  0  0  2  0  0  0  0  0  0
  180.7230  176.0590  138.5220 C   0  0  0  0  0  0  0  0  0  0  0  0
  180.2430  175.4650  137.3620 O   0  0  0  0  0  0  0  0  0  0  0  0
  181.7680  175.6160  139.0670 O   0  0  0  0  0  1  0  0  0  0  0  0
  1  9  1  0  0  0  0
  2 22  2  0  0  0  0
  2 11  1  0  0  0  0
  3  4  1  0  0  0  0
  5  6  2  0  0  0  0
  5 22  1  0  0  0  0
  6 23  1  0  0  0  0
  7 20  2  0  0  0  0
  7 15  1  0  0  0  0
  8 11  1  0  0  0  0
  9 15  1  0  0  0  0
 10  3  1  0  0  0  0
 11 12  2  0  0  0  0
 12 18  1  0  0  0  0
 12 10  1  0  0  0  0
 13 19  1  0  0  0  0
 13 18  2  0  0  0  0
 14  1  1  0  0  0  0
 15  8  2  0  0  0  0
 16 14  1  0  0  0  0
 16  7  1  0  0  0  0
 17  4  1  0  0  0  0
 18 17  1  0  0  0  0
 20  2  1  0  0  0  0
 21  5  1  0  0  0  0
 22 13  1  0  0  0  0
 23 24  1  0  0  0  0
 23 19  2  0  0  0  0
 24 25  1  0  0  0  0
 26 27  1  0  0  0  0
 27  6  1  0  0  0  0
 28  1  1  0  0  0  0
 29 28  1  0  0  0  0
 30 32  1  0  0  0  0
 30 29  1  0  0  0  0
 31 30  2  0  0  0  0
M  END
>  <MODEL>
2

>  <REMARK>
 VINA RESULT:      -8.0      3.507      5.969
  Name = 
  5 active torsions:
  status: ('A' for Active; 'I' for Inactive)
    1  A    between atoms: C_1  and  C_10
    2  A    between atoms: N_2  and  C_24
    3  A    between atoms: C_7  and  C_22
    4  A    between atoms: C_10  and  C_24
    5  A    between atoms: O_11  and  C_32
                            x       y       z     vdW  Elec       q    Type
                         _______ _______ _______ _____ _____    ______ ____

>  <TORSDO>
F 5

$$$$
=
 OpenBabel10272413353D

 32 36  0  0  0  0  0  0  0  0999 V2000
  181.6830  179.8150  138.3440 N   0  0  0  0  0  0  0  0  0  0  0  0
  185.3450  178.4220  141.6180 C   0  0  0  0  0  0  0  0  0  0  0  0
  189.1030  177.4480  138.6640 N   0  0  0  0  0  2  0  0  0  0  0  0
  190.0440  177.9560  139.6560 C   0  0  0  0  0  2  0  0  0  0  0  0
  185.6790  178.1330  144.0830 C   0  0  0  0  0  0  0  0  0  0  0  0
  186.5530  177.8670  145.1480 C   0  0  0  0  0  0  0  0  0  0  0  0
  183.1890  178.9370  140.6110 C   0  0  0  0  0  0  0  0  0  0  0  0
  185.1210  178.6880  139.2360 N   0  0  0  0  0  0  0  0  0  0  0  0
  182.9800  179.1710  138.0990 C   0  0  0  0  0  2  0  0  0  0  0  0
  187.8820  178.2450  138.7580 C   0  0  0  0  0  2  0  0  0  0  0  0
  185.9090  178.4280  140.3180 C   0  0  0  0  0  0  0  0  0  0  0  0
  187.2730  178.1630  140.1360 C   0  0  0  0  0  0  0  0  0  0  0  0
  187.5490  177.9080  142.5440 C   0  0  0  0  0  0  0  0  0  0  0  0
  180.9770  179.1730  139.4630 C   0  0  0  0  0  2  0  0  0  0  0  0
  183.7950  178.9560  139.3480 C   0  0  0  0  0  0  0  0  0  0  0  0
  181.7450  179.2860  140.7840 C   0  0  0  0  0  2  0  0  0  0  0  0
  189.5580  177.5850  141.0540 C   0  0  0  0  0  2  0  0  0  0  0  0
  188.0980  177.9210  141.2510 C   0  0  0  0  0  0  0  0  0  0  0  0
  188.3580  177.6490  143.6070 N   0  0  0  0  0  0  0  0  0  0  0  0
  183.9730  178.6870  141.7330 C   0  0  0  0  0  3  0  0  0  0  0  0
  184.3370  178.3690  144.3700 O   0  0  0  0  0  1  0  0  0  0  0  0
  186.1680  178.1600  142.7490 C   0  0  0  0  0  0  0  0  0  0  0  0
  187.9040  177.6200  144.8870 C   0  0  0  0  0  0  0  0  0  0  0  0
  188.7800  177.3450  145.9410 O   0  0  0  0  0  0  0  0  0  0  0  0
  190.1840  177.2600  145.7530 C   0  0  0  0  0  1  0  0  0  0  0  0
  186.0170  179.2150  147.1500 C   0  0  0  0  0  1  0  0  0  0  0  0
  186.0410  177.8200  146.5540 C   0  0  0  0  0  2  0  0  0  0  0  0
  181.8840  181.2390  138.6000 C   0  0  0  0  0  2  0  0  0  0  0  0
  180.6210  182.0090  138.2600 C   0  0  0  0  0  2  0  0  0  0  0  0
  180.8760  182.9110  137.1060 C   0  0  0  0  0  0  0  0  0  0  0  0
  181.4690  184.1500  137.3100 O   0  0  0  0  0  1  0  0  0  0  0  0
  180.5250  182.5660  135.9480 O   0  0  0  0  0  0  0  0  0  0  0  0
  1 28  1  0  0  0  0
  1 14  1  0  0  0  0
  2 20  2  0  0  0  0
  2 22  1  0  0  0  0
  3 10  1  0  0  0  0
  3  4  1  0  0  0  0
  4 17  1  0  0  0  0
  5 21  1  0  0  0  0
  5  6  2  0  0  0  0
  6 27  1  0  0  0  0
  7 16  1  0  0  0  0
  7 20  1  0  0  0  0
  8 15  1  0  0  0  0
  8 11  2  0  0  0  0
  9  1  1  0  0  0  0
  9 15  1  0  0  0  0
 10 12  1  0  0  0  0
 11  2  1  0  0  0  0
 12 11  1  0  0  0  0
 12 18  2  0  0  0  0
 13 22  2  0  0  0  0
 13 19  1  0  0  0  0
 14 16  1  0  0  0  0
 15  7  2  0  0  0  0
 17 18  1  0  0  0  0
 18 13  1  0  0  0  0
 19 23  2  0  0  0  0
 22  5  1  0  0  0  0
 23  6  1  0  0  0  0
 23 24  1  0  0  0  0
 25 24  1  0  0  0  0
 27 26  1  0  0  0  0
 29 28  1  0  0  0  0
 30 31  1  0  0  0  0
 30 29  1  0  0  0  0
 32 30  2  0  0  0  0
M  END
>  <MODEL>
3

>  <REMARK>
 VINA RESULT:      -8.0      4.580      6.695
  Name = 
  5 active torsions:
  status: ('A' for Active; 'I' for Inactive)
    1  A    between atoms: C_1  and  C_10
    2  A    between atoms: N_2  and  C_24
    3  A    between atoms: C_7  and  C_22
    4  A    between atoms: C_10  and  C_24
    5  A    between atoms: O_11  and  C_32
                            x       y       z     vdW  Elec       q    Type
                         _______ _______ _______ _____ _____    ______ ____

>  <TORSDO>
F 5

$$$$
=
 OpenBabel10272413353D

 32 36  0  0  0  0  0  0  0  0999 V2000
  189.8290  177.4870  147.0020 N   0  0  0  0  0  0  0  0  0  0  0  0
  185.8900  178.4070  143.8860 C   0  0  0  0  0  0  0  0  0  0  0  0
  188.0280  178.6500  139.5080 N   0  0  0  0  0  2  0  0  0  0  0  0
  186.8620  178.0390  138.8800 C   0  0  0  0  0  2  0  0  0  0  0  0
  183.4100  178.7370  144.0050 C   0  0  0  0  0  0  0  0  0  0  0  0
  182.1920  178.9030  143.3290 C   0  0  0  0  0  0  0  0  0  0  0  0
  187.3100  178.2030  145.8540 C   0  0  0  0  0  0  0  0  0  0  0  0
  188.2660  178.0850  143.6730 N   0  0  0  0  0  0  0  0  0  0  0  0
  189.8100  177.9060  145.5940 C   0  0  0  0  0  2  0  0  0  0  0  0
  188.1780  178.0630  140.8370 C   0  0  0  0  0  2  0  0  0  0  0  0
  187.0490  178.2600  143.0830 C   0  0  0  0  0  0  0  0  0  0  0  0
  186.9520  178.2960  141.6860 C   0  0  0  0  0  0  0  0  0  0  0  0
  184.5400  178.5990  141.8560 C   0  0  0  0  0  0  0  0  0  0  0  0
  188.8800  178.2780  147.8010 C   0  0  0  0  0  2  0  0  0  0  0  0
  188.4230  178.0370  145.0200 C   0  0  0  0  0  0  0  0  0  0  0  0
  187.4300  178.0960  147.3400 C   0  0  0  0  0  2  0  0  0  0  0  0
  185.5950  178.5380  139.5660 C   0  0  0  0  0  2  0  0  0  0  0  0
  185.6950  178.4470  141.0710 C   0  0  0  0  0  0  0  0  0  0  0  0
  183.3370  178.7690  141.2430 N   0  0  0  0  0  0  0  0  0  0  0  0
  186.0530  178.3690  145.2780 C   0  0  0  0  0  3  0  0  0  0  0  0
  183.3990  178.7310  145.3980 O   0  0  0  0  0  1  0  0  0  0  0  0
  184.6180  178.5790  143.2720 C   0  0  0  0  0  0  0  0  0  0  0  0
  182.1760  178.9210  141.9310 C   0  0  0  0  0  0  0  0  0  0  0  0
  180.9680  179.0940  141.2490 O   0  0  0  0  0  0  0  0  0  0  0  0
  180.9100  179.6550  139.9470 C   0  0  0  0  0  1  0  0  0  0  0  0
  180.1150  177.8000  144.0930 C   0  0  0  0  0  1  0  0  0  0  0  0
  180.9200  179.0870  144.0960 C   0  0  0  0  0  2  0  0  0  0  0  0
  189.5280  176.0610  147.0930 C   0  0  0  0  0  2  0  0  0  0  0  0
  190.6330  175.3460  147.8480 C   0  0  0  0  0  2  0  0  0  0  0  0
  191.9580  175.7920  147.3420 C   0  0  0  0  0  0  0  0  0  0  0  0
  192.3560  175.4650  146.0520 O   0  0  0  0  0  0  0  0  0  0  0  0
  192.7340  176.4370  148.0930 O   0  0  0  0  0  1  0  0  0  0  0  0
  1 28  1  0  0  0  0
  1 14  1  0  0  0  0
  2 20  2  0  0  0  0
  3 10  1  0  0  0  0
  4  3  1  0  0  0  0
  4 17  1  0  0  0  0
  5 21  1  0  0  0  0
  6  5  2  0  0  0  0
  6 27  1  0  0  0  0
  7 16  1  0  0  0  0
  8 15  1  0  0  0  0
  9  1  1  0  0  0  0
 10 12  1  0  0  0  0
 11  8  2  0  0  0  0
 11  2  1  0  0  0  0
 12 11  1  0  0  0  0
 13 22  2  0  0  0  0
 15  9  1  0  0  0  0
 15  7  2  0  0  0  0
 16 14  1  0  0  0  0
 17 18  1  0  0  0  0
 18 12  2  0  0  0  0
 18 13  1  0  0  0  0
 19 13  1  0  0  0  0
 19 23  2  0  0  0  0
 20  7  1  0  0  0  0
 22  2  1  0  0  0  0
 22  5  1  0  0  0  0
 23  6  1  0  0  0  0
 24 23  1  0  0  0  0
 25 24  1  0  0  0  0
 26 27  1  0  0  0  0
 28 29  1  0  0  0  0
 30 29  1  0  0  0  0
 30 32  1  0  0  0  0
 31 30  2  0  0  0  0
M  END
>  <MODEL>
4

>  <REMARK>
 VINA RESULT:      -7.8      3.087      7.876
  Name = 
  5 active torsions:
  status: ('A' for Active; 'I' for Inactive)
    1  A    between atoms: C_1  and  C_10
    2  A    between atoms: N_2  and  C_24
    3  A    between atoms: C_7  and  C_22
    4  A    between atoms: C_10  and  C_24
    5  A    between atoms: O_11  and  C_32
                            x       y       z     vdW  Elec       q    Type
                         _______ _______ _______ _____ _____    ______ ____

>  <TORSDO>
F 5

$$$$
=
 OpenBabel10272413353D

 32 36  0  0  0  0  0  0  0  0999 V2000
  191.5350  177.7650  144.3880 N   0  0  0  0  0  0  0  0  0  0  0  0
  189.1300  177.6370  139.8860 C   0  0  0  0  0  0  0  0  0  0  0  0
  192.6780  176.2950  136.8200 N   0  0  0  0  0  2  0  0  0  0  0  0
  191.7280  175.5310  136.0190 C   0  0  0  0  0  2  0  0  0  0  0  0
  186.8480  178.0460  138.9400 C   0  0  0  0  0  0  0  0  0  0  0  0
  185.9850  177.9950  137.8340 C   0  0  0  0  0  0  0  0  0  0  0  0
  189.7210  178.0960  142.2040 C   0  0  0  0  0  0  0  0  0  0  0  0
  191.3510  177.2060  140.7090 N   0  0  0  0  0  0  0  0  0  0  0  0
  192.0760  177.6690  143.0260 C   0  0  0  0  0  2  0  0  0  0  0  0
  192.2610  176.2030  138.2170 C   0  0  0  0  0  2  0  0  0  0  0  0
  190.4600  177.1930  139.6770 C   0  0  0  0  0  0  0  0  0  0  0  0
  190.8660  176.7440  138.4140 C   0  0  0  0  0  0  0  0  0  0  0  0
  188.6250  177.1440  137.5450 C   0  0  0  0  0  0  0  0  0  0  0  0
  190.5000  178.8060  144.4740 C   0  0  0  0  0  2  0  0  0  0  0  0
  191.0160  177.6260  141.9560 C   0  0  0  0  0  0  0  0  0  0  0  0
  189.2940  178.5100  143.5760 C   0  0  0  0  0  2  0  0  0  0  0  0
  190.3930  176.2660  135.9760 C   0  0  0  0  0  2  0  0  0  0  0  0
  189.9440  176.7020  137.3510 C   0  0  0  0  0  0  0  0  0  0  0  0
  187.7540  177.1180  136.5000 N   0  0  0  0  0  0  0  0  0  0  0  0
  188.7870  178.0820  141.1710 C   0  0  0  0  0  3  0  0  0  0  0  0
  186.3480  178.5240  140.1490 O   0  0  0  0  0  1  0  0  0  0  0  0
  188.1970  177.6160  138.8130 C   0  0  0  0  0  0  0  0  0  0  0  0
  186.4630  177.5270  136.6070 C   0  0  0  0  0  0  0  0  0  0  0  0
  185.6130  177.4810  135.4990 O   0  0  0  0  0  0  0  0  0  0  0  0
  185.1650  176.2540  134.9430 C   0  0  0  0  0  1  0  0  0  0  0  0
  183.6650  177.3060  138.3400 C   0  0  0  0  0  1  0  0  0  0  0  0
  184.5690  178.4640  137.9580 C   0  0  0  0  0  2  0  0  0  0  0  0
  191.0070  176.4670  144.7990 C   0  0  0  0  0  2  0  0  0  0  0  0
  191.8530  175.8950  145.9200 C   0  0  0  0  0  2  0  0  0  0  0  0
  191.4280  176.4800  147.2200 C   0  0  0  0  0  0  0  0  0  0  0  0
  190.0930  176.7930  147.4380 O   0  0  0  0  0  0  0  0  0  0  0  0
  192.2830  176.7230  148.1100 O   0  0  0  0  0  1  0  0  0  0  0  0
  1 14  1  0  0  0  0
  1 28  1  0  0  0  0
  2 20  1  0  0  0  0
  3 10  1  0  0  0  0
  4  3  1  0  0  0  0
  5 21  1  0  0  0  0
  6 27  1  0  0  0  0
  6  5  2  0  0  0  0
  7 16  1  0  0  0  0
  8 15  2  0  0  0  0
  9  1  1  0  0  0  0
 10 12  1  0  0  0  0
 11  2  1  0  0  0  0
 11  8  1  0  0  0  0
 12 11  2  0  0  0  0
 13 22  1  0  0  0  0
 15  7  1  0  0  0  0
 15  9  1  0  0  0  0
 16 14  1  0  0  0  0
 17  4  1  0  0  0  0
 17 18  1  0  0  0  0
 18 13  2  0  0  0  0
 18 12  1  0  0  0  0
 19 23  2  0  0  0  0
 19 13  1  0  0  0  0
 20  7  2  0  0  0  0
 22  5  1  0  0  0  0
 22  2  2  0  0  0  0
 23  6  1  0  0  0  0
 24 23  1  0  0  0  0
 25 24  1  0  0  0  0
 27 26  1  0  0  0  0
 28 29  1  0  0  0  0
 29 30  1  0  0  0  0
 30 31  2  0  0  0  0
 30 32  1  0  0  0  0
M  END
>  <MODEL>
5

>  <REMARK>
 VINA RESULT:      -7.6      3.284      8.770
  Name = 
  5 active torsions:
  status: ('A' for Active; 'I' for Inactive)
    1  A    between atoms: C_1  and  C_10
    2  A    between atoms: N_2  and  C_24
    3  A    between atoms: C_7  and  C_22
    4  A    between atoms: C_10  and  C_24
    5  A    between atoms: O_11  and  C_32
                            x       y       z     vdW  Elec       q    Type
                         _______ _______ _______ _____ _____    ______ ____

>  <TORSDO>
F 5

$$$$
=
 OpenBabel10272413353D

 32 36  0  0  0  0  0  0  0  0999 V2000
  190.6970  176.6850  137.0670 N   0  0  0  0  0  0  0  0  0  0  0  0
  188.3000  177.5610  141.4900 C   0  0  0  0  0  0  0  0  0  0  0  0
  184.1600  179.7030  140.0530 N   0  0  0  0  0  2  0  0  0  0  0  0
  183.4250  179.0590  141.1350 C   0  0  0  0  0  2  0  0  0  0  0  0
  188.6590  177.2190  143.9450 C   0  0  0  0  0  0  0  0  0  0  0  0
  188.1470  177.2900  145.2490 C   0  0  0  0  0  0  0  0  0  0  0  0
  190.0010  177.0920  139.8100 C   0  0  0  0  0  0  0  0  0  0  0  0
  187.8630  177.9140  139.1490 N   0  0  0  0  0  0  0  0  0  0  0  0
  189.5210  177.5130  137.3610 C   0  0  0  0  0  2  0  0  0  0  0  0
  185.1990  178.7780  139.6060 C   0  0  0  0  0  2  0  0  0  0  0  0
  187.4340  177.9650  140.4430 C   0  0  0  0  0  0  0  0  0  0  0  0
  186.1410  178.4200  140.7300 C   0  0  0  0  0  0  0  0  0  0  0  0
  186.5340  178.0550  143.1070 C   0  0  0  0  0  0  0  0  0  0  0  0
  191.7690  176.9230  138.0470 C   0  0  0  0  0  2  0  0  0  0  0  0
  189.1020  177.4790  138.8080 C   0  0  0  0  0  0  0  0  0  0  0  0
  191.3520  176.5490  139.4730 C   0  0  0  0  0  2  0  0  0  0  0  0
  184.3070  178.9870  142.3770 C   0  0  0  0  0  2  0  0  0  0  0  0
  185.6830  178.4490  142.0610 C   0  0  0  0  0  0  0  0  0  0  0  0
  186.0820  178.1120  144.3890 N   0  0  0  0  0  0  0  0  0  0  0  0
  189.5850  177.1210  141.1390 C   0  0  0  0  0  3  0  0  0  0  0  0
  189.9650  176.7660  143.7690 O   0  0  0  0  0  1  0  0  0  0  0  0
  187.8520  177.6040  142.8390 C   0  0  0  0  0  0  0  0  0  0  0  0
  186.8420  177.7480  145.4540 C   0  0  0  0  0  0  0  0  0  0  0  0
  186.3270  177.8290  146.7510 O   0  0  0  0  0  0  0  0  0  0  0  0
  185.0250  178.3290  147.0150 C   0  0  0  0  0  1  0  0  0  0  0  0
  189.1880  178.0900  147.3440 C   0  0  0  0  0  1  0  0  0  0  0  0
  188.9980  176.9030  146.4180 C   0  0  0  0  0  2  0  0  0  0  0  0
  190.3120  175.2760  137.0440 C   0  0  0  0  0  2  0  0  0  0  0  0
  190.3450  174.7540  135.6200 C   0  0  0  0  0  2  0  0  0  0  0  0
  190.2500  173.2700  135.6270 C   0  0  0  0  0  0  0  0  0  0  0  0
  189.0880  172.6490  136.0640 O   0  0  0  0  0  1  0  0  0  0  0  0
  191.2360  172.5740  135.2680 O   0  0  0  0  0  0  0  0  0  0  0  0
  1  9  1  0  0  0  0
  1 14  1  0  0  0  0
  2 22  1  0  0  0  0
  3  4  1  0  0  0  0
  4 17  1  0  0  0  0
  5  6  2  0  0  0  0
  6 23  1  0  0  0  0
  6 27  1  0  0  0  0
  7 20  1  0  0  0  0
  8 11  2  0  0  0  0
  9 15  1  0  0  0  0
 10  3  1  0  0  0  0
 10 12  1  0  0  0  0
 11 12  1  0  0  0  0
 11  2  1  0  0  0  0
 12 18  2  0  0  0  0
 13 19  1  0  0  0  0
 14 16  1  0  0  0  0
 15  8  1  0  0  0  0
 15  7  2  0  0  0  0
 16  7  1  0  0  0  0
 18 17  1  0  0  0  0
 18 13  1  0  0  0  0
 19 23  2  0  0  0  0
 20  2  2  0  0  0  0
 21  5  1  0  0  0  0
 22 13  2  0  0  0  0
 22  5  1  0  0  0  0
 23 24  1  0  0  0  0
 24 25  1  0  0  0  0
 27 26  1  0  0  0  0
 28  1  1  0  0  0  0
 29 30  1  0  0  0  0
 29 28  1  0  0  0  0
 30 31  1  0  0  0  0
 32 30  2  0  0  0  0
M  END
>  <MODEL>
6

>  <REMARK>
 VINA RESULT:      -7.3      1.689      2.427
  Name = 
  5 active torsions:
  status: ('A' for Active; 'I' for Inactive)
    1  A    between atoms: C_1  and  C_10
    2  A    between atoms: N_2  and  C_24
    3  A    between atoms: C_7  and  C_22
    4  A    between atoms: C_10  and  C_24
    5  A    between atoms: O_11  and  C_32
                            x       y       z     vdW  Elec       q    Type
                         _______ _______ _______ _____ _____    ______ ____

>  <TORSDO>
F 5

$$$$
=
 OpenBabel10272413353D

 32 36  0  0  0  0  0  0  0  0999 V2000
  193.5370  175.5570  136.3320 N   0  0  0  0  0  0  0  0  0  0  0  0
  189.5650  177.1880  139.0950 C   0  0  0  0  0  0  0  0  0  0  0  0
  191.3450  177.1680  143.6360 N   0  0  0  0  0  2  0  0  0  0  0  0
  190.5580  178.3470  143.9750 C   0  0  0  0  0  2  0  0  0  0  0  0
  187.1910  177.9130  138.7640 C   0  0  0  0  0  0  0  0  0  0  0  0
  186.0170  178.4490  139.3140 C   0  0  0  0  0  0  0  0  0  0  0  0
  190.9480  176.2780  137.3090 C   0  0  0  0  0  0  0  0  0  0  0  0
  191.8410  176.5220  139.5060 N   0  0  0  0  0  0  0  0  0  0  0  0
  193.3250  175.5510  137.7850 C   0  0  0  0  0  2  0  0  0  0  0  0
  191.7480  177.2850  142.2370 C   0  0  0  0  0  2  0  0  0  0  0  0
  190.6650  177.0290  139.9740 C   0  0  0  0  0  0  0  0  0  0  0  0
  190.5500  177.3860  141.3240 C   0  0  0  0  0  0  0  0  0  0  0  0
  188.2490  178.0930  140.9460 C   0  0  0  0  0  0  0  0  0  0  0  0
  192.3450  175.0670  135.6220 C   0  0  0  0  0  2  0  0  0  0  0  0
  192.0150  176.1620  138.2090 C   0  0  0  0  0  0  0  0  0  0  0  0
  191.1160  175.9500  135.8600 C   0  0  0  0  0  2  0  0  0  0  0  0
  189.2050  178.2740  143.2730 C   0  0  0  0  0  2  0  0  0  0  0  0
  189.3480  177.9360  141.8080 C   0  0  0  0  0  0  0  0  0  0  0  0
  187.0870  178.6040  141.4370 N   0  0  0  0  0  0  0  0  0  0  0  0
  189.7400  176.8050  137.7570 C   0  0  0  0  0  3  0  0  0  0  0  0
  187.1960  177.5760  137.4120 O   0  0  0  0  0  1  0  0  0  0  0  0
  188.3400  177.7250  139.5790 C   0  0  0  0  0  0  0  0  0  0  0  0
  185.9820  178.7890  140.6700 C   0  0  0  0  0  0  0  0  0  0  0  0
  184.8140  179.3160  141.2280 O   0  0  0  0  0  0  0  0  0  0  0  0
  184.1390  178.6810  142.3030 C   0  0  0  0  0  1  0  0  0  0  0  0
  183.9500  177.3740  138.4850 C   0  0  0  0  0  1  0  0  0  0  0  0
  184.7980  178.6330  138.4640 C   0  0  0  0  0  2  0  0  0  0  0  0
  193.8890  176.9060  135.8940 C   0  0  0  0  0  2  0  0  0  0  0  0
  194.8770  176.8350  134.7450 C   0  0  0  0  0  2  0  0  0  0  0  0
  196.1110  177.5870  135.0950 C   0  0  0  0  0  0  0  0  0  0  0  0
  197.2180  176.9140  135.5960 O   0  0  0  0  0  1  0  0  0  0  0  0
  196.1420  178.8390  134.9710 O   0  0  0  0  0  0  0  0  0  0  0  0
  1  9  1  0  0  0  0
  2 22  2  0  0  0  0
  2 11  1  0  0  0  0
  3  4  1  0  0  0  0
  5  6  2  0  0  0  0
  5 22  1  0  0  0  0
  6 23  1  0  0  0  0
  7 20  2  0  0  0  0
  7 15  1  0  0  0  0
  8 11  1  0  0  0  0
  9 15  1  0  0  0  0
 10  3  1  0  0  0  0
 11 12  2  0  0  0  0
 12 18  1  0  0  0  0
 12 10  1  0  0  0  0
 13 19  1  0  0  0  0
 13 18  2  0  0  0  0
 14 16  1  0  0  0  0
 14  1  1  0  0  0  0
 15  8  2  0  0  0  0
 16  7  1  0  0  0  0
 17  4  1  0  0  0  0
 18 17  1  0  0  0  0
 20  2  1  0  0  0  0
 21  5  1  0  0  0  0
 22 13  1  0  0  0  0
 23 24  1  0  0  0  0
 23 19  2  0  0  0  0
 24 25  1  0  0  0  0
 27 26  1  0  0  0  0
 27  6  1  0  0  0  0
 28  1  1  0  0  0  0
 29 30  1  0  0  0  0
 29 28  1  0  0  0  0
 30 31  1  0  0  0  0
 32 30  2  0  0  0  0
M  END
>  <MODEL>
7

>  <REMARK>
 VINA RESULT:      -7.2      3.717      6.534
  Name = 
  5 active torsions:
  status: ('A' for Active; 'I' for Inactive)
    1  A    between atoms: C_1  and  C_10
    2  A    between atoms: N_2  and  C_24
    3  A    between atoms: C_7  and  C_22
    4  A    between atoms: C_10  and  C_24
    5  A    between atoms: O_11  and  C_32
                            x       y       z     vdW  Elec       q    Type
                         _______ _______ _______ _____ _____    ______ ____

>  <TORSDO>
F 5

$$$$
=
 OpenBabel10272413353D

 32 36  0  0  0  0  0  0  0  0999 V2000
  191.6140  177.6830  144.3490 N   0  0  0  0  0  0  0  0  0  0  0  0
  188.2590  177.9250  140.5080 C   0  0  0  0  0  0  0  0  0  0  0  0
  190.9420  176.5810  136.6620 N   0  0  0  0  0  2  0  0  0  0  0  0
  189.7920  175.9110  136.0660 C   0  0  0  0  0  2  0  0  0  0  0  0
  185.8520  178.4990  140.1220 C   0  0  0  0  0  0  0  0  0  0  0  0
  184.7630  178.5520  139.2400 C   0  0  0  0  0  0  0  0  0  0  0  0
  189.3800  178.2240  142.6490 C   0  0  0  0  0  0  0  0  0  0  0  0
  190.5770  177.3390  140.7870 N   0  0  0  0  0  0  0  0  0  0  0  0
  191.8290  177.6360  142.8970 C   0  0  0  0  0  2  0  0  0  0  0  0
  190.8430  176.4330  138.1120 C   0  0  0  0  0  2  0  0  0  0  0  0
  189.4790  177.4280  139.9840 C   0  0  0  0  0  0  0  0  0  0  0  0
  189.5630  177.0300  138.6440 C   0  0  0  0  0  0  0  0  0  0  0  0
  187.2130  177.5890  138.3240 C   0  0  0  0  0  0  0  0  0  0  0  0
  190.6900  178.7670  144.7120 C   0  0  0  0  0  2  0  0  0  0  0  0
  190.5560  177.7050  142.0940 C   0  0  0  0  0  0  0  0  0  0  0  0
  189.2980  178.5810  144.0990 C   0  0  0  0  0  2  0  0  0  0  0  0
  188.5280  176.7130  136.3580 C   0  0  0  0  0  2  0  0  0  0  0  0
  188.4260  177.0930  137.8170 C   0  0  0  0  0  0  0  0  0  0  0  0
  186.1310  177.6650  137.5030 N   0  0  0  0  0  0  0  0  0  0  0  0
  188.2400  178.3140  141.8550 C   0  0  0  0  0  3  0  0  0  0  0  0
  185.6660  178.9330  141.4330 O   0  0  0  0  0  1  0  0  0  0  0  0
  187.1090  178.0090  139.6750 C   0  0  0  0  0  0  0  0  0  0  0  0
  184.9240  178.1300  137.9170 C   0  0  0  0  0  0  0  0  0  0  0  0
  183.8460  178.1880  137.0300 O   0  0  0  0  0  0  0  0  0  0  0  0
  183.2150  177.0170  136.5330 C   0  0  0  0  0  1  0  0  0  0  0  0
  183.0260  180.2690  138.8500 C   0  0  0  0  0  1  0  0  0  0  0  0
  183.4410  179.0830  139.7020 C   0  0  0  0  0  2  0  0  0  0  0  0
  191.1130  176.3910  144.8120 C   0  0  0  0  0  2  0  0  0  0  0  0
  191.9360  175.9100  145.9930 C   0  0  0  0  0  2  0  0  0  0  0  0
  191.3600  176.4410  147.2570 C   0  0  0  0  0  0  0  0  0  0  0  0
  189.9830  176.5580  147.3990 O   0  0  0  0  0  0  0  0  0  0  0  0
  192.1200  176.8180  148.1860 O   0  0  0  0  0  1  0  0  0  0  0  0
  1 14  1  0  0  0  0
  1 28  1  0  0  0  0
  2 20  1  0  0  0  0
  3 10  1  0  0  0  0
  4 17  1  0  0  0  0
  4  3  1  0  0  0  0
  5 21  1  0  0  0  0
  6 27  1  0  0  0  0
  6  5  2  0  0  0  0
  7 16  1  0  0  0  0
  8 15  2  0  0  0  0
  9  1  1  0  0  0  0
 10 12  1  0  0  0  0
 11  2  1  0  0  0  0
 11  8  1  0  0  0  0
 12 11  2  0  0  0  0
 13 22  1  0  0  0  0
 15  7  1  0  0  0  0
 15  9  1  0  0  0  0
 16 14  1  0  0  0  0
 17 18  1  0  0  0  0
 18 13  2  0  0  0  0
 18 12  1  0  0  0  0
 19 23  2  0  0  0  0
 19 13  1  0  0  0  0
 20  7  2  0  0  0  0
 22  5  1  0  0  0  0
 22  2  2  0  0  0  0
 23  6  1  0  0  0  0
 24 23  1  0  0  0  0
 25 24  1  0  0  0  0
 26 27  1  0  0  0  0
 28 29  1  0  0  0  0
 29 30  1  0  0  0  0
 30 31  2  0  0  0  0
 30 32  1  0  0  0  0
M  END
>  <MODEL>
8

>  <REMARK>
 VINA RESULT:      -6.9      3.217      8.332
  Name = 
  5 active torsions:
  status: ('A' for Active; 'I' for Inactive)
    1  A    between atoms: C_1  and  C_10
    2  A    between atoms: N_2  and  C_24
    3  A    between atoms: C_7  and  C_22
    4  A    between atoms: C_10  and  C_24
    5  A    between atoms: O_11  and  C_32
                            x       y       z     vdW  Elec       q    Type
                         _______ _______ _______ _____ _____    ______ ____

>  <TORSDO>
F 5

$$$$
=
 OpenBabel10272413353D

 32 36  0  0  0  0  0  0  0  0999 V2000
  191.9560  175.8230  135.7080 N   0  0  0  0  0  0  0  0  0  0  0  0
  189.6800  177.1880  140.0710 C   0  0  0  0  0  0  0  0  0  0  0  0
  185.5060  179.1770  138.5190 N   0  0  0  0  0  2  0  0  0  0  0  0
  184.7990  178.6590  139.6840 C   0  0  0  0  0  2  0  0  0  0  0  0
  190.1050  177.1150  142.5380 C   0  0  0  0  0  0  0  0  0  0  0  0
  189.6280  177.3300  143.8400 C   0  0  0  0  0  0  0  0  0  0  0  0
  191.3340  176.5310  138.4080 C   0  0  0  0  0  0  0  0  0  0  0  0
  189.1800  177.2850  137.7180 N   0  0  0  0  0  0  0  0  0  0  0  0
  190.7890  176.6830  135.9410 C   0  0  0  0  0  2  0  0  0  0  0  0
  186.5310  178.2050  138.1490 C   0  0  0  0  0  2  0  0  0  0  0  0
  188.7870  177.4790  139.0090 C   0  0  0  0  0  0  0  0  0  0  0  0
  187.5030  177.9680  139.2790 C   0  0  0  0  0  0  0  0  0  0  0  0
  187.9590  177.8640  141.6700 C   0  0  0  0  0  0  0  0  0  0  0  0
  193.0540  176.1610  136.6270 C   0  0  0  0  0  2  0  0  0  0  0  0
  190.4090  176.8090  137.3940 C   0  0  0  0  0  0  0  0  0  0  0  0
  192.6750  175.9480  138.0960 C   0  0  0  0  0  2  0  0  0  0  0  0
  185.7150  178.7200  140.9020 C   0  0  0  0  0  2  0  0  0  0  0  0
  187.0800  178.1440  140.6110 C   0  0  0  0  0  0  0  0  0  0  0  0
  187.5420  178.0630  142.9500 N   0  0  0  0  0  0  0  0  0  0  0  0
  190.9540  176.7070  139.7360 C   0  0  0  0  0  3  0  0  0  0  0  0
  191.4040  176.6400  142.3780 O   0  0  0  0  0  1  0  0  0  0  0  0
  189.2690  177.3800  141.4190 C   0  0  0  0  0  0  0  0  0  0  0  0
  188.3300  177.8140  144.0280 C   0  0  0  0  0  0  0  0  0  0  0  0
  187.8500  178.0390  145.3220 O   0  0  0  0  0  0  0  0  0  0  0  0
  186.5230  177.7070  145.7020 C   0  0  0  0  0  1  0  0  0  0  0  0
  191.5910  178.1310  145.1120 C   0  0  0  0  0  1  0  0  0  0  0  0
  190.5100  177.0700  145.0210 C   0  0  0  0  0  2  0  0  0  0  0  0
  191.5680  174.4220  135.8500 C   0  0  0  0  0  2  0  0  0  0  0  0
  192.3190  173.5720  134.8420 C   0  0  0  0  0  2  0  0  0  0  0  0
  193.1650  172.5780  135.5530 C   0  0  0  0  0  0  0  0  0  0  0  0
  194.4110  172.9470  136.0420 O   0  0  0  0  0  1  0  0  0  0  0  0
  192.7680  171.3910  135.6830 O   0  0  0  0  0  0  0  0  0  0  0  0
  1 28  1  0  0  0  0
  1  9  1  0  0  0  0
  1 14  1  0  0  0  0
  2 22  1  0  0  0  0
  3  4  1  0  0  0  0
  4 17  1  0  0  0  0
  5  6  2  0  0  0  0
  6 23  1  0  0  0  0
  6 27  1  0  0  0  0
  7 20  1  0  0  0  0
  8 11  2  0  0  0  0
  9 15  1  0  0  0  0
 10  3  1  0  0  0  0
 10 12  1  0  0  0  0
 11 12  1  0  0  0  0
 11  2  1  0  0  0  0
 12 18  2  0  0  0  0
 13 19  1  0  0  0  0
 14 16  1  0  0  0  0
 15  8  1  0  0  0  0
 15  7  2  0  0  0  0
 16  7  1  0  0  0  0
 18 17  1  0  0  0  0
 18 13  1  0  0  0  0
 19 23  2  0  0  0  0
 20  2  2  0  0  0  0
 21  5  1  0  0  0  0
 22 13  2  0  0  0  0
 22  5  1  0  0  0  0
 23 24  1  0  0  0  0
 24 25  1  0  0  0  0
 27 26  1  0  0  0  0
 29 30  1  0  0  0  0
 29 28  1  0  0  0  0
 30 32  2  0  0  0  0
 30 31  1  0  0  0  0
M  END
>  <MODEL>
9

>  <REMARK>
 VINA RESULT:      -6.8      2.346      3.716
  Name = 
  5 active torsions:
  status: ('A' for Active; 'I' for Inactive)
    1  A    between atoms: C_1  and  C_10
    2  A    between atoms: N_2  and  C_24
    3  A    between atoms: C_7  and  C_22
    4  A    between atoms: C_10  and  C_24
    5  A    between atoms: O_11  and  C_32
                            x       y       z     vdW  Elec       q    Type
                         _______ _______ _______ _____ _____    ______ ____

>  <TORSDO>
F 5

$$$$
