=
 OpenBabel10272400123D

 34 38  0  0  1  0  0  0  0  0999 V2000
  190.1180  177.2480  146.7930 C   0  0  0  0  0  0  0  0  0  0  0  0
  191.5590  175.8140  145.4480 C   0  0  0  0  0  0  0  0  0  0  0  0
  189.6410  177.0920  144.4100 C   0  0  0  0  0  0  0  0  0  0  0  0
  189.1920  177.7610  142.0110 C   0  0  1  0  0  3  0  0  0  0  0  0
  190.9550  177.0490  147.8920 C   0  0  0  0  0  3  0  0  0  0  0  0
  192.3740  175.6230  146.5680 C   0  0  0  0  0  3  0  0  0  0  0  0
  191.4900  177.3310  142.6760 C   0  0  0  0  0  2  0  0  0  0  0  0
  190.4560  176.7140  145.5190 C   0  0  0  0  0  0  0  0  0  0  0  0
  191.8580  176.9730  141.2340 C   0  0  0  0  0  2  0  0  0  0  0  0
  189.4560  177.3790  140.5640 C   0  0  0  0  0  2  0  0  0  0  0  0
  192.0940  176.2610  147.7740 C   0  0  0  0  0  3  0  0  0  0  0  0
  188.3760  177.6690  144.6700 C   0  0  0  0  0  0  0  0  0  0  0  0
  188.9530  177.9190  146.9730 N   0  0  0  0  0  0  0  0  0  0  0  0
  191.8340  174.6920  144.1190 Cl  0  0  0  0  0  0  0  0  0  0  0  0
  187.7750  177.7140  142.3390 N   0  0  0  0  0  0  0  0  0  0  0  0
  187.3750  177.7720  143.5720 C   0  0  0  0  0  0  0  0  0  0  0  0
  190.9240  177.6740  140.2410 C   0  0  2  0  0  3  0  0  0  0  0  0
  190.0460  176.8990  142.9510 C   0  0  1  0  0  3  0  0  0  0  0  0
  188.0690  178.0960  145.9630 C   0  0  0  0  0  3  0  0  0  0  0  0
  183.6340  178.3060  142.8710 C   0  0  2  0  0  3  0  0  0  0  0  0
  183.3320  179.2240  144.0520 C   0  0  0  0  0  2  0  0  0  0  0  0
  185.8990  177.8320  143.8340 C   0  0  2  0  0  3  0  0  0  0  0  0
  184.0760  178.7440  145.2940 C   0  0  0  0  0  2  0  0  0  0  0  0
  185.1330  178.2830  142.5900 C   0  0  0  0  0  2  0  0  0  0  0  0
  185.5800  178.7250  145.0350 C   0  0  0  0  0  2  0  0  0  0  0  0
  182.9620  178.7590  141.7520 F   0  0  0  0  0  0  0  0  0  0  0  0
  191.2570  177.2220  138.8290 C   0  0  0  0  0  2  0  0  0  0  0  0
  189.9180  176.1900  138.1520 S   0  0  0  0  0  0  0  0  0  0  0  0
  190.2940  176.1980  135.5440 O   0  0  0  0  0  1  0  0  0  0  0  0
  189.9040  177.0700  136.5630 C   0  0  1  0  0  3  0  0  0  0  0  0
  188.5040  177.5890  136.2900 C   0  0  0  0  0  2  0  0  0  0  0  0
  186.9520  178.6730  137.9130 O   0  0  0  0  0  1  0  0  0  0  0  0
  188.1620  178.6900  137.2340 C   0  0  0  0  0  0  0  0  0  0  0  0
  188.9840  179.6220  137.4390 O   0  0  0  0  0  0  0  0  0  0  0  0
  1 13  1  0  0  0  0
  1  5  2  0  0  0  0
  2  8  2  0  0  0  0
  2  6  1  0  0  0  0
  3 12  2  0  0  0  0
  3  8  1  0  0  0  0
  4 10  1  6  0  0  0
  4 15  1  0  0  0  0
  4 18  1  0  0  0  0
  6 11  2  0  0  0  0
  8  1  1  0  0  0  0
  9  7  1  0  0  0  0
 11  5  1  0  0  0  0
 12 19  1  0  0  0  0
 14  2  1  0  0  0  0
 15 16  2  0  0  0  0
 16 12  1  0  0  0  0
 17 27  1  6  0  0  0
 17 10  1  0  0  0  0
 17  9  1  0  0  0  0
 18  7  1  1  0  0  0
 18  3  1  0  0  0  0
 19 13  2  0  0  0  0
 20 26  1  6  0  0  0
 20 21  1  0  0  0  0
 21 23  1  0  0  0  0
 22 16  1  6  0  0  0
 22 25  1  0  0  0  0
 24 20  1  0  0  0  0
 24 22  1  0  0  0  0
 25 23  1  0  0  0  0
 28 27  1  0  0  0  0
 30 29  1  6  0  0  0
 30 28  1  0  0  0  0
 31 30  1  0  0  0  0
 31 33  1  0  0  0  0
 33 34  2  0  0  0  0
 33 32  1  0  0  0  0
M  END
>  <MODEL>
1

>  <REMARK>
 VINA RESULT:      -9.7      0.000      0.000
  Name = 
  6 active torsions:
  status: ('A' for Active; 'I' for Inactive)
    1  A    between atoms: C_3  and  S_13
    2  A    between atoms: C_3  and  C_29
    3  A    between atoms: C_12  and  C_28
    4  A    between atoms: S_13  and  C_33
    5  A    between atoms: C_20  and  C_22
    6  A    between atoms: C_22  and  C_33
                            x       y       z     vdW  Elec       q    Type
                         _______ _______ _______ _____ _____    ______ ____

>  <TORSDO>
F 6

$$$$
=
 OpenBabel10272400123D

 34 38  0  0  1  0  0  0  0  0999 V2000
  189.8820  177.2940  146.5370 C   0  0  0  0  0  0  0  0  0  0  0  0
  191.2590  175.9260  145.0620 C   0  0  0  0  0  0  0  0  0  0  0  0
  189.2820  177.2280  144.1760 C   0  0  0  0  0  0  0  0  0  0  0  0
  188.7030  177.9870  141.8330 C   0  0  1  0  0  3  0  0  0  0  0  0
  190.7760  177.0590  147.5820 C   0  0  0  0  0  3  0  0  0  0  0  0
  192.1330  175.6980  146.1290 C   0  0  0  0  0  3  0  0  0  0  0  0
  191.0360  177.5510  142.3600 C   0  0  0  0  0  2  0  0  0  0  0  0
  190.1560  176.8130  145.2260 C   0  0  0  0  0  0  0  0  0  0  0  0
  191.3300  177.2540  140.8870 C   0  0  0  0  0  2  0  0  0  0  0  0
  188.8940  177.6640  140.3600 C   0  0  0  0  0  2  0  0  0  0  0  0
  191.9130  176.2850  147.3730 C   0  0  0  0  0  3  0  0  0  0  0  0
  188.0280  177.7830  144.5250 C   0  0  0  0  0  0  0  0  0  0  0  0
  188.7230  177.9470  146.8030 N   0  0  0  0  0  0  0  0  0  0  0  0
  191.4720  174.8600  143.6770 Cl  0  0  0  0  0  0  0  0  0  0  0  0
  187.3060  177.9150  142.2330 N   0  0  0  0  0  0  0  0  0  0  0  0
  186.9700  177.9210  143.4860 C   0  0  0  0  0  0  0  0  0  0  0  0
  190.3420  177.9850  139.9730 C   0  0  2  0  0  3  0  0  0  0  0  0
  189.6110  177.0960  142.6930 C   0  0  1  0  0  3  0  0  0  0  0  0
  187.7860  178.1560  145.8480 C   0  0  0  0  0  3  0  0  0  0  0  0
  183.1810  178.2900  142.9610 C   0  0  2  0  0  3  0  0  0  0  0  0
  182.9130  179.2870  144.0850 C   0  0  0  0  0  2  0  0  0  0  0  0
  185.5100  177.9580  143.8260 C   0  0  2  0  0  3  0  0  0  0  0  0
  183.7400  178.9250  145.3150 C   0  0  0  0  0  2  0  0  0  0  0  0
  184.6630  178.2890  142.5970 C   0  0  0  0  0  2  0  0  0  0  0  0
  185.2270  178.9300  144.9730 C   0  0  0  0  0  2  0  0  0  0  0  0
  182.4340  178.6350  141.8510 F   0  0  0  0  0  0  0  0  0  0  0  0
  190.6020  177.5920  138.5290 C   0  0  0  0  0  2  0  0  0  0  0  0
  189.8080  176.0010  138.1410 S   0  0  0  0  0  0  0  0  0  0  0  0
  191.1550  173.8580  137.4100 O   0  0  0  0  0  1  0  0  0  0  0  0
  191.3920  175.1650  137.8420 C   0  0  1  0  0  3  0  0  0  0  0  0
  192.1680  175.9270  136.7820 C   0  0  0  0  0  2  0  0  0  0  0  0
  194.5720  176.3620  136.2850 O   0  0  0  0  0  0  0  0  0  0  0  0
  193.5730  176.1510  137.2240 C   0  0  0  0  0  0  0  0  0  0  0  0
  193.8500  176.1790  138.4520 O   0  0  0  0  0  1  0  0  0  0  0  0
  1 13  1  0  0  0  0
  1  5  2  0  0  0  0
  2  8  2  0  0  0  0
  2  6  1  0  0  0  0
  3 12  2  0  0  0  0
  3  8  1  0  0  0  0
  4 10  1  6  0  0  0
  4 15  1  0  0  0  0
  4 18  1  0  0  0  0
  6 11  2  0  0  0  0
  8  1  1  0  0  0  0
  9  7  1  0  0  0  0
 11  5  1  0  0  0  0
 12 19  1  0  0  0  0
 14  2  1  0  0  0  0
 15 16  2  0  0  0  0
 16 12  1  0  0  0  0
 17 27  1  6  0  0  0
 17 10  1  0  0  0  0
 17  9  1  0  0  0  0
 18  7  1  1  0  0  0
 18  3  1  0  0  0  0
 19 13  2  0  0  0  0
 20 26  1  6  0  0  0
 20 21  1  0  0  0  0
 21 23  1  0  0  0  0
 22 16  1  6  0  0  0
 22 25  1  0  0  0  0
 24 20  1  0  0  0  0
 24 22  1  0  0  0  0
 25 23  1  0  0  0  0
 28 27  1  0  0  0  0
 30 29  1  6  0  0  0
 30 28  1  0  0  0  0
 31 33  1  0  0  0  0
 31 30  1  0  0  0  0
 32 33  2  0  0  0  0
 33 34  1  0  0  0  0
M  END
>  <MODEL>
2

>  <REMARK>
 VINA RESULT:      -9.4      1.857      2.294
  Name = 
  6 active torsions:
  status: ('A' for Active; 'I' for Inactive)
    1  A    between atoms: C_3  and  S_13
    2  A    between atoms: C_3  and  C_29
    3  A    between atoms: C_12  and  C_28
    4  A    between atoms: S_13  and  C_33
    5  A    between atoms: C_20  and  C_22
    6  A    between atoms: C_22  and  C_33
                            x       y       z     vdW  Elec       q    Type
                         _______ _______ _______ _____ _____    ______ ____

>  <TORSDO>
F 6

$$$$
=
 OpenBabel10272400123D

 34 38  0  0  1  0  0  0  0  0999 V2000
  185.5110  178.7430  144.9610 C   0  0  0  0  0  0  0  0  0  0  0  0
  187.4000  177.2760  144.4920 C   0  0  0  0  0  0  0  0  0  0  0  0
  186.0290  178.2870  142.6250 C   0  0  0  0  0  0  0  0  0  0  0  0
  186.5600  178.6490  140.1770 C   0  0  1  0  0  3  0  0  0  0  0  0
  185.8440  178.7300  146.3160 C   0  0  0  0  0  3  0  0  0  0  0  0
  187.7040  177.2710  145.8560 C   0  0  0  0  0  3  0  0  0  0  0  0
  188.4110  178.4640  141.7430 C   0  0  0  0  0  2  0  0  0  0  0  0
  186.3420  178.0960  144.0040 C   0  0  0  0  0  0  0  0  0  0  0  0
  189.3320  177.9750  140.6220 C   0  0  0  0  0  2  0  0  0  0  0  0
  187.3890  178.1270  139.0150 C   0  0  0  0  0  2  0  0  0  0  0  0
  186.9530  178.0180  146.7600 C   0  0  0  0  0  3  0  0  0  0  0  0
  184.7530  178.7960  142.2890 C   0  0  0  0  0  0  0  0  0  0  0  0
  184.3570  179.3430  144.5780 N   0  0  0  0  0  0  0  0  0  0  0  0
  188.2080  176.0350  143.5390 Cl  0  0  0  0  0  0  0  0  0  0  0  0
  185.1310  178.5360  139.9250 N   0  0  0  0  0  0  0  0  0  0  0  0
  184.2710  178.7030  140.8830 C   0  0  0  0  0  0  0  0  0  0  0  0
  188.8570  178.4900  139.2600 C   0  0  2  0  0  3  0  0  0  0  0  0
  186.9870  177.9620  141.4830 C   0  0  1  0  0  3  0  0  0  0  0  0
  183.9460  179.3420  143.2880 C   0  0  0  0  0  3  0  0  0  0  0  0
  180.8180  177.2600  140.0060 C   0  0  2  0  0  3  0  0  0  0  0  0
  180.5500  178.1080  138.7660 C   0  0  0  0  0  2  0  0  0  0  0  0
  182.8130  178.6850  140.5320 C   0  0  2  0  0  3  0  0  0  0  0  0
  181.0270  179.5390  138.9940 C   0  0  0  0  0  2  0  0  0  0  0  0
  182.3090  177.2550  140.3300 C   0  0  0  0  0  2  0  0  0  0  0  0
  182.5200  179.5540  139.3080 C   0  0  0  0  0  2  0  0  0  0  0  0
  180.3910  175.9660  139.7810 F   0  0  0  0  0  0  0  0  0  0  0  0
  189.7350  177.9090  138.1650 C   0  0  0  0  0  2  0  0  0  0  0  0
  189.2670  176.1860  137.8120 S   0  0  0  0  0  0  0  0  0  0  0  0
  191.0180  174.2180  137.7660 O   0  0  0  0  0  1  0  0  0  0  0  0
  190.9300  175.5510  138.1720 C   0  0  1  0  0  3  0  0  0  0  0  0
  191.9570  176.3860  137.4280 C   0  0  0  0  0  2  0  0  0  0  0  0
  193.4030  177.0560  139.3450 O   0  0  0  0  0  1  0  0  0  0  0  0
  193.2620  176.3710  138.1460 C   0  0  0  0  0  0  0  0  0  0  0  0
  194.2290  175.7140  137.6810 O   0  0  0  0  0  0  0  0  0  0  0  0
  1  5  2  0  0  0  0
  2  6  1  0  0  0  0
  3  8  1  0  0  0  0
  4 10  1  6  0  0  0
  4 18  1  0  0  0  0
  5 11  1  0  0  0  0
  6 11  2  0  0  0  0
  8  2  2  0  0  0  0
  8  1  1  0  0  0  0
  9  7  1  0  0  0  0
 10 17  1  0  0  0  0
 12  3  2  0  0  0  0
 12 19  1  0  0  0  0
 13  1  1  0  0  0  0
 14  2  1  0  0  0  0
 15  4  1  0  0  0  0
 15 16  2  0  0  0  0
 16 12  1  0  0  0  0
 17 27  1  6  0  0  0
 17  9  1  0  0  0  0
 18  7  1  1  0  0  0
 18  3  1  0  0  0  0
 19 13  2  0  0  0  0
 20 26  1  6  0  0  0
 20 24  1  0  0  0  0
 21 23  1  0  0  0  0
 21 20  1  0  0  0  0
 22 16  1  6  0  0  0
 23 25  1  0  0  0  0
 24 22  1  0  0  0  0
 25 22  1  0  0  0  0
 28 27  1  0  0  0  0
 28 30  1  0  0  0  0
 30 29  1  6  0  0  0
 31 33  1  0  0  0  0
 31 30  1  0  0  0  0
 33 32  1  0  0  0  0
 34 33  2  0  0  0  0
M  END
>  <MODEL>
3

>  <REMARK>
 VINA RESULT:      -9.3      2.993      4.556
  Name = 
  6 active torsions:
  status: ('A' for Active; 'I' for Inactive)
    1  A    between atoms: C_3  and  S_13
    2  A    between atoms: C_3  and  C_29
    3  A    between atoms: C_12  and  C_28
    4  A    between atoms: S_13  and  C_33
    5  A    between atoms: C_20  and  C_22
    6  A    between atoms: C_22  and  C_33
                            x       y       z     vdW  Elec       q    Type
                         _______ _______ _______ _____ _____    ______ ____

>  <TORSDO>
F 6

$$$$
=
 OpenBabel10272400123D

 34 38  0  0  1  0  0  0  0  0999 V2000
  188.7220  177.1620  146.2030 C   0  0  0  0  0  0  0  0  0  0  0  0
  187.0590  178.6820  147.1330 C   0  0  0  0  0  0  0  0  0  0  0  0
  187.0630  178.0850  144.6770 C   0  0  0  0  0  0  0  0  0  0  0  0
  185.2430  178.2300  142.9240 C   0  0  1  0  0  3  0  0  0  0  0  0
  189.1900  176.8940  147.4900 C   0  0  0  0  0  3  0  0  0  0  0  0
  187.5540  178.4030  148.4100 C   0  0  0  0  0  3  0  0  0  0  0  0
  184.5850  178.0770  145.2600 C   0  0  0  0  0  2  0  0  0  0  0  0
  187.5800  177.9860  146.0030 C   0  0  0  0  0  0  0  0  0  0  0  0
  183.2610  178.7800  144.9500 C   0  0  0  0  0  2  0  0  0  0  0  0
  183.9760  178.9750  142.5350 C   0  0  0  0  0  2  0  0  0  0  0  0
  188.5910  177.4920  148.5930 C   0  0  0  0  0  3  0  0  0  0  0  0
  187.8830  177.6650  143.6020 C   0  0  0  0  0  0  0  0  0  0  0  0
  189.4050  176.6610  145.1430 N   0  0  0  0  0  0  0  0  0  0  0  0
  186.0020  180.0870  147.0260 Cl  0  0  0  0  0  0  0  0  0  0  0  0
  186.3030  178.4020  141.9420 N   0  0  0  0  0  0  0  0  0  0  0  0
  187.5220  178.0480  142.2090 C   0  0  0  0  0  0  0  0  0  0  0  0
  182.8530  178.5590  143.4900 C   0  0  2  0  0  3  0  0  0  0  0  0
  185.6790  178.6320  144.3410 C   0  0  1  0  0  3  0  0  0  0  0  0
  189.0400  176.9310  143.8670 C   0  0  0  0  0  3  0  0  0  0  0  0
  188.9390  178.5420  138.6710 C   0  0  2  0  0  3  0  0  0  0  0  0
  189.7950  177.2800  138.6130 C   0  0  0  0  0  2  0  0  0  0  0  0
  188.5430  178.1480  141.1140 C   0  0  2  0  0  3  0  0  0  0  0  0
  190.4750  177.0450  139.9580 C   0  0  0  0  0  2  0  0  0  0  0  0
  187.8800  178.4140  139.7620 C   0  0  0  0  0  2  0  0  0  0  0  0
  189.4300  176.9030  141.0620 C   0  0  0  0  0  2  0  0  0  0  0  0
  188.3210  178.7360  137.4500 F   0  0  0  0  0  0  0  0  0  0  0  0
  181.5880  179.3470  143.1940 C   0  0  0  0  0  2  0  0  0  0  0  0
  180.3000  178.2610  142.5050 S   0  0  0  0  0  0  0  0  0  0  0  0
  179.9880  180.6650  141.4740 O   0  0  0  0  0  1  0  0  0  0  0  0
  180.0230  179.3310  141.0630 C   0  0  1  0  0  3  0  0  0  0  0  0
  181.1490  179.1270  140.0650 C   0  0  0  0  0  2  0  0  0  0  0  0
  180.2860  176.9920  139.1100 O   0  0  0  0  0  0  0  0  0  0  0  0
  181.3080  177.6810  139.7470 C   0  0  0  0  0  0  0  0  0  0  0  0
  182.3820  177.0880  140.0300 O   0  0  0  0  0  1  0  0  0  0  0  0
  1  5  2  0  0  0  0
  2  6  1  0  0  0  0
  3  8  1  0  0  0  0
  4 10  1  6  0  0  0
  4 18  1  0  0  0  0
  5 11  1  0  0  0  0
  6 11  2  0  0  0  0
  8  1  1  0  0  0  0
  8  2  2  0  0  0  0
  9  7  1  0  0  0  0
 10 17  1  0  0  0  0
 12 19  1  0  0  0  0
 12  3  2  0  0  0  0
 13  1  1  0  0  0  0
 14  2  1  0  0  0  0
 15 16  2  0  0  0  0
 15  4  1  0  0  0  0
 16 12  1  0  0  0  0
 17 27  1  6  0  0  0
 17  9  1  0  0  0  0
 18  3  1  0  0  0  0
 18  7  1  1  0  0  0
 19 13  2  0  0  0  0
 20 26  1  6  0  0  0
 20 24  1  0  0  0  0
 21 20  1  0  0  0  0
 21 23  1  0  0  0  0
 22 16  1  1  0  0  0
 23 25  1  0  0  0  0
 24 22  1  0  0  0  0
 25 22  1  0  0  0  0
 28 27  1  0  0  0  0
 30 29  1  1  0  0  0
 30 28  1  0  0  0  0
 31 30  1  0  0  0  0
 32 33  2  0  0  0  0
 33 34  1  0  0  0  0
 33 31  1  0  0  0  0
M  END
>  <MODEL>
4

>  <REMARK>
 VINA RESULT:      -9.0      3.787      6.740
  Name = 
  6 active torsions:
  status: ('A' for Active; 'I' for Inactive)
    1  A    between atoms: C_3  and  S_13
    2  A    between atoms: C_3  and  C_29
    3  A    between atoms: C_12  and  C_28
    4  A    between atoms: S_13  and  C_33
    5  A    between atoms: C_20  and  C_22
    6  A    between atoms: C_22  and  C_33
                            x       y       z     vdW  Elec       q    Type
                         _______ _______ _______ _____ _____    ______ ____

>  <TORSDO>
F 6

$$$$
=
 OpenBabel10272400123D

 34 38  0  0  1  0  0  0  0  0999 V2000
  185.6830  178.8360  144.9520 C   0  0  0  0  0  0  0  0  0  0  0  0
  187.4830  177.2280  144.6090 C   0  0  0  0  0  0  0  0  0  0  0  0
  186.3150  178.3270  142.6550 C   0  0  0  0  0  0  0  0  0  0  0  0
  187.0280  178.6330  140.2460 C   0  0  1  0  0  3  0  0  0  0  0  0
  185.9260  178.8060  146.3260 C   0  0  0  0  0  3  0  0  0  0  0  0
  187.6970  177.2100  145.9900 C   0  0  0  0  0  3  0  0  0  0  0  0
  188.7550  178.3200  141.9290 C   0  0  0  0  0  2  0  0  0  0  0  0
  186.5230  178.1220  144.0520 C   0  0  0  0  0  0  0  0  0  0  0  0
  189.7070  177.7560  140.8710 C   0  0  0  0  0  2  0  0  0  0  0  0
  187.8880  178.0430  139.1410 C   0  0  0  0  0  2  0  0  0  0  0  0
  186.9470  178.0160  146.8420 C   0  0  0  0  0  3  0  0  0  0  0  0
  185.1040  178.9280  142.2360 C   0  0  0  0  0  0  0  0  0  0  0  0
  184.6040  179.5180  144.4940 N   0  0  0  0  0  0  0  0  0  0  0  0
  188.2550  175.9240  143.7110 Cl  0  0  0  0  0  0  0  0  0  0  0  0
  185.6140  178.6260  139.9030 N   0  0  0  0  0  0  0  0  0  0  0  0
  184.7090  178.8620  140.8020 C   0  0  0  0  0  0  0  0  0  0  0  0
  189.3610  178.2970  139.4800 C   0  0  2  0  0  3  0  0  0  0  0  0
  187.3170  177.9240  141.5780 C   0  0  1  0  0  3  0  0  0  0  0  0
  184.2780  179.5390  143.1800 C   0  0  0  0  0  3  0  0  0  0  0  0
  181.1660  177.6880  139.8860 C   0  0  2  0  0  3  0  0  0  0  0  0
  181.0630  178.3810  138.5310 C   0  0  0  0  0  2  0  0  0  0  0  0
  183.2790  178.9510  140.3580 C   0  0  2  0  0  3  0  0  0  0  0  0
  181.6880  179.7710  138.6030 C   0  0  0  0  0  2  0  0  0  0  0  0
  182.6270  177.5690  140.3100 C   0  0  0  0  0  2  0  0  0  0  0  0
  183.1540  179.6700  139.0140 C   0  0  0  0  0  2  0  0  0  0  0  0
  180.6060  176.4280  139.8030 F   0  0  0  0  0  0  0  0  0  0  0  0
  190.2620  177.6440  138.4450 C   0  0  0  0  0  2  0  0  0  0  0  0
  191.7320  176.9200  139.2370 S   0  0  0  0  0  0  0  0  0  0  0  0
  193.6580  176.9100  137.4390 O   0  0  0  0  0  1  0  0  0  0  0  0
  192.4120  176.3200  137.6620 C   0  0  1  0  0  3  0  0  0  0  0  0
  192.5590  174.8100  137.7230 C   0  0  0  0  0  2  0  0  0  0  0  0
  191.6250  173.7740  135.6570 O   0  0  0  0  0  0  0  0  0  0  0  0
  191.4490  174.1480  136.9810 C   0  0  0  0  0  0  0  0  0  0  0  0
  190.3610  173.9020  137.5640 O   0  0  0  0  0  1  0  0  0  0  0  0
  1  5  2  0  0  0  0
  2  6  1  0  0  0  0
  3  8  1  0  0  0  0
  4 10  1  6  0  0  0
  4 18  1  0  0  0  0
  5 11  1  0  0  0  0
  6 11  2  0  0  0  0
  8  2  2  0  0  0  0
  8  1  1  0  0  0  0
  9  7  1  0  0  0  0
 10 17  1  0  0  0  0
 12  3  2  0  0  0  0
 12 19  1  0  0  0  0
 13  1  1  0  0  0  0
 14  2  1  0  0  0  0
 15  4  1  0  0  0  0
 15 16  2  0  0  0  0
 16 12  1  0  0  0  0
 17 27  1  6  0  0  0
 17  9  1  0  0  0  0
 18  7  1  1  0  0  0
 18  3  1  0  0  0  0
 19 13  2  0  0  0  0
 20 26  1  6  0  0  0
 20 24  1  0  0  0  0
 21 23  1  0  0  0  0
 21 20  1  0  0  0  0
 22 16  1  6  0  0  0
 23 25  1  0  0  0  0
 24 22  1  0  0  0  0
 25 22  1  0  0  0  0
 27 28  1  0  0  0  0
 30 29  1  1  0  0  0
 30 31  1  0  0  0  0
 30 28  1  0  0  0  0
 32 33  2  0  0  0  0
 33 34  1  0  0  0  0
 33 31  1  0  0  0  0
M  END
>  <MODEL>
5

>  <REMARK>
 VINA RESULT:      -8.9      2.924      4.492
  Name = 
  6 active torsions:
  status: ('A' for Active; 'I' for Inactive)
    1  A    between atoms: C_3  and  S_13
    2  A    between atoms: C_3  and  C_29
    3  A    between atoms: C_12  and  C_28
    4  A    between atoms: S_13  and  C_33
    5  A    between atoms: C_20  and  C_22
    6  A    between atoms: C_22  and  C_33
                            x       y       z     vdW  Elec       q    Type
                         _______ _______ _______ _____ _____    ______ ____

>  <TORSDO>
F 6

$$$$
=
 OpenBabel10272400123D

 34 38  0  0  1  0  0  0  0  0999 V2000
  189.7020  177.3960  146.5230 C   0  0  0  0  0  0  0  0  0  0  0  0
  191.1190  176.0280  145.0870 C   0  0  0  0  0  0  0  0  0  0  0  0
  189.1360  177.2880  144.1560 C   0  0  0  0  0  0  0  0  0  0  0  0
  188.5800  178.0060  141.7940 C   0  0  1  0  0  3  0  0  0  0  0  0
  190.5850  177.1890  147.5830 C   0  0  0  0  0  3  0  0  0  0  0  0
  191.9810  175.8280  146.1690 C   0  0  0  0  0  3  0  0  0  0  0  0
  190.9110  177.6120  142.3590 C   0  0  0  0  0  2  0  0  0  0  0  0
  190.0020  176.9010  145.2230 C   0  0  0  0  0  0  0  0  0  0  0  0
  191.2300  177.2980  140.8950 C   0  0  0  0  0  2  0  0  0  0  0  0
  188.7960  177.6650  140.3280 C   0  0  0  0  0  2  0  0  0  0  0  0
  191.7350  176.4290  147.4010 C   0  0  0  0  0  3  0  0  0  0  0  0
  187.8700  177.8300  144.4790 C   0  0  0  0  0  0  0  0  0  0  0  0
  188.5300  178.0360  146.7630 N   0  0  0  0  0  0  0  0  0  0  0  0
  191.3670  174.9460  143.7200 Cl  0  0  0  0  0  0  0  0  0  0  0  0
  187.1780  177.9190  142.1750 N   0  0  0  0  0  0  0  0  0  0  0  0
  186.8250  177.9370  143.4230 C   0  0  0  0  0  0  0  0  0  0  0  0
  190.2440  178.0010  139.9570 C   0  0  2  0  0  3  0  0  0  0  0  0
  189.4890  177.1400  142.6790 C   0  0  1  0  0  3  0  0  0  0  0  0
  187.6040  178.2180  145.7930 C   0  0  0  0  0  3  0  0  0  0  0  0
  183.0500  178.4060  142.8790 C   0  0  2  0  0  3  0  0  0  0  0  0
  182.7740  179.2860  144.0950 C   0  0  0  0  0  2  0  0  0  0  0  0
  185.3600  177.9580  143.7430 C   0  0  2  0  0  3  0  0  0  0  0  0
  183.5760  178.7900  145.2950 C   0  0  0  0  0  2  0  0  0  0  0  0
  184.5370  178.4240  142.5410 C   0  0  0  0  0  2  0  0  0  0  0  0
  185.0680  178.8120  144.9780 C   0  0  0  0  0  2  0  0  0  0  0  0
  182.3250  178.8730  141.7990 F   0  0  0  0  0  0  0  0  0  0  0  0
  190.5310  177.5920  138.5220 C   0  0  0  0  0  2  0  0  0  0  0  0
  189.3320  178.3550  137.3840 S   0  0  0  0  0  0  0  0  0  0  0  0
  190.3290  176.1880  136.2640 O   0  0  0  0  0  1  0  0  0  0  0  0
  189.0970  176.8200  136.4410 C   0  0  1  0  0  3  0  0  0  0  0  0
  188.1510  175.9060  137.1990 C   0  0  0  0  0  2  0  0  0  0  0  0
  186.0260  175.5670  135.9410 O   0  0  0  0  0  0  0  0  0  0  0  0
  186.7350  176.2640  136.9090 C   0  0  0  0  0  0  0  0  0  0  0  0
  186.1700  177.1810  137.5620 O   0  0  0  0  0  1  0  0  0  0  0  0
  1 13  1  0  0  0  0
  1  5  2  0  0  0  0
  2  8  2  0  0  0  0
  2  6  1  0  0  0  0
  3 12  2  0  0  0  0
  3  8  1  0  0  0  0
  4 10  1  6  0  0  0
  4 15  1  0  0  0  0
  4 18  1  0  0  0  0
  6 11  2  0  0  0  0
  8  1  1  0  0  0  0
  9  7  1  0  0  0  0
 11  5  1  0  0  0  0
 12 19  1  0  0  0  0
 14  2  1  0  0  0  0
 15 16  2  0  0  0  0
 16 12  1  0  0  0  0
 17 27  1  6  0  0  0
 17 10  1  0  0  0  0
 17  9  1  0  0  0  0
 18  7  1  1  0  0  0
 18  3  1  0  0  0  0
 19 13  2  0  0  0  0
 20 26  1  6  0  0  0
 20 21  1  0  0  0  0
 21 23  1  0  0  0  0
 22 16  1  6  0  0  0
 22 25  1  0  0  0  0
 24 20  1  0  0  0  0
 24 22  1  0  0  0  0
 25 23  1  0  0  0  0
 28 27  1  0  0  0  0
 30 29  1  1  0  0  0
 30 31  1  0  0  0  0
 30 28  1  0  0  0  0
 32 33  2  0  0  0  0
 33 31  1  0  0  0  0
 33 34  1  0  0  0  0
M  END
>  <MODEL>
6

>  <REMARK>
 VINA RESULT:      -8.8      1.136      1.301
  Name = 
  6 active torsions:
  status: ('A' for Active; 'I' for Inactive)
    1  A    between atoms: C_3  and  S_13
    2  A    between atoms: C_3  and  C_29
    3  A    between atoms: C_12  and  C_28
    4  A    between atoms: S_13  and  C_33
    5  A    between atoms: C_20  and  C_22
    6  A    between atoms: C_22  and  C_33
                            x       y       z     vdW  Elec       q    Type
                         _______ _______ _______ _____ _____    ______ ____

>  <TORSDO>
F 6

$$$$
=
 OpenBabel10272400123D

 34 38  0  0  1  0  0  0  0  0999 V2000
  187.2120  178.1240  145.8810 C   0  0  0  0  0  0  0  0  0  0  0  0
  188.9130  176.8780  144.6590 C   0  0  0  0  0  0  0  0  0  0  0  0
  186.9760  177.9730  143.4610 C   0  0  0  0  0  0  0  0  0  0  0  0
  186.6800  178.6460  141.0390 C   0  0  1  0  0  3  0  0  0  0  0  0
  187.9610  177.9890  147.0510 C   0  0  0  0  0  3  0  0  0  0  0  0
  189.6380  176.7480  145.8470 C   0  0  0  0  0  3  0  0  0  0  0  0
  188.9400  178.4420  141.9110 C   0  0  0  0  0  2  0  0  0  0  0  0
  187.7210  177.6570  144.6370 C   0  0  0  0  0  0  0  0  0  0  0  0
  189.4750  178.1570  140.5060 C   0  0  0  0  0  2  0  0  0  0  0  0
  187.1150  178.3250  139.6190 C   0  0  0  0  0  2  0  0  0  0  0  0
  189.1830  177.3250  147.0300 C   0  0  0  0  0  3  0  0  0  0  0  0
  185.6380  178.4090  143.6090 C   0  0  0  0  0  0  0  0  0  0  0  0
  185.9710  178.6660  145.9590 N   0  0  0  0  0  0  0  0  0  0  0  0
  189.4270  175.8210  143.3470 Cl  0  0  0  0  0  0  0  0  0  0  0  0
  185.2520  178.4440  141.2330 N   0  0  0  0  0  0  0  0  0  0  0  0
  184.7370  178.4320  142.4240 C   0  0  0  0  0  0  0  0  0  0  0  0
  188.5680  178.7780  139.4390 C   0  0  2  0  0  3  0  0  0  0  0  0
  187.5310  177.8560  142.0450 C   0  0  1  0  0  3  0  0  0  0  0  0
  185.1700  178.7730  144.8730 C   0  0  0  0  0  3  0  0  0  0  0  0
  181.0410  178.5870  141.3800 C   0  0  2  0  0  3  0  0  0  0  0  0
  180.5360  179.4450  142.5370 C   0  0  0  0  0  2  0  0  0  0  0  0
  183.2450  178.3330  142.5470 C   0  0  2  0  0  3  0  0  0  0  0  0
  181.2090  179.0200  143.8390 C   0  0  0  0  0  2  0  0  0  0  0  0
  182.5540  178.7260  141.2410 C   0  0  0  0  0  2  0  0  0  0  0  0
  182.7240  179.1630  143.7210 C   0  0  0  0  0  2  0  0  0  0  0  0
  180.4310  178.9890  140.2080 F   0  0  0  0  0  0  0  0  0  0  0  0
  189.0740  178.3960  138.0590 C   0  0  0  0  0  2  0  0  0  0  0  0
  187.8990  177.2800  137.2290 S   0  0  0  0  0  0  0  0  0  0  0  0
  188.6610  174.9370  136.2950 O   0  0  0  0  0  1  0  0  0  0  0  0
  189.0570  175.8800  137.2460 C   0  0  1  0  0  3  0  0  0  0  0  0
  190.4540  176.3820  136.9250 C   0  0  0  0  0  2  0  0  0  0  0  0
  191.5480  174.2880  137.7210 O   0  0  0  0  0  0  0  0  0  0  0  0
  191.4660  175.6730  137.7570 C   0  0  0  0  0  0  0  0  0  0  0  0
  192.2670  176.3310  138.4720 O   0  0  0  0  0  1  0  0  0  0  0  0
  1 13  1  0  0  0  0
  1  5  2  0  0  0  0
  2  6  1  0  0  0  0
  3 12  2  0  0  0  0
  3  8  1  0  0  0  0
  4 10  1  6  0  0  0
  4 15  1  0  0  0  0
  4 18  1  0  0  0  0
  6 11  2  0  0  0  0
  8  2  2  0  0  0  0
  8  1  1  0  0  0  0
  9  7  1  0  0  0  0
 11  5  1  0  0  0  0
 12 19  1  0  0  0  0
 14  2  1  0  0  0  0
 15 16  2  0  0  0  0
 16 12  1  0  0  0  0
 17 27  1  6  0  0  0
 17 10  1  0  0  0  0
 17  9  1  0  0  0  0
 18  7  1  1  0  0  0
 18  3  1  0  0  0  0
 19 13  2  0  0  0  0
 20 26  1  6  0  0  0
 20 21  1  0  0  0  0
 21 23  1  0  0  0  0
 22 16  1  6  0  0  0
 22 25  1  0  0  0  0
 24 20  1  0  0  0  0
 24 22  1  0  0  0  0
 25 23  1  0  0  0  0
 28 30  1  0  0  0  0
 28 27  1  0  0  0  0
 30 29  1  6  0  0  0
 31 30  1  0  0  0  0
 31 33  1  0  0  0  0
 32 33  2  0  0  0  0
 33 34  1  0  0  0  0
M  END
>  <MODEL>
7

>  <REMARK>
 VINA RESULT:      -8.8      2.147      3.176
  Name = 
  6 active torsions:
  status: ('A' for Active; 'I' for Inactive)
    1  A    between atoms: C_3  and  S_13
    2  A    between atoms: C_3  and  C_29
    3  A    between atoms: C_12  and  C_28
    4  A    between atoms: S_13  and  C_33
    5  A    between atoms: C_20  and  C_22
    6  A    between atoms: C_22  and  C_33
                            x       y       z     vdW  Elec       q    Type
                         _______ _______ _______ _____ _____    ______ ____

>  <TORSDO>
F 6

$$$$
=
 OpenBabel10272400123D

 34 38  0  0  1  0  0  0  0  0999 V2000
  185.3130  178.7570  145.0190 C   0  0  0  0  0  0  0  0  0  0  0  0
  187.2690  177.3550  144.6300 C   0  0  0  0  0  0  0  0  0  0  0  0
  185.9050  178.2660  142.7070 C   0  0  0  0  0  0  0  0  0  0  0  0
  186.4800  178.5910  140.2640 C   0  0  1  0  0  3  0  0  0  0  0  0
  185.6130  178.7890  146.3810 C   0  0  0  0  0  3  0  0  0  0  0  0
  187.5400  177.3950  146.0010 C   0  0  0  0  0  3  0  0  0  0  0  0
  188.2980  178.5170  141.8760 C   0  0  0  0  0  2  0  0  0  0  0  0
  186.1910  178.1200  144.0980 C   0  0  0  0  0  0  0  0  0  0  0  0
  189.2640  178.0380  140.7900 C   0  0  0  0  0  2  0  0  0  0  0  0
  187.3560  178.0740  139.1340 C   0  0  0  0  0  2  0  0  0  0  0  0
  186.7380  178.1320  146.8680 C   0  0  0  0  0  3  0  0  0  0  0  0
  184.6170  178.7160  142.3290 C   0  0  0  0  0  0  0  0  0  0  0  0
  184.1450  179.3010  144.5940 N   0  0  0  0  0  0  0  0  0  0  0  0
  188.1480  176.1250  143.7260 Cl  0  0  0  0  0  0  0  0  0  0  0  0
  185.0630  178.4150  139.9820 N   0  0  0  0  0  0  0  0  0  0  0  0
  184.1740  178.5700  140.9150 C   0  0  0  0  0  0  0  0  0  0  0  0
  188.8020  178.5020  139.4040 C   0  0  2  0  0  3  0  0  0  0  0  0
  186.9020  177.9520  141.5960 C   0  0  1  0  0  3  0  0  0  0  0  0
  183.7660  179.2520  143.2960 C   0  0  0  0  0  3  0  0  0  0  0  0
  180.8500  176.9870  139.8110 C   0  0  2  0  0  3  0  0  0  0  0  0
  180.5380  177.9420  138.6620 C   0  0  0  0  0  2  0  0  0  0  0  0
  182.7260  178.4850  140.5320 C   0  0  2  0  0  3  0  0  0  0  0  0
  180.9060  179.3700  139.0530 C   0  0  0  0  0  2  0  0  0  0  0  0
  182.3320  177.0530  140.1670 C   0  0  0  0  0  2  0  0  0  0  0  0
  182.3890  179.4580  139.4010 C   0  0  0  0  0  2  0  0  0  0  0  0
  180.5220  175.6970  139.4400 F   0  0  0  0  0  0  0  0  0  0  0  0
  189.7290  177.9300  138.3450 C   0  0  0  0  0  2  0  0  0  0  0  0
  190.7020  176.5470  139.0190 S   0  0  0  0  0  0  0  0  0  0  0  0
  190.4810  174.2660  137.7210 O   0  0  0  0  0  1  0  0  0  0  0  0
  190.6670  175.6240  137.4550 C   0  0  1  0  0  3  0  0  0  0  0  0
  189.5290  176.1420  136.5940 C   0  0  0  0  0  2  0  0  0  0  0  0
  188.4710  174.2100  135.4260 O   0  0  0  0  0  0  0  0  0  0  0  0
  188.4550  175.1170  136.4760 C   0  0  0  0  0  0  0  0  0  0  0  0
  187.5470  175.0540  137.3460 O   0  0  0  0  0  1  0  0  0  0  0  0
  1  5  2  0  0  0  0
  2  6  1  0  0  0  0
  3  8  1  0  0  0  0
  4 10  1  6  0  0  0
  4 18  1  0  0  0  0
  5 11  1  0  0  0  0
  6 11  2  0  0  0  0
  8  2  2  0  0  0  0
  8  1  1  0  0  0  0
  9  7  1  0  0  0  0
 10 17  1  0  0  0  0
 12  3  2  0  0  0  0
 12 19  1  0  0  0  0
 13  1  1  0  0  0  0
 14  2  1  0  0  0  0
 15  4  1  0  0  0  0
 15 16  2  0  0  0  0
 16 12  1  0  0  0  0
 17 27  1  6  0  0  0
 17  9  1  0  0  0  0
 18  7  1  1  0  0  0
 18  3  1  0  0  0  0
 19 13  2  0  0  0  0
 20 26  1  6  0  0  0
 20 24  1  0  0  0  0
 21 23  1  0  0  0  0
 21 20  1  0  0  0  0
 22 16  1  6  0  0  0
 23 25  1  0  0  0  0
 24 22  1  0  0  0  0
 25 22  1  0  0  0  0
 27 28  1  0  0  0  0
 30 29  1  1  0  0  0
 30 28  1  0  0  0  0
 31 30  1  0  0  0  0
 32 33  2  0  0  0  0
 33 31  1  0  0  0  0
 33 34  1  0  0  0  0
M  END
>  <MODEL>
8

>  <REMARK>
 VINA RESULT:      -8.7      2.883      4.398
  Name = 
  6 active torsions:
  status: ('A' for Active; 'I' for Inactive)
    1  A    between atoms: C_3  and  S_13
    2  A    between atoms: C_3  and  C_29
    3  A    between atoms: C_12  and  C_28
    4  A    between atoms: S_13  and  C_33
    5  A    between atoms: C_20  and  C_22
    6  A    between atoms: C_22  and  C_33
                            x       y       z     vdW  Elec       q    Type
                         _______ _______ _______ _____ _____    ______ ____

>  <TORSDO>
F 6

$$$$
=
 OpenBabel10272400123D

 34 38  0  0  1  0  0  0  0  0999 V2000
  192.7610  176.4350  138.2140 C   0  0  0  0  0  0  0  0  0  0  0  0
  190.9240  175.3140  137.0700 C   0  0  0  0  0  0  0  0  0  0  0  0
  190.5070  176.8240  139.0540 C   0  0  0  0  0  0  0  0  0  0  0  0
  188.4150  178.0200  139.8270 C   0  0  1  0  0  3  0  0  0  0  0  0
  193.6420  175.9820  137.2320 C   0  0  0  0  0  3  0  0  0  0  0  0
  191.8300  174.8650  136.1060 C   0  0  0  0  0  3  0  0  0  0  0  0
  188.5960  177.4140  137.4790 C   0  0  0  0  0  2  0  0  0  0  0  0
  191.3630  176.1940  138.1010 C   0  0  0  0  0  0  0  0  0  0  0  0
  187.0710  177.3820  137.3530 C   0  0  0  0  0  2  0  0  0  0  0  0
  186.8960  177.9660  139.8050 C   0  0  0  0  0  2  0  0  0  0  0  0
  193.1750  175.2210  136.1660 C   0  0  0  0  0  3  0  0  0  0  0  0
  191.0850  177.3480  140.2340 C   0  0  0  0  0  0  0  0  0  0  0  0
  193.2650  177.0680  139.3030 N   0  0  0  0  0  0  0  0  0  0  0  0
  189.3550  174.5130  137.0570 Cl  0  0  0  0  0  0  0  0  0  0  0  0
  188.9470  177.9230  141.1780 N   0  0  0  0  0  0  0  0  0  0  0  0
  190.2100  177.7110  141.3830 C   0  0  0  0  0  0  0  0  0  0  0  0
  186.4160  178.3020  138.3890 C   0  0  2  0  0  3  0  0  0  0  0  0
  188.9970  176.9550  138.8850 C   0  0  1  0  0  3  0  0  0  0  0  0
  192.4720  177.4810  140.3200 C   0  0  0  0  0  3  0  0  0  0  0  0
  191.7210  176.4090  144.6680 C   0  0  2  0  0  3  0  0  0  0  0  0
  190.6440  176.9340  145.6130 C   0  0  0  0  0  2  0  0  0  0  0  0
  190.7100  177.7350  142.7970 C   0  0  2  0  0  3  0  0  0  0  0  0
  190.1990  178.3270  145.1790 C   0  0  0  0  0  2  0  0  0  0  0  0
  191.1900  176.3520  143.2400 C   0  0  0  0  0  2  0  0  0  0  0  0
  189.6530  178.2880  143.7550 C   0  0  0  0  0  2  0  0  0  0  0  0
  192.1070  175.1440  145.0670 F   0  0  0  0  0  0  0  0  0  0  0  0
  184.9050  178.1720  138.2980 C   0  0  0  0  0  2  0  0  0  0  0  0
  184.0880  179.4940  139.2460 S   0  0  0  0  0  0  0  0  0  0  0  0
  183.3040  177.0350  139.7790 O   0  0  0  0  0  1  0  0  0  0  0  0
  183.2040  178.3210  140.3160 C   0  0  1  0  0  3  0  0  0  0  0  0
  183.8160  178.3500  141.7040 C   0  0  0  0  0  2  0  0  0  0  0  0
  181.4740  178.8940  142.3620 O   0  0  0  0  0  0  0  0  0  0  0  0
  182.8160  178.8150  142.7060 C   0  0  0  0  0  0  0  0  0  0  0  0
  183.1830  179.1110  143.8730 O   0  0  0  0  0  1  0  0  0  0  0  0
  1 13  1  0  0  0  0
  2  8  1  0  0  0  0
  3 12  2  0  0  0  0
  4 10  1  1  0  0  0
  4 15  1  0  0  0  0
  5  1  1  0  0  0  0
  6 11  1  0  0  0  0
  6  2  2  0  0  0  0
  8  1  2  0  0  0  0
  8  3  1  0  0  0  0
  9  7  1  0  0  0  0
  9 17  1  0  0  0  0
 11  5  2  0  0  0  0
 12 19  1  0  0  0  0
 12 16  1  0  0  0  0
 13 19  2  0  0  0  0
 14  2  1  0  0  0  0
 15 16  2  0  0  0  0
 17 27  1  1  0  0  0
 17 10  1  0  0  0  0
 18  7  1  6  0  0  0
 18  3  1  0  0  0  0
 18  4  1  0  0  0  0
 20 26  1  1  0  0  0
 20 21  1  0  0  0  0
 22 16  1  6  0  0  0
 22 24  1  0  0  0  0
 22 25  1  0  0  0  0
 23 21  1  0  0  0  0
 24 20  1  0  0  0  0
 25 23  1  0  0  0  0
 27 28  1  0  0  0  0
 28 30  1  0  0  0  0
 30 29  1  6  0  0  0
 30 31  1  0  0  0  0
 31 33  1  0  0  0  0
 32 33  2  0  0  0  0
 33 34  1  0  0  0  0
M  END
>  <MODEL>
9

>  <REMARK>
 VINA RESULT:      -8.4      3.709      7.230
  Name = 
  6 active torsions:
  status: ('A' for Active; 'I' for Inactive)
    1  A    between atoms: C_3  and  S_13
    2  A    between atoms: C_3  and  C_29
    3  A    between atoms: C_12  and  C_28
    4  A    between atoms: S_13  and  C_33
    5  A    between atoms: C_20  and  C_22
    6  A    between atoms: C_22  and  C_33
                            x       y       z     vdW  Elec       q    Type
                         _______ _______ _______ _____ _____    ______ ____

>  <TORSDO>
F 6

$$$$
