=
 OpenBabel10272415113D

 34 38  0  0  1  0  0  0  0  0999 V2000
  187.6660  177.5310  144.5230 C   0  0  2  0  0  3  0  0  0  0  0  0
  183.9540  178.5440  145.1990 C   0  0  0  0  0  2  0  0  0  0  0  0
  182.8400  178.9250  141.8920 C   0  0  0  0  0  0  0  0  0  0  0  0
  185.8620  178.3060  146.6420 O   0  0  0  0  0  0  0  0  0  0  0  0
  189.4690  177.5400  146.3000 C   0  0  0  0  0  3  0  0  0  0  0  0
  188.9590  177.9830  148.6240 C   0  0  0  0  0  3  0  0  0  0  0  0
  183.1540  178.6570  140.7020 O   0  0  0  0  0  0  0  0  0  0  0  0
  189.8870  177.6730  147.6260 C   0  0  0  0  0  3  0  0  0  0  0  0
  187.1970  178.0630  146.9640 C   0  0  0  0  0  0  0  0  0  0  0  0
  188.1190  177.7100  145.9600 C   0  0  0  0  0  0  0  0  0  0  0  0
  187.6170  178.1780  148.2930 C   0  0  0  0  0  3  0  0  0  0  0  0
  183.4750  179.6040  144.2170 C   0  0  0  0  0  2  0  0  0  0  0  0
  181.5010  178.9010  142.2650 O   0  0  0  0  0  1  0  0  0  0  0  0
  183.8520  179.2580  142.8520 N   0  0  0  0  0  0  0  0  0  0  0  0
  185.2640  179.1760  142.4970 C   0  0  0  0  0  2  0  0  0  0  0  0
  185.4700  178.5810  145.3020 C   0  0  1  0  0  3  0  0  0  0  0  0
  185.7940  177.7910  142.8470 C   0  0  0  0  0  2  0  0  0  0  0  0
  186.1370  177.5860  144.3360 C   0  0  1  0  0  3  0  0  0  0  0  0
  188.2270  176.2440  143.9020 C   0  0  0  0  0  2  0  0  0  0  0  0
  189.6050  176.4590  143.2830 C   0  0  0  0  0  2  0  0  0  0  0  0
  189.7010  177.8260  142.6210 C   0  0  0  0  0  2  0  0  0  0  0  0
  190.2770  177.1350  138.9680 N   0  0  0  0  0  0  0  0  0  0  0  0
  188.2480  178.0880  140.6000 C   0  0  0  0  0  3  0  0  0  0  0  0
  187.6540  177.6920  136.4620 C   0  0  0  0  0  0  0  0  0  0  0  0
  188.8840  177.3380  137.0350 C   0  0  0  0  0  3  0  0  0  0  0  0
  189.0830  177.4740  138.4110 C   0  0  0  0  0  0  0  0  0  0  0  0
  186.8170  178.3200  138.6560 C   0  0  0  0  0  3  0  0  0  0  0  0
  188.0410  177.9660  139.2260 C   0  0  0  0  0  0  0  0  0  0  0  0
  186.6260  178.1850  137.2780 C   0  0  0  0  0  3  0  0  0  0  0  0
  189.4810  177.7250  141.1470 C   0  0  0  0  0  0  0  0  0  0  0  0
  190.4950  177.2510  140.3060 C   0  0  0  0  0  3  0  0  0  0  0  0
  187.4330  177.5440  135.0160 C   0  0  0  0  0  0  0  0  0  0  0  0
  186.6680  178.4420  134.3470 F   0  0  0  0  0  0  0  0  0  0  0  0
  187.9500  176.5840  134.3840 O   0  0  0  0  0  0  0  0  0  0  0  0
  1 19  1  1  0  0  0
  1 10  1  0  0  0  0
  3 13  1  0  0  0  0
  3 14  1  0  0  0  0
  4  9  1  0  0  0  0
  5  8  1  0  0  0  0
  7  3  2  0  0  0  0
  8  6  2  0  0  0  0
  9 11  2  0  0  0  0
 10  5  2  0  0  0  0
 10  9  1  0  0  0  0
 11  6  1  0  0  0  0
 12  2  1  0  0  0  0
 14 12  1  0  0  0  0
 15 17  1  0  0  0  0
 15 14  1  0  0  0  0
 16  2  1  1  0  0  0
 16  4  1  0  0  0  0
 18 17  1  6  0  0  0
 18  1  1  0  0  0  0
 18 16  1  0  0  0  0
 20 19  1  0  0  0  0
 21 20  1  0  0  0  0
 22 31  1  0  0  0  0
 23 30  1  0  0  0  0
 24 25  2  0  0  0  0
 24 29  1  0  0  0  0
 25 26  1  0  0  0  0
 26 22  2  0  0  0  0
 26 28  1  0  0  0  0
 27 28  1  0  0  0  0
 28 23  2  0  0  0  0
 29 27  2  0  0  0  0
 30 21  1  0  0  0  0
 31 30  2  0  0  0  0
 32 24  1  0  0  0  0
 33 32  1  0  0  0  0
 34 32  2  0  0  0  0
M  END
>  <MODEL>
1

>  <REMARK>
 VINA RESULT:     -10.2      0.000      0.000
  Name = 
  5 active torsions:
  status: ('A' for Active; 'I' for Inactive)
    1  A    between atoms: C_1  and  C_9
    2  A    between atoms: C_7  and  C_11
    3  A    between atoms: C_8  and  C_9
    4  A    between atoms: C_8  and  C_18
    5  A    between atoms: C_18  and  C_30
                            x       y       z     vdW  Elec       q    Type
                         _______ _______ _______ _____ _____    ______ ____

>  <TORSDO>
F 5

$$$$
=
 OpenBabel10272415113D

 34 38  0  0  1  0  0  0  0  0999 V2000
  187.5640  177.6240  144.5600 C   0  0  2  0  0  3  0  0  0  0  0  0
  183.7880  178.4790  145.0840 C   0  0  0  0  0  2  0  0  0  0  0  0
  182.8150  178.9030  141.7380 C   0  0  0  0  0  0  0  0  0  0  0  0
  185.6360  178.2770  146.6100 O   0  0  0  0  0  0  0  0  0  0  0  0
  189.2810  177.6550  146.4200 C   0  0  0  0  0  3  0  0  0  0  0  0
  188.6480  178.0190  148.7280 C   0  0  0  0  0  3  0  0  0  0  0  0
  183.1940  178.6770  140.5590 O   0  0  0  0  0  0  0  0  0  0  0  0
  189.6320  177.7700  147.7680 C   0  0  0  0  0  3  0  0  0  0  0  0
  186.9620  178.0760  146.9890 C   0  0  0  0  0  0  0  0  0  0  0  0
  187.9430  177.7830  146.0210 C   0  0  0  0  0  0  0  0  0  0  0  0
  187.3150  178.1730  148.3380 C   0  0  0  0  0  3  0  0  0  0  0  0
  183.3150  179.5460  144.1060 C   0  0  0  0  0  2  0  0  0  0  0  0
  181.4620  178.8190  142.0460 O   0  0  0  0  0  1  0  0  0  0  0  0
  183.7670  179.2490  142.7530 N   0  0  0  0  0  0  0  0  0  0  0  0
  185.1970  179.2290  142.4630 C   0  0  0  0  0  2  0  0  0  0  0  0
  185.2960  178.5700  145.2600 C   0  0  1  0  0  3  0  0  0  0  0  0
  185.7640  177.8560  142.8050 C   0  0  0  0  0  2  0  0  0  0  0  0
  186.0440  177.6270  144.3030 C   0  0  1  0  0  3  0  0  0  0  0  0
  188.2030  176.3750  143.9370 C   0  0  0  0  0  2  0  0  0  0  0  0
  189.6810  176.5830  143.6210 C   0  0  0  0  0  2  0  0  0  0  0  0
  189.9080  177.9140  142.9180 C   0  0  0  0  0  2  0  0  0  0  0  0
  188.3270  178.4470  139.5450 N   0  0  0  0  0  0  0  0  0  0  0  0
  190.4140  176.9910  140.6470 C   0  0  0  0  0  3  0  0  0  0  0  0
  189.6150  176.7990  136.5300 C   0  0  0  0  0  0  0  0  0  0  0  0
  188.8280  177.6060  137.3640 C   0  0  0  0  0  3  0  0  0  0  0  0
  189.0920  177.6670  138.7350 C   0  0  0  0  0  0  0  0  0  0  0  0
  190.9370  176.1100  138.4490 C   0  0  0  0  0  3  0  0  0  0  0  0
  190.1550  176.9150  139.2790 C   0  0  0  0  0  0  0  0  0  0  0  0
  190.6660  176.0520  137.0800 C   0  0  0  0  0  3  0  0  0  0  0  0
  189.6190  177.8060  141.4570 C   0  0  0  0  0  0  0  0  0  0  0  0
  188.5660  178.5280  140.8830 C   0  0  0  0  0  3  0  0  0  0  0  0
  189.3500  176.7370  135.0840 C   0  0  0  0  0  0  0  0  0  0  0  0
  188.8500  175.6040  134.5310 F   0  0  0  0  0  0  0  0  0  0  0  0
  189.5850  177.7300  134.3460 O   0  0  0  0  0  0  0  0  0  0  0  0
  1 19  1  1  0  0  0
  1 10  1  0  0  0  0
  3 13  1  0  0  0  0
  3 14  1  0  0  0  0
  4  9  1  0  0  0  0
  5  8  1  0  0  0  0
  7  3  2  0  0  0  0
  8  6  2  0  0  0  0
  9 11  2  0  0  0  0
 10  5  2  0  0  0  0
 10  9  1  0  0  0  0
 11  6  1  0  0  0  0
 12  2  1  0  0  0  0
 14 12  1  0  0  0  0
 15 14  1  0  0  0  0
 15 17  1  0  0  0  0
 16  2  1  1  0  0  0
 16  4  1  0  0  0  0
 18 17  1  6  0  0  0
 18  1  1  0  0  0  0
 18 16  1  0  0  0  0
 20 19  1  0  0  0  0
 21 20  1  0  0  0  0
 22 31  1  0  0  0  0
 23 30  1  0  0  0  0
 24 29  1  0  0  0  0
 24 25  2  0  0  0  0
 25 26  1  0  0  0  0
 26 28  1  0  0  0  0
 26 22  2  0  0  0  0
 27 28  1  0  0  0  0
 28 23  2  0  0  0  0
 29 27  2  0  0  0  0
 30 21  1  0  0  0  0
 31 30  2  0  0  0  0
 32 24  1  0  0  0  0
 33 32  1  0  0  0  0
 34 32  2  0  0  0  0
M  END
>  <MODEL>
2

>  <REMARK>
 VINA RESULT:     -10.0      1.132      1.656
  Name = 
  5 active torsions:
  status: ('A' for Active; 'I' for Inactive)
    1  A    between atoms: C_1  and  C_9
    2  A    between atoms: C_7  and  C_11
    3  A    between atoms: C_8  and  C_9
    4  A    between atoms: C_8  and  C_18
    5  A    between atoms: C_18  and  C_30
                            x       y       z     vdW  Elec       q    Type
                         _______ _______ _______ _____ _____    ______ ____

>  <TORSDO>
F 5

$$$$
=
 OpenBabel10272415113D

 34 38  0  0  1  0  0  0  0  0999 V2000
  187.6550  177.5960  144.4470 C   0  0  2  0  0  3  0  0  0  0  0  0
  183.9080  178.5130  145.0670 C   0  0  0  0  0  2  0  0  0  0  0  0
  182.8590  178.9580  141.7470 C   0  0  0  0  0  0  0  0  0  0  0  0
  185.7900  178.2780  146.5450 O   0  0  0  0  0  0  0  0  0  0  0  0
  189.4180  177.5960  146.2630 C   0  0  0  0  0  3  0  0  0  0  0  0
  188.8500  177.9670  148.5860 C   0  0  0  0  0  3  0  0  0  0  0  0
  183.2040  178.7280  140.5580 O   0  0  0  0  0  0  0  0  0  0  0  0
  189.8050  177.7030  147.6010 C   0  0  0  0  0  3  0  0  0  0  0  0
  187.1220  178.0540  146.8900 C   0  0  0  0  0  0  0  0  0  0  0  0
  188.0730  177.7460  145.8980 C   0  0  0  0  0  0  0  0  0  0  0  0
  187.5110  178.1430  148.2310 C   0  0  0  0  0  3  0  0  0  0  0  0
  183.4280  179.5890  144.1020 C   0  0  0  0  0  2  0  0  0  0  0  0
  181.5120  178.8970  142.0890 O   0  0  0  0  0  1  0  0  0  0  0  0
  183.8420  179.2870  142.7370 N   0  0  0  0  0  0  0  0  0  0  0  0
  185.2630  179.2430  142.4110 C   0  0  0  0  0  2  0  0  0  0  0  0
  185.4210  178.5790  145.2040 C   0  0  1  0  0  3  0  0  0  0  0  0
  185.8150  177.8610  142.7380 C   0  0  0  0  0  2  0  0  0  0  0  0
  186.1290  177.6240  144.2270 C   0  0  1  0  0  3  0  0  0  0  0  0
  188.2560  176.3370  143.8060 C   0  0  0  0  0  2  0  0  0  0  0  0
  189.6220  176.6080  143.1810 C   0  0  0  0  0  2  0  0  0  0  0  0
  189.5320  177.6920  142.1160 C   0  0  0  0  0  2  0  0  0  0  0  0
  192.6490  177.2380  140.0590 N   0  0  0  0  0  0  0  0  0  0  0  0
  189.9090  176.9460  139.7570 C   0  0  0  0  0  3  0  0  0  0  0  0
  192.5160  176.0300  136.5960 C   0  0  0  0  0  0  0  0  0  0  0  0
  193.0250  176.4840  137.8210 C   0  0  0  0  0  3  0  0  0  0  0  0
  192.1570  176.7930  138.8720 C   0  0  0  0  0  0  0  0  0  0  0  0
  190.2570  176.1930  137.4780 C   0  0  0  0  0  3  0  0  0  0  0  0
  190.7640  176.6440  138.6980 C   0  0  0  0  0  0  0  0  0  0  0  0
  191.1310  175.8890  136.4310 C   0  0  0  0  0  3  0  0  0  0  0  0
  190.4400  177.3930  140.9690 C   0  0  0  0  0  0  0  0  0  0  0  0
  191.8260  177.5400  141.1000 C   0  0  0  0  0  3  0  0  0  0  0  0
  193.4240  175.6940  135.4890 C   0  0  0  0  0  0  0  0  0  0  0  0
  192.9660  174.9950  134.4210 F   0  0  0  0  0  0  0  0  0  0  0  0
  194.6320  176.0490  135.5190 O   0  0  0  0  0  0  0  0  0  0  0  0
  1 19  1  1  0  0  0
  1 10  1  0  0  0  0
  3 13  1  0  0  0  0
  3 14  1  0  0  0  0
  4  9  1  0  0  0  0
  5  8  1  0  0  0  0
  7  3  2  0  0  0  0
  8  6  2  0  0  0  0
  9 11  2  0  0  0  0
 10  5  2  0  0  0  0
 10  9  1  0  0  0  0
 11  6  1  0  0  0  0
 12  2  1  0  0  0  0
 14 12  1  0  0  0  0
 15 14  1  0  0  0  0
 15 17  1  0  0  0  0
 16  2  1  1  0  0  0
 16  4  1  0  0  0  0
 18 17  1  6  0  0  0
 18  1  1  0  0  0  0
 18 16  1  0  0  0  0
 20 19  1  0  0  0  0
 21 20  1  0  0  0  0
 22 31  1  0  0  0  0
 23 30  1  0  0  0  0
 24 25  2  0  0  0  0
 25 26  1  0  0  0  0
 26 22  2  0  0  0  0
 27 28  1  0  0  0  0
 28 26  1  0  0  0  0
 28 23  2  0  0  0  0
 29 24  1  0  0  0  0
 29 27  2  0  0  0  0
 30 31  2  0  0  0  0
 30 21  1  0  0  0  0
 32 34  2  0  0  0  0
 32 24  1  0  0  0  0
 33 32  1  0  0  0  0
M  END
>  <MODEL>
3

>  <REMARK>
 VINA RESULT:      -9.7      2.313      2.774
  Name = 
  5 active torsions:
  status: ('A' for Active; 'I' for Inactive)
    1  A    between atoms: C_1  and  C_9
    2  A    between atoms: C_7  and  C_11
    3  A    between atoms: C_8  and  C_9
    4  A    between atoms: C_8  and  C_18
    5  A    between atoms: C_18  and  C_30
                            x       y       z     vdW  Elec       q    Type
                         _______ _______ _______ _____ _____    ______ ____

>  <TORSDO>
F 5

$$$$
=
 OpenBabel10272415113D

 34 38  0  0  1  0  0  0  0  0999 V2000
  185.5810  179.1610  139.7130 C   0  0  2  0  0  3  0  0  0  0  0  0
  187.3830  176.2670  137.8040 C   0  0  0  0  0  2  0  0  0  0  0  0
  190.6750  176.8080  138.8950 C   0  0  0  0  0  0  0  0  0  0  0  0
  185.1590  177.1700  137.6630 O   0  0  0  0  0  0  0  0  0  0  0  0
  183.2360  179.9480  139.1780 C   0  0  0  0  0  3  0  0  0  0  0  0
  181.8490  178.8020  137.5590 C   0  0  0  0  0  3  0  0  0  0  0  0
  191.3420  177.4220  139.7690 O   0  0  0  0  0  1  0  0  0  0  0  0
  182.0240  179.8270  138.4920 C   0  0  0  0  0  3  0  0  0  0  0  0
  184.1120  178.0390  137.9680 C   0  0  0  0  0  0  0  0  0  0  0  0
  184.2800  179.0430  138.9410 C   0  0  0  0  0  0  0  0  0  0  0  0
  182.8920  177.9100  137.2960 C   0  0  0  0  0  3  0  0  0  0  0  0
  188.7520  176.7000  137.2950 C   0  0  0  0  0  2  0  0  0  0  0  0
  191.0970  175.5530  138.4730 O   0  0  0  0  0  0  0  0  0  0  0  0
  189.4950  177.4010  138.3340 N   0  0  0  0  0  0  0  0  0  0  0  0
  188.9860  178.6650  138.8520 C   0  0  0  0  0  2  0  0  0  0  0  0
  186.5000  177.4880  138.0140 C   0  0  1  0  0  3  0  0  0  0  0  0
  187.9730  178.3890  139.9570 C   0  0  0  0  0  2  0  0  0  0  0  0
  186.5660  178.0010  139.4630 C   0  0  1  0  0  3  0  0  0  0  0  0
  185.3380  179.3310  141.2200 C   0  0  0  0  0  2  0  0  0  0  0  0
  184.7770  178.0630  141.8570 C   0  0  0  0  0  2  0  0  0  0  0  0
  184.4840  178.2760  143.3350 C   0  0  0  0  0  2  0  0  0  0  0  0
  186.7940  178.0360  146.2960 N   0  0  0  0  0  0  0  0  0  0  0  0
  186.8860  177.6080  143.5580 C   0  0  0  0  0  3  0  0  0  0  0  0
  190.2670  176.9060  145.9460 C   0  0  0  0  0  0  0  0  0  0  0  0
  189.0740  177.3570  146.5280 C   0  0  0  0  0  3  0  0  0  0  0  0
  187.9500  177.5950  145.7330 C   0  0  0  0  0  0  0  0  0  0  0  0
  189.2050  176.9280  143.7600 C   0  0  0  0  0  3  0  0  0  0  0  0
  188.0170  177.3760  144.3400 C   0  0  0  0  0  0  0  0  0  0  0  0
  190.3260  176.6960  144.5610 C   0  0  0  0  0  3  0  0  0  0  0  0
  185.7080  178.0530  144.1620 C   0  0  0  0  0  0  0  0  0  0  0  0
  185.6830  178.2700  145.5450 C   0  0  0  0  0  3  0  0  0  0  0  0
  191.4520  176.6440  146.7770 C   0  0  0  0  0  0  0  0  0  0  0  0
  192.3550  175.7040  146.4010 F   0  0  0  0  0  0  0  0  0  0  0  0
  191.6410  177.2870  147.8440 O   0  0  0  0  0  0  0  0  0  0  0  0
  1 19  1  1  0  0  0
  3  7  1  0  0  0  0
  4  9  1  0  0  0  0
  4 16  1  0  0  0  0
  6  8  1  0  0  0  0
  8  5  2  0  0  0  0
  9 10  2  0  0  0  0
 10  5  1  0  0  0  0
 10  1  1  0  0  0  0
 11  6  2  0  0  0  0
 11  9  1  0  0  0  0
 12  2  1  0  0  0  0
 12 14  1  0  0  0  0
 13  3  2  0  0  0  0
 14 15  1  0  0  0  0
 14  3  1  0  0  0  0
 15 17  1  0  0  0  0
 16  2  1  1  0  0  0
 16 18  1  0  0  0  0
 18  1  1  0  0  0  0
 18 17  1  6  0  0  0
 19 20  1  0  0  0  0
 20 21  1  0  0  0  0
 21 30  1  0  0  0  0
 23 30  2  0  0  0  0
 23 28  1  0  0  0  0
 24 25  1  0  0  0  0
 24 32  1  0  0  0  0
 26 22  1  0  0  0  0
 26 25  2  0  0  0  0
 27 28  2  0  0  0  0
 27 29  1  0  0  0  0
 28 26  1  0  0  0  0
 29 24  2  0  0  0  0
 30 31  1  0  0  0  0
 31 22  2  0  0  0  0
 32 34  2  0  0  0  0
 33 32  1  0  0  0  0
M  END
>  <MODEL>
4

>  <REMARK>
 VINA RESULT:      -9.6      3.547      8.687
  Name = 
  5 active torsions:
  status: ('A' for Active; 'I' for Inactive)
    1  A    between atoms: C_1  and  C_9
    2  A    between atoms: C_7  and  C_11
    3  A    between atoms: C_8  and  C_9
    4  A    between atoms: C_8  and  C_18
    5  A    between atoms: C_18  and  C_30
                            x       y       z     vdW  Elec       q    Type
                         _______ _______ _______ _____ _____    ______ ____

>  <TORSDO>
F 5

$$$$
=
 OpenBabel10272415113D

 34 38  0  0  1  0  0  0  0  0999 V2000
  184.4570  179.0070  138.8520 C   0  0  2  0  0  3  0  0  0  0  0  0
  185.3540  176.0150  136.5050 C   0  0  0  0  0  2  0  0  0  0  0  0
  188.8540  176.2790  136.5330 C   0  0  0  0  0  0  0  0  0  0  0  0
  183.2720  177.0910  137.0440 O   0  0  0  0  0  0  0  0  0  0  0  0
  182.1310  179.9840  139.0540 C   0  0  0  0  0  3  0  0  0  0  0  0
  180.2300  178.9780  137.9450 C   0  0  0  0  0  3  0  0  0  0  0  0
  189.8030  176.8230  137.1570 O   0  0  0  0  0  1  0  0  0  0  0  0
  180.7620  179.9700  138.7720 C   0  0  0  0  0  3  0  0  0  0  0  0
  182.4410  178.0340  137.6480 C   0  0  0  0  0  0  0  0  0  0  0  0
  182.9780  179.0050  138.5150 C   0  0  0  0  0  0  0  0  0  0  0  0
  181.0680  178.0120  137.3830 C   0  0  0  0  0  3  0  0  0  0  0  0
  186.5320  176.3480  135.5990 C   0  0  0  0  0  2  0  0  0  0  0  0
  189.0260  175.0020  136.0110 O   0  0  0  0  0  0  0  0  0  0  0  0
  187.6110  176.9710  136.3550 N   0  0  0  0  0  0  0  0  0  0  0  0
  187.3860  178.2620  136.9950 C   0  0  0  0  0  2  0  0  0  0  0  0
  184.6770  177.2970  136.9660 C   0  0  1  0  0  3  0  0  0  0  0  0
  186.7400  178.0470  138.3580 C   0  0  0  0  0  2  0  0  0  0  0  0
  185.2230  177.7790  138.3220 C   0  0  1  0  0  3  0  0  0  0  0  0
  184.7010  179.1700  140.3590 C   0  0  0  0  0  2  0  0  0  0  0  0
  184.0960  178.0240  141.1650 C   0  0  0  0  0  2  0  0  0  0  0  0
  183.3300  178.5470  142.3720 C   0  0  0  0  0  2  0  0  0  0  0  0
  184.4460  178.9120  145.9460 N   0  0  0  0  0  0  0  0  0  0  0  0
  185.4980  178.0620  143.5260 C   0  0  0  0  0  3  0  0  0  0  0  0
  187.8180  177.9440  147.0220 C   0  0  0  0  0  0  0  0  0  0  0  0
  186.4970  178.4110  147.0680 C   0  0  0  0  0  3  0  0  0  0  0  0
  185.7260  178.4550  145.9040 C   0  0  0  0  0  0  0  0  0  0  0  0
  187.5950  177.5590  144.6330 C   0  0  0  0  0  3  0  0  0  0  0  0
  186.2800  178.0230  144.6790 C   0  0  0  0  0  0  0  0  0  0  0  0
  188.3620  177.5220  145.8010 C   0  0  0  0  0  3  0  0  0  0  0  0
  184.1830  178.5280  143.5970 C   0  0  0  0  0  0  0  0  0  0  0  0
  183.6720  178.9590  144.8280 C   0  0  0  0  0  3  0  0  0  0  0  0
  188.6330  177.8860  148.2450 C   0  0  0  0  0  0  0  0  0  0  0  0
  188.0560  178.0740  149.4580 F   0  0  0  0  0  0  0  0  0  0  0  0
  189.8720  177.6640  148.1800 O   0  0  0  0  0  0  0  0  0  0  0  0
  1 19  1  1  0  0  0
  3  7  1  0  0  0  0
  4  9  1  0  0  0  0
  6  8  2  0  0  0  0
  8  5  1  0  0  0  0
  9 10  1  0  0  0  0
 10  1  1  0  0  0  0
 10  5  2  0  0  0  0
 11  9  2  0  0  0  0
 11  6  1  0  0  0  0
 12 14  1  0  0  0  0
 12  2  1  0  0  0  0
 13  3  2  0  0  0  0
 14  3  1  0  0  0  0
 14 15  1  0  0  0  0
 15 17  1  0  0  0  0
 16  2  1  1  0  0  0
 16  4  1  0  0  0  0
 16 18  1  0  0  0  0
 18 17  1  6  0  0  0
 18  1  1  0  0  0  0
 19 20  1  0  0  0  0
 20 21  1  0  0  0  0
 21 30  1  0  0  0  0
 23 30  2  0  0  0  0
 23 28  1  0  0  0  0
 24 25  1  0  0  0  0
 24 32  1  0  0  0  0
 26 22  1  0  0  0  0
 26 25  2  0  0  0  0
 27 28  2  0  0  0  0
 27 29  1  0  0  0  0
 28 26  1  0  0  0  0
 29 24  2  0  0  0  0
 30 31  1  0  0  0  0
 31 22  2  0  0  0  0
 32 33  1  0  0  0  0
 34 32  2  0  0  0  0
M  END
>  <MODEL>
5

>  <REMARK>
 VINA RESULT:      -9.4      3.623      9.350
  Name = 
  5 active torsions:
  status: ('A' for Active; 'I' for Inactive)
    1  A    between atoms: C_1  and  C_9
    2  A    between atoms: C_7  and  C_11
    3  A    between atoms: C_8  and  C_9
    4  A    between atoms: C_8  and  C_18
    5  A    between atoms: C_18  and  C_30
                            x       y       z     vdW  Elec       q    Type
                         _______ _______ _______ _____ _____    ______ ____

>  <TORSDO>
F 5

$$$$
=
 OpenBabel10272415113D

 34 38  0  0  1  0  0  0  0  0999 V2000
  189.9990  177.3110  137.0740 C   0  0  2  0  0  3  0  0  0  0  0  0
  191.5810  173.7400  136.9680 C   0  0  0  0  0  2  0  0  0  0  0  0
  194.7080  174.4440  138.4000 C   0  0  0  0  0  0  0  0  0  0  0  0
  189.5820  174.6610  136.0000 O   0  0  0  0  0  0  0  0  0  0  0  0
  187.9240  177.9650  135.7800 C   0  0  0  0  0  3  0  0  0  0  0  0
  186.6390  176.3370  134.5330 C   0  0  0  0  0  3  0  0  0  0  0  0
  195.3220  175.3250  139.0580 O   0  0  0  0  0  1  0  0  0  0  0  0
  186.8300  177.6500  134.9690 C   0  0  0  0  0  3  0  0  0  0  0  0
  188.6560  175.6560  135.6880 C   0  0  0  0  0  0  0  0  0  0  0  0
  188.8320  176.9680  136.1660 C   0  0  0  0  0  0  0  0  0  0  0  0
  187.5500  175.3410  134.8920 C   0  0  0  0  0  3  0  0  0  0  0  0
  193.0640  173.7950  136.6260 C   0  0  0  0  0  2  0  0  0  0  0  0
  194.9810  173.1020  138.6380 O   0  0  0  0  0  0  0  0  0  0  0  0
  193.7420  174.8200  137.4090 N   0  0  0  0  0  0  0  0  0  0  0  0
  193.3700  176.2200  137.2340 C   0  0  0  0  0  2  0  0  0  0  0  0
  190.8870  174.9940  136.4610 C   0  0  1  0  0  3  0  0  0  0  0  0
  192.1670  176.5390  138.1130 C   0  0  0  0  0  2  0  0  0  0  0  0
  190.8090  176.0860  137.5420 C   0  0  1  0  0  3  0  0  0  0  0  0
  189.5570  178.1450  138.2840 C   0  0  0  0  0  2  0  0  0  0  0  0
  188.8560  177.2950  139.3410 C   0  0  0  0  0  2  0  0  0  0  0  0
  188.5010  178.1270  140.5650 C   0  0  0  0  0  2  0  0  0  0  0  0
  191.3340  176.9010  142.7170 N   0  0  0  0  0  0  0  0  0  0  0  0
  188.6990  177.7060  143.0250 C   0  0  0  0  0  3  0  0  0  0  0  0
  190.9830  176.5530  146.3530 C   0  0  0  0  0  0  0  0  0  0  0  0
  191.5490  176.5380  145.0700 C   0  0  0  0  0  3  0  0  0  0  0  0
  190.7880  176.9180  143.9620 C   0  0  0  0  0  0  0  0  0  0  0  0
  188.8820  177.3330  145.4140 C   0  0  0  0  0  3  0  0  0  0  0  0
  189.4460  177.3200  144.1370 C   0  0  0  0  0  0  0  0  0  0  0  0
  189.6490  176.9490  146.5170 C   0  0  0  0  0  3  0  0  0  0  0  0
  189.2860  177.6870  141.7570 C   0  0  0  0  0  0  0  0  0  0  0  0
  190.6160  177.2720  141.6220 C   0  0  0  0  0  3  0  0  0  0  0  0
  191.7810  176.1630  147.5260 C   0  0  0  0  0  0  0  0  0  0  0  0
  191.9140  174.8540  147.8550 F   0  0  0  0  0  0  0  0  0  0  0  0
  192.3470  177.0370  148.2350 O   0  0  0  0  0  0  0  0  0  0  0  0
  1 18  1  0  0  0  0
  1 19  1  1  0  0  0
  3 13  2  0  0  0  0
  3  7  1  0  0  0  0
  4 16  1  0  0  0  0
  5 10  1  0  0  0  0
  6 11  2  0  0  0  0
  6  8  1  0  0  0  0
  8  5  2  0  0  0  0
  9  4  1  0  0  0  0
  9 10  2  0  0  0  0
 10  1  1  0  0  0  0
 11  9  1  0  0  0  0
 12  2  1  0  0  0  0
 12 14  1  0  0  0  0
 14  3  1  0  0  0  0
 15 14  1  0  0  0  0
 15 17  1  0  0  0  0
 16  2  1  1  0  0  0
 16 18  1  0  0  0  0
 18 17  1  6  0  0  0
 19 20  1  0  0  0  0
 20 21  1  0  0  0  0
 21 30  1  0  0  0  0
 22 26  1  0  0  0  0
 23 28  1  0  0  0  0
 24 29  1  0  0  0  0
 24 32  1  0  0  0  0
 25 24  2  0  0  0  0
 26 28  2  0  0  0  0
 26 25  1  0  0  0  0
 27 29  2  0  0  0  0
 28 27  1  0  0  0  0
 30 23  2  0  0  0  0
 31 30  1  0  0  0  0
 31 22  2  0  0  0  0
 32 33  1  0  0  0  0
 32 34  2  0  0  0  0
M  END
>  <MODEL>
6

>  <REMARK>
 VINA RESULT:      -9.1      4.666     10.283
  Name = 
  5 active torsions:
  status: ('A' for Active; 'I' for Inactive)
    1  A    between atoms: C_1  and  C_9
    2  A    between atoms: C_7  and  C_11
    3  A    between atoms: C_8  and  C_9
    4  A    between atoms: C_8  and  C_18
    5  A    between atoms: C_18  and  C_30
                            x       y       z     vdW  Elec       q    Type
                         _______ _______ _______ _____ _____    ______ ____

>  <TORSDO>
F 5

$$$$
=
 OpenBabel10272415113D

 34 38  0  0  1  0  0  0  0  0999 V2000
  188.6010  177.4500  144.5610 C   0  0  2  0  0  3  0  0  0  0  0  0
  191.0650  177.8810  141.5600 C   0  0  0  0  0  2  0  0  0  0  0  0
  188.7480  178.2410  138.9490 C   0  0  0  0  0  0  0  0  0  0  0  0
  191.3950  177.2440  143.8550 O   0  0  0  0  0  0  0  0  0  0  0  0
  189.3010  176.5980  146.8400 C   0  0  0  0  0  3  0  0  0  0  0  0
  191.6230  176.1860  147.3840 C   0  0  0  0  0  3  0  0  0  0  0  0
  187.5290  178.4700  138.7280 O   0  0  0  0  0  1  0  0  0  0  0  0
  190.2770  176.2010  147.7580 C   0  0  0  0  0  3  0  0  0  0  0  0
  191.0160  176.9290  145.1600 C   0  0  0  0  0  0  0  0  0  0  0  0
  189.6620  176.9880  145.5420 C   0  0  0  0  0  0  0  0  0  0  0  0
  191.9920  176.5480  146.0870 C   0  0  0  0  0  3  0  0  0  0  0  0
  190.5560  177.1730  140.3120 C   0  0  0  0  0  2  0  0  0  0  0  0
  189.7040  178.7440  138.0730 O   0  0  0  0  0  0  0  0  0  0  0  0
  189.1460  177.4650  140.0860 N   0  0  0  0  0  0  0  0  0  0  0  0
  188.1580  177.0310  141.0670 C   0  0  0  0  0  2  0  0  0  0  0  0
  190.4420  177.2580  142.7990 C   0  0  1  0  0  3  0  0  0  0  0  0
  188.0530  178.0710  142.1760 C   0  0  0  0  0  2  0  0  0  0  0  0
  189.1680  178.0000  143.2370 C   0  0  1  0  0  3  0  0  0  0  0  0
  187.6450  178.4720  145.1920 C   0  0  0  0  0  2  0  0  0  0  0  0
  186.2840  177.8620  145.5140 C   0  0  0  0  0  2  0  0  0  0  0  0
  185.2040  178.9330  145.5710 C   0  0  0  0  0  2  0  0  0  0  0  0
  182.1320  178.8640  143.3990 N   0  0  0  0  0  0  0  0  0  0  0  0
  184.8860  178.8040  143.0910 C   0  0  0  0  0  3  0  0  0  0  0  0
  182.3600  178.7250  139.7390 C   0  0  0  0  0  0  0  0  0  0  0  0
  181.8160  178.7860  141.0310 C   0  0  0  0  0  3  0  0  0  0  0  0
  182.6570  178.8080  142.1460 C   0  0  0  0  0  0  0  0  0  0  0  0
  184.5980  178.7090  140.6860 C   0  0  0  0  0  3  0  0  0  0  0  0
  184.0570  178.7720  141.9710 C   0  0  0  0  0  0  0  0  0  0  0  0
  183.7510  178.6840  139.5740 C   0  0  0  0  0  3  0  0  0  0  0  0
  184.3220  178.8690  144.3670 C   0  0  0  0  0  0  0  0  0  0  0  0
  182.9280  178.8920  144.5020 C   0  0  0  0  0  3  0  0  0  0  0  0
  181.4820  178.7100  138.5590 C   0  0  0  0  0  0  0  0  0  0  0  0
  180.1560  178.9650  138.6930 F   0  0  0  0  0  0  0  0  0  0  0  0
  181.9480  178.4610  137.4160 O   0  0  0  0  0  0  0  0  0  0  0  0
  1 19  1  1  0  0  0
  1 10  1  0  0  0  0
  3 14  1  0  0  0  0
  4  9  1  0  0  0  0
  5  8  1  0  0  0  0
  6  8  2  0  0  0  0
  7  3  1  0  0  0  0
  9 10  1  0  0  0  0
  9 11  2  0  0  0  0
 10  5  2  0  0  0  0
 11  6  1  0  0  0  0
 12  2  1  0  0  0  0
 13  3  2  0  0  0  0
 14 12  1  0  0  0  0
 14 15  1  0  0  0  0
 15 17  1  0  0  0  0
 16  2  1  6  0  0  0
 16 18  1  0  0  0  0
 16  4  1  0  0  0  0
 18 17  1  6  0  0  0
 18  1  1  0  0  0  0
 19 20  1  0  0  0  0
 20 21  1  0  0  0  0
 22 31  1  0  0  0  0
 23 30  1  0  0  0  0
 24 25  2  0  0  0  0
 25 26  1  0  0  0  0
 26 22  2  0  0  0  0
 27 28  1  0  0  0  0
 28 26  1  0  0  0  0
 28 23  2  0  0  0  0
 29 24  1  0  0  0  0
 29 27  2  0  0  0  0
 30 31  2  0  0  0  0
 30 21  1  0  0  0  0
 32 33  1  0  0  0  0
 32 24  1  0  0  0  0
 34 32  2  0  0  0  0
M  END
>  <MODEL>
7

>  <REMARK>
 VINA RESULT:      -9.1      2.669      5.802
  Name = 
  5 active torsions:
  status: ('A' for Active; 'I' for Inactive)
    1  A    between atoms: C_1  and  C_9
    2  A    between atoms: C_7  and  C_11
    3  A    between atoms: C_8  and  C_9
    4  A    between atoms: C_8  and  C_18
    5  A    between atoms: C_18  and  C_30
                            x       y       z     vdW  Elec       q    Type
                         _______ _______ _______ _____ _____    ______ ____

>  <TORSDO>
F 5

$$$$
=
 OpenBabel10272415113D

 34 38  0  0  1  0  0  0  0  0999 V2000
  184.3690  178.3120  142.0340 C   0  0  2  0  0  3  0  0  0  0  0  0
  185.7550  178.8120  145.6520 C   0  0  0  0  0  2  0  0  0  0  0  0
  189.0140  177.5870  145.2040 C   0  0  0  0  0  0  0  0  0  0  0  0
  183.5430  178.9730  144.7220 O   0  0  0  0  0  0  0  0  0  0  0  0
  181.9090  178.4140  141.4470 C   0  0  0  0  0  3  0  0  0  0  0  0
  180.2380  179.0470  143.0800 C   0  0  0  0  0  3  0  0  0  0  0  0
  189.8450  177.2830  144.3080 O   0  0  0  0  0  0  0  0  0  0  0  0
  180.5750  178.6630  141.7790 C   0  0  0  0  0  3  0  0  0  0  0  0
  182.5670  178.8970  143.7290 C   0  0  0  0  0  0  0  0  0  0  0  0
  182.9190  178.5520  142.4100 C   0  0  0  0  0  0  0  0  0  0  0  0
  181.2330  179.1630  144.0530 C   0  0  0  0  0  3  0  0  0  0  0  0
  186.6640  177.6630  146.0670 C   0  0  0  0  0  2  0  0  0  0  0  0
  189.4670  178.1560  146.3890 O   0  0  0  0  0  1  0  0  0  0  0  0
  187.6140  177.3430  145.0090 N   0  0  0  0  0  0  0  0  0  0  0  0
  187.1220  176.8510  143.7270 C   0  0  0  0  0  2  0  0  0  0  0  0
  184.8130  178.3540  144.5500 C   0  0  1  0  0  3  0  0  0  0  0  0
  186.7450  178.0330  142.8420 C   0  0  0  0  0  2  0  0  0  0  0  0
  185.3730  178.6620  143.1500 C   0  0  1  0  0  3  0  0  0  0  0  0
  184.7510  179.0380  140.7360 C   0  0  0  0  0  2  0  0  0  0  0  0
  184.7930  178.0900  139.5400 C   0  0  0  0  0  2  0  0  0  0  0  0
  185.4380  178.7580  138.3340 C   0  0  0  0  0  2  0  0  0  0  0  0
  188.3720  177.2600  136.5170 N   0  0  0  0  0  0  0  0  0  0  0  0
  187.7220  178.0670  139.0890 C   0  0  0  0  0  3  0  0  0  0  0  0
  191.5300  176.5190  138.2330 C   0  0  0  0  0  0  0  0  0  0  0  0
  190.5720  176.6380  137.2160 C   0  0  0  0  0  3  0  0  0  0  0  0
  189.3030  177.1490  137.5010 C   0  0  0  0  0  0  0  0  0  0  0  0
  189.9410  177.4300  139.8310 C   0  0  0  0  0  3  0  0  0  0  0  0
  188.9880  177.5490  138.8180 C   0  0  0  0  0  0  0  0  0  0  0  0
  191.2070  176.9150  139.5390 C   0  0  0  0  0  3  0  0  0  0  0  0
  186.7860  178.1790  138.0580 C   0  0  0  0  0  0  0  0  0  0  0  0
  187.1310  177.7600  136.7670 C   0  0  0  0  0  3  0  0  0  0  0  0
  192.8700  175.9910  137.9390 C   0  0  0  0  0  0  0  0  0  0  0  0
  193.0580  174.6560  137.7830 F   0  0  0  0  0  0  0  0  0  0  0  0
  193.8560  176.7680  137.8290 O   0  0  0  0  0  0  0  0  0  0  0  0
  1 19  1  6  0  0  0
  1 10  1  0  0  0  0
  1 18  1  0  0  0  0
  2 12  1  0  0  0  0
  3 13  1  0  0  0  0
  5  8  2  0  0  0  0
  5 10  1  0  0  0  0
  6 11  2  0  0  0  0
  7  3  2  0  0  0  0
  8  6  1  0  0  0  0
  9 11  1  0  0  0  0
  9  4  1  0  0  0  0
 10  9  2  0  0  0  0
 14  3  1  0  0  0  0
 14 12  1  0  0  0  0
 15 14  1  0  0  0  0
 16  4  1  0  0  0  0
 16  2  1  1  0  0  0
 17 15  1  0  0  0  0
 18 17  1  6  0  0  0
 18 16  1  0  0  0  0
 20 19  1  0  0  0  0
 21 20  1  0  0  0  0
 22 31  2  0  0  0  0
 22 26  1  0  0  0  0
 24 29  1  0  0  0  0
 25 26  1  0  0  0  0
 25 24  2  0  0  0  0
 26 28  2  0  0  0  0
 28 23  1  0  0  0  0
 28 27  1  0  0  0  0
 29 27  2  0  0  0  0
 30 21  1  0  0  0  0
 30 23  2  0  0  0  0
 31 30  1  0  0  0  0
 32 24  1  0  0  0  0
 33 32  1  0  0  0  0
 34 32  2  0  0  0  0
M  END
>  <MODEL>
8

>  <REMARK>
 VINA RESULT:      -9.0      2.752      5.691
  Name = 
  5 active torsions:
  status: ('A' for Active; 'I' for Inactive)
    1  A    between atoms: C_1  and  C_9
    2  A    between atoms: C_7  and  C_11
    3  A    between atoms: C_8  and  C_9
    4  A    between atoms: C_8  and  C_18
    5  A    between atoms: C_18  and  C_30
                            x       y       z     vdW  Elec       q    Type
                         _______ _______ _______ _____ _____    ______ ____

>  <TORSDO>
F 5

$$$$
=
 OpenBabel10272415113D

 34 38  0  0  1  0  0  0  0  0999 V2000
  190.5670  177.1710  138.2200 C   0  0  2  0  0  3  0  0  0  0  0  0
  191.7420  173.8450  136.5410 C   0  0  0  0  0  2  0  0  0  0  0  0
  195.2140  174.3530  136.6030 C   0  0  0  0  0  0  0  0  0  0  0  0
  189.5760  174.8580  136.8020 O   0  0  0  0  0  0  0  0  0  0  0  0
  188.1770  178.0030  138.1640 C   0  0  0  0  0  3  0  0  0  0  0  0
  186.3880  176.6670  137.2310 C   0  0  0  0  0  3  0  0  0  0  0  0
  196.1020  175.0750  137.1300 O   0  0  0  0  0  1  0  0  0  0  0  0
  186.8240  177.8380  137.8570 C   0  0  0  0  0  3  0  0  0  0  0  0
  188.6650  175.8410  137.1850 C   0  0  0  0  0  0  0  0  0  0  0  0
  189.1050  176.9990  137.8540 C   0  0  0  0  0  0  0  0  0  0  0  0
  187.3070  175.6710  136.8950 C   0  0  0  0  0  3  0  0  0  0  0  0
  192.9300  174.0740  135.6170 C   0  0  0  0  0  2  0  0  0  0  0  0
  195.4870  173.0130  136.3520 O   0  0  0  0  0  0  0  0  0  0  0  0
  193.9370  174.9080  136.2600 N   0  0  0  0  0  0  0  0  0  0  0  0
  193.6060  176.2810  136.6230 C   0  0  0  0  0  2  0  0  0  0  0  0
  190.9680  175.1420  136.7200 C   0  0  1  0  0  3  0  0  0  0  0  0
  192.9240  176.2950  137.9850 C   0  0  0  0  0  2  0  0  0  0  0  0
  191.4290  175.9190  137.9650 C   0  0  1  0  0  3  0  0  0  0  0  0
  190.7410  177.6450  139.6700 C   0  0  0  0  0  2  0  0  0  0  0  0
  190.5870  176.5020  140.6690 C   0  0  0  0  0  2  0  0  0  0  0  0
  191.1160  176.8980  142.0410 C   0  0  0  0  0  2  0  0  0  0  0  0
  189.1950  177.4090  145.2350 N   0  0  0  0  0  0  0  0  0  0  0  0
  188.7170  177.4400  142.5050 C   0  0  0  0  0  3  0  0  0  0  0  0
  185.6250  178.2600  145.2240 C   0  0  0  0  0  0  0  0  0  0  0  0
  186.9160  177.9710  145.6900 C   0  0  0  0  0  3  0  0  0  0  0  0
  187.9440  177.6940  144.7850 C   0  0  0  0  0  0  0  0  0  0  0  0
  186.3960  177.9950  142.9350 C   0  0  0  0  0  3  0  0  0  0  0  0
  187.6810  177.7080  143.3980 C   0  0  0  0  0  0  0  0  0  0  0  0
  185.3720  178.2680  143.8460 C   0  0  0  0  0  3  0  0  0  0  0  0
  189.9950  177.1590  142.9920 C   0  0  0  0  0  0  0  0  0  0  0  0
  190.2150  177.1420  144.3750 C   0  0  0  0  0  3  0  0  0  0  0  0
  184.5400  178.5620  146.1700 C   0  0  0  0  0  0  0  0  0  0  0  0
  184.6950  178.2970  147.4920 F   0  0  0  0  0  0  0  0  0  0  0  0
  183.4590  179.0660  145.7660 O   0  0  0  0  0  0  0  0  0  0  0  0
  1 19  1  1  0  0  0
  3  7  1  0  0  0  0
  4  9  1  0  0  0  0
  6  8  2  0  0  0  0
  8  5  1  0  0  0  0
  9 10  1  0  0  0  0
 10  5  2  0  0  0  0
 10  1  1  0  0  0  0
 11  9  2  0  0  0  0
 11  6  1  0  0  0  0
 12 14  1  0  0  0  0
 12  2  1  0  0  0  0
 13  3  2  0  0  0  0
 14  3  1  0  0  0  0
 14 15  1  0  0  0  0
 15 17  1  0  0  0  0
 16  2  1  1  0  0  0
 16  4  1  0  0  0  0
 16 18  1  0  0  0  0
 18 17  1  6  0  0  0
 18  1  1  0  0  0  0
 19 20  1  0  0  0  0
 20 21  1  0  0  0  0
 21 30  1  0  0  0  0
 23 30  2  0  0  0  0
 23 28  1  0  0  0  0
 24 25  1  0  0  0  0
 24 32  1  0  0  0  0
 26 22  1  0  0  0  0
 26 25  2  0  0  0  0
 27 28  2  0  0  0  0
 27 29  1  0  0  0  0
 28 26  1  0  0  0  0
 29 24  2  0  0  0  0
 30 31  1  0  0  0  0
 31 22  2  0  0  0  0
 32 33  1  0  0  0  0
 34 32  2  0  0  0  0
M  END
>  <MODEL>
9

>  <REMARK>
 VINA RESULT:      -9.0      4.143      9.691
  Name = 
  5 active torsions:
  status: ('A' for Active; 'I' for Inactive)
    1  A    between atoms: C_1  and  C_9
    2  A    between atoms: C_7  and  C_11
    3  A    between atoms: C_8  and  C_9
    4  A    between atoms: C_8  and  C_18
    5  A    between atoms: C_18  and  C_30
                            x       y       z     vdW  Elec       q    Type
                         _______ _______ _______ _____ _____    ______ ____

>  <TORSDO>
F 5

$$$$
