=
 OpenBabel10272413353D

 32 38  0  0  0  0  0  0  0  0999 V2000
  187.2640  178.1550  136.9230 N   0  0  0  0  0  0  0  0  0  0  0  0
  187.5650  178.0380  142.0410 C   0  0  0  0  0  0  0  0  0  0  0  0
  182.9830  178.9720  143.4710 C   0  0  0  0  0  3  0  0  0  0  0  0
  183.3570  178.7880  144.8010 C   0  0  0  0  0  3  0  0  0  0  0  0
  189.2920  177.5110  143.7610 C   0  0  0  0  0  0  0  0  0  0  0  0
  189.6110  177.3320  145.1090 C   0  0  0  0  0  0  0  0  0  0  0  0
  188.1090  178.1090  139.6580 C   0  0  0  0  0  0  0  0  0  0  0  0
  185.8470  178.5490  140.3840 C   0  0  0  0  0  3  0  0  0  0  0  0
  189.1520  177.2600  147.4000 N   0  0  0  0  0  0  0  0  0  0  0  0
  186.3400  178.6820  137.9360 C   0  0  0  0  0  2  0  0  0  0  0  0
  183.9290  178.8320  142.4560 C   0  0  0  0  0  3  0  0  0  0  0  0
  186.2190  178.3640  141.7280 C   0  0  0  0  0  0  0  0  0  0  0  0
  185.2650  178.5050  142.7540 C   0  0  0  0  0  0  0  0  0  0  0  0
  186.9780  177.9890  144.4250 C   0  0  0  0  0  0  0  0  0  0  0  0
  190.5670  176.9270  147.4560 C   0  0  0  0  0  2  0  0  0  0  0  0
  188.6560  178.5010  137.2460 C   0  0  0  0  0  2  0  0  0  0  0  0
  186.7750  178.4080  139.3520 C   0  0  0  0  0  0  0  0  0  0  0  0
  191.2300  176.9130  145.7360 S   0  0  0  0  0  0  0  0  0  0  0  0
  189.1190  177.8950  138.5750 C   0  0  0  0  0  2  0  0  0  0  0  0
  184.6770  178.4640  145.1140 C   0  0  0  0  0  3  0  0  0  0  0  0
  185.6460  178.3170  144.1050 C   0  0  0  0  0  0  0  0  0  0  0  0
  187.3500  177.8000  145.7710 C   0  0  0  0  0  3  0  0  0  0  0  0
  188.4860  177.9120  140.9850 C   0  0  0  0  0  3  0  0  0  0  0  0
  190.2810  177.3550  142.8450 F   0  0  0  0  0  0  0  0  0  0  0  0
  188.3320  177.3540  148.5970 C   0  0  0  0  0  1  0  0  0  0  0  0
  187.9560  177.8440  143.3930 C   0  0  0  0  0  0  0  0  0  0  0  0
  188.6650  177.4740  146.0870 C   0  0  0  0  0  0  0  0  0  0  0  0
  187.0980  176.7080  136.8140 C   0  0  0  0  0  2  0  0  0  0  0  0
  185.6890  176.3840  136.3550 C   0  0  0  0  0  2  0  0  0  0  0  0
  185.1510  175.2150  137.1520 C   0  0  0  0  0  3  0  0  0  0  0  0
  183.8960  174.6950  136.4810 C   0  0  0  0  0  2  0  0  0  0  0  0
  183.7880  175.5750  137.7080 C   0  0  0  0  0  2  0  0  0  0  0  0
  1 16  1  0  0  0  0
  1 10  1  0  0  0  0
  2 26  1  0  0  0  0
  3  4  1  0  0  0  0
  4 20  2  0  0  0  0
  5  6  1  0  0  0  0
  6 18  1  0  0  0  0
  6 27  2  0  0  0  0
  7 23  1  0  0  0  0
  8 12  2  0  0  0  0
  9 15  1  0  0  0  0
  9 25  1  0  0  0  0
 10 17  1  0  0  0  0
 11 13  1  0  0  0  0
 11  3  2  0  0  0  0
 12  2  1  0  0  0  0
 12 13  1  0  0  0  0
 13 21  2  0  0  0  0
 14 22  2  0  0  0  0
 16 19  1  0  0  0  0
 17  7  2  0  0  0  0
 17  8  1  0  0  0  0
 18 15  1  0  0  0  0
 19  7  1  0  0  0  0
 21 14  1  0  0  0  0
 21 20  1  0  0  0  0
 22 27  1  0  0  0  0
 23  2  2  0  0  0  0
 24  5  1  0  0  0  0
 26  5  2  0  0  0  0
 26 14  1  0  0  0  0
 27  9  1  0  0  0  0
 28  1  1  0  0  0  0
 29 28  1  0  0  0  0
 29 30  1  0  0  0  0
 30 32  1  0  0  0  0
 31 30  1  0  0  0  0
 31 32  1  0  0  0  0
M  END
>  <MODEL>
1

>  <REMARK>
 VINA RESULT:     -10.2      0.000      0.000
  Name = 
  3 active torsions:
  status: ('A' for Active; 'I' for Inactive)
    1  A    between atoms: C_1  and  C_10
    2  A    between atoms: N_2  and  C_24
    3  A    between atoms: C_10  and  C_24
                            x       y       z     vdW  Elec       q    Type
                         _______ _______ _______ _____ _____    ______ ____

>  <TORSDO>
F 3

$$$$
=
 OpenBabel10272413353D

 32 38  0  0  0  0  0  0  0  0999 V2000
  187.3890  178.1580  136.9040 N   0  0  0  0  0  0  0  0  0  0  0  0
  187.6210  178.0380  142.0250 C   0  0  0  0  0  0  0  0  0  0  0  0
  183.0210  178.9730  143.3940 C   0  0  0  0  0  3  0  0  0  0  0  0
  183.3760  178.7880  144.7290 C   0  0  0  0  0  3  0  0  0  0  0  0
  189.3250  177.5100  143.7690 C   0  0  0  0  0  0  0  0  0  0  0  0
  189.6250  177.3310  145.1200 C   0  0  0  0  0  0  0  0  0  0  0  0
  188.1970  178.1100  139.6500 C   0  0  0  0  0  0  0  0  0  0  0  0
  185.9260  178.5510  140.3450 C   0  0  0  0  0  3  0  0  0  0  0  0
  189.1360  177.2580  147.4050 N   0  0  0  0  0  0  0  0  0  0  0  0
  186.4520  178.6850  137.9050 C   0  0  0  0  0  2  0  0  0  0  0  0
  183.9800  178.8330  142.3920 C   0  0  0  0  0  3  0  0  0  0  0  0
  186.2800  178.3650  141.6940 C   0  0  0  0  0  0  0  0  0  0  0  0
  185.3120  178.5050  142.7070 C   0  0  0  0  0  0  0  0  0  0  0  0
  187.0020  177.9880  144.4010 C   0  0  0  0  0  0  0  0  0  0  0  0
  190.5500  176.9250  147.4790 C   0  0  0  0  0  2  0  0  0  0  0  0
  188.7770  178.5040  137.2450 C   0  0  0  0  0  2  0  0  0  0  0  0
  186.8670  178.4100  139.3260 C   0  0  0  0  0  0  0  0  0  0  0  0
  191.2360  176.9120  145.7690 S   0  0  0  0  0  0  0  0  0  0  0  0
  189.2210  177.8970  138.5810 C   0  0  0  0  0  2  0  0  0  0  0  0
  184.6920  178.4640  145.0600 C   0  0  0  0  0  3  0  0  0  0  0  0
  185.6750  178.3170  144.0630 C   0  0  0  0  0  0  0  0  0  0  0  0
  187.3570  177.7990  145.7520 C   0  0  0  0  0  3  0  0  0  0  0  0
  188.5560  177.9120  140.9820 C   0  0  0  0  0  3  0  0  0  0  0  0
  190.3260  177.3550  142.8650 F   0  0  0  0  0  0  0  0  0  0  0  0
  188.3000  177.3510  148.5910 C   0  0  0  0  0  1  0  0  0  0  0  0
  187.9940  177.8440  143.3820 C   0  0  0  0  0  0  0  0  0  0  0  0
  188.6660  177.4720  146.0850 C   0  0  0  0  0  0  0  0  0  0  0  0
  187.2240  176.7110  136.7930 C   0  0  0  0  0  2  0  0  0  0  0  0
  188.0140  176.1920  135.6060 C   0  0  0  0  0  2  0  0  0  0  0  0
  188.3680  174.7370  135.8290 C   0  0  0  0  0  3  0  0  0  0  0  0
  189.3590  174.6390  136.9700 C   0  0  0  0  0  2  0  0  0  0  0  0
  189.8410  174.5320  135.5390 C   0  0  0  0  0  2  0  0  0  0  0  0
  1 16  1  0  0  0  0
  1 10  1  0  0  0  0
  2 26  1  0  0  0  0
  3  4  1  0  0  0  0
  4 20  2  0  0  0  0
  5  6  1  0  0  0  0
  6 18  1  0  0  0  0
  6 27  2  0  0  0  0
  7 23  1  0  0  0  0
  8 12  2  0  0  0  0
  9 15  1  0  0  0  0
  9 25  1  0  0  0  0
 10 17  1  0  0  0  0
 11 13  1  0  0  0  0
 11  3  2  0  0  0  0
 12  2  1  0  0  0  0
 12 13  1  0  0  0  0
 13 21  2  0  0  0  0
 14 22  2  0  0  0  0
 16 19  1  0  0  0  0
 17  7  2  0  0  0  0
 17  8  1  0  0  0  0
 18 15  1  0  0  0  0
 19  7  1  0  0  0  0
 21 14  1  0  0  0  0
 21 20  1  0  0  0  0
 22 27  1  0  0  0  0
 23  2  2  0  0  0  0
 24  5  1  0  0  0  0
 26  5  2  0  0  0  0
 26 14  1  0  0  0  0
 27  9  1  0  0  0  0
 28  1  1  0  0  0  0
 29 30  1  0  0  0  0
 29 28  1  0  0  0  0
 30 31  1  0  0  0  0
 32 30  1  0  0  0  0
 32 31  1  0  0  0  0
M  END
>  <MODEL>
2

>  <REMARK>
 VINA RESULT:     -10.1      1.099      1.686
  Name = 
  3 active torsions:
  status: ('A' for Active; 'I' for Inactive)
    1  A    between atoms: C_1  and  C_10
    2  A    between atoms: N_2  and  C_24
    3  A    between atoms: C_10  and  C_24
                            x       y       z     vdW  Elec       q    Type
                         _______ _______ _______ _____ _____    ______ ____

>  <TORSDO>
F 3

$$$$
=
 OpenBabel10272413353D

 32 38  0  0  0  0  0  0  0  0999 V2000
  180.5300  179.0370  141.3110 N   0  0  0  0  0  0  0  0  0  0  0  0
  185.5160  178.4120  142.3350 C   0  0  0  0  0  0  0  0  0  0  0  0
  185.6630  178.2570  147.2190 C   0  0  0  0  0  3  0  0  0  0  0  0
  187.0330  178.0040  147.1740 C   0  0  0  0  0  3  0  0  0  0  0  0
  187.6180  178.0480  141.0420 C   0  0  0  0  0  0  0  0  0  0  0  0
  188.9890  177.7870  141.0540 C   0  0  0  0  0  0  0  0  0  0  0  0
  183.3850  178.8540  141.2190 C   0  0  0  0  0  0  0  0  0  0  0  0
  183.4760  178.7560  143.6310 C   0  0  0  0  0  3  0  0  0  0  0  0
  191.0550  177.3710  142.0650 N   0  0  0  0  0  0  0  0  0  0  0  0
  181.2730  179.2550  142.5600 C   0  0  0  0  0  2  0  0  0  0  0  0
  184.9460  178.4210  146.0350 C   0  0  0  0  0  3  0  0  0  0  0  0
  184.8580  178.4990  143.5900 C   0  0  0  0  0  0  0  0  0  0  0  0
  185.5850  178.3330  144.7850 C   0  0  0  0  0  0  0  0  0  0  0  0
  187.6360  177.9820  143.4950 C   0  0  0  0  0  0  0  0  0  0  0  0
  191.4840  177.3200  140.6760 C   0  0  0  0  0  2  0  0  0  0  0  0
  181.2440  179.6130  140.1630 C   0  0  0  0  0  2  0  0  0  0  0  0
  182.7360  178.9160  142.4590 C   0  0  0  0  0  0  0  0  0  0  0  0
  190.0180  177.6290  139.6020 S   0  0  0  0  0  0  0  0  0  0  0  0
  182.6160  178.9660  139.9410 C   0  0  0  0  0  2  0  0  0  0  0  0
  187.6830  177.9140  145.9430 C   0  0  0  0  0  3  0  0  0  0  0  0
  186.9760  178.0750  144.7370 C   0  0  0  0  0  0  0  0  0  0  0  0
  189.0200  177.7220  143.4540 C   0  0  0  0  0  3  0  0  0  0  0  0
  184.7520  178.5890  141.1660 C   0  0  0  0  0  3  0  0  0  0  0  0
  187.0050  178.1940  139.8400 F   0  0  0  0  0  0  0  0  0  0  0  0
  191.9800  177.1660  143.1680 C   0  0  0  0  0  1  0  0  0  0  0  0
  186.9110  178.1500  142.2760 C   0  0  0  0  0  0  0  0  0  0  0  0
  189.6710  177.6290  142.2290 C   0  0  0  0  0  0  0  0  0  0  0  0
  180.3020  177.6070  141.1210 C   0  0  0  0  0  2  0  0  0  0  0  0
  179.9820  177.3260  139.6650 C   0  0  0  0  0  2  0  0  0  0  0  0
  180.3620  175.9000  139.3280 C   0  0  0  0  0  3  0  0  0  0  0  0
  181.8410  175.7060  139.5930 C   0  0  0  0  0  2  0  0  0  0  0  0
  181.3450  175.9040  138.1760 C   0  0  0  0  0  2  0  0  0  0  0  0
  1 10  1  0  0  0  0
  2 12  1  0  0  0  0
  4  3  1  0  0  0  0
  5  6  2  0  0  0  0
  5 26  1  0  0  0  0
  6 27  1  0  0  0  0
  7 17  1  0  0  0  0
  9 27  1  0  0  0  0
  9 25  1  0  0  0  0
 11  3  2  0  0  0  0
 12  8  1  0  0  0  0
 12 13  2  0  0  0  0
 13 11  1  0  0  0  0
 14 21  2  0  0  0  0
 15  9  1  0  0  0  0
 16  1  1  0  0  0  0
 17 10  1  0  0  0  0
 17  8  2  0  0  0  0
 18 15  1  0  0  0  0
 18  6  1  0  0  0  0
 19 16  1  0  0  0  0
 19  7  1  0  0  0  0
 20  4  2  0  0  0  0
 21 13  1  0  0  0  0
 21 20  1  0  0  0  0
 22 14  1  0  0  0  0
 23  7  2  0  0  0  0
 23  2  1  0  0  0  0
 24  5  1  0  0  0  0
 26  2  2  0  0  0  0
 26 14  1  0  0  0  0
 27 22  2  0  0  0  0
 28  1  1  0  0  0  0
 29 28  1  0  0  0  0
 30 31  1  0  0  0  0
 30 29  1  0  0  0  0
 32 30  1  0  0  0  0
 32 31  1  0  0  0  0
M  END
>  <MODEL>
3

>  <REMARK>
 VINA RESULT:      -9.9      2.975      4.948
  Name = 
  3 active torsions:
  status: ('A' for Active; 'I' for Inactive)
    1  A    between atoms: C_1  and  C_10
    2  A    between atoms: N_2  and  C_24
    3  A    between atoms: C_10  and  C_24
                            x       y       z     vdW  Elec       q    Type
                         _______ _______ _______ _____ _____    ______ ____

>  <TORSDO>
F 3

$$$$
=
 OpenBabel10272413353D

 32 38  0  0  0  0  0  0  0  0999 V2000
  189.4060  176.9780  136.8130 N   0  0  0  0  0  0  0  0  0  0  0  0
  188.8060  177.5260  141.8760 C   0  0  0  0  0  0  0  0  0  0  0  0
  184.2020  179.1150  142.3090 C   0  0  0  0  0  3  0  0  0  0  0  0
  184.3150  179.0760  143.6980 C   0  0  0  0  0  3  0  0  0  0  0  0
  190.1310  177.0610  143.9370 C   0  0  0  0  0  0  0  0  0  0  0  0
  190.1880  177.0350  145.3310 C   0  0  0  0  0  0  0  0  0  0  0  0
  189.7550  177.2160  139.6440 C   0  0  0  0  0  0  0  0  0  0  0  0
  187.4770  177.9830  139.8800 C   0  0  0  0  0  3  0  0  0  0  0  0
  189.3370  177.3230  147.4900 N   0  0  0  0  0  0  0  0  0  0  0  0
  188.3960  177.7300  137.5680 C   0  0  0  0  0  2  0  0  0  0  0  0
  185.2830  178.7410  141.5120 C   0  0  0  0  0  3  0  0  0  0  0  0
  187.5860  177.9440  141.2820 C   0  0  0  0  0  0  0  0  0  0  0  0
  186.4960  178.3210  142.0890 C   0  0  0  0  0  0  0  0  0  0  0  0
  187.8170  177.8620  144.0980 C   0  0  0  0  0  0  0  0  0  0  0  0
  190.6680  176.8560  147.8460 C   0  0  0  0  0  2  0  0  0  0  0  0
  190.7540  177.2190  137.3470 C   0  0  0  0  0  2  0  0  0  0  0  0
  188.5430  177.6080  139.0620 C   0  0  0  0  0  0  0  0  0  0  0  0
  191.6100  176.5400  146.2930 S   0  0  0  0  0  0  0  0  0  0  0  0
  190.9010  176.7540  138.8000 C   0  0  0  0  0  2  0  0  0  0  0  0
  185.5100  178.6620  144.2870 C   0  0  0  0  0  3  0  0  0  0  0  0
  186.6120  178.2800  143.4990 C   0  0  0  0  0  0  0  0  0  0  0  0
  187.9260  177.8200  145.5020 C   0  0  0  0  0  3  0  0  0  0  0  0
  189.8710  177.1630  141.0320 C   0  0  0  0  0  3  0  0  0  0  0  0
  191.2350  176.6810  143.2440 F   0  0  0  0  0  0  0  0  0  0  0  0
  188.3420  177.6620  148.4940 C   0  0  0  0  0  1  0  0  0  0  0  0
  188.9310  177.4780  143.2900 C   0  0  0  0  0  0  0  0  0  0  0  0
  189.1140  177.4050  146.0930 C   0  0  0  0  0  0  0  0  0  0  0  0
  189.0790  175.5550  136.8420 C   0  0  0  0  0  2  0  0  0  0  0  0
  187.5790  175.3730  136.9710 C   0  0  0  0  0  2  0  0  0  0  0  0
  187.2010  173.9640  136.5640 C   0  0  0  0  0  3  0  0  0  0  0  0
  185.8340  173.9880  135.9130 C   0  0  0  0  0  2  0  0  0  0  0  0
  185.9800  173.5280  137.3480 C   0  0  0  0  0  2  0  0  0  0  0  0
  1 28  1  0  0  0  0
  1 16  1  0  0  0  0
  1 10  1  0  0  0  0
  2 26  1  0  0  0  0
  3  4  1  0  0  0  0
  4 20  2  0  0  0  0
  5  6  1  0  0  0  0
  6 27  2  0  0  0  0
  6 18  1  0  0  0  0
  7 23  1  0  0  0  0
  8 12  2  0  0  0  0
  9 15  1  0  0  0  0
  9 25  1  0  0  0  0
 10 17  1  0  0  0  0
 11 13  1  0  0  0  0
 11  3  2  0  0  0  0
 12  2  1  0  0  0  0
 12 13  1  0  0  0  0
 13 21  2  0  0  0  0
 14 22  2  0  0  0  0
 16 19  1  0  0  0  0
 17  7  2  0  0  0  0
 17  8  1  0  0  0  0
 18 15  1  0  0  0  0
 19  7  1  0  0  0  0
 21 14  1  0  0  0  0
 21 20  1  0  0  0  0
 22 27  1  0  0  0  0
 23  2  2  0  0  0  0
 24  5  1  0  0  0  0
 26  5  2  0  0  0  0
 26 14  1  0  0  0  0
 27  9  1  0  0  0  0
 28 29  1  0  0  0  0
 30 29  1  0  0  0  0
 30 32  1  0  0  0  0
 31 30  1  0  0  0  0
 31 32  1  0  0  0  0
M  END
>  <MODEL>
4

>  <REMARK>
 VINA RESULT:      -9.2      1.302      1.658
  Name = 
  3 active torsions:
  status: ('A' for Active; 'I' for Inactive)
    1  A    between atoms: C_1  and  C_10
    2  A    between atoms: N_2  and  C_24
    3  A    between atoms: C_10  and  C_24
                            x       y       z     vdW  Elec       q    Type
                         _______ _______ _______ _____ _____    ______ ____

>  <TORSDO>
F 3

$$$$
=
 OpenBabel10272413353D

 32 38  0  0  0  0  0  0  0  0999 V2000
  189.7150  176.6410  136.9420 N   0  0  0  0  0  0  0  0  0  0  0  0
  188.9560  177.3630  141.9620 C   0  0  0  0  0  0  0  0  0  0  0  0
  184.3270  178.9200  142.2000 C   0  0  0  0  0  3  0  0  0  0  0  0
  184.3990  178.9310  143.5920 C   0  0  0  0  0  3  0  0  0  0  0  0
  190.2230  176.9850  144.0770 C   0  0  0  0  0  0  0  0  0  0  0  0
  190.2380  177.0090  145.4730 C   0  0  0  0  0  0  0  0  0  0  0  0
  189.9760  176.9840  139.7720 C   0  0  0  0  0  0  0  0  0  0  0  0
  187.6850  177.7350  139.9120 C   0  0  0  0  0  3  0  0  0  0  0  0
  189.3190  177.3650  147.5930 N   0  0  0  0  0  0  0  0  0  0  0  0
  188.6760  177.4100  137.6400 C   0  0  0  0  0  2  0  0  0  0  0  0
  185.4350  178.5290  141.4490 C   0  0  0  0  0  3  0  0  0  0  0  0
  187.7520  177.7480  141.3170 C   0  0  0  0  0  0  0  0  0  0  0  0
  186.6340  178.1420  142.0770 C   0  0  0  0  0  0  0  0  0  0  0  0
  187.8980  177.7680  144.1400 C   0  0  0  0  0  0  0  0  0  0  0  0
  190.6430  176.9240  148.0060 C   0  0  0  0  0  2  0  0  0  0  0  0
  191.0440  176.9150  137.5080 C   0  0  0  0  0  2  0  0  0  0  0  0
  188.7780  177.3420  139.1400 C   0  0  0  0  0  0  0  0  0  0  0  0
  191.6340  176.5630  146.4940 S   0  0  0  0  0  0  0  0  0  0  0  0
  191.1510  176.5040  138.9800 C   0  0  0  0  0  2  0  0  0  0  0  0
  185.5790  178.5510  144.2310 C   0  0  0  0  0  3  0  0  0  0  0  0
  186.7080  178.1520  143.4910 C   0  0  0  0  0  0  0  0  0  0  0  0
  187.9640  177.7770  145.5480 C   0  0  0  0  0  3  0  0  0  0  0  0
  190.0500  176.9810  141.1640 C   0  0  0  0  0  3  0  0  0  0  0  0
  191.3510  176.5920  143.4320 F   0  0  0  0  0  0  0  0  0  0  0  0
  188.2910  177.7300  148.5540 C   0  0  0  0  0  1  0  0  0  0  0  0
  189.0390  177.3670  143.3800 C   0  0  0  0  0  0  0  0  0  0  0  0
  189.1380  177.3950  146.1880 C   0  0  0  0  0  0  0  0  0  0  0  0
  189.4000  175.2170  137.0120 C   0  0  0  0  0  2  0  0  0  0  0  0
  190.1660  174.4660  135.9390 C   0  0  0  0  0  2  0  0  0  0  0  0
  190.7000  173.1690  136.5100 C   0  0  0  0  0  3  0  0  0  0  0  0
  192.1930  173.3030  136.7290 C   0  0  0  0  0  2  0  0  0  0  0  0
  191.6690  172.5510  135.5230 C   0  0  0  0  0  2  0  0  0  0  0  0
  1 28  1  0  0  0  0
  1 16  1  0  0  0  0
  1 10  1  0  0  0  0
  2 26  1  0  0  0  0
  3  4  1  0  0  0  0
  4 20  2  0  0  0  0
  5  6  1  0  0  0  0
  6 27  2  0  0  0  0
  6 18  1  0  0  0  0
  7 23  1  0  0  0  0
  8 12  2  0  0  0  0
  9 15  1  0  0  0  0
  9 25  1  0  0  0  0
 10 17  1  0  0  0  0
 11 13  1  0  0  0  0
 11  3  2  0  0  0  0
 12  2  1  0  0  0  0
 12 13  1  0  0  0  0
 13 21  2  0  0  0  0
 14 22  2  0  0  0  0
 16 19  1  0  0  0  0
 17  7  2  0  0  0  0
 17  8  1  0  0  0  0
 18 15  1  0  0  0  0
 19  7  1  0  0  0  0
 21 14  1  0  0  0  0
 21 20  1  0  0  0  0
 22 27  1  0  0  0  0
 23  2  2  0  0  0  0
 24  5  1  0  0  0  0
 26  5  2  0  0  0  0
 26 14  1  0  0  0  0
 27  9  1  0  0  0  0
 29 30  1  0  0  0  0
 29 28  1  0  0  0  0
 30 31  1  0  0  0  0
 32 30  1  0  0  0  0
 32 31  1  0  0  0  0
M  END
>  <MODEL>
5

>  <REMARK>
 VINA RESULT:      -9.0      2.264      3.010
  Name = 
  3 active torsions:
  status: ('A' for Active; 'I' for Inactive)
    1  A    between atoms: C_1  and  C_10
    2  A    between atoms: N_2  and  C_24
    3  A    between atoms: C_10  and  C_24
                            x       y       z     vdW  Elec       q    Type
                         _______ _______ _______ _____ _____    ______ ____

>  <TORSDO>
F 3

$$$$
=
 OpenBabel10272413353D

 32 38  0  0  0  0  0  0  0  0999 V2000
  191.0250  176.3700  136.4530 N   0  0  0  0  0  0  0  0  0  0  0  0
  189.6660  177.2190  141.3240 C   0  0  0  0  0  0  0  0  0  0  0  0
  185.1100  178.9530  140.9480 C   0  0  0  0  0  3  0  0  0  0  0  0
  185.0050  178.9890  142.3370 C   0  0  0  0  0  3  0  0  0  0  0  0
  190.6390  176.8360  143.5880 C   0  0  0  0  0  0  0  0  0  0  0  0
  190.4780  176.8870  144.9740 C   0  0  0  0  0  0  0  0  0  0  0  0
  190.9400  176.7580  139.2870 C   0  0  0  0  0  0  0  0  0  0  0  0
  188.6810  177.5980  139.1230 C   0  0  0  0  0  3  0  0  0  0  0  0
  189.3130  177.3180  146.9550 N   0  0  0  0  0  0  0  0  0  0  0  0
  189.9370  177.1910  137.0010 C   0  0  0  0  0  2  0  0  0  0  0  0
  186.2880  178.5060  140.3500 C   0  0  0  0  0  3  0  0  0  0  0  0
  188.5690  177.6360  140.5250 C   0  0  0  0  0  0  0  0  0  0  0  0
  187.3810  178.0860  141.1310 C   0  0  0  0  0  0  0  0  0  0  0  0
  188.3570  177.7060  143.3430 C   0  0  0  0  0  0  0  0  0  0  0  0
  190.5560  176.8370  147.5390 C   0  0  0  0  0  2  0  0  0  0  0  0
  192.2820  176.6050  137.1790 C   0  0  0  0  0  2  0  0  0  0  0  0
  189.8460  177.1490  138.5030 C   0  0  0  0  0  0  0  0  0  0  0  0
  191.7150  176.4090  146.1710 S   0  0  0  0  0  0  0  0  0  0  0  0
  192.1860  176.2190  138.6590 C   0  0  0  0  0  2  0  0  0  0  0  0
  186.0790  178.5770  143.1270 C   0  0  0  0  0  3  0  0  0  0  0  0
  187.2750  178.1220  142.5420 C   0  0  0  0  0  0  0  0  0  0  0  0
  188.2460  177.7400  144.7470 C   0  0  0  0  0  3  0  0  0  0  0  0
  190.8370  176.7800  140.6770 C   0  0  0  0  0  3  0  0  0  0  0  0
  191.8230  176.3880  143.0980 F   0  0  0  0  0  0  0  0  0  0  0  0
  188.1870  177.7410  147.7720 C   0  0  0  0  0  1  0  0  0  0  0  0
  189.5690  177.2480  142.7410 C   0  0  0  0  0  0  0  0  0  0  0  0
  189.3130  177.3280  145.5380 C   0  0  0  0  0  0  0  0  0  0  0  0
  190.6480  174.9600  136.5030 C   0  0  0  0  0  2  0  0  0  0  0  0
  189.7010  174.6390  135.3620 C   0  0  0  0  0  2  0  0  0  0  0  0
  188.3910  174.1240  135.9200 C   0  0  0  0  0  3  0  0  0  0  0  0
  188.6660  172.9210  136.7980 C   0  0  0  0  0  2  0  0  0  0  0  0
  188.1390  172.7270  135.3920 C   0  0  0  0  0  2  0  0  0  0  0  0
  1 28  1  0  0  0  0
  1 10  1  0  0  0  0
  1 16  1  0  0  0  0
  2 26  1  0  0  0  0
  3  4  1  0  0  0  0
  4 20  2  0  0  0  0
  5  6  1  0  0  0  0
  6 27  2  0  0  0  0
  6 18  1  0  0  0  0
  7 23  2  0  0  0  0
  8 12  1  0  0  0  0
  9 15  1  0  0  0  0
  9 25  1  0  0  0  0
 10 17  1  0  0  0  0
 11  3  2  0  0  0  0
 11 13  1  0  0  0  0
 12 13  1  0  0  0  0
 12  2  2  0  0  0  0
 13 21  2  0  0  0  0
 14 22  2  0  0  0  0
 16 19  1  0  0  0  0
 17  8  2  0  0  0  0
 17  7  1  0  0  0  0
 18 15  1  0  0  0  0
 19  7  1  0  0  0  0
 21 20  1  0  0  0  0
 21 14  1  0  0  0  0
 22 27  1  0  0  0  0
 23  2  1  0  0  0  0
 24  5  1  0  0  0  0
 26 14  1  0  0  0  0
 26  5  2  0  0  0  0
 27  9  1  0  0  0  0
 29 30  1  0  0  0  0
 29 28  1  0  0  0  0
 30 31  1  0  0  0  0
 32 30  1  0  0  0  0
 32 31  1  0  0  0  0
M  END
>  <MODEL>
6

>  <REMARK>
 VINA RESULT:      -8.8      2.172      3.000
  Name = 
  3 active torsions:
  status: ('A' for Active; 'I' for Inactive)
    1  A    between atoms: C_1  and  C_10
    2  A    between atoms: N_2  and  C_24
    3  A    between atoms: C_10  and  C_24
                            x       y       z     vdW  Elec       q    Type
                         _______ _______ _______ _____ _____    ______ ____

>  <TORSDO>
F 3

$$$$
=
 OpenBabel10272413353D

 32 38  0  0  0  0  0  0  0  0999 V2000
  189.2710  177.5960  147.5240 N   0  0  0  0  0  0  0  0  0  0  0  0
  185.8450  178.3750  143.7880 C   0  0  0  0  0  0  0  0  0  0  0  0
  188.5350  178.1400  139.7120 C   0  0  0  0  0  3  0  0  0  0  0  0
  187.3840  178.2840  138.9390 C   0  0  0  0  0  3  0  0  0  0  0  0
  183.3740  178.6530  143.6000 C   0  0  0  0  0  0  0  0  0  0  0  0
  182.2530  178.7880  142.7790 C   0  0  0  0  0  0  0  0  0  0  0  0
  186.9570  178.2270  145.9610 C   0  0  0  0  0  0  0  0  0  0  0  0
  188.2660  178.0950  143.9350 C   0  0  0  0  0  3  0  0  0  0  0  0
  181.1370  178.9450  140.7310 N   0  0  0  0  0  0  0  0  0  0  0  0
  189.4740  177.9810  146.1210 C   0  0  0  0  0  2  0  0  0  0  0  0
  188.4430  178.1250  141.1030 C   0  0  0  0  0  3  0  0  0  0  0  0
  187.1070  178.2400  143.1510 C   0  0  0  0  0  0  0  0  0  0  0  0
  187.1980  178.2540  141.7460 C   0  0  0  0  0  0  0  0  0  0  0  0
  184.7700  178.5300  141.5860 C   0  0  0  0  0  0  0  0  0  0  0  0
  179.9830  179.0540  141.6110 C   0  0  0  0  0  2  0  0  0  0  0  0
  188.1890  178.3800  148.1370 C   0  0  0  0  0  2  0  0  0  0  0  0
  188.1970  178.0720  145.3280 C   0  0  0  0  0  0  0  0  0  0  0  0
  180.5710  178.9650  143.3550 S   0  0  0  0  0  0  0  0  0  0  0  0
  186.8370  178.1520  147.4510 C   0  0  0  0  0  2  0  0  0  0  0  0
  186.1410  178.4130  139.5600 C   0  0  0  0  0  3  0  0  0  0  0  0
  186.0270  178.4000  140.9630 C   0  0  0  0  0  0  0  0  0  0  0  0
  183.6090  178.6720  140.8010 C   0  0  0  0  0  3  0  0  0  0  0  0
  185.8000  178.3600  145.1940 C   0  0  0  0  0  3  0  0  0  0  0  0
  183.1850  178.6520  144.9440 F   0  0  0  0  0  0  0  0  0  0  0  0
  181.0110  178.9810  139.2830 C   0  0  0  0  0  1  0  0  0  0  0  0
  184.6650  178.5180  143.0110 C   0  0  0  0  0  0  0  0  0  0  0  0
  182.3680  178.7980  141.4160 C   0  0  0  0  0  0  0  0  0  0  0  0
  188.9870  176.1650  147.6020 C   0  0  0  0  0  2  0  0  0  0  0  0
  190.2750  175.3960  147.8310 C   0  0  0  0  0  2  0  0  0  0  0  0
  191.4580  176.2700  147.4710 C   0  0  0  0  0  3  0  0  0  0  0  0
  192.3570  175.5140  146.5140 C   0  0  0  0  0  2  0  0  0  0  0  0
  192.7300  175.6200  147.9770 C   0  0  0  0  0  2  0  0  0  0  0  0
  1 28  1  0  0  0  0
  1 16  1  0  0  0  0
  2 23  1  0  0  0  0
  3 11  1  0  0  0  0
  4 20  1  0  0  0  0
  4  3  2  0  0  0  0
  5 24  1  0  0  0  0
  6 18  1  0  0  0  0
  6  5  2  0  0  0  0
  7 19  1  0  0  0  0
  8 17  2  0  0  0  0
  9 27  1  0  0  0  0
  9 15  1  0  0  0  0
 10  1  1  0  0  0  0
 11 13  2  0  0  0  0
 12  2  2  0  0  0  0
 12  8  1  0  0  0  0
 13 12  1  0  0  0  0
 14 26  2  0  0  0  0
 15 18  1  0  0  0  0
 17  7  1  0  0  0  0
 17 10  1  0  0  0  0
 19 16  1  0  0  0  0
 20 21  2  0  0  0  0
 21 14  1  0  0  0  0
 21 13  1  0  0  0  0
 22 27  2  0  0  0  0
 22 14  1  0  0  0  0
 23  7  2  0  0  0  0
 25  9  1  0  0  0  0
 26  5  1  0  0  0  0
 26  2  1  0  0  0  0
 27  6  1  0  0  0  0
 28 29  1  0  0  0  0
 30 29  1  0  0  0  0
 30 32  1  0  0  0  0
 31 30  1  0  0  0  0
 31 32  1  0  0  0  0
M  END
>  <MODEL>
7

>  <REMARK>
 VINA RESULT:      -8.5      3.256      8.452
  Name = 
  3 active torsions:
  status: ('A' for Active; 'I' for Inactive)
    1  A    between atoms: C_1  and  C_10
    2  A    between atoms: N_2  and  C_24
    3  A    between atoms: C_10  and  C_24
                            x       y       z     vdW  Elec       q    Type
                         _______ _______ _______ _____ _____    ______ ____

>  <TORSDO>
F 3

$$$$
=
 OpenBabel10272413353D

 32 38  0  0  0  0  0  0  0  0999 V2000
  191.6040  177.2930  143.8900 N   0  0  0  0  0  0  0  0  0  0  0  0
  187.4510  178.2160  141.0260 C   0  0  0  0  0  0  0  0  0  0  0  0
  189.1220  177.8450  136.4460 C   0  0  0  0  0  3  0  0  0  0  0  0
  187.8320  178.0400  135.9560 C   0  0  0  0  0  3  0  0  0  0  0  0
  185.0170  178.6060  141.4050 C   0  0  0  0  0  0  0  0  0  0  0  0
  183.7450  178.7900  140.8600 C   0  0  0  0  0  0  0  0  0  0  0  0
  189.0240  178.0250  142.8890 C   0  0  0  0  0  0  0  0  0  0  0  0
  189.8260  177.8270  140.6200 C   0  0  0  0  0  3  0  0  0  0  0  0
  182.1970  178.9910  139.1200 N   0  0  0  0  0  0  0  0  0  0  0  0
  191.4970  177.6650  142.4730 C   0  0  0  0  0  2  0  0  0  0  0  0
  189.3510  177.8390  137.8220 C   0  0  0  0  0  3  0  0  0  0  0  0
  188.5260  178.0220  140.1190 C   0  0  0  0  0  0  0  0  0  0  0  0
  188.2930  178.0270  138.7310 C   0  0  0  0  0  0  0  0  0  0  0  0
  185.9080  178.4140  139.1270 C   0  0  0  0  0  0  0  0  0  0  0  0
  181.2820  179.1550  140.2390 C   0  0  0  0  0  2  0  0  0  0  0  0
  190.7270  178.1290  144.7230 C   0  0  0  0  0  2  0  0  0  0  0  0
  190.0780  177.8110  141.9910 C   0  0  0  0  0  0  0  0  0  0  0  0
  182.2490  179.0460  141.8040 S   0  0  0  0  0  0  0  0  0  0  0  0
  189.2450  177.9600  144.3680 C   0  0  0  0  0  2  0  0  0  0  0  0
  186.7720  178.2280  136.8420 C   0  0  0  0  0  3  0  0  0  0  0  0
  186.9820  178.2240  138.2340 C   0  0  0  0  0  0  0  0  0  0  0  0
  184.6050  178.6060  138.6260 C   0  0  0  0  0  3  0  0  0  0  0  0
  187.7290  178.2080  142.4060 C   0  0  0  0  0  3  0  0  0  0  0  0
  185.1420  178.6180  142.7570 F   0  0  0  0  0  0  0  0  0  0  0  0
  181.7440  179.0280  137.7390 C   0  0  0  0  0  1  0  0  0  0  0  0
  186.1310  178.4110  140.5380 C   0  0  0  0  0  0  0  0  0  0  0  0
  183.5450  178.7900  139.5070 C   0  0  0  0  0  0  0  0  0  0  0  0
  191.2840  175.8770  144.0500 C   0  0  0  0  0  2  0  0  0  0  0  0
  191.9820  175.3270  145.2800 C   0  0  0  0  0  2  0  0  0  0  0  0
  191.9820  176.3740  146.3740 C   0  0  0  0  0  3  0  0  0  0  0  0
  192.5170  175.7550  147.6490 C   0  0  0  0  0  2  0  0  0  0  0  0
  191.0260  175.9490  147.4700 C   0  0  0  0  0  2  0  0  0  0  0  0
  1 28  1  0  0  0  0
  1 16  1  0  0  0  0
  2 23  1  0  0  0  0
  3 11  1  0  0  0  0
  4  3  2  0  0  0  0
  4 20  1  0  0  0  0
  5 24  1  0  0  0  0
  6  5  1  0  0  0  0
  6 18  1  0  0  0  0
  7 19  1  0  0  0  0
  8 17  2  0  0  0  0
  9 27  1  0  0  0  0
  9 15  1  0  0  0  0
 10  1  1  0  0  0  0
 11 13  2  0  0  0  0
 12  8  1  0  0  0  0
 12  2  2  0  0  0  0
 13 12  1  0  0  0  0
 14 26  1  0  0  0  0
 15 18  1  0  0  0  0
 17 10  1  0  0  0  0
 17  7  1  0  0  0  0
 19 16  1  0  0  0  0
 20 21  2  0  0  0  0
 21 13  1  0  0  0  0
 21 14  1  0  0  0  0
 22 14  2  0  0  0  0
 22 27  1  0  0  0  0
 23  7  2  0  0  0  0
 25  9  1  0  0  0  0
 26  2  1  0  0  0  0
 26  5  2  0  0  0  0
 27  6  2  0  0  0  0
 28 29  1  0  0  0  0
 29 30  1  0  0  0  0
 30 32  1  0  0  0  0
 30 31  1  0  0  0  0
 32 31  1  0  0  0  0
M  END
>  <MODEL>
8

>  <REMARK>
 VINA RESULT:      -7.5      3.112      8.141
  Name = 
  3 active torsions:
  status: ('A' for Active; 'I' for Inactive)
    1  A    between atoms: C_1  and  C_10
    2  A    between atoms: N_2  and  C_24
    3  A    between atoms: C_10  and  C_24
                            x       y       z     vdW  Elec       q    Type
                         _______ _______ _______ _____ _____    ______ ____

>  <TORSDO>
F 3

$$$$
=
 OpenBabel10272413353D

 32 38  0  0  0  0  0  0  0  0999 V2000
  191.8000  177.9730  143.9370 N   0  0  0  0  0  0  0  0  0  0  0  0
  188.3620  177.7260  140.1400 C   0  0  0  0  0  0  0  0  0  0  0  0
  190.6620  175.1370  136.6890 C   0  0  0  0  0  3  0  0  0  0  0  0
  189.5160  175.1660  135.8980 C   0  0  0  0  0  3  0  0  0  0  0  0
  185.9930  178.4130  139.7680 C   0  0  0  0  0  0  0  0  0  0  0  0
  184.8710  178.4070  138.9380 C   0  0  0  0  0  0  0  0  0  0  0  0
  189.5640  178.3250  142.1830 C   0  0  0  0  0  0  0  0  0  0  0  0
  190.6770  177.0300  140.4740 C   0  0  0  0  0  3  0  0  0  0  0  0
  183.6740  177.8730  137.0020 N   0  0  0  0  0  0  0  0  0  0  0  0
  191.9820  177.6430  142.5170 C   0  0  0  0  0  2  0  0  0  0  0  0
  190.6640  175.7620  137.9360 C   0  0  0  0  0  3  0  0  0  0  0  0
  189.5220  177.0560  139.6710 C   0  0  0  0  0  0  0  0  0  0  0  0
  189.5180  176.4260  138.4130 C   0  0  0  0  0  0  0  0  0  0  0  0
  187.1940  177.1140  138.0680 C   0  0  0  0  0  0  0  0  0  0  0  0
  182.6300  178.6050  137.7030 C   0  0  0  0  0  2  0  0  0  0  0  0
  190.9460  179.1600  144.0980 C   0  0  0  0  0  2  0  0  0  0  0  0
  190.7000  177.6430  141.7270 C   0  0  0  0  0  0  0  0  0  0  0  0
  183.3050  179.1770  139.3200 S   0  0  0  0  0  0  0  0  0  0  0  0
  189.5330  178.9460  143.5440 C   0  0  0  0  0  2  0  0  0  0  0  0
  188.3710  175.8200  136.3540 C   0  0  0  0  0  3  0  0  0  0  0  0
  188.3530  176.4560  137.6100 C   0  0  0  0  0  0  0  0  0  0  0  0
  186.0360  177.1380  137.2660 C   0  0  0  0  0  3  0  0  0  0  0  0
  188.4100  178.3470  141.4020 C   0  0  0  0  0  3  0  0  0  0  0  0
  185.9000  179.0500  140.9640 F   0  0  0  0  0  0  0  0  0  0  0  0
  183.4600  177.2880  135.6880 C   0  0  0  0  0  1  0  0  0  0  0  0
  187.1860  177.7590  139.3430 C   0  0  0  0  0  0  0  0  0  0  0  0
  184.8930  177.7860  137.7200 C   0  0  0  0  0  0  0  0  0  0  0  0
  191.2350  176.8240  144.6380 C   0  0  0  0  0  2  0  0  0  0  0  0
  191.3830  177.0100  146.1360 C   0  0  0  0  0  2  0  0  0  0  0  0
  190.1610  176.4600  146.8400 C   0  0  0  0  0  3  0  0  0  0  0  0
  188.9530  177.2880  146.4540 C   0  0  0  0  0  2  0  0  0  0  0  0
  189.6220  177.5050  147.7950 C   0  0  0  0  0  2  0  0  0  0  0  0
  1 16  1  0  0  0  0
  1 28  1  0  0  0  0
  2 23  1  0  0  0  0
  3 11  1  0  0  0  0
  4 20  1  0  0  0  0
  4  3  2  0  0  0  0
  5 24  1  0  0  0  0
  6 18  1  0  0  0  0
  6  5  2  0  0  0  0
  7 19  1  0  0  0  0
  8 17  2  0  0  0  0
  9 15  1  0  0  0  0
  9 27  1  0  0  0  0
 10  1  1  0  0  0  0
 11 13  2  0  0  0  0
 12  2  2  0  0  0  0
 12  8  1  0  0  0  0
 13 12  1  0  0  0  0
 14 26  2  0  0  0  0
 15 18  1  0  0  0  0
 17  7  1  0  0  0  0
 17 10  1  0  0  0  0
 19 16  1  0  0  0  0
 20 21  2  0  0  0  0
 21 14  1  0  0  0  0
 21 13  1  0  0  0  0
 22 27  2  0  0  0  0
 22 14  1  0  0  0  0
 23  7  2  0  0  0  0
 25  9  1  0  0  0  0
 26  5  1  0  0  0  0
 26  2  1  0  0  0  0
 27  6  1  0  0  0  0
 28 29  1  0  0  0  0
 29 30  1  0  0  0  0
 30 32  1  0  0  0  0
 31 30  1  0  0  0  0
 31 32  1  0  0  0  0
M  END
>  <MODEL>
9

>  <REMARK>
 VINA RESULT:      -7.4      3.263      8.526
  Name = 
  3 active torsions:
  status: ('A' for Active; 'I' for Inactive)
    1  A    between atoms: C_1  and  C_10
    2  A    between atoms: N_2  and  C_24
    3  A    between atoms: C_10  and  C_24
                            x       y       z     vdW  Elec       q    Type
                         _______ _______ _______ _____ _____    ______ ____

>  <TORSDO>
F 3

$$$$
