=
 OpenBabel10262423453D

 34 38  0  0  1  0  0  0  0  0999 V2000
  189.1450  177.0510  146.6930 C   0  0  2  0  0  3  0  0  0  0  0  0
  191.2220  177.9310  145.2180 C   0  0  1  0  0  3  0  0  0  0  0  0
  189.3080  176.6680  144.1090 C   0  0  0  0  0  2  0  0  0  0  0  0
  188.3230  177.4210  141.9250 C   0  0  2  0  0  3  0  0  0  0  0  0
  190.0730  178.7450  145.2400 O   0  0  0  0  0  0  0  0  0  0  0  0
  190.8630  177.7020  142.5610 C   0  0  0  0  0  2  0  0  0  0  0  0
  189.8490  177.3510  145.3560 C   0  0  1  0  0  0  0  0  0  0  0  0
  187.0800  178.5460  144.8660 C   0  0  0  0  0  2  0  0  0  0  0  0
  187.6680  176.7190  146.5230 C   0  0  0  0  0  3  0  0  0  0  0  0
  191.8090  177.9800  143.7690 C   0  0  0  0  0  2  0  0  0  0  0  0
  186.9320  177.2720  142.5840 C   0  0  0  0  0  2  0  0  0  0  0  0
  186.4780  178.4740  143.4440 C   0  0  1  0  0  3  0  0  0  0  0  0
  189.4000  177.6570  142.9830 C   0  0  2  0  0  3  0  0  0  0  0  0
  186.7710  177.3540  145.7360 C   0  0  0  0  0  3  0  0  0  0  0  0
  182.8380  178.6710  142.2870 C   0  0  0  0  0  0  0  0  0  0  0  0
  182.1310  178.9570  143.5380 C   0  0  0  0  0  3  0  0  0  0  0  0
  184.9870  178.6330  143.4390 C   0  0  0  0  0  0  0  0  0  0  0  0
  182.8110  179.0920  144.6760 C   0  0  0  0  0  3  0  0  0  0  0  0
  184.2940  178.5080  142.2990 C   0  0  0  0  0  3  0  0  0  0  0  0
  184.3160  178.9770  144.7490 C   0  0  0  0  0  2  0  0  0  0  0  0
  182.1970  178.5580  141.2090 O   0  0  0  0  0  0  0  0  0  0  0  0
  188.3450  177.8380  148.6040 C   0  0  0  0  0  1  0  0  0  0  0  0
  189.3000  178.0900  147.6180 O   0  0  0  0  0  0  0  0  0  0  0  0
  188.2900  178.5520  140.9080 C   0  0  0  0  0  2  0  0  0  0  0  0
  188.1060  177.9980  139.5060 C   0  0  0  0  0  2  0  0  0  0  0  0
  189.3640  178.2090  138.6840 C   0  0  0  0  0  2  0  0  0  0  0  0
  189.6830  176.9640  137.8730 C   0  0  0  0  0  2  0  0  0  0  0  0
  190.1470  173.9620  137.5500 O   0  0  0  0  0  0  0  0  0  0  0  0
  190.6160  176.0460  138.6470 C   0  0  1  0  0  3  0  0  0  0  0  0
  191.0000  174.8510  137.8050 C   0  0  0  0  0  0  0  0  0  0  0  0
  193.3170  175.5720  137.6350 C   0  0  0  0  0  3  0  0  0  0  0  0
  193.0450  176.6380  138.6140 C   0  0  0  0  0  3  0  0  0  0  0  0
  191.8160  176.8430  139.0950 C   0  0  0  0  0  3  0  0  0  0  0  0
  192.3590  174.7240  137.2590 C   0  0  0  0  0  3  0  0  0  0  0  0
  1 23  1  1  0  0  0
  2 10  1  6  0  0  0
  2  5  1  0  0  0  0
  2  7  1  0  0  0  0
  4 24  1  6  0  0  0
  4 11  1  0  0  0  0
  4 13  1  0  0  0  0
  5  7  1  0  0  0  0
  6 10  1  0  0  0  0
  7  3  1  6  0  0  0
  7  1  1  0  0  0  0
  8 14  1  0  0  0  0
  9  1  1  0  0  0  0
 11 12  1  0  0  0  0
 12 17  1  1  0  0  0
 12  8  1  0  0  0  0
 13  6  1  6  0  0  0
 13  3  1  0  0  0  0
 14  9  2  0  0  0  0
 15 19  1  0  0  0  0
 15 16  1  0  0  0  0
 16 18  2  0  0  0  0
 17 20  1  0  0  0  0
 18 20  1  0  0  0  0
 19 17  2  0  0  0  0
 21 15  2  0  0  0  0
 23 22  1  0  0  0  0
 25 24  1  0  0  0  0
 26 25  1  0  0  0  0
 27 26  1  0  0  0  0
 28 30  2  0  0  0  0
 29 27  1  6  0  0  0
 29 33  1  0  0  0  0
 30 29  1  0  0  0  0
 31 32  1  0  0  0  0
 32 33  2  0  0  0  0
 34 31  2  0  0  0  0
 34 30  1  0  0  0  0
M  END
>  <MODEL>
1

>  <REMARK>
 VINA RESULT:      -8.9      0.000      0.000
  Name = 
  7 active torsions:
  status: ('A' for Active; 'I' for Inactive)
    1  A    between atoms: C_1  and  O_19
    2  A    between atoms: C_3  and  C_13
    3  A    between atoms: C_3  and  C_17
    4  A    between atoms: C_5  and  C_18
    5  A    between atoms: C_12  and  C_28
    6  A    between atoms: C_17  and  C_29
    7  A    between atoms: C_18  and  C_29
                            x       y       z     vdW  Elec       q    Type
                         _______ _______ _______ _____ _____    ______ ____

>  <TORSDO>
F 7

$$$$
=
 OpenBabel10262423453D

 34 38  0  0  1  0  0  0  0  0999 V2000
  183.6910  179.3630  143.5570 C   0  0  2  0  0  3  0  0  0  0  0  0
  183.5940  178.4610  141.0190 C   0  0  1  0  0  3  0  0  0  0  0  0
  185.7210  179.5390  141.9150 C   0  0  0  0  0  2  0  0  0  0  0  0
  187.9880  178.5650  141.4510 C   0  0  2  0  0  3  0  0  0  0  0  0
  184.1670  177.6000  141.9730 O   0  0  0  0  0  0  0  0  0  0  0  0
  185.9730  178.4550  139.7600 C   0  0  0  0  0  2  0  0  0  0  0  0
  184.3350  178.9870  142.2080 C   0  0  1  0  0  0  0  0  0  0  0  0
  186.2270  177.6290  144.1860 C   0  0  0  0  0  2  0  0  0  0  0  0
  184.7170  179.6110  144.6540 C   0  0  0  0  0  3  0  0  0  0  0  0
  184.4200  178.3210  139.6980 C   0  0  0  0  0  2  0  0  0  0  0  0
  188.2780  178.7030  142.9630 C   0  0  0  0  0  2  0  0  0  0  0  0
  187.7340  177.5560  143.8460 C   0  0  1  0  0  3  0  0  0  0  0  0
  186.4860  178.4670  141.1940 C   0  0  2  0  0  3  0  0  0  0  0  0
  185.8150  178.8730  144.9310 C   0  0  0  0  0  3  0  0  0  0  0  0
  190.7580  176.9780  146.1150 C   0  0  0  0  0  0  0  0  0  0  0  0
  190.1380  176.8940  147.4400 C   0  0  0  0  0  3  0  0  0  0  0  0
  188.5890  177.3290  145.0560 C   0  0  0  0  0  0  0  0  0  0  0  0
  188.8170  177.0030  147.5700 C   0  0  0  0  0  3  0  0  0  0  0  0
  189.9180  177.2080  144.9360 C   0  0  0  0  0  3  0  0  0  0  0  0
  187.8920  177.2000  146.3910 C   0  0  0  0  0  2  0  0  0  0  0  0
  192.0050  176.8590  145.9900 O   0  0  0  0  0  0  0  0  0  0  0  0
  181.5130  179.0090  143.7640 C   0  0  0  0  0  1  0  0  0  0  0  0
  182.7560  178.4120  143.9810 O   0  0  0  0  0  0  0  0  0  0  0  0
  188.7240  177.3540  140.8960 C   0  0  0  0  0  2  0  0  0  0  0  0
  190.2250  177.5360  141.0380 C   0  0  0  0  0  2  0  0  0  0  0  0
  190.9060  177.3900  139.6900 C   0  0  0  0  0  2  0  0  0  0  0  0
  190.0320  176.5890  138.7380 C   0  0  0  0  0  2  0  0  0  0  0  0
  189.9700  175.2890  135.9740 O   0  0  0  0  0  0  0  0  0  0  0  0
  189.9930  177.2450  137.3670 C   0  0  1  0  0  3  0  0  0  0  0  0
  189.3570  176.3200  136.3560 C   0  0  0  0  0  0  0  0  0  0  0  0
  187.4090  177.7540  136.0990 C   0  0  0  0  0  3  0  0  0  0  0  0
  188.0730  178.7830  136.9180 C   0  0  0  0  0  3  0  0  0  0  0  0
  189.2640  178.5610  137.4820 C   0  0  0  0  0  3  0  0  0  0  0  0
  188.0140  176.5980  135.8250 C   0  0  0  0  0  3  0  0  0  0  0  0
  1 23  1  1  0  0  0
  1  9  1  0  0  0  0
  2 10  1  6  0  0  0
  2  5  1  0  0  0  0
  2  7  1  0  0  0  0
  4 24  1  1  0  0  0
  4 11  1  0  0  0  0
  5  7  1  0  0  0  0
  7  3  1  6  0  0  0
  7  1  1  0  0  0  0
  8 14  1  0  0  0  0
  9 14  2  0  0  0  0
 10  6  1  0  0  0  0
 11 12  1  0  0  0  0
 12  8  1  0  0  0  0
 12 17  1  1  0  0  0
 13  6  1  6  0  0  0
 13  4  1  0  0  0  0
 13  3  1  0  0  0  0
 15 16  1  0  0  0  0
 16 18  2  0  0  0  0
 17 20  1  0  0  0  0
 19 17  2  0  0  0  0
 19 15  1  0  0  0  0
 20 18  1  0  0  0  0
 21 15  2  0  0  0  0
 22 23  1  0  0  0  0
 24 25  1  0  0  0  0
 26 25  1  0  0  0  0
 27 26  1  0  0  0  0
 28 30  2  0  0  0  0
 29 33  1  0  0  0  0
 29 27  1  1  0  0  0
 30 29  1  0  0  0  0
 31 32  1  0  0  0  0
 32 33  2  0  0  0  0
 34 31  2  0  0  0  0
 34 30  1  0  0  0  0
M  END
>  <MODEL>
2

>  <REMARK>
 VINA RESULT:      -8.8      1.755      5.597
  Name = 
  7 active torsions:
  status: ('A' for Active; 'I' for Inactive)
    1  A    between atoms: C_1  and  O_19
    2  A    between atoms: C_3  and  C_13
    3  A    between atoms: C_3  and  C_17
    4  A    between atoms: C_5  and  C_18
    5  A    between atoms: C_12  and  C_28
    6  A    between atoms: C_17  and  C_29
    7  A    between atoms: C_18  and  C_29
                            x       y       z     vdW  Elec       q    Type
                         _______ _______ _______ _____ _____    ______ ____

>  <TORSDO>
F 7

$$$$
=
 OpenBabel10262423453D

 34 38  0  0  1  0  0  0  0  0999 V2000
  181.3680  178.4210  138.3890 C   0  0  2  0  0  3  0  0  0  0  0  0
  180.1220  179.8660  140.2930 C   0  0  1  0  0  3  0  0  0  0  0  0
  181.7860  178.0520  140.9470 C   0  0  0  0  0  2  0  0  0  0  0  0
  183.4930  178.4180  142.7510 C   0  0  2  0  0  3  0  0  0  0  0  0
  181.4140  180.2870  139.9240 O   0  0  0  0  0  0  0  0  0  0  0  0
  181.0840  179.4810  142.7760 C   0  0  0  0  0  2  0  0  0  0  0  0
  181.1670  178.8940  139.8420 C   0  0  1  0  0  0  0  0  0  0  0  0
  184.1930  179.1680  139.5250 C   0  0  0  0  0  2  0  0  0  0  0  0
  182.6640  177.6470  138.1930 C   0  0  0  0  0  3  0  0  0  0  0  0
  179.9820  180.0630  141.8380 C   0  0  0  0  0  2  0  0  0  0  0  0
  184.5480  177.8620  141.7660 C   0  0  0  0  0  2  0  0  0  0  0  0
  185.0990  178.8830  140.7450 C   0  0  1  0  0  3  0  0  0  0  0  0
  182.2990  178.9960  141.9950 C   0  0  2  0  0  3  0  0  0  0  0  0
  183.8860  177.9580  138.6800 C   0  0  0  0  0  3  0  0  0  0  0  0
  188.2190  178.0790  138.6840 C   0  0  0  0  0  0  0  0  0  0  0  0
  189.2560  177.9880  139.7150 C   0  0  0  0  0  3  0  0  0  0  0  0
  186.5140  178.5750  140.3560 C   0  0  0  0  0  0  0  0  0  0  0  0
  188.9420  178.1630  140.9980 C   0  0  0  0  0  3  0  0  0  0  0  0
  186.8400  178.3890  139.0690 C   0  0  0  0  0  3  0  0  0  0  0  0
  187.5320  178.4430  141.4650 C   0  0  0  0  0  2  0  0  0  0  0  0
  188.5120  177.8990  137.4730 O   0  0  0  0  0  0  0  0  0  0  0  0
  181.4570  178.8780  136.2230 C   0  0  0  0  0  1  0  0  0  0  0  0
  181.2950  179.4760  137.4730 O   0  0  0  0  0  0  0  0  0  0  0  0
  184.1340  179.4620  143.6530 C   0  0  0  0  0  2  0  0  0  0  0  0
  183.9400  179.0910  145.1130 C   0  0  0  0  0  2  0  0  0  0  0  0
  185.2770  179.0410  145.8290 C   0  0  0  0  0  2  0  0  0  0  0  0
  186.3220  178.3660  144.9560 C   0  0  0  0  0  2  0  0  0  0  0  0
  188.5650  176.5060  144.0400 O   0  0  0  0  0  0  0  0  0  0  0  0
  187.0290  177.2610  145.7250 C   0  0  1  0  0  3  0  0  0  0  0  0
  188.4170  177.0370  145.1720 C   0  0  0  0  0  0  0  0  0  0  0  0
  189.4800  177.8820  147.1900 C   0  0  0  0  0  3  0  0  0  0  0  0
  188.1650  177.9280  147.8500 C   0  0  0  0  0  3  0  0  0  0  0  0
  187.0440  177.6240  147.1890 C   0  0  0  0  0  3  0  0  0  0  0  0
  189.6040  177.4550  145.9330 C   0  0  0  0  0  3  0  0  0  0  0  0
  1 23  1  6  0  0  0
  1  7  1  0  0  0  0
  2 10  1  1  0  0  0
  4 24  1  6  0  0  0
  5  2  1  0  0  0  0
  7  5  1  0  0  0  0
  7  2  1  0  0  0  0
  7  3  1  1  0  0  0
  8 12  1  0  0  0  0
  9  1  1  0  0  0  0
  9 14  2  0  0  0  0
 10  6  1  0  0  0  0
 11  4  1  0  0  0  0
 12 17  1  6  0  0  0
 12 11  1  0  0  0  0
 13  3  1  6  0  0  0
 13  4  1  0  0  0  0
 13  6  1  0  0  0  0
 14  8  1  0  0  0  0
 15 19  1  0  0  0  0
 15 16  1  0  0  0  0
 16 18  2  0  0  0  0
 17 20  1  0  0  0  0
 18 20  1  0  0  0  0
 19 17  2  0  0  0  0
 21 15  2  0  0  0  0
 22 23  1  0  0  0  0
 24 25  1  0  0  0  0
 25 26  1  0  0  0  0
 27 26  1  0  0  0  0
 28 30  2  0  0  0  0
 29 27  1  6  0  0  0
 29 33  1  0  0  0  0
 30 29  1  0  0  0  0
 30 34  1  0  0  0  0
 31 32  1  0  0  0  0
 33 32  2  0  0  0  0
 34 31  2  0  0  0  0
M  END
>  <MODEL>
3

>  <REMARK>
 VINA RESULT:      -8.6      2.445      8.614
  Name = 
  7 active torsions:
  status: ('A' for Active; 'I' for Inactive)
    1  A    between atoms: C_1  and  O_19
    2  A    between atoms: C_3  and  C_13
    3  A    between atoms: C_3  and  C_17
    4  A    between atoms: C_5  and  C_18
    5  A    between atoms: C_12  and  C_28
    6  A    between atoms: C_17  and  C_29
    7  A    between atoms: C_18  and  C_29
                            x       y       z     vdW  Elec       q    Type
                         _______ _______ _______ _____ _____    ______ ____

>  <TORSDO>
F 7

$$$$
=
 OpenBabel10262423453D

 34 38  0  0  1  0  0  0  0  0999 V2000
  188.9760  177.1450  146.8080 C   0  0  2  0  0  3  0  0  0  0  0  0
  191.1080  177.9020  145.3430 C   0  0  1  0  0  3  0  0  0  0  0  0
  189.2060  176.6000  144.2590 C   0  0  0  0  0  2  0  0  0  0  0  0
  188.2940  177.2290  142.0050 C   0  0  2  0  0  3  0  0  0  0  0  0
  189.9720  178.7320  145.2810 O   0  0  0  0  0  0  0  0  0  0  0  0
  190.8200  177.5130  142.6950 C   0  0  0  0  0  2  0  0  0  0  0  0
  189.7230  177.3510  145.4760 C   0  0  1  0  0  0  0  0  0  0  0  0
  186.9880  178.5530  144.8330 C   0  0  0  0  0  2  0  0  0  0  0  0
  187.5000  176.8250  146.6160 C   0  0  0  0  0  3  0  0  0  0  0  0
  191.7360  177.8520  143.9110 C   0  0  0  0  0  2  0  0  0  0  0  0
  186.8830  177.1420  142.6310 C   0  0  0  0  0  2  0  0  0  0  0  0
  186.4250  178.4010  143.4020 C   0  0  1  0  0  3  0  0  0  0  0  0
  189.3450  177.5150  143.0770 C   0  0  2  0  0  3  0  0  0  0  0  0
  186.6360  177.4220  145.7660 C   0  0  0  0  0  3  0  0  0  0  0  0
  182.8290  178.6280  142.1190 C   0  0  0  0  0  0  0  0  0  0  0  0
  182.0850  178.9460  143.3400 C   0  0  0  0  0  3  0  0  0  0  0  0
  184.9380  178.5810  143.3440 C   0  0  0  0  0  0  0  0  0  0  0  0
  182.7280  179.0920  144.4980 C   0  0  0  0  0  3  0  0  0  0  0  0
  184.2810  178.4450  142.1830 C   0  0  0  0  0  3  0  0  0  0  0  0
  184.2280  178.9580  144.6240 C   0  0  0  0  0  2  0  0  0  0  0  0
  182.2230  178.5060  141.0220 O   0  0  0  0  0  0  0  0  0  0  0  0
  188.3330  177.9270  148.7800 C   0  0  0  0  0  1  0  0  0  0  0  0
  189.1220  178.2370  147.6710 O   0  0  0  0  0  0  0  0  0  0  0  0
  188.3090  178.2960  140.9190 C   0  0  0  0  0  2  0  0  0  0  0  0
  189.2490  177.8940  139.7970 C   0  0  0  0  0  2  0  0  0  0  0  0
  188.7440  178.4250  138.4670 C   0  0  0  0  0  2  0  0  0  0  0  0
  187.7410  177.4590  137.8570 C   0  0  0  0  0  2  0  0  0  0  0  0
  186.6550  177.5050  135.0030 O   0  0  0  0  0  0  0  0  0  0  0  0
  186.5460  178.2130  137.2950 C   0  0  1  0  0  3  0  0  0  0  0  0
  186.0000  177.5040  136.0770 C   0  0  0  0  0  0  0  0  0  0  0  0
  183.9360  176.8990  137.2150 C   0  0  0  0  0  3  0  0  0  0  0  0
  184.3290  177.7450  138.3540 C   0  0  0  0  0  3  0  0  0  0  0  0
  185.5130  178.3640  138.3840 C   0  0  0  0  0  3  0  0  0  0  0  0
  184.7150  176.7910  136.1380 C   0  0  0  0  0  3  0  0  0  0  0  0
  1 23  1  1  0  0  0
  2 10  1  6  0  0  0
  2  7  1  0  0  0  0
  4 24  1  6  0  0  0
  4 11  1  0  0  0  0
  4 13  1  0  0  0  0
  5  2  1  0  0  0  0
  5  7  1  0  0  0  0
  6 10  1  0  0  0  0
  7  3  1  6  0  0  0
  7  1  1  0  0  0  0
  8 14  1  0  0  0  0
  9  1  1  0  0  0  0
 11 12  1  0  0  0  0
 12 17  1  1  0  0  0
 12  8  1  0  0  0  0
 13  6  1  6  0  0  0
 13  3  1  0  0  0  0
 14  9  2  0  0  0  0
 15 19  1  0  0  0  0
 15 16  1  0  0  0  0
 16 18  2  0  0  0  0
 17 20  1  0  0  0  0
 18 20  1  0  0  0  0
 19 17  2  0  0  0  0
 21 15  2  0  0  0  0
 23 22  1  0  0  0  0
 25 24  1  0  0  0  0
 26 25  1  0  0  0  0
 27 26  1  0  0  0  0
 28 30  2  0  0  0  0
 29 27  1  1  0  0  0
 29 33  1  0  0  0  0
 30 34  1  0  0  0  0
 30 29  1  0  0  0  0
 31 32  1  0  0  0  0
 32 33  2  0  0  0  0
 34 31  2  0  0  0  0
M  END
>  <MODEL>
4

>  <REMARK>
 VINA RESULT:      -8.4      2.019      3.298
  Name = 
  7 active torsions:
  status: ('A' for Active; 'I' for Inactive)
    1  A    between atoms: C_1  and  O_19
    2  A    between atoms: C_3  and  C_13
    3  A    between atoms: C_3  and  C_17
    4  A    between atoms: C_5  and  C_18
    5  A    between atoms: C_12  and  C_28
    6  A    between atoms: C_17  and  C_29
    7  A    between atoms: C_18  and  C_29
                            x       y       z     vdW  Elec       q    Type
                         _______ _______ _______ _____ _____    ______ ____

>  <TORSDO>
F 7

$$$$
=
 OpenBabel10262423453D

 34 38  0  0  1  0  0  0  0  0999 V2000
  191.4840  177.1600  146.0340 C   0  0  2  0  0  3  0  0  0  0  0  0
  189.3640  176.5810  147.5950 C   0  0  1  0  0  3  0  0  0  0  0  0
  189.1800  178.3810  145.8020 C   0  0  0  0  0  2  0  0  0  0  0  0
  187.1680  178.5560  144.3100 C   0  0  2  0  0  3  0  0  0  0  0  0
  189.4050  175.9630  146.3310 O   0  0  0  0  0  0  0  0  0  0  0  0
  187.0690  177.7520  146.8150 C   0  0  0  0  0  2  0  0  0  0  0  0
  189.9930  177.2500  146.4120 C   0  0  1  0  0  0  0  0  0  0  0  0
  189.8270  176.6590  143.4190 C   0  0  0  0  0  2  0  0  0  0  0  0
  191.7770  177.7160  144.6470 C   0  0  0  0  0  3  0  0  0  0  0  0
  187.8740  176.9580  147.8900 C   0  0  0  0  0  2  0  0  0  0  0  0
  188.1490  178.6460  143.1180 C   0  0  0  0  0  2  0  0  0  0  0  0
  188.6800  177.2910  142.5970 C   0  0  1  0  0  3  0  0  0  0  0  0
  187.8170  177.8360  145.4910 C   0  0  2  0  0  3  0  0  0  0  0  0
  191.0680  177.5090  143.5150 C   0  0  0  0  0  3  0  0  0  0  0  0
  188.4720  178.0680  138.8580 C   0  0  0  0  0  0  0  0  0  0  0  0
  189.6370  177.3550  138.3290 C   0  0  0  0  0  3  0  0  0  0  0  0
  188.9780  177.3350  141.1280 C   0  0  0  0  0  0  0  0  0  0  0  0
  190.4230  176.6550  139.1470 C   0  0  0  0  0  3  0  0  0  0  0  0
  188.1900  178.0280  140.2950 C   0  0  0  0  0  3  0  0  0  0  0  0
  190.1640  176.5400  140.6310 C   0  0  0  0  0  2  0  0  0  0  0  0
  187.7210  178.7160  138.0840 O   0  0  0  0  0  0  0  0  0  0  0  0
  192.5370  175.7910  147.4220 C   0  0  0  0  0  1  0  0  0  0  0  0
  191.9810  175.8570  146.1440 O   0  0  0  0  0  0  0  0  0  0  0  0
  185.8910  177.8550  143.8700 C   0  0  0  0  0  2  0  0  0  0  0  0
  184.6830  178.7300  144.1580 C   0  0  0  0  0  2  0  0  0  0  0  0
  183.6980  178.6690  143.0040 C   0  0  0  0  0  2  0  0  0  0  0  0
  184.4390  178.6130  141.6780 C   0  0  0  0  0  2  0  0  0  0  0  0
  184.8230  179.9230  138.9450 O   0  0  0  0  0  0  0  0  0  0  0  0
  183.4630  178.7180  140.5160 C   0  0  1  0  0  3  0  0  0  0  0  0
  184.2100  178.8560  139.2100 C   0  0  0  0  0  0  0  0  0  0  0  0
  183.4910  176.6650  138.4360 C   0  0  0  0  0  3  0  0  0  0  0  0
  182.5860  176.5650  139.5940 C   0  0  0  0  0  3  0  0  0  0  0  0
  182.5560  177.5130  140.5360 C   0  0  0  0  0  3  0  0  0  0  0  0
  184.2500  177.7440  138.2470 C   0  0  0  0  0  3  0  0  0  0  0  0
  1 23  1  6  0  0  0
  1  7  1  0  0  0  0
  2 10  1  6  0  0  0
  4 24  1  6  0  0  0
  4 13  1  0  0  0  0
  5  7  1  0  0  0  0
  5  2  1  0  0  0  0
  6 10  1  0  0  0  0
  7  3  1  6  0  0  0
  7  2  1  0  0  0  0
  8 14  1  0  0  0  0
  9  1  1  0  0  0  0
 11  4  1  0  0  0  0
 12 17  1  6  0  0  0
 12 11  1  0  0  0  0
 12  8  1  0  0  0  0
 13  3  1  1  0  0  0
 13  6  1  0  0  0  0
 14  9  2  0  0  0  0
 15 19  1  0  0  0  0
 16 15  1  0  0  0  0
 16 18  2  0  0  0  0
 18 20  1  0  0  0  0
 19 17  2  0  0  0  0
 20 17  1  0  0  0  0
 21 15  2  0  0  0  0
 23 22  1  0  0  0  0
 24 25  1  0  0  0  0
 26 25  1  0  0  0  0
 27 26  1  0  0  0  0
 28 30  2  0  0  0  0
 29 33  1  0  0  0  0
 29 27  1  1  0  0  0
 30 29  1  0  0  0  0
 31 32  1  0  0  0  0
 32 33  2  0  0  0  0
 34 31  2  0  0  0  0
 34 30  1  0  0  0  0
M  END
>  <MODEL>
5

>  <REMARK>
 VINA RESULT:      -8.3      2.191      6.173
  Name = 
  7 active torsions:
  status: ('A' for Active; 'I' for Inactive)
    1  A    between atoms: C_1  and  O_19
    2  A    between atoms: C_3  and  C_13
    3  A    between atoms: C_3  and  C_17
    4  A    between atoms: C_5  and  C_18
    5  A    between atoms: C_12  and  C_28
    6  A    between atoms: C_17  and  C_29
    7  A    between atoms: C_18  and  C_29
                            x       y       z     vdW  Elec       q    Type
                         _______ _______ _______ _____ _____    ______ ____

>  <TORSDO>
F 7

$$$$
=
 OpenBabel10262423453D

 34 38  0  0  1  0  0  0  0  0999 V2000
  189.2890  177.9900  136.9310 C   0  0  2  0  0  3  0  0  0  0  0  0
  190.3800  176.7050  139.0350 C   0  0  1  0  0  3  0  0  0  0  0  0
  188.8300  178.6910  139.4100 C   0  0  0  0  0  2  0  0  0  0  0  0
  187.0540  178.6610  141.1850 C   0  0  2  0  0  3  0  0  0  0  0  0
  189.0720  176.3290  138.6740 O   0  0  0  0  0  0  0  0  0  0  0  0
  189.3810  177.4510  141.4200 C   0  0  0  0  0  2  0  0  0  0  0  0
  189.4180  177.6830  138.4360 C   0  0  1  0  0  0  0  0  0  0  0  0
  186.3890  177.5740  138.0480 C   0  0  0  0  0  2  0  0  0  0  0  0
  188.0560  178.8190  136.5990 C   0  0  0  0  0  3  0  0  0  0  0  0
  190.4650  176.6880  140.5970 C   0  0  0  0  0  2  0  0  0  0  0  0
  186.0670  179.1620  140.1050 C   0  0  0  0  0  2  0  0  0  0  0  0
  185.4730  178.0630  139.1940 C   0  0  1  0  0  3  0  0  0  0  0  0
  188.2250  177.9170  140.5450 C   0  0  2  0  0  3  0  0  0  0  0  0
  186.8030  178.6500  137.0770 C   0  0  0  0  0  3  0  0  0  0  0  0
  182.1280  179.8570  138.7280 C   0  0  0  0  0  0  0  0  0  0  0  0
  181.4510  179.0000  137.7520 C   0  0  0  0  0  3  0  0  0  0  0  0
  184.0950  178.4150  138.7210 C   0  0  0  0  0  0  0  0  0  0  0  0
  182.0500  177.9000  137.2960 C   0  0  0  0  0  3  0  0  0  0  0  0
  183.4780  179.5130  139.1790 C   0  0  0  0  0  3  0  0  0  0  0  0
  183.4240  177.4680  137.7530 C   0  0  0  0  0  2  0  0  0  0  0  0
  181.5550  180.8870  139.1700 O   0  0  0  0  0  0  0  0  0  0  0  0
  189.5390  177.2760  134.8480 C   0  0  0  0  0  1  0  0  0  0  0  0
  189.3120  176.8290  136.1500 O   0  0  0  0  0  0  0  0  0  0  0  0
  186.3180  177.7770  142.1820 C   0  0  0  0  0  2  0  0  0  0  0  0
  185.4830  178.6270  143.1250 C   0  0  0  0  0  2  0  0  0  0  0  0
  185.5260  178.0550  144.5300 C   0  0  0  0  0  2  0  0  0  0  0  0
  186.8190  177.2850  144.7500 C   0  0  0  0  0  2  0  0  0  0  0  0
  186.8070  178.1050  147.6930 O   0  0  0  0  0  0  0  0  0  0  0  0
  187.8220  178.1320  145.5160 C   0  0  1  0  0  3  0  0  0  0  0  0
  187.7970  177.7810  146.9860 C   0  0  0  0  0  0  0  0  0  0  0  0
  190.0310  176.8210  146.9110 C   0  0  0  0  0  3  0  0  0  0  0  0
  190.1870  177.3210  145.5350 C   0  0  0  0  0  3  0  0  0  0  0  0
  189.1860  177.9410  144.9020 C   0  0  0  0  0  3  0  0  0  0  0  0
  188.9110  177.0440  147.6000 C   0  0  0  0  0  3  0  0  0  0  0  0
  1 23  1  6  0  0  0
  1  7  1  0  0  0  0
  2 10  1  1  0  0  0
  4 24  1  1  0  0  0
  5  2  1  0  0  0  0
  7  5  1  0  0  0  0
  7  2  1  0  0  0  0
  7  3  1  1  0  0  0
  8 12  1  0  0  0  0
  9  1  1  0  0  0  0
  9 14  2  0  0  0  0
 10  6  1  0  0  0  0
 11  4  1  0  0  0  0
 12 17  1  6  0  0  0
 12 11  1  0  0  0  0
 13  3  1  6  0  0  0
 13  4  1  0  0  0  0
 13  6  1  0  0  0  0
 14  8  1  0  0  0  0
 15 21  2  0  0  0  0
 15 19  1  0  0  0  0
 16 15  1  0  0  0  0
 17 19  2  0  0  0  0
 18 16  2  0  0  0  0
 18 20  1  0  0  0  0
 20 17  1  0  0  0  0
 22 23  1  0  0  0  0
 24 25  1  0  0  0  0
 25 26  1  0  0  0  0
 26 27  1  0  0  0  0
 29 27  1  6  0  0  0
 29 30  1  0  0  0  0
 30 34  1  0  0  0  0
 30 28  2  0  0  0  0
 31 34  2  0  0  0  0
 32 31  1  0  0  0  0
 33 29  1  0  0  0  0
 33 32  2  0  0  0  0
M  END
>  <MODEL>
6

>  <REMARK>
 VINA RESULT:      -8.2      2.469      7.312
  Name = 
  7 active torsions:
  status: ('A' for Active; 'I' for Inactive)
    1  A    between atoms: C_1  and  O_19
    2  A    between atoms: C_3  and  C_13
    3  A    between atoms: C_3  and  C_17
    4  A    between atoms: C_5  and  C_18
    5  A    between atoms: C_12  and  C_28
    6  A    between atoms: C_17  and  C_29
    7  A    between atoms: C_18  and  C_29
                            x       y       z     vdW  Elec       q    Type
                         _______ _______ _______ _____ _____    ______ ____

>  <TORSDO>
F 7

$$$$
=
 OpenBabel10262423453D

 34 38  0  0  1  0  0  0  0  0999 V2000
  183.7560  179.3850  143.4030 C   0  0  2  0  0  3  0  0  0  0  0  0
  183.7010  178.4330  140.8820 C   0  0  1  0  0  3  0  0  0  0  0  0
  185.8230  179.4990  141.8020 C   0  0  0  0  0  2  0  0  0  0  0  0
  188.0860  178.4850  141.4080 C   0  0  2  0  0  3  0  0  0  0  0  0
  184.2410  177.5830  141.8660 O   0  0  0  0  0  0  0  0  0  0  0  0
  186.1060  178.3680  139.6750 C   0  0  0  0  0  2  0  0  0  0  0  0
  184.4230  178.9730  142.0760 C   0  0  1  0  0  0  0  0  0  0  0  0
  186.2530  177.6290  144.1210 C   0  0  0  0  0  2  0  0  0  0  0  0
  184.7610  179.6410  144.5170 C   0  0  0  0  0  3  0  0  0  0  0  0
  184.5530  178.2550  139.5820 C   0  0  0  0  0  2  0  0  0  0  0  0
  188.3440  178.6490  142.9230 C   0  0  0  0  0  2  0  0  0  0  0  0
  187.7650  177.5290  143.8160 C   0  0  1  0  0  3  0  0  0  0  0  0
  186.5880  178.4030  141.1200 C   0  0  2  0  0  3  0  0  0  0  0  0
  185.8420  178.8930  144.8330 C   0  0  0  0  0  3  0  0  0  0  0  0
  190.7240  176.9060  146.1580 C   0  0  0  0  0  0  0  0  0  0  0  0
  190.0820  176.9100  147.4750 C   0  0  0  0  0  3  0  0  0  0  0  0
  188.5900  177.3140  145.0490 C   0  0  0  0  0  0  0  0  0  0  0  0
  188.7650  177.0880  147.5780 C   0  0  0  0  0  3  0  0  0  0  0  0
  189.9140  177.1250  144.9570 C   0  0  0  0  0  3  0  0  0  0  0  0
  187.8680  177.2770  146.3770 C   0  0  0  0  0  2  0  0  0  0  0  0
  191.9650  176.7220  146.0590 O   0  0  0  0  0  0  0  0  0  0  0  0
  181.5690  179.0600  143.5590 C   0  0  0  0  0  1  0  0  0  0  0  0
  182.7980  178.4550  143.8250 O   0  0  0  0  0  0  0  0  0  0  0  0
  188.8160  177.2520  140.8940 C   0  0  0  0  0  2  0  0  0  0  0  0
  189.9920  177.6590  140.0240 C   0  0  0  0  0  2  0  0  0  0  0  0
  189.5150  178.0540  138.6380 C   0  0  0  0  0  2  0  0  0  0  0  0
  190.2600  177.2650  137.5750 C   0  0  0  0  0  2  0  0  0  0  0  0
  189.8490  174.2400  137.6820 O   0  0  0  0  0  0  0  0  0  0  0  0
  191.1340  176.1970  138.2150 C   0  0  1  0  0  3  0  0  0  0  0  0
  190.9300  174.8660  137.5290 C   0  0  0  0  0  0  0  0  0  0  0  0
  193.1790  174.8690  136.6050 C   0  0  0  0  0  3  0  0  0  0  0  0
  193.4980  176.0580  137.4130 C   0  0  0  0  0  3  0  0  0  0  0  0
  192.5700  176.6550  138.1670 C   0  0  0  0  0  3  0  0  0  0  0  0
  191.9750  174.3000  136.6640 C   0  0  0  0  0  3  0  0  0  0  0  0
  1 23  1  1  0  0  0
  1  9  1  0  0  0  0
  2 10  1  6  0  0  0
  2  5  1  0  0  0  0
  2  7  1  0  0  0  0
  4 24  1  1  0  0  0
  4 11  1  0  0  0  0
  5  7  1  0  0  0  0
  7  3  1  6  0  0  0
  7  1  1  0  0  0  0
  8 14  1  0  0  0  0
  9 14  2  0  0  0  0
 10  6  1  0  0  0  0
 11 12  1  0  0  0  0
 12  8  1  0  0  0  0
 12 17  1  1  0  0  0
 13  6  1  6  0  0  0
 13  4  1  0  0  0  0
 13  3  1  0  0  0  0
 15 16  1  0  0  0  0
 16 18  2  0  0  0  0
 17 20  1  0  0  0  0
 19 17  2  0  0  0  0
 19 15  1  0  0  0  0
 20 18  1  0  0  0  0
 21 15  2  0  0  0  0
 22 23  1  0  0  0  0
 25 24  1  0  0  0  0
 26 25  1  0  0  0  0
 27 26  1  0  0  0  0
 29 27  1  6  0  0  0
 30 28  2  0  0  0  0
 30 29  1  0  0  0  0
 31 34  2  0  0  0  0
 31 32  1  0  0  0  0
 32 33  2  0  0  0  0
 33 29  1  0  0  0  0
 34 30  1  0  0  0  0
M  END
>  <MODEL>
7

>  <REMARK>
 VINA RESULT:      -8.1      1.443      5.249
  Name = 
  7 active torsions:
  status: ('A' for Active; 'I' for Inactive)
    1  A    between atoms: C_1  and  O_19
    2  A    between atoms: C_3  and  C_13
    3  A    between atoms: C_3  and  C_17
    4  A    between atoms: C_5  and  C_18
    5  A    between atoms: C_12  and  C_28
    6  A    between atoms: C_17  and  C_29
    7  A    between atoms: C_18  and  C_29
                            x       y       z     vdW  Elec       q    Type
                         _______ _______ _______ _____ _____    ______ ____

>  <TORSDO>
F 7

$$$$
=
 OpenBabel10262423453D

 34 38  0  0  1  0  0  0  0  0999 V2000
  191.4870  177.3670  145.6020 C   0  0  2  0  0  3  0  0  0  0  0  0
  189.1990  176.9110  146.9530 C   0  0  1  0  0  3  0  0  0  0  0  0
  189.2170  178.5040  144.9650 C   0  0  0  0  0  2  0  0  0  0  0  0
  187.3980  178.4720  143.2350 C   0  0  2  0  0  3  0  0  0  0  0  0
  189.3990  176.1620  145.7780 O   0  0  0  0  0  0  0  0  0  0  0  0
  187.0040  177.9390  145.7830 C   0  0  0  0  0  2  0  0  0  0  0  0
  189.9600  177.4630  145.7880 C   0  0  1  0  0  0  0  0  0  0  0  0
  190.1620  176.5510  142.8790 C   0  0  0  0  0  2  0  0  0  0  0  0
  191.9400  177.7770  144.2080 C   0  0  0  0  0  3  0  0  0  0  0  0
  187.6820  177.2840  147.0260 C   0  0  0  0  0  2  0  0  0  0  0  0
  188.5150  178.4550  142.1650 C   0  0  0  0  0  2  0  0  0  0  0  0
  189.1170  177.0650  141.8630 C   0  0  1  0  0  3  0  0  0  0  0  0
  187.9060  177.8980  144.5560 C   0  0  2  0  0  3  0  0  0  0  0  0
  191.3750  177.4340  143.0290 C   0  0  0  0  0  3  0  0  0  0  0  0
  191.3270  176.5210  138.7880 C   0  0  0  0  0  0  0  0  0  0  0  0
  190.3960  176.7810  137.6880 C   0  0  0  0  0  3  0  0  0  0  0  0
  189.5900  176.9580  140.4440 C   0  0  0  0  0  0  0  0  0  0  0  0
  189.1350  177.1280  137.9460 C   0  0  0  0  0  3  0  0  0  0  0  0
  190.8580  176.6180  140.1730 C   0  0  0  0  0  3  0  0  0  0  0  0
  188.6000  177.2870  139.3500 C   0  0  0  0  0  2  0  0  0  0  0  0
  192.5220  176.2080  138.5460 O   0  0  0  0  0  0  0  0  0  0  0  0
  192.3560  176.1720  147.2530 C   0  0  0  0  0  1  0  0  0  0  0  0
  191.9790  176.0940  145.9120 O   0  0  0  0  0  0  0  0  0  0  0  0
  186.1890  177.7000  142.7260 C   0  0  0  0  0  2  0  0  0  0  0  0
  184.9110  178.4670  143.0170 C   0  0  0  0  0  2  0  0  0  0  0  0
  184.1850  178.7950  141.7250 C   0  0  0  0  0  2  0  0  0  0  0  0
  185.1560  178.7920  140.5550 C   0  0  0  0  0  2  0  0  0  0  0  0
  186.2370  179.1610  137.7220 O   0  0  0  0  0  0  0  0  0  0  0  0
  184.4020  178.8260  139.2350 C   0  0  1  0  0  3  0  0  0  0  0  0
  185.3060  178.4030  138.1000 C   0  0  0  0  0  0  0  0  0  0  0  0
  184.0590  176.3500  137.7210 C   0  0  0  0  0  3  0  0  0  0  0  0
  183.0350  176.8090  138.6760 C   0  0  0  0  0  3  0  0  0  0  0  0
  183.1790  177.9520  139.3530 C   0  0  0  0  0  3  0  0  0  0  0  0
  185.1230  177.1010  137.4410 C   0  0  0  0  0  3  0  0  0  0  0  0
  1  7  1  0  0  0  0
  1 23  1  6  0  0  0
  2 10  1  6  0  0  0
  4 24  1  6  0  0  0
  4 13  1  0  0  0  0
  5  7  1  0  0  0  0
  5  2  1  0  0  0  0
  6 10  1  0  0  0  0
  7  3  1  6  0  0  0
  7  2  1  0  0  0  0
  8 14  1  0  0  0  0
  9  1  1  0  0  0  0
 11  4  1  0  0  0  0
 12 17  1  6  0  0  0
 12 11  1  0  0  0  0
 12  8  1  0  0  0  0
 13  3  1  1  0  0  0
 13  6  1  0  0  0  0
 14  9  2  0  0  0  0
 15 19  1  0  0  0  0
 16 18  2  0  0  0  0
 16 15  1  0  0  0  0
 18 20  1  0  0  0  0
 19 17  2  0  0  0  0
 20 17  1  0  0  0  0
 21 15  2  0  0  0  0
 23 22  1  0  0  0  0
 24 25  1  0  0  0  0
 26 25  1  0  0  0  0
 27 26  1  0  0  0  0
 28 30  2  0  0  0  0
 29 33  1  0  0  0  0
 29 27  1  1  0  0  0
 30 29  1  0  0  0  0
 31 32  1  0  0  0  0
 32 33  2  0  0  0  0
 34 31  2  0  0  0  0
 34 30  1  0  0  0  0
M  END
>  <MODEL>
8

>  <REMARK>
 VINA RESULT:      -7.6      2.253      6.188
  Name = 
  7 active torsions:
  status: ('A' for Active; 'I' for Inactive)
    1  A    between atoms: C_1  and  O_19
    2  A    between atoms: C_3  and  C_13
    3  A    between atoms: C_3  and  C_17
    4  A    between atoms: C_5  and  C_18
    5  A    between atoms: C_12  and  C_28
    6  A    between atoms: C_17  and  C_29
    7  A    between atoms: C_18  and  C_29
                            x       y       z     vdW  Elec       q    Type
                         _______ _______ _______ _____ _____    ______ ____

>  <TORSDO>
F 7

$$$$
=
 OpenBabel10262423453D

 34 38  0  0  1  0  0  0  0  0999 V2000
  191.4690  177.3140  145.7910 C   0  0  2  0  0  3  0  0  0  0  0  0
  189.3110  176.6990  147.2840 C   0  0  1  0  0  3  0  0  0  0  0  0
  189.1310  178.4340  145.4280 C   0  0  0  0  0  2  0  0  0  0  0  0
  187.1770  178.4820  143.8520 C   0  0  2  0  0  3  0  0  0  0  0  0
  189.4280  176.0440  146.0430 O   0  0  0  0  0  0  0  0  0  0  0  0
  187.0060  177.7520  146.3760 C   0  0  0  0  0  2  0  0  0  0  0  0
  189.9610  177.3550  146.1070 C   0  0  1  0  0  0  0  0  0  0  0  0
  189.9420  176.6670  143.1300 C   0  0  0  0  0  2  0  0  0  0  0  0
  191.7970  177.8390  144.4000 C   0  0  0  0  0  3  0  0  0  0  0  0
  187.7970  177.0240  147.5070 C   0  0  0  0  0  2  0  0  0  0  0  0
  188.2020  178.5740  142.6980 C   0  0  0  0  0  2  0  0  0  0  0  0
  188.8060  177.2260  142.2430 C   0  0  1  0  0  3  0  0  0  0  0  0
  187.8040  177.8250  145.0810 C   0  0  2  0  0  3  0  0  0  0  0  0
  191.1440  177.5690  143.2480 C   0  0  0  0  0  3  0  0  0  0  0  0
  190.5790  176.5610  138.9190 C   0  0  0  0  0  0  0  0  0  0  0  0
  189.7600  177.3250  137.9750 C   0  0  0  0  0  3  0  0  0  0  0  0
  189.1630  177.2370  140.7870 C   0  0  0  0  0  0  0  0  0  0  0  0
  188.7110  178.0230  138.4080 C   0  0  0  0  0  3  0  0  0  0  0  0
  190.2210  176.5470  140.3400 C   0  0  0  0  0  3  0  0  0  0  0  0
  188.3140  178.0830  139.8650 C   0  0  0  0  0  2  0  0  0  0  0  0
  191.5790  175.9150  138.5120 O   0  0  0  0  0  0  0  0  0  0  0  0
  192.4280  175.9980  147.2940 C   0  0  0  0  0  1  0  0  0  0  0  0
  192.0110  176.0360  145.9630 O   0  0  0  0  0  0  0  0  0  0  0  0
  185.9470  177.7170  143.3850 C   0  0  0  0  0  2  0  0  0  0  0  0
  184.6830  178.3840  143.9000 C   0  0  0  0  0  2  0  0  0  0  0  0
  183.8600  178.9240  142.7440 C   0  0  0  0  0  2  0  0  0  0  0  0
  184.1070  178.1030  141.4890 C   0  0  0  0  0  2  0  0  0  0  0  0
  183.8200  176.9790  138.6630 O   0  0  0  0  0  0  0  0  0  0  0  0
  183.0620  178.4180  140.4300 C   0  0  1  0  0  3  0  0  0  0  0  0
  182.9040  177.2520  139.4810 C   0  0  0  0  0  0  0  0  0  0  0  0
  180.6520  176.7710  140.2680 C   0  0  0  0  0  3  0  0  0  0  0  0
  180.6760  178.0130  141.0600 C   0  0  0  0  0  3  0  0  0  0  0  0
  181.7700  178.7790  141.1190 C   0  0  0  0  0  3  0  0  0  0  0  0
  181.6950  176.4150  139.5170 C   0  0  0  0  0  3  0  0  0  0  0  0
  1 23  1  6  0  0  0
  1  7  1  0  0  0  0
  2 10  1  6  0  0  0
  4 24  1  6  0  0  0
  4 13  1  0  0  0  0
  5  7  1  0  0  0  0
  5  2  1  0  0  0  0
  6 10  1  0  0  0  0
  7  3  1  6  0  0  0
  7  2  1  0  0  0  0
  8 14  1  0  0  0  0
  9  1  1  0  0  0  0
 11  4  1  0  0  0  0
 12 17  1  6  0  0  0
 12 11  1  0  0  0  0
 12  8  1  0  0  0  0
 13  3  1  1  0  0  0
 13  6  1  0  0  0  0
 14  9  2  0  0  0  0
 15 19  1  0  0  0  0
 16 18  2  0  0  0  0
 16 15  1  0  0  0  0
 18 20  1  0  0  0  0
 19 17  2  0  0  0  0
 20 17  1  0  0  0  0
 21 15  2  0  0  0  0
 23 22  1  0  0  0  0
 24 25  1  0  0  0  0
 26 25  1  0  0  0  0
 27 26  1  0  0  0  0
 28 30  2  0  0  0  0
 29 33  1  0  0  0  0
 29 27  1  1  0  0  0
 30 34  1  0  0  0  0
 30 29  1  0  0  0  0
 31 32  1  0  0  0  0
 32 33  2  0  0  0  0
 34 31  2  0  0  0  0
M  END
>  <MODEL>
9

>  <REMARK>
 VINA RESULT:      -7.5      1.847      6.764
  Name = 
  7 active torsions:
  status: ('A' for Active; 'I' for Inactive)
    1  A    between atoms: C_1  and  O_19
    2  A    between atoms: C_3  and  C_13
    3  A    between atoms: C_3  and  C_17
    4  A    between atoms: C_5  and  C_18
    5  A    between atoms: C_12  and  C_28
    6  A    between atoms: C_17  and  C_29
    7  A    between atoms: C_18  and  C_29
                            x       y       z     vdW  Elec       q    Type
                         _______ _______ _______ _____ _____    ______ ____

>  <TORSDO>
F 7

$$$$
