=
 OpenBabel10272413213D

 32 37  0  0  1  0  0  0  0  0999 V2000
  188.1030  176.7770  136.8470 C   0  0  0  0  0  3  0  0  0  0  0  0
  188.5540  177.8200  141.9340 C   0  0  0  0  0  0  0  0  0  0  0  0
  183.7420  178.8610  142.7120 C   0  0  0  0  0  3  0  0  0  0  0  0
  183.9590  178.6750  144.0110 C   0  0  0  0  0  3  0  0  0  0  0  0
  190.0620  177.4180  143.9230 N   0  0  0  0  0  0  0  0  0  0  0  0
  190.1010  177.1880  145.3310 C   0  0  0  0  0  0  0  0  0  0  0  0
  189.3850  177.9420  139.5450 C   0  0  2  0  0  3  0  0  0  0  0  0
  187.1040  178.3820  139.9410 C   0  0  0  0  0  2  0  0  0  0  0  0
  189.2700  177.1160  147.3710 N   0  0  0  0  0  0  0  0  0  0  0  0
  187.8020  177.9320  137.7630 C   0  0  0  0  0  2  0  0  0  0  0  0
  184.8440  178.7390  141.6990 C   0  0  0  0  0  2  0  0  0  0  0  0
  187.2780  178.1460  141.4230 C   0  0  0  0  0  0  0  0  0  0  0  0
  186.1880  178.3480  142.2860 C   0  0  0  0  0  0  0  0  0  0  0  0
  187.6150  177.8450  144.2090 C   0  0  0  0  0  0  0  0  0  0  0  0
  190.5990  176.8720  147.4450 C   0  0  0  0  0  3  0  0  0  0  0  0
  190.1090  175.9620  138.1410 C   0  0  0  0  0  2  0  0  0  0  0  0
  188.0190  177.5620  139.1560 N   0  0  1  0  0  0  0  0  0  0  0  0
  191.1700  176.9140  146.1660 C   0  0  0  0  0  3  0  0  0  0  0  0
  190.4570  177.3730  138.6030 C   0  0  0  0  0  2  0  0  0  0  0  0
  189.1570  175.9480  136.9680 C   0  0  0  0  0  0  0  0  0  0  0  0
  185.3000  178.3330  144.5010 C   0  0  0  0  0  3  0  0  0  0  0  0
  186.3510  178.1790  143.6780 C   0  0  0  0  0  0  0  0  0  0  0  0
  187.7350  177.6610  145.5040 N   0  0  0  0  0  0  0  0  0  0  0  0
  189.6530  177.4550  140.9650 C   0  0  0  0  0  2  0  0  0  0  0  0
  191.3280  177.5910  143.2220 C   0  0  0  0  0  1  0  0  0  0  0  0
  188.3420  177.1820  148.4850 C   0  0  0  0  0  1  0  0  0  0  0  0
  188.7510  177.7010  143.3360 C   0  0  0  0  0  0  0  0  0  0  0  0
  188.9910  177.3060  146.0780 C   0  0  0  0  0  0  0  0  0  0  0  0
  189.3270  174.8730  135.9430 C   0  0  0  0  0  2  0  0  0  0  0  0
  189.7860  173.5730  136.5850 C   0  0  2  0  0  3  0  0  0  0  0  0
  190.6020  172.8330  135.6400 N   0  0  0  0  0  1  0  0  0  0  0  0
  188.6800  172.8020  136.9430 O   0  0  0  0  0  1  0  0  0  0  0  0
  1 20  2  0  0  0  0
  1 10  1  0  0  0  0
  2 27  2  0  0  0  0
  3  4  2  0  0  0  0
  4 21  1  0  0  0  0
  5  6  1  0  0  0  0
  6 28  2  0  0  0  0
  6 18  1  0  0  0  0
  7 19  1  6  0  0  0
  7 24  1  0  0  0  0
  8 12  1  0  0  0  0
  9 15  1  0  0  0  0
  9 26  1  0  0  0  0
 11 13  1  0  0  0  0
 11  3  1  0  0  0  0
 12  2  1  0  0  0  0
 12 13  2  0  0  0  0
 13 22  1  0  0  0  0
 14 23  2  0  0  0  0
 16 19  1  0  0  0  0
 17 10  1  6  0  0  0
 17  7  1  0  0  0  0
 17  8  1  0  0  0  0
 18 15  2  0  0  0  0
 20 16  1  0  0  0  0
 22 14  1  0  0  0  0
 22 21  2  0  0  0  0
 23 28  1  0  0  0  0
 24  2  1  0  0  0  0
 25  5  1  0  0  0  0
 27  5  1  0  0  0  0
 27 14  1  0  0  0  0
 28  9  1  0  0  0  0
 29 30  1  0  0  0  0
 29 20  1  0  0  0  0
 30 31  1  6  0  0  0
 30 32  1  0  0  0  0
M  END
>  <MODEL>
1

>  <REMARK>
 VINA RESULT:     -10.3      0.000      0.000
  Name = 
  2 active torsions:
  status: ('A' for Active; 'I' for Inactive)
    1  A    between atoms: C_1  and  C_10
    2  A    between atoms: C_10  and  C_24
                            x       y       z     vdW  Elec       q    Type
                         _______ _______ _______ _____ _____    ______ ____

>  <TORSDO>
F 2

$$$$
=
 OpenBabel10272413213D

 32 37  0  0  1  0  0  0  0  0999 V2000
  186.5510  177.3720  137.0700 C   0  0  0  0  0  3  0  0  0  0  0  0
  187.5970  178.1590  142.1160 C   0  0  0  0  0  0  0  0  0  0  0  0
  182.9010  179.0680  143.5170 C   0  0  0  0  0  3  0  0  0  0  0  0
  183.2750  178.8200  144.7680 C   0  0  0  0  0  3  0  0  0  0  0  0
  189.3380  177.6830  143.8860 N   0  0  0  0  0  0  0  0  0  0  0  0
  189.5480  177.3820  145.2650 C   0  0  0  0  0  0  0  0  0  0  0  0
  188.1330  178.4200  139.6540 C   0  0  2  0  0  3  0  0  0  0  0  0
  185.9120  178.7960  140.3430 C   0  0  0  0  0  2  0  0  0  0  0  0
  188.9700  177.1900  147.3820 N   0  0  0  0  0  0  0  0  0  0  0  0
  186.3480  178.4720  138.0760 C   0  0  0  0  0  2  0  0  0  0  0  0
  183.8750  179.0200  142.3740 C   0  0  0  0  0  2  0  0  0  0  0  0
  186.2650  178.4880  141.7780 C   0  0  0  0  0  0  0  0  0  0  0  0
  185.2850  178.6240  142.7750 C   0  0  0  0  0  0  0  0  0  0  0  0
  186.9380  178.0500  144.4840 C   0  0  0  0  0  0  0  0  0  0  0  0
  190.3000  176.9660  147.2850 C   0  0  0  0  0  3  0  0  0  0  0  0
  188.7080  176.5290  138.0700 C   0  0  0  0  0  2  0  0  0  0  0  0
  186.7350  178.0350  139.4110 N   0  0  1  0  0  0  0  0  0  0  0  0
  190.7140  177.0860  145.9500 C   0  0  0  0  0  3  0  0  0  0  0  0
  189.0920  177.9200  138.5620 C   0  0  0  0  0  2  0  0  0  0  0  0
  187.6230  176.5570  137.0190 C   0  0  0  0  0  0  0  0  0  0  0  0
  184.6690  178.4790  145.0760 C   0  0  0  0  0  3  0  0  0  0  0  0
  185.6160  178.3860  144.1270 C   0  0  0  0  0  0  0  0  0  0  0  0
  187.2150  177.8010  145.7440 N   0  0  0  0  0  0  0  0  0  0  0  0
  188.5770  177.8650  141.0040 C   0  0  0  0  0  2  0  0  0  0  0  0
  190.5090  177.9160  143.0490 C   0  0  0  0  0  1  0  0  0  0  0  0
  188.1820  177.1800  148.6020 C   0  0  0  0  0  1  0  0  0  0  0  0
  187.9620  177.9710  143.4750 C   0  0  0  0  0  0  0  0  0  0  0  0
  188.5350  177.4410  146.1440 C   0  0  0  0  0  0  0  0  0  0  0  0
  187.6810  175.5400  135.9260 C   0  0  0  0  0  2  0  0  0  0  0  0
  187.7770  174.1320  136.4940 C   0  0  2  0  0  3  0  0  0  0  0  0
  187.9620  173.1880  135.4070 N   0  0  0  0  0  1  0  0  0  0  0  0
  186.6070  173.8160  137.1850 O   0  0  0  0  0  1  0  0  0  0  0  0
  1 10  1  0  0  0  0
  2 27  2  0  0  0  0
  3  4  2  0  0  0  0
  4 21  1  0  0  0  0
  5  6  1  0  0  0  0
  6 18  1  0  0  0  0
  6 28  2  0  0  0  0
  7 19  1  6  0  0  0
  7 24  1  0  0  0  0
  8 12  1  0  0  0  0
  9 26  1  0  0  0  0
 11 13  1  0  0  0  0
 11  3  1  0  0  0  0
 12  2  1  0  0  0  0
 12 13  2  0  0  0  0
 13 22  1  0  0  0  0
 14 23  2  0  0  0  0
 15  9  1  0  0  0  0
 16 19  1  0  0  0  0
 17 10  1  6  0  0  0
 17  7  1  0  0  0  0
 17  8  1  0  0  0  0
 18 15  2  0  0  0  0
 20  1  2  0  0  0  0
 20 16  1  0  0  0  0
 22 14  1  0  0  0  0
 22 21  2  0  0  0  0
 23 28  1  0  0  0  0
 24  2  1  0  0  0  0
 25  5  1  0  0  0  0
 27  5  1  0  0  0  0
 27 14  1  0  0  0  0
 28  9  1  0  0  0  0
 29 30  1  0  0  0  0
 29 20  1  0  0  0  0
 30 31  1  6  0  0  0
 30 32  1  0  0  0  0
M  END
>  <MODEL>
2

>  <REMARK>
 VINA RESULT:     -10.2      1.170      1.280
  Name = 
  2 active torsions:
  status: ('A' for Active; 'I' for Inactive)
    1  A    between atoms: C_1  and  C_10
    2  A    between atoms: C_10  and  C_24
                            x       y       z     vdW  Elec       q    Type
                         _______ _______ _______ _____ _____    ______ ____

>  <TORSDO>
F 2

$$$$
=
 OpenBabel10272413213D

 32 37  0  0  1  0  0  0  0  0999 V2000
  181.3860  178.0850  139.7770 C   0  0  0  0  0  3  0  0  0  0  0  0
  186.0960  178.3630  141.9940 C   0  0  0  0  0  0  0  0  0  0  0  0
  184.4820  178.4160  146.7100 C   0  0  0  0  0  3  0  0  0  0  0  0
  185.7090  178.0660  147.0850 C   0  0  0  0  0  3  0  0  0  0  0  0
  188.5410  177.9160  141.5360 N   0  0  0  0  0  0  0  0  0  0  0  0
  189.7730  177.4730  142.1050 C   0  0  0  0  0  0  0  0  0  0  0  0
  184.4270  179.0080  140.2010 C   0  0  2  0  0  3  0  0  0  0  0  0
  183.6840  178.9770  142.4370 C   0  0  0  0  0  2  0  0  0  0  0  0
  191.1400  176.9330  143.7460 N   0  0  0  0  0  0  0  0  0  0  0  0
  182.1020  179.0090  140.7250 C   0  0  0  0  0  2  0  0  0  0  0  0
  184.1310  178.6510  145.2690 C   0  0  0  0  0  3  0  0  0  0  0  0
  185.0460  178.5410  142.9230 C   0  0  0  0  0  0  0  0  0  0  0  0
  185.2770  178.4100  144.3020 C   0  0  0  0  0  0  0  0  0  0  0  0
  187.6200  177.8610  143.8600 C   0  0  0  0  0  0  0  0  0  0  0  0
  191.8400  176.9140  142.5890 C   0  0  0  0  0  3  0  0  0  0  0  0
  183.4460  177.4340  138.4760 C   0  0  0  0  0  2  0  0  0  0  0  0
  183.4000  178.4640  141.1020 N   0  0  1  0  0  0  0  0  0  0  0  0
  191.0070  177.2590  141.5150 C   0  0  0  0  0  3  0  0  0  0  0  0
  184.0980  178.7910  138.7160 C   0  0  0  0  0  2  0  0  0  0  0  0
  181.9590  177.4430  138.7410 C   0  0  0  0  0  0  0  0  0  0  0  0
  186.7710  177.8870  146.0880 C   0  0  0  0  0  3  0  0  0  0  0  0
  186.5590  178.0510  144.7710 C   0  0  2  0  0  3  0  0  0  0  0  0
  188.7960  177.4950  144.3170 N   0  0  0  0  0  0  0  0  0  0  0  0
  185.7670  178.3540  140.5200 C   0  0  0  0  0  2  0  0  0  0  0  0
  188.5590  178.4160  140.1670 C   0  0  0  0  0  1  0  0  0  0  0  0
  191.6620  176.6580  145.0730 C   0  0  0  0  0  1  0  0  0  0  0  0
  187.4050  178.0570  142.4500 C   0  0  0  0  0  0  0  0  0  0  0  0
  189.8880  177.2760  143.4280 C   0  0  0  0  0  0  0  0  0  0  0  0
  181.0890  176.5920  137.8740 C   0  0  0  0  0  2  0  0  0  0  0  0
  181.2880  175.1160  138.1810 C   0  0  2  0  0  3  0  0  0  0  0  0
  181.4240  174.3800  136.9370 N   0  0  0  0  0  1  0  0  0  0  0  0
  180.1930  174.6240  138.8900 O   0  0  0  0  0  1  0  0  0  0  0  0
  1 10  1  0  0  0  0
  2 27  2  0  0  0  0
  2 12  1  0  0  0  0
  3  4  1  0  0  0  0
  5  6  1  0  0  0  0
  5 27  1  0  0  0  0
  6 28  2  0  0  0  0
  7 19  1  6  0  0  0
  7 24  1  0  0  0  0
  7 17  1  0  0  0  0
  8 12  1  0  0  0  0
  9 26  1  0  0  0  0
 11  3  2  0  0  0  0
 12 13  2  0  0  0  0
 13 22  1  0  0  0  0
 13 11  1  0  0  0  0
 14 23  2  0  0  0  0
 14 22  1  0  0  0  0
 15  9  1  0  0  0  0
 16 19  1  0  0  0  0
 16 20  1  0  0  0  0
 17 10  1  6  0  0  0
 17  8  1  0  0  0  0
 18  6  1  0  0  0  0
 18 15  2  0  0  0  0
 20  1  2  0  0  0  0
 21  4  2  0  0  0  0
 22 21  1  6  0  0  0
 24  2  1  0  0  0  0
 25  5  1  0  0  0  0
 27 14  1  0  0  0  0
 28  9  1  0  0  0  0
 28 23  1  0  0  0  0
 29 30  1  0  0  0  0
 29 20  1  0  0  0  0
 30 31  1  6  0  0  0
 30 32  1  0  0  0  0
M  END
>  <MODEL>
3

>  <REMARK>
 VINA RESULT:      -9.6      3.279      5.165
  Name = 
  2 active torsions:
  status: ('A' for Active; 'I' for Inactive)
    1  A    between atoms: C_1  and  C_10
    2  A    between atoms: C_10  and  C_24
                            x       y       z     vdW  Elec       q    Type
                         _______ _______ _______ _____ _____    ______ ____

>  <TORSDO>
F 2

$$$$
=
 OpenBabel10272413213D

 32 37  0  0  1  0  0  0  0  0999 V2000
  191.9820  176.6730  143.3180 C   0  0  0  0  0  3  0  0  0  0  0  0
  187.9140  178.1870  140.4300 C   0  0  0  0  0  0  0  0  0  0  0  0
  189.7280  176.6200  136.0600 C   0  0  0  0  0  3  0  0  0  0  0  0
  188.4900  176.6760  135.5780 C   0  0  0  0  0  3  0  0  0  0  0  0
  185.4640  178.7850  140.6020 N   0  0  0  0  0  0  0  0  0  0  0  0
  184.1980  178.7180  139.9460 C   0  0  0  0  0  0  0  0  0  0  0  0
  189.5790  178.5390  142.3060 C   0  0  2  0  0  3  0  0  0  0  0  0
  190.3970  177.7540  140.2410 C   0  0  0  0  0  2  0  0  0  0  0  0
  182.8410  178.3810  138.2440 N   0  0  0  0  0  0  0  0  0  0  0  0
  191.7490  177.5670  142.1310 C   0  0  0  0  0  2  0  0  0  0  0  0
  190.0470  177.0130  137.4740 C   0  0  0  0  0  2  0  0  0  0  0  0
  189.0090  177.7580  139.6460 C   0  0  0  0  0  0  0  0  0  0  0  0
  188.8370  177.4280  138.2920 C   0  0  0  0  0  0  0  0  0  0  0  0
  186.4420  177.8930  138.4800 C   0  0  0  0  0  0  0  0  0  0  0  0
  182.1140  178.8720  139.2740 C   0  0  0  0  0  3  0  0  0  0  0  0
  189.7500  177.1270  144.4020 C   0  0  0  0  0  2  0  0  0  0  0  0
  190.3690  177.4740  141.6710 N   0  0  1  0  0  0  0  0  0  0  0  0
  182.9420  179.1080  140.3800 C   0  0  0  0  0  3  0  0  0  0  0  0
  189.6980  178.5420  143.8380 C   0  0  0  0  0  2  0  0  0  0  0  0
  191.1360  176.5270  144.3560 C   0  0  0  0  0  0  0  0  0  0  0  0
  187.3790  177.1220  136.4280 C   0  0  0  0  0  3  0  0  0  0  0  0
  187.5500  177.4760  137.7130 C   0  0  0  0  0  0  0  0  0  0  0  0
  185.2500  177.8990  137.9290 N   0  0  0  0  0  0  0  0  0  0  0  0
  188.1140  178.3750  141.9160 C   0  0  0  0  0  2  0  0  0  0  0  0
  185.5530  179.5380  141.8460 C   0  0  0  0  0  1  0  0  0  0  0  0
  182.3420  178.0390  136.9240 C   0  0  0  0  0  1  0  0  0  0  0  0
  186.6230  178.2950  139.8510 C   0  0  0  0  0  0  0  0  0  0  0  0
  184.1030  178.2970  138.6750 C   0  0  0  0  0  0  0  0  0  0  0  0
  191.5440  175.6230  145.4740 C   0  0  0  0  0  2  0  0  0  0  0  0
  191.7210  176.4010  146.7690 C   0  0  2  0  0  3  0  0  0  0  0  0
  192.7320  175.7520  147.5840 N   0  0  0  0  0  1  0  0  0  0  0  0
  190.5160  176.4380  147.4710 O   0  0  0  0  0  1  0  0  0  0  0  0
  1 20  2  0  0  0  0
  2 24  1  0  0  0  0
  3 11  1  0  0  0  0
  4  3  2  0  0  0  0
  4 21  1  0  0  0  0
  5 25  1  0  0  0  0
  6 18  1  0  0  0  0
  6  5  1  0  0  0  0
  7 24  1  1  0  0  0
  7 19  1  0  0  0  0
  9 28  1  0  0  0  0
  9 15  1  0  0  0  0
 10  1  1  0  0  0  0
 11 13  1  0  0  0  0
 12  8  1  0  0  0  0
 12  2  1  0  0  0  0
 13 12  2  0  0  0  0
 14 27  1  0  0  0  0
 15 18  2  0  0  0  0
 17  8  1  6  0  0  0
 17 10  1  0  0  0  0
 17  7  1  0  0  0  0
 19 16  1  0  0  0  0
 20 16  1  0  0  0  0
 20 29  1  0  0  0  0
 21 22  2  0  0  0  0
 22 13  1  0  0  0  0
 22 14  1  0  0  0  0
 23 14  2  0  0  0  0
 23 28  1  0  0  0  0
 26  9  1  0  0  0  0
 27  2  2  0  0  0  0
 27  5  1  0  0  0  0
 28  6  2  0  0  0  0
 29 30  1  0  0  0  0
 30 32  1  1  0  0  0
 30 31  1  0  0  0  0
M  END
>  <MODEL>
4

>  <REMARK>
 VINA RESULT:      -8.0      3.150      7.906
  Name = 
  2 active torsions:
  status: ('A' for Active; 'I' for Inactive)
    1  A    between atoms: C_1  and  C_10
    2  A    between atoms: C_10  and  C_24
                            x       y       z     vdW  Elec       q    Type
                         _______ _______ _______ _____ _____    ______ ____

>  <TORSDO>
F 2

$$$$
=
 OpenBabel10272413213D

 32 37  0  0  1  0  0  0  0  0999 V2000
  191.6130  177.3470  144.6850 C   0  0  0  0  0  3  0  0  0  0  0  0
  189.4240  177.5110  139.9560 C   0  0  0  0  0  0  0  0  0  0  0  0
  193.4280  175.9330  137.4410 C   0  0  0  0  0  3  0  0  0  0  0  0
  192.6180  175.6380  136.4290 C   0  0  0  0  0  3  0  0  0  0  0  0
  187.1740  177.5240  138.8030 N   0  0  0  0  0  0  0  0  0  0  0  0
  186.4480  177.0840  137.6560 C   0  0  0  0  0  0  0  0  0  0  0  0
  189.8210  178.4610  142.2700 C   0  0  2  0  0  3  0  0  0  0  0  0
  191.6870  177.6630  141.0730 C   0  0  0  0  0  2  0  0  0  0  0  0
  186.2210  176.2420  135.6330 N   0  0  0  0  0  0  0  0  0  0  0  0
  191.8900  178.0190  143.3680 C   0  0  0  0  0  2  0  0  0  0  0  0
  192.9160  176.5500  138.7120 C   0  0  0  0  0  3  0  0  0  0  0  0
  190.8150  177.2690  139.9040 C   0  0  0  0  0  0  0  0  0  0  0  0
  191.4120  176.7550  138.7410 C   0  0  0  0  0  0  0  0  0  0  0  0
  189.2200  176.6550  137.6580 C   0  0  0  0  0  0  0  0  0  0  0  0
  185.0060  176.6600  136.0560 C   0  0  0  0  0  3  0  0  0  0  0  0
  189.1020  177.3770  144.4440 C   0  0  0  0  0  2  0  0  0  0  0  0
  190.9720  177.5480  142.3390 N   0  0  1  0  0  0  0  0  0  0  0  0
  185.1060  177.2110  137.3420 C   0  0  0  0  0  3  0  0  0  0  0  0
  189.1370  178.6660  143.6310 C   0  0  0  0  0  2  0  0  0  0  0  0
  190.3870  177.1240  145.1970 C   0  0  0  0  0  0  0  0  0  0  0  0
  191.1770  175.9010  136.5250 C   0  0  0  0  0  3  0  0  0  0  0  0
  190.6120  176.4290  137.6240 C   0  0  2  0  0  3  0  0  0  0  0  0
  188.4920  176.3140  136.6190 N   0  0  0  0  0  0  0  0  0  0  0  0
  188.8050  177.9090  141.2760 C   0  0  0  0  0  2  0  0  0  0  0  0
  186.5010  178.4140  139.7410 C   0  0  0  0  0  1  0  0  0  0  0  0
  186.5250  175.6430  134.3460 C   0  0  0  0  0  1  0  0  0  0  0  0
  188.6110  177.2420  138.8230 C   0  0  0  0  0  0  0  0  0  0  0  0
  187.0810  176.5100  136.6200 C   0  0  0  0  0  0  0  0  0  0  0  0
  190.2940  176.4760  146.5410 C   0  0  0  0  0  2  0  0  0  0  0  0
  191.6610  176.3860  147.2000 C   0  0  2  0  0  3  0  0  0  0  0  0
  191.8610  175.0430  147.7110 N   0  0  0  0  0  1  0  0  0  0  0  0
  191.7430  177.2970  148.2540 O   0  0  0  0  0  1  0  0  0  0  0  0
  1 20  2  0  0  0  0
  2 24  1  0  0  0  0
  3 11  2  0  0  0  0
  4 21  2  0  0  0  0
  4  3  1  0  0  0  0
  5 27  1  0  0  0  0
  5 25  1  0  0  0  0
  6  5  1  0  0  0  0
  7 24  1  6  0  0  0
  7 17  1  0  0  0  0
  7 19  1  0  0  0  0
  9 15  1  0  0  0  0
  9 28  1  0  0  0  0
 10  1  1  0  0  0  0
 11 13  1  0  0  0  0
 12  2  1  0  0  0  0
 12  8  1  0  0  0  0
 13 12  2  0  0  0  0
 14 27  1  0  0  0  0
 15 18  2  0  0  0  0
 16 20  1  0  0  0  0
 17  8  1  6  0  0  0
 17 10  1  0  0  0  0
 18  6  1  0  0  0  0
 19 16  1  0  0  0  0
 20 29  1  0  0  0  0
 22 21  1  1  0  0  0
 22 14  1  0  0  0  0
 22 13  1  0  0  0  0
 23 28  1  0  0  0  0
 23 14  2  0  0  0  0
 26  9  1  0  0  0  0
 27  2  2  0  0  0  0
 28  6  2  0  0  0  0
 29 30  1  0  0  0  0
 30 31  1  1  0  0  0
 30 32  1  0  0  0  0
M  END
>  <MODEL>
5

>  <REMARK>
 VINA RESULT:      -7.9      3.208      8.758
  Name = 
  2 active torsions:
  status: ('A' for Active; 'I' for Inactive)
    1  A    between atoms: C_1  and  C_10
    2  A    between atoms: C_10  and  C_24
                            x       y       z     vdW  Elec       q    Type
                         _______ _______ _______ _____ _____    ______ ____

>  <TORSDO>
F 2

$$$$
=
 OpenBabel10272413213D

 32 37  0  0  1  0  0  0  0  0999 V2000
  191.6920  176.5860  145.5480 C   0  0  0  0  0  3  0  0  0  0  0  0
  187.2650  178.3580  143.4420 C   0  0  0  0  0  0  0  0  0  0  0  0
  188.7250  177.9810  138.6910 C   0  0  0  0  0  3  0  0  0  0  0  0
  187.4440  178.0380  138.3410 C   0  0  0  0  0  3  0  0  0  0  0  0
  184.8110  178.6900  143.9520 N   0  0  0  0  0  0  0  0  0  0  0  0
  183.4920  178.6640  143.4070 C   0  0  0  0  0  0  0  0  0  0  0  0
  189.0850  178.4200  145.2030 C   0  0  2  0  0  3  0  0  0  0  0  0
  189.7390  178.1940  142.9510 C   0  0  0  0  0  2  0  0  0  0  0  0
  181.9950  178.6060  141.7920 N   0  0  0  0  0  0  0  0  0  0  0  0
  191.2830  177.7020  144.6260 C   0  0  0  0  0  2  0  0  0  0  0  0
  189.1590  178.0710  140.1270 C   0  0  0  0  0  2  0  0  0  0  0  0
  188.3000  178.2140  142.4920 C   0  0  0  0  0  0  0  0  0  0  0  0
  188.0140  178.1840  141.1170 C   0  0  0  0  0  0  0  0  0  0  0  0
  185.6260  178.3880  141.6070 C   0  0  0  0  0  0  0  0  0  0  0  0
  181.3460  178.7880  142.9650 C   0  0  0  0  0  3  0  0  0  0  0  0
  189.5560  176.5900  146.8900 C   0  0  0  0  0  2  0  0  0  0  0  0
  189.8730  177.5970  144.2730 N   0  0  1  0  0  0  0  0  0  0  0  0
  182.2650  178.8370  144.0230 C   0  0  0  0  0  3  0  0  0  0  0  0
  189.3570  178.0870  146.6780 C   0  0  0  0  0  2  0  0  0  0  0  0
  190.9660  176.1380  146.5910 C   0  0  0  0  0  0  0  0  0  0  0  0
  186.3980  178.1840  139.3610 C   0  0  0  0  0  3  0  0  0  0  0  0
  186.6750  178.2520  140.6740 C   0  0  0  0  0  0  0  0  0  0  0  0
  184.3860  178.4160  141.1740 N   0  0  0  0  0  0  0  0  0  0  0  0
  187.6020  178.2230  144.9090 C   0  0  0  0  0  2  0  0  0  0  0  0
  184.9770  179.1480  145.3260 C   0  0  0  0  0  1  0  0  0  0  0  0
  181.3880  178.5290  140.4750 C   0  0  0  0  0  1  0  0  0  0  0  0
  185.9170  178.4840  143.0140 C   0  0  0  0  0  0  0  0  0  0  0  0
  183.2960  178.5350  142.0850 C   0  0  0  0  0  0  0  0  0  0  0  0
  191.5420  175.0430  147.4290 C   0  0  0  0  0  2  0  0  0  0  0  0
  192.5930  175.5830  148.3860 C   0  0  2  0  0  3  0  0  0  0  0  0
  192.3540  176.9960  148.6160 N   0  0  0  0  0  1  0  0  0  0  0  0
  193.8660  175.4130  147.8400 O   0  0  0  0  0  1  0  0  0  0  0  0
  1 20  2  0  0  0  0
  2 24  1  0  0  0  0
  3 11  1  0  0  0  0
  4  3  2  0  0  0  0
  4 21  1  0  0  0  0
  5 25  1  0  0  0  0
  6  5  1  0  0  0  0
  6 18  1  0  0  0  0
  7 24  1  6  0  0  0
  7 19  1  0  0  0  0
  9 28  1  0  0  0  0
  9 15  1  0  0  0  0
 10  1  1  0  0  0  0
 11 13  1  0  0  0  0
 12  8  1  0  0  0  0
 12  2  1  0  0  0  0
 13 12  2  0  0  0  0
 14 27  1  0  0  0  0
 15 18  2  0  0  0  0
 17  8  1  6  0  0  0
 17 10  1  0  0  0  0
 17  7  1  0  0  0  0
 19 16  1  0  0  0  0
 20 16  1  0  0  0  0
 20 29  1  0  0  0  0
 21 22  2  0  0  0  0
 22 13  1  0  0  0  0
 22 14  1  0  0  0  0
 23 14  2  0  0  0  0
 23 28  1  0  0  0  0
 26  9  1  0  0  0  0
 27  2  2  0  0  0  0
 27  5  1  0  0  0  0
 28  6  2  0  0  0  0
 29 30  1  0  0  0  0
 30 32  1  6  0  0  0
 30 31  1  0  0  0  0
M  END
>  <MODEL>
6

>  <REMARK>
 VINA RESULT:      -7.8      3.404      7.696
  Name = 
  2 active torsions:
  status: ('A' for Active; 'I' for Inactive)
    1  A    between atoms: C_1  and  C_10
    2  A    between atoms: C_10  and  C_24
                            x       y       z     vdW  Elec       q    Type
                         _______ _______ _______ _____ _____    ______ ____

>  <TORSDO>
F 2

$$$$
=
 OpenBabel10272413213D

 32 37  0  0  1  0  0  0  0  0999 V2000
  182.8300  178.4960  141.9210 C   0  0  0  0  0  3  0  0  0  0  0  0
  187.7100  178.0140  140.1520 C   0  0  0  0  0  0  0  0  0  0  0  0
  189.8110  177.0900  144.5770 C   0  0  0  0  0  3  0  0  0  0  0  0
  190.8600  176.6000  143.9240 C   0  0  0  0  0  3  0  0  0  0  0  0
  189.0270  177.5510  138.0450 N   0  0  0  0  0  0  0  0  0  0  0  0
  190.1940  176.9260  137.5120 C   0  0  0  0  0  0  0  0  0  0  0  0
  185.4380  179.1350  140.1690 C   0  0  2  0  0  3  0  0  0  0  0  0
  186.4390  178.6410  142.2450 C   0  0  0  0  0  2  0  0  0  0  0  0
  192.1710  175.9580  137.6160 N   0  0  0  0  0  0  0  0  0  0  0  0
  184.1630  179.1420  142.1830 C   0  0  0  0  0  2  0  0  0  0  0  0
  188.6240  177.6620  143.8540 C   0  0  0  0  0  3  0  0  0  0  0  0
  187.6420  178.0340  141.5630 C   0  0  0  0  0  0  0  0  0  0  0  0
  188.7210  177.5840  142.3410 C   0  0  0  0  0  0  0  0  0  0  0  0
  189.9580  177.0240  140.3050 C   0  0  0  0  0  0  0  0  0  0  0  0
  191.8670  176.1630  136.3130 C   0  0  0  0  0  3  0  0  0  0  0  0
  183.2590  178.0440  139.4770 C   0  0  0  0  0  2  0  0  0  0  0  0
  185.2250  178.4580  141.4570 N   0  0  1  0  0  0  0  0  0  0  0  0
  190.6160  176.7850  136.2010 C   0  0  0  0  0  3  0  0  0  0  0  0
  184.1490  179.2760  139.3450 C   0  0  0  0  0  2  0  0  0  0  0  0
  182.3980  178.0730  140.7170 C   0  0  0  0  0  0  0  0  0  0  0  0
  190.8900  176.5940  142.4560 C   0  0  0  0  0  3  0  0  0  0  0  0
  189.8720  177.0610  141.7130 C   0  0  2  0  0  3  0  0  0  0  0  0
  191.0240  176.5020  139.7430 N   0  0  0  0  0  0  0  0  0  0  0  0
  186.4690  178.3550  139.3600 C   0  0  0  0  0  2  0  0  0  0  0  0
  188.2020  178.3440  137.1430 C   0  0  0  0  0  1  0  0  0  0  0  0
  193.3900  175.3640  138.1330 C   0  0  0  0  0  1  0  0  0  0  0  0
  188.8810  177.5430  139.5020 C   0  0  0  0  0  0  0  0  0  0  0  0
  191.1410  176.4310  138.3240 C   0  0  0  0  0  0  0  0  0  0  0  0
  181.0260  177.4860  140.6290 C   0  0  0  0  0  2  0  0  0  0  0  0
  180.9630  176.3980  139.5680 C   0  0  2  0  0  3  0  0  0  0  0  0
  179.9820  176.7630  138.5630 N   0  0  0  0  0  1  0  0  0  0  0  0
  180.5980  175.1850  140.1510 O   0  0  0  0  0  1  0  0  0  0  0  0
  1 10  1  0  0  0  0
  2 12  1  0  0  0  0
  4  3  1  0  0  0  0
  5 27  1  0  0  0  0
  6  5  1  0  0  0  0
  6 28  2  0  0  0  0
  7 19  1  6  0  0  0
  7 17  1  0  0  0  0
  9 26  1  0  0  0  0
  9 28  1  0  0  0  0
 11  3  2  0  0  0  0
 12  8  1  0  0  0  0
 12 13  2  0  0  0  0
 13 11  1  0  0  0  0
 14 22  1  0  0  0  0
 15  9  1  0  0  0  0
 16 20  1  0  0  0  0
 17 10  1  1  0  0  0
 17  8  1  0  0  0  0
 18 15  2  0  0  0  0
 18  6  1  0  0  0  0
 19 16  1  0  0  0  0
 20  1  2  0  0  0  0
 21  4  2  0  0  0  0
 22 13  1  0  0  0  0
 22 21  1  6  0  0  0
 23 14  2  0  0  0  0
 24  2  1  0  0  0  0
 24  7  1  0  0  0  0
 25  5  1  0  0  0  0
 27  2  2  0  0  0  0
 27 14  1  0  0  0  0
 28 23  1  0  0  0  0
 29 20  1  0  0  0  0
 30 31  1  6  0  0  0
 30 32  1  0  0  0  0
 30 29  1  0  0  0  0
M  END
>  <MODEL>
7

>  <REMARK>
 VINA RESULT:      -7.8      2.985      7.188
  Name = 
  2 active torsions:
  status: ('A' for Active; 'I' for Inactive)
    1  A    between atoms: C_1  and  C_10
    2  A    between atoms: C_10  and  C_24
                            x       y       z     vdW  Elec       q    Type
                         _______ _______ _______ _____ _____    ______ ____

>  <TORSDO>
F 2

$$$$
=
 OpenBabel10272413213D

 32 37  0  0  1  0  0  0  0  0999 V2000
  181.4280  180.8720  137.3170 C   0  0  0  0  0  3  0  0  0  0  0  0
  184.0310  178.7770  141.3180 C   0  0  0  0  0  0  0  0  0  0  0  0
  188.3050  178.0290  138.8640 C   0  0  0  0  0  3  0  0  0  0  0  0
  188.9100  177.9260  140.0440 C   0  0  0  0  0  3  0  0  0  0  0  0
  184.0200  178.6300  143.8420 N   0  0  0  0  0  0  0  0  0  0  0  0
  184.8370  178.5640  145.0100 C   0  0  0  0  0  0  0  0  0  0  0  0
  181.9390  179.0720  139.9210 C   0  0  2  0  0  3  0  0  0  0  0  0
  183.9840  178.7640  138.7910 C   0  0  0  0  0  2  0  0  0  0  0  0
  186.7180  178.2900  146.1250 N   0  0  0  0  0  0  0  0  0  0  0  0
  182.1540  179.5860  137.6030 C   0  0  0  0  0  2  0  0  0  0  0  0
  186.8240  178.2570  138.7510 C   0  0  0  0  0  2  0  0  0  0  0  0
  184.7360  178.6760  140.0980 C   0  0  0  0  0  0  0  0  0  0  0  0
  186.1130  178.4000  140.0840 C   0  0  0  0  0  0  0  0  0  0  0  0
  186.1340  178.3710  142.5310 C   0  0  0  0  0  0  0  0  0  0  0  0
  185.7070  178.3960  147.0190 C   0  0  0  0  0  3  0  0  0  0  0  0
  180.6260  181.2250  139.6820 C   0  0  0  0  0  2  0  0  0  0  0  0
  182.8260  179.6430  138.8950 N   0  0  1  0  0  0  0  0  0  0  0  0
  184.4870  178.5650  146.3500 C   0  0  0  0  0  3  0  0  0  0  0  0
  180.5480  179.7250  139.9420 C   0  0  0  0  0  2  0  0  0  0  0  0
  180.6950  181.5630  138.2110 C   0  0  0  0  0  0  0  0  0  0  0  0
  188.1420  178.0410  141.2890 C   0  0  0  0  0  3  0  0  0  0  0  0
  186.8170  178.2660  141.3010 C   0  0  0  0  0  0  0  0  0  0  0  0
  186.8150  178.2760  143.6500 N   0  0  0  0  0  0  0  0  0  0  0  0
  182.5910  179.2340  141.2900 C   0  0  0  0  0  2  0  0  0  0  0  0
  182.5780  178.4920  144.0040 C   0  0  0  0  0  1  0  0  0  0  0  0
  188.1210  178.0810  146.4320 C   0  0  0  0  0  1  0  0  0  0  0  0
  184.7110  178.5900  142.5510 C   0  0  0  0  0  0  0  0  0  0  0  0
  186.1650  178.3940  144.9130 C   0  0  0  0  0  0  0  0  0  0  0  0
  180.0070  182.8050  137.7460 C   0  0  0  0  0  2  0  0  0  0  0  0
  180.8290  183.5220  136.6870 C   0  0  2  0  0  3  0  0  0  0  0  0
  181.7450  184.4450  137.3330 N   0  0  0  0  0  1  0  0  0  0  0  0
  179.9880  184.2320  135.8300 O   0  0  0  0  0  1  0  0  0  0  0  0
  1 10  1  0  0  0  0
  1 20  2  0  0  0  0
  2 27  2  0  0  0  0
  3  4  2  0  0  0  0
  4 21  1  0  0  0  0
  5 25  1  0  0  0  0
  5  6  1  0  0  0  0
  6 18  1  0  0  0  0
  7 19  1  1  0  0  0
  7 24  1  0  0  0  0
  8 17  1  0  0  0  0
  8 12  1  0  0  0  0
  9 26  1  0  0  0  0
  9 15  1  0  0  0  0
 11  3  1  0  0  0  0
 11 13  1  0  0  0  0
 12  2  1  0  0  0  0
 13 12  2  0  0  0  0
 13 22  1  0  0  0  0
 14 27  1  0  0  0  0
 14 23  2  0  0  0  0
 16 19  1  0  0  0  0
 17 10  1  6  0  0  0
 17  7  1  0  0  0  0
 18 15  2  0  0  0  0
 20 16  1  0  0  0  0
 21 22  2  0  0  0  0
 22 14  1  0  0  0  0
 23 28  1  0  0  0  0
 24  2  1  0  0  0  0
 27  5  1  0  0  0  0
 28  6  2  0  0  0  0
 28  9  1  0  0  0  0
 29 20  1  0  0  0  0
 30 32  1  6  0  0  0
 30 31  1  0  0  0  0
 30 29  1  0  0  0  0
M  END
>  <MODEL>
8

>  <REMARK>
 VINA RESULT:      -7.8      4.542      7.409
  Name = 
  2 active torsions:
  status: ('A' for Active; 'I' for Inactive)
    1  A    between atoms: C_1  and  C_10
    2  A    between atoms: C_10  and  C_24
                            x       y       z     vdW  Elec       q    Type
                         _______ _______ _______ _____ _____    ______ ____

>  <TORSDO>
F 2

$$$$
