=
 OpenBabel10272402003D

 28 33  0  0  1  0  0  0  0  0999 V2000
  185.9950  178.4330  145.1290 O   0  0  0  0  0  0  0  0  0  0  0  0
  184.6160  180.3710  143.7090 O   0  0  0  0  0  1  0  0  0  0  0  0
  184.2760  179.0290  143.5180 C   0  0  1  0  0  0  0  0  0  0  0  0
  188.6790  178.2780  146.9750 C   0  0  0  0  0  2  0  0  0  0  0  0
  185.6080  178.6530  141.1580 S   0  0  0  0  0  0  0  0  0  0  0  0
  187.6360  177.2780  142.5370 C   0  0  2  0  0  3  0  0  0  0  0  0
  184.0070  178.8280  142.0210 C   0  0  1  0  0  3  0  0  0  0  0  0
  188.0410  177.5350  144.9800 C   0  0  2  0  0  3  0  0  0  0  0  0
  186.5360  178.3920  142.7150 C   0  0  2  0  0  3  0  0  0  0  0  0
  187.3690  178.1710  147.3750 O   0  0  0  0  0  0  0  0  0  0  0  0
  188.0990  176.5590  143.8350 C   0  0  0  0  0  2  0  0  0  0  0  0
  187.8050  177.1750  146.4560 C   0  0  2  0  0  0  0  0  0  0  0  0
  186.6700  177.2500  145.4190 C   0  0  1  0  0  3  0  0  0  0  0  0
  185.4890  178.1670  143.8360 C   0  0  1  0  0  3  0  0  0  0  0  0
  190.3900  177.7350  139.8770 C   0  0  0  0  0  2  0  0  0  0  0  0
  190.2260  177.2010  142.3260 C   0  0  1  0  0  3  0  0  0  0  0  0
  191.1340  177.3480  141.1300 C   0  0  2  0  0  0  0  0  0  0  0  0
  188.9030  177.8010  141.8250 C   0  0  1  0  0  3  0  0  0  0  0  0
  192.1440  178.2880  141.4000 O   0  0  0  0  0  0  0  0  0  0  0  0
  192.5630  176.9720  141.1290 C   0  0  0  0  0  2  0  0  0  0  0  0
  188.9280  177.7060  140.2970 C   0  0  0  0  0  2  0  0  0  0  0  0
  190.1360  175.7380  142.7950 C   0  0  0  0  0  2  0  0  0  0  0  0
  191.5080  175.2300  143.8870 S   0  0  0  0  0  0  0  0  0  0  0  0
  191.5110  176.8330  144.7350 C   0  0  0  0  0  1  0  0  0  0  0  0
  183.0490  177.6870  141.6420 C   0  0  0  0  0  2  0  0  0  0  0  0
  183.0240  177.3930  140.1480 C   0  0  0  0  0  1  0  0  0  0  0  0
  183.0640  178.7340  144.4220 C   0  0  0  0  0  2  0  0  0  0  0  0
  181.7270  179.2090  143.8700 C   0  0  0  0  0  1  0  0  0  0  0  0
  3  2  1  1  0  0  0
  3 14  1  0  0  0  0
  3 27  1  0  0  0  0
  4 10  1  0  0  0  0
  5  7  1  0  0  0  0
  6  9  1  0  0  0  0
  6 11  1  1  0  0  0
  7 25  1  1  0  0  0
  7  3  1  0  0  0  0
  8 11  1  6  0  0  0
  8 13  1  0  0  0  0
  8 12  1  0  0  0  0
  9  5  1  6  0  0  0
  9 14  1  0  0  0  0
 12  4  1  1  0  0  0
 12 10  1  0  0  0  0
 13  1  1  1  0  0  0
 13 12  1  0  0  0  0
 14  1  1  1  0  0  0
 15 21  1  0  0  0  0
 16 22  1  6  0  0  0
 17 15  1  6  0  0  0
 17 19  1  0  0  0  0
 17 16  1  0  0  0  0
 18 21  1  6  0  0  0
 18 16  1  0  0  0  0
 18  6  1  0  0  0  0
 20 17  1  0  0  0  0
 20 19  1  0  0  0  0
 22 23  1  0  0  0  0
 23 24  1  0  0  0  0
 26 25  1  0  0  0  0
 28 27  1  0  0  0  0
M  END
>  <MODEL>
1

>  <REMARK>
 VINA RESULT:      -6.6      0.000      0.000
  Name = 
  5 active torsions:
  status: ('A' for Active; 'I' for Inactive)
    1  A    between atoms: C_3  and  C_7
    2  A    between atoms: C_6  and  C_11
    3  A    between atoms: C_9  and  C_18
    4  A    between atoms: C_10  and  C_13
    5  A    between atoms: S_14  and  C_18
                            x       y       z     vdW  Elec       q    Type
                         _______ _______ _______ _____ _____    ______ ____

>  <TORSDO>
F 5

$$$$
=
 OpenBabel10272402003D

 28 33  0  0  1  0  0  0  0  0999 V2000
  186.4070  177.9660  142.6350 O   0  0  0  0  0  0  0  0  0  0  0  0
  187.4480  176.1260  144.4250 O   0  0  0  0  0  1  0  0  0  0  0  0
  188.0490  177.3840  144.3280 C   0  0  1  0  0  0  0  0  0  0  0  0
  184.2660  177.9620  140.1730 C   0  0  0  0  0  2  0  0  0  0  0  0
  190.1770  176.6480  142.7730 S   0  0  0  0  0  0  0  0  0  0  0  0
  188.9170  177.7890  140.5340 C   0  0  2  0  0  3  0  0  0  0  0  0
  189.5670  177.1800  144.4120 C   0  0  1  0  0  3  0  0  0  0  0  0
  186.4640  178.1960  140.4070 C   0  0  2  0  0  3  0  0  0  0  0  0
  188.6210  177.1190  141.9290 C   0  0  2  0  0  3  0  0  0  0  0  0
  184.1270  178.5300  141.4170 O   0  0  0  0  0  0  0  0  0  0  0  0
  187.8070  178.7210  139.9730 C   0  0  0  0  0  2  0  0  0  0  0  0
  185.2000  179.0430  140.6330 C   0  0  2  0  0  0  0  0  0  0  0  0
  186.3450  178.9570  141.6580 C   0  0  1  0  0  3  0  0  0  0  0  0
  187.7870  177.9460  142.9390 C   0  0  1  0  0  3  0  0  0  0  0  0
  190.9020  175.7540  137.9280 C   0  0  0  0  0  2  0  0  0  0  0  0
  188.8190  177.1560  138.0140 C   0  0  1  0  0  3  0  0  0  0  0  0
  189.7720  176.3740  137.1440 C   0  0  2  0  0  0  0  0  0  0  0  0
  189.2460  176.7550  139.4340 C   0  0  1  0  0  3  0  0  0  0  0  0
  189.0760  175.3800  136.4340 O   0  0  0  0  0  0  0  0  0  0  0  0
  189.7240  176.3670  135.6680 C   0  0  0  0  0  2  0  0  0  0  0  0
  190.7010  176.2840  139.3400 C   0  0  0  0  0  2  0  0  0  0  0  0
  188.8900  178.6650  137.7200 C   0  0  0  0  0  2  0  0  0  0  0  0
  187.7470  179.2130  136.4060 S   0  0  0  0  0  0  0  0  0  0  0  0
  186.5650  177.8940  136.7960 C   0  0  0  0  0  1  0  0  0  0  0  0
  190.3910  178.3600  144.9510 C   0  0  0  0  0  2  0  0  0  0  0  0
  191.2310  179.0450  143.8810 C   0  0  0  0  0  1  0  0  0  0  0  0
  187.4670  178.2540  145.4590 C   0  0  0  0  0  2  0  0  0  0  0  0
  186.2460  177.6650  146.1520 C   0  0  0  0  0  1  0  0  0  0  0  0
  3  7  1  0  0  0  0
  3  2  1  1  0  0  0
  3 27  1  0  0  0  0
  4 10  1  0  0  0  0
  5  7  1  0  0  0  0
  6 11  1  6  0  0  0
  6  9  1  0  0  0  0
  7 25  1  6  0  0  0
  8 11  1  6  0  0  0
  8 12  1  0  0  0  0
  8 13  1  0  0  0  0
  9  5  1  1  0  0  0
  9 14  1  0  0  0  0
 12  4  1  6  0  0  0
 12 10  1  0  0  0  0
 12 13  1  0  0  0  0
 13  1  1  1  0  0  0
 14  1  1  6  0  0  0
 14  3  1  0  0  0  0
 15 21  1  0  0  0  0
 16 22  1  1  0  0  0
 16 18  1  0  0  0  0
 17 20  1  6  0  0  0
 17 15  1  0  0  0  0
 17 16  1  0  0  0  0
 18 21  1  6  0  0  0
 18  6  1  0  0  0  0
 19 17  1  0  0  0  0
 20 19  1  0  0  0  0
 23 24  1  0  0  0  0
 23 22  1  0  0  0  0
 26 25  1  0  0  0  0
 27 28  1  0  0  0  0
M  END
>  <MODEL>
2

>  <REMARK>
 VINA RESULT:      -6.6      2.684      5.678
  Name = 
  5 active torsions:
  status: ('A' for Active; 'I' for Inactive)
    1  A    between atoms: C_3  and  C_7
    2  A    between atoms: C_6  and  C_11
    3  A    between atoms: C_9  and  C_18
    4  A    between atoms: C_10  and  C_13
    5  A    between atoms: S_14  and  C_18
                            x       y       z     vdW  Elec       q    Type
                         _______ _______ _______ _____ _____    ______ ____

>  <TORSDO>
F 5

$$$$
=
 OpenBabel10272402003D

 28 33  0  0  1  0  0  0  0  0999 V2000
  184.3590  179.1220  141.6920 O   0  0  0  0  0  0  0  0  0  0  0  0
  184.6280  180.2640  139.1830 O   0  0  0  0  0  1  0  0  0  0  0  0
  184.4580  178.8800  139.2760 C   0  0  1  0  0  0  0  0  0  0  0  0
  184.7540  180.0460  144.7950 C   0  0  0  0  0  2  0  0  0  0  0  0
  187.0770  178.1710  138.9220 S   0  0  0  0  0  0  0  0  0  0  0  0
  187.3050  177.6840  141.6810 C   0  0  2  0  0  3  0  0  0  0  0  0
  185.3820  178.2290  138.2390 C   0  0  1  0  0  3  0  0  0  0  0  0
  185.7700  178.6730  143.3730 C   0  0  2  0  0  3  0  0  0  0  0  0
  186.5150  178.5440  140.6240 C   0  0  2  0  0  3  0  0  0  0  0  0
  183.5790  179.7760  144.1340 O   0  0  0  0  0  0  0  0  0  0  0  0
  186.5990  177.4590  143.0470 C   0  0  0  0  0  2  0  0  0  0  0  0
  184.4890  178.6840  144.2240 C   0  0  2  0  0  0  0  0  0  0  0  0
  184.5140  178.2330  142.7530 C   0  0  1  0  0  3  0  0  0  0  0  0
  184.9700  178.4150  140.6320 C   0  0  1  0  0  3  0  0  0  0  0  0
  191.1430  177.9460  141.9510 C   0  0  0  0  0  2  0  0  0  0  0  0
  189.1420  178.1800  143.4530 C   0  0  1  0  0  3  0  0  0  0  0  0
  190.6480  178.1630  143.3590 C   0  0  2  0  0  0  0  0  0  0  0  0
  188.7100  178.2520  141.9800 C   0  0  1  0  0  3  0  0  0  0  0  0
  191.1800  179.3570  143.8780 O   0  0  0  0  0  0  0  0  0  0  0  0
  191.5470  178.1650  144.5320 C   0  0  0  0  0  2  0  0  0  0  0  0
  189.8720  177.6940  141.1520 C   0  0  0  0  0  2  0  0  0  0  0  0
  188.6070  176.9600  144.2240 C   0  0  0  0  0  2  0  0  0  0  0  0
  189.0110  176.9810  146.0040 S   0  0  0  0  0  0  0  0  0  0  0  0
  187.3980  177.6920  146.4270 C   0  0  0  0  0  1  0  0  0  0  0  0
  184.9560  176.8520  137.7060 C   0  0  0  0  0  2  0  0  0  0  0  0
  184.6280  176.8570  136.2190 C   0  0  0  0  0  1  0  0  0  0  0  0
  182.9610  178.5910  139.0570 C   0  0  0  0  0  2  0  0  0  0  0  0
  182.1630  179.7570  138.4910 C   0  0  0  0  0  1  0  0  0  0  0  0
  3  2  1  6  0  0  0
  3 14  1  0  0  0  0
  6 18  1  0  0  0  0
  6 11  1  1  0  0  0
  7 25  1  1  0  0  0
  7  5  1  0  0  0  0
  7  3  1  0  0  0  0
  8 11  1  1  0  0  0
  8 12  1  0  0  0  0
  9  5  1  6  0  0  0
  9 14  1  0  0  0  0
  9  6  1  0  0  0  0
 10 12  1  0  0  0  0
 10  4  1  0  0  0  0
 12  4  1  1  0  0  0
 13  1  1  6  0  0  0
 13  8  1  0  0  0  0
 13 12  1  0  0  0  0
 14  1  1  1  0  0  0
 16 22  1  6  0  0  0
 17 15  1  6  0  0  0
 17 16  1  0  0  0  0
 17 19  1  0  0  0  0
 17 20  1  0  0  0  0
 18 21  1  6  0  0  0
 18 16  1  0  0  0  0
 19 20  1  0  0  0  0
 21 15  1  0  0  0  0
 22 23  1  0  0  0  0
 23 24  1  0  0  0  0
 26 25  1  0  0  0  0
 27  3  1  0  0  0  0
 28 27  1  0  0  0  0
M  END
>  <MODEL>
3

>  <REMARK>
 VINA RESULT:      -6.6      2.215      3.599
  Name = 
  5 active torsions:
  status: ('A' for Active; 'I' for Inactive)
    1  A    between atoms: C_3  and  C_7
    2  A    between atoms: C_6  and  C_11
    3  A    between atoms: C_9  and  C_18
    4  A    between atoms: C_10  and  C_13
    5  A    between atoms: S_14  and  C_18
                            x       y       z     vdW  Elec       q    Type
                         _______ _______ _______ _____ _____    ______ ____

>  <TORSDO>
F 5

$$$$
=
 OpenBabel10272402003D

 28 33  0  0  1  0  0  0  0  0999 V2000
  189.0360  174.4700  136.2210 O   0  0  0  0  0  0  0  0  0  0  0  0
  190.0340  176.9060  135.3600 O   0  0  0  0  0  1  0  0  0  0  0  0
  189.8040  176.7190  136.7260 C   0  0  1  0  0  0  0  0  0  0  0  0
  187.7380  171.8030  134.8630 C   0  0  0  0  0  2  0  0  0  0  0  0
  187.4280  178.0680  136.8780 S   0  0  0  0  0  0  0  0  0  0  0  0
  186.0560  175.6170  136.9650 C   0  0  2  0  0  3  0  0  0  0  0  0
  189.2110  178.0220  137.2780 C   0  0  1  0  0  3  0  0  0  0  0  0
  187.0290  173.4780  136.1400 C   0  0  2  0  0  3  0  0  0  0  0  0
  187.3770  176.2930  136.4340 C   0  0  2  0  0  3  0  0  0  0  0  0
  188.9670  171.9350  135.4630 O   0  0  0  0  0  0  0  0  0  0  0  0
  186.1110  174.0770  137.1730 C   0  0  0  0  0  2  0  0  0  0  0  0
  187.8490  172.1880  136.3090 C   0  0  2  0  0  0  0  0  0  0  0  0
  188.2730  173.5370  136.9180 C   0  0  1  0  0  3  0  0  0  0  0  0
  188.7170  175.6680  136.8990 C   0  0  1  0  0  3  0  0  0  0  0  0
  183.7670  177.3500  134.3910 C   0  0  0  0  0  2  0  0  0  0  0  0
  183.6520  176.5910  136.7830 C   0  0  1  0  0  3  0  0  0  0  0  0
  182.9520  177.3150  135.6590 C   0  0  2  0  0  0  0  0  0  0  0  0
  184.8330  175.9150  136.0690 C   0  0  1  0  0  3  0  0  0  0  0  0
  181.6990  176.7290  135.4110 O   0  0  0  0  0  0  0  0  0  0  0  0
  181.6950  178.0740  135.8250 C   0  0  0  0  0  2  0  0  0  0  0  0
  185.0920  176.7180  134.7910 C   0  0  0  0  0  2  0  0  0  0  0  0
  184.0470  177.5510  137.9190 C   0  0  0  0  0  2  0  0  0  0  0  0
  183.0020  177.3970  139.4080 S   0  0  0  0  0  0  0  0  0  0  0  0
  182.6130  175.6660  139.0350 C   0  0  0  0  0  1  0  0  0  0  0  0
  189.4490  178.3070  138.7690 C   0  0  0  0  0  2  0  0  0  0  0  0
  188.1970  178.1440  139.6210 C   0  0  0  0  0  1  0  0  0  0  0  0
  191.1480  176.3180  137.3620 C   0  0  0  0  0  2  0  0  0  0  0  0
  192.2430  175.9570  136.3670 C   0  0  0  0  0  1  0  0  0  0  0  0
  3  2  1  6  0  0  0
  3 14  1  0  0  0  0
  3  7  1  0  0  0  0
  3 27  1  0  0  0  0
  4 10  1  0  0  0  0
  5  7  1  0  0  0  0
  6 11  1  6  0  0  0
  7 25  1  1  0  0  0
  8 12  1  0  0  0  0
  8 13  1  0  0  0  0
  8 11  1  1  0  0  0
  9  5  1  1  0  0  0
  9 14  1  0  0  0  0
  9  6  1  0  0  0  0
 10 12  1  0  0  0  0
 12  4  1  1  0  0  0
 12 13  1  0  0  0  0
 13  1  1  6  0  0  0
 14  1  1  6  0  0  0
 15 21  1  0  0  0  0
 16 22  1  1  0  0  0
 17 15  1  6  0  0  0
 17 20  1  0  0  0  0
 17 16  1  0  0  0  0
 18 21  1  6  0  0  0
 18 16  1  0  0  0  0
 18  6  1  0  0  0  0
 19 17  1  0  0  0  0
 19 20  1  0  0  0  0
 22 23  1  0  0  0  0
 24 23  1  0  0  0  0
 25 26  1  0  0  0  0
 28 27  1  0  0  0  0
M  END
>  <MODEL>
4

>  <REMARK>
 VINA RESULT:      -6.3      5.812      9.532
  Name = 
  5 active torsions:
  status: ('A' for Active; 'I' for Inactive)
    1  A    between atoms: C_3  and  C_7
    2  A    between atoms: C_6  and  C_11
    3  A    between atoms: C_9  and  C_18
    4  A    between atoms: C_10  and  C_13
    5  A    between atoms: S_14  and  C_18
                            x       y       z     vdW  Elec       q    Type
                         _______ _______ _______ _____ _____    ______ ____

>  <TORSDO>
F 5

$$$$
=
 OpenBabel10272402003D

 28 33  0  0  1  0  0  0  0  0999 V2000
  187.8950  178.4460  143.0520 O   0  0  0  0  0  0  0  0  0  0  0  0
  185.9820  180.2880  142.2650 O   0  0  0  0  0  1  0  0  0  0  0  0
  185.6330  178.9370  142.3150 C   0  0  1  0  0  0  0  0  0  0  0  0
  191.1170  178.4110  143.5570 C   0  0  0  0  0  2  0  0  0  0  0  0
  185.8230  178.4150  139.6360 S   0  0  0  0  0  0  0  0  0  0  0  0
  188.2850  177.1330  140.0740 C   0  0  2  0  0  3  0  0  0  0  0  0
  184.7480  178.6410  141.0970 C   0  0  1  0  0  3  0  0  0  0  0  0
  189.7000  177.5440  142.0810 C   0  0  2  0  0  3  0  0  0  0  0  0
  187.3390  178.2540  140.6490 C   0  0  2  0  0  3  0  0  0  0  0  0
  190.1120  178.3280  144.4910 O   0  0  0  0  0  0  0  0  0  0  0  0
  189.2850  176.4980  141.0800 C   0  0  0  0  0  2  0  0  0  0  0  0
  190.1360  177.2760  143.5310 C   0  0  2  0  0  0  0  0  0  0  0  0
  188.6630  177.2850  143.0860 C   0  0  1  0  0  3  0  0  0  0  0  0
  186.8880  178.0990  142.1230 C   0  0  1  0  0  3  0  0  0  0  0  0
  189.3430  179.1630  136.9710 C   0  0  0  0  0  2  0  0  0  0  0  0
  188.9460  176.7610  137.5860 C   0  0  1  0  0  3  0  0  0  0  0  0
  189.2700  177.7380  136.4830 C   0  0  2  0  0  0  0  0  0  0  0  0
  189.1050  177.6130  138.8550 C   0  0  1  0  0  3  0  0  0  0  0  0
  190.4770  177.3800  135.8570 O   0  0  0  0  0  0  0  0  0  0  0  0
  189.3220  177.3780  135.0520 C   0  0  0  0  0  2  0  0  0  0  0  0
  188.9210  179.0730  138.4300 C   0  0  0  0  0  2  0  0  0  0  0  0
  187.5520  176.1340  137.3990 C   0  0  0  0  0  2  0  0  0  0  0  0
  187.5870  174.4820  136.6220 S   0  0  0  0  0  0  0  0  0  0  0  0
  189.3280  174.2390  137.0680 C   0  0  0  0  0  1  0  0  0  0  0  0
  183.7530  177.4780  141.2350 C   0  0  0  0  0  2  0  0  0  0  0  0
  182.9590  177.2110  139.9630 C   0  0  0  0  0  1  0  0  0  0  0  0
  184.9390  178.6970  143.6700 C   0  0  0  0  0  2  0  0  0  0  0  0
  183.9770  179.7970  144.0970 C   0  0  0  0  0  1  0  0  0  0  0  0
  3  2  1  6  0  0  0
  3 27  1  0  0  0  0
  4 10  1  0  0  0  0
  5  7  1  0  0  0  0
  6  9  1  0  0  0  0
  6 11  1  1  0  0  0
  7 25  1  1  0  0  0
  7  3  1  0  0  0  0
  8 11  1  6  0  0  0
  8 13  1  0  0  0  0
  8 12  1  0  0  0  0
  9  5  1  6  0  0  0
  9 14  1  0  0  0  0
 12  4  1  1  0  0  0
 12 10  1  0  0  0  0
 13  1  1  1  0  0  0
 13 12  1  0  0  0  0
 14  3  1  0  0  0  0
 14  1  1  1  0  0  0
 15 21  1  0  0  0  0
 16 22  1  6  0  0  0
 16 18  1  0  0  0  0
 17 20  1  6  0  0  0
 17 15  1  0  0  0  0
 17 16  1  0  0  0  0
 18 21  1  6  0  0  0
 18  6  1  0  0  0  0
 19 17  1  0  0  0  0
 20 19  1  0  0  0  0
 23 24  1  0  0  0  0
 23 22  1  0  0  0  0
 26 25  1  0  0  0  0
 27 28  1  0  0  0  0
M  END
>  <MODEL>
5

>  <REMARK>
 VINA RESULT:      -6.2      2.812      4.031
  Name = 
  5 active torsions:
  status: ('A' for Active; 'I' for Inactive)
    1  A    between atoms: C_3  and  C_7
    2  A    between atoms: C_6  and  C_11
    3  A    between atoms: C_9  and  C_18
    4  A    between atoms: C_10  and  C_13
    5  A    between atoms: S_14  and  C_18
                            x       y       z     vdW  Elec       q    Type
                         _______ _______ _______ _____ _____    ______ ____

>  <TORSDO>
F 5

$$$$
=
 OpenBabel10272402003D

 28 33  0  0  1  0  0  0  0  0999 V2000
  187.9500  177.2850  137.4550 O   0  0  0  0  0  0  0  0  0  0  0  0
  188.9830  179.2220  139.1440 O   0  0  0  0  0  1  0  0  0  0  0  0
  188.5990  177.9930  139.6860 C   0  0  1  0  0  0  0  0  0  0  0  0
  186.8860  177.1170  134.3760 C   0  0  0  0  0  2  0  0  0  0  0  0
  186.1890  178.7880  140.7110 S   0  0  0  0  0  0  0  0  0  0  0  0
  184.8770  177.5260  138.5700 C   0  0  2  0  0  3  0  0  0  0  0  0
  187.9140  178.2730  141.0300 C   0  0  1  0  0  3  0  0  0  0  0  0
  185.9920  176.9960  136.4070 C   0  0  2  0  0  3  0  0  0  0  0  0
  186.2340  178.2190  138.9710 C   0  0  2  0  0  3  0  0  0  0  0  0
  188.0330  176.5770  134.9060 O   0  0  0  0  0  0  0  0  0  0  0  0
  184.9440  176.5260  137.3820 C   0  0  0  0  0  2  0  0  0  0  0  0
  186.8180  176.0960  135.4730 C   0  0  2  0  0  0  0  0  0  0  0  0
  187.1340  176.2660  136.9700 C   0  0  1  0  0  3  0  0  0  0  0  0
  187.5250  177.3800  138.7990 C   0  0  1  0  0  3  0  0  0  0  0  0
  182.5180  180.5600  138.8840 C   0  0  0  0  0  2  0  0  0  0  0  0
  182.3350  178.0740  138.5780 C   0  0  1  0  0  3  0  0  0  0  0  0
  181.5950  179.3720  138.7920 C   0  0  2  0  0  0  0  0  0  0  0  0
  183.7600  178.5440  138.2490 C   0  0  1  0  0  3  0  0  0  0  0  0
  180.6560  179.5690  137.7650 O   0  0  0  0  0  0  0  0  0  0  0  0
  180.1480  179.4580  139.0730 C   0  0  0  0  0  2  0  0  0  0  0  0
  183.9100  179.9470  138.8460 C   0  0  0  0  0  2  0  0  0  0  0  0
  182.2270  177.1490  139.8040 C   0  0  0  0  0  2  0  0  0  0  0  0
  181.0280  175.7890  139.5960 S   0  0  0  0  0  0  0  0  0  0  0  0
  181.2910  175.7470  137.8020 C   0  0  0  0  0  1  0  0  0  0  0  0
  187.9690  177.1500  142.0780 C   0  0  0  0  0  2  0  0  0  0  0  0
  188.0720  177.6640  143.5070 C   0  0  0  0  0  1  0  0  0  0  0  0
  189.8690  177.1280  139.7950 C   0  0  0  0  0  2  0  0  0  0  0  0
  190.9400  177.6810  140.7240 C   0  0  0  0  0  1  0  0  0  0  0  0
  3  2  1  6  0  0  0
  3 27  1  0  0  0  0
  3  7  1  0  0  0  0
  4 10  1  0  0  0  0
  5  7  1  0  0  0  0
  6 11  1  6  0  0  0
  6  9  1  0  0  0  0
  7 25  1  1  0  0  0
  8 13  1  0  0  0  0
  8 11  1  1  0  0  0
  9  5  1  1  0  0  0
 10 12  1  0  0  0  0
 12  4  1  6  0  0  0
 12  8  1  0  0  0  0
 12 13  1  0  0  0  0
 13  1  1  6  0  0  0
 14  1  1  6  0  0  0
 14  9  1  0  0  0  0
 14  3  1  0  0  0  0
 16 17  1  0  0  0  0
 16 22  1  1  0  0  0
 17 15  1  1  0  0  0
 17 20  1  0  0  0  0
 18  6  1  0  0  0  0
 18 16  1  0  0  0  0
 18 21  1  1  0  0  0
 19 17  1  0  0  0  0
 19 20  1  0  0  0  0
 21 15  1  0  0  0  0
 23 22  1  0  0  0  0
 24 23  1  0  0  0  0
 25 26  1  0  0  0  0
 27 28  1  0  0  0  0
M  END
>  <MODEL>
6

>  <REMARK>
 VINA RESULT:      -6.2      3.803      8.635
  Name = 
  5 active torsions:
  status: ('A' for Active; 'I' for Inactive)
    1  A    between atoms: C_3  and  C_7
    2  A    between atoms: C_6  and  C_11
    3  A    between atoms: C_9  and  C_18
    4  A    between atoms: C_10  and  C_13
    5  A    between atoms: S_14  and  C_18
                            x       y       z     vdW  Elec       q    Type
                         _______ _______ _______ _____ _____    ______ ____

>  <TORSDO>
F 5

$$$$
=
 OpenBabel10272402003D

 28 33  0  0  1  0  0  0  0  0999 V2000
  186.0610  173.7160  136.3980 O   0  0  0  0  0  0  0  0  0  0  0  0
  187.6340  175.5830  135.0890 O   0  0  0  0  0  1  0  0  0  0  0  0
  187.7000  175.5070  136.4830 C   0  0  1  0  0  0  0  0  0  0  0  0
  183.5800  171.7330  135.6510 C   0  0  0  0  0  2  0  0  0  0  0  0
  186.1050  177.6590  137.0370 S   0  0  0  0  0  0  0  0  0  0  0  0
  183.9980  175.9150  137.6840 C   0  0  2  0  0  3  0  0  0  0  0  0
  187.7850  176.9410  137.0210 C   0  0  1  0  0  3  0  0  0  0  0  0
  183.8790  173.5610  136.8800 C   0  0  2  0  0  3  0  0  0  0  0  0
  185.2960  176.0340  136.7990 C   0  0  2  0  0  3  0  0  0  0  0  0
  184.8810  171.3920  135.9370 O   0  0  0  0  0  0  0  0  0  0  0  0
  183.5340  174.4720  138.0290 C   0  0  0  0  0  2  0  0  0  0  0  0
  184.1830  172.0570  136.9860 C   0  0  2  0  0  0  0  0  0  0  0  0
  185.2100  173.1470  137.3420 C   0  0  1  0  0  3  0  0  0  0  0  0
  186.3840  174.9500  137.0060 C   0  0  1  0  0  3  0  0  0  0  0  0
  181.9330  178.3130  135.4800 C   0  0  0  0  0  2  0  0  0  0  0  0
  182.2120  177.7900  137.9210 C   0  0  1  0  0  3  0  0  0  0  0  0
  181.5610  178.6830  136.8940 C   0  0  2  0  0  0  0  0  0  0  0  0
  182.7870  176.6500  137.0660 C   0  0  1  0  0  3  0  0  0  0  0  0
  180.1640  178.6590  137.0460 O   0  0  0  0  0  0  0  0  0  0  0  0
  180.7980  179.9030  137.2270 C   0  0  0  0  0  2  0  0  0  0  0  0
  182.9660  177.2080  135.6510 C   0  0  0  0  0  2  0  0  0  0  0  0
  183.2500  178.5540  138.7630 C   0  0  0  0  0  2  0  0  0  0  0  0
  183.0510  178.3220  140.5630 S   0  0  0  0  0  0  0  0  0  0  0  0
  184.7750  178.7890  140.8780 C   0  0  0  0  0  1  0  0  0  0  0  0
  188.4760  177.1250  138.3810 C   0  0  0  0  0  2  0  0  0  0  0  0
  189.2530  178.4300  138.4910 C   0  0  0  0  0  1  0  0  0  0  0  0
  188.9170  174.6290  136.8320 C   0  0  0  0  0  2  0  0  0  0  0  0
  190.1380  174.8530  135.9510 C   0  0  0  0  0  1  0  0  0  0  0  0
  3  2  1  6  0  0  0
  3 27  1  0  0  0  0
  3 14  1  0  0  0  0
  3  7  1  0  0  0  0
  4 10  1  0  0  0  0
  6 11  1  6  0  0  0
  7  5  1  0  0  0  0
  7 25  1  1  0  0  0
  8 12  1  0  0  0  0
  8 13  1  0  0  0  0
  8 11  1  1  0  0  0
  9 14  1  0  0  0  0
  9  5  1  1  0  0  0
  9  6  1  0  0  0  0
 10 12  1  0  0  0  0
 12  4  1  1  0  0  0
 12 13  1  0  0  0  0
 13  1  1  6  0  0  0
 14  1  1  6  0  0  0
 15 21  1  0  0  0  0
 16 22  1  6  0  0  0
 17 15  1  6  0  0  0
 17 19  1  0  0  0  0
 17 20  1  0  0  0  0
 17 16  1  0  0  0  0
 18 21  1  6  0  0  0
 18  6  1  0  0  0  0
 18 16  1  0  0  0  0
 19 20  1  0  0  0  0
 22 23  1  0  0  0  0
 23 24  1  0  0  0  0
 25 26  1  0  0  0  0
 28 27  1  0  0  0  0
M  END
>  <MODEL>
7

>  <REMARK>
 VINA RESULT:      -6.0      5.542      9.508
  Name = 
  5 active torsions:
  status: ('A' for Active; 'I' for Inactive)
    1  A    between atoms: C_3  and  C_7
    2  A    between atoms: C_6  and  C_11
    3  A    between atoms: C_9  and  C_18
    4  A    between atoms: C_10  and  C_13
    5  A    between atoms: S_14  and  C_18
                            x       y       z     vdW  Elec       q    Type
                         _______ _______ _______ _____ _____    ______ ____

>  <TORSDO>
F 5

$$$$
=
 OpenBabel10272402003D

 28 33  0  0  1  0  0  0  0  0999 V2000
  191.8680  176.7500  139.7630 O   0  0  0  0  0  0  0  0  0  0  0  0
  190.9470  178.7260  141.4730 O   0  0  0  0  0  1  0  0  0  0  0  0
  190.5050  177.4140  141.6620 C   0  0  1  0  0  0  0  0  0  0  0  0
  193.5010  176.5980  136.9430 C   0  0  0  0  0  2  0  0  0  0  0  0
  188.0510  177.6860  140.4830 S   0  0  0  0  0  0  0  0  0  0  0  0
  189.0130  176.3520  138.2030 C   0  0  2  0  0  3  0  0  0  0  0  0
  189.0150  177.4740  142.0210 C   0  0  1  0  0  3  0  0  0  0  0  0
  191.4320  176.1810  137.6420 C   0  0  2  0  0  3  0  0  0  0  0  0
  189.4720  177.2530  139.4120 C   0  0  2  0  0  3  0  0  0  0  0  0
  193.9390  176.2420  138.1970 O   0  0  0  0  0  0  0  0  0  0  0  0
  190.1110  175.4630  137.5560 C   0  0  0  0  0  2  0  0  0  0  0  0
  192.8150  175.5110  137.7170 C   0  0  2  0  0  0  0  0  0  0  0  0
  191.8760  175.6340  138.9300 C   0  0  1  0  0  3  0  0  0  0  0  0
  190.5770  176.6770  140.3330 C   0  0  1  0  0  3  0  0  0  0  0  0
  186.7360  178.8760  136.3820 C   0  0  0  0  0  2  0  0  0  0  0  0
  187.2740  176.4250  136.2710 C   0  0  1  0  0  3  0  0  0  0  0  0
  186.4150  177.5480  135.7440 C   0  0  2  0  0  0  0  0  0  0  0  0
  188.3570  177.1690  137.0670 C   0  0  1  0  0  3  0  0  0  0  0  0
  186.5410  177.6410  134.3470 O   0  0  0  0  0  0  0  0  0  0  0  0
  185.2580  177.3490  134.8480 C   0  0  0  0  0  2  0  0  0  0  0  0
  187.7660  178.5300  137.4470 C   0  0  0  0  0  2  0  0  0  0  0  0
  186.4510  175.4140  137.0890 C   0  0  0  0  0  2  0  0  0  0  0  0
  186.5620  173.7010  136.4670 S   0  0  0  0  0  0  0  0  0  0  0  0
  185.2490  173.1420  137.5850 C   0  0  0  0  0  1  0  0  0  0  0  0
  188.4620  176.3120  142.8620 C   0  0  0  0  0  2  0  0  0  0  0  0
  187.6260  176.7710  144.0480 C   0  0  0  0  0  1  0  0  0  0  0  0
  191.3920  176.7890  142.7560 C   0  0  0  0  0  2  0  0  0  0  0  0
  191.6070  177.6670  143.9810 C   0  0  0  0  0  1  0  0  0  0  0  0
  3  2  1  6  0  0  0
  3  7  1  0  0  0  0
  3 27  1  0  0  0  0
  4 10  1  0  0  0  0
  5  7  1  0  0  0  0
  6 11  1  6  0  0  0
  6  9  1  0  0  0  0
  7 25  1  6  0  0  0
  8 11  1  6  0  0  0
  8 12  1  0  0  0  0
  8 13  1  0  0  0  0
  9 14  1  0  0  0  0
  9  5  1  1  0  0  0
 12  4  1  6  0  0  0
 12 10  1  0  0  0  0
 12 13  1  0  0  0  0
 13  1  1  1  0  0  0
 14  1  1  6  0  0  0
 14  3  1  0  0  0  0
 15 21  1  0  0  0  0
 16 18  1  0  0  0  0
 16 22  1  1  0  0  0
 17 20  1  1  0  0  0
 17 16  1  0  0  0  0
 17 15  1  0  0  0  0
 18 21  1  1  0  0  0
 18  6  1  0  0  0  0
 19 20  1  0  0  0  0
 19 17  1  0  0  0  0
 23 22  1  0  0  0  0
 23 24  1  0  0  0  0
 25 26  1  0  0  0  0
 27 28  1  0  0  0  0
M  END
>  <MODEL>
8

>  <REMARK>
 VINA RESULT:      -6.0      3.818      7.633
  Name = 
  5 active torsions:
  status: ('A' for Active; 'I' for Inactive)
    1  A    between atoms: C_3  and  C_7
    2  A    between atoms: C_6  and  C_11
    3  A    between atoms: C_9  and  C_18
    4  A    between atoms: C_10  and  C_13
    5  A    between atoms: S_14  and  C_18
                            x       y       z     vdW  Elec       q    Type
                         _______ _______ _______ _____ _____    ______ ____

>  <TORSDO>
F 5

$$$$
=
 OpenBabel10272402003D

 28 33  0  0  1  0  0  0  0  0999 V2000
  186.7940  175.1220  137.2940 O   0  0  0  0  0  0  0  0  0  0  0  0
  185.4740  172.8230  138.0990 O   0  0  0  0  0  1  0  0  0  0  0  0
  185.2650  173.3000  136.8020 C   0  0  1  0  0  0  0  0  0  0  0  0
  188.5310  177.4990  138.6990 C   0  0  0  0  0  2  0  0  0  0  0  0
  182.8470  174.5010  137.2450 S   0  0  0  0  0  0  0  0  0  0  0  0
  184.1140  177.0100  137.2730 C   0  0  2  0  0  3  0  0  0  0  0  0
  183.7750  173.1250  136.4790 C   0  0  1  0  0  3  0  0  0  0  0  0
  186.5450  177.3070  137.7210 C   0  0  2  0  0  3  0  0  0  0  0  0
  184.3610  175.4810  137.5620 C   0  0  2  0  0  3  0  0  0  0  0  0
  188.9790  176.5010  137.8660 O   0  0  0  0  0  0  0  0  0  0  0  0
  185.3750  177.8580  136.9490 C   0  0  0  0  0  2  0  0  0  0  0  0
  188.0200  177.3850  137.2930 C   0  0  2  0  0  0  0  0  0  0  0  0
  187.0300  176.3630  136.7060 C   0  0  1  0  0  3  0  0  0  0  0  0
  185.5150  174.8000  136.7850 C   0  0  1  0  0  3  0  0  0  0  0  0
  181.8320  177.5750  140.3300 C   0  0  0  0  0  2  0  0  0  0  0  0
  182.1010  178.4850  138.0040 C   0  0  1  0  0  3  0  0  0  0  0  0
  181.2830  178.4980  139.2720 C   0  0  2  0  0  0  0  0  0  0  0  0
  183.3670  177.7210  138.4230 C   0  0  1  0  0  3  0  0  0  0  0  0
  181.1890  179.8070  139.7760 O   0  0  0  0  0  0  0  0  0  0  0  0
  179.9820  179.1850  139.4060 C   0  0  0  0  0  2  0  0  0  0  0  0
  182.9820  176.8630  139.6320 C   0  0  0  0  0  2  0  0  0  0  0  0
  181.3250  177.8570  136.8330 C   0  0  0  0  0  2  0  0  0  0  0  0
  181.4690  178.7910  135.2710 S   0  0  0  0  0  0  0  0  0  0  0  0
  180.7270  180.2700  136.0130 C   0  0  0  0  0  1  0  0  0  0  0  0
  183.4060  172.9700  134.9960 C   0  0  0  0  0  2  0  0  0  0  0  0
  182.8210  171.6050  134.6600 C   0  0  0  0  0  1  0  0  0  0  0  0
  186.2070  172.5120  135.8710 C   0  0  0  0  0  2  0  0  0  0  0  0
  187.4720  171.9900  136.5380 C   0  0  0  0  0  1  0  0  0  0  0  0
  3  2  1  1  0  0  0
  6 11  1  1  0  0  0
  6  9  1  0  0  0  0
  6 18  1  0  0  0  0
  7 25  1  6  0  0  0
  7  3  1  0  0  0  0
  7  5  1  0  0  0  0
  8 11  1  6  0  0  0
  9  5  1  6  0  0  0
 10  4  1  0  0  0  0
 12  8  1  0  0  0  0
 12 10  1  0  0  0  0
 12  4  1  6  0  0  0
 13 12  1  0  0  0  0
 13  1  1  1  0  0  0
 13  8  1  0  0  0  0
 14  3  1  0  0  0  0
 14  1  1  1  0  0  0
 14  9  1  0  0  0  0
 16 22  1  6  0  0  0
 16 18  1  0  0  0  0
 16 17  1  0  0  0  0
 17 20  1  6  0  0  0
 17 19  1  0  0  0  0
 17 15  1  0  0  0  0
 18 21  1  1  0  0  0
 20 19  1  0  0  0  0
 21 15  1  0  0  0  0
 23 24  1  0  0  0  0
 23 22  1  0  0  0  0
 26 25  1  0  0  0  0
 27 28  1  0  0  0  0
 27  3  1  0  0  0  0
M  END
>  <MODEL>
9

>  <REMARK>
 VINA RESULT:      -5.9      5.581      9.363
  Name = 
  5 active torsions:
  status: ('A' for Active; 'I' for Inactive)
    1  A    between atoms: C_3  and  C_7
    2  A    between atoms: C_6  and  C_11
    3  A    between atoms: C_9  and  C_18
    4  A    between atoms: C_10  and  C_13
    5  A    between atoms: S_14  and  C_18
                            x       y       z     vdW  Elec       q    Type
                         _______ _______ _______ _____ _____    ______ ____

>  <TORSDO>
F 5

$$$$
