=
 OpenBabel10272401563D

 28 30  0  0  1  0  0  0  0  0999 V2000
  189.7670  177.2840  138.5100 N   0  0  0  0  0  0  0  0  0  0  0  0
  189.3860  177.3680  140.9790 C   0  0  1  0  0  3  0  0  0  0  0  0
  191.2440  176.1530  139.9880 O   0  0  0  0  0  1  0  0  0  0  0  0
  187.8350  178.3550  139.6640 C   0  0  0  0  0  2  0  0  0  0  0  0
  188.6060  178.5280  140.8280 O   0  0  0  0  0  0  0  0  0  0  0  0
  188.7350  178.3360  138.4230 C   0  0  0  0  0  2  0  0  0  0  0  0
  190.4160  177.2720  139.8390 C   0  0  1  0  0  3  0  0  0  0  0  0
  185.0400  179.0970  143.9760 C   0  0  0  0  0  1  0  0  0  0  0  0
  191.3090  177.4390  142.3850 O   0  0  0  0  0  0  0  0  0  0  0  0
  187.7240  177.4470  145.8540 C   0  0  2  0  0  3  0  0  0  0  0  0
  187.8030  177.1870  143.4320 C   0  0  0  0  0  2  0  0  0  0  0  0
  185.6050  178.1520  146.2030 C   0  0  0  0  0  0  0  0  0  0  0  0
  187.1910  177.9990  144.5530 C   0  0  1  0  0  3  0  0  0  0  0  0
  189.9430  177.1410  144.8240 C   0  0  0  0  0  2  0  0  0  0  0  0
  186.8450  177.9720  146.8760 N   0  0  0  0  0  2  0  0  0  0  0  0
  189.1830  177.8300  145.9750 C   0  0  0  0  0  2  0  0  0  0  0  0
  190.0500  177.3780  142.3220 C   0  0  0  0  0  0  0  0  0  0  0  0
  184.5390  178.4230  146.8190 O   0  0  0  0  0  0  0  0  0  0  0  0
  185.6860  177.9500  144.7260 C   0  0  2  0  0  3  0  0  0  0  0  0
  189.2660  177.3160  143.5250 N   0  0  0  0  0  0  0  0  0  0  0  0
  189.2760  175.9560  138.0740 C   0  0  1  0  0  3  0  0  0  0  0  0
  187.9320  175.9960  137.3590 C   0  0  0  0  0  1  0  0  0  0  0  0
  190.3070  175.2360  137.2150 C   0  0  0  0  0  2  0  0  0  0  0  0
  190.7650  176.1440  134.9650 C   0  0  0  0  0  1  0  0  0  0  0  0
  191.1510  176.2270  136.4270 C   0  0  2  0  0  3  0  0  0  0  0  0
  192.6050  175.9050  136.5820 C   0  0  0  0  0  0  0  0  0  0  0  0
  193.1110  174.9500  135.9320 O   0  0  0  0  0  0  0  0  0  0  0  0
  193.4240  176.6700  137.4680 N   0  0  0  0  0  1  0  0  0  0  0  0
  1  7  1  0  0  0  0
  2 17  1  1  0  0  0
  4  5  1  0  0  0  0
  5  2  1  0  0  0  0
  6  1  1  0  0  0  0
  6  4  1  0  0  0  0
  7  3  1  1  0  0  0
  7  2  1  0  0  0  0
 10 16  1  1  0  0  0
 10 15  1  0  0  0  0
 11 20  1  0  0  0  0
 12 18  2  0  0  0  0
 12 15  1  0  0  0  0
 13 11  1  6  0  0  0
 13 19  1  0  0  0  0
 13 10  1  0  0  0  0
 14 16  1  0  0  0  0
 17  9  2  0  0  0  0
 17 20  1  0  0  0  0
 19  8  1  6  0  0  0
 19 12  1  0  0  0  0
 20 14  1  0  0  0  0
 21 22  1  6  0  0  0
 21  1  1  0  0  0  0
 23 21  1  0  0  0  0
 25 24  1  6  0  0  0
 25 26  1  0  0  0  0
 25 23  1  0  0  0  0
 26 28  1  0  0  0  0
 27 26  2  0  0  0  0
M  END
>  <MODEL>
1

>  <REMARK>
 VINA RESULT:      -7.9      0.000      0.000
  Name = 
  5 active torsions:
  status: ('A' for Active; 'I' for Inactive)
    1  A    between atoms: N_1  and  C_2
    2  A    between atoms: C_2  and  C_3
    3  A    between atoms: C_3  and  C_11
    4  A    between atoms: C_6  and  C_11
    5  A    between atoms: C_16  and  C_20
                            x       y       z     vdW  Elec       q    Type
                         _______ _______ _______ _____ _____    ______ ____

>  <TORSDO>
F 5

$$$$
=
 OpenBabel10272401563D

 28 30  0  0  1  0  0  0  0  0999 V2000
  189.3680  177.1980  138.1040 N   0  0  0  0  0  0  0  0  0  0  0  0
  189.1310  177.3360  140.5890 C   0  0  1  0  0  3  0  0  0  0  0  0
  190.8440  175.9850  139.5170 O   0  0  0  0  0  1  0  0  0  0  0  0
  187.5800  178.4120  139.3450 C   0  0  0  0  0  2  0  0  0  0  0  0
  188.4240  178.5450  140.4620 O   0  0  0  0  0  0  0  0  0  0  0  0
  188.4070  178.3170  138.0570 C   0  0  0  0  0  2  0  0  0  0  0  0
  190.0870  177.1560  139.3960 C   0  0  1  0  0  3  0  0  0  0  0  0
  185.0050  179.1560  143.8320 C   0  0  0  0  0  1  0  0  0  0  0  0
  191.1290  177.3420  141.8880 O   0  0  0  0  0  0  0  0  0  0  0  0
  187.7400  177.4160  145.5480 C   0  0  2  0  0  3  0  0  0  0  0  0
  187.6800  177.1760  143.1230 C   0  0  0  0  0  2  0  0  0  0  0  0
  185.6640  178.1750  146.0180 C   0  0  0  0  0  0  0  0  0  0  0  0
  187.1530  177.9940  144.2830 C   0  0  1  0  0  3  0  0  0  0  0  0
  189.8910  177.0600  144.3950 C   0  0  0  0  0  2  0  0  0  0  0  0
  186.9330  177.9560  146.6200 N   0  0  0  0  0  2  0  0  0  0  0  0
  189.2130  177.7590  145.5920 C   0  0  0  0  0  2  0  0  0  0  0  0
  189.8680  177.3160  141.8940 C   0  0  0  0  0  0  0  0  0  0  0  0
  184.6410  178.4700  146.6930 O   0  0  0  0  0  0  0  0  0  0  0  0
  185.6590  177.9850  144.5370 C   0  0  2  0  0  3  0  0  0  0  0  0
  189.1490  177.2640  143.1370 N   0  0  0  0  0  0  0  0  0  0  0  0
  188.7650  175.9020  137.7160 C   0  0  1  0  0  3  0  0  0  0  0  0
  187.2940  175.9930  137.3320 C   0  0  0  0  0  1  0  0  0  0  0  0
  189.5580  175.2300  136.6030 C   0  0  0  0  0  2  0  0  0  0  0  0
  191.3520  173.5340  136.5720 C   0  0  0  0  0  1  0  0  0  0  0  0
  189.9160  173.7990  136.9740 C   0  0  2  0  0  3  0  0  0  0  0  0
  189.0100  172.8400  136.2650 C   0  0  0  0  0  0  0  0  0  0  0  0
  189.2560  172.5060  135.0740 O   0  0  0  0  0  0  0  0  0  0  0  0
  187.8650  172.3040  136.9280 N   0  0  0  0  0  1  0  0  0  0  0  0
  1  7  1  0  0  0  0
  2 17  1  1  0  0  0
  4  5  1  0  0  0  0
  5  2  1  0  0  0  0
  6  1  1  0  0  0  0
  6  4  1  0  0  0  0
  7  3  1  1  0  0  0
  7  2  1  0  0  0  0
  9 17  2  0  0  0  0
 10 16  1  1  0  0  0
 10 15  1  0  0  0  0
 11 20  1  0  0  0  0
 12 15  1  0  0  0  0
 12 18  2  0  0  0  0
 13 11  1  6  0  0  0
 13 19  1  0  0  0  0
 13 10  1  0  0  0  0
 14 16  1  0  0  0  0
 17 20  1  0  0  0  0
 19  8  1  6  0  0  0
 19 12  1  0  0  0  0
 20 14  1  0  0  0  0
 21 22  1  6  0  0  0
 21  1  1  0  0  0  0
 23 25  1  0  0  0  0
 23 21  1  0  0  0  0
 25 24  1  6  0  0  0
 26 28  1  0  0  0  0
 26 25  1  0  0  0  0
 27 26  2  0  0  0  0
M  END
>  <MODEL>
2

>  <REMARK>
 VINA RESULT:      -7.7      1.610      2.042
  Name = 
  5 active torsions:
  status: ('A' for Active; 'I' for Inactive)
    1  A    between atoms: N_1  and  C_2
    2  A    between atoms: C_2  and  C_3
    3  A    between atoms: C_3  and  C_11
    4  A    between atoms: C_6  and  C_11
    5  A    between atoms: C_16  and  C_20
                            x       y       z     vdW  Elec       q    Type
                         _______ _______ _______ _____ _____    ______ ____

>  <TORSDO>
F 5

$$$$
=
 OpenBabel10272401563D

 28 30  0  0  1  0  0  0  0  0999 V2000
  190.4870  176.3130  141.4090 N   0  0  0  0  0  0  0  0  0  0  0  0
  190.2740  177.5630  143.5640 C   0  0  1  0  0  3  0  0  0  0  0  0
  188.9270  175.6040  143.0550 O   0  0  0  0  0  1  0  0  0  0  0  0
  191.6810  178.4150  142.0140 C   0  0  0  0  0  2  0  0  0  0  0  0
  191.5560  178.1110  143.3810 O   0  0  0  0  0  0  0  0  0  0  0  0
  191.6940  177.1290  141.1790 C   0  0  0  0  0  2  0  0  0  0  0  0
  190.1760  176.2020  142.8510 C   0  0  1  0  0  3  0  0  0  0  0  0
  185.2270  179.8850  143.5380 C   0  0  0  0  0  1  0  0  0  0  0  0
  190.9390  177.3020  145.8380 O   0  0  0  0  0  0  0  0  0  0  0  0
  186.0130  177.7950  146.4490 C   0  0  2  0  0  3  0  0  0  0  0  0
  187.5180  177.5780  144.5440 C   0  0  0  0  0  2  0  0  0  0  0  0
  184.2130  178.8140  145.5380 C   0  0  0  0  0  0  0  0  0  0  0  0
  186.4460  178.4510  145.1600 C   0  0  1  0  0  3  0  0  0  0  0  0
  188.3500  177.1690  146.9230 C   0  0  0  0  0  2  0  0  0  0  0  0
  184.7590  178.4290  146.7930 N   0  0  0  0  0  2  0  0  0  0  0  0
  187.1290  177.9430  147.4600 C   0  0  0  0  0  2  0  0  0  0  0  0
  189.9810  177.4400  145.0280 C   0  0  0  0  0  0  0  0  0  0  0  0
  183.0300  179.2350  145.4200 O   0  0  0  0  0  0  0  0  0  0  0  0
  185.1520  178.6350  144.3910 C   0  0  2  0  0  3  0  0  0  0  0  0
  188.6260  177.4750  145.5070 N   0  0  0  0  0  0  0  0  0  0  0  0
  189.3350  176.7410  140.5830 C   0  0  1  0  0  3  0  0  0  0  0  0
  188.6880  178.0400  141.0460 C   0  0  0  0  0  1  0  0  0  0  0  0
  189.7100  176.8360  139.1100 C   0  0  0  0  0  2  0  0  0  0  0  0
  188.0680  175.9990  137.4670 C   0  0  0  0  0  1  0  0  0  0  0  0
  188.5050  177.2120  138.2620 C   0  0  2  0  0  3  0  0  0  0  0  0
  188.8590  178.3260  137.3260 C   0  0  0  0  0  0  0  0  0  0  0  0
  188.9960  179.4990  137.7670 O   0  0  0  0  0  0  0  0  0  0  0  0
  189.0370  178.0690  135.9320 N   0  0  0  0  0  1  0  0  0  0  0  0
  1  7  1  0  0  0  0
  2 17  1  1  0  0  0
  4  5  1  0  0  0  0
  5  2  1  0  0  0  0
  6  1  1  0  0  0  0
  6  4  1  0  0  0  0
  7  3  1  6  0  0  0
  7  2  1  0  0  0  0
 10 15  1  0  0  0  0
 10 16  1  1  0  0  0
 11 20  1  0  0  0  0
 12 15  1  0  0  0  0
 13 11  1  6  0  0  0
 13 10  1  0  0  0  0
 14 16  1  0  0  0  0
 17 20  1  0  0  0  0
 17  9  2  0  0  0  0
 18 12  2  0  0  0  0
 19  8  1  6  0  0  0
 19 13  1  0  0  0  0
 19 12  1  0  0  0  0
 20 14  1  0  0  0  0
 21 22  1  1  0  0  0
 21  1  1  0  0  0  0
 23 21  1  0  0  0  0
 25 24  1  6  0  0  0
 25 23  1  0  0  0  0
 26 27  2  0  0  0  0
 26 25  1  0  0  0  0
 28 26  1  0  0  0  0
M  END
>  <MODEL>
3

>  <REMARK>
 VINA RESULT:      -7.5      2.491      3.246
  Name = 
  5 active torsions:
  status: ('A' for Active; 'I' for Inactive)
    1  A    between atoms: N_1  and  C_2
    2  A    between atoms: C_2  and  C_3
    3  A    between atoms: C_3  and  C_11
    4  A    between atoms: C_6  and  C_11
    5  A    between atoms: C_16  and  C_20
                            x       y       z     vdW  Elec       q    Type
                         _______ _______ _______ _____ _____    ______ ____

>  <TORSDO>
F 5

$$$$
=
 OpenBabel10272401563D

 28 30  0  0  1  0  0  0  0  0999 V2000
  189.7020  176.7690  137.0300 N   0  0  0  0  0  0  0  0  0  0  0  0
  189.8760  177.3680  139.4510 C   0  0  1  0  0  3  0  0  0  0  0  0
  191.0230  175.4480  138.4990 O   0  0  0  0  0  1  0  0  0  0  0  0
  188.4740  178.6070  138.1820 C   0  0  0  0  0  2  0  0  0  0  0  0
  189.4800  178.6860  139.1620 O   0  0  0  0  0  0  0  0  0  0  0  0
  189.0530  178.0830  136.8610 C   0  0  0  0  0  2  0  0  0  0  0  0
  190.5710  176.7450  138.2270 C   0  0  1  0  0  3  0  0  0  0  0  0
  186.0030  178.4360  143.2880 C   0  0  0  0  0  1  0  0  0  0  0  0
  192.0070  177.5500  140.5030 O   0  0  0  0  0  0  0  0  0  0  0  0
  189.1230  176.9590  144.5300 C   0  0  2  0  0  3  0  0  0  0  0  0
  188.7850  176.8650  142.1180 C   0  0  0  0  0  2  0  0  0  0  0  0
  187.0460  177.4140  145.2990 C   0  0  0  0  0  0  0  0  0  0  0  0
  188.3150  177.5340  143.3910 C   0  0  1  0  0  3  0  0  0  0  0  0
  191.1370  176.9550  143.1080 C   0  0  0  0  0  2  0  0  0  0  0  0
  188.3990  177.3230  145.7280 N   0  0  0  0  0  2  0  0  0  0  0  0
  190.5380  177.4850  144.4270 C   0  0  0  0  0  2  0  0  0  0  0  0
  190.7680  177.3620  140.6540 C   0  0  0  0  0  0  0  0  0  0  0  0
  186.0890  177.5320  146.1100 O   0  0  0  0  0  0  0  0  0  0  0  0
  186.8770  177.3180  143.8180 C   0  0  2  0  0  3  0  0  0  0  0  0
  190.2230  177.1400  141.9660 N   0  0  0  0  0  0  0  0  0  0  0  0
  188.7470  175.6400  136.9640 C   0  0  1  0  0  3  0  0  0  0  0  0
  187.3340  175.9970  137.4060 C   0  0  0  0  0  1  0  0  0  0  0  0
  188.7210  175.0120  135.5770 C   0  0  0  0  0  2  0  0  0  0  0  0
  189.0850  172.9610  136.9030 C   0  0  0  0  0  1  0  0  0  0  0  0
  189.3840  173.6430  135.5840 C   0  0  2  0  0  3  0  0  0  0  0  0
  190.8660  173.7860  135.4170 C   0  0  0  0  0  0  0  0  0  0  0  0
  191.3280  174.6260  134.5980 O   0  0  0  0  0  0  0  0  0  0  0  0
  191.7600  172.9710  136.1760 N   0  0  0  0  0  1  0  0  0  0  0  0
  1  7  1  0  0  0  0
  2 17  1  1  0  0  0
  4  5  1  0  0  0  0
  5  2  1  0  0  0  0
  6  1  1  0  0  0  0
  6  4  1  0  0  0  0
  7  3  1  1  0  0  0
  7  2  1  0  0  0  0
  9 17  2  0  0  0  0
 10 16  1  1  0  0  0
 10 15  1  0  0  0  0
 12 15  1  0  0  0  0
 12 18  2  0  0  0  0
 13 11  1  6  0  0  0
 13 19  1  0  0  0  0
 13 10  1  0  0  0  0
 14 16  1  0  0  0  0
 17 20  1  0  0  0  0
 19  8  1  6  0  0  0
 19 12  1  0  0  0  0
 20 11  1  0  0  0  0
 20 14  1  0  0  0  0
 21  1  1  0  0  0  0
 21 22  1  6  0  0  0
 23 25  1  0  0  0  0
 23 21  1  0  0  0  0
 25 24  1  1  0  0  0
 26 25  1  0  0  0  0
 26 28  1  0  0  0  0
 27 26  2  0  0  0  0
M  END
>  <MODEL>
4

>  <REMARK>
 VINA RESULT:      -7.4      1.755      2.162
  Name = 
  5 active torsions:
  status: ('A' for Active; 'I' for Inactive)
    1  A    between atoms: N_1  and  C_2
    2  A    between atoms: C_2  and  C_3
    3  A    between atoms: C_3  and  C_11
    4  A    between atoms: C_6  and  C_11
    5  A    between atoms: C_16  and  C_20
                            x       y       z     vdW  Elec       q    Type
                         _______ _______ _______ _____ _____    ______ ____

>  <TORSDO>
F 5

$$$$
=
 OpenBabel10272401563D

 28 30  0  0  1  0  0  0  0  0999 V2000
  188.3710  176.9580  138.2470 N   0  0  0  0  0  0  0  0  0  0  0  0
  190.6610  176.9460  139.2510 C   0  0  1  0  0  3  0  0  0  0  0  0
  189.0220  178.6660  139.7650 O   0  0  0  0  0  1  0  0  0  0  0  0
  190.2050  175.3580  137.7080 C   0  0  0  0  0  2  0  0  0  0  0  0
  190.7850  175.5740  138.9700 O   0  0  0  0  0  0  0  0  0  0  0  0
  188.6910  175.6010  137.7650 C   0  0  0  0  0  2  0  0  0  0  0  0
  189.1780  177.3150  139.4340 C   0  0  1  0  0  3  0  0  0  0  0  0
  186.4440  177.7840  142.7690 C   0  0  0  0  0  1  0  0  0  0  0  0
  192.6560  177.6900  140.3210 O   0  0  0  0  0  0  0  0  0  0  0  0
  189.7100  177.1400  144.3100 C   0  0  2  0  0  3  0  0  0  0  0  0
  189.5350  176.6320  141.9320 C   0  0  0  0  0  2  0  0  0  0  0  0
  187.5450  177.2880  144.9410 C   0  0  0  0  0  0  0  0  0  0  0  0
  188.8750  177.3750  143.0740 C   0  0  1  0  0  3  0  0  0  0  0  0
  191.7670  177.3220  142.9620 C   0  0  0  0  0  2  0  0  0  0  0  0
  188.8640  177.5250  145.4170 N   0  0  0  0  0  2  0  0  0  0  0  0
  191.0040  177.9100  144.1670 C   0  0  0  0  0  2  0  0  0  0  0  0
  191.4680  177.2890  140.4650 C   0  0  0  0  0  0  0  0  0  0  0  0
  186.5380  177.3330  145.6970 O   0  0  0  0  0  0  0  0  0  0  0  0
  187.4810  176.9470  143.4880 C   0  0  2  0  0  3  0  0  0  0  0  0
  190.9010  177.1580  141.7800 N   0  0  0  0  0  0  0  0  0  0  0  0
  188.4100  177.9760  137.1720 C   0  0  1  0  0  3  0  0  0  0  0  0
  188.9530  177.4580  135.8470 C   0  0  0  0  0  1  0  0  0  0  0  0
  187.0470  178.6210  136.9650 C   0  0  0  0  0  2  0  0  0  0  0  0
  185.0890  177.2890  136.2660 C   0  0  0  0  0  1  0  0  0  0  0  0
  185.9310  177.7090  137.4520 C   0  0  2  0  0  3  0  0  0  0  0  0
  185.0730  178.4290  138.4480 C   0  0  0  0  0  0  0  0  0  0  0  0
  185.6090  179.0780  139.3860 O   0  0  0  0  0  0  0  0  0  0  0  0
  183.6500  178.3780  138.3440 N   0  0  0  0  0  1  0  0  0  0  0  0
  1  7  1  0  0  0  0
  2  7  1  0  0  0  0
  2 17  1  1  0  0  0
  4  6  1  0  0  0  0
  4  5  1  0  0  0  0
  5  2  1  0  0  0  0
  6  1  1  0  0  0  0
  7  3  1  6  0  0  0
  9 17  2  0  0  0  0
 10 16  1  6  0  0  0
 10 15  1  0  0  0  0
 12 15  1  0  0  0  0
 12 18  2  0  0  0  0
 13 11  1  6  0  0  0
 13 19  1  0  0  0  0
 13 10  1  0  0  0  0
 14 16  1  0  0  0  0
 17 20  1  0  0  0  0
 19  8  1  6  0  0  0
 19 12  1  0  0  0  0
 20 11  1  0  0  0  0
 20 14  1  0  0  0  0
 21 22  1  6  0  0  0
 21  1  1  0  0  0  0
 23 21  1  0  0  0  0
 23 25  1  0  0  0  0
 25 24  1  6  0  0  0
 25 26  1  0  0  0  0
 26 27  2  0  0  0  0
 28 26  1  0  0  0  0
M  END
>  <MODEL>
5

>  <REMARK>
 VINA RESULT:      -7.3      2.163      4.189
  Name = 
  5 active torsions:
  status: ('A' for Active; 'I' for Inactive)
    1  A    between atoms: N_1  and  C_2
    2  A    between atoms: C_2  and  C_3
    3  A    between atoms: C_3  and  C_11
    4  A    between atoms: C_6  and  C_11
    5  A    between atoms: C_16  and  C_20
                            x       y       z     vdW  Elec       q    Type
                         _______ _______ _______ _____ _____    ______ ____

>  <TORSDO>
F 5

$$$$
=
 OpenBabel10272401563D

 28 30  0  0  1  0  0  0  0  0999 V2000
  184.6940  178.4010  138.4070 N   0  0  0  0  0  0  0  0  0  0  0  0
  186.3130  178.3810  140.3110 C   0  0  1  0  0  3  0  0  0  0  0  0
  186.8200  177.3690  138.1600 O   0  0  0  0  0  1  0  0  0  0  0  0
  184.2680  179.2590  140.7080 C   0  0  0  0  0  2  0  0  0  0  0  0
  185.6450  179.4690  140.9010 O   0  0  0  0  0  0  0  0  0  0  0  0
  183.9150  179.3560  139.2180 C   0  0  0  0  0  2  0  0  0  0  0  0
  186.1240  178.4110  138.7840 C   0  0  1  0  0  3  0  0  0  0  0  0
  185.6730  178.6070  145.8250 C   0  0  0  0  0  1  0  0  0  0  0  0
  188.6120  178.7880  139.8320 O   0  0  0  0  0  0  0  0  0  0  0  0
  188.9640  177.5040  144.6390 C   0  0  2  0  0  3  0  0  0  0  0  0
  187.1870  177.5360  142.9710 C   0  0  0  0  0  2  0  0  0  0  0  0
  187.8150  177.6010  146.5830 C   0  0  0  0  0  0  0  0  0  0  0  0
  187.5840  178.0390  144.3430 C   0  0  1  0  0  3  0  0  0  0  0  0
  189.6240  177.8890  142.2950 C   0  0  0  0  0  2  0  0  0  0  0  0
  189.1380  177.6720  146.0650 N   0  0  0  0  0  2  0  0  0  0  0  0
  189.9590  178.2310  143.7610 C   0  0  0  0  0  2  0  0  0  0  0  0
  187.7630  178.4150  140.6870 C   0  0  0  0  0  0  0  0  0  0  0  0
  187.5800  177.5220  147.8190 O   0  0  0  0  0  0  0  0  0  0  0  0
  186.7560  177.5890  145.5300 C   0  0  2  0  0  3  0  0  0  0  0  0
  188.1850  178.0240  142.0050 N   0  0  0  0  0  0  0  0  0  0  0  0
  184.0950  177.0470  138.3760 C   0  0  1  0  0  3  0  0  0  0  0  0
  182.9260  176.8640  139.3340 C   0  0  0  0  0  1  0  0  0  0  0  0
  183.6850  176.6510  136.9640 C   0  0  0  0  0  2  0  0  0  0  0  0
  184.3860  175.4080  134.9490 C   0  0  0  0  0  1  0  0  0  0  0  0
  184.5260  175.4910  136.4550 C   0  0  2  0  0  3  0  0  0  0  0  0
  184.0640  174.2070  137.0740 C   0  0  0  0  0  0  0  0  0  0  0  0
  182.8440  173.8910  137.0290 O   0  0  0  0  0  0  0  0  0  0  0  0
  184.9970  173.3410  137.7210 N   0  0  0  0  0  1  0  0  0  0  0  0
  1  7  1  0  0  0  0
  1  6  1  0  0  0  0
  2 17  1  6  0  0  0
  2  5  1  0  0  0  0
  4  5  1  0  0  0  0
  6  4  1  0  0  0  0
  7  3  1  6  0  0  0
  7  2  1  0  0  0  0
  9 17  2  0  0  0  0
 10 16  1  6  0  0  0
 10 15  1  0  0  0  0
 12 18  2  0  0  0  0
 13 11  1  6  0  0  0
 13 10  1  0  0  0  0
 13 19  1  0  0  0  0
 14 16  1  0  0  0  0
 15 12  1  0  0  0  0
 17 20  1  0  0  0  0
 19  8  1  1  0  0  0
 19 12  1  0  0  0  0
 20 14  1  0  0  0  0
 20 11  1  0  0  0  0
 21  1  1  0  0  0  0
 21 22  1  1  0  0  0
 23 21  1  0  0  0  0
 25 24  1  6  0  0  0
 25 23  1  0  0  0  0
 25 26  1  0  0  0  0
 26 28  1  0  0  0  0
 27 26  2  0  0  0  0
M  END
>  <MODEL>
6

>  <REMARK>
 VINA RESULT:      -7.2      3.636      4.860
  Name = 
  5 active torsions:
  status: ('A' for Active; 'I' for Inactive)
    1  A    between atoms: N_1  and  C_2
    2  A    between atoms: C_2  and  C_3
    3  A    between atoms: C_3  and  C_11
    4  A    between atoms: C_6  and  C_11
    5  A    between atoms: C_16  and  C_20
                            x       y       z     vdW  Elec       q    Type
                         _______ _______ _______ _____ _____    ______ ____

>  <TORSDO>
F 5

$$$$
=
 OpenBabel10272401563D

 28 30  0  0  1  0  0  0  0  0999 V2000
  189.2120  178.1990  142.2710 N   0  0  0  0  0  0  0  0  0  0  0  0
  189.0200  177.7480  139.8190 C   0  0  1  0  0  3  0  0  0  0  0  0
  187.4640  179.1910  141.0040 O   0  0  0  0  0  1  0  0  0  0  0  0
  190.6300  176.6330  140.9480 C   0  0  0  0  0  2  0  0  0  0  0  0
  190.3730  177.3650  139.7750 O   0  0  0  0  0  0  0  0  0  0  0  0
  190.5300  177.5420  142.1800 C   0  0  0  0  0  2  0  0  0  0  0  0
  188.7920  178.7510  140.9640 C   0  0  1  0  0  3  0  0  0  0  0  0
  188.5240  172.9690  137.0300 C   0  0  0  0  0  1  0  0  0  0  0  0
  188.8850  179.5260  138.2380 O   0  0  0  0  0  0  0  0  0  0  0  0
  186.8050  175.8610  135.5690 C   0  0  2  0  0  3  0  0  0  0  0  0
  187.5650  176.1240  137.8700 C   0  0  0  0  0  2  0  0  0  0  0  0
  186.8880  173.6210  135.2770 C   0  0  0  0  0  0  0  0  0  0  0  0
  187.7210  175.2830  136.6210 C   0  0  1  0  0  3  0  0  0  0  0  0
  187.3730  178.1410  136.3160 C   0  0  0  0  0  2  0  0  0  0  0  0
  186.6930  174.8320  134.5580 N   0  0  0  0  0  2  0  0  0  0  0  0
  187.3780  177.1820  135.1070 C   0  0  0  0  0  2  0  0  0  0  0  0
  188.6150  178.3200  138.4950 C   0  0  0  0  0  0  0  0  0  0  0  0
  186.6770  172.4900  134.7610 O   0  0  0  0  0  0  0  0  0  0  0  0
  187.3200  173.8230  136.6930 C   0  0  2  0  0  3  0  0  0  0  0  0
  187.9230  177.5100  137.5300 N   0  0  0  0  0  0  0  0  0  0  0  0
  188.1860  177.3480  142.9160 C   0  0  1  0  0  3  0  0  0  0  0  0
  188.5850  175.8840  143.0420 C   0  0  0  0  0  1  0  0  0  0  0  0
  187.7780  177.9020  144.2740 C   0  0  0  0  0  2  0  0  0  0  0  0
  185.4380  178.2720  143.5770 C   0  0  0  0  0  1  0  0  0  0  0  0
  186.3260  177.5720  144.5850 C   0  0  2  0  0  3  0  0  0  0  0  0
  185.9760  178.0310  145.9670 C   0  0  0  0  0  0  0  0  0  0  0  0
  186.7830  177.8400  146.9170 O   0  0  0  0  0  0  0  0  0  0  0  0
  184.7290  178.6810  146.2180 N   0  0  0  0  0  1  0  0  0  0  0  0
  1 21  1  0  0  0  0
  2 17  1  6  0  0  0
  2  7  1  0  0  0  0
  4  6  1  0  0  0  0
  5  2  1  0  0  0  0
  5  4  1  0  0  0  0
  6  1  1  0  0  0  0
  7  3  1  1  0  0  0
  7  1  1  0  0  0  0
  9 17  2  0  0  0  0
 10 16  1  6  0  0  0
 10 13  1  0  0  0  0
 12 19  1  0  0  0  0
 13 19  1  0  0  0  0
 13 11  1  1  0  0  0
 14 20  1  0  0  0  0
 15 12  1  0  0  0  0
 15 10  1  0  0  0  0
 16 14  1  0  0  0  0
 18 12  2  0  0  0  0
 19  8  1  6  0  0  0
 20 11  1  0  0  0  0
 20 17  1  0  0  0  0
 21 22  1  1  0  0  0
 21 23  1  0  0  0  0
 23 25  1  0  0  0  0
 25 24  1  6  0  0  0
 25 26  1  0  0  0  0
 26 28  1  0  0  0  0
 26 27  2  0  0  0  0
M  END
>  <MODEL>
7

>  <REMARK>
 VINA RESULT:      -7.2      2.455      8.522
  Name = 
  5 active torsions:
  status: ('A' for Active; 'I' for Inactive)
    1  A    between atoms: N_1  and  C_2
    2  A    between atoms: C_2  and  C_3
    3  A    between atoms: C_3  and  C_11
    4  A    between atoms: C_6  and  C_11
    5  A    between atoms: C_16  and  C_20
                            x       y       z     vdW  Elec       q    Type
                         _______ _______ _______ _____ _____    ______ ____

>  <TORSDO>
F 5

$$$$
=
 OpenBabel10272401563D

 28 30  0  0  1  0  0  0  0  0999 V2000
  189.2290  178.2730  142.6990 N   0  0  0  0  0  0  0  0  0  0  0  0
  189.5390  177.6620  140.2950 C   0  0  1  0  0  3  0  0  0  0  0  0
  187.4750  178.6320  141.1380 O   0  0  0  0  0  1  0  0  0  0  0  0
  191.2180  177.1390  141.7140 C   0  0  0  0  0  2  0  0  0  0  0  0
  190.9350  177.7000  140.4560 O   0  0  0  0  0  0  0  0  0  0  0  0
  190.6800  178.0370  142.8350 C   0  0  0  0  0  2  0  0  0  0  0  0
  188.8640  178.6080  141.3050 C   0  0  1  0  0  3  0  0  0  0  0  0
  193.1230  174.2890  137.7190 C   0  0  0  0  0  1  0  0  0  0  0  0
  188.6100  179.1200  138.6540 O   0  0  0  0  0  0  0  0  0  0  0  0
  190.3110  175.4850  135.6910 C   0  0  2  0  0  3  0  0  0  0  0  0
  190.1070  175.8180  138.0960 C   0  0  0  0  0  2  0  0  0  0  0  0
  191.9660  173.9530  135.5460 C   0  0  0  0  0  0  0  0  0  0  0  0
  191.0870  175.5070  136.9860 C   0  0  1  0  0  3  0  0  0  0  0  0
  188.9690  177.4080  136.4540 C   0  0  0  0  0  2  0  0  0  0  0  0
  191.1770  174.8220  134.7420 N   0  0  0  0  0  2  0  0  0  0  0  0
  189.9150  176.9040  135.3450 C   0  0  0  0  0  2  0  0  0  0  0  0
  189.1840  178.0200  138.8840 C   0  0  0  0  0  0  0  0  0  0  0  0
  192.7160  173.0700  135.0480 O   0  0  0  0  0  0  0  0  0  0  0  0
  191.7880  174.1640  137.0130 C   0  0  2  0  0  3  0  0  0  0  0  0
  189.4890  177.1220  137.8040 N   0  0  0  0  0  0  0  0  0  0  0  0
  188.4100  177.1880  143.2860 C   0  0  1  0  0  3  0  0  0  0  0  0
  188.9450  175.7890  143.0110 C   0  0  0  0  0  1  0  0  0  0  0  0
  188.2070  177.3890  144.7810 C   0  0  0  0  0  2  0  0  0  0  0  0
  185.9380  178.0380  144.0570 C   0  0  0  0  0  1  0  0  0  0  0  0
  186.7310  177.3430  145.1440 C   0  0  2  0  0  3  0  0  0  0  0  0
  186.4990  178.0320  146.4540 C   0  0  0  0  0  0  0  0  0  0  0  0
  187.3580  177.9420  147.3730 O   0  0  0  0  0  0  0  0  0  0  0  0
  185.3070  178.7880  146.6710 N   0  0  0  0  0  1  0  0  0  0  0  0
  1  6  1  0  0  0  0
  1 21  1  0  0  0  0
  2 17  1  6  0  0  0
  2  5  1  0  0  0  0
  2  7  1  0  0  0  0
  4  6  1  0  0  0  0
  5  4  1  0  0  0  0
  7  3  1  1  0  0  0
  7  1  1  0  0  0  0
  9 17  2  0  0  0  0
 10 16  1  6  0  0  0
 10 13  1  0  0  0  0
 12 19  1  0  0  0  0
 13 19  1  0  0  0  0
 13 11  1  1  0  0  0
 14 20  1  0  0  0  0
 15 12  1  0  0  0  0
 15 10  1  0  0  0  0
 16 14  1  0  0  0  0
 18 12  2  0  0  0  0
 19  8  1  1  0  0  0
 20 11  1  0  0  0  0
 20 17  1  0  0  0  0
 21 22  1  1  0  0  0
 21 23  1  0  0  0  0
 23 25  1  0  0  0  0
 25 24  1  6  0  0  0
 25 26  1  0  0  0  0
 26 28  1  0  0  0  0
 26 27  2  0  0  0  0
M  END
>  <MODEL>
8

>  <REMARK>
 VINA RESULT:      -7.2      1.664      8.864
  Name = 
  5 active torsions:
  status: ('A' for Active; 'I' for Inactive)
    1  A    between atoms: N_1  and  C_2
    2  A    between atoms: C_2  and  C_3
    3  A    between atoms: C_3  and  C_11
    4  A    between atoms: C_6  and  C_11
    5  A    between atoms: C_16  and  C_20
                            x       y       z     vdW  Elec       q    Type
                         _______ _______ _______ _____ _____    ______ ____

>  <TORSDO>
F 5

$$$$
=
 OpenBabel10272401563D

 28 30  0  0  1  0  0  0  0  0999 V2000
  184.1410  178.3360  138.4240 N   0  0  0  0  0  0  0  0  0  0  0  0
  183.3130  177.8570  140.7340 C   0  0  1  0  0  3  0  0  0  0  0  0
  184.9940  179.5530  140.2780 O   0  0  0  0  0  1  0  0  0  0  0  0
  182.5410  176.5370  139.0700 C   0  0  0  0  0  2  0  0  0  0  0  0
  182.1510  177.2700  140.2050 O   0  0  0  0  0  0  0  0  0  0  0  0
  183.0290  177.4820  137.9640 C   0  0  0  0  0  2  0  0  0  0  0  0
  183.8630  178.9130  139.7580 C   0  0  1  0  0  3  0  0  0  0  0  0
  187.7930  175.9800  143.4310 C   0  0  0  0  0  1  0  0  0  0  0  0
  181.8240  178.7730  142.3540 O   0  0  0  0  0  0  0  0  0  0  0  0
  186.0650  178.8200  144.9810 C   0  0  2  0  0  3  0  0  0  0  0  0
  185.4510  178.3300  142.6740 C   0  0  0  0  0  2  0  0  0  0  0  0
  188.0050  177.6880  145.2240 C   0  0  0  0  0  0  0  0  0  0  0  0
  186.1320  177.7660  143.9020 C   0  0  1  0  0  3  0  0  0  0  0  0
  183.7770  179.4090  144.2720 C   0  0  0  0  0  2  0  0  0  0  0  0
  187.0350  178.4100  145.9720 N   0  0  0  0  0  2  0  0  0  0  0  0
  184.6330  178.9240  145.4600 C   0  0  0  0  0  2  0  0  0  0  0  0
  183.0120  178.4510  142.0760 C   0  0  0  0  0  0  0  0  0  0  0  0
  189.1070  177.3290  145.7200 O   0  0  0  0  0  0  0  0  0  0  0  0
  187.6090  177.4360  143.8060 C   0  0  2  0  0  3  0  0  0  0  0  0
  184.0630  178.6570  143.0360 N   0  0  0  0  0  0  0  0  0  0  0  0
  185.4600  177.6710  138.3250 C   0  0  1  0  0  3  0  0  0  0  0  0
  185.5740  176.6890  137.1680 C   0  0  0  0  0  1  0  0  0  0  0  0
  186.5930  178.6870  138.2660 C   0  0  0  0  0  2  0  0  0  0  0  0
  188.2510  178.3810  140.0700 C   0  0  0  0  0  1  0  0  0  0  0  0
  187.9230  178.0450  138.6300 C   0  0  2  0  0  3  0  0  0  0  0  0
  189.0070  178.5590  137.7340 C   0  0  0  0  0  0  0  0  0  0  0  0
  189.0720  179.7890  137.4680 O   0  0  0  0  0  0  0  0  0  0  0  0
  189.9660  177.6610  137.1740 N   0  0  0  0  0  1  0  0  0  0  0  0
  1  7  1  0  0  0  0
  2 17  1  1  0  0  0
  4  5  1  0  0  0  0
  5  2  1  0  0  0  0
  6  1  1  0  0  0  0
  6  4  1  0  0  0  0
  7  3  1  1  0  0  0
  7  2  1  0  0  0  0
 10 16  1  1  0  0  0
 10 15  1  0  0  0  0
 11 20  1  0  0  0  0
 12 18  2  0  0  0  0
 12 15  1  0  0  0  0
 13 11  1  6  0  0  0
 13 10  1  0  0  0  0
 14 16  1  0  0  0  0
 17  9  2  0  0  0  0
 17 20  1  0  0  0  0
 19  8  1  1  0  0  0
 19 13  1  0  0  0  0
 19 12  1  0  0  0  0
 20 14  1  0  0  0  0
 21 22  1  6  0  0  0
 21  1  1  0  0  0  0
 23 21  1  0  0  0  0
 23 25  1  0  0  0  0
 25 24  1  1  0  0  0
 26 25  1  0  0  0  0
 27 26  2  0  0  0  0
 28 26  1  0  0  0  0
M  END
>  <MODEL>
9

>  <REMARK>
 VINA RESULT:      -7.1      3.276      5.221
  Name = 
  5 active torsions:
  status: ('A' for Active; 'I' for Inactive)
    1  A    between atoms: N_1  and  C_2
    2  A    between atoms: C_2  and  C_3
    3  A    between atoms: C_3  and  C_11
    4  A    between atoms: C_6  and  C_11
    5  A    between atoms: C_16  and  C_20
                            x       y       z     vdW  Elec       q    Type
                         _______ _______ _______ _____ _____    ______ ____

>  <TORSDO>
F 5

$$$$
