=
 OpenBabel10272402053D

 32 36  0  0  1  0  0  0  0  0999 V2000
  187.2930  178.3860  139.1060 C   0  0  0  0  0  0  0  0  0  0  0  0
  187.2140  178.7580  141.5880 C   0  0  1  0  0  3  0  0  0  0  0  0
  186.9090  178.8090  137.9820 O   0  0  0  0  0  0  0  0  0  0  0  0
  186.5150  178.6250  140.3000 N   0  0  0  0  0  0  0  0  0  0  0  0
  186.5590  177.8200  142.6230 C   0  0  1  0  0  3  0  0  0  0  0  0
  191.2520  177.4740  144.2270 C   0  0  0  0  0  2  0  0  0  0  0  0
  188.7270  178.4720  141.4610 C   0  0  2  0  0  3  0  0  0  0  0  0
  189.1660  177.0710  145.0180 C   0  0  0  0  0  2  0  0  0  0  0  0
  188.4770  177.3110  143.6760 C   0  0  1  0  0  3  0  0  0  0  0  0
  185.0550  178.8590  140.3140 C   0  0  2  0  0  3  0  0  0  0  0  0
  187.2120  177.8910  143.8680 O   0  0  0  0  0  0  0  0  0  0  0  0
  184.3760  178.0220  141.4110 C   0  0  0  0  0  2  0  0  0  0  0  0
  188.9330  177.3110  140.5970 N   0  0  0  0  0  2  0  0  0  0  0  0
  188.6350  177.7040  139.2180 C   0  0  1  0  0  3  0  0  0  0  0  0
  189.3480  178.2610  142.8460 C   0  0  1  0  0  3  0  0  0  0  0  0
  185.0720  178.1480  142.7680 C   0  0  2  0  0  3  0  0  0  0  0  0
  190.4290  176.4850  144.8030 O   0  0  0  0  0  0  0  0  0  0  0  0
  190.7950  177.7770  142.7980 C   0  0  0  0  0  2  0  0  0  0  0  0
  189.9630  174.7600  137.1590 C   0  0  0  0  0  0  0  0  0  0  0  0
  191.5330  173.9710  136.7760 S   0  0  0  0  0  1  0  0  0  0  0  0
  187.5490  174.8910  136.9400 C   0  0  0  0  0  3  0  0  0  0  0  0
  188.7160  176.5080  138.3150 C   0  0  0  0  0  0  0  0  0  0  0  0
  188.7590  174.2680  136.6210 C   0  0  0  0  0  0  0  0  0  0  0  0
  187.5280  176.0030  137.7800 C   0  0  0  0  0  3  0  0  0  0  0  0
  189.9410  175.8830  138.0040 C   0  0  0  0  0  0  0  0  0  0  0  0
  191.1310  176.3750  138.5340 O   0  0  0  0  0  1  0  0  0  0  0  0
  188.1060  172.0080  136.4000 O   0  0  0  0  0  1  0  0  0  0  0  0
  188.7300  173.0650  135.7370 C   0  0  0  0  0  2  0  0  0  0  0  0
  184.8440  179.5280  143.3810 C   0  0  0  0  0  2  0  0  0  0  0  0
  183.8490  179.4600  144.3540 O   0  0  0  0  0  1  0  0  0  0  0  0
  184.3550  178.5890  138.9810 C   0  0  0  0  0  2  0  0  0  0  0  0
  183.6700  177.3720  139.0140 O   0  0  0  0  0  1  0  0  0  0  0  0
  1 14  1  0  0  0  0
  1  4  1  0  0  0  0
  2  4  1  6  0  0  0
  2  5  1  0  0  0  0
  3  1  2  0  0  0  0
  4 10  1  0  0  0  0
  5 16  1  0  0  0  0
  5 11  1  1  0  0  0
  6 17  1  0  0  0  0
  7 13  1  6  0  0  0
  7  2  1  0  0  0  0
  7 15  1  0  0  0  0
  9 11  1  0  0  0  0
  9  8  1  1  0  0  0
 10 31  1  6  0  0  0
 10 12  1  0  0  0  0
 12 16  1  0  0  0  0
 14 22  1  6  0  0  0
 14 13  1  0  0  0  0
 15 18  1  6  0  0  0
 15  9  1  0  0  0  0
 16 29  1  6  0  0  0
 17  8  1  0  0  0  0
 18  6  1  0  0  0  0
 19 25  1  0  0  0  0
 20 19  1  0  0  0  0
 21 24  2  0  0  0  0
 23 21  1  0  0  0  0
 23 19  2  0  0  0  0
 24 22  1  0  0  0  0
 25 22  2  0  0  0  0
 25 26  1  0  0  0  0
 28 27  1  0  0  0  0
 28 23  1  0  0  0  0
 29 30  1  0  0  0  0
 31 32  1  0  0  0  0
M  END
>  <MODEL>
1

>  <REMARK>
 VINA RESULT:      -7.7      0.000      0.000
  Name = 
  4 active torsions:
  status: ('A' for Active; 'I' for Inactive)
    1  A    between atoms: C_13  and  C_29
    2  A    between atoms: CA_14  and  C_21
    3  A    between atoms: C_16  and  CA_27
    4  A    between atoms: C_19  and  C_26
                            x       y       z     vdW  Elec       q    Type
                         _______ _______ _______ _____ _____    ______ ____

>  <TORSDO>
F 4

$$$$
=
 OpenBabel10272402053D

 32 36  0  0  1  0  0  0  0  0999 V2000
  185.8430  179.1560  142.1030 C   0  0  0  0  0  0  0  0  0  0  0  0
  188.1880  178.2830  141.8880 C   0  0  1  0  0  3  0  0  0  0  0  0
  185.0480  179.8230  142.8180 O   0  0  0  0  0  0  0  0  0  0  0  0
  186.9650  178.4550  142.6870 N   0  0  0  0  0  0  0  0  0  0  0  0
  188.6070  176.7980  141.9090 C   0  0  1  0  0  3  0  0  0  0  0  0
  190.0690  177.8790  137.2820 C   0  0  0  0  0  2  0  0  0  0  0  0
  188.0130  178.7880  140.4390 C   0  0  2  0  0  3  0  0  0  0  0  0
  190.4630  176.2860  138.8460 C   0  0  0  0  0  2  0  0  0  0  0  0
  189.3740  176.7750  139.7980 C   0  0  1  0  0  3  0  0  0  0  0  0
  187.0190  177.9840  144.0880 C   0  0  2  0  0  3  0  0  0  0  0  0
  189.7600  176.5780  141.1330 O   0  0  0  0  0  0  0  0  0  0  0  0
  187.5390  176.5390  144.1610 C   0  0  0  0  0  2  0  0  0  0  0  0
  186.7060  178.3730  139.9320 N   0  0  0  0  0  2  0  0  0  0  0  0
  185.6760  179.1710  140.6030 C   0  0  1  0  0  3  0  0  0  0  0  0
  189.1510  178.2720  139.5530 C   0  0  1  0  0  3  0  0  0  0  0  0
  188.8200  176.3280  143.3490 C   0  0  2  0  0  3  0  0  0  0  0  0
  190.0530  176.4890  137.5140 O   0  0  0  0  0  0  0  0  0  0  0  0
  188.9450  178.5590  138.0670 C   0  0  0  0  0  2  0  0  0  0  0  0
  182.2100  178.9390  138.9910 C   0  0  0  0  0  0  0  0  0  0  0  0
  181.1570  179.8980  137.8940 S   0  0  0  0  0  1  0  0  0  0  0  0
  182.6180  176.9660  140.3460 C   0  0  0  0  0  3  0  0  0  0  0  0
  184.3120  178.6910  140.2020 C   0  0  0  0  0  0  0  0  0  0  0  0
  181.7790  177.7000  139.5030 C   0  0  0  0  0  0  0  0  0  0  0  0
  183.8750  177.4590  140.6940 C   0  0  0  0  0  3  0  0  0  0  0  0
  183.4760  179.4360  139.3450 C   0  0  0  0  0  0  0  0  0  0  0  0
  183.9030  180.6640  138.8460 O   0  0  0  0  0  1  0  0  0  0  0  0
  180.0080  176.2800  140.1590 O   0  0  0  0  0  1  0  0  0  0  0  0
  180.4530  177.1210  139.1380 C   0  0  0  0  0  2  0  0  0  0  0  0
  190.0120  177.0180  144.0090 C   0  0  0  0  0  2  0  0  0  0  0  0
  189.9160  176.9130  145.3960 O   0  0  0  0  0  1  0  0  0  0  0  0
  185.6890  178.0700  144.8400 C   0  0  0  0  0  2  0  0  0  0  0  0
  185.8030  178.8940  145.9630 O   0  0  0  0  0  1  0  0  0  0  0  0
  1  4  1  0  0  0  0
  1  3  2  0  0  0  0
  2  5  1  0  0  0  0
  2  4  1  1  0  0  0
  4 10  1  0  0  0  0
  5 11  1  6  0  0  0
  5 16  1  0  0  0  0
  6 17  1  0  0  0  0
  6 18  1  0  0  0  0
  7 13  1  6  0  0  0
  7  2  1  0  0  0  0
  9  8  1  6  0  0  0
  9 11  1  0  0  0  0
 10 12  1  0  0  0  0
 10 31  1  6  0  0  0
 13 14  1  0  0  0  0
 14 22  1  1  0  0  0
 14  1  1  0  0  0  0
 15 18  1  6  0  0  0
 15  9  1  0  0  0  0
 15  7  1  0  0  0  0
 16 29  1  1  0  0  0
 16 12  1  0  0  0  0
 17  8  1  0  0  0  0
 19 25  2  0  0  0  0
 19 23  1  0  0  0  0
 20 19  1  0  0  0  0
 21 24  1  0  0  0  0
 22 24  2  0  0  0  0
 23 21  2  0  0  0  0
 25 22  1  0  0  0  0
 26 25  1  0  0  0  0
 28 23  1  0  0  0  0
 28 27  1  0  0  0  0
 29 30  1  0  0  0  0
 31 32  1  0  0  0  0
M  END
>  <MODEL>
2

>  <REMARK>
 VINA RESULT:      -7.6      3.091      6.172
  Name = 
  4 active torsions:
  status: ('A' for Active; 'I' for Inactive)
    1  A    between atoms: C_13  and  C_29
    2  A    between atoms: CA_14  and  C_21
    3  A    between atoms: C_16  and  CA_27
    4  A    between atoms: C_19  and  C_26
                            x       y       z     vdW  Elec       q    Type
                         _______ _______ _______ _____ _____    ______ ____

>  <TORSDO>
F 4

$$$$
=
 OpenBabel10272402053D

 32 36  0  0  1  0  0  0  0  0999 V2000
  185.5910  178.8100  139.9410 C   0  0  0  0  0  0  0  0  0  0  0  0
  188.0260  178.4190  140.4130 C   0  0  1  0  0  3  0  0  0  0  0  0
  184.5780  179.5050  140.2280 O   0  0  0  0  0  0  0  0  0  0  0  0
  186.6510  178.6030  140.9020 N   0  0  0  0  0  0  0  0  0  0  0  0
  188.6320  177.1550  141.0560 C   0  0  1  0  0  3  0  0  0  0  0  0
  190.8670  176.8340  136.6270 C   0  0  0  0  0  2  0  0  0  0  0  0
  188.0890  178.3410  138.8710 C   0  0  2  0  0  3  0  0  0  0  0  0
  191.1410  176.0020  138.7170 C   0  0  0  0  0  2  0  0  0  0  0  0
  189.8200  176.5570  139.2450 C   0  0  1  0  0  3  0  0  0  0  0  0
  186.4750  178.6710  142.3690 C   0  0  2  0  0  3  0  0  0  0  0  0
  189.9410  176.9210  140.5960 O   0  0  0  0  0  0  0  0  0  0  0  0
  187.1630  177.4810  143.0590 C   0  0  0  0  0  2  0  0  0  0  0  0
  186.9880  177.5160  138.3790 N   0  0  0  0  0  2  0  0  0  0  0  0
  185.7410  178.2670  138.5410 C   0  0  1  0  0  3  0  0  0  0  0  0
  189.4480  177.7950  138.4210 C   0  0  1  0  0  3  0  0  0  0  0  0
  188.6010  177.2700  142.5810 C   0  0  2  0  0  3  0  0  0  0  0  0
  190.9950  175.6400  137.3640 O   0  0  0  0  0  0  0  0  0  0  0  0
  189.5200  177.4980  136.9240 C   0  0  0  0  0  2  0  0  0  0  0  0
  183.2180  176.2110  136.5230 C   0  0  0  0  0  0  0  0  0  0  0  0
  182.9160  175.7270  134.8180 S   0  0  0  0  0  1  0  0  0  0  0  0
  182.6160  176.1680  138.8740 C   0  0  0  0  0  3  0  0  0  0  0  0
  184.5710  177.4080  138.1610 C   0  0  0  0  0  0  0  0  0  0  0  0
  182.3580  175.7890  137.5550 C   0  0  0  0  0  0  0  0  0  0  0  0
  183.7140  176.9730  139.1750 C   0  0  0  0  0  3  0  0  0  0  0  0
  184.3220  177.0250  136.8270 C   0  0  0  0  0  0  0  0  0  0  0  0
  185.1710  177.4500  135.8080 O   0  0  0  0  0  1  0  0  0  0  0  0
  180.7450  174.3270  138.4750 O   0  0  0  0  0  1  0  0  0  0  0  0
  181.1850  174.9060  137.2840 C   0  0  0  0  0  2  0  0  0  0  0  0
  189.5220  178.3760  143.0920 C   0  0  0  0  0  2  0  0  0  0  0  0
  189.7780  178.1930  144.4510 O   0  0  0  0  0  1  0  0  0  0  0  0
  185.0190  178.7380  142.8330 C   0  0  0  0  0  2  0  0  0  0  0  0
  184.8060  179.8480  143.6540 O   0  0  0  0  0  1  0  0  0  0  0  0
  1  3  2  0  0  0  0
  1  4  1  0  0  0  0
  2  4  1  6  0  0  0
  2  5  1  0  0  0  0
  4 10  1  0  0  0  0
  5 11  1  6  0  0  0
  5 16  1  0  0  0  0
  6 18  1  0  0  0  0
  6 17  1  0  0  0  0
  7 13  1  1  0  0  0
  7  2  1  0  0  0  0
  9  8  1  6  0  0  0
  9 11  1  0  0  0  0
 10 31  1  6  0  0  0
 10 12  1  0  0  0  0
 13 14  1  0  0  0  0
 14 22  1  1  0  0  0
 14  1  1  0  0  0  0
 15 18  1  6  0  0  0
 15  7  1  0  0  0  0
 15  9  1  0  0  0  0
 16 12  1  0  0  0  0
 16 29  1  6  0  0  0
 17  8  1  0  0  0  0
 19 25  2  0  0  0  0
 19 23  1  0  0  0  0
 20 19  1  0  0  0  0
 21 24  1  0  0  0  0
 22 24  2  0  0  0  0
 23 21  2  0  0  0  0
 25 22  1  0  0  0  0
 26 25  1  0  0  0  0
 28 23  1  0  0  0  0
 28 27  1  0  0  0  0
 29 30  1  0  0  0  0
 31 32  1  0  0  0  0
M  END
>  <MODEL>
3

>  <REMARK>
 VINA RESULT:      -6.5      2.688      5.256
  Name = 
  4 active torsions:
  status: ('A' for Active; 'I' for Inactive)
    1  A    between atoms: C_13  and  C_29
    2  A    between atoms: CA_14  and  C_21
    3  A    between atoms: C_16  and  CA_27
    4  A    between atoms: C_19  and  C_26
                            x       y       z     vdW  Elec       q    Type
                         _______ _______ _______ _____ _____    ______ ____

>  <TORSDO>
F 4

$$$$
=
 OpenBabel10272402053D

 32 36  0  0  1  0  0  0  0  0999 V2000
  187.7200  178.4140  139.5180 C   0  0  0  0  0  0  0  0  0  0  0  0
  186.2530  177.6040  137.6480 C   0  0  1  0  0  3  0  0  0  0  0  0
  188.8400  178.9100  139.8150 O   0  0  0  0  0  0  0  0  0  0  0  0
  187.5540  177.6010  138.3340 N   0  0  0  0  0  0  0  0  0  0  0  0
  185.7880  176.1500  137.4270 C   0  0  1  0  0  3  0  0  0  0  0  0
  181.3260  178.2100  138.1750 C   0  0  0  0  0  2  0  0  0  0  0  0
  185.1890  178.4130  138.4220 C   0  0  2  0  0  3  0  0  0  0  0  0
  182.1770  176.3130  137.2710 C   0  0  0  0  0  2  0  0  0  0  0  0
  183.6060  176.5860  137.7350 C   0  0  1  0  0  3  0  0  0  0  0  0
  188.6410  176.8350  137.6860 C   0  0  2  0  0  3  0  0  0  0  0  0
  184.5310  176.1010  136.7960 O   0  0  0  0  0  0  0  0  0  0  0  0
  188.1800  175.4080  137.3480 C   0  0  0  0  0  2  0  0  0  0  0  0
  185.2970  178.1210  139.8500 N   0  0  0  0  0  2  0  0  0  0  0  0
  186.5150  178.7560  140.3600 C   0  0  1  0  0  3  0  0  0  0  0  0
  183.7880  178.1000  137.8870 C   0  0  1  0  0  3  0  0  0  0  0  0
  186.8340  175.3770  136.6210 C   0  0  2  0  0  3  0  0  0  0  0  0
  181.2680  176.8030  138.2280 O   0  0  0  0  0  0  0  0  0  0  0  0
  182.6650  178.7050  138.7270 C   0  0  0  0  0  2  0  0  0  0  0  0
  186.0510  178.3410  144.1380 C   0  0  0  0  0  0  0  0  0  0  0  0
  184.8700  178.7890  145.4180 S   0  0  0  0  0  1  0  0  0  0  0  0
  188.1140  177.2670  143.4430 C   0  0  0  0  0  3  0  0  0  0  0  0
  186.7280  178.3780  141.7960 C   0  0  0  0  0  0  0  0  0  0  0  0
  187.2150  177.6140  144.4540 C   0  0  0  0  0  0  0  0  0  0  0  0
  187.8740  177.6480  142.1240 C   0  0  0  0  0  3  0  0  0  0  0  0
  185.8110  178.7270  142.8090 C   0  0  0  0  0  0  0  0  0  0  0  0
  184.6640  179.4510  142.4940 O   0  0  0  0  0  1  0  0  0  0  0  0
  188.8800  177.0410  146.0290 O   0  0  0  0  0  1  0  0  0  0  0  0
  187.5020  177.1630  145.8480 C   0  0  0  0  0  2  0  0  0  0  0  0
  186.9640  175.9040  135.1930 C   0  0  0  0  0  2  0  0  0  0  0  0
  188.0500  175.3010  134.5600 O   0  0  0  0  0  1  0  0  0  0  0  0
  189.9360  176.7580  138.4970 C   0  0  0  0  0  2  0  0  0  0  0  0
  190.4660  175.4660  138.4710 O   0  0  0  0  0  1  0  0  0  0  0  0
  1  3  2  0  0  0  0
  1 14  1  0  0  0  0
  2  4  1  1  0  0  0
  2  7  1  0  0  0  0
  4  1  1  0  0  0  0
  5 11  1  6  0  0  0
  5  2  1  0  0  0  0
  6 17  1  0  0  0  0
  6 18  1  0  0  0  0
  7 13  1  1  0  0  0
  8 17  1  0  0  0  0
  9  8  1  6  0  0  0
  9 15  1  0  0  0  0
 10  4  1  0  0  0  0
 10 31  1  1  0  0  0
 11  9  1  0  0  0  0
 12 10  1  0  0  0  0
 13 14  1  0  0  0  0
 14 22  1  1  0  0  0
 15  7  1  0  0  0  0
 15 18  1  1  0  0  0
 16 29  1  6  0  0  0
 16 12  1  0  0  0  0
 16  5  1  0  0  0  0
 19 23  1  0  0  0  0
 19 20  1  0  0  0  0
 21 23  2  0  0  0  0
 22 24  2  0  0  0  0
 22 25  1  0  0  0  0
 23 28  1  0  0  0  0
 24 21  1  0  0  0  0
 25 19  2  0  0  0  0
 26 25  1  0  0  0  0
 28 27  1  0  0  0  0
 30 29  1  0  0  0  0
 32 31  1  0  0  0  0
M  END
>  <MODEL>
4

>  <REMARK>
 VINA RESULT:      -6.4      2.843      7.674
  Name = 
  4 active torsions:
  status: ('A' for Active; 'I' for Inactive)
    1  A    between atoms: C_13  and  C_29
    2  A    between atoms: CA_14  and  C_21
    3  A    between atoms: C_16  and  CA_27
    4  A    between atoms: C_19  and  C_26
                            x       y       z     vdW  Elec       q    Type
                         _______ _______ _______ _____ _____    ______ ____

>  <TORSDO>
F 4

$$$$
=
 OpenBabel10272402053D

 32 36  0  0  1  0  0  0  0  0999 V2000
  188.3880  178.1420  138.5600 C   0  0  0  0  0  0  0  0  0  0  0  0
  187.4380  176.8550  136.6240 C   0  0  1  0  0  3  0  0  0  0  0  0
  189.3560  178.8410  138.9650 O   0  0  0  0  0  0  0  0  0  0  0  0
  188.5640  177.1490  137.5250 N   0  0  0  0  0  0  0  0  0  0  0  0
  187.2060  175.3310  136.5770 C   0  0  1  0  0  3  0  0  0  0  0  0
  182.4700  176.7790  136.1400 C   0  0  0  0  0  2  0  0  0  0  0  0
  186.1500  177.5990  137.0420 C   0  0  2  0  0  3  0  0  0  0  0  0
  183.7080  174.9220  135.7460 C   0  0  0  0  0  2  0  0  0  0  0  0
  184.9700  175.4720  136.4070 C   0  0  1  0  0  3  0  0  0  0  0  0
  189.8440  176.4710  137.2250 C   0  0  2  0  0  3  0  0  0  0  0  0
  186.1180  175.0010  135.7480 O   0  0  0  0  0  0  0  0  0  0  0  0
  189.6360  174.9560  137.0610 C   0  0  0  0  0  2  0  0  0  0  0  0
  186.0000  177.5380  138.4940 N   0  0  0  0  0  2  0  0  0  0  0  0
  187.0050  178.4170  139.0990 C   0  0  1  0  0  3  0  0  0  0  0  0
  184.9340  177.0020  136.3250 C   0  0  1  0  0  3  0  0  0  0  0  0
  188.4780  174.6160  136.1190 C   0  0  2  0  0  3  0  0  0  0  0  0
  182.5720  175.4020  136.4240 O   0  0  0  0  0  0  0  0  0  0  0  0
  183.6000  177.5470  136.8310 C   0  0  0  0  0  2  0  0  0  0  0  0
  185.9290  178.6870  142.7640 C   0  0  0  0  0  0  0  0  0  0  0  0
  184.5920  179.3910  143.7380 S   0  0  0  0  0  1  0  0  0  0  0  0
  188.0060  177.4380  142.6090 C   0  0  0  0  0  3  0  0  0  0  0  0
  186.9660  178.2890  140.5930 C   0  0  0  0  0  0  0  0  0  0  0  0
  186.9820  177.9870  143.3850 C   0  0  0  0  0  0  0  0  0  0  0  0
  187.9990  177.5900  141.2230 C   0  0  0  0  0  3  0  0  0  0  0  0
  185.9250  178.8410  141.3670 C   0  0  0  0  0  0  0  0  0  0  0  0
  184.8880  179.5370  140.7510 O   0  0  0  0  0  1  0  0  0  0  0  0
  188.3290  177.9050  145.3240 O   0  0  0  0  0  1  0  0  0  0  0  0
  187.0190  177.7780  144.8630 C   0  0  0  0  0  2  0  0  0  0  0  0
  188.8300  174.9420  134.6690 C   0  0  0  0  0  2  0  0  0  0  0  0
  190.0720  174.3970  134.3460 O   0  0  0  0  0  1  0  0  0  0  0  0
  190.9470  176.7100  138.2580 C   0  0  0  0  0  2  0  0  0  0  0  0
  190.8590  175.7880  139.3040 O   0  0  0  0  0  1  0  0  0  0  0  0
  1  3  2  0  0  0  0
  1 14  1  0  0  0  0
  2  7  1  0  0  0  0
  2  4  1  1  0  0  0
  4  1  1  0  0  0  0
  5 11  1  6  0  0  0
  5  2  1  0  0  0  0
  6 17  1  0  0  0  0
  6 18  1  0  0  0  0
  7 13  1  1  0  0  0
  8 17  1  0  0  0  0
  9  8  1  6  0  0  0
 10  4  1  0  0  0  0
 10 31  1  1  0  0  0
 11  9  1  0  0  0  0
 12 10  1  0  0  0  0
 13 14  1  0  0  0  0
 14 22  1  1  0  0  0
 15  9  1  0  0  0  0
 15 18  1  1  0  0  0
 15  7  1  0  0  0  0
 16 29  1  6  0  0  0
 16  5  1  0  0  0  0
 16 12  1  0  0  0  0
 19 23  1  0  0  0  0
 19 20  1  0  0  0  0
 21 23  2  0  0  0  0
 22 24  2  0  0  0  0
 22 25  1  0  0  0  0
 23 28  1  0  0  0  0
 24 21  1  0  0  0  0
 25 19  2  0  0  0  0
 26 25  1  0  0  0  0
 28 27  1  0  0  0  0
 30 29  1  0  0  0  0
 31 32  1  0  0  0  0
M  END
>  <MODEL>
5

>  <REMARK>
 VINA RESULT:      -6.3      2.966      7.906
  Name = 
  4 active torsions:
  status: ('A' for Active; 'I' for Inactive)
    1  A    between atoms: C_13  and  C_29
    2  A    between atoms: CA_14  and  C_21
    3  A    between atoms: C_16  and  CA_27
    4  A    between atoms: C_19  and  C_26
                            x       y       z     vdW  Elec       q    Type
                         _______ _______ _______ _____ _____    ______ ____

>  <TORSDO>
F 4

$$$$
=
 OpenBabel10272402053D

 32 36  0  0  1  0  0  0  0  0999 V2000
  191.3670  177.2820  139.2360 C   0  0  0  0  0  0  0  0  0  0  0  0
  189.9960  176.4290  137.3130 C   0  0  1  0  0  3  0  0  0  0  0  0
  192.4930  177.7250  139.5900 O   0  0  0  0  0  0  0  0  0  0  0  0
  191.2360  176.3930  138.1040 N   0  0  0  0  0  0  0  0  0  0  0  0
  189.4470  174.9960  137.1590 C   0  0  1  0  0  3  0  0  0  0  0  0
  185.1000  177.3970  137.3820 C   0  0  0  0  0  2  0  0  0  0  0  0
  188.9360  177.3640  137.9350 C   0  0  2  0  0  3  0  0  0  0  0  0
  185.8800  175.3850  136.6900 C   0  0  0  0  0  2  0  0  0  0  0  0
  187.2840  175.5970  137.2520 C   0  0  1  0  0  3  0  0  0  0  0  0
  192.3130  175.5100  137.6060 C   0  0  2  0  0  3  0  0  0  0  0  0
  188.2430  174.9820  136.4300 O   0  0  0  0  0  0  0  0  0  0  0  0
  191.7780  174.0940  137.3330 C   0  0  0  0  0  2  0  0  0  0  0  0
  188.9100  177.1770  139.3850 N   0  0  0  0  0  2  0  0  0  0  0  0
  190.1270  177.7670  139.9480 C   0  0  1  0  0  3  0  0  0  0  0  0
  187.5620  177.1040  137.3090 C   0  0  1  0  0  3  0  0  0  0  0  0
  190.4940  174.0960  136.5000 C   0  0  2  0  0  3  0  0  0  0  0  0
  184.9360  176.0060  137.5310 O   0  0  0  0  0  0  0  0  0  0  0  0
  186.4230  177.8450  138.0070 C   0  0  0  0  0  2  0  0  0  0  0  0
  189.2100  177.3920  143.6470 C   0  0  0  0  0  0  0  0  0  0  0  0
  187.7910  177.6330  144.7240 S   0  0  0  0  0  1  0  0  0  0  0  0
  191.5220  176.7370  143.3050 C   0  0  0  0  0  3  0  0  0  0  0  0
  190.2000  177.4880  141.4200 C   0  0  0  0  0  0  0  0  0  0  0  0
  190.4350  176.9270  144.1620 C   0  0  0  0  0  0  0  0  0  0  0  0
  191.4060  177.0170  141.9450 C   0  0  0  0  0  3  0  0  0  0  0  0
  189.0940  177.6760  142.2760 C   0  0  0  0  0  0  0  0  0  0  0  0
  187.8860  178.1420  141.7640 O   0  0  0  0  0  1  0  0  0  0  0  0
  191.8230  177.0780  146.0680 O   0  0  0  0  0  1  0  0  0  0  0  0
  190.5990  176.5900  145.6070 C   0  0  0  0  0  2  0  0  0  0  0  0
  190.7730  174.5010  135.0540 C   0  0  0  0  0  2  0  0  0  0  0  0
  191.8190  173.7370  134.5380 O   0  0  0  0  0  1  0  0  0  0  0  0
  193.5310  175.4100  138.5250 C   0  0  0  0  0  2  0  0  0  0  0  0
  194.7070  175.6990  137.8290 O   0  0  0  0  0  1  0  0  0  0  0  0
  1  3  2  0  0  0  0
  1 14  1  0  0  0  0
  2  7  1  0  0  0  0
  2  4  1  1  0  0  0
  4  1  1  0  0  0  0
  5 11  1  6  0  0  0
  5  2  1  0  0  0  0
  6 17  1  0  0  0  0
  6 18  1  0  0  0  0
  7 13  1  1  0  0  0
  8 17  1  0  0  0  0
  9  8  1  6  0  0  0
  9 15  1  0  0  0  0
 10  4  1  0  0  0  0
 10 31  1  1  0  0  0
 11  9  1  0  0  0  0
 12 10  1  0  0  0  0
 13 14  1  0  0  0  0
 14 22  1  1  0  0  0
 15  7  1  0  0  0  0
 15 18  1  1  0  0  0
 16 29  1  6  0  0  0
 16  5  1  0  0  0  0
 16 12  1  0  0  0  0
 19 23  1  0  0  0  0
 19 20  1  0  0  0  0
 21 23  2  0  0  0  0
 22 24  2  0  0  0  0
 22 25  1  0  0  0  0
 23 28  1  0  0  0  0
 24 21  1  0  0  0  0
 25 19  2  0  0  0  0
 26 25  1  0  0  0  0
 28 27  1  0  0  0  0
 30 29  1  0  0  0  0
 32 31  1  0  0  0  0
M  END
>  <MODEL>
6

>  <REMARK>
 VINA RESULT:      -6.3      2.883      7.927
  Name = 
  4 active torsions:
  status: ('A' for Active; 'I' for Inactive)
    1  A    between atoms: C_13  and  C_29
    2  A    between atoms: CA_14  and  C_21
    3  A    between atoms: C_16  and  CA_27
    4  A    between atoms: C_19  and  C_26
                            x       y       z     vdW  Elec       q    Type
                         _______ _______ _______ _____ _____    ______ ____

>  <TORSDO>
F 4

$$$$
=
 OpenBabel10272402053D

 32 36  0  0  1  0  0  0  0  0999 V2000
  189.6290  177.7000  138.6430 C   0  0  0  0  0  0  0  0  0  0  0  0
  188.8800  176.4230  136.6140 C   0  0  1  0  0  3  0  0  0  0  0  0
  190.5590  178.3810  139.1540 O   0  0  0  0  0  0  0  0  0  0  0  0
  189.9010  176.6990  137.6370 N   0  0  0  0  0  0  0  0  0  0  0  0
  188.6230  174.9040  136.5450 C   0  0  1  0  0  3  0  0  0  0  0  0
  184.0000  176.4460  135.5650 C   0  0  0  0  0  2  0  0  0  0  0  0
  187.5690  177.1950  136.8790 C   0  0  2  0  0  3  0  0  0  0  0  0
  185.2360  174.5620  135.3200 C   0  0  0  0  0  2  0  0  0  0  0  0
  186.4250  175.0900  136.1190 C   0  0  1  0  0  3  0  0  0  0  0  0
  191.1930  175.9920  137.4880 C   0  0  2  0  0  3  0  0  0  0  0  0
  187.6310  174.5920  135.5970 O   0  0  0  0  0  0  0  0  0  0  0  0
  190.9730  174.4810  137.3050 C   0  0  0  0  0  2  0  0  0  0  0  0
  187.2530  177.1450  138.3060 N   0  0  0  0  0  2  0  0  0  0  0  0
  188.2000  178.0060  139.0180 C   0  0  1  0  0  3  0  0  0  0  0  0
  186.4310  176.6200  136.0300 C   0  0  1  0  0  3  0  0  0  0  0  0
  189.9250  174.1600  136.2380 C   0  0  2  0  0  3  0  0  0  0  0  0
  184.0390  175.0690  135.8620 O   0  0  0  0  0  0  0  0  0  0  0  0
  185.0590  177.1940  136.3790 C   0  0  0  0  0  2  0  0  0  0  0  0
  186.6980  178.2840  142.5310 C   0  0  0  0  0  0  0  0  0  0  0  0
  185.2480  178.9770  143.3360 S   0  0  0  0  0  1  0  0  0  0  0  0
  188.7940  177.0610  142.6290 C   0  0  0  0  0  3  0  0  0  0  0  0
  187.9880  177.8870  140.4990 C   0  0  0  0  0  0  0  0  0  0  0  0
  187.6790  177.6010  143.2760 C   0  0  0  0  0  0  0  0  0  0  0  0
  188.9480  177.2050  141.2510 C   0  0  0  0  0  3  0  0  0  0  0  0
  186.8560  178.4300  141.1420 C   0  0  0  0  0  0  0  0  0  0  0  0
  185.8910  179.1090  140.4030 O   0  0  0  0  0  1  0  0  0  0  0  0
  188.7500  176.9340  145.2740 O   0  0  0  0  0  1  0  0  0  0  0  0
  187.5450  177.4020  144.7490 C   0  0  0  0  0  2  0  0  0  0  0  0
  190.4470  174.4720  134.8370 C   0  0  0  0  0  2  0  0  0  0  0  0
  191.6840  173.8590  134.6420 O   0  0  0  0  0  1  0  0  0  0  0  0
  192.1750  176.2140  138.6390 C   0  0  0  0  0  2  0  0  0  0  0  0
  193.3800  176.7460  138.1730 O   0  0  0  0  0  1  0  0  0  0  0  0
  1 14  1  0  0  0  0
  1  3  2  0  0  0  0
  2  7  1  0  0  0  0
  2  4  1  1  0  0  0
  4  1  1  0  0  0  0
  5 11  1  6  0  0  0
  5  2  1  0  0  0  0
  6 17  1  0  0  0  0
  6 18  1  0  0  0  0
  7 13  1  1  0  0  0
  8 17  1  0  0  0  0
  9  8  1  6  0  0  0
 10  4  1  0  0  0  0
 10 31  1  1  0  0  0
 11  9  1  0  0  0  0
 12 10  1  0  0  0  0
 13 14  1  0  0  0  0
 14 22  1  1  0  0  0
 15  9  1  0  0  0  0
 15 18  1  1  0  0  0
 15  7  1  0  0  0  0
 16 29  1  6  0  0  0
 16  5  1  0  0  0  0
 16 12  1  0  0  0  0
 19 23  1  0  0  0  0
 19 20  1  0  0  0  0
 21 23  2  0  0  0  0
 22 25  1  0  0  0  0
 22 24  2  0  0  0  0
 23 28  1  0  0  0  0
 24 21  1  0  0  0  0
 25 19  2  0  0  0  0
 26 25  1  0  0  0  0
 28 27  1  0  0  0  0
 30 29  1  0  0  0  0
 32 31  1  0  0  0  0
M  END
>  <MODEL>
7

>  <REMARK>
 VINA RESULT:      -6.1      2.841      7.981
  Name = 
  4 active torsions:
  status: ('A' for Active; 'I' for Inactive)
    1  A    between atoms: C_13  and  C_29
    2  A    between atoms: CA_14  and  C_21
    3  A    between atoms: C_16  and  CA_27
    4  A    between atoms: C_19  and  C_26
                            x       y       z     vdW  Elec       q    Type
                         _______ _______ _______ _____ _____    ______ ____

>  <TORSDO>
F 4

$$$$
=
 OpenBabel10272402053D

 32 36  0  0  1  0  0  0  0  0999 V2000
  189.3500  177.7930  139.1800 C   0  0  0  0  0  0  0  0  0  0  0  0
  187.5610  177.2860  137.4930 C   0  0  1  0  0  3  0  0  0  0  0  0
  190.5750  178.0380  139.3490 O   0  0  0  0  0  0  0  0  0  0  0  0
  188.8930  177.0130  138.0520 N   0  0  0  0  0  0  0  0  0  0  0  0
  186.7730  175.9650  137.3770 C   0  0  1  0  0  3  0  0  0  0  0  0
  182.9600  178.9660  138.4580 C   0  0  0  0  0  2  0  0  0  0  0  0
  186.7800  178.3250  138.3290 C   0  0  2  0  0  3  0  0  0  0  0  0
  183.2860  176.9120  137.5570 C   0  0  0  0  0  2  0  0  0  0  0  0
  184.7790  176.8740  137.8720 C   0  0  1  0  0  3  0  0  0  0  0  0
  189.7180  176.0150  137.3360 C   0  0  2  0  0  3  0  0  0  0  0  0
  185.4780  176.1800  136.8710 O   0  0  0  0  0  0  0  0  0  0  0  0
  188.9280  174.7160  137.1030 C   0  0  0  0  0  2  0  0  0  0  0  0
  186.9670  178.0440  139.7520 N   0  0  0  0  0  2  0  0  0  0  0  0
  188.3390  178.4070  140.1170 C   0  0  1  0  0  3  0  0  0  0  0  0
  185.2980  178.3150  137.9430 C   0  0  1  0  0  3  0  0  0  0  0  0
  187.5400  174.9660  136.5080 C   0  0  2  0  0  3  0  0  0  0  0  0
  182.6050  177.6070  138.5750 O   0  0  0  0  0  0  0  0  0  0  0  0
  184.4230  179.1670  138.8600 C   0  0  0  0  0  2  0  0  0  0  0  0
  187.9060  177.6580  143.8480 C   0  0  0  0  0  0  0  0  0  0  0  0
  186.6110  177.6810  145.0950 S   0  0  0  0  0  1  0  0  0  0  0  0
  190.2070  177.2480  143.1910 C   0  0  0  0  0  3  0  0  0  0  0  0
  188.6100  178.0200  141.5410 C   0  0  0  0  0  0  0  0  0  0  0  0
  189.2180  177.2680  144.1780 C   0  0  0  0  0  0  0  0  0  0  0  0
  189.9050  177.6230  141.8820 C   0  0  0  0  0  3  0  0  0  0  0  0
  187.6030  178.0380  142.5290 C   0  0  0  0  0  0  0  0  0  0  0  0
  186.3080  178.4290  142.2000 O   0  0  0  0  0  1  0  0  0  0  0  0
  190.9230  177.1280  145.8070 O   0  0  0  0  0  1  0  0  0  0  0  0
  189.5820  176.8360  145.5600 C   0  0  0  0  0  2  0  0  0  0  0  0
  187.6350  175.4230  135.0540 C   0  0  0  0  0  2  0  0  0  0  0  0
  188.4950  174.5850  134.3460 O   0  0  0  0  0  1  0  0  0  0  0  0
  191.0410  175.6730  138.0240 C   0  0  0  0  0  2  0  0  0  0  0  0
  191.3770  174.3320  137.8210 O   0  0  0  0  0  1  0  0  0  0  0  0
  1  3  2  0  0  0  0
  1 14  1  0  0  0  0
  2  4  1  1  0  0  0
  2  7  1  0  0  0  0
  4  1  1  0  0  0  0
  5 11  1  6  0  0  0
  5  2  1  0  0  0  0
  6 17  1  0  0  0  0
  6 18  1  0  0  0  0
  7 13  1  1  0  0  0
  8 17  1  0  0  0  0
  9  8  1  6  0  0  0
  9 15  1  0  0  0  0
 10 31  1  1  0  0  0
 10  4  1  0  0  0  0
 11  9  1  0  0  0  0
 12 10  1  0  0  0  0
 13 14  1  0  0  0  0
 14 22  1  1  0  0  0
 15  7  1  0  0  0  0
 15 18  1  1  0  0  0
 16 29  1  6  0  0  0
 16 12  1  0  0  0  0
 16  5  1  0  0  0  0
 19 23  1  0  0  0  0
 19 20  1  0  0  0  0
 21 23  2  0  0  0  0
 22 24  2  0  0  0  0
 22 25  1  0  0  0  0
 23 28  1  0  0  0  0
 24 21  1  0  0  0  0
 25 19  2  0  0  0  0
 26 25  1  0  0  0  0
 28 27  1  0  0  0  0
 30 29  1  0  0  0  0
 32 31  1  0  0  0  0
M  END
>  <MODEL>
8

>  <REMARK>
 VINA RESULT:      -6.1      2.527      7.363
  Name = 
  4 active torsions:
  status: ('A' for Active; 'I' for Inactive)
    1  A    between atoms: C_13  and  C_29
    2  A    between atoms: CA_14  and  C_21
    3  A    between atoms: C_16  and  CA_27
    4  A    between atoms: C_19  and  C_26
                            x       y       z     vdW  Elec       q    Type
                         _______ _______ _______ _____ _____    ______ ____

>  <TORSDO>
F 4

$$$$
=
 OpenBabel10272402053D

 32 36  0  0  1  0  0  0  0  0999 V2000
  186.3270  178.4010  139.1240 C   0  0  0  0  0  0  0  0  0  0  0  0
  184.0880  177.7520  138.1920 C   0  0  1  0  0  3  0  0  0  0  0  0
  187.4780  178.8370  138.8480 O   0  0  0  0  0  0  0  0  0  0  0  0
  185.5560  177.6610  138.1520 N   0  0  0  0  0  0  0  0  0  0  0  0
  183.4880  176.3310  138.1860 C   0  0  1  0  0  3  0  0  0  0  0  0
  180.0920  178.5190  141.0830 C   0  0  0  0  0  2  0  0  0  0  0  0
  183.5880  178.5590  139.4110 C   0  0  2  0  0  3  0  0  0  0  0  0
  180.2770  176.6430  139.8250 C   0  0  0  0  0  2  0  0  0  0  0  0
  181.7640  176.8340  139.5360 C   0  0  1  0  0  3  0  0  0  0  0  0
  186.1400  176.8900  137.0320 C   0  0  2  0  0  3  0  0  0  0  0  0
  182.0820  176.3660  138.2510 O   0  0  0  0  0  0  0  0  0  0  0  0
  185.4870  175.5020  136.9240 C   0  0  0  0  0  2  0  0  0  0  0  0
  184.3610  178.1860  140.5930 N   0  0  0  0  0  2  0  0  0  0  0  0
  185.7090  178.7440  140.4580 C   0  0  1  0  0  3  0  0  0  0  0  0
  182.0880  178.3300  139.6230 C   0  0  1  0  0  3  0  0  0  0  0  0
  183.9580  175.5630  136.9490 C   0  0  2  0  0  3  0  0  0  0  0  0
  179.9820  177.1150  141.1190 O   0  0  0  0  0  0  0  0  0  0  0  0
  181.5570  178.9320  140.9220 C   0  0  0  0  0  2  0  0  0  0  0  0
  186.9720  177.8460  143.9600 C   0  0  0  0  0  0  0  0  0  0  0  0
  186.3890  177.8710  145.6610 S   0  0  0  0  0  1  0  0  0  0  0  0
  188.6930  177.3610  142.3190 C   0  0  0  0  0  3  0  0  0  0  0  0
  186.5730  178.2800  141.5940 C   0  0  0  0  0  0  0  0  0  0  0  0
  188.2640  177.3820  143.6490 C   0  0  0  0  0  0  0  0  0  0  0  0
  187.8550  177.8080  141.2990 C   0  0  0  0  0  3  0  0  0  0  0  0
  186.1280  178.2990  142.9320 C   0  0  0  0  0  0  0  0  0  0  0  0
  184.8510  178.7640  143.2380 O   0  0  0  0  0  1  0  0  0  0  0  0
  190.0330  177.8960  145.1280 O   0  0  0  0  0  1  0  0  0  0  0  0
  189.1880  176.8700  144.7040 C   0  0  0  0  0  2  0  0  0  0  0  0
  183.4060  176.1610  135.6570 C   0  0  0  0  0  2  0  0  0  0  0  0
  184.1190  175.6720  134.5630 O   0  0  0  0  0  1  0  0  0  0  0  0
  187.6580  176.7190  137.1020 C   0  0  0  0  0  2  0  0  0  0  0  0
  187.9980  175.4060  137.4380 O   0  0  0  0  0  1  0  0  0  0  0  0
  1 14  1  0  0  0  0
  2  4  1  1  0  0  0
  2  7  1  0  0  0  0
  3  1  2  0  0  0  0
  4  1  1  0  0  0  0
  5  2  1  0  0  0  0
  5 11  1  6  0  0  0
  6 17  1  0  0  0  0
  7 15  1  0  0  0  0
  7 13  1  1  0  0  0
  8 17  1  0  0  0  0
  9 15  1  0  0  0  0
  9  8  1  6  0  0  0
 10 31  1  1  0  0  0
 10  4  1  0  0  0  0
 11  9  1  0  0  0  0
 12 16  1  0  0  0  0
 12 10  1  0  0  0  0
 14 13  1  0  0  0  0
 14 22  1  1  0  0  0
 15 18  1  1  0  0  0
 16 29  1  6  0  0  0
 16  5  1  0  0  0  0
 18  6  1  0  0  0  0
 19 20  1  0  0  0  0
 21 23  2  0  0  0  0
 22 25  1  0  0  0  0
 23 19  1  0  0  0  0
 23 28  1  0  0  0  0
 24 22  2  0  0  0  0
 24 21  1  0  0  0  0
 25 26  1  0  0  0  0
 25 19  2  0  0  0  0
 28 27  1  0  0  0  0
 30 29  1  0  0  0  0
 31 32  1  0  0  0  0
M  END
>  <MODEL>
9

>  <REMARK>
 VINA RESULT:      -5.8      3.142      7.320
  Name = 
  4 active torsions:
  status: ('A' for Active; 'I' for Inactive)
    1  A    between atoms: C_13  and  C_29
    2  A    between atoms: CA_14  and  C_21
    3  A    between atoms: C_16  and  CA_27
    4  A    between atoms: C_19  and  C_26
                            x       y       z     vdW  Elec       q    Type
                         _______ _______ _______ _____ _____    ______ ____

>  <TORSDO>
F 4

$$$$
