=
 OpenBabel10272400393D

 31 34  0  0  1  0  0  0  0  0999 V2000
  189.5340  177.7520  140.6750 O   0  0  0  0  0  0  0  0  0  0  0  0
  189.0110  178.2520  139.4680 C   0  0  2  0  0  3  0  0  0  0  0  0
  187.2940  178.1990  141.5180 C   0  0  1  0  0  3  0  0  0  0  0  0
  187.0060  178.6850  140.2270 O   0  0  0  0  0  0  0  0  0  0  0  0
  188.8120  178.3410  141.7380 C   0  0  1  0  0  3  0  0  0  0  0  0
  187.6490  177.8950  139.3770 O   0  0  0  0  0  0  0  0  0  0  0  0
  189.2510  177.7450  143.0810 C   0  0  1  0  0  3  0  0  0  0  0  0
  190.2440  175.4480  142.8120 C   0  0  0  0  0  2  0  0  0  0  0  0
  188.9850  176.2320  143.1440 C   0  0  0  0  0  2  0  0  0  0  0  0
  191.3650  175.7650  143.8160 C   0  0  0  0  0  2  0  0  0  0  0  0
  190.6810  177.1530  145.6150 C   0  0  0  0  0  1  0  0  0  0  0  0
  190.7260  178.0930  143.3820 C   0  0  2  0  0  3  0  0  0  0  0  0
  191.3610  177.1480  144.3240 N   0  0  0  0  0  0  0  0  0  0  0  0
  190.8990  179.5350  143.8500 C   0  0  0  0  0  2  0  0  0  0  0  0
  192.1950  179.7380  144.3250 O   0  0  0  0  0  1  0  0  0  0  0  0
  186.5170  179.0000  142.5560 C   0  0  0  0  0  2  0  0  0  0  0  0
  185.7710  178.1010  143.5420 C   0  0  1  0  0  3  0  0  0  0  0  0
  185.8390  178.6510  144.9600 C   0  0  1  0  0  3  0  0  0  0  0  0
  185.0900  177.7320  145.9030 C   0  0  0  0  0  2  0  0  0  0  0  0
  186.6020  177.6780  145.8370 C   0  0  2  0  0  3  0  0  0  0  0  0
  187.1860  178.4340  147.0150 C   0  0  0  0  0  2  0  0  0  0  0  0
  188.0010  177.4960  147.8820 C   0  0  2  0  0  3  0  0  0  0  0  0
  187.9910  177.9650  149.2840 C   0  0  0  0  0  2  0  0  0  0  0  0
  189.0840  178.2070  148.4320 O   0  0  0  0  0  0  0  0  0  0  0  0
  184.4380  177.9480  143.1470 O   0  0  0  0  0  0  0  0  0  0  0  0
  183.9770  179.2460  142.9230 C   0  0  0  0  0  1  0  0  0  0  0  0
  189.7760  177.6480  138.3060 C   0  0  0  0  0  2  0  0  0  0  0  0
  190.4220  176.3350  138.7140 C   0  0  1  0  0  3  0  0  0  0  0  0
  189.7800  175.2840  138.0860 F   0  0  0  0  0  0  0  0  0  0  0  0
  192.1740  176.3440  138.2370 S   0  0  0  0  0  0  0  0  0  0  0  0
  192.0870  174.6530  137.5860 C   0  0  0  0  0  1  0  0  0  0  0  0
  2 27  1  6  0  0  0
  2  1  1  0  0  0  0
  3  5  1  0  0  0  0
  3 16  1  1  0  0  0
  4  3  1  0  0  0  0
  5  1  1  6  0  0  0
  5  7  1  0  0  0  0
  6  2  1  0  0  0  0
  6  4  1  0  0  0  0
  7  9  1  6  0  0  0
  7 12  1  0  0  0  0
  8  9  1  0  0  0  0
  8 10  1  0  0  0  0
 10 13  1  0  0  0  0
 12 14  1  1  0  0  0
 12 13  1  0  0  0  0
 13 11  1  0  0  0  0
 14 15  1  0  0  0  0
 17 16  1  6  0  0  0
 18 17  1  6  0  0  0
 18 20  1  0  0  0  0
 18 19  1  0  0  0  0
 20 19  1  0  0  0  0
 20 21  1  1  0  0  0
 22 21  1  6  0  0  0
 22 24  1  0  0  0  0
 22 23  1  0  0  0  0
 24 23  1  0  0  0  0
 25 17  1  0  0  0  0
 26 25  1  0  0  0  0
 27 28  1  0  0  0  0
 28 29  1  6  0  0  0
 30 28  1  0  0  0  0
 31 30  1  0  0  0  0
M  END
>  <MODEL>
1

>  <REMARK>
 VINA RESULT:      -6.7      0.000      0.000
  Name = 
  11 active torsions:
  status: ('A' for Active; 'I' for Inactive)
    1  A    between atoms: C_1  and  C_24
    2  A    between atoms: C_2  and  S_13
    3  A    between atoms: C_2  and  C_25
    4  A    between atoms: O_3  and  C_9
    5  A    between atoms: C_5  and  C_21
    6  A    between atoms: C_6  and  C_9
    7  A    between atoms: C_9  and  C_23
    8  A    between atoms: C_12  and  C_25
    9  A    between atoms: C_15  and  C_23
   10  A    between atoms: C_17  and  C_30
   11  A    between atoms: C_19  and  C_24
                            x       y       z     vdW  Elec       q    Type
                         _______ _______ _______ _____ _____    ______ ____

>  <TORSDO>
F 11

$$$$
=
 OpenBabel10272400393D

 31 34  0  0  1  0  0  0  0  0999 V2000
  190.2590  176.7580  140.6590 O   0  0  0  0  0  0  0  0  0  0  0  0
  190.0730  177.0570  139.2960 C   0  0  2  0  0  3  0  0  0  0  0  0
  188.0970  177.8450  140.9170 C   0  0  1  0  0  3  0  0  0  0  0  0
  188.1450  178.0640  139.5260 O   0  0  0  0  0  0  0  0  0  0  0  0
  189.5480  177.7160  141.4150 C   0  0  1  0  0  3  0  0  0  0  0  0
  188.6970  176.9800  138.9950 O   0  0  0  0  0  0  0  0  0  0  0  0
  189.6090  177.3740  142.9090 C   0  0  1  0  0  3  0  0  0  0  0  0
  190.7420  175.1660  143.3240 C   0  0  0  0  0  2  0  0  0  0  0  0
  189.4060  175.8710  143.1560 C   0  0  0  0  0  2  0  0  0  0  0  0
  191.5100  175.7350  144.5300 C   0  0  0  0  0  2  0  0  0  0  0  0
  190.2730  177.3100  145.8030 C   0  0  0  0  0  1  0  0  0  0  0  0
  190.9170  177.9000  143.5420 C   0  0  2  0  0  3  0  0  0  0  0  0
  191.2960  177.1730  144.7710 N   0  0  0  0  0  0  0  0  0  0  0  0
  190.8810  179.4060  143.7840 C   0  0  0  0  0  2  0  0  0  0  0  0
  192.0840  179.8350  144.3470 O   0  0  0  0  0  1  0  0  0  0  0  0
  187.3900  179.0120  141.5980 C   0  0  0  0  0  2  0  0  0  0  0  0
  185.8690  178.8660  141.5640 C   0  0  1  0  0  3  0  0  0  0  0  0
  185.2270  179.4180  142.8300 C   0  0  1  0  0  3  0  0  0  0  0  0
  183.9850  178.6190  143.1670 C   0  0  0  0  0  2  0  0  0  0  0  0
  185.2770  178.3630  143.9170 C   0  0  2  0  0  3  0  0  0  0  0  0
  185.2190  179.0490  145.2680 C   0  0  0  0  0  2  0  0  0  0  0  0
  185.4660  178.0400  146.3730 C   0  0  2  0  0  3  0  0  0  0  0  0
  186.6690  178.4190  147.1430 C   0  0  0  0  0  2  0  0  0  0  0  0
  186.7090  177.4190  146.1540 O   0  0  0  0  0  0  0  0  0  0  0  0
  185.3440  179.5090  140.4380 O   0  0  0  0  0  0  0  0  0  0  0  0
  184.6430  178.5170  139.7510 C   0  0  0  0  0  1  0  0  0  0  0  0
  190.8380  176.0520  138.4560 C   0  0  0  0  0  2  0  0  0  0  0  0
  192.1270  176.6610  137.9350 C   0  0  1  0  0  3  0  0  0  0  0  0
  193.0260  176.8120  138.9740 F   0  0  0  0  0  0  0  0  0  0  0  0
  192.8450  175.5740  136.6680 S   0  0  0  0  0  0  0  0  0  0  0  0
  194.1510  175.0010  137.7880 C   0  0  0  0  0  1  0  0  0  0  0  0
  2 27  1  6  0  0  0
  2  1  1  0  0  0  0
  3  5  1  0  0  0  0
  3 16  1  1  0  0  0
  4  3  1  0  0  0  0
  5  1  1  6  0  0  0
  5  7  1  0  0  0  0
  6  2  1  0  0  0  0
  6  4  1  0  0  0  0
  7  9  1  6  0  0  0
  7 12  1  0  0  0  0
  8 10  1  0  0  0  0
  9  8  1  0  0  0  0
 10 13  1  0  0  0  0
 12 14  1  1  0  0  0
 12 13  1  0  0  0  0
 13 11  1  0  0  0  0
 14 15  1  0  0  0  0
 17 16  1  1  0  0  0
 18 17  1  6  0  0  0
 18 19  1  0  0  0  0
 18 20  1  0  0  0  0
 19 20  1  0  0  0  0
 20 21  1  1  0  0  0
 22 21  1  6  0  0  0
 22 23  1  0  0  0  0
 24 22  1  0  0  0  0
 24 23  1  0  0  0  0
 25 17  1  0  0  0  0
 26 25  1  0  0  0  0
 28 27  1  0  0  0  0
 28 29  1  1  0  0  0
 30 31  1  0  0  0  0
 30 28  1  0  0  0  0
M  END
>  <MODEL>
2

>  <REMARK>
 VINA RESULT:      -6.7      1.511      2.006
  Name = 
  11 active torsions:
  status: ('A' for Active; 'I' for Inactive)
    1  A    between atoms: C_1  and  C_24
    2  A    between atoms: C_2  and  S_13
    3  A    between atoms: C_2  and  C_25
    4  A    between atoms: O_3  and  C_9
    5  A    between atoms: C_5  and  C_21
    6  A    between atoms: C_6  and  C_9
    7  A    between atoms: C_9  and  C_23
    8  A    between atoms: C_12  and  C_25
    9  A    between atoms: C_15  and  C_23
   10  A    between atoms: C_17  and  C_30
   11  A    between atoms: C_19  and  C_24
                            x       y       z     vdW  Elec       q    Type
                         _______ _______ _______ _____ _____    ______ ____

>  <TORSDO>
F 11

$$$$
=
 OpenBabel10272400393D

 31 34  0  0  1  0  0  0  0  0999 V2000
  186.7080  178.2600  139.8880 O   0  0  0  0  0  0  0  0  0  0  0  0
  185.4410  178.5810  139.3670 C   0  0  2  0  0  3  0  0  0  0  0  0
  185.6380  178.6910  142.0320 C   0  0  1  0  0  3  0  0  0  0  0  0
  184.4820  179.0000  141.2880 O   0  0  0  0  0  0  0  0  0  0  0  0
  186.8550  178.9370  141.1200 C   0  0  1  0  0  3  0  0  0  0  0  0
  184.4500  178.1450  140.2730 O   0  0  0  0  0  0  0  0  0  0  0  0
  188.1670  178.5320  141.8020 C   0  0  1  0  0  3  0  0  0  0  0  0
  187.9020  176.4560  143.2000 C   0  0  0  0  0  2  0  0  0  0  0  0
  187.9250  177.9760  143.2140 C   0  0  0  0  0  2  0  0  0  0  0  0
  189.2460  175.8950  142.7030 C   0  0  0  0  0  2  0  0  0  0  0  0
  190.9130  177.5490  142.3640 C   0  0  0  0  0  1  0  0  0  0  0  0
  188.9690  177.5520  140.9160 C   0  0  2  0  0  3  0  0  0  0  0  0
  189.9190  176.7230  141.6870 N   0  0  0  0  0  0  0  0  0  0  0  0
  189.6690  178.2560  139.7580 C   0  0  0  0  0  2  0  0  0  0  0  0
  190.1420  177.3200  138.8370 O   0  0  0  0  0  1  0  0  0  0  0  0
  185.7030  179.5720  143.2740 C   0  0  0  0  0  2  0  0  0  0  0  0
  184.8070  179.0530  144.3990 C   0  0  1  0  0  3  0  0  0  0  0  0
  185.4700  179.2200  145.7600 C   0  0  1  0  0  3  0  0  0  0  0  0
  184.8200  178.2890  146.7650 C   0  0  0  0  0  2  0  0  0  0  0  0
  186.1540  177.9230  146.1460 C   0  0  2  0  0  3  0  0  0  0  0  0
  187.2670  178.2300  147.1280 C   0  0  0  0  0  2  0  0  0  0  0  0
  188.1300  177.0010  147.3360 C   0  0  2  0  0  3  0  0  0  0  0  0
  189.5250  177.4030  147.6140 C   0  0  0  0  0  2  0  0  0  0  0  0
  189.1220  176.9660  146.3390 O   0  0  0  0  0  0  0  0  0  0  0  0
  183.5720  179.7090  144.3800 O   0  0  0  0  0  0  0  0  0  0  0  0
  182.6370  178.7090  144.1170 C   0  0  0  0  0  1  0  0  0  0  0  0
  185.2580  177.8800  138.0340 C   0  0  0  0  0  2  0  0  0  0  0  0
  186.5800  177.3190  137.5390 C   0  0  1  0  0  3  0  0  0  0  0  0
  186.3660  176.1080  136.9070 F   0  0  0  0  0  0  0  0  0  0  0  0
  187.3360  178.4850  136.3700 S   0  0  0  0  0  0  0  0  0  0  0  0
  188.4550  177.2190  135.7090 C   0  0  0  0  0  1  0  0  0  0  0  0
  2 27  1  6  0  0  0
  2  1  1  0  0  0  0
  2  6  1  0  0  0  0
  3 16  1  1  0  0  0
  4  3  1  0  0  0  0
  5  1  1  6  0  0  0
  5  7  1  0  0  0  0
  5  3  1  0  0  0  0
  6  4  1  0  0  0  0
  7  9  1  1  0  0  0
  8  9  1  0  0  0  0
 10  8  1  0  0  0  0
 12 14  1  6  0  0  0
 12 13  1  0  0  0  0
 12  7  1  0  0  0  0
 13 11  1  0  0  0  0
 13 10  1  0  0  0  0
 15 14  1  0  0  0  0
 17 16  1  6  0  0  0
 18 17  1  6  0  0  0
 18 20  1  0  0  0  0
 18 19  1  0  0  0  0
 20 19  1  0  0  0  0
 20 21  1  1  0  0  0
 22 21  1  6  0  0  0
 22 23  1  0  0  0  0
 24 22  1  0  0  0  0
 24 23  1  0  0  0  0
 25 17  1  0  0  0  0
 26 25  1  0  0  0  0
 28 29  1  6  0  0  0
 28 27  1  0  0  0  0
 30 28  1  0  0  0  0
 31 30  1  0  0  0  0
M  END
>  <MODEL>
3

>  <REMARK>
 VINA RESULT:      -5.9      2.277      3.066
  Name = 
  11 active torsions:
  status: ('A' for Active; 'I' for Inactive)
    1  A    between atoms: C_1  and  C_24
    2  A    between atoms: C_2  and  S_13
    3  A    between atoms: C_2  and  C_25
    4  A    between atoms: O_3  and  C_9
    5  A    between atoms: C_5  and  C_21
    6  A    between atoms: C_6  and  C_9
    7  A    between atoms: C_9  and  C_23
    8  A    between atoms: C_12  and  C_25
    9  A    between atoms: C_15  and  C_23
   10  A    between atoms: C_17  and  C_30
   11  A    between atoms: C_19  and  C_24
                            x       y       z     vdW  Elec       q    Type
                         _______ _______ _______ _____ _____    ______ ____

>  <TORSDO>
F 11

$$$$
=
 OpenBabel10272400393D

 31 34  0  0  1  0  0  0  0  0999 V2000
  184.9550  178.3400  138.4080 O   0  0  0  0  0  0  0  0  0  0  0  0
  184.2830  179.2970  139.1900 C   0  0  2  0  0  3  0  0  0  0  0  0
  186.5720  178.3840  140.2260 C   0  0  1  0  0  3  0  0  0  0  0  0
  185.7490  179.3650  140.8120 O   0  0  0  0  0  0  0  0  0  0  0  0
  186.3330  178.4260  138.7050 C   0  0  1  0  0  3  0  0  0  0  0  0
  184.4970  179.0060  140.5540 O   0  0  0  0  0  0  0  0  0  0  0  0
  187.1100  177.3240  137.9760 C   0  0  1  0  0  3  0  0  0  0  0  0
  185.8250  176.4040  136.0160 C   0  0  0  0  0  2  0  0  0  0  0  0
  186.1790  176.2050  137.4810 C   0  0  0  0  0  2  0  0  0  0  0  0
  187.0900  176.3760  135.1410 C   0  0  0  0  0  2  0  0  0  0  0  0
  189.0690  175.8180  136.3270 C   0  0  0  0  0  1  0  0  0  0  0  0
  187.9690  177.9170  136.8350 C   0  0  2  0  0  3  0  0  0  0  0  0
  188.2950  176.9300  135.7850 N   0  0  0  0  0  0  0  0  0  0  0  0
  189.2290  178.6030  137.3540 C   0  0  0  0  0  2  0  0  0  0  0  0
  189.0270  179.9800  137.4480 O   0  0  0  0  0  1  0  0  0  0  0  0
  188.0330  178.6730  140.5540 C   0  0  0  0  0  2  0  0  0  0  0  0
  188.5610  177.7830  141.6790 C   0  0  1  0  0  3  0  0  0  0  0  0
  187.4290  177.2630  142.5560 C   0  0  1  0  0  3  0  0  0  0  0  0
  188.0010  176.4880  143.7260 C   0  0  0  0  0  2  0  0  0  0  0  0
  187.5170  177.9110  143.9230 C   0  0  2  0  0  3  0  0  0  0  0  0
  186.1430  177.8920  144.5630 C   0  0  0  0  0  2  0  0  0  0  0  0
  186.2490  178.2540  146.0320 C   0  0  2  0  0  3  0  0  0  0  0  0
  184.9010  178.3350  146.6320 C   0  0  0  0  0  2  0  0  0  0  0  0
  185.6080  179.4880  146.2460 O   0  0  0  0  0  0  0  0  0  0  0  0
  189.2920  176.7140  141.1510 O   0  0  0  0  0  0  0  0  0  0  0  0
  190.5080  177.2700  140.7530 C   0  0  0  0  0  1  0  0  0  0  0  0
  182.7980  179.2390  138.8820 C   0  0  0  0  0  2  0  0  0  0  0  0
  182.0250  178.7010  140.0730 C   0  0  1  0  0  3  0  0  0  0  0  0
  181.2210  179.6970  140.5970 F   0  0  0  0  0  0  0  0  0  0  0  0
  180.9910  177.3040  139.5470 S   0  0  0  0  0  0  0  0  0  0  0  0
  182.3880  176.1480  139.5990 C   0  0  0  0  0  1  0  0  0  0  0  0
  1  2  1  0  0  0  0
  2 27  1  1  0  0  0
  2  6  1  0  0  0  0
  3 16  1  6  0  0  0
  3  4  1  0  0  0  0
  5  1  1  1  0  0  0
  5  3  1  0  0  0  0
  6  4  1  0  0  0  0
  7  9  1  6  0  0  0
  7  5  1  0  0  0  0
  8  9  1  0  0  0  0
 10 13  1  0  0  0  0
 10  8  1  0  0  0  0
 12 14  1  1  0  0  0
 12  7  1  0  0  0  0
 13 11  1  0  0  0  0
 13 12  1  0  0  0  0
 14 15  1  0  0  0  0
 17 16  1  6  0  0  0
 18 17  1  6  0  0  0
 18 19  1  0  0  0  0
 18 20  1  0  0  0  0
 19 20  1  0  0  0  0
 20 21  1  1  0  0  0
 22 21  1  6  0  0  0
 22 24  1  0  0  0  0
 22 23  1  0  0  0  0
 24 23  1  0  0  0  0
 25 17  1  0  0  0  0
 26 25  1  0  0  0  0
 27 28  1  0  0  0  0
 28 29  1  6  0  0  0
 30 31  1  0  0  0  0
 30 28  1  0  0  0  0
M  END
>  <MODEL>
4

>  <REMARK>
 VINA RESULT:      -5.9      4.104      6.412
  Name = 
  11 active torsions:
  status: ('A' for Active; 'I' for Inactive)
    1  A    between atoms: C_1  and  C_24
    2  A    between atoms: C_2  and  S_13
    3  A    between atoms: C_2  and  C_25
    4  A    between atoms: O_3  and  C_9
    5  A    between atoms: C_5  and  C_21
    6  A    between atoms: C_6  and  C_9
    7  A    between atoms: C_9  and  C_23
    8  A    between atoms: C_12  and  C_25
    9  A    between atoms: C_15  and  C_23
   10  A    between atoms: C_17  and  C_30
   11  A    between atoms: C_19  and  C_24
                            x       y       z     vdW  Elec       q    Type
                         _______ _______ _______ _____ _____    ______ ____

>  <TORSDO>
F 11

$$$$
=
 OpenBabel10272400393D

 31 34  0  0  1  0  0  0  0  0999 V2000
  189.0550  178.0020  143.4870 O   0  0  0  0  0  0  0  0  0  0  0  0
  190.4320  178.1890  143.2660 C   0  0  2  0  0  3  0  0  0  0  0  0
  189.0660  177.2120  141.1840 C   0  0  1  0  0  3  0  0  0  0  0  0
  190.4430  177.5110  141.1860 O   0  0  0  0  0  0  0  0  0  0  0  0
  188.3960  178.1100  142.2420 C   0  0  1  0  0  3  0  0  0  0  0  0
  190.8950  177.1840  142.3900 O   0  0  0  0  0  0  0  0  0  0  0  0
  186.9040  177.7930  142.3940 C   0  0  1  0  0  3  0  0  0  0  0  0
  186.0050  178.5390  144.6230 C   0  0  0  0  0  2  0  0  0  0  0  0
  186.5580  177.3660  143.8290 C   0  0  0  0  0  2  0  0  0  0  0  0
  184.7180  179.0780  143.9760 C   0  0  0  0  0  2  0  0  0  0  0  0
  183.9440  177.7790  142.1470 C   0  0  0  0  0  1  0  0  0  0  0  0
  186.0370  178.9780  141.9100 C   0  0  2  0  0  3  0  0  0  0  0  0
  184.6850  178.9840  142.5050 N   0  0  0  0  0  0  0  0  0  0  0  0
  185.9670  179.0640  140.3890 C   0  0  0  0  0  2  0  0  0  0  0  0
  184.8750  179.8380  139.9970 O   0  0  0  0  0  1  0  0  0  0  0  0
  188.4830  177.4750  139.8000 C   0  0  0  0  0  2  0  0  0  0  0  0
  189.5670  177.7440  138.7570 C   0  0  1  0  0  3  0  0  0  0  0  0
  190.0520  176.4530  138.1120 C   0  0  1  0  0  3  0  0  0  0  0  0
  190.6860  176.7560  136.7690 C   0  0  0  0  0  2  0  0  0  0  0  0
  191.5610  176.4960  137.9780 C   0  0  2  0  0  3  0  0  0  0  0  0
  192.0890  175.0760  137.9220 C   0  0  0  0  0  2  0  0  0  0  0  0
  193.4270  175.0470  137.2100 C   0  0  2  0  0  3  0  0  0  0  0  0
  194.3120  174.0430  137.8380 C   0  0  0  0  0  2  0  0  0  0  0  0
  194.4360  175.4160  138.1190 O   0  0  0  0  0  0  0  0  0  0  0  0
  189.0930  178.6240  137.7780 O   0  0  0  0  0  0  0  0  0  0  0  0
  187.7870  178.2080  137.5210 C   0  0  0  0  0  1  0  0  0  0  0  0
  191.1670  178.0930  144.5890 C   0  0  0  0  0  2  0  0  0  0  0  0
  190.9490  176.7310  145.2250 C   0  0  1  0  0  3  0  0  0  0  0  0
  192.0150  175.9020  144.9290 F   0  0  0  0  0  0  0  0  0  0  0  0
  190.8090  176.9160  147.0260 S   0  0  0  0  0  0  0  0  0  0  0  0
  189.0060  177.1060  146.9460 C   0  0  0  0  0  1  0  0  0  0  0  0
  2  1  1  0  0  0  0
  2 27  1  1  0  0  0
  3 16  1  6  0  0  0
  3  4  1  0  0  0  0
  3  5  1  0  0  0  0
  4  6  1  0  0  0  0
  5  7  1  0  0  0  0
  5  1  1  1  0  0  0
  6  2  1  0  0  0  0
  7  9  1  1  0  0  0
  9  8  1  0  0  0  0
 10  8  1  0  0  0  0
 11 13  1  0  0  0  0
 12 14  1  6  0  0  0
 12  7  1  0  0  0  0
 12 13  1  0  0  0  0
 13 10  1  0  0  0  0
 15 14  1  0  0  0  0
 17 16  1  1  0  0  0
 18 17  1  1  0  0  0
 19 20  1  0  0  0  0
 19 18  1  0  0  0  0
 20 21  1  6  0  0  0
 20 18  1  0  0  0  0
 22 23  1  0  0  0  0
 22 21  1  1  0  0  0
 22 24  1  0  0  0  0
 23 24  1  0  0  0  0
 25 17  1  0  0  0  0
 26 25  1  0  0  0  0
 27 28  1  0  0  0  0
 28 29  1  1  0  0  0
 28 30  1  0  0  0  0
 31 30  1  0  0  0  0
M  END
>  <MODEL>
5

>  <REMARK>
 VINA RESULT:      -5.8      3.069      7.495
  Name = 
  11 active torsions:
  status: ('A' for Active; 'I' for Inactive)
    1  A    between atoms: C_1  and  C_24
    2  A    between atoms: C_2  and  S_13
    3  A    between atoms: C_2  and  C_25
    4  A    between atoms: O_3  and  C_9
    5  A    between atoms: C_5  and  C_21
    6  A    between atoms: C_6  and  C_9
    7  A    between atoms: C_9  and  C_23
    8  A    between atoms: C_12  and  C_25
    9  A    between atoms: C_15  and  C_23
   10  A    between atoms: C_17  and  C_30
   11  A    between atoms: C_19  and  C_24
                            x       y       z     vdW  Elec       q    Type
                         _______ _______ _______ _____ _____    ______ ____

>  <TORSDO>
F 11

$$$$
=
 OpenBabel10272400393D

 31 34  0  0  1  0  0  0  0  0999 V2000
  189.3910  177.9160  140.8940 O   0  0  0  0  0  0  0  0  0  0  0  0
  188.7650  178.4780  139.7660 C   0  0  2  0  0  3  0  0  0  0  0  0
  187.1780  178.1160  141.8870 C   0  0  1  0  0  3  0  0  0  0  0  0
  186.7820  178.6900  140.6630 O   0  0  0  0  0  0  0  0  0  0  0  0
  188.6920  178.3530  142.0410 C   0  0  1  0  0  3  0  0  0  0  0  0
  187.4290  178.0280  139.7120 O   0  0  0  0  0  0  0  0  0  0  0  0
  189.2480  177.6760  143.3000 C   0  0  1  0  0  3  0  0  0  0  0  0
  190.2870  175.4420  142.7860 C   0  0  0  0  0  2  0  0  0  0  0  0
  189.0340  176.1550  143.2680 C   0  0  0  0  0  2  0  0  0  0  0  0
  191.4710  175.7250  143.7280 C   0  0  0  0  0  2  0  0  0  0  0  0
  190.8820  176.9520  145.6710 C   0  0  0  0  0  1  0  0  0  0  0  0
  190.7310  178.0540  143.5180 C   0  0  2  0  0  3  0  0  0  0  0  0
  191.4630  177.0660  144.3370 N   0  0  0  0  0  0  0  0  0  0  0  0
  190.8950  179.4630  144.0800 C   0  0  0  0  0  2  0  0  0  0  0  0
  192.2410  179.7290  144.3340 O   0  0  0  0  0  1  0  0  0  0  0  0
  186.4070  178.7620  143.0330 C   0  0  0  0  0  2  0  0  0  0  0  0
  185.0340  179.2700  142.5930 C   0  0  1  0  0  3  0  0  0  0  0  0
  184.1360  178.1270  142.1380 C   0  0  1  0  0  3  0  0  0  0  0  0
  182.7020  178.6070  142.0430 C   0  0  0  0  0  2  0  0  0  0  0  0
  183.5390  178.4670  140.7880 C   0  0  2  0  0  3  0  0  0  0  0  0
  183.1700  177.1800  140.0770 C   0  0  0  0  0  2  0  0  0  0  0  0
  183.3520  177.3410  138.5810 C   0  0  2  0  0  3  0  0  0  0  0  0
  182.4150  176.4570  137.8580 C   0  0  0  0  0  2  0  0  0  0  0  0
  183.7670  176.1120  138.0360 O   0  0  0  0  0  0  0  0  0  0  0  0
  184.4230  179.9800  143.6310 O   0  0  0  0  0  0  0  0  0  0  0  0
  184.7900  179.3040  144.7950 C   0  0  0  0  0  1  0  0  0  0  0  0
  189.5040  178.0380  138.5150 C   0  0  0  0  0  2  0  0  0  0  0  0
  189.9180  176.5810  138.6230 C   0  0  1  0  0  3  0  0  0  0  0  0
  189.2100  175.8260  137.7060 F   0  0  0  0  0  0  0  0  0  0  0  0
  191.6970  176.4280  138.2880 S   0  0  0  0  0  0  0  0  0  0  0  0
  191.4880  174.8060  137.5010 C   0  0  0  0  0  1  0  0  0  0  0  0
  2 27  1  6  0  0  0
  2  1  1  0  0  0  0
  3  5  1  0  0  0  0
  3 16  1  1  0  0  0
  4  3  1  0  0  0  0
  5  1  1  6  0  0  0
  5  7  1  0  0  0  0
  6  2  1  0  0  0  0
  6  4  1  0  0  0  0
  7  9  1  6  0  0  0
  7 12  1  0  0  0  0
  8  9  1  0  0  0  0
  8 10  1  0  0  0  0
 10 13  1  0  0  0  0
 12 14  1  1  0  0  0
 12 13  1  0  0  0  0
 13 11  1  0  0  0  0
 14 15  1  0  0  0  0
 17 16  1  1  0  0  0
 17 25  1  0  0  0  0
 18 17  1  1  0  0  0
 19 18  1  0  0  0  0
 20 21  1  6  0  0  0
 20 19  1  0  0  0  0
 20 18  1  0  0  0  0
 22 21  1  1  0  0  0
 23 24  1  0  0  0  0
 23 22  1  0  0  0  0
 24 22  1  0  0  0  0
 25 26  1  0  0  0  0
 27 28  1  0  0  0  0
 28 29  1  6  0  0  0
 30 28  1  0  0  0  0
 31 30  1  0  0  0  0
M  END
>  <MODEL>
6

>  <REMARK>
 VINA RESULT:      -5.8      1.905      4.256
  Name = 
  11 active torsions:
  status: ('A' for Active; 'I' for Inactive)
    1  A    between atoms: C_1  and  C_24
    2  A    between atoms: C_2  and  S_13
    3  A    between atoms: C_2  and  C_25
    4  A    between atoms: O_3  and  C_9
    5  A    between atoms: C_5  and  C_21
    6  A    between atoms: C_6  and  C_9
    7  A    between atoms: C_9  and  C_23
    8  A    between atoms: C_12  and  C_25
    9  A    between atoms: C_15  and  C_23
   10  A    between atoms: C_17  and  C_30
   11  A    between atoms: C_19  and  C_24
                            x       y       z     vdW  Elec       q    Type
                         _______ _______ _______ _____ _____    ______ ____

>  <TORSDO>
F 11

$$$$
=
 OpenBabel10272400393D

 31 34  0  0  1  0  0  0  0  0999 V2000
  189.2030  177.4550  140.3800 O   0  0  0  0  0  0  0  0  0  0  0  0
  189.2400  177.1580  141.7560 C   0  0  2  0  0  3  0  0  0  0  0  0
  187.2200  178.7310  140.9840 C   0  0  1  0  0  3  0  0  0  0  0  0
  187.4410  178.2760  142.3000 O   0  0  0  0  0  0  0  0  0  0  0  0
  187.8580  177.7070  140.0270 C   0  0  1  0  0  3  0  0  0  0  0  0
  188.7560  178.2700  142.4770 O   0  0  0  0  0  0  0  0  0  0  0  0
  187.7620  178.1580  138.5650 C   0  0  1  0  0  3  0  0  0  0  0  0
  189.9150  177.7760  137.3180 C   0  0  0  0  0  2  0  0  0  0  0  0
  189.0760  178.7900  138.0790 C   0  0  0  0  0  2  0  0  0  0  0  0
  189.1600  177.2630  136.0800 C   0  0  0  0  0  2  0  0  0  0  0  0
  187.1040  178.3770  135.6770 C   0  0  0  0  0  1  0  0  0  0  0  0
  187.3020  176.9940  137.6580 C   0  0  2  0  0  3  0  0  0  0  0  0
  187.6990  177.1720  136.2460 N   0  0  0  0  0  0  0  0  0  0  0  0
  185.8060  176.7210  137.7780 C   0  0  0  0  0  2  0  0  0  0  0  0
  185.4750  175.5400  137.1140 O   0  0  0  0  0  1  0  0  0  0  0  0
  185.7220  178.8550  140.7270 C   0  0  0  0  0  2  0  0  0  0  0  0
  184.8880  178.2860  141.8740 C   0  0  1  0  0  3  0  0  0  0  0  0
  185.0000  179.1480  143.1250 C   0  0  1  0  0  3  0  0  0  0  0  0
  183.6580  179.2120  143.8260 C   0  0  0  0  0  2  0  0  0  0  0  0
  184.7410  178.2900  144.3480 C   0  0  2  0  0  3  0  0  0  0  0  0
  185.4130  178.9310  145.5460 C   0  0  0  0  0  2  0  0  0  0  0  0
  186.0890  177.8690  146.3920 C   0  0  2  0  0  3  0  0  0  0  0  0
  186.8670  178.5050  147.4760 C   0  0  0  0  0  2  0  0  0  0  0  0
  187.4830  178.0330  146.3020 O   0  0  0  0  0  0  0  0  0  0  0  0
  183.5490  178.1660  141.4900 O   0  0  0  0  0  0  0  0  0  0  0  0
  183.5560  178.3290  140.1040 C   0  0  0  0  0  1  0  0  0  0  0  0
  190.6720  176.8680  142.1640 C   0  0  0  0  0  2  0  0  0  0  0  0
  190.7270  176.3380  143.5860 C   0  0  1  0  0  3  0  0  0  0  0  0
  191.4020  175.1320  143.6100 F   0  0  0  0  0  0  0  0  0  0  0  0
  191.5880  177.5340  144.6480 S   0  0  0  0  0  0  0  0  0  0  0  0
  190.8110  176.8780  146.1510 C   0  0  0  0  0  1  0  0  0  0  0  0
  1  2  1  0  0  0  0
  2 27  1  1  0  0  0
  2  6  1  0  0  0  0
  3 16  1  6  0  0  0
  3  4  1  0  0  0  0
  4  6  1  0  0  0  0
  5  1  1  1  0  0  0
  5  3  1  0  0  0  0
  7  9  1  6  0  0  0
  7  5  1  0  0  0  0
  8  9  1  0  0  0  0
 10 13  1  0  0  0  0
 10  8  1  0  0  0  0
 11 13  1  0  0  0  0
 12 14  1  6  0  0  0
 12  7  1  0  0  0  0
 13 12  1  0  0  0  0
 15 14  1  0  0  0  0
 17 16  1  6  0  0  0
 18 17  1  6  0  0  0
 18 19  1  0  0  0  0
 18 20  1  0  0  0  0
 19 20  1  0  0  0  0
 20 21  1  1  0  0  0
 22 21  1  6  0  0  0
 22 23  1  0  0  0  0
 24 22  1  0  0  0  0
 24 23  1  0  0  0  0
 25 17  1  0  0  0  0
 26 25  1  0  0  0  0
 27 28  1  0  0  0  0
 28 29  1  6  0  0  0
 28 30  1  0  0  0  0
 30 31  1  0  0  0  0
M  END
>  <MODEL>
7

>  <REMARK>
 VINA RESULT:      -5.8      2.930      5.287
  Name = 
  11 active torsions:
  status: ('A' for Active; 'I' for Inactive)
    1  A    between atoms: C_1  and  C_24
    2  A    between atoms: C_2  and  S_13
    3  A    between atoms: C_2  and  C_25
    4  A    between atoms: O_3  and  C_9
    5  A    between atoms: C_5  and  C_21
    6  A    between atoms: C_6  and  C_9
    7  A    between atoms: C_9  and  C_23
    8  A    between atoms: C_12  and  C_25
    9  A    between atoms: C_15  and  C_23
   10  A    between atoms: C_17  and  C_30
   11  A    between atoms: C_19  and  C_24
                            x       y       z     vdW  Elec       q    Type
                         _______ _______ _______ _____ _____    ______ ____

>  <TORSDO>
F 11

$$$$
=
 OpenBabel10272400393D

 31 34  0  0  1  0  0  0  0  0999 V2000
  184.4340  178.5370  142.2260 O   0  0  0  0  0  0  0  0  0  0  0  0
  184.1970  178.3050  140.8580 C   0  0  2  0  0  3  0  0  0  0  0  0
  186.6640  179.1430  141.4600 C   0  0  1  0  0  3  0  0  0  0  0  0
  186.2080  178.8170  140.1680 O   0  0  0  0  0  0  0  0  0  0  0  0
  185.8130  178.3450  142.4660 C   0  0  1  0  0  3  0  0  0  0  0  0
  184.9470  179.2280  140.1010 O   0  0  0  0  0  0  0  0  0  0  0  0
  186.1610  178.7020  143.9160 C   0  0  1  0  0  3  0  0  0  0  0  0
  184.1180  178.7830  145.3830 C   0  0  0  0  0  2  0  0  0  0  0  0
  185.0900  179.6030  144.5510 C   0  0  0  0  0  2  0  0  0  0  0  0
  184.8520  178.0590  146.5250 C   0  0  0  0  0  2  0  0  0  0  0  0
  187.1440  178.6460  146.7180 C   0  0  0  0  0  1  0  0  0  0  0  0
  186.4240  177.4280  144.7500 C   0  0  2  0  0  3  0  0  0  0  0  0
  186.2260  177.6360  146.1990 N   0  0  0  0  0  0  0  0  0  0  0  0
  187.7930  176.8190  144.4650 C   0  0  0  0  0  2  0  0  0  0  0  0
  187.6910  175.8400  143.4760 O   0  0  0  0  0  1  0  0  0  0  0  0
  188.1400  178.7840  141.5920 C   0  0  0  0  0  2  0  0  0  0  0  0
  188.5740  177.7350  140.5690 C   0  0  1  0  0  3  0  0  0  0  0  0
  189.0650  178.3820  139.2810 C   0  0  1  0  0  3  0  0  0  0  0  0
  190.0210  177.4480  138.5680 C   0  0  0  0  0  2  0  0  0  0  0  0
  188.5860  177.5660  138.0970 C   0  0  2  0  0  3  0  0  0  0  0  0
  188.5290  178.4620  136.8750 C   0  0  0  0  0  2  0  0  0  0  0  0
  188.3360  177.6250  135.6260 C   0  0  2  0  0  3  0  0  0  0  0  0
  187.1020  178.0390  134.9250 C   0  0  0  0  0  2  0  0  0  0  0  0
  187.1380  176.8970  135.7450 O   0  0  0  0  0  0  0  0  0  0  0  0
  189.5710  176.9150  141.1060 O   0  0  0  0  0  0  0  0  0  0  0  0
  190.2330  177.7140  142.0390 C   0  0  0  0  0  1  0  0  0  0  0  0
  182.7190  178.4900  140.5710 C   0  0  0  0  0  2  0  0  0  0  0  0
  182.5170  179.3430  139.3310 C   0  0  1  0  0  3  0  0  0  0  0  0
  182.5740  178.5460  138.2020 F   0  0  0  0  0  0  0  0  0  0  0  0
  180.8980  180.1610  139.4120 S   0  0  0  0  0  0  0  0  0  0  0  0
  181.4870  181.5940  138.4680 C   0  0  0  0  0  1  0  0  0  0  0  0
  2 27  1  1  0  0  0
  2  1  1  0  0  0  0
  3 16  1  6  0  0  0
  3  5  1  0  0  0  0
  4  3  1  0  0  0  0
  5  1  1  6  0  0  0
  5  7  1  0  0  0  0
  6  4  1  0  0  0  0
  6  2  1  0  0  0  0
  7  9  1  1  0  0  0
  7 12  1  0  0  0  0
  8 10  1  0  0  0  0
  9  8  1  0  0  0  0
 12 14  1  1  0  0  0
 12 13  1  0  0  0  0
 13 10  1  0  0  0  0
 13 11  1  0  0  0  0
 15 14  1  0  0  0  0
 17 25  1  0  0  0  0
 17 16  1  1  0  0  0
 18 17  1  1  0  0  0
 19 18  1  0  0  0  0
 20 21  1  6  0  0  0
 20 19  1  0  0  0  0
 20 18  1  0  0  0  0
 22 24  1  0  0  0  0
 22 21  1  1  0  0  0
 23 22  1  0  0  0  0
 23 24  1  0  0  0  0
 25 26  1  0  0  0  0
 28 29  1  6  0  0  0
 28 30  1  0  0  0  0
 28 27  1  0  0  0  0
 31 30  1  0  0  0  0
M  END
>  <MODEL>
8

>  <REMARK>
 VINA RESULT:      -5.6      3.513      7.509
  Name = 
  11 active torsions:
  status: ('A' for Active; 'I' for Inactive)
    1  A    between atoms: C_1  and  C_24
    2  A    between atoms: C_2  and  S_13
    3  A    between atoms: C_2  and  C_25
    4  A    between atoms: O_3  and  C_9
    5  A    between atoms: C_5  and  C_21
    6  A    between atoms: C_6  and  C_9
    7  A    between atoms: C_9  and  C_23
    8  A    between atoms: C_12  and  C_25
    9  A    between atoms: C_15  and  C_23
   10  A    between atoms: C_17  and  C_30
   11  A    between atoms: C_19  and  C_24
                            x       y       z     vdW  Elec       q    Type
                         _______ _______ _______ _____ _____    ______ ____

>  <TORSDO>
F 11

$$$$
=
 OpenBabel10272400393D

 31 34  0  0  1  0  0  0  0  0999 V2000
  187.0430  178.3460  139.4540 O   0  0  0  0  0  0  0  0  0  0  0  0
  186.7620  178.5380  140.8200 C   0  0  2  0  0  3  0  0  0  0  0  0
  184.7920  179.2180  139.1440 C   0  0  1  0  0  3  0  0  0  0  0  0
  184.7260  179.2910  140.5500 O   0  0  0  0  0  0  0  0  0  0  0  0
  185.8180  178.1270  138.7850 C   0  0  1  0  0  3  0  0  0  0  0  0
  185.9310  179.6690  140.9610 O   0  0  0  0  0  0  0  0  0  0  0  0
  186.0420  178.0330  137.2710 C   0  0  1  0  0  3  0  0  0  0  0  0
  188.4840  177.8510  136.6900 C   0  0  0  0  0  2  0  0  0  0  0  0
  187.3030  178.7960  136.8350 C   0  0  0  0  0  2  0  0  0  0  0  0
  188.1980  176.7800  135.6230 C   0  0  0  0  0  2  0  0  0  0  0  0
  186.1620  177.1110  134.4510 C   0  0  0  0  0  1  0  0  0  0  0  0
  186.0620  176.5580  136.8080 C   0  0  2  0  0  3  0  0  0  0  0  0
  186.7870  176.3630  135.5360 N   0  0  0  0  0  0  0  0  0  0  0  0
  184.6640  175.9510  136.7410 C   0  0  0  0  0  2  0  0  0  0  0  0
  184.7160  174.5830  137.0070 O   0  0  0  0  0  1  0  0  0  0  0  0
  183.4160  178.8760  138.5810 C   0  0  0  0  0  2  0  0  0  0  0  0
  182.2910  179.5900  139.3300 C   0  0  1  0  0  3  0  0  0  0  0  0
  181.3290  180.2750  138.3690 C   0  0  1  0  0  3  0  0  0  0  0  0
  180.3190  181.0910  139.1490 C   0  0  0  0  0  2  0  0  0  0  0  0
  181.4940  181.7770  138.4830 C   0  0  2  0  0  3  0  0  0  0  0  0
  181.0350  182.4200  137.1880 C   0  0  0  0  0  2  0  0  0  0  0  0
  180.7930  183.9010  137.4010 C   0  0  2  0  0  3  0  0  0  0  0  0
  181.0700  184.6430  136.1530 C   0  0  0  0  0  2  0  0  0  0  0  0
  182.0020  184.5940  137.2060 O   0  0  0  0  0  0  0  0  0  0  0  0
  181.5990  178.6870  140.1430 O   0  0  0  0  0  0  0  0  0  0  0  0
  181.4410  177.5430  139.3600 C   0  0  0  0  0  1  0  0  0  0  0  0
  188.0610  178.7610  141.5700 C   0  0  0  0  0  2  0  0  0  0  0  0
  188.8230  177.4570  141.7220 C   0  0  1  0  0  3  0  0  0  0  0  0
  190.1680  177.7200  141.9080 F   0  0  0  0  0  0  0  0  0  0  0  0
  188.1830  176.5420  143.1550 S   0  0  0  0  0  0  0  0  0  0  0  0
  188.8460  177.7580  144.3270 C   0  0  0  0  0  1  0  0  0  0  0  0
  1  2  1  0  0  0  0
  2  6  1  0  0  0  0
  2 27  1  1  0  0  0
  3 16  1  1  0  0  0
  3  4  1  0  0  0  0
  4  6  1  0  0  0  0
  5  3  1  0  0  0  0
  5  1  1  1  0  0  0
  7  9  1  1  0  0  0
  7  5  1  0  0  0  0
  8  9  1  0  0  0  0
 10  8  1  0  0  0  0
 11 13  1  0  0  0  0
 12 14  1  6  0  0  0
 12  7  1  0  0  0  0
 13 10  1  0  0  0  0
 13 12  1  0  0  0  0
 14 15  1  0  0  0  0
 17 16  1  6  0  0  0
 17 25  1  0  0  0  0
 18 20  1  0  0  0  0
 18 19  1  0  0  0  0
 18 17  1  1  0  0  0
 20 21  1  6  0  0  0
 20 19  1  0  0  0  0
 22 21  1  6  0  0  0
 23 24  1  0  0  0  0
 23 22  1  0  0  0  0
 24 22  1  0  0  0  0
 26 25  1  0  0  0  0
 27 28  1  0  0  0  0
 28 29  1  1  0  0  0
 28 30  1  0  0  0  0
 30 31  1  0  0  0  0
M  END
>  <MODEL>
9

>  <REMARK>
 VINA RESULT:      -5.5      4.980      8.341
  Name = 
  11 active torsions:
  status: ('A' for Active; 'I' for Inactive)
    1  A    between atoms: C_1  and  C_24
    2  A    between atoms: C_2  and  S_13
    3  A    between atoms: C_2  and  C_25
    4  A    between atoms: O_3  and  C_9
    5  A    between atoms: C_5  and  C_21
    6  A    between atoms: C_6  and  C_9
    7  A    between atoms: C_9  and  C_23
    8  A    between atoms: C_12  and  C_25
    9  A    between atoms: C_15  and  C_23
   10  A    between atoms: C_17  and  C_30
   11  A    between atoms: C_19  and  C_24
                            x       y       z     vdW  Elec       q    Type
                         _______ _______ _______ _____ _____    ______ ____

>  <TORSDO>
F 11

$$$$
