=
 OpenBabel10272415083D

 34 39  0  0  0  0  0  0  0  0999 V2000
  184.4430  178.6610  141.6020 C   0  0  0  0  0  0  0  0  0  0  0  0
  185.6670  178.3020  138.0420 C   0  0  0  0  0  3  0  0  0  0  0  0
  183.5000  178.5390  138.9290 C   0  0  0  0  0  3  0  0  0  0  0  0
  183.5300  178.8950  144.0000 C   0  0  0  0  0  0  0  0  0  0  0  0
  184.7640  178.7390  143.0900 C   0  0  0  0  0  2  0  0  0  0  0  0
  182.0750  178.8780  142.0720 C   0  0  0  0  0  0  0  0  0  0  0  0
  180.9420  178.9080  141.3330 N   0  0  0  0  0  0  0  0  0  0  0  0
  182.2660  178.9550  143.5210 C   0  0  0  0  0  3  0  0  0  0  0  0
  182.6420  178.6880  140.0080 C   0  0  0  0  0  0  0  0  0  0  0  0
  183.1240  178.7420  141.2530 C   0  0  0  0  0  0  0  0  0  0  0  0
  181.2950  178.7890  140.0470 N   0  0  0  0  0  0  0  0  0  0  0  0
  187.0370  178.1800  137.8740 C   0  0  0  0  0  3  0  0  0  0  0  0
  188.0570  178.1670  138.8150 C   0  0  0  0  0  0  0  0  0  0  0  0
  187.8810  178.2800  140.1880 C   0  0  0  0  0  3  0  0  0  0  0  0
  184.8950  178.4470  139.1880 C   0  0  0  0  0  0  0  0  0  0  0  0
  186.7220  178.4280  140.9330 C   0  0  0  0  0  3  0  0  0  0  0  0
  185.3850  178.5080  140.5470 C   0  0  0  0  0  0  0  0  0  0  0  0
  189.4370  178.0190  138.3110 C   0  0  0  0  0  0  0  0  0  0  0  0
  190.4760  177.7110  139.1830 O   0  0  0  0  0  1  0  0  0  0  0  0
  189.6920  178.1680  137.0860 O   0  0  0  0  0  0  0  0  0  0  0  0
  183.7380  178.9460  145.4760 C   0  0  0  0  0  2  0  0  0  0  0  0
  186.9100  178.3560  147.4650 C   0  0  0  0  0  3  0  0  0  0  0  0
  185.9850  178.0450  144.8350 C   0  0  0  0  0  3  0  0  0  0  0  0
  189.9370  176.9910  145.8160 C   0  0  0  0  0  0  0  0  0  0  0  0
  189.0790  177.4980  146.8030 C   0  0  0  0  0  3  0  0  0  0  0  0
  187.7640  177.8490  146.4820 C   0  0  0  0  0  0  0  0  0  0  0  0
  188.1530  177.1890  144.1740 C   0  0  0  0  0  3  0  0  0  0  0  0
  187.2980  177.6920  145.1570 C   0  0  0  0  0  0  0  0  0  0  0  0
  189.4660  176.8400  144.5030 C   0  0  0  0  0  3  0  0  0  0  0  0
  185.1320  178.5470  145.8250 C   0  0  0  0  0  0  0  0  0  0  0  0
  185.5980  178.7060  147.1370 C   0  0  0  0  0  3  0  0  0  0  0  0
  191.3190  176.6230  146.1610 C   0  0  0  0  0  0  0  0  0  0  0  0
  192.0400  176.0070  145.3330 O   0  0  0  0  0  0  0  0  0  0  0  0
  191.8420  176.9540  147.4060 O   0  0  0  0  0  1  0  0  0  0  0  0
  1  5  1  0  0  0  0
  2 15  1  0  0  0  0
  3 15  2  0  0  0  0
  3  9  1  0  0  0  0
  4 21  1  0  0  0  0
  5  4  1  0  0  0  0
  6  8  1  0  0  0  0
  7  6  2  0  0  0  0
  8  4  2  0  0  0  0
  9 11  2  0  0  0  0
  9 10  1  0  0  0  0
 10  1  2  0  0  0  0
 10  6  1  0  0  0  0
 11  7  1  0  0  0  0
 12  2  2  0  0  0  0
 12 13  1  0  0  0  0
 13 14  2  0  0  0  0
 14 16  1  0  0  0  0
 15 17  1  0  0  0  0
 17 16  2  0  0  0  0
 17  1  1  0  0  0  0
 18 13  1  0  0  0  0
 18 19  1  0  0  0  0
 20 18  2  0  0  0  0
 21 30  1  0  0  0  0
 23 28  2  0  0  0  0
 23 30  1  0  0  0  0
 24 32  1  0  0  0  0
 24 25  2  0  0  0  0
 26 25  1  0  0  0  0
 26 22  2  0  0  0  0
 27 29  2  0  0  0  0
 27 28  1  0  0  0  0
 28 26  1  0  0  0  0
 29 24  1  0  0  0  0
 30 31  2  0  0  0  0
 31 22  1  0  0  0  0
 32 34  1  0  0  0  0
 33 32  2  0  0  0  0
M  END
>  <MODEL>
1

>  <REMARK>
 VINA RESULT:     -12.4      0.000      0.000
  Name = 
  4 active torsions:
  status: ('A' for Active; 'I' for Inactive)
    1  A    between atoms: C_3  and  C_25
    2  A    between atoms: C_7  and  C_11
    3  A    between atoms: C_8  and  C_18
    4  A    between atoms: C_18  and  C_30
                            x       y       z     vdW  Elec       q    Type
                         _______ _______ _______ _____ _____    ______ ____

>  <TORSDO>
F 4

$$$$
=
 OpenBabel10272415083D

 34 39  0  0  0  0  0  0  0  0999 V2000
  186.4020  178.1740  144.0170 C   0  0  0  0  0  0  0  0  0  0  0  0
  187.9200  177.5330  147.4210 C   0  0  0  0  0  3  0  0  0  0  0  0
  185.7620  178.2200  146.7810 C   0  0  0  0  0  3  0  0  0  0  0  0
  185.3000  178.6430  141.7360 C   0  0  0  0  0  0  0  0  0  0  0  0
  186.5660  178.2100  142.5020 C   0  0  0  0  0  2  0  0  0  0  0  0
  184.0950  178.8880  143.8140 C   0  0  0  0  0  0  0  0  0  0  0  0
  183.0860  179.1530  144.6770 N   0  0  0  0  0  0  0  0  0  0  0  0
  184.1400  178.9670  142.3540 C   0  0  0  0  0  3  0  0  0  0  0  0
  184.8360  178.5510  145.8040 C   0  0  0  0  0  0  0  0  0  0  0  0
  185.1750  178.5160  144.5120 C   0  0  0  0  0  0  0  0  0  0  0  0
  183.5480  178.9440  145.9160 N   0  0  0  0  0  0  0  0  0  0  0  0
  189.2470  177.1320  147.4350 C   0  0  0  0  0  3  0  0  0  0  0  0
  190.1300  176.9220  146.3860 C   0  0  0  0  0  0  0  0  0  0  0  0
  189.8280  177.0870  145.0400 C   0  0  0  0  0  3  0  0  0  0  0  0
  187.0700  177.8460  146.3670 C   0  0  0  0  0  0  0  0  0  0  0  0
  188.6460  177.4750  144.4290 C   0  0  0  0  0  3  0  0  0  0  0  0
  187.4060  177.8200  144.9610 C   0  0  0  0  0  0  0  0  0  0  0  0
  191.4980  176.4910  146.7330 C   0  0  0  0  0  0  0  0  0  0  0  0
  192.0900  176.9140  147.9190 O   0  0  0  0  0  1  0  0  0  0  0  0
  192.1490  175.7340  145.9630 O   0  0  0  0  0  0  0  0  0  0  0  0
  185.3690  178.7440  140.2490 C   0  0  0  0  0  2  0  0  0  0  0  0
  188.1180  177.5040  137.9520 C   0  0  0  0  0  3  0  0  0  0  0  0
  187.7940  178.2520  140.6360 C   0  0  0  0  0  3  0  0  0  0  0  0
  191.5480  176.9590  139.2460 C   0  0  0  0  0  0  0  0  0  0  0  0
  190.4550  177.0180  138.3690 C   0  0  0  0  0  3  0  0  0  0  0  0
  189.2060  177.4470  138.8260 C   0  0  0  0  0  0  0  0  0  0  0  0
  190.1300  177.7640  141.0530 C   0  0  0  0  0  3  0  0  0  0  0  0
  189.0440  177.8240  140.1780 C   0  0  0  0  0  0  0  0  0  0  0  0
  191.3770  177.3340  140.5880 C   0  0  0  0  0  3  0  0  0  0  0  0
  186.7090  178.3110  139.7550 C   0  0  0  0  0  0  0  0  0  0  0  0
  186.8710  177.9330  138.4160 C   0  0  0  0  0  3  0  0  0  0  0  0
  192.8600  176.5060  138.7590 C   0  0  0  0  0  0  0  0  0  0  0  0
  193.9190  176.9060  139.3120 O   0  0  0  0  0  1  0  0  0  0  0  0
  192.9430  175.6320  137.6810 O   0  0  0  0  0  0  0  0  0  0  0  0
  1 10  1  0  0  0  0
  1 17  2  0  0  0  0
  2 12  1  0  0  0  0
  4  8  2  0  0  0  0
  4  5  1  0  0  0  0
  5  1  1  0  0  0  0
  6 10  2  0  0  0  0
  6  7  1  0  0  0  0
  7 11  2  0  0  0  0
  8  6  1  0  0  0  0
  9 11  1  0  0  0  0
  9  3  2  0  0  0  0
 10  9  1  0  0  0  0
 13 18  1  0  0  0  0
 13 12  2  0  0  0  0
 14 13  1  0  0  0  0
 15  3  1  0  0  0  0
 15  2  2  0  0  0  0
 16 17  1  0  0  0  0
 16 14  2  0  0  0  0
 17 15  1  0  0  0  0
 18 19  1  0  0  0  0
 20 18  2  0  0  0  0
 21  4  1  0  0  0  0
 22 31  2  0  0  0  0
 22 26  1  0  0  0  0
 24 29  1  0  0  0  0
 25 26  1  0  0  0  0
 25 24  2  0  0  0  0
 26 28  2  0  0  0  0
 28 23  1  0  0  0  0
 28 27  1  0  0  0  0
 29 27  2  0  0  0  0
 30 21  1  0  0  0  0
 30 23  2  0  0  0  0
 31 30  1  0  0  0  0
 32 24  1  0  0  0  0
 32 33  1  0  0  0  0
 34 32  2  0  0  0  0
M  END
>  <MODEL>
2

>  <REMARK>
 VINA RESULT:     -12.4      1.908      6.720
  Name = 
  4 active torsions:
  status: ('A' for Active; 'I' for Inactive)
    1  A    between atoms: C_3  and  C_25
    2  A    between atoms: C_7  and  C_11
    3  A    between atoms: C_8  and  C_18
    4  A    between atoms: C_18  and  C_30
                            x       y       z     vdW  Elec       q    Type
                         _______ _______ _______ _____ _____    ______ ____

>  <TORSDO>
F 4

$$$$
=
 OpenBabel10272415083D

 34 39  0  0  0  0  0  0  0  0999 V2000
  187.7400  177.8070  145.2480 C   0  0  0  0  0  0  0  0  0  0  0  0
  184.1630  178.8280  145.9270 C   0  0  0  0  0  3  0  0  0  0  0  0
  185.9950  178.5150  147.3710 C   0  0  0  0  0  3  0  0  0  0  0  0
  190.1900  177.1040  144.8690 C   0  0  0  0  0  0  0  0  0  0  0  0
  188.8130  177.4020  144.2440 C   0  0  0  0  0  3  0  0  0  0  0  0
  189.3260  177.5980  147.0700 C   0  0  0  0  0  0  0  0  0  0  0  0
  189.2820  177.7610  148.4120 N   0  0  0  0  0  2  0  0  0  0  0  0
  190.4290  177.1920  146.1990 C   0  0  0  0  0  3  0  0  0  0  0  0
  187.3260  178.1910  147.5870 C   0  0  0  0  0  0  0  0  0  0  0  0
  188.1170  177.8640  146.5610 C   0  0  0  0  0  0  0  0  0  0  0  0
  188.0360  178.1300  148.7350 N   0  0  0  0  0  0  0  0  0  0  0  0
  183.3300  178.9170  144.8230 C   0  0  0  0  0  3  0  0  0  0  0  0
  183.5960  178.6880  143.4800 C   0  0  0  0  0  0  0  0  0  0  0  0
  184.8260  178.3020  142.9620 C   0  0  0  0  0  3  0  0  0  0  0  0
  185.5050  178.4870  146.0360 C   0  0  0  0  0  0  0  0  0  0  0  0
  186.0310  178.0610  143.6030 C   0  0  0  0  0  3  0  0  0  0  0  0
  186.3870  178.1270  144.9480 C   0  0  0  0  0  0  0  0  0  0  0  0
  182.4790  178.8690  142.5330 C   0  0  0  0  0  0  0  0  0  0  0  0
  182.6890  178.7360  141.1640 O   0  0  0  0  0  0  0  0  0  0  0  0
  181.3220  179.1450  142.9480 O   0  0  0  0  0  1  0  0  0  0  0  0
  191.2970  176.6650  143.9710 C   0  0  0  0  0  2  0  0  0  0  0  0
  191.7130  177.3690  140.2700 C   0  0  0  0  0  3  0  0  0  0  0  0
  189.6530  177.2320  142.1690 C   0  0  0  0  0  3  0  0  0  0  0  0
  188.7710  178.1870  138.1690 C   0  0  0  0  0  0  0  0  0  0  0  0
  190.0950  177.9360  138.5560 C   0  0  0  0  0  3  0  0  0  0  0  0
  190.3930  177.6170  139.8840 C   0  0  0  0  0  0  0  0  0  0  0  0
  188.0370  177.8000  140.4560 C   0  0  0  0  0  3  0  0  0  0  0  0
  189.3560  177.5480  140.8410 C   0  0  0  0  0  0  0  0  0  0  0  0
  187.7470  178.1170  139.1250 C   0  0  0  0  0  3  0  0  0  0  0  0
  190.9770  176.9790  142.5480 C   0  0  0  0  0  0  0  0  0  0  0  0
  192.0040  177.0520  141.6000 C   0  0  0  0  0  3  0  0  0  0  0  0
  188.4640  178.5210  136.7690 C   0  0  0  0  0  0  0  0  0  0  0  0
  187.4940  179.2750  136.4910 O   0  0  0  0  0  1  0  0  0  0  0  0
  189.2430  178.0070  135.7390 O   0  0  0  0  0  0  0  0  0  0  0  0
  1 10  1  0  0  0  0
  2 15  1  0  0  0  0
  3  9  1  0  0  0  0
  4  8  2  0  0  0  0
  5  4  1  0  0  0  0
  5  1  2  0  0  0  0
  6  7  1  0  0  0  0
  7 11  1  0  0  0  0
  8  6  1  0  0  0  0
  9 11  2  0  0  0  0
 10  6  2  0  0  0  0
 10  9  1  0  0  0  0
 12  2  2  0  0  0  0
 13 12  1  0  0  0  0
 14 13  2  0  0  0  0
 14 16  1  0  0  0  0
 15  3  2  0  0  0  0
 16 17  2  0  0  0  0
 17  1  1  0  0  0  0
 17 15  1  0  0  0  0
 18 20  1  0  0  0  0
 18 13  1  0  0  0  0
 19 18  2  0  0  0  0
 21  4  1  0  0  0  0
 22 31  1  0  0  0  0
 23 30  1  0  0  0  0
 24 25  2  0  0  0  0
 24 29  1  0  0  0  0
 25 26  1  0  0  0  0
 26 22  2  0  0  0  0
 26 28  1  0  0  0  0
 27 28  1  0  0  0  0
 28 23  2  0  0  0  0
 29 27  2  0  0  0  0
 30 21  1  0  0  0  0
 31 30  2  0  0  0  0
 32 24  1  0  0  0  0
 33 32  1  0  0  0  0
 34 32  2  0  0  0  0
M  END
>  <MODEL>
3

>  <REMARK>
 VINA RESULT:     -12.3      3.944      7.841
  Name = 
  4 active torsions:
  status: ('A' for Active; 'I' for Inactive)
    1  A    between atoms: C_3  and  C_25
    2  A    between atoms: C_7  and  C_11
    3  A    between atoms: C_8  and  C_18
    4  A    between atoms: C_18  and  C_30
                            x       y       z     vdW  Elec       q    Type
                         _______ _______ _______ _____ _____    ______ ____

>  <TORSDO>
F 4

$$$$
=
 OpenBabel10272415083D

 34 39  0  0  0  0  0  0  0  0999 V2000
  189.0430  177.5890  143.8790 C   0  0  0  0  0  0  0  0  0  0  0  0
  191.3840  177.1920  140.9350 C   0  0  0  0  0  3  0  0  0  0  0  0
  191.6950  176.8120  143.2360 C   0  0  0  0  0  3  0  0  0  0  0  0
  187.5140  177.8470  145.9360 C   0  0  0  0  0  0  0  0  0  0  0  0
  187.6670  177.9740  144.4080 C   0  0  0  0  0  3  0  0  0  0  0  0
  189.7960  177.0790  146.1260 C   0  0  0  0  0  0  0  0  0  0  0  0
  190.9500  176.6460  146.6830 N   0  0  0  0  0  2  0  0  0  0  0  0
  188.5180  177.4310  146.7440 C   0  0  0  0  0  3  0  0  0  0  0  0
  191.2200  176.8060  144.5390 C   0  0  0  0  0  0  0  0  0  0  0  0
  189.9640  177.1780  144.8020 C   0  0  0  0  0  0  0  0  0  0  0  0
  191.8380  176.4750  145.6940 N   0  0  0  0  0  0  0  0  0  0  0  0
  190.8640  177.5110  139.6910 C   0  0  0  0  0  3  0  0  0  0  0  0
  189.6000  177.9630  139.3370 C   0  0  0  0  0  0  0  0  0  0  0  0
  188.5560  178.1940  140.2230 C   0  0  0  0  0  3  0  0  0  0  0  0
  190.8120  177.2230  142.2010 C   0  0  0  0  0  0  0  0  0  0  0  0
  188.5000  178.0440  141.6000 C   0  0  0  0  0  3  0  0  0  0  0  0
  189.4590  177.6210  142.5180 C   0  0  0  0  0  0  0  0  0  0  0  0
  189.3530  178.2190  137.9050 C   0  0  0  0  0  0  0  0  0  0  0  0
  188.9480  179.4770  137.4740 O   0  0  0  0  0  1  0  0  0  0  0  0
  189.5050  177.3020  137.0530 O   0  0  0  0  0  0  0  0  0  0  0  0
  186.2130  178.2350  146.5550 C   0  0  0  0  0  2  0  0  0  0  0  0
  182.8930  179.0070  144.8960 C   0  0  0  0  0  3  0  0  0  0  0  0
  185.4770  178.1950  144.1610 C   0  0  0  0  0  3  0  0  0  0  0  0
  182.5110  178.7000  141.2220 C   0  0  0  0  0  0  0  0  0  0  0  0
  182.2110  178.9370  142.5710 C   0  0  0  0  0  3  0  0  0  0  0  0
  183.1930  178.7710  143.5510 C   0  0  0  0  0  0  0  0  0  0  0  0
  184.7930  178.1250  141.8380 C   0  0  0  0  0  3  0  0  0  0  0  0
  184.4950  178.3630  143.1810 C   0  0  0  0  0  0  0  0  0  0  0  0
  183.8060  178.2940  140.8630 C   0  0  0  0  0  3  0  0  0  0  0  0
  185.1720  178.4370  145.5060 C   0  0  0  0  0  0  0  0  0  0  0  0
  183.8800  178.8380  145.8710 C   0  0  0  0  0  3  0  0  0  0  0  0
  181.4720  178.8760  140.1940 C   0  0  0  0  0  0  0  0  0  0  0  0
  181.6010  178.3450  139.0590 O   0  0  0  0  0  0  0  0  0  0  0  0
  180.3380  179.6320  140.4680 O   0  0  0  0  0  1  0  0  0  0  0  0
  1  5  2  0  0  0  0
  1 10  1  0  0  0  0
  2 15  1  0  0  0  0
  3  9  1  0  0  0  0
  4 21  1  0  0  0  0
  4  8  2  0  0  0  0
  5  4  1  0  0  0  0
  6  7  1  0  0  0  0
  6  8  1  0  0  0  0
  9 10  1  0  0  0  0
  9 11  2  0  0  0  0
 10  6  2  0  0  0  0
 11  7  1  0  0  0  0
 12  2  2  0  0  0  0
 13 12  1  0  0  0  0
 13 14  2  0  0  0  0
 14 16  1  0  0  0  0
 15 17  1  0  0  0  0
 15  3  2  0  0  0  0
 16 17  2  0  0  0  0
 17  1  1  0  0  0  0
 18 13  1  0  0  0  0
 19 18  1  0  0  0  0
 20 18  2  0  0  0  0
 22 31  1  0  0  0  0
 23 30  1  0  0  0  0
 24 25  2  0  0  0  0
 25 26  1  0  0  0  0
 26 22  2  0  0  0  0
 27 28  1  0  0  0  0
 28 26  1  0  0  0  0
 28 23  2  0  0  0  0
 29 24  1  0  0  0  0
 29 27  2  0  0  0  0
 30 31  2  0  0  0  0
 30 21  1  0  0  0  0
 32 34  1  0  0  0  0
 32 24  1  0  0  0  0
 33 32  2  0  0  0  0
M  END
>  <MODEL>
4

>  <REMARK>
 VINA RESULT:     -12.3      3.903      6.932
  Name = 
  4 active torsions:
  status: ('A' for Active; 'I' for Inactive)
    1  A    between atoms: C_3  and  C_25
    2  A    between atoms: C_7  and  C_11
    3  A    between atoms: C_8  and  C_18
    4  A    between atoms: C_18  and  C_30
                            x       y       z     vdW  Elec       q    Type
                         _______ _______ _______ _____ _____    ______ ____

>  <TORSDO>
F 4

$$$$
=
 OpenBabel10272415083D

 34 39  0  0  0  0  0  0  0  0999 V2000
  188.0370  177.6760  144.8140 C   0  0  0  0  0  0  0  0  0  0  0  0
  191.2540  176.7320  143.0650 C   0  0  0  0  0  3  0  0  0  0  0  0
  190.7380  176.9910  145.3470 C   0  0  0  0  0  3  0  0  0  0  0  0
  185.8880  178.3260  146.0780 C   0  0  0  0  0  0  0  0  0  0  0  0
  186.5660  178.0640  144.7190 C   0  0  0  0  0  3  0  0  0  0  0  0
  187.9520  177.8340  147.2310 C   0  0  0  0  0  0  0  0  0  0  0  0
  188.8340  177.6620  148.2430 N   0  0  0  0  0  2  0  0  0  0  0  0
  186.5410  178.2230  147.2580 C   0  0  0  0  0  3  0  0  0  0  0  0
  189.8380  177.2830  146.3600 C   0  0  0  0  0  0  0  0  0  0  0  0
  188.5730  177.6000  146.0690 C   0  0  0  0  0  0  0  0  0  0  0  0
  190.0090  177.3180  147.7000 N   0  0  0  0  0  0  0  0  0  0  0  0
  191.2050  176.6710  141.6820 C   0  0  0  0  0  3  0  0  0  0  0  0
  190.1500  176.9040  140.8120 C   0  0  0  0  0  0  0  0  0  0  0  0
  188.8630  177.2660  141.1930 C   0  0  0  0  0  3  0  0  0  0  0  0
  190.2770  177.0410  144.0030 C   0  0  0  0  0  0  0  0  0  0  0  0
  188.3290  177.4740  142.4540 C   0  0  0  0  0  3  0  0  0  0  0  0
  188.9020  177.3890  143.7220 C   0  0  0  0  0  0  0  0  0  0  0  0
  190.4210  176.7560  139.3690 C   0  0  0  0  0  0  0  0  0  0  0  0
  190.8650  175.5420  138.8570 O   0  0  0  0  0  1  0  0  0  0  0  0
  190.2530  177.7250  138.5810 O   0  0  0  0  0  0  0  0  0  0  0  0
  184.4570  178.7460  146.0880 C   0  0  0  0  0  2  0  0  0  0  0  0
  182.0140  178.7430  143.1890 C   0  0  0  0  0  3  0  0  0  0  0  0
  184.7850  178.8740  143.6080 C   0  0  0  0  0  3  0  0  0  0  0  0
  183.2410  178.9320  139.6960 C   0  0  0  0  0  0  0  0  0  0  0  0
  182.3730  178.8470  140.7940 C   0  0  0  0  0  3  0  0  0  0  0  0
  182.8810  178.8290  142.0960 C   0  0  0  0  0  0  0  0  0  0  0  0
  185.1420  178.9770  141.2140 C   0  0  0  0  0  3  0  0  0  0  0  0
  184.2760  178.8950  142.3070 C   0  0  0  0  0  0  0  0  0  0  0  0
  184.6260  178.9970  139.9150 C   0  0  0  0  0  3  0  0  0  0  0  0
  183.9120  178.7930  144.6990 C   0  0  0  0  0  0  0  0  0  0  0  0
  182.5290  178.7230  144.4880 C   0  0  0  0  0  3  0  0  0  0  0  0
  182.7000  178.9520  138.3280 C   0  0  0  0  0  0  0  0  0  0  0  0
  183.0140  178.0520  137.5050 O   0  0  0  0  0  0  0  0  0  0  0  0
  181.8360  179.9660  137.9320 O   0  0  0  0  0  1  0  0  0  0  0  0
  1 10  1  0  0  0  0
  2 15  1  0  0  0  0
  3  9  1  0  0  0  0
  4 21  1  0  0  0  0
  4  8  2  0  0  0  0
  5  1  2  0  0  0  0
  5  4  1  0  0  0  0
  6  8  1  0  0  0  0
  6  7  1  0  0  0  0
  9 11  2  0  0  0  0
 10  9  1  0  0  0  0
 10  6  2  0  0  0  0
 11  7  1  0  0  0  0
 12  2  2  0  0  0  0
 13 14  2  0  0  0  0
 13 12  1  0  0  0  0
 14 16  1  0  0  0  0
 15  3  2  0  0  0  0
 16 17  2  0  0  0  0
 17 15  1  0  0  0  0
 17  1  1  0  0  0  0
 18 13  1  0  0  0  0
 19 18  1  0  0  0  0
 20 18  2  0  0  0  0
 22 31  1  0  0  0  0
 23 30  1  0  0  0  0
 24 29  1  0  0  0  0
 24 25  2  0  0  0  0
 25 26  1  0  0  0  0
 26 28  1  0  0  0  0
 26 22  2  0  0  0  0
 27 28  1  0  0  0  0
 28 23  2  0  0  0  0
 29 27  2  0  0  0  0
 30 21  1  0  0  0  0
 31 30  2  0  0  0  0
 32 24  1  0  0  0  0
 33 32  2  0  0  0  0
 34 32  1  0  0  0  0
M  END
>  <MODEL>
5

>  <REMARK>
 VINA RESULT:     -12.1      3.456      7.039
  Name = 
  4 active torsions:
  status: ('A' for Active; 'I' for Inactive)
    1  A    between atoms: C_3  and  C_25
    2  A    between atoms: C_7  and  C_11
    3  A    between atoms: C_8  and  C_18
    4  A    between atoms: C_18  and  C_30
                            x       y       z     vdW  Elec       q    Type
                         _______ _______ _______ _____ _____    ______ ____

>  <TORSDO>
F 4

$$$$
=
 OpenBabel10272415083D

 34 39  0  0  0  0  0  0  0  0999 V2000
  186.7460  178.1180  144.0830 C   0  0  0  0  0  0  0  0  0  0  0  0
  187.8560  177.6630  147.6690 C   0  0  0  0  0  3  0  0  0  0  0  0
  185.7980  178.3370  146.7480 C   0  0  0  0  0  3  0  0  0  0  0  0
  185.9190  178.4650  141.6680 C   0  0  0  0  0  0  0  0  0  0  0  0
  187.0800  178.0630  142.5970 C   0  0  0  0  0  2  0  0  0  0  0  0
  184.4900  178.8480  143.5770 C   0  0  0  0  0  0  0  0  0  0  0  0
  183.3960  179.1770  144.3020 N   0  0  0  0  0  0  0  0  0  0  0  0
  184.7020  178.8390  142.1300 C   0  0  0  0  0  3  0  0  0  0  0  0
  184.9950  178.6210  145.6540 C   0  0  0  0  0  0  0  0  0  0  0  0
  185.4770  178.5050  144.4140 C   0  0  0  0  0  0  0  0  0  0  0  0
  183.7100  179.0350  145.5960 N   0  0  0  0  0  0  0  0  0  0  0  0
  189.1650  177.2460  147.8580 C   0  0  0  0  0  3  0  0  0  0  0  0
  190.1570  176.9640  146.9300 C   0  0  0  0  0  0  0  0  0  0  0  0
  190.0120  177.0520  145.5510 C   0  0  0  0  0  3  0  0  0  0  0  0
  187.1370  177.9230  146.5090 C   0  0  0  0  0  0  0  0  0  0  0  0
  188.9150  177.4180  144.7880 C   0  0  0  0  0  3  0  0  0  0  0  0
  187.6290  177.8090  145.1550 C   0  0  0  0  0  0  0  0  0  0  0  0
  191.4690  176.5370  147.4560 C   0  0  0  0  0  0  0  0  0  0  0  0
  192.1030  175.4130  146.9380 O   0  0  0  0  0  0  0  0  0  0  0  0
  192.0320  177.1850  148.3790 O   0  0  0  0  0  1  0  0  0  0  0  0
  186.1570  178.4760  140.1950 C   0  0  0  0  0  2  0  0  0  0  0  0
  189.8380  177.6630  140.6000 C   0  0  0  0  0  3  0  0  0  0  0  0
  187.8870  177.6480  138.5840 C   0  0  0  0  0  3  0  0  0  0  0  0
  191.8330  176.4860  137.7060 C   0  0  0  0  0  0  0  0  0  0  0  0
  191.4890  176.8820  139.0070 C   0  0  0  0  0  3  0  0  0  0  0  0
  190.1790  177.2680  139.3040 C   0  0  0  0  0  0  0  0  0  0  0  0
  189.5380  176.8690  136.9920 C   0  0  0  0  0  3  0  0  0  0  0  0
  189.1970  177.2600  138.2880 C   0  0  0  0  0  0  0  0  0  0  0  0
  190.8510  176.4830  136.7030 C   0  0  0  0  0  3  0  0  0  0  0  0
  187.5500  178.0380  139.8850 C   0  0  0  0  0  0  0  0  0  0  0  0
  188.5260  178.0490  140.8890 C   0  0  0  0  0  3  0  0  0  0  0  0
  193.2140  176.0810  137.4000 C   0  0  0  0  0  0  0  0  0  0  0  0
  194.0340  176.9130  136.9320 O   0  0  0  0  0  0  0  0  0  0  0  0
  193.6250  174.7720  137.6250 O   0  0  0  0  0  1  0  0  0  0  0  0
  1 10  1  0  0  0  0
  1 17  2  0  0  0  0
  2 12  1  0  0  0  0
  4  8  2  0  0  0  0
  4  5  1  0  0  0  0
  5  1  1  0  0  0  0
  6  7  1  0  0  0  0
  6 10  2  0  0  0  0
  7 11  2  0  0  0  0
  8  6  1  0  0  0  0
  9  3  2  0  0  0  0
 10  9  1  0  0  0  0
 11  9  1  0  0  0  0
 13 18  1  0  0  0  0
 13 12  2  0  0  0  0
 14 13  1  0  0  0  0
 15  3  1  0  0  0  0
 15  2  2  0  0  0  0
 16 17  1  0  0  0  0
 16 14  2  0  0  0  0
 17 15  1  0  0  0  0
 18 20  1  0  0  0  0
 19 18  2  0  0  0  0
 21  4  1  0  0  0  0
 22 31  1  0  0  0  0
 23 30  1  0  0  0  0
 24 25  2  0  0  0  0
 25 26  1  0  0  0  0
 26 22  2  0  0  0  0
 27 28  1  0  0  0  0
 28 23  2  0  0  0  0
 28 26  1  0  0  0  0
 29 27  2  0  0  0  0
 29 24  1  0  0  0  0
 30 21  1  0  0  0  0
 30 31  2  0  0  0  0
 32 34  1  0  0  0  0
 32 24  1  0  0  0  0
 33 32  2  0  0  0  0
M  END
>  <MODEL>
6

>  <REMARK>
 VINA RESULT:     -12.0      2.104      7.211
  Name = 
  4 active torsions:
  status: ('A' for Active; 'I' for Inactive)
    1  A    between atoms: C_3  and  C_25
    2  A    between atoms: C_7  and  C_11
    3  A    between atoms: C_8  and  C_18
    4  A    between atoms: C_18  and  C_30
                            x       y       z     vdW  Elec       q    Type
                         _______ _______ _______ _____ _____    ______ ____

>  <TORSDO>
F 4

$$$$
=
 OpenBabel10272415083D

 34 39  0  0  0  0  0  0  0  0999 V2000
  186.2520  178.3880  141.1590 C   0  0  0  0  0  0  0  0  0  0  0  0
  188.3790  177.8450  138.0800 C   0  0  0  0  0  3  0  0  0  0  0  0
  186.0970  178.3640  138.3260 C   0  0  0  0  0  3  0  0  0  0  0  0
  184.7340  178.7570  143.2080 C   0  0  0  0  0  0  0  0  0  0  0  0
  186.1460  178.4370  142.6790 C   0  0  0  0  0  2  0  0  0  0  0  0
  183.8940  178.9090  140.9490 C   0  0  0  0  0  0  0  0  0  0  0  0
  183.0300  179.0770  139.9210 N   0  0  0  0  0  0  0  0  0  0  0  0
  183.6750  178.9740  142.3940 C   0  0  0  0  0  3  0  0  0  0  0  0
  184.9940  178.6310  139.1230 C   0  0  0  0  0  0  0  0  0  0  0  0
  185.1070  178.6340  140.4550 C   0  0  0  0  0  0  0  0  0  0  0  0
  183.7150  178.9040  138.7840 N   0  0  0  0  0  0  0  0  0  0  0  0
  189.7140  177.5470  138.3020 C   0  0  0  0  0  3  0  0  0  0  0  0
  190.4160  177.4120  139.4910 C   0  0  0  0  0  0  0  0  0  0  0  0
  189.8740  177.5590  140.7620 C   0  0  0  0  0  3  0  0  0  0  0  0
  187.3390  178.0970  138.9650 C   0  0  0  0  0  0  0  0  0  0  0  0
  188.5790  177.8600  141.1530 C   0  0  0  0  0  3  0  0  0  0  0  0
  187.4270  178.1060  140.4080 C   0  0  0  0  0  0  0  0  0  0  0  0
  191.8520  177.0840  139.3920 C   0  0  0  0  0  0  0  0  0  0  0  0
  192.7630  177.6360  140.2870 O   0  0  0  0  0  1  0  0  0  0  0  0
  192.2730  176.3020  138.4980 O   0  0  0  0  0  0  0  0  0  0  0  0
  184.5200  178.7940  144.6840 C   0  0  0  0  0  2  0  0  0  0  0  0
  186.9570  178.0380  147.4870 C   0  0  0  0  0  3  0  0  0  0  0  0
  186.8990  178.0090  144.6830 C   0  0  0  0  0  3  0  0  0  0  0  0
  190.4090  176.9210  146.7280 C   0  0  0  0  0  0  0  0  0  0  0  0
  189.2650  177.2990  147.4460 C   0  0  0  0  0  3  0  0  0  0  0  0
  188.0960  177.6610  146.7710 C   0  0  0  0  0  0  0  0  0  0  0  0
  189.2060  177.2720  144.6430 C   0  0  0  0  0  3  0  0  0  0  0  0
  188.0670  177.6460  145.3580 C   0  0  0  0  0  0  0  0  0  0  0  0
  190.3710  176.9100  145.3250 C   0  0  0  0  0  3  0  0  0  0  0  0
  185.7600  178.3820  145.4060 C   0  0  0  0  0  0  0  0  0  0  0  0
  185.7920  178.4010  146.8060 C   0  0  0  0  0  3  0  0  0  0  0  0
  191.6360  176.5410  147.4450 C   0  0  0  0  0  0  0  0  0  0  0  0
  192.0470  177.2290  148.4160 O   0  0  0  0  0  1  0  0  0  0  0  0
  192.3550  175.4160  147.0560 O   0  0  0  0  0  0  0  0  0  0  0  0
  1  5  1  0  0  0  0
  2 12  2  0  0  0  0
  2 15  1  0  0  0  0
  3 15  2  0  0  0  0
  3  9  1  0  0  0  0
  4 21  1  0  0  0  0
  5  4  1  0  0  0  0
  6  8  1  0  0  0  0
  7  6  2  0  0  0  0
  8  4  2  0  0  0  0
  9 10  1  0  0  0  0
 10  6  1  0  0  0  0
 10  1  2  0  0  0  0
 11  9  2  0  0  0  0
 11  7  1  0  0  0  0
 12 13  1  0  0  0  0
 13 14  2  0  0  0  0
 14 16  1  0  0  0  0
 15 17  1  0  0  0  0
 17 16  2  0  0  0  0
 17  1  1  0  0  0  0
 18 13  1  0  0  0  0
 18 19  1  0  0  0  0
 20 18  2  0  0  0  0
 21 30  1  0  0  0  0
 23 28  2  0  0  0  0
 23 30  1  0  0  0  0
 24 32  1  0  0  0  0
 24 25  2  0  0  0  0
 26 25  1  0  0  0  0
 26 22  2  0  0  0  0
 27 29  2  0  0  0  0
 27 28  1  0  0  0  0
 28 26  1  0  0  0  0
 29 24  1  0  0  0  0
 30 31  2  0  0  0  0
 31 22  1  0  0  0  0
 32 33  1  0  0  0  0
 34 32  2  0  0  0  0
M  END
>  <MODEL>
7

>  <REMARK>
 VINA RESULT:     -11.7      1.304      2.021
  Name = 
  4 active torsions:
  status: ('A' for Active; 'I' for Inactive)
    1  A    between atoms: C_3  and  C_25
    2  A    between atoms: C_7  and  C_11
    3  A    between atoms: C_8  and  C_18
    4  A    between atoms: C_18  and  C_30
                            x       y       z     vdW  Elec       q    Type
                         _______ _______ _______ _____ _____    ______ ____

>  <TORSDO>
F 4

$$$$
=
 OpenBabel10272415083D

 34 39  0  0  0  0  0  0  0  0999 V2000
  188.7550  177.6420  143.9240 C   0  0  0  0  0  0  0  0  0  0  0  0
  185.6570  178.0360  146.0560 C   0  0  0  0  0  3  0  0  0  0  0  0
  187.8900  177.5590  146.6250 C   0  0  0  0  0  3  0  0  0  0  0  0
  190.9080  177.3460  142.5400 C   0  0  0  0  0  0  0  0  0  0  0  0
  189.3960  177.6420  142.5410 C   0  0  0  0  0  3  0  0  0  0  0  0
  190.8950  177.1370  144.9460 C   0  0  0  0  0  0  0  0  0  0  0  0
  191.3380  176.9310  146.2070 N   0  0  0  0  0  2  0  0  0  0  0  0
  191.6110  177.1030  143.6710 C   0  0  0  0  0  3  0  0  0  0  0  0
  189.2120  177.3420  146.2670 C   0  0  0  0  0  0  0  0  0  0  0  0
  189.5810  177.3900  144.9840 C   0  0  0  0  0  0  0  0  0  0  0  0
  190.2900  177.0590  147.0310 N   0  0  0  0  0  0  0  0  0  0  0  0
  184.4800  178.3210  145.3810 C   0  0  0  0  0  3  0  0  0  0  0  0
  184.2440  178.4880  144.0240 C   0  0  0  0  0  0  0  0  0  0  0  0
  185.2070  178.3950  143.0270 C   0  0  0  0  0  3  0  0  0  0  0  0
  186.9510  177.8320  145.5930 C   0  0  0  0  0  0  0  0  0  0  0  0
  186.5640  178.1300  143.1150 C   0  0  0  0  0  3  0  0  0  0  0  0
  187.3820  177.8760  144.2140 C   0  0  0  0  0  0  0  0  0  0  0  0
  182.8590  178.7880  143.6130 C   0  0  0  0  0  0  0  0  0  0  0  0
  182.5500  178.9870  142.2720 O   0  0  0  0  0  0  0  0  0  0  0  0
  181.9380  178.8670  144.4700 O   0  0  0  0  0  1  0  0  0  0  0  0
  191.6200  177.2890  141.2300 C   0  0  0  0  0  2  0  0  0  0  0  0
  190.0870  175.9560  138.0290 C   0  0  0  0  0  3  0  0  0  0  0  0
  189.4420  177.7540  140.0840 C   0  0  0  0  0  3  0  0  0  0  0  0
  186.7610  177.1410  136.9010 C   0  0  0  0  0  0  0  0  0  0  0  0
  187.9790  176.4470  136.9380 C   0  0  0  0  0  3  0  0  0  0  0  0
  188.8730  176.6470  137.9940 C   0  0  0  0  0  0  0  0  0  0  0  0
  187.3360  178.2460  138.9920 C   0  0  0  0  0  3  0  0  0  0  0  0
  188.5480  177.5520  139.0290 C   0  0  0  0  0  0  0  0  0  0  0  0
  186.4470  178.0400  137.9330 C   0  0  0  0  0  3  0  0  0  0  0  0
  190.6540  177.0550  140.1160 C   0  0  0  0  0  0  0  0  0  0  0  0
  190.9760  176.1610  139.0870 C   0  0  0  0  0  3  0  0  0  0  0  0
  185.8250  176.9260  135.7870 C   0  0  0  0  0  0  0  0  0  0  0  0
  186.2520  176.5940  134.6500 O   0  0  0  0  0  0  0  0  0  0  0  0
  184.4580  177.0890  135.9800 O   0  0  0  0  0  1  0  0  0  0  0  0
  1 17  1  0  0  0  0
  1 10  1  0  0  0  0
  4  5  1  0  0  0  0
  4  8  2  0  0  0  0
  5  1  2  0  0  0  0
  6 10  2  0  0  0  0
  6  7  1  0  0  0  0
  7 11  1  0  0  0  0
  8  6  1  0  0  0  0
  9  3  1  0  0  0  0
  9 11  2  0  0  0  0
 10  9  1  0  0  0  0
 12  2  2  0  0  0  0
 13 12  1  0  0  0  0
 14 16  1  0  0  0  0
 14 13  2  0  0  0  0
 15  2  1  0  0  0  0
 15  3  2  0  0  0  0
 16 17  2  0  0  0  0
 17 15  1  0  0  0  0
 18 13  1  0  0  0  0
 18 20  1  0  0  0  0
 19 18  2  0  0  0  0
 21  4  1  0  0  0  0
 22 31  1  0  0  0  0
 23 30  1  0  0  0  0
 24 25  2  0  0  0  0
 24 29  1  0  0  0  0
 25 26  1  0  0  0  0
 26 22  2  0  0  0  0
 26 28  1  0  0  0  0
 27 28  1  0  0  0  0
 28 23  2  0  0  0  0
 29 27  2  0  0  0  0
 30 21  1  0  0  0  0
 31 30  2  0  0  0  0
 32 34  1  0  0  0  0
 32 24  1  0  0  0  0
 33 32  2  0  0  0  0
M  END
>  <MODEL>
8

>  <REMARK>
 VINA RESULT:     -11.4      4.205      8.633
  Name = 
  4 active torsions:
  status: ('A' for Active; 'I' for Inactive)
    1  A    between atoms: C_3  and  C_25
    2  A    between atoms: C_7  and  C_11
    3  A    between atoms: C_8  and  C_18
    4  A    between atoms: C_18  and  C_30
                            x       y       z     vdW  Elec       q    Type
                         _______ _______ _______ _____ _____    ______ ____

>  <TORSDO>
F 4

$$$$
=
 OpenBabel10272415083D

 34 39  0  0  0  0  0  0  0  0999 V2000
  188.6170  177.8480  141.5440 C   0  0  0  0  0  0  0  0  0  0  0  0
  188.1410  177.7570  145.2950 C   0  0  0  0  0  3  0  0  0  0  0  0
  190.0330  177.3570  143.9540 C   0  0  0  0  0  3  0  0  0  0  0  0
  189.0180  177.8770  138.9990 C   0  0  0  0  0  0  0  0  0  0  0  0
  188.0220  178.0700  140.1590 C   0  0  0  0  0  2  0  0  0  0  0  0
  190.7800  177.3550  140.5670 C   0  0  0  0  0  0  0  0  0  0  0  0
  192.0010  177.0170  141.0430 N   0  0  0  0  0  0  0  0  0  0  0  0
  190.3140  177.5350  139.1920 C   0  0  0  0  0  3  0  0  0  0  0  0
  190.6430  177.2760  142.7100 C   0  0  0  0  0  0  0  0  0  0  0  0
  189.9420  177.5150  141.5980 C   0  0  0  0  0  0  0  0  0  0  0  0
  191.9150  176.9670  142.3780 N   0  0  0  0  0  0  0  0  0  0  0  0
  186.8680  178.0490  145.7590 C   0  0  0  0  0  3  0  0  0  0  0  0
  185.7140  178.3760  145.0610 C   0  0  0  0  0  0  0  0  0  0  0  0
  185.6160  178.4770  143.6790 C   0  0  0  0  0  3  0  0  0  0  0  0
  188.6540  177.7000  144.0050 C   0  0  0  0  0  0  0  0  0  0  0  0
  186.5760  178.2930  142.6970 C   0  0  0  0  0  3  0  0  0  0  0  0
  187.9250  177.9520  142.7830 C   0  0  0  0  0  0  0  0  0  0  0  0
  184.4980  178.6350  145.8560 C   0  0  0  0  0  0  0  0  0  0  0  0
  183.3490  179.1270  145.2450 O   0  0  0  0  0  0  0  0  0  0  0  0
  184.4820  178.4140  147.0970 O   0  0  0  0  0  1  0  0  0  0  0  0
  188.5220  178.0380  137.6020 C   0  0  0  0  0  2  0  0  0  0  0  0
  185.0100  176.7610  136.9650 C   0  0  0  0  0  3  0  0  0  0  0  0
  187.6020  175.7310  137.2760 C   0  0  0  0  0  3  0  0  0  0  0  0
  184.3660  173.1280  136.6070 C   0  0  0  0  0  0  0  0  0  0  0  0
  184.1530  174.5120  136.6750 C   0  0  0  0  0  3  0  0  0  0  0  0
  185.2240  175.3810  136.8960 C   0  0  0  0  0  0  0  0  0  0  0  0
  186.7430  173.4840  136.9870 C   0  0  0  0  0  3  0  0  0  0  0  0
  186.5300  174.8630  137.0520 C   0  0  0  0  0  0  0  0  0  0  0  0
  185.6660  172.6210  136.7640 C   0  0  0  0  0  3  0  0  0  0  0  0
  187.3820  177.1120  137.3390 C   0  0  0  0  0  0  0  0  0  0  0  0
  186.0870  177.6240  137.1880 C   0  0  0  0  0  3  0  0  0  0  0  0
  183.2340  172.2180  136.3730 C   0  0  0  0  0  0  0  0  0  0  0  0
  182.5860  172.2700  135.2940 O   0  0  0  0  0  0  0  0  0  0  0  0
  182.8680  171.2930  137.3440 O   0  0  0  0  0  1  0  0  0  0  0  0
  1 10  1  0  0  0  0
  1 17  2  0  0  0  0
  2 12  1  0  0  0  0
  3 15  1  0  0  0  0
  4  8  2  0  0  0  0
  4  5  1  0  0  0  0
  5  1  1  0  0  0  0
  6  7  1  0  0  0  0
  6 10  2  0  0  0  0
  7 11  2  0  0  0  0
  8  6  1  0  0  0  0
  9  3  2  0  0  0  0
 10  9  1  0  0  0  0
 11  9  1  0  0  0  0
 13 12  2  0  0  0  0
 13 18  1  0  0  0  0
 14 13  1  0  0  0  0
 15  2  2  0  0  0  0
 16 17  1  0  0  0  0
 16 14  2  0  0  0  0
 17 15  1  0  0  0  0
 18 20  1  0  0  0  0
 19 18  2  0  0  0  0
 21  4  1  0  0  0  0
 22 31  1  0  0  0  0
 23 30  1  0  0  0  0
 24 25  2  0  0  0  0
 24 29  1  0  0  0  0
 25 26  1  0  0  0  0
 26 22  2  0  0  0  0
 26 28  1  0  0  0  0
 27 28  1  0  0  0  0
 28 23  2  0  0  0  0
 29 27  2  0  0  0  0
 30 21  1  0  0  0  0
 31 30  2  0  0  0  0
 32 24  1  0  0  0  0
 32 34  1  0  0  0  0
 33 32  2  0  0  0  0
M  END
>  <MODEL>
9

>  <REMARK>
 VINA RESULT:     -11.1      4.800      9.208
  Name = 
  4 active torsions:
  status: ('A' for Active; 'I' for Inactive)
    1  A    between atoms: C_3  and  C_25
    2  A    between atoms: C_7  and  C_11
    3  A    between atoms: C_8  and  C_18
    4  A    between atoms: C_18  and  C_30
                            x       y       z     vdW  Elec       q    Type
                         _______ _______ _______ _____ _____    ______ ____

>  <TORSDO>
F 4

$$$$
