=
 OpenBabel10272400383D

 31 34  0  0  1  0  0  0  0  0999 V2000
  187.7620  177.6750  143.8970 C   0  0  0  0  0  0  0  0  0  0  0  0
  186.6020  178.0410  144.6190 C   0  0  0  0  0  0  0  0  0  0  0  0
  185.3930  178.3730  146.7040 C   0  0  0  0  0  3  0  0  0  0  0  0
  189.0250  177.2450  144.5380 C   0  0  0  0  0  0  0  0  0  0  0  0
  190.7150  176.7780  145.8230 C   0  0  0  0  0  0  0  0  0  0  0  0
  186.5560  178.0100  146.0210 C   0  0  0  0  0  3  0  0  0  0  0  0
  188.9970  177.4110  141.6670 C   0  0  2  0  0  3  0  0  0  0  0  0
  185.4690  178.4800  142.5460 N   0  0  0  0  0  0  0  0  0  0  0  0
  184.2600  178.7710  145.9920 C   0  0  0  0  0  3  0  0  0  0  0  0
  189.9780  176.4420  142.3520 C   0  0  0  0  0  2  0  0  0  0  0  0
  187.7340  177.6940  142.4810 C   0  0  0  0  0  0  0  0  0  0  0  0
  189.4320  177.3070  145.8600 C   0  0  0  0  0  3  0  0  0  0  0  0
  183.1460  179.2060  143.9040 O   0  0  0  0  0  1  0  0  0  0  0  0
  190.0580  176.7110  143.8170 C   0  0  0  0  0  0  0  0  0  0  0  0
  191.0630  176.4290  144.6040 O   0  0  0  0  0  0  0  0  0  0  0  0
  186.5710  178.1320  141.8350 C   0  0  0  0  0  3  0  0  0  0  0  0
  185.4480  178.4420  143.9040 C   0  0  0  0  0  0  0  0  0  0  0  0
  184.2830  178.8070  144.5970 C   0  0  0  0  0  0  0  0  0  0  0  0
  191.5670  176.6240  146.9670 C   0  0  0  0  0  0  0  0  0  0  0  0
  192.2550  176.4990  147.8910 N   0  0  0  0  0  0  0  0  0  0  0  0
  188.6720  176.8880  140.2680 C   0  0  0  0  0  2  0  0  0  0  0  0
  189.0730  179.1310  139.4900 O   0  0  0  0  0  1  0  0  0  0  0  0
  190.6820  177.4820  138.9170 C   0  0  0  0  0  1  0  0  0  0  0  0
  189.2140  177.7820  139.1500 C   0  0  1  0  0  0  0  0  0  0  0  0
  188.4590  177.4960  137.8520 C   0  0  0  0  0  2  0  0  0  0  0  0
  187.5920  179.3860  136.6940 O   0  0  0  0  0  0  0  0  0  0  0  0
  187.3900  178.5050  137.5710 C   0  0  0  0  0  0  0  0  0  0  0  0
  185.0650  177.8440  138.0140 C   0  0  0  0  0  0  0  0  0  0  0  0
  184.8980  177.0650  136.7510 C   0  0  0  0  0  1  0  0  0  0  0  0
  183.9080  177.9320  138.9420 C   0  0  0  0  0  1  0  0  0  0  0  0
  186.1680  178.4600  138.3270 N   0  0  0  0  0  0  0  0  0  0  0  0
  1  4  1  0  0  0  0
  1  2  1  0  0  0  0
  2  6  1  0  0  0  0
  4 12  1  0  0  0  0
  5 12  2  0  0  0  0
  5 19  1  0  0  0  0
  6  3  2  0  0  0  0
  7 21  1  6  0  0  0
  7 10  1  0  0  0  0
  7 11  1  0  0  0  0
  8 17  1  0  0  0  0
  9  3  1  0  0  0  0
 10 14  1  0  0  0  0
 11  1  2  0  0  0  0
 13 18  1  0  0  0  0
 14  4  2  0  0  0  0
 14 15  1  0  0  0  0
 15  5  1  0  0  0  0
 16 11  1  0  0  0  0
 16  8  2  0  0  0  0
 17 18  1  0  0  0  0
 17  2  2  0  0  0  0
 18  9  2  0  0  0  0
 19 20  3  0  0  0  0
 24 23  1  6  0  0  0
 24 22  1  0  0  0  0
 24 21  1  0  0  0  0
 25 24  1  0  0  0  0
 26 27  2  0  0  0  0
 27 25  1  0  0  0  0
 27 31  1  0  0  0  0
 28 31  2  0  0  0  0
 28 30  1  0  0  0  0
 29 28  1  0  0  0  0
M  END
>  <MODEL>
1

>  <REMARK>
 VINA RESULT:      -9.3      0.000      0.000
  Name = 
  6 active torsions:
  status: ('A' for Active; 'I' for Inactive)
    1  A    between atoms: C_2  and  C_13
    2  A    between atoms: C_9  and  C_22
    3  A    between atoms: C_9  and  C_23
    4  A    between atoms: C_15  and  C_23
    5  A    between atoms: C_19  and  C_22
    6  A    between atoms: C_19  and  N_24
                            x       y       z     vdW  Elec       q    Type
                         _______ _______ _______ _____ _____    ______ ____

>  <TORSDO>
F 6

$$$$
=
 OpenBabel10272400383D

 31 34  0  0  1  0  0  0  0  0999 V2000
  188.3310  177.6560  143.6480 C   0  0  0  0  0  0  0  0  0  0  0  0
  188.8730  177.4240  144.9330 C   0  0  0  0  0  0  0  0  0  0  0  0
  188.6740  177.3270  147.3560 C   0  0  0  0  0  3  0  0  0  0  0  0
  186.9230  178.0440  143.4100 C   0  0  0  0  0  0  0  0  0  0  0  0
  184.7950  178.4890  143.4510 C   0  0  0  0  0  0  0  0  0  0  0  0
  188.1070  177.5600  146.1010 C   0  0  0  0  0  3  0  0  0  0  0  0
  188.5930  177.6710  141.0990 C   0  0  2  0  0  3  0  0  0  0  0  0
  190.9950  176.9110  143.9290 N   0  0  0  0  0  0  0  0  0  0  0  0
  190.0160  176.9560  147.4590 C   0  0  0  0  0  3  0  0  0  0  0  0
  187.3830  178.6190  141.0030 C   0  0  0  0  0  2  0  0  0  0  0  0
  189.1650  177.5340  142.5100 C   0  0  0  0  0  0  0  0  0  0  0  0
  185.8330  178.0520  144.2640 C   0  0  0  0  0  3  0  0  0  0  0  0
  192.1310  176.4470  146.4320 O   0  0  0  0  0  1  0  0  0  0  0  0
  186.4820  178.4530  142.1800 C   0  0  0  0  0  0  0  0  0  0  0  0
  185.2040  178.7230  142.2230 O   0  0  0  0  0  0  0  0  0  0  0  0
  190.4950  177.1310  142.6880 C   0  0  0  0  0  3  0  0  0  0  0  0
  190.2340  177.0500  145.0460 C   0  0  0  0  0  0  0  0  0  0  0  0
  190.7970  176.8170  146.3100 C   0  0  0  0  0  0  0  0  0  0  0  0
  183.4390  178.6680  143.8850 C   0  0  0  0  0  0  0  0  0  0  0  0
  182.3450  178.8120  144.2350 N   0  0  0  0  0  0  0  0  0  0  0  0
  189.6530  178.1110  140.0900 C   0  0  0  0  0  2  0  0  0  0  0  0
  188.9980  179.2610  138.0780 O   0  0  0  0  0  1  0  0  0  0  0  0
  190.2250  177.2440  137.8220 C   0  0  0  0  0  1  0  0  0  0  0  0
  189.1870  177.9930  138.6360 C   0  0  1  0  0  0  0  0  0  0  0  0
  187.8790  177.2040  138.5790 C   0  0  0  0  0  2  0  0  0  0  0  0
  186.9330  177.5440  136.4210 O   0  0  0  0  0  0  0  0  0  0  0  0
  186.8770  177.8150  137.6500 C   0  0  0  0  0  0  0  0  0  0  0  0
  184.6490  178.4530  138.4680 C   0  0  0  0  0  0  0  0  0  0  0  0
  184.0360  177.1060  138.2690 C   0  0  0  0  0  1  0  0  0  0  0  0
  183.7910  179.5420  139.0020 C   0  0  0  0  0  1  0  0  0  0  0  0
  185.8900  178.7170  138.1780 N   0  0  0  0  0  0  0  0  0  0  0  0
  1  2  1  0  0  0  0
  2 17  2  0  0  0  0
  2  6  1  0  0  0  0
  3  9  1  0  0  0  0
  4  1  1  0  0  0  0
  4 12  1  0  0  0  0
  5 19  1  0  0  0  0
  5 12  2  0  0  0  0
  6  3  2  0  0  0  0
  7 21  1  6  0  0  0
  7 11  1  0  0  0  0
  8 17  1  0  0  0  0
 10  7  1  0  0  0  0
 10 14  1  0  0  0  0
 11 16  1  0  0  0  0
 11  1  2  0  0  0  0
 14 15  1  0  0  0  0
 14  4  2  0  0  0  0
 15  5  1  0  0  0  0
 16  8  2  0  0  0  0
 17 18  1  0  0  0  0
 18 13  1  0  0  0  0
 18  9  2  0  0  0  0
 19 20  3  0  0  0  0
 22 24  1  0  0  0  0
 24 23  1  6  0  0  0
 24 21  1  0  0  0  0
 25 24  1  0  0  0  0
 26 27  2  0  0  0  0
 27 31  1  0  0  0  0
 27 25  1  0  0  0  0
 28 30  1  0  0  0  0
 29 28  1  0  0  0  0
 31 28  2  0  0  0  0
M  END
>  <MODEL>
2

>  <REMARK>
 VINA RESULT:      -8.9      1.627      4.553
  Name = 
  6 active torsions:
  status: ('A' for Active; 'I' for Inactive)
    1  A    between atoms: C_2  and  C_13
    2  A    between atoms: C_9  and  C_22
    3  A    between atoms: C_9  and  C_23
    4  A    between atoms: C_15  and  C_23
    5  A    between atoms: C_19  and  C_22
    6  A    between atoms: C_19  and  N_24
                            x       y       z     vdW  Elec       q    Type
                         _______ _______ _______ _____ _____    ______ ____

>  <TORSDO>
F 6

$$$$
=
 OpenBabel10272400383D

 31 34  0  0  1  0  0  0  0  0999 V2000
  188.2270  177.6930  143.6120 C   0  0  0  0  0  0  0  0  0  0  0  0
  188.7790  177.4840  144.8970 C   0  0  0  0  0  0  0  0  0  0  0  0
  188.5950  177.4150  147.3220 C   0  0  0  0  0  3  0  0  0  0  0  0
  186.8130  178.0600  143.3770 C   0  0  0  0  0  0  0  0  0  0  0  0
  184.6790  178.4760  143.4250 C   0  0  0  0  0  0  0  0  0  0  0  0
  188.0180  177.6250  146.0680 C   0  0  0  0  0  3  0  0  0  0  0  0
  188.4750  177.6810  141.0610 C   0  0  2  0  0  3  0  0  0  0  0  0
  190.9030  176.9880  143.8870 N   0  0  0  0  0  0  0  0  0  0  0  0
  189.9420  177.0640  147.4220 C   0  0  0  0  0  3  0  0  0  0  0  0
  187.2510  178.6110  140.9610 C   0  0  0  0  0  2  0  0  0  0  0  0
  189.0560  177.5690  142.4710 C   0  0  0  0  0  0  0  0  0  0  0  0
  185.7280  178.0640  144.2370 C   0  0  0  0  0  3  0  0  0  0  0  0
  192.0590  176.5700  146.3890 O   0  0  0  0  0  1  0  0  0  0  0  0
  186.3600  178.4480  142.1450 C   0  0  0  0  0  0  0  0  0  0  0  0
  185.0780  178.7010  142.1920 O   0  0  0  0  0  0  0  0  0  0  0  0
  190.3920  177.1850  142.6460 C   0  0  0  0  0  3  0  0  0  0  0  0
  190.1460  177.1300  145.0070 C   0  0  0  0  0  0  0  0  0  0  0  0
  190.7190  176.9200  146.2710 C   0  0  0  0  0  0  0  0  0  0  0  0
  183.3230  178.6420  143.8640 C   0  0  0  0  0  0  0  0  0  0  0  0
  182.2290  178.7760  144.2190 N   0  0  0  0  0  0  0  0  0  0  0  0
  189.5230  178.1220  140.0410 C   0  0  0  0  0  2  0  0  0  0  0  0
  188.5910  176.2610  138.8310 O   0  0  0  0  0  1  0  0  0  0  0  0
  189.7190  177.9210  137.5630 C   0  0  0  0  0  1  0  0  0  0  0  0
  189.6690  177.1490  138.8680 C   0  0  1  0  0  0  0  0  0  0  0  0
  190.9760  176.3690  139.0070 C   0  0  0  0  0  2  0  0  0  0  0  0
  190.6800  174.3720  137.7460 O   0  0  0  0  0  0  0  0  0  0  0  0
  191.2530  175.4910  137.8270 C   0  0  0  0  0  0  0  0  0  0  0  0
  193.4690  175.7300  136.7930 C   0  0  0  0  0  0  0  0  0  0  0  0
  194.2010  174.9770  137.8550 C   0  0  0  0  0  1  0  0  0  0  0  0
  194.2540  176.2860  135.6610 C   0  0  0  0  0  1  0  0  0  0  0  0
  192.1840  175.9350  136.8260 N   0  0  0  0  0  0  0  0  0  0  0  0
  1  2  1  0  0  0  0
  2 17  2  0  0  0  0
  2  6  1  0  0  0  0
  3  9  1  0  0  0  0
  4  1  1  0  0  0  0
  4 12  1  0  0  0  0
  5 19  1  0  0  0  0
  5 12  2  0  0  0  0
  6  3  2  0  0  0  0
  7 21  1  6  0  0  0
  7 11  1  0  0  0  0
  8 17  1  0  0  0  0
 10  7  1  0  0  0  0
 10 14  1  0  0  0  0
 11 16  1  0  0  0  0
 11  1  2  0  0  0  0
 14 15  1  0  0  0  0
 14  4  2  0  0  0  0
 15  5  1  0  0  0  0
 16  8  2  0  0  0  0
 17 18  1  0  0  0  0
 18 13  1  0  0  0  0
 18  9  2  0  0  0  0
 19 20  3  0  0  0  0
 22 24  1  0  0  0  0
 24 23  1  6  0  0  0
 24 25  1  0  0  0  0
 24 21  1  0  0  0  0
 26 27  2  0  0  0  0
 27 25  1  0  0  0  0
 28 31  2  0  0  0  0
 28 29  1  0  0  0  0
 30 28  1  0  0  0  0
 31 27  1  0  0  0  0
M  END
>  <MODEL>
3

>  <REMARK>
 VINA RESULT:      -8.9      2.617      5.797
  Name = 
  6 active torsions:
  status: ('A' for Active; 'I' for Inactive)
    1  A    between atoms: C_2  and  C_13
    2  A    between atoms: C_9  and  C_22
    3  A    between atoms: C_9  and  C_23
    4  A    between atoms: C_15  and  C_23
    5  A    between atoms: C_19  and  C_22
    6  A    between atoms: C_19  and  N_24
                            x       y       z     vdW  Elec       q    Type
                         _______ _______ _______ _____ _____    ______ ____

>  <TORSDO>
F 6

$$$$
=
 OpenBabel10272400383D

 31 34  0  0  1  0  0  0  0  0999 V2000
  188.2090  177.6890  143.6100 C   0  0  0  0  0  0  0  0  0  0  0  0
  188.7660  177.4930  144.8950 C   0  0  0  0  0  0  0  0  0  0  0  0
  188.5920  177.4540  147.3210 C   0  0  0  0  0  3  0  0  0  0  0  0
  186.7950  178.0610  143.3770 C   0  0  0  0  0  0  0  0  0  0  0  0
  184.6640  178.4880  143.4300 C   0  0  0  0  0  0  0  0  0  0  0  0
  188.0100  177.6510  146.0670 C   0  0  0  0  0  3  0  0  0  0  0  0
  188.4450  177.6460  141.0590 C   0  0  2  0  0  3  0  0  0  0  0  0
  190.8820  176.9740  143.8810 N   0  0  0  0  0  0  0  0  0  0  0  0
  189.9380  177.0960  147.4190 C   0  0  0  0  0  3  0  0  0  0  0  0
  187.2260  178.5810  140.9530 C   0  0  0  0  0  2  0  0  0  0  0  0
  189.0320  177.5480  142.4670 C   0  0  0  0  0  0  0  0  0  0  0  0
  185.7140  178.0800  144.2420 C   0  0  0  0  0  3  0  0  0  0  0  0
  192.0470  176.5800  146.3830 O   0  0  0  0  0  1  0  0  0  0  0  0
  186.3390  178.4360  142.1430 C   0  0  0  0  0  0  0  0  0  0  0  0
  185.0590  178.6960  142.1920 O   0  0  0  0  0  0  0  0  0  0  0  0
  190.3670  177.1600  142.6410 C   0  0  0  0  0  3  0  0  0  0  0  0
  190.1310  177.1340  145.0030 C   0  0  0  0  0  0  0  0  0  0  0  0
  190.7080  176.9350  146.2660 C   0  0  0  0  0  0  0  0  0  0  0  0
  183.3110  178.6660  143.8730 C   0  0  0  0  0  0  0  0  0  0  0  0
  182.2190  178.8100  144.2300 N   0  0  0  0  0  0  0  0  0  0  0  0
  189.4910  178.0700  140.0280 C   0  0  0  0  0  2  0  0  0  0  0  0
  188.3120  176.4710  138.6680 O   0  0  0  0  0  1  0  0  0  0  0  0
  189.7250  178.0140  137.5460 C   0  0  0  0  0  1  0  0  0  0  0  0
  189.5160  177.1710  138.7900 C   0  0  1  0  0  0  0  0  0  0  0  0
  190.6780  176.1830  138.8950 C   0  0  0  0  0  2  0  0  0  0  0  0
  191.6540  175.7400  136.7690 O   0  0  0  0  0  0  0  0  0  0  0  0
  190.8470  175.3580  137.6580 C   0  0  0  0  0  0  0  0  0  0  0  0
  189.1350  173.9320  136.6210 C   0  0  0  0  0  0  0  0  0  0  0  0
  188.7120  174.9380  135.6020 C   0  0  0  0  0  1  0  0  0  0  0  0
  188.4420  172.6170  136.6380 C   0  0  0  0  0  1  0  0  0  0  0  0
  190.0660  174.1610  137.5010 N   0  0  0  0  0  0  0  0  0  0  0  0
  1  2  1  0  0  0  0
  2 17  2  0  0  0  0
  2  6  1  0  0  0  0
  3  9  1  0  0  0  0
  4  1  1  0  0  0  0
  4 12  1  0  0  0  0
  5 19  1  0  0  0  0
  5 12  2  0  0  0  0
  6  3  2  0  0  0  0
  7 21  1  6  0  0  0
  7 11  1  0  0  0  0
  8 17  1  0  0  0  0
 10  7  1  0  0  0  0
 10 14  1  0  0  0  0
 11 16  1  0  0  0  0
 11  1  2  0  0  0  0
 14 15  1  0  0  0  0
 14  4  2  0  0  0  0
 15  5  1  0  0  0  0
 16  8  2  0  0  0  0
 17 18  1  0  0  0  0
 18 13  1  0  0  0  0
 18  9  2  0  0  0  0
 19 20  3  0  0  0  0
 22 24  1  0  0  0  0
 24 23  1  6  0  0  0
 24 25  1  0  0  0  0
 24 21  1  0  0  0  0
 26 27  2  0  0  0  0
 27 25  1  0  0  0  0
 28 30  1  0  0  0  0
 28 31  2  0  0  0  0
 29 28  1  0  0  0  0
 31 27  1  0  0  0  0
M  END
>  <MODEL>
4

>  <REMARK>
 VINA RESULT:      -8.6      2.484      5.206
  Name = 
  6 active torsions:
  status: ('A' for Active; 'I' for Inactive)
    1  A    between atoms: C_2  and  C_13
    2  A    between atoms: C_9  and  C_22
    3  A    between atoms: C_9  and  C_23
    4  A    between atoms: C_15  and  C_23
    5  A    between atoms: C_19  and  C_22
    6  A    between atoms: C_19  and  N_24
                            x       y       z     vdW  Elec       q    Type
                         _______ _______ _______ _____ _____    ______ ____

>  <TORSDO>
F 6

$$$$
=
 OpenBabel10272400383D

 31 34  0  0  1  0  0  0  0  0999 V2000
  188.2460  177.6910  143.5860 C   0  0  0  0  0  0  0  0  0  0  0  0
  188.8100  177.4490  144.8600 C   0  0  0  0  0  0  0  0  0  0  0  0
  188.6490  177.3200  147.2840 C   0  0  0  0  0  3  0  0  0  0  0  0
  186.8300  178.0650  143.3740 C   0  0  0  0  0  0  0  0  0  0  0  0
  184.6980  178.4820  143.4530 C   0  0  0  0  0  0  0  0  0  0  0  0
  188.0610  177.5610  146.0410 C   0  0  0  0  0  3  0  0  0  0  0  0
  188.4690  177.7420  141.0330 C   0  0  2  0  0  3  0  0  0  0  0  0
  190.9230  176.9760  143.8180 N   0  0  0  0  0  0  0  0  0  0  0  0
  189.9970  176.9640  147.3620 C   0  0  0  0  0  3  0  0  0  0  0  0
  187.2460  178.6760  140.9680 C   0  0  0  0  0  2  0  0  0  0  0  0
  189.0640  177.5940  142.4340 C   0  0  0  0  0  0  0  0  0  0  0  0
  185.7530  178.0490  144.2440 C   0  0  0  0  0  3  0  0  0  0  0  0
  192.1030  176.4930  146.2970 O   0  0  0  0  0  1  0  0  0  0  0  0
  186.3660  178.4840  142.1570 C   0  0  0  0  0  0  0  0  0  0  0  0
  185.0850  178.7370  142.2220 O   0  0  0  0  0  0  0  0  0  0  0  0
  190.4010  177.2050  142.5870 C   0  0  0  0  0  3  0  0  0  0  0  0
  190.1770  177.0910  144.9480 C   0  0  0  0  0  0  0  0  0  0  0  0
  190.7620  176.8480  146.2000 C   0  0  0  0  0  0  0  0  0  0  0  0
  183.3460  178.6390  143.9090 C   0  0  0  0  0  0  0  0  0  0  0  0
  182.2560  178.7650  144.2770 N   0  0  0  0  0  0  0  0  0  0  0  0
  189.5090  178.2080  140.0140 C   0  0  0  0  0  2  0  0  0  0  0  0
  189.9090  178.1100  137.6420 O   0  0  0  0  0  1  0  0  0  0  0  0
  190.5470  176.2180  138.9270 C   0  0  0  0  0  1  0  0  0  0  0  0
  189.5440  177.3430  138.7520 C   0  0  1  0  0  0  0  0  0  0  0  0
  188.1680  176.7190  138.5170 C   0  0  0  0  0  2  0  0  0  0  0  0
  187.2730  178.7150  137.5780 O   0  0  0  0  0  0  0  0  0  0  0  0
  187.3650  177.4620  137.4960 C   0  0  0  0  0  0  0  0  0  0  0  0
  187.1490  176.4340  135.2740 C   0  0  0  0  0  0  0  0  0  0  0  0
  188.4960  176.8610  134.7910 C   0  0  0  0  0  1  0  0  0  0  0  0
  186.2830  175.6610  134.3460 C   0  0  0  0  0  1  0  0  0  0  0  0
  186.6950  176.7250  136.4590 N   0  0  0  0  0  0  0  0  0  0  0  0
  1  2  1  0  0  0  0
  2 17  2  0  0  0  0
  2  6  1  0  0  0  0
  3  9  1  0  0  0  0
  4  1  1  0  0  0  0
  4 12  1  0  0  0  0
  5 19  1  0  0  0  0
  5 12  2  0  0  0  0
  6  3  2  0  0  0  0
  7 21  1  6  0  0  0
  7 11  1  0  0  0  0
  8 17  1  0  0  0  0
 10  7  1  0  0  0  0
 10 14  1  0  0  0  0
 11 16  1  0  0  0  0
 11  1  2  0  0  0  0
 14 15  1  0  0  0  0
 14  4  2  0  0  0  0
 15  5  1  0  0  0  0
 16  8  2  0  0  0  0
 17 18  1  0  0  0  0
 18 13  1  0  0  0  0
 18  9  2  0  0  0  0
 19 20  3  0  0  0  0
 22 24  1  0  0  0  0
 24 23  1  1  0  0  0
 24 21  1  0  0  0  0
 25 24  1  0  0  0  0
 27 26  2  0  0  0  0
 27 25  1  0  0  0  0
 28 31  2  0  0  0  0
 29 28  1  0  0  0  0
 30 28  1  0  0  0  0
 31 27  1  0  0  0  0
M  END
>  <MODEL>
5

>  <REMARK>
 VINA RESULT:      -8.3      1.907      4.780
  Name = 
  6 active torsions:
  status: ('A' for Active; 'I' for Inactive)
    1  A    between atoms: C_2  and  C_13
    2  A    between atoms: C_9  and  C_22
    3  A    between atoms: C_9  and  C_23
    4  A    between atoms: C_15  and  C_23
    5  A    between atoms: C_19  and  C_22
    6  A    between atoms: C_19  and  N_24
                            x       y       z     vdW  Elec       q    Type
                         _______ _______ _______ _____ _____    ______ ____

>  <TORSDO>
F 6

$$$$
=
 OpenBabel10272400383D

 31 34  0  0  1  0  0  0  0  0999 V2000
  186.0140  178.3160  142.4040 C   0  0  0  0  0  0  0  0  0  0  0  0
  185.1090  178.4750  143.4780 C   0  0  0  0  0  0  0  0  0  0  0  0
  182.8750  178.8720  144.3570 C   0  0  0  0  0  3  0  0  0  0  0  0
  185.6140  178.3710  140.9800 C   0  0  0  0  0  0  0  0  0  0  0  0
  184.6400  178.4040  139.0360 C   0  0  0  0  0  0  0  0  0  0  0  0
  183.7410  178.7150  143.2730 C   0  0  0  0  0  3  0  0  0  0  0  0
  188.3790  177.8260  141.5480 C   0  0  2  0  0  3  0  0  0  0  0  0
  186.9190  178.1670  145.0280 N   0  0  0  0  0  0  0  0  0  0  0  0
  183.3660  178.7930  145.6610 C   0  0  0  0  0  3  0  0  0  0  0  0
  188.0060  178.4850  140.2070 C   0  0  0  0  0  2  0  0  0  0  0  0
  187.3880  178.1100  142.6770 C   0  0  0  0  0  0  0  0  0  0  0  0
  184.3580  178.3580  140.3950 C   0  0  0  0  0  3  0  0  0  0  0  0
  185.1940  178.4800  147.1940 O   0  0  0  0  0  1  0  0  0  0  0  0
  186.5350  178.4120  139.9690 C   0  0  0  0  0  0  0  0  0  0  0  0
  185.9350  178.4380  138.8080 O   0  0  0  0  0  0  0  0  0  0  0  0
  187.8030  178.0130  144.0110 C   0  0  0  0  0  3  0  0  0  0  0  0
  185.5990  178.3990  144.8040 C   0  0  0  0  0  0  0  0  0  0  0  0
  184.7230  178.5560  145.8890 C   0  0  0  0  0  0  0  0  0  0  0  0
  183.6500  178.4140  137.9970 C   0  0  0  0  0  0  0  0  0  0  0  0
  182.8510  178.4210  137.1590 N   0  0  0  0  0  0  0  0  0  0  0  0
  189.8060  178.2280  141.9220 C   0  0  0  0  0  2  0  0  0  0  0  0
  190.1440  175.8440  141.8890 O   0  0  0  0  0  1  0  0  0  0  0  0
  191.5440  177.1560  140.4900 C   0  0  0  0  0  1  0  0  0  0  0  0
  190.8050  177.0730  141.8130 C   0  0  1  0  0  0  0  0  0  0  0  0
  191.8340  177.1760  142.9390 C   0  0  0  0  0  2  0  0  0  0  0  0
  191.9820  175.1180  144.1250 O   0  0  0  0  0  0  0  0  0  0  0  0
  191.5120  176.2860  144.0980 C   0  0  0  0  0  0  0  0  0  0  0  0
  190.8250  176.6660  146.4260 C   0  0  0  0  0  0  0  0  0  0  0  0
  191.9930  175.9630  147.0340 C   0  0  0  0  0  1  0  0  0  0  0  0
  189.8030  177.2460  147.3370 C   0  0  0  0  0  1  0  0  0  0  0  0
  190.6530  176.7770  145.1410 N   0  0  0  0  0  0  0  0  0  0  0  0
  1 11  2  0  0  0  0
  1  2  1  0  0  0  0
  2 17  1  0  0  0  0
  3  9  2  0  0  0  0
  4  1  1  0  0  0  0
  5 12  2  0  0  0  0
  6  2  2  0  0  0  0
  6  3  1  0  0  0  0
  7 21  1  1  0  0  0
  7 11  1  0  0  0  0
  9 18  1  0  0  0  0
 10  7  1  0  0  0  0
 11 16  1  0  0  0  0
 12  4  1  0  0  0  0
 14 10  1  0  0  0  0
 14  4  2  0  0  0  0
 15  5  1  0  0  0  0
 15 14  1  0  0  0  0
 16  8  2  0  0  0  0
 17  8  1  0  0  0  0
 17 18  2  0  0  0  0
 18 13  1  0  0  0  0
 19  5  1  0  0  0  0
 20 19  3  0  0  0  0
 24 23  1  6  0  0  0
 24 22  1  0  0  0  0
 24 21  1  0  0  0  0
 24 25  1  0  0  0  0
 25 27  1  0  0  0  0
 27 26  2  0  0  0  0
 27 31  1  0  0  0  0
 28 29  1  0  0  0  0
 28 30  1  0  0  0  0
 31 28  2  0  0  0  0
M  END
>  <MODEL>
6

>  <REMARK>
 VINA RESULT:      -8.3      1.935      6.647
  Name = 
  6 active torsions:
  status: ('A' for Active; 'I' for Inactive)
    1  A    between atoms: C_2  and  C_13
    2  A    between atoms: C_9  and  C_22
    3  A    between atoms: C_9  and  C_23
    4  A    between atoms: C_15  and  C_23
    5  A    between atoms: C_19  and  C_22
    6  A    between atoms: C_19  and  N_24
                            x       y       z     vdW  Elec       q    Type
                         _______ _______ _______ _____ _____    ______ ____

>  <TORSDO>
F 6

$$$$
=
 OpenBabel10272400383D

 31 34  0  0  1  0  0  0  0  0999 V2000
  188.9430  177.7290  140.1420 C   0  0  0  0  0  0  0  0  0  0  0  0
  187.7190  178.0110  139.4910 C   0  0  0  0  0  0  0  0  0  0  0  0
  186.3520  178.1940  137.4870 C   0  0  0  0  0  3  0  0  0  0  0  0
  190.1650  177.2880  139.4340 C   0  0  0  0  0  0  0  0  0  0  0  0
  191.7020  176.5610  138.0780 C   0  0  0  0  0  0  0  0  0  0  0  0
  187.5730  177.9040  138.0990 C   0  0  0  0  0  3  0  0  0  0  0  0
  190.3060  177.4920  142.2990 C   0  0  2  0  0  3  0  0  0  0  0  0
  186.7260  178.5320  141.6160 N   0  0  0  0  0  0  0  0  0  0  0  0
  185.2600  178.5960  138.2590 C   0  0  0  0  0  3  0  0  0  0  0  0
  191.5970  177.6450  141.4720 C   0  0  0  0  0  2  0  0  0  0  0  0
  189.0360  177.8890  141.5460 C   0  0  0  0  0  0  0  0  0  0  0  0
  190.3460  176.8570  138.1300 C   0  0  0  0  0  3  0  0  0  0  0  0
  184.2870  179.1110  140.3990 O   0  0  0  0  0  1  0  0  0  0  0  0
  191.3800  177.2160  140.0610 C   0  0  0  0  0  0  0  0  0  0  0  0
  192.2930  176.7840  139.2320 O   0  0  0  0  0  0  0  0  0  0  0  0
  187.8910  178.2680  142.2590 C   0  0  0  0  0  3  0  0  0  0  0  0
  186.6090  178.4220  140.2670 C   0  0  0  0  0  0  0  0  0  0  0  0
  185.3840  178.7100  139.6450 C   0  0  0  0  0  0  0  0  0  0  0  0
  192.3870  176.0720  136.9160 C   0  0  0  0  0  0  0  0  0  0  0  0
  192.9400  175.6770  135.9790 N   0  0  0  0  0  0  0  0  0  0  0  0
  190.4590  178.2600  143.6110 C   0  0  0  0  0  2  0  0  0  0  0  0
  189.5320  176.2310  144.5180 O   0  0  0  0  0  1  0  0  0  0  0  0
  191.5920  176.9830  145.4290 C   0  0  0  0  0  1  0  0  0  0  0  0
  190.2490  177.3850  144.8490 C   0  0  1  0  0  0  0  0  0  0  0  0
  189.4900  178.1760  145.9150 C   0  0  0  0  0  2  0  0  0  0  0  0
  188.2060  176.7870  147.3600 O   0  0  0  0  0  0  0  0  0  0  0  0
  188.2150  177.5100  146.3280 C   0  0  0  0  0  0  0  0  0  0  0  0
  185.9960  178.4210  145.7970 C   0  0  0  0  0  0  0  0  0  0  0  0
  185.8620  179.2090  147.0590 C   0  0  0  0  0  1  0  0  0  0  0  0
  184.8750  178.4630  144.8220 C   0  0  0  0  0  1  0  0  0  0  0  0
  187.0370  177.6900  145.5240 N   0  0  0  0  0  0  0  0  0  0  0  0
  1 11  1  0  0  0  0
  2  1  2  0  0  0  0
  2 17  1  0  0  0  0
  3  6  2  0  0  0  0
  3  9  1  0  0  0  0
  4 14  2  0  0  0  0
  4  1  1  0  0  0  0
  5 12  2  0  0  0  0
  5 15  1  0  0  0  0
  6  2  1  0  0  0  0
  7 21  1  1  0  0  0
  8 16  1  0  0  0  0
  9 18  2  0  0  0  0
 10  7  1  0  0  0  0
 11 16  2  0  0  0  0
 11  7  1  0  0  0  0
 12  4  1  0  0  0  0
 14 10  1  0  0  0  0
 15 14  1  0  0  0  0
 17  8  2  0  0  0  0
 18 17  1  0  0  0  0
 18 13  1  0  0  0  0
 19  5  1  0  0  0  0
 20 19  3  0  0  0  0
 21 24  1  0  0  0  0
 22 24  1  0  0  0  0
 24 23  1  1  0  0  0
 24 25  1  0  0  0  0
 25 27  1  0  0  0  0
 27 26  2  0  0  0  0
 28 29  1  0  0  0  0
 30 28  1  0  0  0  0
 31 28  2  0  0  0  0
 31 27  1  0  0  0  0
M  END
>  <MODEL>
7

>  <REMARK>
 VINA RESULT:      -8.1      2.302      6.763
  Name = 
  6 active torsions:
  status: ('A' for Active; 'I' for Inactive)
    1  A    between atoms: C_2  and  C_13
    2  A    between atoms: C_9  and  C_22
    3  A    between atoms: C_9  and  C_23
    4  A    between atoms: C_15  and  C_23
    5  A    between atoms: C_19  and  C_22
    6  A    between atoms: C_19  and  N_24
                            x       y       z     vdW  Elec       q    Type
                         _______ _______ _______ _____ _____    ______ ____

>  <TORSDO>
F 6

$$$$
=
 OpenBabel10272400383D

 31 34  0  0  1  0  0  0  0  0999 V2000
  187.3640  177.9760  140.9920 C   0  0  0  0  0  0  0  0  0  0  0  0
  187.2550  178.1220  139.5890 C   0  0  0  0  0  0  0  0  0  0  0  0
  185.9600  178.5520  137.5750 C   0  0  0  0  0  3  0  0  0  0  0  0
  186.2250  178.1330  141.9240 C   0  0  0  0  0  0  0  0  0  0  0  0
  184.3640  178.5470  142.9690 C   0  0  0  0  0  0  0  0  0  0  0  0
  186.0350  178.4190  138.9630 C   0  0  0  0  0  3  0  0  0  0  0  0
  188.8010  177.5810  143.0770 C   0  0  2  0  0  3  0  0  0  0  0  0
  189.6050  177.6670  139.3750 N   0  0  0  0  0  0  0  0  0  0  0  0
  187.1060  178.3890  136.7950 C   0  0  0  0  0  3  0  0  0  0  0  0
  187.5310  177.1660  143.8440 C   0  0  0  0  0  2  0  0  0  0  0  0
  188.6170  177.6420  141.5600 C   0  0  0  0  0  0  0  0  0  0  0  0
  184.9530  178.6380  141.7150 C   0  0  0  0  0  3  0  0  0  0  0  0
  189.4610  177.9320  136.6040 O   0  0  0  0  0  1  0  0  0  0  0  0
  186.3180  177.7930  143.2460 C   0  0  0  0  0  0  0  0  0  0  0  0
  185.1900  178.0410  143.8580 O   0  0  0  0  0  0  0  0  0  0  0  0
  189.7300  177.5220  140.7170 C   0  0  0  0  0  3  0  0  0  0  0  0
  188.4120  177.9550  138.7910 C   0  0  0  0  0  0  0  0  0  0  0  0
  188.3300  178.0910  137.3970 C   0  0  0  0  0  0  0  0  0  0  0  0
  183.0210  178.9510  143.2720 C   0  0  0  0  0  0  0  0  0  0  0  0
  181.9370  179.2760  143.5160 N   0  0  0  0  0  0  0  0  0  0  0  0
  189.9520  176.6600  143.4800 C   0  0  0  0  0  2  0  0  0  0  0  0
  192.1440  177.6360  143.2790 O   0  0  0  0  0  1  0  0  0  0  0  0
  190.6020  178.7250  144.7170 C   0  0  0  0  0  1  0  0  0  0  0  0
  191.0990  177.3980  144.1750 C   0  0  1  0  0  0  0  0  0  0  0  0
  191.6070  176.5650  145.3520 C   0  0  0  0  0  2  0  0  0  0  0  0
  191.6160  177.1950  147.6470 O   0  0  0  0  0  0  0  0  0  0  0  0
  190.9210  176.9040  146.6380 C   0  0  0  0  0  0  0  0  0  0  0  0
  188.7080  177.5060  147.5220 C   0  0  0  0  0  0  0  0  0  0  0  0
  189.2260  178.4120  148.5900 C   0  0  0  0  0  1  0  0  0  0  0  0
  187.2380  177.3160  147.4150 C   0  0  0  0  0  1  0  0  0  0  0  0
  189.4850  176.8650  146.6980 N   0  0  0  0  0  0  0  0  0  0  0  0
  1 11  1  0  0  0  0
  1  4  1  0  0  0  0
  2  1  2  0  0  0  0
  3  6  2  0  0  0  0
  4 14  2  0  0  0  0
  5 19  1  0  0  0  0
  5 15  1  0  0  0  0
  6  2  1  0  0  0  0
  7 21  1  6  0  0  0
  7 10  1  0  0  0  0
  8 16  1  0  0  0  0
  9 18  2  0  0  0  0
  9  3  1  0  0  0  0
 11  7  1  0  0  0  0
 12  4  1  0  0  0  0
 12  5  2  0  0  0  0
 13 18  1  0  0  0  0
 14 10  1  0  0  0  0
 14 15  1  0  0  0  0
 16 11  2  0  0  0  0
 17  8  2  0  0  0  0
 17  2  1  0  0  0  0
 18 17  1  0  0  0  0
 19 20  3  0  0  0  0
 21 24  1  0  0  0  0
 22 24  1  0  0  0  0
 24 23  1  1  0  0  0
 24 25  1  0  0  0  0
 25 27  1  0  0  0  0
 27 31  1  0  0  0  0
 27 26  2  0  0  0  0
 28 29  1  0  0  0  0
 30 28  1  0  0  0  0
 31 28  2  0  0  0  0
M  END
>  <MODEL>
8

>  <REMARK>
 VINA RESULT:      -7.7      1.917      7.482
  Name = 
  6 active torsions:
  status: ('A' for Active; 'I' for Inactive)
    1  A    between atoms: C_2  and  C_13
    2  A    between atoms: C_9  and  C_22
    3  A    between atoms: C_9  and  C_23
    4  A    between atoms: C_15  and  C_23
    5  A    between atoms: C_19  and  C_22
    6  A    between atoms: C_19  and  N_24
                            x       y       z     vdW  Elec       q    Type
                         _______ _______ _______ _____ _____    ______ ____

>  <TORSDO>
F 6

$$$$
=
 OpenBabel10272400383D

 31 34  0  0  1  0  0  0  0  0999 V2000
  186.2110  178.3010  141.4670 C   0  0  0  0  0  0  0  0  0  0  0  0
  184.8600  178.4870  141.8420 C   0  0  0  0  0  0  0  0  0  0  0  0
  182.5110  178.8110  141.2980 C   0  0  0  0  0  3  0  0  0  0  0  0
  186.6680  178.2190  140.0620 C   0  0  0  0  0  0  0  0  0  0  0  0
  186.9360  178.0390  137.9120 C   0  0  0  0  0  0  0  0  0  0  0  0
  183.8350  178.6240  140.8940 C   0  0  0  0  0  3  0  0  0  0  0  0
  188.6570  177.8940  142.1120 C   0  0  2  0  0  3  0  0  0  0  0  0
  185.5090  178.4130  144.1550 N   0  0  0  0  0  0  0  0  0  0  0  0
  182.1960  178.8640  142.6570 C   0  0  0  0  0  3  0  0  0  0  0  0
  189.0850  178.4210  140.7290 C   0  0  0  0  0  2  0  0  0  0  0  0
  187.2040  178.2020  142.4720 C   0  0  0  0  0  0  0  0  0  0  0  0
  185.9480  178.0830  138.8870 C   0  0  0  0  0  3  0  0  0  0  0  0
  182.8680  178.7870  144.9660 O   0  0  0  0  0  1  0  0  0  0  0  0
  187.9950  178.2390  139.7290 C   0  0  0  0  0  0  0  0  0  0  0  0
  188.1390  178.1370  138.4340 O   0  0  0  0  0  0  0  0  0  0  0  0
  186.8100  178.2360  143.8160 C   0  0  0  0  0  3  0  0  0  0  0  0
  184.5330  178.5450  143.2190 C   0  0  0  0  0  0  0  0  0  0  0  0
  183.2000  178.7310  143.6170 C   0  0  0  0  0  0  0  0  0  0  0  0
  186.6890  177.9060  136.5040 C   0  0  0  0  0  0  0  0  0  0  0  0
  186.4890  177.7990  135.3690 N   0  0  0  0  0  0  0  0  0  0  0  0
  189.6330  178.4120  143.1680 C   0  0  0  0  0  2  0  0  0  0  0  0
  189.9590  176.0960  143.7420 O   0  0  0  0  0  1  0  0  0  0  0  0
  191.7870  177.2310  142.7390 C   0  0  0  0  0  1  0  0  0  0  0  0
  190.5980  177.3370  143.6750 C   0  0  1  0  0  0  0  0  0  0  0  0
  191.1180  177.7250  145.0600 C   0  0  0  0  0  2  0  0  0  0  0  0
  191.0490  176.1570  146.8490 O   0  0  0  0  0  0  0  0  0  0  0  0
  190.4130  177.0010  146.1640 C   0  0  0  0  0  0  0  0  0  0  0  0
  188.4920  177.8770  147.4220 C   0  0  0  0  0  0  0  0  0  0  0  0
  189.2990  178.4020  148.5630 C   0  0  0  0  0  1  0  0  0  0  0  0
  187.0160  178.0420  147.4720 C   0  0  0  0  0  1  0  0  0  0  0  0
  189.0200  177.2670  146.4000 N   0  0  0  0  0  0  0  0  0  0  0  0
  1  2  2  0  0  0  0
  1 11  1  0  0  0  0
  2 17  1  0  0  0  0
  3  9  1  0  0  0  0
  4  1  1  0  0  0  0
  5 15  1  0  0  0  0
  5 12  2  0  0  0  0
  6  3  2  0  0  0  0
  6  2  1  0  0  0  0
  7 11  1  0  0  0  0
  7 21  1  1  0  0  0
  9 18  2  0  0  0  0
 10  7  1  0  0  0  0
 11 16  2  0  0  0  0
 12  4  1  0  0  0  0
 14  4  2  0  0  0  0
 14 10  1  0  0  0  0
 15 14  1  0  0  0  0
 16  8  1  0  0  0  0
 17 18  1  0  0  0  0
 17  8  2  0  0  0  0
 18 13  1  0  0  0  0
 19  5  1  0  0  0  0
 20 19  3  0  0  0  0
 21 24  1  0  0  0  0
 24 23  1  6  0  0  0
 24 22  1  0  0  0  0
 24 25  1  0  0  0  0
 25 27  1  0  0  0  0
 27 31  1  0  0  0  0
 27 26  2  0  0  0  0
 28 30  1  0  0  0  0
 28 29  1  0  0  0  0
 31 28  2  0  0  0  0
M  END
>  <MODEL>
9

>  <REMARK>
 VINA RESULT:      -7.7      1.813      6.860
  Name = 
  6 active torsions:
  status: ('A' for Active; 'I' for Inactive)
    1  A    between atoms: C_2  and  C_13
    2  A    between atoms: C_9  and  C_22
    3  A    between atoms: C_9  and  C_23
    4  A    between atoms: C_15  and  C_23
    5  A    between atoms: C_19  and  C_22
    6  A    between atoms: C_19  and  N_24
                            x       y       z     vdW  Elec       q    Type
                         _______ _______ _______ _____ _____    ______ ____

>  <TORSDO>
F 6

$$$$
