=
 OpenBabel10262423583D

 34 38  0  0  1  0  0  0  0  0999 V2000
  186.1910  178.0540  137.5960 C   0  0  0  0  0  0  0  0  0  0  0  0
  188.0990  176.4710  137.7210 C   0  0  0  0  0  3  0  0  0  0  0  0
  187.5670  177.9240  139.6710 N   0  0  0  0  0  0  0  0  0  0  0  0
  188.8460  178.1100  141.8720 C   0  0  2  0  0  3  0  0  0  0  0  0
  186.7200  176.6490  135.7000 C   0  0  0  0  0  3  0  0  0  0  0  0
  188.3510  174.8160  136.0590 O   0  0  0  0  0  1  0  0  0  0  0  0
  189.8630  177.4520  139.7980 O   0  0  0  0  0  0  0  0  0  0  0  0
  187.5490  177.7910  138.2030 C   0  0  0  0  0  0  0  0  0  0  0  0
  185.9590  177.6230  136.2110 C   0  0  0  0  0  2  0  0  0  0  0  0
  186.4490  178.5260  140.3600 C   0  0  0  0  0  0  0  0  0  0  0  0
  185.2360  178.6100  138.2770 N   0  0  0  0  0  0  0  0  0  0  0  0
  187.7560  175.9810  136.5220 C   0  0  0  0  0  0  0  0  0  0  0  0
  187.5250  177.9250  142.4680 N   0  0  0  0  0  2  0  0  0  0  0  0
  186.5760  178.8420  141.8360 C   0  0  2  0  0  3  0  0  0  0  0  0
  188.8020  177.7710  140.4010 C   0  0  0  0  0  0  0  0  0  0  0  0
  185.3660  178.9030  139.6710 C   0  0  0  0  0  3  0  0  0  0  0  0
  184.0570  178.7610  144.6700 C   0  0  0  0  0  0  0  0  0  0  0  0
  182.8460  178.7180  143.9750 C   0  0  0  0  0  3  0  0  0  0  0  0
  185.2670  178.7930  142.5690 C   0  0  0  0  0  0  0  0  0  0  0  0
  182.8410  178.7140  142.5780 C   0  0  0  0  0  3  0  0  0  0  0  0
  185.2660  178.7990  143.9690 C   0  0  0  0  0  3  0  0  0  0  0  0
  184.0490  178.7510  141.8750 C   0  0  0  0  0  3  0  0  0  0  0  0
  184.0600  178.7660  146.0250 F   0  0  0  0  0  0  0  0  0  0  0  0
  189.8470  177.2460  142.6240 C   0  0  0  0  0  2  0  0  0  0  0  0
  191.0020  178.0400  143.0060 N   0  0  0  0  0  2  0  0  0  0  0  0
  190.9720  178.1490  144.4520 C   0  0  0  0  0  2  0  0  0  0  0  0
  190.2330  176.9580  145.0330 C   0  0  0  0  0  2  0  0  0  0  0  0
  191.2790  177.2750  147.6050 F   0  0  0  0  0  0  0  0  0  0  0  0
  189.3990  177.3790  146.2010 C   0  0  0  0  0  0  0  0  0  0  0  0
  189.9440  177.4760  147.4340 C   0  0  0  0  0  0  0  0  0  0  0  0
  187.6460  177.7320  148.4410 C   0  0  0  0  0  2  0  0  0  0  0  0
  187.2220  178.2940  147.0940 C   0  0  0  0  0  2  0  0  0  0  0  0
  187.9110  177.5100  145.9820 C   0  0  0  0  0  2  0  0  0  0  0  0
  189.1450  177.9410  148.6270 C   0  0  0  0  0  2  0  0  0  0  0  0
  1  8  1  0  0  0  0
  1 11  2  0  0  0  0
  2  8  2  0  0  0  0
  3 10  1  0  0  0  0
  3 15  1  0  0  0  0
  4 13  1  0  0  0  0
  4 24  1  1  0  0  0
  5  9  1  0  0  0  0
  5 12  2  0  0  0  0
  6 12  1  0  0  0  0
  7 15  2  0  0  0  0
  8  3  1  0  0  0  0
  9  1  1  0  0  0  0
 10 14  1  0  0  0  0
 11 16  1  0  0  0  0
 12  2  1  0  0  0  0
 14 13  1  0  0  0  0
 14 19  1  1  0  0  0
 15  4  1  0  0  0  0
 16 10  2  0  0  0  0
 17 23  1  0  0  0  0
 18 17  1  0  0  0  0
 19 21  1  0  0  0  0
 20 18  2  0  0  0  0
 21 17  2  0  0  0  0
 22 19  2  0  0  0  0
 22 20  1  0  0  0  0
 24 25  1  0  0  0  0
 25 26  1  0  0  0  0
 26 27  1  0  0  0  0
 27 29  1  0  0  0  0
 29 30  2  0  0  0  0
 30 28  1  0  0  0  0
 30 34  1  0  0  0  0
 31 34  1  0  0  0  0
 32 31  1  0  0  0  0
 33 29  1  0  0  0  0
 33 32  1  0  0  0  0
M  END
>  <MODEL>
1

>  <REMARK>
 VINA RESULT:      -9.9      0.000      0.000
  Name = 
  6 active torsions:
  status: ('A' for Active; 'I' for Inactive)
    1  A    between atoms: C_3  and  C_13
    2  A    between atoms: C_3  and  C_17
    3  A    between atoms: C_5  and  C_18
    4  A    between atoms: C_12  and  C_28
    5  A    between atoms: C_17  and  N_29
    6  A    between atoms: C_18  and  N_29
                            x       y       z     vdW  Elec       q    Type
                         _______ _______ _______ _____ _____    ______ ____

>  <TORSDO>
F 6

$$$$
=
 OpenBabel10262423583D

 34 38  0  0  1  0  0  0  0  0999 V2000
  184.6300  177.8900  137.5460 C   0  0  0  0  0  0  0  0  0  0  0  0
  186.6960  176.5350  137.3030 C   0  0  0  0  0  3  0  0  0  0  0  0
  186.4600  178.0970  139.2280 N   0  0  0  0  0  0  0  0  0  0  0  0
  188.1850  178.6170  141.0340 C   0  0  2  0  0  3  0  0  0  0  0  0
  184.8700  176.3810  135.6710 C   0  0  0  0  0  3  0  0  0  0  0  0
  186.7550  174.7710  135.7390 O   0  0  0  0  0  1  0  0  0  0  0  0
  188.7620  177.8820  138.8210 O   0  0  0  0  0  0  0  0  0  0  0  0
  186.1150  177.8290  137.8190 C   0  0  0  0  0  0  0  0  0  0  0  0
  184.1350  177.3130  136.2890 C   0  0  0  0  0  2  0  0  0  0  0  0
  185.4680  178.6390  140.1280 C   0  0  0  0  0  0  0  0  0  0  0  0
  183.8000  178.4030  138.4020 N   0  0  0  0  0  0  0  0  0  0  0  0
  186.1440  175.9050  136.2570 C   0  0  0  0  0  0  0  0  0  0  0  0
  187.0750  178.3500  141.9440 N   0  0  0  0  0  2  0  0  0  0  0  0
  185.8980  179.1010  141.5060 C   0  0  2  0  0  3  0  0  0  0  0  0
  187.8410  178.1420  139.6430 C   0  0  0  0  0  0  0  0  0  0  0  0
  184.2160  178.8350  139.7010 C   0  0  0  0  0  3  0  0  0  0  0  0
  184.1660  178.8230  144.8680 C   0  0  0  0  0  0  0  0  0  0  0  0
  182.8210  178.7750  144.4940 C   0  0  0  0  0  3  0  0  0  0  0  0
  184.8140  178.9810  142.5370 C   0  0  0  0  0  0  0  0  0  0  0  0
  182.4680  178.8300  143.1430 C   0  0  0  0  0  3  0  0  0  0  0  0
  185.1620  178.9270  143.8920 C   0  0  0  0  0  3  0  0  0  0  0  0
  183.4620  178.9330  142.1650 C   0  0  0  0  0  3  0  0  0  0  0  0
  184.5070  178.7700  146.1790 F   0  0  0  0  0  0  0  0  0  0  0  0
  189.4340  177.9350  141.5730 C   0  0  0  0  0  2  0  0  0  0  0  0
  189.1290  176.5670  141.9540 N   0  0  0  0  0  2  0  0  0  0  0  0
  189.9370  176.2700  143.1210 C   0  0  0  0  0  2  0  0  0  0  0  0
  190.2230  177.5540  143.8780 C   0  0  0  0  0  2  0  0  0  0  0  0
  191.7410  177.1260  146.1840 F   0  0  0  0  0  0  0  0  0  0  0  0
  189.6210  177.4990  145.2460 C   0  0  0  0  0  0  0  0  0  0  0  0
  190.3930  177.2460  146.3260 C   0  0  0  0  0  0  0  0  0  0  0  0
  188.3290  176.9500  147.7450 C   0  0  0  0  0  2  0  0  0  0  0  0
  187.6340  177.8720  146.7580 C   0  0  0  0  0  2  0  0  0  0  0  0
  188.1160  177.5530  145.3460 C   0  0  0  0  0  2  0  0  0  0  0  0
  189.8290  177.2270  147.7250 C   0  0  0  0  0  2  0  0  0  0  0  0
  1  8  1  0  0  0  0
  1 11  2  0  0  0  0
  2  8  2  0  0  0  0
  3 15  1  0  0  0  0
  3 10  1  0  0  0  0
  4 24  1  1  0  0  0
  4 13  1  0  0  0  0
  5 12  2  0  0  0  0
  5  9  1  0  0  0  0
  6 12  1  0  0  0  0
  7 15  2  0  0  0  0
  8  3  1  0  0  0  0
  9  1  1  0  0  0  0
 10 14  1  0  0  0  0
 11 16  1  0  0  0  0
 12  2  1  0  0  0  0
 14 13  1  0  0  0  0
 14 19  1  1  0  0  0
 15  4  1  0  0  0  0
 16 10  2  0  0  0  0
 17 23  1  0  0  0  0
 18 17  1  0  0  0  0
 19 21  1  0  0  0  0
 20 18  2  0  0  0  0
 21 17  2  0  0  0  0
 22 19  2  0  0  0  0
 22 20  1  0  0  0  0
 24 25  1  0  0  0  0
 25 26  1  0  0  0  0
 26 27  1  0  0  0  0
 27 29  1  0  0  0  0
 28 30  1  0  0  0  0
 29 33  1  0  0  0  0
 29 30  2  0  0  0  0
 30 34  1  0  0  0  0
 32 31  1  0  0  0  0
 33 32  1  0  0  0  0
 34 31  1  0  0  0  0
M  END
>  <MODEL>
2

>  <REMARK>
 VINA RESULT:      -9.7      1.123      1.317
  Name = 
  6 active torsions:
  status: ('A' for Active; 'I' for Inactive)
    1  A    between atoms: C_3  and  C_13
    2  A    between atoms: C_3  and  C_17
    3  A    between atoms: C_5  and  C_18
    4  A    between atoms: C_12  and  C_28
    5  A    between atoms: C_17  and  N_29
    6  A    between atoms: C_18  and  N_29
                            x       y       z     vdW  Elec       q    Type
                         _______ _______ _______ _____ _____    ______ ____

>  <TORSDO>
F 6

$$$$
=
 OpenBabel10262423583D

 34 38  0  0  1  0  0  0  0  0999 V2000
  187.9220  177.3130  136.7660 C   0  0  0  0  0  0  0  0  0  0  0  0
  189.6390  175.5980  137.2850 C   0  0  0  0  0  3  0  0  0  0  0  0
  188.9540  177.2320  139.0340 N   0  0  0  0  0  0  0  0  0  0  0  0
  189.9010  177.4810  141.3900 C   0  0  2  0  0  3  0  0  0  0  0  0
  188.6000  175.7310  135.0670 C   0  0  0  0  0  3  0  0  0  0  0  0
  189.9880  173.8070  135.7890 O   0  0  0  0  0  1  0  0  0  0  0  0
  191.1540  176.5890  139.5460 O   0  0  0  0  0  0  0  0  0  0  0  0
  189.1450  176.9900  137.5920 C   0  0  0  0  0  0  0  0  0  0  0  0
  187.8620  176.7990  135.3910 C   0  0  0  0  0  2  0  0  0  0  0  0
  187.8040  177.9710  139.5010 C   0  0  0  0  0  0  0  0  0  0  0  0
  186.9300  177.9940  137.2540 N   0  0  0  0  0  0  0  0  0  0  0  0
  189.4370  175.0480  136.0800 C   0  0  0  0  0  0  0  0  0  0  0  0
  188.4940  177.4480  141.7840 N   0  0  0  0  0  2  0  0  0  0  0  0
  187.7370  178.3870  140.9570 C   0  0  2  0  0  3  0  0  0  0  0  0
  190.0470  177.0370  139.9550 C   0  0  0  0  0  0  0  0  0  0  0  0
  186.8750  178.3800  138.6300 C   0  0  0  0  0  3  0  0  0  0  0  0
  184.7930  178.3840  143.3470 C   0  0  0  0  0  0  0  0  0  0  0  0
  183.7330  178.7090  142.4960 C   0  0  0  0  0  3  0  0  0  0  0  0
  186.3340  178.4970  141.4790 C   0  0  0  0  0  0  0  0  0  0  0  0
  183.9700  178.9300  141.1370 C   0  0  0  0  0  3  0  0  0  0  0  0
  186.0920  178.2790  142.8400 C   0  0  0  0  0  3  0  0  0  0  0  0
  185.2680  178.8250  140.6280 C   0  0  0  0  0  3  0  0  0  0  0  0
  184.5620  178.1710  144.6650 F   0  0  0  0  0  0  0  0  0  0  0  0
  190.6960  176.5990  142.3420 C   0  0  0  0  0  2  0  0  0  0  0  0
  191.8360  177.3340  142.8650 N   0  0  0  0  0  2  0  0  0  0  0  0
  191.4170  177.9040  144.1310 C   0  0  0  0  0  2  0  0  0  0  0  0
  191.0790  176.7880  145.1020 C   0  0  0  0  0  2  0  0  0  0  0  0
  191.3480  177.1370  147.8610 F   0  0  0  0  0  0  0  0  0  0  0  0
  189.9390  177.1890  145.9830 C   0  0  0  0  0  0  0  0  0  0  0  0
  190.1110  177.3030  147.3190 C   0  0  0  0  0  0  0  0  0  0  0  0
  187.6160  177.5000  147.6340 C   0  0  0  0  0  2  0  0  0  0  0  0
  187.5770  178.0480  146.2170 C   0  0  0  0  0  2  0  0  0  0  0  0
  188.5700  177.2800  145.3520 C   0  0  0  0  0  2  0  0  0  0  0  0
  188.9970  177.7480  148.2340 C   0  0  0  0  0  2  0  0  0  0  0  0
  1 11  2  0  0  0  0
  1  8  1  0  0  0  0
  2  8  2  0  0  0  0
  3 10  1  0  0  0  0
  3 15  1  0  0  0  0
  4 13  1  0  0  0  0
  4 24  1  1  0  0  0
  5  9  1  0  0  0  0
  5 12  2  0  0  0  0
  6 12  1  0  0  0  0
  7 15  2  0  0  0  0
  8  3  1  0  0  0  0
  9  1  1  0  0  0  0
 10 14  1  0  0  0  0
 11 16  1  0  0  0  0
 12  2  1  0  0  0  0
 14 19  1  1  0  0  0
 14 13  1  0  0  0  0
 15  4  1  0  0  0  0
 16 10  2  0  0  0  0
 17 23  1  0  0  0  0
 18 17  2  0  0  0  0
 19 21  2  0  0  0  0
 20 18  1  0  0  0  0
 21 17  1  0  0  0  0
 22 20  2  0  0  0  0
 22 19  1  0  0  0  0
 24 25  1  0  0  0  0
 25 26  1  0  0  0  0
 26 27  1  0  0  0  0
 27 29  1  0  0  0  0
 29 30  2  0  0  0  0
 30 28  1  0  0  0  0
 30 34  1  0  0  0  0
 31 34  1  0  0  0  0
 32 31  1  0  0  0  0
 33 29  1  0  0  0  0
 33 32  1  0  0  0  0
M  END
>  <MODEL>
3

>  <REMARK>
 VINA RESULT:      -9.6      1.224      1.519
  Name = 
  6 active torsions:
  status: ('A' for Active; 'I' for Inactive)
    1  A    between atoms: C_3  and  C_13
    2  A    between atoms: C_3  and  C_17
    3  A    between atoms: C_5  and  C_18
    4  A    between atoms: C_12  and  C_28
    5  A    between atoms: C_17  and  N_29
    6  A    between atoms: C_18  and  N_29
                            x       y       z     vdW  Elec       q    Type
                         _______ _______ _______ _____ _____    ______ ____

>  <TORSDO>
F 6

$$$$
=
 OpenBabel10262423583D

 34 38  0  0  1  0  0  0  0  0999 V2000
  187.7230  178.1680  137.9420 C   0  0  0  0  0  0  0  0  0  0  0  0
  188.7620  177.4310  140.0730 C   0  0  0  0  0  3  0  0  0  0  0  0
  186.4610  178.3810  140.0820 N   0  0  0  0  0  0  0  0  0  0  0  0
  184.9700  178.8370  142.1020 C   0  0  2  0  0  3  0  0  0  0  0  0
  189.9630  177.2550  137.9400 C   0  0  0  0  0  3  0  0  0  0  0  0
  190.7490  176.1610  140.0220 O   0  0  0  0  0  1  0  0  0  0  0  0
  187.3700  178.8130  142.2030 O   0  0  0  0  0  0  0  0  0  0  0  0
  187.7860  178.3900  139.4350 C   0  0  0  0  0  0  0  0  0  0  0  0
  188.9660  177.8120  137.2440 C   0  0  0  0  0  2  0  0  0  0  0  0
  185.2610  178.4440  139.2800 C   0  0  0  0  0  0  0  0  0  0  0  0
  186.6060  178.2510  137.2870 N   0  0  0  0  0  0  0  0  0  0  0  0
  189.8120  176.9610  139.3850 C   0  0  0  0  0  0  0  0  0  0  0  0
  183.9710  178.1070  141.3250 N   0  0  0  0  0  2  0  0  0  0  0  0
  183.9260  178.6460  139.9660 C   0  0  2  0  0  3  0  0  0  0  0  0
  186.3390  178.6450  141.4950 C   0  0  0  0  0  0  0  0  0  0  0  0
  185.3500  178.4400  137.9450 C   0  0  0  0  0  3  0  0  0  0  0  0
  181.4190  176.0840  138.7250 C   0  0  0  0  0  0  0  0  0  0  0  0
  180.6290  176.8510  137.8640 C   0  0  0  0  0  3  0  0  0  0  0  0
  182.7760  178.0310  139.2220 C   0  0  0  0  0  0  0  0  0  0  0  0
  180.9090  178.2080  137.6800 C   0  0  0  0  0  3  0  0  0  0  0  0
  182.4900  176.6730  139.4040 C   0  0  0  0  0  3  0  0  0  0  0  0
  181.9800  178.7980  138.3570 C   0  0  0  0  0  3  0  0  0  0  0  0
  181.1460  174.7690  138.9040 F   0  0  0  0  0  0  0  0  0  0  0  0
  184.9170  178.3550  143.5440 C   0  0  0  0  0  2  0  0  0  0  0  0
  184.9380  179.4910  144.4490 N   0  0  0  0  0  2  0  0  0  0  0  0
  185.5780  179.0380  145.6700 C   0  0  0  0  0  2  0  0  0  0  0  0
  186.2270  177.6880  145.4290 C   0  0  0  0  0  2  0  0  0  0  0  0
  188.5540  176.8830  144.1080 F   0  0  0  0  0  0  0  0  0  0  0  0
  187.5610  177.6220  146.1040 C   0  0  0  0  0  0  0  0  0  0  0  0
  188.6490  177.1840  145.4310 C   0  0  0  0  0  0  0  0  0  0  0  0
  189.9540  177.0850  147.5880 C   0  0  0  0  0  2  0  0  0  0  0  0
  189.0130  178.1650  148.0950 C   0  0  0  0  0  2  0  0  0  0  0  0
  187.6030  177.8830  147.5900 C   0  0  0  0  0  2  0  0  0  0  0  0
  190.0170  177.1450  146.0650 C   0  0  0  0  0  2  0  0  0  0  0  0
  1  8  1  0  0  0  0
  3 15  1  0  0  0  0
  4 24  1  1  0  0  0
  5 12  2  0  0  0  0
  8  2  2  0  0  0  0
  8  3  1  0  0  0  0
  9  5  1  0  0  0  0
  9  1  1  0  0  0  0
 10 14  1  0  0  0  0
 10  3  1  0  0  0  0
 11  1  2  0  0  0  0
 11 16  1  0  0  0  0
 12  6  1  0  0  0  0
 12  2  1  0  0  0  0
 13  4  1  0  0  0  0
 14 19  1  6  0  0  0
 14 13  1  0  0  0  0
 15  4  1  0  0  0  0
 15  7  2  0  0  0  0
 16 10  2  0  0  0  0
 17 23  1  0  0  0  0
 17 21  1  0  0  0  0
 18 17  2  0  0  0  0
 19 21  2  0  0  0  0
 20 18  1  0  0  0  0
 20 22  2  0  0  0  0
 22 19  1  0  0  0  0
 24 25  1  0  0  0  0
 25 26  1  0  0  0  0
 27 26  1  0  0  0  0
 27 29  1  0  0  0  0
 28 30  1  0  0  0  0
 29 33  1  0  0  0  0
 30 34  1  0  0  0  0
 30 29  2  0  0  0  0
 31 32  1  0  0  0  0
 33 32  1  0  0  0  0
 34 31  1  0  0  0  0
M  END
>  <MODEL>
4

>  <REMARK>
 VINA RESULT:      -9.4      2.856      4.125
  Name = 
  6 active torsions:
  status: ('A' for Active; 'I' for Inactive)
    1  A    between atoms: C_3  and  C_13
    2  A    between atoms: C_3  and  C_17
    3  A    between atoms: C_5  and  C_18
    4  A    between atoms: C_12  and  C_28
    5  A    between atoms: C_17  and  N_29
    6  A    between atoms: C_18  and  N_29
                            x       y       z     vdW  Elec       q    Type
                         _______ _______ _______ _____ _____    ______ ____

>  <TORSDO>
F 6

$$$$
=
 OpenBabel10262423583D

 34 38  0  0  1  0  0  0  0  0999 V2000
  183.5220  178.4870  138.4280 C   0  0  0  0  0  0  0  0  0  0  0  0
  185.1900  177.0250  137.3140 C   0  0  0  0  0  3  0  0  0  0  0  0
  185.8280  178.2960  139.3580 N   0  0  0  0  0  0  0  0  0  0  0  0
  188.1190  178.4040  140.4750 C   0  0  2  0  0  3  0  0  0  0  0  0
  182.9110  177.2600  136.4350 C   0  0  0  0  0  3  0  0  0  0  0  0
  184.4860  175.5150  135.6450 O   0  0  0  0  0  1  0  0  0  0  0  0
  187.8040  177.9640  138.1350 O   0  0  0  0  0  0  0  0  0  0  0  0
  184.9900  178.2690  138.1450 C   0  0  0  0  0  0  0  0  0  0  0  0
  182.5570  178.1440  137.3750 C   0  0  0  0  0  2  0  0  0  0  0  0
  185.2820  178.7740  140.6070 C   0  0  0  0  0  0  0  0  0  0  0  0
  183.1080  178.9310  139.5760 N   0  0  0  0  0  0  0  0  0  0  0  0
  184.2390  176.6030  136.4700 C   0  0  0  0  0  0  0  0  0  0  0  0
  187.3640  178.0920  141.6860 N   0  0  0  0  0  2  0  0  0  0  0  0
  186.2130  178.9900  141.7830 C   0  0  2  0  0  3  0  0  0  0  0  0
  187.2610  178.1700  139.2550 C   0  0  0  0  0  0  0  0  0  0  0  0
  183.9950  179.1290  140.6800 C   0  0  0  0  0  3  0  0  0  0  0  0
  185.6020  177.9150  145.3690 C   0  0  0  0  0  0  0  0  0  0  0  0
  184.3340  178.4470  145.6150 C   0  0  0  0  0  3  0  0  0  0  0  0
  185.5430  178.8030  143.1130 C   0  0  0  0  0  0  0  0  0  0  0  0
  183.6670  179.1580  144.6130 C   0  0  0  0  0  3  0  0  0  0  0  0
  186.2070  178.0940  144.1210 C   0  0  0  0  0  3  0  0  0  0  0  0
  184.2700  179.3370  143.3650 C   0  0  0  0  0  3  0  0  0  0  0  0
  186.2480  177.2270  146.3410 F   0  0  0  0  0  0  0  0  0  0  0  0
  189.3800  177.5530  140.4530 C   0  0  0  0  0  2  0  0  0  0  0  0
  189.5260  176.8460  141.7140 N   0  0  0  0  0  2  0  0  0  0  0  0
  190.3940  177.6550  142.5470 C   0  0  0  0  0  2  0  0  0  0  0  0
  191.1810  176.7560  143.4820 C   0  0  0  0  0  2  0  0  0  0  0  0
  192.3710  175.4470  145.6450 F   0  0  0  0  0  0  0  0  0  0  0  0
  190.7210  176.9400  144.8940 C   0  0  0  0  0  0  0  0  0  0  0  0
  191.3030  176.2500  145.9000 C   0  0  0  0  0  0  0  0  0  0  0  0
  189.4820  176.9970  147.4780 C   0  0  0  0  0  2  0  0  0  0  0  0
  189.3250  178.2070  146.5720 C   0  0  0  0  0  2  0  0  0  0  0  0
  189.4820  177.7720  145.1190 C   0  0  0  0  0  2  0  0  0  0  0  0
  190.8960  176.4420  147.3400 C   0  0  0  0  0  2  0  0  0  0  0  0
  1 11  2  0  0  0  0
  2  8  2  0  0  0  0
  3 10  1  0  0  0  0
  4 24  1  6  0  0  0
  4 13  1  0  0  0  0
  5 12  2  0  0  0  0
  5  9  1  0  0  0  0
  6 12  1  0  0  0  0
  7 15  2  0  0  0  0
  8  1  1  0  0  0  0
  8  3  1  0  0  0  0
  9  1  1  0  0  0  0
 10 16  2  0  0  0  0
 10 14  1  0  0  0  0
 11 16  1  0  0  0  0
 12  2  1  0  0  0  0
 13 14  1  0  0  0  0
 14 19  1  1  0  0  0
 15  3  1  0  0  0  0
 15  4  1  0  0  0  0
 17 18  1  0  0  0  0
 17 23  1  0  0  0  0
 19 22  2  0  0  0  0
 19 21  1  0  0  0  0
 20 18  2  0  0  0  0
 21 17  2  0  0  0  0
 22 20  1  0  0  0  0
 24 25  1  0  0  0  0
 25 26  1  0  0  0  0
 26 27  1  0  0  0  0
 27 29  1  0  0  0  0
 28 30  1  0  0  0  0
 29 33  1  0  0  0  0
 29 30  2  0  0  0  0
 30 34  1  0  0  0  0
 32 31  1  0  0  0  0
 33 32  1  0  0  0  0
 34 31  1  0  0  0  0
M  END
>  <MODEL>
5

>  <REMARK>
 VINA RESULT:      -9.2      1.810      2.363
  Name = 
  6 active torsions:
  status: ('A' for Active; 'I' for Inactive)
    1  A    between atoms: C_3  and  C_13
    2  A    between atoms: C_3  and  C_17
    3  A    between atoms: C_5  and  C_18
    4  A    between atoms: C_12  and  C_28
    5  A    between atoms: C_17  and  N_29
    6  A    between atoms: C_18  and  N_29
                            x       y       z     vdW  Elec       q    Type
                         _______ _______ _______ _____ _____    ______ ____

>  <TORSDO>
F 6

$$$$
=
 OpenBabel10262423583D

 34 38  0  0  1  0  0  0  0  0999 V2000
  181.5810  178.4220  141.4090 C   0  0  0  0  0  0  0  0  0  0  0  0
  182.4420  177.2270  139.4110 C   0  0  0  0  0  3  0  0  0  0  0  0
  184.0220  178.4410  140.9040 N   0  0  0  0  0  0  0  0  0  0  0  0
  186.5370  178.7430  140.5960 C   0  0  2  0  0  3  0  0  0  0  0  0
  180.0480  177.2530  139.9480 C   0  0  0  0  0  3  0  0  0  0  0  0
  181.0290  175.7470  138.2390 O   0  0  0  0  0  1  0  0  0  0  0  0
  185.0090  178.4080  138.7740 O   0  0  0  0  0  0  0  0  0  0  0  0
  182.6570  178.3900  140.3490 C   0  0  2  0  0  3  0  0  0  0  0  0
  180.2180  178.0340  141.0200 C   0  0  0  0  0  3  0  0  0  0  0  0
  184.2300  178.7800  142.2930 C   0  0  0  0  0  0  0  0  0  0  0  0
  181.8430  178.7480  142.6370 N   0  0  0  0  0  0  0  0  0  0  0  0
  181.2120  176.7500  139.1810 C   0  0  0  0  0  0  0  0  0  0  0  0
  186.5990  178.2780  141.9790 N   0  0  0  0  0  2  0  0  0  0  0  0
  185.6400  179.0310  142.7870 C   0  0  2  0  0  3  0  0  0  0  0  0
  185.1640  178.4850  140.0230 C   0  0  0  0  0  0  0  0  0  0  0  0
  183.1780  178.9820  143.0940 C   0  0  0  0  0  3  0  0  0  0  0  0
  187.1510  177.6310  145.9710 C   0  0  0  0  0  0  0  0  0  0  0  0
  186.2310  178.0530  146.9340 C   0  0  0  0  0  3  0  0  0  0  0  0
  185.8300  178.6920  144.2370 C   0  0  0  0  0  0  0  0  0  0  0  0
  185.1100  178.7950  146.5530 C   0  0  0  0  0  3  0  0  0  0  0  0
  186.9520  177.9510  144.6250 C   0  0  0  0  0  3  0  0  0  0  0  0
  184.9090  179.1150  145.2070 C   0  0  0  0  0  3  0  0  0  0  0  0
  188.2390  176.9130  146.3430 F   0  0  0  0  0  0  0  0  0  0  0  0
  187.6260  178.0450  139.7960 C   0  0  0  0  0  2  0  0  0  0  0  0
  188.8800  178.7680  139.9240 N   0  0  0  0  0  2  0  0  0  0  0  0
  189.9010  177.7820  140.2190 C   0  0  0  0  0  2  0  0  0  0  0  0
  189.4260  176.8830  141.3450 C   0  0  0  0  0  2  0  0  0  0  0  0
  190.4830  174.8690  142.9690 F   0  0  0  0  0  0  0  0  0  0  0  0
  190.1880  177.1700  142.6000 C   0  0  0  0  0  0  0  0  0  0  0  0
  190.6410  176.1580  143.3740 C   0  0  0  0  0  0  0  0  0  0  0  0
  191.2160  177.8010  145.2000 C   0  0  0  0  0  2  0  0  0  0  0  0
  191.3550  178.8350  144.0950 C   0  0  0  0  0  2  0  0  0  0  0  0
  190.2660  178.6080  143.0530 C   0  0  0  0  0  2  0  0  0  0  0  0
  191.4510  176.4090  144.6220 C   0  0  0  0  0  2  0  0  0  0  0  0
  1 11  2  0  0  0  0
  3 10  1  0  0  0  0
  4 24  1  6  0  0  0
  4 13  1  0  0  0  0
  5  9  2  0  0  0  0
  6 12  1  0  0  0  0
  7 15  2  0  0  0  0
  8  2  1  1  0  0  0
  8  3  1  0  0  0  0
  8  1  1  0  0  0  0
  9  1  1  0  0  0  0
 10 14  1  0  0  0  0
 10 16  2  0  0  0  0
 11 16  1  0  0  0  0
 12  2  2  0  0  0  0
 12  5  1  0  0  0  0
 13 14  1  0  0  0  0
 14 19  1  1  0  0  0
 15  4  1  0  0  0  0
 15  3  1  0  0  0  0
 17 23  1  0  0  0  0
 17 18  1  0  0  0  0
 19 21  1  0  0  0  0
 19 22  2  0  0  0  0
 20 18  2  0  0  0  0
 21 17  2  0  0  0  0
 22 20  1  0  0  0  0
 24 25  1  0  0  0  0
 25 26  1  0  0  0  0
 26 27  1  0  0  0  0
 27 29  1  0  0  0  0
 28 30  1  0  0  0  0
 29 33  1  0  0  0  0
 29 30  2  0  0  0  0
 30 34  1  0  0  0  0
 32 31  1  0  0  0  0
 33 32  1  0  0  0  0
 34 31  1  0  0  0  0
M  END
>  <MODEL>
6

>  <REMARK>
 VINA RESULT:      -9.1      2.737      4.708
  Name = 
  6 active torsions:
  status: ('A' for Active; 'I' for Inactive)
    1  A    between atoms: C_3  and  C_13
    2  A    between atoms: C_3  and  C_17
    3  A    between atoms: C_5  and  C_18
    4  A    between atoms: C_12  and  C_28
    5  A    between atoms: C_17  and  N_29
    6  A    between atoms: C_18  and  N_29
                            x       y       z     vdW  Elec       q    Type
                         _______ _______ _______ _____ _____    ______ ____

>  <TORSDO>
F 6

$$$$
=
 OpenBabel10262423583D

 34 38  0  0  1  0  0  0  0  0999 V2000
  186.5910  177.8950  137.3190 C   0  0  0  0  0  0  0  0  0  0  0  0
  188.3810  176.1860  137.1280 C   0  0  0  0  0  3  0  0  0  0  0  0
  188.1980  177.5610  139.1960 N   0  0  0  0  0  0  0  0  0  0  0  0
  189.7470  177.5420  141.2230 C   0  0  2  0  0  3  0  0  0  0  0  0
  186.7810  176.5650  135.3080 C   0  0  0  0  0  3  0  0  0  0  0  0
  188.3080  174.6120  135.3730 O   0  0  0  0  0  1  0  0  0  0  0  0
  190.4530  176.9330  139.0100 O   0  0  0  0  0  0  0  0  0  0  0  0
  187.9910  177.5110  137.7370 C   0  0  0  0  0  0  0  0  0  0  0  0
  186.1610  177.5570  135.9560 C   0  0  0  0  0  2  0  0  0  0  0  0
  187.2190  178.1970  140.0470 C   0  0  0  0  0  0  0  0  0  0  0  0
  185.7700  178.4740  138.1400 N   0  0  0  0  0  0  0  0  0  0  0  0
  187.8600  175.7870  135.9610 C   0  0  0  0  0  0  0  0  0  0  0  0
  188.5000  177.4120  141.9720 N   0  0  0  0  0  2  0  0  0  0  0  0
  187.5490  178.4220  141.5090 C   0  0  2  0  0  3  0  0  0  0  0  0
  189.4990  177.2880  139.7560 C   0  0  0  0  0  0  0  0  0  0  0  0
  186.0900  178.6810  139.5180 C   0  0  0  0  0  3  0  0  0  0  0  0
  185.3650  178.0400  144.5850 C   0  0  0  0  0  0  0  0  0  0  0  0
  184.1110  178.4130  144.0950 C   0  0  0  0  0  3  0  0  0  0  0  0
  186.3400  178.4180  142.3980 C   0  0  0  0  0  0  0  0  0  0  0  0
  183.9680  178.7910  142.7560 C   0  0  0  0  0  3  0  0  0  0  0  0
  186.4780  178.0430  143.7390 C   0  0  0  0  0  3  0  0  0  0  0  0
  185.0790  178.7940  141.9090 C   0  0  0  0  0  3  0  0  0  0  0  0
  185.5020  177.6760  145.8830 F   0  0  0  0  0  0  0  0  0  0  0  0
  190.7680  176.5740  141.8020 C   0  0  0  0  0  2  0  0  0  0  0  0
  190.1810  175.8330  142.9060 N   0  0  0  0  0  2  0  0  0  0  0  0
  191.2550  175.5620  143.8420 C   0  0  0  0  0  2  0  0  0  0  0  0
  191.6070  176.8340  144.5910 C   0  0  0  0  0  2  0  0  0  0  0  0
  189.6330  178.7940  144.3260 F   0  0  0  0  0  0  0  0  0  0  0  0
  190.5920  177.1110  145.6550 C   0  0  0  0  0  0  0  0  0  0  0  0
  189.6850  178.1010  145.4960 C   0  0  0  0  0  0  0  0  0  0  0  0
  189.0050  177.8780  147.9150 C   0  0  0  0  0  2  0  0  0  0  0  0
  189.4760  176.4360  147.8160 C   0  0  0  0  0  2  0  0  0  0  0  0
  190.7400  176.3770  146.9650 C   0  0  0  0  0  2  0  0  0  0  0  0
  188.6200  178.3810  146.5270 C   0  0  0  0  0  2  0  0  0  0  0  0
  1  8  1  0  0  0  0
  1 11  2  0  0  0  0
  2  8  2  0  0  0  0
  3 15  1  0  0  0  0
  3 10  1  0  0  0  0
  4 24  1  1  0  0  0
  4 13  1  0  0  0  0
  5  9  1  0  0  0  0
  5 12  2  0  0  0  0
  6 12  1  0  0  0  0
  7 15  2  0  0  0  0
  8  3  1  0  0  0  0
  9  1  1  0  0  0  0
 10 14  1  0  0  0  0
 11 16  1  0  0  0  0
 12  2  1  0  0  0  0
 14 13  1  0  0  0  0
 14 19  1  1  0  0  0
 15  4  1  0  0  0  0
 16 10  2  0  0  0  0
 17 23  1  0  0  0  0
 18 17  1  0  0  0  0
 19 21  1  0  0  0  0
 20 18  2  0  0  0  0
 21 17  2  0  0  0  0
 22 19  2  0  0  0  0
 22 20  1  0  0  0  0
 24 25  1  0  0  0  0
 25 26  1  0  0  0  0
 26 27  1  0  0  0  0
 27 29  1  0  0  0  0
 28 30  1  0  0  0  0
 29 33  1  0  0  0  0
 30 29  2  0  0  0  0
 30 34  1  0  0  0  0
 32 31  1  0  0  0  0
 33 32  1  0  0  0  0
 34 31  1  0  0  0  0
M  END
>  <MODEL>
7

>  <REMARK>
 VINA RESULT:      -9.0      1.297      1.622
  Name = 
  6 active torsions:
  status: ('A' for Active; 'I' for Inactive)
    1  A    between atoms: C_3  and  C_13
    2  A    between atoms: C_3  and  C_17
    3  A    between atoms: C_5  and  C_18
    4  A    between atoms: C_12  and  C_28
    5  A    between atoms: C_17  and  N_29
    6  A    between atoms: C_18  and  N_29
                            x       y       z     vdW  Elec       q    Type
                         _______ _______ _______ _____ _____    ______ ____

>  <TORSDO>
F 6

$$$$
=
 OpenBabel10262423583D

 34 38  0  0  1  0  0  0  0  0999 V2000
  189.5280  176.8400  141.5250 C   0  0  0  0  0  0  0  0  0  0  0  0
  188.1130  178.4500  140.2740 C   0  0  0  0  0  3  0  0  0  0  0  0
  187.3850  177.6440  142.5140 N   0  0  0  0  0  0  0  0  0  0  0  0
  185.2090  178.1810  143.7330 C   0  0  2  0  0  3  0  0  0  0  0  0
  190.2250  177.6170  139.3430 C   0  0  0  0  0  3  0  0  0  0  0  0
  188.9830  179.5270  138.3640 O   0  0  0  0  0  1  0  0  0  0  0  0
  185.4310  178.2120  141.3410 O   0  0  0  0  0  0  0  0  0  0  0  0
  188.1170  177.3210  141.2750 C   0  0  0  0  0  0  0  0  0  0  0  0
  190.4610  176.8190  140.3900 C   0  0  0  0  0  2  0  0  0  0  0  0
  187.9130  177.2410  143.7970 C   0  0  0  0  0  0  0  0  0  0  0  0
  189.9270  176.4840  142.7070 N   0  0  0  0  0  0  0  0  0  0  0  0
  189.0650  178.5390  139.3350 C   0  0  0  0  0  0  0  0  0  0  0  0
  186.0990  178.4930  144.8480 N   0  0  0  0  0  2  0  0  0  0  0  0
  187.0480  177.3950  145.0310 C   0  0  2  0  0  3  0  0  0  0  0  0
  186.0030  178.0550  142.4550 C   0  0  0  0  0  0  0  0  0  0  0  0
  189.1040  176.6350  143.8670 C   0  0  0  0  0  3  0  0  0  0  0  0
  189.9450  177.4580  147.4780 C   0  0  0  0  0  0  0  0  0  0  0  0
  189.3550  178.0390  148.6040 C   0  0  0  0  0  3  0  0  0  0  0  0
  187.8390  177.6200  146.2860 C   0  0  0  0  0  0  0  0  0  0  0  0
  188.0090  178.4120  148.5750 C   0  0  0  0  0  3  0  0  0  0  0  0
  189.1890  177.2500  146.3210 C   0  0  0  0  0  3  0  0  0  0  0  0
  187.2510  178.2040  147.4190 C   0  0  0  0  0  3  0  0  0  0  0  0
  191.2500  177.0980  147.5070 F   0  0  0  0  0  0  0  0  0  0  0  0
  184.1480  179.2680  143.6360 C   0  0  0  0  0  2  0  0  0  0  0  0
  182.8660  178.7550  144.0890 N   0  0  0  0  0  2  0  0  0  0  0  0
  181.8460  179.4690  143.3460 C   0  0  0  0  0  2  0  0  0  0  0  0
  181.0830  178.4950  142.4690 C   0  0  0  0  0  2  0  0  0  0  0  0
  182.8090  177.1650  140.7190 F   0  0  0  0  0  0  0  0  0  0  0  0
  181.2240  178.8700  141.0270 C   0  0  0  0  0  0  0  0  0  0  0  0
  182.1050  178.2220  140.2320 C   0  0  0  0  0  0  0  0  0  0  0  0
  181.7620  179.9510  138.4280 C   0  0  0  0  0  2  0  0  0  0  0  0
  180.3860  180.1720  139.0340 C   0  0  0  0  0  2  0  0  0  0  0  0
  180.4870  180.0990  140.5530 C   0  0  0  0  0  2  0  0  0  0  0  0
  182.2420  178.5430  138.7650 C   0  0  0  0  0  2  0  0  0  0  0  0
  1 11  2  0  0  0  0
  2  8  2  0  0  0  0
  3 10  1  0  0  0  0
  4 24  1  6  0  0  0
  4 13  1  0  0  0  0
  5  9  1  0  0  0  0
  6 12  1  0  0  0  0
  7 15  2  0  0  0  0
  8  1  1  0  0  0  0
  8  3  1  0  0  0  0
  9  1  1  0  0  0  0
 10 16  2  0  0  0  0
 10 14  1  0  0  0  0
 11 16  1  0  0  0  0
 12  5  2  0  0  0  0
 12  2  1  0  0  0  0
 13 14  1  0  0  0  0
 14 19  1  1  0  0  0
 15  3  1  0  0  0  0
 15  4  1  0  0  0  0
 17 23  1  0  0  0  0
 17 18  1  0  0  0  0
 19 21  1  0  0  0  0
 19 22  2  0  0  0  0
 20 18  2  0  0  0  0
 21 17  2  0  0  0  0
 22 20  1  0  0  0  0
 24 25  1  0  0  0  0
 26 25  1  0  0  0  0
 27 26  1  0  0  0  0
 29 27  1  0  0  0  0
 30 28  1  0  0  0  0
 30 29  2  0  0  0  0
 31 34  1  0  0  0  0
 31 32  1  0  0  0  0
 32 33  1  0  0  0  0
 33 29  1  0  0  0  0
 34 30  1  0  0  0  0
M  END
>  <MODEL>
8

>  <REMARK>
 VINA RESULT:      -9.0      2.549      7.185
  Name = 
  6 active torsions:
  status: ('A' for Active; 'I' for Inactive)
    1  A    between atoms: C_3  and  C_13
    2  A    between atoms: C_3  and  C_17
    3  A    between atoms: C_5  and  C_18
    4  A    between atoms: C_12  and  C_28
    5  A    between atoms: C_17  and  N_29
    6  A    between atoms: C_18  and  N_29
                            x       y       z     vdW  Elec       q    Type
                         _______ _______ _______ _____ _____    ______ ____

>  <TORSDO>
F 6

$$$$
=
 OpenBabel10262423583D

 34 38  0  0  1  0  0  0  0  0999 V2000
  190.9210  177.6590  142.7490 C   0  0  0  0  0  0  0  0  0  0  0  0
  188.5690  177.6540  143.5450 C   0  0  0  0  0  3  0  0  0  0  0  0
  189.0530  177.9100  141.1160 N   0  0  0  0  0  0  0  0  0  0  0  0
  187.3830  178.3010  139.2270 C   0  0  2  0  0  3  0  0  0  0  0  0
  190.4460  177.4240  145.1090 C   0  0  0  0  0  3  0  0  0  0  0  0
  188.0910  177.0030  145.7610 O   0  0  0  0  0  1  0  0  0  0  0  0
  186.9930  178.9680  141.5020 O   0  0  0  0  0  0  0  0  0  0  0  0
  189.5210  178.1660  142.4910 C   0  0  2  0  0  3  0  0  0  0  0  0
  191.3650  177.5400  144.1440 C   0  0  0  0  0  3  0  0  0  0  0  0
  189.9860  177.4830  140.0990 C   0  0  0  0  0  0  0  0  0  0  0  0
  191.7060  177.3040  141.7800 N   0  0  0  0  0  0  0  0  0  0  0  0
  189.0020  177.3760  144.7830 C   0  0  0  0  0  0  0  0  0  0  0  0
  188.0870  177.1900  138.5930 N   0  0  0  0  0  2  0  0  0  0  0  0
  189.5280  177.4300  138.6560 C   0  0  2  0  0  3  0  0  0  0  0  0
  187.7620  178.3890  140.6860 C   0  0  0  0  0  0  0  0  0  0  0  0
  191.2640  177.2550  140.4200 C   0  0  0  0  0  3  0  0  0  0  0  0
  192.1330  175.7720  136.4530 C   0  0  0  0  0  0  0  0  0  0  0  0
  191.6240  174.4770  136.3330 C   0  0  0  0  0  3  0  0  0  0  0  0
  190.2450  176.3910  137.8440 C   0  0  0  0  0  0  0  0  0  0  0  0
  190.4260  174.1340  136.9670 C   0  0  0  0  0  3  0  0  0  0  0  0
  191.4460  176.7280  137.2080 C   0  0  0  0  0  3  0  0  0  0  0  0
  189.7380  175.0880  137.7220 C   0  0  0  0  0  3  0  0  0  0  0  0
  193.2940  176.1030  135.8380 F   0  0  0  0  0  0  0  0  0  0  0  0
  185.8860  178.1030  139.0410 C   0  0  0  0  0  2  0  0  0  0  0  0
  185.2150  179.3910  138.9960 N   0  0  0  0  0  2  0  0  0  0  0  0
  183.8570  179.1690  139.4530 C   0  0  0  0  0  2  0  0  0  0  0  0
  183.8540  178.0930  140.5230 C   0  0  0  0  0  2  0  0  0  0  0  0
  184.6800  178.0650  143.1930 F   0  0  0  0  0  0  0  0  0  0  0  0
  182.9560  178.4850  141.6540 C   0  0  0  0  0  0  0  0  0  0  0  0
  183.3900  178.4120  142.9320 C   0  0  0  0  0  0  0  0  0  0  0  0
  181.0400  178.7990  143.7630 C   0  0  0  0  0  2  0  0  0  0  0  0
  180.7960  179.5230  142.4500 C   0  0  0  0  0  2  0  0  0  0  0  0
  181.5120  178.7810  141.3260 C   0  0  0  0  0  2  0  0  0  0  0  0
  182.5290  178.8400  144.0940 C   0  0  0  0  0  2  0  0  0  0  0  0
  1  9  1  0  0  0  0
  2 12  2  0  0  0  0
  3  8  1  0  0  0  0
  4 24  1  1  0  0  0
  4 15  1  0  0  0  0
  8  1  1  0  0  0  0
  8  2  1  1  0  0  0
  9  5  2  0  0  0  0
 10 16  2  0  0  0  0
 10  3  1  0  0  0  0
 11  1  2  0  0  0  0
 12  5  1  0  0  0  0
 12  6  1  0  0  0  0
 13 14  1  0  0  0  0
 13  4  1  0  0  0  0
 14 19  1  6  0  0  0
 14 10  1  0  0  0  0
 15  3  1  0  0  0  0
 15  7  2  0  0  0  0
 16 11  1  0  0  0  0
 17 21  1  0  0  0  0
 18 17  2  0  0  0  0
 18 20  1  0  0  0  0
 20 22  2  0  0  0  0
 21 19  2  0  0  0  0
 22 19  1  0  0  0  0
 23 17  1  0  0  0  0
 25 24  1  0  0  0  0
 25 26  1  0  0  0  0
 26 27  1  0  0  0  0
 27 29  1  0  0  0  0
 29 30  2  0  0  0  0
 30 28  1  0  0  0  0
 30 34  1  0  0  0  0
 31 34  1  0  0  0  0
 32 31  1  0  0  0  0
 33 29  1  0  0  0  0
 33 32  1  0  0  0  0
M  END
>  <MODEL>
9

>  <REMARK>
 VINA RESULT:      -8.8      3.083      7.901
  Name = 
  6 active torsions:
  status: ('A' for Active; 'I' for Inactive)
    1  A    between atoms: C_3  and  C_13
    2  A    between atoms: C_3  and  C_17
    3  A    between atoms: C_5  and  C_18
    4  A    between atoms: C_12  and  C_28
    5  A    between atoms: C_17  and  N_29
    6  A    between atoms: C_18  and  N_29
                            x       y       z     vdW  Elec       q    Type
                         _______ _______ _______ _____ _____    ______ ____

>  <TORSDO>
F 6

$$$$
