=
 OpenBabel10272400073D

 34 39  0  0  1  0  0  0  0  0999 V2000
  187.7910  177.7780  147.1390 C   0  0  0  0  0  0  0  0  0  0  0  0
  190.2150  177.7070  146.8570 C   0  0  0  0  0  0  0  0  0  0  0  0
  188.7560  177.4520  144.9230 C   0  0  0  0  0  0  0  0  0  0  0  0
  189.7770  176.8630  142.7210 N   0  0  0  0  0  0  0  0  0  0  0  0
  189.2490  178.0980  149.0470 C   0  0  0  0  0  3  0  0  0  0  0  0
  190.3720  177.9270  148.2290 C   0  0  0  0  0  3  0  0  0  0  0  0
  191.2550  177.2550  144.6910 C   0  0  0  0  0  3  0  0  0  0  0  0
  188.9220  177.6640  146.3030 C   0  0  0  0  0  0  0  0  0  0  0  0
  190.5220  176.3800  140.4030 N   0  0  0  0  0  2  0  0  0  0  0  0
  191.7440  177.7640  141.8220 O   0  0  0  0  0  0  0  0  0  0  0  0
  187.9610  178.0150  148.5050 C   0  0  0  0  0  3  0  0  0  0  0  0
  187.4710  177.2500  144.3990 C   0  0  0  0  0  0  0  0  0  0  0  0
  186.5100  177.6270  146.5990 C   0  0  0  0  0  3  0  0  0  0  0  0
  191.3830  177.3810  146.0160 C   0  0  0  0  0  3  0  0  0  0  0  0
  188.5340  176.1390  142.4290 C   0  0  0  0  0  2  0  0  0  0  0  0
  187.3030  176.8910  142.9530 C   0  0  2  0  0  3  0  0  0  0  0  0
  190.7330  177.0270  141.6590 C   0  0  0  0  0  0  0  0  0  0  0  0
  189.9510  177.5740  144.0000 C   0  0  2  0  0  3  0  0  0  0  0  0
  186.3520  177.3480  145.2350 C   0  0  0  0  0  3  0  0  0  0  0  0
  188.0250  178.8580  141.5640 C   0  0  0  0  0  2  0  0  0  0  0  0
  186.5950  178.7420  139.7210 C   0  0  0  0  0  1  0  0  0  0  0  0
  186.9000  178.0840  142.0780 C   0  0  1  0  0  0  0  0  0  0  0  0
  187.3350  177.9120  140.6660 N   0  0  0  0  0  0  0  0  0  0  0  0
  185.6030  178.8330  142.3260 C   0  0  0  0  0  0  0  0  0  0  0  0
  185.6000  179.9800  143.0050 C   0  0  0  0  0  2  0  0  0  0  0  0
  184.0350  178.1220  141.8240 S   0  0  0  0  0  1  0  0  0  0  0  0
  191.4210  176.5650  139.2760 C   0  0  0  0  0  2  0  0  0  0  0  0
  191.6190  174.9570  136.7850 C   0  0  0  0  0  1  0  0  0  0  0  0
  190.6330  176.9110  138.0570 C   0  0  0  0  0  0  0  0  0  0  0  0
  190.7360  176.1560  136.8720 C   0  0  0  0  0  0  0  0  0  0  0  0
  189.1650  177.6510  135.7860 C   0  0  0  0  0  3  0  0  0  0  0  0
  189.0680  178.4050  136.9590 C   0  0  0  0  0  3  0  0  0  0  0  0
  189.8030  178.0370  138.0890 C   0  0  0  0  0  3  0  0  0  0  0  0
  189.9980  176.5300  135.7440 C   0  0  0  0  0  3  0  0  0  0  0  0
  1 11  2  0  0  0  0
  2  6  1  0  0  0  0
  3  8  1  0  0  0  0
  4 18  1  0  0  0  0
  6  5  2  0  0  0  0
  7 14  2  0  0  0  0
  8  2  2  0  0  0  0
  8  1  1  0  0  0  0
  9 17  1  0  0  0  0
 11  5  1  0  0  0  0
 12  3  2  0  0  0  0
 12 19  1  0  0  0  0
 13  1  1  0  0  0  0
 14  2  1  0  0  0  0
 15  4  1  0  0  0  0
 16 15  1  6  0  0  0
 16 12  1  0  0  0  0
 17 10  2  0  0  0  0
 17  4  1  0  0  0  0
 18  7  1  1  0  0  0
 18  3  1  0  0  0  0
 19 13  2  0  0  0  0
 20 22  1  0  0  0  0
 21 23  1  0  0  0  0
 22 24  1  1  0  0  0
 22 16  1  0  0  0  0
 23 20  1  0  0  0  0
 23 22  1  0  0  0  0
 24 25  2  0  0  0  0
 26 24  1  0  0  0  0
 27  9  1  0  0  0  0
 28 30  1  0  0  0  0
 29 33  1  0  0  0  0
 29 27  1  0  0  0  0
 30 29  2  0  0  0  0
 31 32  1  0  0  0  0
 32 33  2  0  0  0  0
 34 31  2  0  0  0  0
 34 30  1  0  0  0  0
M  END
>  <MODEL>
1

>  <REMARK>
 VINA RESULT:      -8.7      0.000      0.000
  Name = 
  4 active torsions:
  status: ('A' for Active; 'I' for Inactive)
    1  A    between atoms: C_3  and  C_13
    2  A    between atoms: C_3  and  N_17
    3  A    between atoms: C_7  and  C_23
    4  A    between atoms: C_23  and  C_28
                            x       y       z     vdW  Elec       q    Type
                         _______ _______ _______ _____ _____    ______ ____

>  <TORSDO>
F 4

$$$$
=
 OpenBabel10272400073D

 34 39  0  0  1  0  0  0  0  0999 V2000
  192.1980  175.8630  135.3660 C   0  0  0  0  0  0  0  0  0  0  0  0
  192.8220  175.9760  137.7240 C   0  0  0  0  0  0  0  0  0  0  0  0
  190.6030  176.6890  137.0150 C   0  0  0  0  0  0  0  0  0  0  0  0
  189.0990  177.7680  138.6920 N   0  0  0  0  0  0  0  0  0  0  0  0
  194.3780  175.0920  136.0880 C   0  0  0  0  0  3  0  0  0  0  0  0
  194.0740  175.4400  137.4090 C   0  0  0  0  0  3  0  0  0  0  0  0
  191.3260  176.9130  139.4160 C   0  0  0  0  0  3  0  0  0  0  0  0
  191.8680  176.1590  136.7060 C   0  0  0  0  0  0  0  0  0  0  0  0
  187.3670  178.7730  140.1600 N   0  0  0  0  0  2  0  0  0  0  0  0
  188.7840  177.0840  140.9110 O   0  0  0  0  0  0  0  0  0  0  0  0
  193.4470  175.3110  135.0660 C   0  0  0  0  0  3  0  0  0  0  0  0
  189.7140  177.0190  135.9820 C   0  0  0  0  0  0  0  0  0  0  0  0
  191.2850  176.1470  134.3460 C   0  0  0  0  0  3  0  0  0  0  0  0
  192.5470  176.4790  139.0830 C   0  0  0  0  0  3  0  0  0  0  0  0
  188.5520  178.5510  137.5780 C   0  0  0  0  0  2  0  0  0  0  0  0
  188.4220  177.7080  136.3010 C   0  0  2  0  0  3  0  0  0  0  0  0
  188.4390  177.8470  139.9670 C   0  0  0  0  0  0  0  0  0  0  0  0
  190.1640  176.7760  138.4620 C   0  0  2  0  0  3  0  0  0  0  0  0
  190.0530  176.7390  134.6520 C   0  0  0  0  0  3  0  0  0  0  0  0
  186.1000  177.2190  137.1340 C   0  0  0  0  0  2  0  0  0  0  0  0
  185.0380  176.3690  135.2370 C   0  0  0  0  0  1  0  0  0  0  0  0
  187.2190  176.7570  136.3200 C   0  0  1  0  0  0  0  0  0  0  0  0
  186.0240  177.3550  135.6680 N   0  0  0  0  0  0  0  0  0  0  0  0
  187.4080  175.2560  136.1960 C   0  0  0  0  0  0  0  0  0  0  0  0
  187.5250  174.4930  137.2840 C   0  0  0  0  0  2  0  0  0  0  0  0
  187.6120  174.4970  134.5840 S   0  0  0  0  0  1  0  0  0  0  0  0
  186.6230  178.8490  141.4060 C   0  0  0  0  0  2  0  0  0  0  0  0
  184.6160  178.3930  143.5490 C   0  0  0  0  0  1  0  0  0  0  0  0
  185.1590  178.8460  141.1180 C   0  0  0  0  0  0  0  0  0  0  0  0
  184.2080  178.6180  142.1320 C   0  0  0  0  0  0  0  0  0  0  0  0
  182.4260  178.7990  140.4960 C   0  0  0  0  0  3  0  0  0  0  0  0
  183.3690  179.0180  139.4890 C   0  0  0  0  0  3  0  0  0  0  0  0
  184.7310  179.0380  139.8000 C   0  0  0  0  0  3  0  0  0  0  0  0
  182.8460  178.5990  141.8140 C   0  0  0  0  0  3  0  0  0  0  0  0
  1  8  1  0  0  0  0
  2 14  1  0  0  0  0
  3 18  1  0  0  0  0
  4 17  1  0  0  0  0
  5  6  2  0  0  0  0
  6  2  1  0  0  0  0
  8  3  1  0  0  0  0
  8  2  2  0  0  0  0
  9 27  1  0  0  0  0
 11  1  2  0  0  0  0
 11  5  1  0  0  0  0
 12 16  1  0  0  0  0
 12  3  2  0  0  0  0
 13 19  2  0  0  0  0
 13  1  1  0  0  0  0
 14  7  2  0  0  0  0
 15  4  1  0  0  0  0
 16 22  1  0  0  0  0
 16 15  1  1  0  0  0
 17  9  1  0  0  0  0
 17 10  2  0  0  0  0
 18  4  1  0  0  0  0
 18  7  1  1  0  0  0
 19 12  1  0  0  0  0
 21 23  1  0  0  0  0
 22 24  1  6  0  0  0
 22 20  1  0  0  0  0
 23 22  1  0  0  0  0
 23 20  1  0  0  0  0
 24 25  2  0  0  0  0
 26 24  1  0  0  0  0
 29 27  1  0  0  0  0
 29 30  1  0  0  0  0
 30 28  1  0  0  0  0
 31 34  1  0  0  0  0
 32 33  1  0  0  0  0
 32 31  2  0  0  0  0
 33 29  2  0  0  0  0
 34 30  2  0  0  0  0
M  END
>  <MODEL>
2

>  <REMARK>
 VINA RESULT:      -8.2      3.935      8.403
  Name = 
  4 active torsions:
  status: ('A' for Active; 'I' for Inactive)
    1  A    between atoms: C_3  and  C_13
    2  A    between atoms: C_3  and  N_17
    3  A    between atoms: C_7  and  C_23
    4  A    between atoms: C_23  and  C_28
                            x       y       z     vdW  Elec       q    Type
                         _______ _______ _______ _____ _____    ______ ____

>  <TORSDO>
F 4

$$$$
=
 OpenBabel10272400073D

 34 39  0  0  1  0  0  0  0  0999 V2000
  182.6340  178.7910  143.3390 C   0  0  0  0  0  0  0  0  0  0  0  0
  185.0590  178.7930  143.0610 C   0  0  0  0  0  0  0  0  0  0  0  0
  183.6120  178.4700  141.1280 C   0  0  0  0  0  0  0  0  0  0  0  0
  184.6530  177.8880  138.9340 N   0  0  0  0  0  0  0  0  0  0  0  0
  184.0780  179.1780  145.2450 C   0  0  0  0  0  3  0  0  0  0  0  0
  185.2070  179.0330  144.4300 C   0  0  0  0  0  3  0  0  0  0  0  0
  186.1160  178.3480  140.9010 C   0  0  0  0  0  3  0  0  0  0  0  0
  183.7690  178.7020  142.5060 C   0  0  0  0  0  0  0  0  0  0  0  0
  185.4170  177.4030  136.6230 N   0  0  0  0  0  2  0  0  0  0  0  0
  186.5930  178.8410  138.0280 O   0  0  0  0  0  0  0  0  0  0  0  0
  182.7940  179.0480  144.7030 C   0  0  0  0  0  3  0  0  0  0  0  0
  182.3340  178.2230  140.6050 C   0  0  0  0  0  0  0  0  0  0  0  0
  181.3590  178.5940  142.7990 C   0  0  0  0  0  3  0  0  0  0  0  0
  186.2380  178.4940  142.2250 C   0  0  0  0  0  3  0  0  0  0  0  0
  183.4350  177.1230  138.6490 C   0  0  0  0  0  2  0  0  0  0  0  0
  182.1800  177.8430  139.1630 C   0  0  2  0  0  3  0  0  0  0  0  0
  185.6050  178.0710  137.8720 C   0  0  0  0  0  0  0  0  0  0  0  0
  184.8030  178.6190  140.2050 C   0  0  2  0  0  3  0  0  0  0  0  0
  181.2110  178.2950  141.4390 C   0  0  0  0  0  3  0  0  0  0  0  0
  182.1740  178.9050  136.8840 C   0  0  0  0  0  2  0  0  0  0  0  0
  179.9820  179.6830  136.6820 C   0  0  0  0  0  1  0  0  0  0  0  0
  181.7420  179.0120  138.2740 C   0  0  1  0  0  0  0  0  0  0  0  0
  180.7750  178.5860  137.2270 N   0  0  0  0  0  0  0  0  0  0  0  0
  181.5880  180.4110  138.8420 C   0  0  0  0  0  0  0  0  0  0  0  0
  182.5860  181.2920  138.7600 C   0  0  0  0  0  2  0  0  0  0  0  0
  180.1110  180.8640  139.7530 S   0  0  0  0  0  1  0  0  0  0  0  0
  186.3120  177.6030  135.4940 C   0  0  0  0  0  2  0  0  0  0  0  0
  189.2040  177.9560  136.0760 C   0  0  0  0  0  1  0  0  0  0  0  0
  187.2720  176.4640  135.4060 C   0  0  0  0  0  0  0  0  0  0  0  0
  188.6450  176.6350  135.6710 C   0  0  0  0  0  0  0  0  0  0  0  0
  189.0280  174.2930  135.1680 C   0  0  0  0  0  3  0  0  0  0  0  0
  187.6680  174.1250  134.8990 C   0  0  0  0  0  3  0  0  0  0  0  0
  186.7930  175.2090  135.0150 C   0  0  0  0  0  3  0  0  0  0  0  0
  189.5150  175.5450  135.5520 C   0  0  0  0  0  3  0  0  0  0  0  0
  1 11  2  0  0  0  0
  2  6  1  0  0  0  0
  3  8  1  0  0  0  0
  4 18  1  0  0  0  0
  6  5  2  0  0  0  0
  7 14  2  0  0  0  0
  8  2  2  0  0  0  0
  8  1  1  0  0  0  0
  9 17  1  0  0  0  0
 11  5  1  0  0  0  0
 12  3  2  0  0  0  0
 12 19  1  0  0  0  0
 13  1  1  0  0  0  0
 14  2  1  0  0  0  0
 15  4  1  0  0  0  0
 16 15  1  6  0  0  0
 16 12  1  0  0  0  0
 17 10  2  0  0  0  0
 17  4  1  0  0  0  0
 18  7  1  1  0  0  0
 18  3  1  0  0  0  0
 19 13  2  0  0  0  0
 20 23  1  0  0  0  0
 20 22  1  0  0  0  0
 21 23  1  0  0  0  0
 22 24  1  1  0  0  0
 22 16  1  0  0  0  0
 23 22  1  0  0  0  0
 24 26  1  0  0  0  0
 25 24  2  0  0  0  0
 27  9  1  0  0  0  0
 29 27  1  0  0  0  0
 29 30  1  0  0  0  0
 30 28  1  0  0  0  0
 31 34  1  0  0  0  0
 32 33  1  0  0  0  0
 32 31  2  0  0  0  0
 33 29  2  0  0  0  0
 34 30  2  0  0  0  0
M  END
>  <MODEL>
3

>  <REMARK>
 VINA RESULT:      -7.8      4.018      6.028
  Name = 
  4 active torsions:
  status: ('A' for Active; 'I' for Inactive)
    1  A    between atoms: C_3  and  C_13
    2  A    between atoms: C_3  and  N_17
    3  A    between atoms: C_7  and  C_23
    4  A    between atoms: C_23  and  C_28
                            x       y       z     vdW  Elec       q    Type
                         _______ _______ _______ _____ _____    ______ ____

>  <TORSDO>
F 4

$$$$
=
 OpenBabel10272400073D

 34 39  0  0  1  0  0  0  0  0999 V2000
  189.5740  177.7430  146.0640 C   0  0  0  0  0  0  0  0  0  0  0  0
  187.1530  177.6160  146.3560 C   0  0  0  0  0  0  0  0  0  0  0  0
  188.0900  178.1330  144.1680 C   0  0  0  0  0  0  0  0  0  0  0  0
  186.5380  178.7790  142.3210 N   0  0  0  0  0  0  0  0  0  0  0  0
  188.6350  177.1630  148.2210 C   0  0  0  0  0  3  0  0  0  0  0  0
  187.3410  177.2900  147.7020 C   0  0  0  0  0  3  0  0  0  0  0  0
  185.6000  178.1220  144.5360 C   0  0  0  0  0  3  0  0  0  0  0  0
  188.2710  177.8130  145.5250 C   0  0  0  0  0  0  0  0  0  0  0  0
  185.2320  179.3510  140.2890 N   0  0  0  0  0  2  0  0  0  0  0  0
  184.4820  177.7690  141.8250 O   0  0  0  0  0  0  0  0  0  0  0  0
  189.7500  177.3990  147.4070 C   0  0  0  0  0  3  0  0  0  0  0  0
  189.1970  178.4840  143.3820 C   0  0  0  0  0  0  0  0  0  0  0  0
  190.6760  178.0450  145.2580 C   0  0  0  0  0  3  0  0  0  0  0  0
  185.7990  177.8940  145.8390 C   0  0  0  0  0  3  0  0  0  0  0  0
  187.6210  179.6290  141.8150 C   0  0  0  0  0  2  0  0  0  0  0  0
  188.9920  178.9550  141.9730 C   0  0  2  0  0  3  0  0  0  0  0  0
  185.3720  178.6020  141.4980 C   0  0  0  0  0  0  0  0  0  0  0  0
  186.7230  177.9690  143.5380 C   0  0  2  0  0  3  0  0  0  0  0  0
  190.4870  178.4300  143.9250 C   0  0  0  0  0  3  0  0  0  0  0  0
  188.0610  177.3660  140.2620 C   0  0  0  0  0  2  0  0  0  0  0  0
  189.5880  177.5460  138.5050 C   0  0  0  0  0  1  0  0  0  0  0  0
  189.2590  177.8670  140.9280 C   0  0  1  0  0  0  0  0  0  0  0  0
  188.9310  178.3220  139.5510 N   0  0  0  0  0  0  0  0  0  0  0  0
  190.4150  176.8960  141.0870 C   0  0  0  0  0  0  0  0  0  0  0  0
  190.2770  175.7880  141.8150 C   0  0  0  0  0  2  0  0  0  0  0  0
  192.0290  177.2880  140.4100 S   0  0  0  0  0  1  0  0  0  0  0  0
  184.1070  179.1650  139.3870 C   0  0  0  0  0  2  0  0  0  0  0  0
  182.2550  176.8510  139.1760 C   0  0  0  0  0  1  0  0  0  0  0  0
  184.3850  178.0220  138.4680 C   0  0  0  0  0  0  0  0  0  0  0  0
  183.5120  176.9200  138.3770 C   0  0  0  0  0  0  0  0  0  0  0  0
  184.9950  175.8850  136.7600 C   0  0  0  0  0  3  0  0  0  0  0  0
  185.8640  176.9750  136.8560 C   0  0  0  0  0  3  0  0  0  0  0  0
  185.5600  178.0380  137.7090 C   0  0  0  0  0  3  0  0  0  0  0  0
  183.8230  175.8580  137.5200 C   0  0  0  0  0  3  0  0  0  0  0  0
  1 11  2  0  0  0  0
  2  6  1  0  0  0  0
  3  8  1  0  0  0  0
  4 18  1  0  0  0  0
  6  5  2  0  0  0  0
  7 14  2  0  0  0  0
  8  1  1  0  0  0  0
  8  2  2  0  0  0  0
  9 17  1  0  0  0  0
 11  5  1  0  0  0  0
 12 19  1  0  0  0  0
 12  3  2  0  0  0  0
 13  1  1  0  0  0  0
 14  2  1  0  0  0  0
 15  4  1  0  0  0  0
 16 15  1  1  0  0  0
 16 12  1  0  0  0  0
 17 10  2  0  0  0  0
 17  4  1  0  0  0  0
 18  3  1  0  0  0  0
 18  7  1  1  0  0  0
 19 13  2  0  0  0  0
 20 22  1  0  0  0  0
 21 23  1  0  0  0  0
 22 24  1  1  0  0  0
 22 16  1  0  0  0  0
 23 20  1  0  0  0  0
 23 22  1  0  0  0  0
 24 25  2  0  0  0  0
 26 24  1  0  0  0  0
 27  9  1  0  0  0  0
 29 27  1  0  0  0  0
 30 29  1  0  0  0  0
 30 28  1  0  0  0  0
 31 32  2  0  0  0  0
 31 34  1  0  0  0  0
 32 33  1  0  0  0  0
 33 29  2  0  0  0  0
 34 30  2  0  0  0  0
M  END
>  <MODEL>
4

>  <REMARK>
 VINA RESULT:      -7.7      2.813      4.907
  Name = 
  4 active torsions:
  status: ('A' for Active; 'I' for Inactive)
    1  A    between atoms: C_3  and  C_13
    2  A    between atoms: C_3  and  N_17
    3  A    between atoms: C_7  and  C_23
    4  A    between atoms: C_23  and  C_28
                            x       y       z     vdW  Elec       q    Type
                         _______ _______ _______ _____ _____    ______ ____

>  <TORSDO>
F 4

$$$$
=
 OpenBabel10272400073D

 34 39  0  0  1  0  0  0  0  0999 V2000
  191.2700  176.0880  136.2990 C   0  0  0  0  0  0  0  0  0  0  0  0
  191.2080  176.8970  138.6020 C   0  0  0  0  0  0  0  0  0  0  0  0
  189.2040  176.9970  137.2210 C   0  0  0  0  0  0  0  0  0  0  0  0
  187.1880  178.1690  138.1170 N   0  0  0  0  0  0  0  0  0  0  0  0
  193.2410  175.9300  137.6990 C   0  0  0  0  0  3  0  0  0  0  0  0
  192.5500  176.5360  138.7550 C   0  0  0  0  0  3  0  0  0  0  0  0
  189.2130  177.9400  139.5550 C   0  0  0  0  0  3  0  0  0  0  0  0
  190.5550  176.6450  137.3810 C   0  0  0  0  0  0  0  0  0  0  0  0
  185.0220  179.1780  138.7880 N   0  0  0  0  0  2  0  0  0  0  0  0
  186.3560  178.0160  140.3020 O   0  0  0  0  0  0  0  0  0  0  0  0
  192.6060  175.7150  136.4700 C   0  0  0  0  0  3  0  0  0  0  0  0
  188.6010  176.8920  135.9590 C   0  0  0  0  0  0  0  0  0  0  0  0
  190.6450  175.9390  135.0570 C   0  0  0  0  0  3  0  0  0  0  0  0
  190.5180  177.6650  139.6550 C   0  0  0  0  0  3  0  0  0  0  0  0
  186.8840  178.5370  136.7300 C   0  0  0  0  0  2  0  0  0  0  0  0
  187.2020  177.3930  135.7570 C   0  0  2  0  0  3  0  0  0  0  0  0
  186.2000  178.4440  139.1250 C   0  0  0  0  0  0  0  0  0  0  0  0
  188.3780  177.3610  138.4380 C   0  0  2  0  0  3  0  0  0  0  0  0
  189.3190  176.3550  134.8840 C   0  0  0  0  0  3  0  0  0  0  0  0
  184.8140  176.7120  136.1500 C   0  0  0  0  0  2  0  0  0  0  0  0
  184.3930  175.2560  134.3740 C   0  0  0  0  0  1  0  0  0  0  0  0
  186.1530  176.2750  135.7680 C   0  0  1  0  0  0  0  0  0  0  0  0
  185.1130  176.4750  134.7250 N   0  0  0  0  0  0  0  0  0  0  0  0
  186.5360  174.8470  136.1100 C   0  0  0  0  0  0  0  0  0  0  0  0
  186.4230  174.3930  137.3590 C   0  0  0  0  0  2  0  0  0  0  0  0
  187.2750  173.7830  134.8690 S   0  0  0  0  0  1  0  0  0  0  0  0
  183.9610  179.4260  139.7510 C   0  0  0  0  0  2  0  0  0  0  0  0
  181.5100  180.3580  138.3540 C   0  0  0  0  0  1  0  0  0  0  0  0
  182.8160  178.5070  139.4850 C   0  0  0  0  0  0  0  0  0  0  0  0
  181.6490  178.9530  138.8330 C   0  0  0  0  0  0  0  0  0  0  0  0
  180.6800  176.7410  139.0660 C   0  0  0  0  0  3  0  0  0  0  0  0
  181.8340  176.3010  139.7190 C   0  0  0  0  0  3  0  0  0  0  0  0
  182.8970  177.1830  139.9300 C   0  0  0  0  0  3  0  0  0  0  0  0
  180.5880  178.0640  138.6250 C   0  0  0  0  0  3  0  0  0  0  0  0
  1 11  2  0  0  0  0
  1  8  1  0  0  0  0
  2  6  1  0  0  0  0
  2 14  1  0  0  0  0
  3  8  1  0  0  0  0
  3 18  1  0  0  0  0
  4 18  1  0  0  0  0
  4 17  1  0  0  0  0
  5  6  2  0  0  0  0
  7 14  2  0  0  0  0
  8  2  2  0  0  0  0
  9 17  1  0  0  0  0
  9 27  1  0  0  0  0
 11  5  1  0  0  0  0
 12  3  2  0  0  0  0
 13  1  1  0  0  0  0
 15  4  1  0  0  0  0
 16 22  1  0  0  0  0
 16 12  1  0  0  0  0
 16 15  1  1  0  0  0
 17 10  2  0  0  0  0
 18  7  1  1  0  0  0
 19 13  2  0  0  0  0
 19 12  1  0  0  0  0
 21 23  1  0  0  0  0
 22 24  1  1  0  0  0
 22 20  1  0  0  0  0
 23 22  1  0  0  0  0
 23 20  1  0  0  0  0
 24 25  2  0  0  0  0
 26 24  1  0  0  0  0
 28 30  1  0  0  0  0
 29 27  1  0  0  0  0
 29 33  1  0  0  0  0
 30 29  2  0  0  0  0
 31 32  1  0  0  0  0
 32 33  2  0  0  0  0
 34 30  1  0  0  0  0
 34 31  2  0  0  0  0
M  END
>  <MODEL>
5

>  <REMARK>
 VINA RESULT:      -6.8      5.108      8.514
  Name = 
  4 active torsions:
  status: ('A' for Active; 'I' for Inactive)
    1  A    between atoms: C_3  and  C_13
    2  A    between atoms: C_3  and  N_17
    3  A    between atoms: C_7  and  C_23
    4  A    between atoms: C_23  and  C_28
                            x       y       z     vdW  Elec       q    Type
                         _______ _______ _______ _____ _____    ______ ____

>  <TORSDO>
F 4

$$$$
=
 OpenBabel10272400073D

 34 39  0  0  1  0  0  0  0  0999 V2000
  190.4350  177.3910  139.6460 C   0  0  0  0  0  0  0  0  0  0  0  0
  188.8540  177.8890  141.4390 C   0  0  0  0  0  0  0  0  0  0  0  0
  188.0850  177.7870  139.1300 C   0  0  0  0  0  0  0  0  0  0  0  0
  185.7320  178.4520  138.6200 N   0  0  0  0  0  0  0  0  0  0  0  0
  191.1790  177.4280  141.9510 C   0  0  0  0  0  3  0  0  0  0  0  0
  189.8870  177.7630  142.3730 C   0  0  0  0  0  3  0  0  0  0  0  0
  186.5110  178.4250  140.9890 C   0  0  0  0  0  3  0  0  0  0  0  0
  189.1190  177.6720  140.0740 C   0  0  0  0  0  0  0  0  0  0  0  0
  183.4300  178.9580  137.8410 N   0  0  0  0  0  2  0  0  0  0  0  0
  183.8320  177.8840  139.8680 O   0  0  0  0  0  0  0  0  0  0  0  0
  191.4550  177.2510  140.5900 C   0  0  0  0  0  3  0  0  0  0  0  0
  188.3810  177.7280  137.7610 C   0  0  0  0  0  0  0  0  0  0  0  0
  190.7130  177.2820  138.2800 C   0  0  0  0  0  3  0  0  0  0  0  0
  187.5280  178.3840  141.8560 C   0  0  0  0  0  3  0  0  0  0  0  0
  186.2310  178.9240  137.3240 C   0  0  0  0  0  2  0  0  0  0  0  0
  187.3020  177.9850  136.7520 C   0  0  2  0  0  3  0  0  0  0  0  0
  184.3090  178.4160  138.8290 C   0  0  0  0  0  0  0  0  0  0  0  0
  186.6470  177.8430  139.6020 C   0  0  2  0  0  3  0  0  0  0  0  0
  189.6910  177.4660  137.3390 C   0  0  0  0  0  3  0  0  0  0  0  0
  185.8640  176.9180  134.9870 C   0  0  0  0  0  2  0  0  0  0  0  0
  187.1210  175.0560  134.3510 C   0  0  0  0  0  1  0  0  0  0  0  0
  186.7250  176.7010  136.1450 C   0  0  1  0  0  0  0  0  0  0  0  0
  187.2460  176.4460  134.7760 N   0  0  0  0  0  0  0  0  0  0  0  0
  186.4190  175.4940  137.0140 C   0  0  0  0  0  0  0  0  0  0  0  0
  187.4020  174.7080  137.4560 C   0  0  0  0  0  2  0  0  0  0  0  0
  184.7210  175.0250  137.3510 S   0  0  0  0  0  1  0  0  0  0  0  0
  181.9830  178.8880  137.9700 C   0  0  0  0  0  2  0  0  0  0  0  0
  180.5800  179.1800  135.3670 C   0  0  0  0  0  1  0  0  0  0  0  0
  181.3790  180.1860  137.5490 C   0  0  0  0  0  0  0  0  0  0  0  0
  180.7240  180.3270  136.3090 C   0  0  0  0  0  0  0  0  0  0  0  0
  180.3140  182.6680  136.7970 C   0  0  0  0  0  3  0  0  0  0  0  0
  180.9700  182.5300  138.0230 C   0  0  0  0  0  3  0  0  0  0  0  0
  181.5030  181.2930  138.3960 C   0  0  0  0  0  3  0  0  0  0  0  0
  180.1930  181.5680  135.9430 C   0  0  0  0  0  3  0  0  0  0  0  0
  1  8  1  0  0  0  0
  1 11  2  0  0  0  0
  2 14  1  0  0  0  0
  2  6  1  0  0  0  0
  3 18  1  0  0  0  0
  3  8  1  0  0  0  0
  4 17  1  0  0  0  0
  4 18  1  0  0  0  0
  5  6  2  0  0  0  0
  7 14  2  0  0  0  0
  8  2  2  0  0  0  0
  9 27  1  0  0  0  0
  9 17  1  0  0  0  0
 11  5  1  0  0  0  0
 12  3  2  0  0  0  0
 13  1  1  0  0  0  0
 15  4  1  0  0  0  0
 16 15  1  1  0  0  0
 16 12  1  0  0  0  0
 17 10  2  0  0  0  0
 18  7  1  1  0  0  0
 19 12  1  0  0  0  0
 19 13  2  0  0  0  0
 20 22  1  0  0  0  0
 21 23  1  0  0  0  0
 22 16  1  0  0  0  0
 22 24  1  1  0  0  0
 23 20  1  0  0  0  0
 23 22  1  0  0  0  0
 24 26  1  0  0  0  0
 24 25  2  0  0  0  0
 28 30  1  0  0  0  0
 29 27  1  0  0  0  0
 29 33  1  0  0  0  0
 30 29  2  0  0  0  0
 31 32  1  0  0  0  0
 32 33  2  0  0  0  0
 34 30  1  0  0  0  0
 34 31  2  0  0  0  0
M  END
>  <MODEL>
6

>  <REMARK>
 VINA RESULT:      -6.6      4.309      7.815
  Name = 
  4 active torsions:
  status: ('A' for Active; 'I' for Inactive)
    1  A    between atoms: C_3  and  C_13
    2  A    between atoms: C_3  and  N_17
    3  A    between atoms: C_7  and  C_23
    4  A    between atoms: C_23  and  C_28
                            x       y       z     vdW  Elec       q    Type
                         _______ _______ _______ _____ _____    ______ ____

>  <TORSDO>
F 4

$$$$
=
 OpenBabel10272400073D

 34 39  0  0  1  0  0  0  0  0999 V2000
  189.1630  178.0950  145.9120 C   0  0  0  0  0  0  0  0  0  0  0  0
  186.7490  177.7900  146.1060 C   0  0  0  0  0  0  0  0  0  0  0  0
  187.7500  178.2280  143.9290 C   0  0  0  0  0  0  0  0  0  0  0  0
  186.2460  178.6140  141.9730 N   0  0  0  0  0  0  0  0  0  0  0  0
  188.1670  177.5920  148.0620 C   0  0  0  0  0  3  0  0  0  0  0  0
  186.8950  177.5750  147.4790 C   0  0  0  0  0  3  0  0  0  0  0  0
  185.2530  178.0380  144.1870 C   0  0  0  0  0  3  0  0  0  0  0  0
  187.8880  178.0200  145.3120 C   0  0  0  0  0  0  0  0  0  0  0  0
  185.0010  178.9340  139.8480 N   0  0  0  0  0  2  0  0  0  0  0  0
  184.3030  177.4060  141.4620 O   0  0  0  0  0  0  0  0  0  0  0  0
  189.2990  177.8600  147.2820 C   0  0  0  0  0  3  0  0  0  0  0  0
  188.8640  178.6130  143.1680 C   0  0  0  0  0  0  0  0  0  0  0  0
  190.2770  178.4290  145.1350 C   0  0  0  0  0  3  0  0  0  0  0  0
  185.4050  177.9190  145.5100 C   0  0  0  0  0  3  0  0  0  0  0  0
  187.2820  179.5130  141.4540 C   0  0  0  0  0  2  0  0  0  0  0  0
  188.6920  178.9660  141.7210 C   0  0  2  0  0  3  0  0  0  0  0  0
  185.1390  178.2850  141.1140 C   0  0  0  0  0  0  0  0  0  0  0  0
  186.4330  177.9090  143.2530 C   0  0  2  0  0  3  0  0  0  0  0  0
  190.1250  178.7030  143.7700 C   0  0  0  0  0  3  0  0  0  0  0  0
  187.9950  177.2880  139.9840 C   0  0  0  0  0  2  0  0  0  0  0  0
  189.7310  177.4020  138.4280 C   0  0  0  0  0  1  0  0  0  0  0  0
  189.0960  177.8330  140.7710 C   0  0  1  0  0  0  0  0  0  0  0  0
  188.9420  178.2190  139.3430 N   0  0  0  0  0  0  0  0  0  0  0  0
  190.2280  176.8840  141.1220 C   0  0  0  0  0  0  0  0  0  0  0  0
  189.9970  175.7880  141.8450 C   0  0  0  0  0  2  0  0  0  0  0  0
  191.9200  177.2880  140.6840 S   0  0  0  0  0  1  0  0  0  0  0  0
  183.9410  178.5930  138.9140 C   0  0  0  0  0  2  0  0  0  0  0  0
  181.4050  177.8660  140.2820 C   0  0  0  0  0  1  0  0  0  0  0  0
  182.8190  179.5670  139.0510 C   0  0  0  0  0  0  0  0  0  0  0  0
  181.6120  179.2180  139.6890 C   0  0  0  0  0  0  0  0  0  0  0  0
  180.7320  181.4300  139.2240 C   0  0  0  0  0  3  0  0  0  0  0  0
  181.9260  181.7740  138.5850 C   0  0  0  0  0  3  0  0  0  0  0  0
  182.9640  180.8440  138.4970 C   0  0  0  0  0  3  0  0  0  0  0  0
  180.5760  180.1550  139.7730 C   0  0  0  0  0  3  0  0  0  0  0  0
  1 11  2  0  0  0  0
  2  6  1  0  0  0  0
  3  8  1  0  0  0  0
  4 18  1  0  0  0  0
  6  5  2  0  0  0  0
  7 14  2  0  0  0  0
  8  1  1  0  0  0  0
  8  2  2  0  0  0  0
  9 17  1  0  0  0  0
 11  5  1  0  0  0  0
 12 19  1  0  0  0  0
 12  3  2  0  0  0  0
 13  1  1  0  0  0  0
 14  2  1  0  0  0  0
 15  4  1  0  0  0  0
 16 15  1  1  0  0  0
 16 12  1  0  0  0  0
 17 10  2  0  0  0  0
 17  4  1  0  0  0  0
 18  3  1  0  0  0  0
 18  7  1  1  0  0  0
 19 13  2  0  0  0  0
 20 22  1  0  0  0  0
 21 23  1  0  0  0  0
 22 24  1  1  0  0  0
 22 16  1  0  0  0  0
 23 20  1  0  0  0  0
 23 22  1  0  0  0  0
 24 25  2  0  0  0  0
 26 24  1  0  0  0  0
 27 29  1  0  0  0  0
 27  9  1  0  0  0  0
 29 30  1  0  0  0  0
 30 34  2  0  0  0  0
 30 28  1  0  0  0  0
 31 34  1  0  0  0  0
 32 31  2  0  0  0  0
 33 32  1  0  0  0  0
 33 29  2  0  0  0  0
M  END
>  <MODEL>
7

>  <REMARK>
 VINA RESULT:      -6.4      3.254      5.887
  Name = 
  4 active torsions:
  status: ('A' for Active; 'I' for Inactive)
    1  A    between atoms: C_3  and  C_13
    2  A    between atoms: C_3  and  N_17
    3  A    between atoms: C_7  and  C_23
    4  A    between atoms: C_23  and  C_28
                            x       y       z     vdW  Elec       q    Type
                         _______ _______ _______ _____ _____    ______ ____

>  <TORSDO>
F 4

$$$$
=
 OpenBabel10272400073D

 34 39  0  0  1  0  0  0  0  0999 V2000
  191.6320  177.2710  140.5170 C   0  0  0  0  0  0  0  0  0  0  0  0
  189.3750  177.8650  141.2360 C   0  0  0  0  0  0  0  0  0  0  0  0
  189.8010  177.2960  138.9060 C   0  0  0  0  0  0  0  0  0  0  0  0
  187.9580  177.5860  137.2450 N   0  0  0  0  0  0  0  0  0  0  0  0
  191.1870  177.7720  142.8450 C   0  0  0  0  0  3  0  0  0  0  0  0
  189.8420  178.0170  142.5450 C   0  0  0  0  0  3  0  0  0  0  0  0
  187.5160  178.0390  139.6570 C   0  0  0  0  0  3  0  0  0  0  0  0
  190.2640  177.4600  140.2230 C   0  0  0  0  0  0  0  0  0  0  0  0
  186.2920  177.6810  135.4070 N   0  0  0  0  0  2  0  0  0  0  0  0
  185.7090  177.0090  137.5590 O   0  0  0  0  0  0  0  0  0  0  0  0
  192.0830  177.4090  141.8320 C   0  0  0  0  0  3  0  0  0  0  0  0
  190.7160  177.0490  137.8720 C   0  0  0  0  0  0  0  0  0  0  0  0
  192.5290  176.9730  139.4870 C   0  0  0  0  0  3  0  0  0  0  0  0
  187.9980  178.2610  140.8850 C   0  0  0  0  0  3  0  0  0  0  0  0
  189.0020  177.8950  136.2610 C   0  0  0  0  0  2  0  0  0  0  0  0
  190.2410  177.0080  136.4500 C   0  0  2  0  0  3  0  0  0  0  0  0
  186.6100  177.4160  136.7750 C   0  0  0  0  0  0  0  0  0  0  0  0
  188.3110  177.2580  138.6380 C   0  0  2  0  0  3  0  0  0  0  0  0
  192.0740  176.8790  138.1650 C   0  0  0  0  0  3  0  0  0  0  0  0
  189.4320  175.5110  134.5990 C   0  0  0  0  0  2  0  0  0  0  0  0
  191.1230  173.9070  134.4550 C   0  0  0  0  0  1  0  0  0  0  0  0
  190.0560  175.5830  135.9160 C   0  0  1  0  0  0  0  0  0  0  0  0
  190.8910  175.3240  134.7130 N   0  0  0  0  0  0  0  0  0  0  0  0
  189.8090  174.4200  136.8600 C   0  0  0  0  0  0  0  0  0  0  0  0
  190.8170  173.8650  137.5340 C   0  0  0  0  0  2  0  0  0  0  0  0
  188.1790  173.6830  136.9860 S   0  0  0  0  0  1  0  0  0  0  0  0
  184.9610  177.4630  134.8640 C   0  0  0  0  0  2  0  0  0  0  0  0
  182.3650  176.3830  135.8240 C   0  0  0  0  0  1  0  0  0  0  0  0
  184.6640  176.0010  134.8350 C   0  0  0  0  0  0  0  0  0  0  0  0
  183.4370  175.4880  135.3010 C   0  0  0  0  0  0  0  0  0  0  0  0
  184.1930  173.2380  134.8020 C   0  0  0  0  0  3  0  0  0  0  0  0
  185.4120  173.7460  134.3460 C   0  0  0  0  0  3  0  0  0  0  0  0
  185.6470  175.1230  134.3660 C   0  0  0  0  0  3  0  0  0  0  0  0
  183.2090  174.1080  135.2790 C   0  0  0  0  0  3  0  0  0  0  0  0
  1 11  2  0  0  0  0
  2  6  1  0  0  0  0
  3  8  1  0  0  0  0
  4 18  1  0  0  0  0
  6  5  2  0  0  0  0
  7 14  2  0  0  0  0
  8  1  1  0  0  0  0
  8  2  2  0  0  0  0
  9 17  1  0  0  0  0
 11  5  1  0  0  0  0
 12 19  1  0  0  0  0
 12  3  2  0  0  0  0
 13  1  1  0  0  0  0
 14  2  1  0  0  0  0
 15  4  1  0  0  0  0
 16 15  1  1  0  0  0
 16 12  1  0  0  0  0
 17  4  1  0  0  0  0
 17 10  2  0  0  0  0
 18  3  1  0  0  0  0
 18  7  1  1  0  0  0
 19 13  2  0  0  0  0
 20 23  1  0  0  0  0
 20 22  1  0  0  0  0
 21 23  1  0  0  0  0
 22 16  1  0  0  0  0
 22 24  1  1  0  0  0
 23 22  1  0  0  0  0
 24 26  1  0  0  0  0
 24 25  2  0  0  0  0
 27  9  1  0  0  0  0
 29 27  1  0  0  0  0
 29 30  1  0  0  0  0
 30 28  1  0  0  0  0
 31 34  1  0  0  0  0
 32 33  1  0  0  0  0
 32 31  2  0  0  0  0
 33 29  2  0  0  0  0
 34 30  2  0  0  0  0
M  END
>  <MODEL>
8

>  <REMARK>
 VINA RESULT:      -6.4      3.842      7.278
  Name = 
  4 active torsions:
  status: ('A' for Active; 'I' for Inactive)
    1  A    between atoms: C_3  and  C_13
    2  A    between atoms: C_3  and  N_17
    3  A    between atoms: C_7  and  C_23
    4  A    between atoms: C_23  and  C_28
                            x       y       z     vdW  Elec       q    Type
                         _______ _______ _______ _____ _____    ______ ____

>  <TORSDO>
F 4

$$$$
=
 OpenBabel10272400073D

 34 39  0  0  1  0  0  0  0  0999 V2000
  187.0970  178.1480  145.9520 C   0  0  0  0  0  0  0  0  0  0  0  0
  185.2240  178.2340  144.3890 C   0  0  0  0  0  0  0  0  0  0  0  0
  187.5120  178.2740  143.5520 C   0  0  0  0  0  0  0  0  0  0  0  0
  187.8900  178.6650  141.1150 N   0  0  0  0  0  0  0  0  0  0  0  0
  184.8200  178.0400  146.7720 C   0  0  0  0  0  3  0  0  0  0  0  0
  184.3340  178.1510  145.4640 C   0  0  0  0  0  3  0  0  0  0  0  0
  185.5580  178.4920  141.9800 C   0  0  0  0  0  3  0  0  0  0  0  0
  186.6110  178.2010  144.6290 C   0  0  0  0  0  0  0  0  0  0  0  0
  188.5550  178.9330  138.7380 N   0  0  0  0  0  2  0  0  0  0  0  0
  186.6680  177.7160  139.3550 O   0  0  0  0  0  0  0  0  0  0  0  0
  186.1990  178.0480  147.0170 C   0  0  0  0  0  3  0  0  0  0  0  0
  188.8860  178.4010  143.8020 C   0  0  0  0  0  0  0  0  0  0  0  0
  188.4740  178.2220  146.1900 C   0  0  0  0  0  3  0  0  0  0  0  0
  184.7240  178.4980  143.0260 C   0  0  0  0  0  3  0  0  0  0  0  0
  189.1380  179.3340  141.4980 C   0  0  0  0  0  2  0  0  0  0  0  0
  189.8350  178.6140  142.6610 C   0  0  2  0  0  3  0  0  0  0  0  0
  187.6540  178.4150  139.7180 C   0  0  0  0  0  0  0  0  0  0  0  0
  187.0030  178.0850  142.1390 C   0  0  2  0  0  3  0  0  0  0  0  0
  189.3640  178.3650  145.1180 C   0  0  0  0  0  3  0  0  0  0  0  0
  190.5380  177.0780  140.8000 C   0  0  0  0  0  2  0  0  0  0  0  0
  192.7350  176.5370  141.3780 C   0  0  0  0  0  1  0  0  0  0  0  0
  190.5650  177.3360  142.2360 C   0  0  1  0  0  0  0  0  0  0  0  0
  191.7650  177.6270  141.4070 N   0  0  0  0  0  0  0  0  0  0  0  0
  190.6230  176.1270  143.1520 C   0  0  0  0  0  0  0  0  0  0  0  0
  189.8030  175.0930  142.9660 C   0  0  0  0  0  2  0  0  0  0  0  0
  191.7050  176.1240  144.5830 S   0  0  0  0  0  1  0  0  0  0  0  0
  188.4000  178.6560  137.3200 C   0  0  0  0  0  2  0  0  0  0  0  0
  186.8820  176.4260  136.0740 C   0  0  0  0  0  1  0  0  0  0  0  0
  189.0520  177.3550  136.9880 C   0  0  0  0  0  0  0  0  0  0  0  0
  188.3290  176.2940  136.4080 C   0  0  0  0  0  0  0  0  0  0  0  0
  190.3270  174.9190  136.4430 C   0  0  0  0  0  3  0  0  0  0  0  0
  191.0430  175.9690  137.0250 C   0  0  0  0  0  3  0  0  0  0  0  0
  190.4060  177.1820  137.2990 C   0  0  0  0  0  3  0  0  0  0  0  0
  188.9740  175.0820  136.1370 C   0  0  0  0  0  3  0  0  0  0  0  0
  1 13  1  0  0  0  0
  1 11  2  0  0  0  0
  2  8  2  0  0  0  0
  2  6  1  0  0  0  0
  3 12  2  0  0  0  0
  3  8  1  0  0  0  0
  4 15  1  0  0  0  0
  4 18  1  0  0  0  0
  5 11  1  0  0  0  0
  6  5  2  0  0  0  0
  7 14  2  0  0  0  0
  8  1  1  0  0  0  0
  9 17  1  0  0  0  0
 10 17  2  0  0  0  0
 12 19  1  0  0  0  0
 14  2  1  0  0  0  0
 16 15  1  6  0  0  0
 16 12  1  0  0  0  0
 17  4  1  0  0  0  0
 18  7  1  1  0  0  0
 18  3  1  0  0  0  0
 19 13  2  0  0  0  0
 20 23  1  0  0  0  0
 20 22  1  0  0  0  0
 21 23  1  0  0  0  0
 22 16  1  0  0  0  0
 22 24  1  1  0  0  0
 23 22  1  0  0  0  0
 24 26  1  0  0  0  0
 25 24  2  0  0  0  0
 27  9  1  0  0  0  0
 28 30  1  0  0  0  0
 29 33  1  0  0  0  0
 29 27  1  0  0  0  0
 30 29  2  0  0  0  0
 31 32  1  0  0  0  0
 32 33  2  0  0  0  0
 34 30  1  0  0  0  0
 34 31  2  0  0  0  0
M  END
>  <MODEL>
9

>  <REMARK>
 VINA RESULT:      -6.3      2.313      4.367
  Name = 
  4 active torsions:
  status: ('A' for Active; 'I' for Inactive)
    1  A    between atoms: C_3  and  C_13
    2  A    between atoms: C_3  and  N_17
    3  A    between atoms: C_7  and  C_23
    4  A    between atoms: C_23  and  C_28
                            x       y       z     vdW  Elec       q    Type
                         _______ _______ _______ _____ _____    ______ ____

>  <TORSDO>
F 4

$$$$
