=
 OpenBabel10272415103D

 34 38  0  0  1  0  0  0  0  0999 V2000
  187.7600  177.7170  144.7020 C   0  0  0  0  0  0  0  0  0  0  0  0
  190.8580  177.1790  145.5190 N   0  0  0  0  0  1  0  0  0  0  0  0
  186.2820  178.3120  147.0960 C   0  0  0  0  0  3  0  0  0  0  0  0
  186.4140  177.6780  144.7330 C   0  0  0  0  0  3  0  0  0  0  0  0
  187.7340  178.1920  147.1230 C   0  0  1  0  0  3  0  0  0  0  0  0
  188.3880  177.5430  148.0720 C   0  0  0  0  0  2  0  0  0  0  0  0
  185.6440  178.0690  145.9420 C   0  0  0  0  0  0  0  0  0  0  0  0
  189.7000  177.4240  146.3160 C   0  0  0  0  0  0  0  0  0  0  0  0
  188.5450  178.2760  145.8790 C   0  0  1  0  0  3  0  0  0  0  0  0
  189.6470  177.1030  147.5710 N   0  0  0  0  0  0  0  0  0  0  0  0
  190.0660  175.6870  142.5650 C   0  0  0  0  0  3  0  0  0  0  0  0
  190.8600  176.6820  141.7730 C   0  0  0  0  0  2  0  0  0  0  0  0
  190.0170  177.3950  140.7490 C   0  0  0  0  0  0  0  0  0  0  0  0
  188.9550  178.1250  141.0980 C   0  0  0  0  0  3  0  0  0  0  0  0
  189.0300  176.0140  143.3370 C   0  0  0  0  0  3  0  0  0  0  0  0
  188.3890  178.2540  142.4570 C   0  0  0  0  0  3  0  0  0  0  0  0
  188.4530  177.3730  143.4590 C   0  0  0  0  0  0  0  0  0  0  0  0
  190.3800  177.3900  139.3970 O   0  0  0  0  0  0  0  0  0  0  0  0
  189.3300  178.3100  137.4090 C   0  0  0  0  0  1  0  0  0  0  0  0
  189.4530  177.1220  138.3490 C   0  0  0  0  0  2  0  0  0  0  0  0
  184.2200  178.2610  145.8380 N   0  0  0  0  0  2  0  0  0  0  0  0
  181.7320  179.1820  143.1650 C   0  0  0  0  0  2  0  0  0  0  0  0
  184.5360  179.4700  143.7040 C   0  0  0  0  0  2  0  0  0  0  0  0
  183.2820  178.5710  139.7680 N   0  0  0  0  0  0  0  0  0  0  0  0
  182.8960  178.2190  138.4310 C   0  0  0  0  0  0  0  0  0  0  0  0
  182.2820  179.0570  140.7160 C   0  0  0  0  0  2  0  0  0  0  0  0
  183.3060  177.1410  137.9200 O   0  0  0  0  0  0  0  0  0  0  0  0
  182.6780  178.6200  142.1190 C   0  0  1  0  0  3  0  0  0  0  0  0
  182.0490  179.1430  137.6210 C   0  0  0  0  0  1  0  0  0  0  0  0
  185.0550  178.8060  141.3750 C   0  0  0  0  0  3  0  0  0  0  0  0
  184.0710  178.9990  142.3960 N   0  0  0  0  0  0  0  0  0  0  0  0
  184.6760  178.5770  140.1200 C   0  0  0  0  0  3  0  0  0  0  0  0
  183.5790  179.1620  144.8740 C   0  0  1  0  0  3  0  0  0  0  0  0
  182.1810  178.6500  144.5110 C   0  0  0  0  0  2  0  0  0  0  0  0
  1  4  2  0  0  0  0
  2  8  1  0  0  0  0
  4  7  1  0  0  0  0
  5  3  1  6  0  0  0
  5  6  1  0  0  0  0
  7  3  2  0  0  0  0
  8 10  2  0  0  0  0
  9  1  1  6  0  0  0
  9  8  1  0  0  0  0
  9  5  1  0  0  0  0
 10  6  1  0  0  0  0
 11 15  2  0  0  0  0
 12 11  1  0  0  0  0
 13 14  2  0  0  0  0
 13 12  1  0  0  0  0
 14 16  1  0  0  0  0
 15 17  1  0  0  0  0
 16 17  2  0  0  0  0
 17  1  1  0  0  0  0
 18 13  1  0  0  0  0
 19 20  1  0  0  0  0
 20 18  1  0  0  0  0
 21  7  1  0  0  0  0
 22 34  1  0  0  0  0
 23 33  1  0  0  0  0
 24 32  1  0  0  0  0
 24 26  1  0  0  0  0
 25 24  1  0  0  0  0
 27 25  2  0  0  0  0
 28 26  1  6  0  0  0
 28 31  1  0  0  0  0
 28 22  1  0  0  0  0
 29 25  1  0  0  0  0
 30 31  1  0  0  0  0
 31 23  1  0  0  0  0
 32 30  2  0  0  0  0
 33 21  1  1  0  0  0
 34 33  1  0  0  0  0
M  END
>  <MODEL>
1

>  <REMARK>
 VINA RESULT:      -9.6      0.000      0.000
  Name = 
  5 active torsions:
  status: ('A' for Active; 'I' for Inactive)
    1  A    between atoms: C_1  and  C_34
    2  A    between atoms: O_3  and  C_24
    3  A    between atoms: O_3  and  C_25
    4  A    between atoms: C_17  and  N_18
    5  A    between atoms: N_18  and  C_30
                            x       y       z     vdW  Elec       q    Type
                         _______ _______ _______ _____ _____    ______ ____

>  <TORSDO>
F 5

$$$$
=
 OpenBabel10272415103D

 34 38  0  0  1  0  0  0  0  0999 V2000
  189.2500  177.3380  140.8250 C   0  0  0  0  0  0  0  0  0  0  0  0
  186.5620  178.9880  141.6060 N   0  0  0  0  0  1  0  0  0  0  0  0
  189.4470  177.2320  137.9570 C   0  0  0  0  0  3  0  0  0  0  0  0
  190.0700  176.4710  140.2020 C   0  0  0  0  0  3  0  0  0  0  0  0
  188.4330  178.0530  138.6090 C   0  0  1  0  0  3  0  0  0  0  0  0
  187.1770  178.1100  138.2000 C   0  0  0  0  0  2  0  0  0  0  0  0
  190.2400  176.4720  138.7250 C   0  0  0  0  0  0  0  0  0  0  0  0
  187.0820  178.5720  140.3430 C   0  0  0  0  0  0  0  0  0  0  0  0
  188.5450  178.4350  140.0420 C   0  0  1  0  0  3  0  0  0  0  0  0
  186.3360  178.4840  139.2870 N   0  0  0  0  0  0  0  0  0  0  0  0
  187.6980  176.4780  144.1200 C   0  0  0  0  0  3  0  0  0  0  0  0
  187.8230  177.7160  144.9580 C   0  0  0  0  0  2  0  0  0  0  0  0
  189.2520  178.0010  145.3400 C   0  0  0  0  0  0  0  0  0  0  0  0
  190.1970  178.2090  144.4200 C   0  0  0  0  0  3  0  0  0  0  0  0
  188.2670  176.3350  142.9230 C   0  0  0  0  0  3  0  0  0  0  0  0
  190.0370  178.0880  142.9560 C   0  0  0  0  0  3  0  0  0  0  0  0
  189.1730  177.3190  142.2870 C   0  0  0  0  0  0  0  0  0  0  0  0
  189.6160  178.1480  146.6840 O   0  0  0  0  0  0  0  0  0  0  0  0
  188.2630  178.0520  148.7000 C   0  0  0  0  0  1  0  0  0  0  0  0
  189.1330  177.2900  147.7140 C   0  0  0  0  0  2  0  0  0  0  0  0
  191.3160  175.7130  138.1400 N   0  0  0  0  0  2  0  0  0  0  0  0
  194.2450  176.1480  135.8140 C   0  0  0  0  0  2  0  0  0  0  0  0
  193.7400  175.8240  138.6190 C   0  0  0  0  0  2  0  0  0  0  0  0
  197.0300  173.8180  136.8790 N   0  0  0  0  0  0  0  0  0  0  0  0
  198.1270  173.0840  136.3130 C   0  0  0  0  0  0  0  0  0  0  0  0
  196.4070  174.9030  136.1250 C   0  0  0  0  0  2  0  0  0  0  0  0
  198.1380  171.8250  136.3710 O   0  0  0  0  0  0  0  0  0  0  0  0
  194.9300  174.9720  136.4870 C   0  0  1  0  0  3  0  0  0  0  0  0
  199.2790  173.8060  135.6980 C   0  0  0  0  0  1  0  0  0  0  0  0
  195.5750  174.1660  138.7610 C   0  0  0  0  0  3  0  0  0  0  0  0
  194.7660  175.0200  137.9480 N   0  0  0  0  0  0  0  0  0  0  0  0
  196.6460  173.5710  138.2430 C   0  0  0  0  0  3  0  0  0  0  0  0
  192.5910  176.2930  137.7030 C   0  0  1  0  0  3  0  0  0  0  0  0
  192.7800  176.0950  136.1960 C   0  0  0  0  0  2  0  0  0  0  0  0
  1 17  1  0  0  0  0
  3  7  2  0  0  0  0
  4  1  2  0  0  0  0
  5  3  1  1  0  0  0
  5  9  1  0  0  0  0
  6  5  1  0  0  0  0
  6 10  1  0  0  0  0
  7  4  1  0  0  0  0
  8  2  1  0  0  0  0
  9  8  1  1  0  0  0
  9  1  1  0  0  0  0
 10  8  2  0  0  0  0
 11 12  1  0  0  0  0
 12 13  1  0  0  0  0
 13 18  1  0  0  0  0
 14 13  2  0  0  0  0
 15 11  2  0  0  0  0
 16 14  1  0  0  0  0
 17 15  1  0  0  0  0
 17 16  2  0  0  0  0
 18 20  1  0  0  0  0
 20 19  1  0  0  0  0
 21  7  1  0  0  0  0
 22 34  1  0  0  0  0
 24 32  1  0  0  0  0
 25 27  2  0  0  0  0
 25 24  1  0  0  0  0
 26 28  1  0  0  0  0
 26 24  1  0  0  0  0
 28 22  1  6  0  0  0
 28 31  1  0  0  0  0
 29 25  1  0  0  0  0
 31 23  1  0  0  0  0
 31 30  1  0  0  0  0
 32 30  2  0  0  0  0
 33 21  1  1  0  0  0
 33 23  1  0  0  0  0
 34 33  1  0  0  0  0
M  END
>  <MODEL>
2

>  <REMARK>
 VINA RESULT:      -9.3      5.246     10.400
  Name = 
  5 active torsions:
  status: ('A' for Active; 'I' for Inactive)
    1  A    between atoms: C_1  and  C_34
    2  A    between atoms: O_3  and  C_24
    3  A    between atoms: O_3  and  C_25
    4  A    between atoms: C_17  and  N_18
    5  A    between atoms: N_18  and  C_30
                            x       y       z     vdW  Elec       q    Type
                         _______ _______ _______ _____ _____    ______ ____

>  <TORSDO>
F 5

$$$$
=
 OpenBabel10272415103D

 34 38  0  0  1  0  0  0  0  0999 V2000
  186.4890  178.1760  144.0710 C   0  0  0  0  0  0  0  0  0  0  0  0
  185.8520  178.6480  147.2210 N   0  0  0  0  0  1  0  0  0  0  0  0
  184.1770  178.9650  142.5510 C   0  0  0  0  0  3  0  0  0  0  0  0
  186.3280  177.8120  142.7840 C   0  0  0  0  0  3  0  0  0  0  0  0
  184.2550  179.2210  143.9840 C   0  0  1  0  0  3  0  0  0  0  0  0
  183.2430  179.0150  144.8100 C   0  0  0  0  0  2  0  0  0  0  0  0
  185.1790  178.2890  141.9700 C   0  0  0  0  0  0  0  0  0  0  0  0
  185.0330  178.7890  146.0610 C   0  0  0  0  0  0  0  0  0  0  0  0
  185.5520  179.1890  144.7110 C   0  0  1  0  0  3  0  0  0  0  0  0
  183.7390  178.7900  146.1280 N   0  0  0  0  0  0  0  0  0  0  0  0
  188.3220  176.8180  147.0370 C   0  0  0  0  0  3  0  0  0  0  0  0
  189.5830  177.6230  147.1330 C   0  0  0  0  0  2  0  0  0  0  0  0
  190.5340  177.3270  146.0040 C   0  0  0  0  0  0  0  0  0  0  0  0
  190.1930  177.5240  144.7280 C   0  0  0  0  0  3  0  0  0  0  0  0
  187.4680  176.9000  146.0170 C   0  0  0  0  0  3  0  0  0  0  0  0
  188.8630  177.9310  144.2290 C   0  0  0  0  0  3  0  0  0  0  0  0
  187.6730  177.7140  144.7970 C   0  0  0  0  0  0  0  0  0  0  0  0
  191.8470  176.9200  146.2650 O   0  0  0  0  0  0  0  0  0  0  0  0
  192.7310  175.7790  148.2200 C   0  0  0  0  0  1  0  0  0  0  0  0
  192.1670  175.6450  146.8150 C   0  0  0  0  0  2  0  0  0  0  0  0
  185.1960  178.0890  140.5430 N   0  0  0  0  0  2  0  0  0  0  0  0
  187.4030  178.0800  137.4920 C   0  0  0  0  0  2  0  0  0  0  0  0
  187.6170  178.5420  140.3150 C   0  0  0  0  0  2  0  0  0  0  0  0
  190.6890  176.4080  138.3450 N   0  0  0  0  0  0  0  0  0  0  0  0
  191.7260  175.6390  137.7180 C   0  0  0  0  0  0  0  0  0  0  0  0
  189.7460  177.1700  137.5290 C   0  0  0  0  0  2  0  0  0  0  0  0
  191.9480  174.4560  138.0950 O   0  0  0  0  0  0  0  0  0  0  0  0
  188.4010  177.2140  138.2400 C   0  0  1  0  0  3  0  0  0  0  0  0
  192.5770  176.2460  136.6540 C   0  0  0  0  0  1  0  0  0  0  0  0
  189.6710  177.1610  140.3890 C   0  0  0  0  0  3  0  0  0  0  0  0
  188.5730  177.6690  139.6270 N   0  0  0  0  0  0  0  0  0  0  0  0
  190.6740  176.5360  139.7770 C   0  0  0  0  0  3  0  0  0  0  0  0
  186.2280  178.6240  139.6490 C   0  0  1  0  0  3  0  0  0  0  0  0
  186.0920  178.0150  138.2490 C   0  0  0  0  0  2  0  0  0  0  0  0
  1 17  1  0  0  0  0
  4  1  2  0  0  0  0
  5  3  1  6  0  0  0
  5  9  1  0  0  0  0
  5  6  1  0  0  0  0
  6 10  1  0  0  0  0
  7  3  2  0  0  0  0
  7  4  1  0  0  0  0
  8 10  2  0  0  0  0
  8  2  1  0  0  0  0
  9  1  1  6  0  0  0
  9  8  1  0  0  0  0
 11 12  1  0  0  0  0
 13 18  1  0  0  0  0
 13 12  1  0  0  0  0
 14 13  2  0  0  0  0
 15 11  2  0  0  0  0
 16 14  1  0  0  0  0
 16 17  2  0  0  0  0
 17 15  1  0  0  0  0
 18 20  1  0  0  0  0
 20 19  1  0  0  0  0
 21  7  1  0  0  0  0
 22 34  1  0  0  0  0
 24 32  1  0  0  0  0
 25 27  2  0  0  0  0
 25 24  1  0  0  0  0
 26 28  1  0  0  0  0
 26 24  1  0  0  0  0
 28 22  1  6  0  0  0
 28 31  1  0  0  0  0
 29 25  1  0  0  0  0
 31 23  1  0  0  0  0
 31 30  1  0  0  0  0
 32 30  2  0  0  0  0
 33 23  1  0  0  0  0
 33 21  1  1  0  0  0
 34 33  1  0  0  0  0
M  END
>  <MODEL>
3

>  <REMARK>
 VINA RESULT:      -9.2      2.646      6.334
  Name = 
  5 active torsions:
  status: ('A' for Active; 'I' for Inactive)
    1  A    between atoms: C_1  and  C_34
    2  A    between atoms: O_3  and  C_24
    3  A    between atoms: O_3  and  C_25
    4  A    between atoms: C_17  and  N_18
    5  A    between atoms: N_18  and  C_30
                            x       y       z     vdW  Elec       q    Type
                         _______ _______ _______ _____ _____    ______ ____

>  <TORSDO>
F 5

$$$$
=
 OpenBabel10272415103D

 34 38  0  0  1  0  0  0  0  0999 V2000
  187.2360  178.0660  144.7050 C   0  0  0  0  0  0  0  0  0  0  0  0
  185.0380  178.3580  147.0790 N   0  0  0  0  0  1  0  0  0  0  0  0
  189.7630  177.3740  145.8910 C   0  0  0  0  0  3  0  0  0  0  0  0
  188.3930  178.1810  144.0260 C   0  0  0  0  0  3  0  0  0  0  0  0
  188.5450  177.4060  146.6900 C   0  0  1  0  0  3  0  0  0  0  0  0
  188.4880  177.9400  147.8990 C   0  0  0  0  0  2  0  0  0  0  0  0
  189.6910  177.7430  144.6040 C   0  0  0  0  0  0  0  0  0  0  0  0
  186.4440  178.1190  147.1190 C   0  0  0  0  0  0  0  0  0  0  0  0
  187.1980  177.3730  146.0580 C   0  0  1  0  0  3  0  0  0  0  0  0
  187.1510  178.3440  148.1810 N   0  0  0  0  0  0  0  0  0  0  0  0
  184.0100  179.9430  144.4390 C   0  0  0  0  0  3  0  0  0  0  0  0
  183.0120  178.9530  143.9160 C   0  0  0  0  0  2  0  0  0  0  0  0
  183.2830  178.5760  142.4830 C   0  0  0  0  0  0  0  0  0  0  0  0
  184.4340  178.0100  142.1120 C   0  0  0  0  0  3  0  0  0  0  0  0
  185.3160  179.6960  144.5310 C   0  0  0  0  0  3  0  0  0  0  0  0
  185.6140  177.7770  142.9710 C   0  0  0  0  0  3  0  0  0  0  0  0
  185.9880  178.4660  144.0530 C   0  0  0  0  0  0  0  0  0  0  0  0
  182.2920  178.7240  141.5060 O   0  0  0  0  0  0  0  0  0  0  0  0
  179.9880  177.9790  141.7090 C   0  0  0  0  0  1  0  0  0  0  0  0
  180.9630  179.1400  141.8090 C   0  0  0  0  0  2  0  0  0  0  0  0
  190.8450  177.6420  143.7470 N   0  0  0  0  0  2  0  0  0  0  0  0
  191.6030  177.1130  140.0970 C   0  0  0  0  0  2  0  0  0  0  0  0
  189.4490  176.6860  141.9440 C   0  0  0  0  0  2  0  0  0  0  0  0
  188.5720  178.0810  138.0500 N   0  0  0  0  0  0  0  0  0  0  0  0
  188.2410  178.5990  136.7530 C   0  0  0  0  0  0  0  0  0  0  0  0
  189.8950  177.5120  138.2970 C   0  0  0  0  0  2  0  0  0  0  0  0
  187.6690  179.7180  136.6490 O   0  0  0  0  0  0  0  0  0  0  0  0
  190.2800  177.7690  139.7470 C   0  0  1  0  0  3  0  0  0  0  0  0
  188.5270  177.8000  135.5250 C   0  0  0  0  0  1  0  0  0  0  0  0
  187.8480  177.6080  140.2940 C   0  0  0  0  0  3  0  0  0  0  0  0
  189.2050  177.3220  140.6450 N   0  0  0  0  0  0  0  0  0  0  0  0
  187.5480  177.9940  139.0560 C   0  0  0  0  0  3  0  0  0  0  0  0
  190.8770  176.8800  142.4940 C   0  0  1  0  0  3  0  0  0  0  0  0
  191.9170  177.4700  141.5360 C   0  0  0  0  0  2  0  0  0  0  0  0
  2  8  1  0  0  0  0
  4  7  1  0  0  0  0
  4  1  2  0  0  0  0
  5  3  1  6  0  0  0
  5  6  1  0  0  0  0
  6 10  1  0  0  0  0
  7  3  2  0  0  0  0
  8 10  2  0  0  0  0
  9  1  1  6  0  0  0
  9  5  1  0  0  0  0
  9  8  1  0  0  0  0
 11 15  2  0  0  0  0
 12 11  1  0  0  0  0
 13 12  1  0  0  0  0
 14 13  2  0  0  0  0
 14 16  1  0  0  0  0
 16 17  2  0  0  0  0
 17 15  1  0  0  0  0
 17  1  1  0  0  0  0
 18 20  1  0  0  0  0
 18 13  1  0  0  0  0
 19 20  1  0  0  0  0
 21  7  1  0  0  0  0
 22 34  1  0  0  0  0
 23 33  1  0  0  0  0
 24 26  1  0  0  0  0
 24 32  1  0  0  0  0
 25 24  1  0  0  0  0
 27 25  2  0  0  0  0
 28 26  1  6  0  0  0
 28 22  1  0  0  0  0
 28 31  1  0  0  0  0
 29 25  1  0  0  0  0
 30 31  1  0  0  0  0
 31 23  1  0  0  0  0
 32 30  2  0  0  0  0
 33 21  1  1  0  0  0
 34 33  1  0  0  0  0
M  END
>  <MODEL>
4

>  <REMARK>
 VINA RESULT:      -9.2      2.265      6.173
  Name = 
  5 active torsions:
  status: ('A' for Active; 'I' for Inactive)
    1  A    between atoms: C_1  and  C_34
    2  A    between atoms: O_3  and  C_24
    3  A    between atoms: O_3  and  C_25
    4  A    between atoms: C_17  and  N_18
    5  A    between atoms: N_18  and  C_30
                            x       y       z     vdW  Elec       q    Type
                         _______ _______ _______ _____ _____    ______ ____

>  <TORSDO>
F 5

$$$$
=
 OpenBabel10272415103D

 34 38  0  0  1  0  0  0  0  0999 V2000
  187.9360  177.8730  145.1200 C   0  0  0  0  0  0  0  0  0  0  0  0
  190.5210  176.9350  146.8500 N   0  0  0  0  0  1  0  0  0  0  0  0
  185.7850  178.4420  146.9420 C   0  0  0  0  0  3  0  0  0  0  0  0
  186.6610  177.9800  144.7010 C   0  0  0  0  0  3  0  0  0  0  0  0
  187.1280  178.1600  147.4340 C   0  0  1  0  0  3  0  0  0  0  0  0
  187.3690  177.3730  148.4680 C   0  0  0  0  0  2  0  0  0  0  0  0
  185.5600  178.3600  145.6230 C   0  0  0  0  0  0  0  0  0  0  0  0
  189.1840  177.2440  147.2420 C   0  0  0  0  0  0  0  0  0  0  0  0
  188.3170  178.2490  146.5440 C   0  0  1  0  0  3  0  0  0  0  0  0
  188.6850  176.8360  148.3660 N   0  0  0  0  0  0  0  0  0  0  0  0
  189.9790  175.5750  142.9880 C   0  0  0  0  0  3  0  0  0  0  0  0
  191.3940  176.0540  143.1220 C   0  0  0  0  0  2  0  0  0  0  0  0
  191.6080  177.3870  142.4540 C   0  0  0  0  0  0  0  0  0  0  0  0
  190.9260  178.4740  142.8210 C   0  0  0  0  0  3  0  0  0  0  0  0
  188.9280  176.2270  143.4820 C   0  0  0  0  0  3  0  0  0  0  0  0
  189.8270  178.5280  143.8080 C   0  0  0  0  0  3  0  0  0  0  0  0
  188.9800  177.5500  144.1460 C   0  0  0  0  0  0  0  0  0  0  0  0
  192.6020  177.5470  141.4820 O   0  0  0  0  0  0  0  0  0  0  0  0
  190.9750  176.7620  139.8580 C   0  0  0  0  0  1  0  0  0  0  0  0
  192.3820  177.2820  140.1000 C   0  0  0  0  0  2  0  0  0  0  0  0
  184.2740  178.7160  145.0770 N   0  0  0  0  0  2  0  0  0  0  0  0
  183.3560  178.7430  141.4250 C   0  0  0  0  0  2  0  0  0  0  0  0
  185.4410  179.7160  143.1390 C   0  0  0  0  0  2  0  0  0  0  0  0
  186.4650  178.1170  139.3610 N   0  0  0  0  0  0  0  0  0  0  0  0
  186.8530  177.5380  138.1060 C   0  0  0  0  0  0  0  0  0  0  0  0
  185.0680  178.4690  139.6050 C   0  0  0  0  0  2  0  0  0  0  0  0
  187.6110  176.5300  138.0850 O   0  0  0  0  0  0  0  0  0  0  0  0
  184.7660  178.2940  141.0870 C   0  0  1  0  0  3  0  0  0  0  0  0
  186.4040  178.1500  136.8220 C   0  0  0  0  0  1  0  0  0  0  0  0
  187.1430  178.9260  141.5210 C   0  0  0  0  0  3  0  0  0  0  0  0
  185.7650  179.0070  141.8970 N   0  0  0  0  0  0  0  0  0  0  0  0
  187.4790  178.4780  140.3150 C   0  0  0  0  0  3  0  0  0  0  0  0
  184.0820  179.3330  143.7600 C   0  0  1  0  0  3  0  0  0  0  0  0
  183.1410  178.4810  142.9020 C   0  0  0  0  0  2  0  0  0  0  0  0
  2  8  1  0  0  0  0
  4  1  2  0  0  0  0
  4  7  1  0  0  0  0
  5  3  1  6  0  0  0
  5  6  1  0  0  0  0
  7  3  2  0  0  0  0
  8 10  2  0  0  0  0
  9  1  1  6  0  0  0
  9  8  1  0  0  0  0
  9  5  1  0  0  0  0
 10  6  1  0  0  0  0
 11 12  1  0  0  0  0
 11 15  2  0  0  0  0
 13 14  2  0  0  0  0
 13 12  1  0  0  0  0
 14 16  1  0  0  0  0
 15 17  1  0  0  0  0
 16 17  2  0  0  0  0
 17  1  1  0  0  0  0
 18 13  1  0  0  0  0
 19 20  1  0  0  0  0
 20 18  1  0  0  0  0
 21  7  1  0  0  0  0
 22 34  1  0  0  0  0
 23 33  1  0  0  0  0
 24 26  1  0  0  0  0
 24 32  1  0  0  0  0
 25 24  1  0  0  0  0
 27 25  2  0  0  0  0
 28 26  1  6  0  0  0
 28 22  1  0  0  0  0
 28 31  1  0  0  0  0
 29 25  1  0  0  0  0
 30 31  1  0  0  0  0
 31 23  1  0  0  0  0
 32 30  2  0  0  0  0
 33 21  1  1  0  0  0
 34 33  1  0  0  0  0
M  END
>  <MODEL>
5

>  <REMARK>
 VINA RESULT:      -8.7      1.745      2.231
  Name = 
  5 active torsions:
  status: ('A' for Active; 'I' for Inactive)
    1  A    between atoms: C_1  and  C_34
    2  A    between atoms: O_3  and  C_24
    3  A    between atoms: O_3  and  C_25
    4  A    between atoms: C_17  and  N_18
    5  A    between atoms: N_18  and  C_30
                            x       y       z     vdW  Elec       q    Type
                         _______ _______ _______ _____ _____    ______ ____

>  <TORSDO>
F 5

$$$$
=
 OpenBabel10272415103D

 34 38  0  0  1  0  0  0  0  0999 V2000
  186.2460  178.1450  143.7150 C   0  0  0  0  0  0  0  0  0  0  0  0
  188.7050  177.6620  145.7820 N   0  0  0  0  0  1  0  0  0  0  0  0
  183.9530  179.0100  145.2210 C   0  0  0  0  0  3  0  0  0  0  0  0
  185.0050  178.1240  143.1920 C   0  0  0  0  0  3  0  0  0  0  0  0
  185.2600  178.8770  145.8550 C   0  0  1  0  0  3  0  0  0  0  0  0
  185.4320  178.3270  147.0450 C   0  0  0  0  0  2  0  0  0  0  0  0
  183.8310  178.6510  143.9350 C   0  0  0  0  0  0  0  0  0  0  0  0
  187.3380  178.0040  146.0050 C   0  0  0  0  0  0  0  0  0  0  0  0
  186.5110  178.8170  145.0530 C   0  0  1  0  0  3  0  0  0  0  0  0
  186.7600  177.8200  147.1500 N   0  0  0  0  0  0  0  0  0  0  0  0
  189.1270  175.8890  142.9320 C   0  0  0  0  0  3  0  0  0  0  0  0
  190.2160  176.7880  142.4290 C   0  0  0  0  0  2  0  0  0  0  0  0
  189.8910  177.3740  141.0800 C   0  0  0  0  0  0  0  0  0  0  0  0
  188.8110  178.1350  140.8860 C   0  0  0  0  0  3  0  0  0  0  0  0
  187.8830  176.3000  143.1770 C   0  0  0  0  0  3  0  0  0  0  0  0
  187.7510  178.4190  141.8750 C   0  0  0  0  0  3  0  0  0  0  0  0
  187.3660  177.6600  142.9050 C   0  0  0  0  0  0  0  0  0  0  0  0
  190.7680  177.2130  140.0010 O   0  0  0  0  0  0  0  0  0  0  0  0
  191.4390  176.5090  137.7740 C   0  0  0  0  0  1  0  0  0  0  0  0
  190.5860  176.2180  138.9980 C   0  0  0  0  0  2  0  0  0  0  0  0
  182.5860  178.8480  143.2360 N   0  0  0  0  0  2  0  0  0  0  0  0
  183.1780  178.6870  139.5210 C   0  0  0  0  0  2  0  0  0  0  0  0
  180.9860  178.9440  141.3530 C   0  0  0  0  0  2  0  0  0  0  0  0
  180.9780  181.2420  137.8040 N   0  0  0  0  0  0  0  0  0  0  0  0
  180.9660  182.0720  136.6330 C   0  0  0  0  0  0  0  0  0  0  0  0
  181.9010  180.1120  137.8920 C   0  0  0  0  0  2  0  0  0  0  0  0
  180.9550  183.3280  136.7510 O   0  0  0  0  0  0  0  0  0  0  0  0
  182.3000  179.9120  139.3470 C   0  0  1  0  0  3  0  0  0  0  0  0
  180.9180  181.4590  135.2730 C   0  0  0  0  0  1  0  0  0  0  0  0
  180.0290  180.7550  139.9580 C   0  0  0  0  0  3  0  0  0  0  0  0
  181.1020  179.8390  140.1970 N   0  0  0  0  0  0  0  0  0  0  0  0
  179.9830  181.4440  138.8220 C   0  0  0  0  0  3  0  0  0  0  0  0
  182.3270  178.3840  141.8680 C   0  0  1  0  0  3  0  0  0  0  0  0
  183.5590  178.6090  140.9860 C   0  0  0  0  0  2  0  0  0  0  0  0
  2  8  1  0  0  0  0
  4  1  2  0  0  0  0
  4  7  1  0  0  0  0
  5  3  1  6  0  0  0
  5  6  1  0  0  0  0
  6 10  1  0  0  0  0
  7  3  2  0  0  0  0
  8 10  2  0  0  0  0
  9  1  1  6  0  0  0
  9  5  1  0  0  0  0
  9  8  1  0  0  0  0
 11 15  2  0  0  0  0
 12 11  1  0  0  0  0
 13 12  1  0  0  0  0
 14 13  2  0  0  0  0
 14 16  1  0  0  0  0
 16 17  2  0  0  0  0
 17 15  1  0  0  0  0
 17  1  1  0  0  0  0
 18 13  1  0  0  0  0
 19 20  1  0  0  0  0
 20 18  1  0  0  0  0
 21  7  1  0  0  0  0
 22 34  1  0  0  0  0
 23 33  1  0  0  0  0
 24 26  1  0  0  0  0
 24 32  1  0  0  0  0
 25 27  2  0  0  0  0
 25 24  1  0  0  0  0
 28 26  1  6  0  0  0
 28 22  1  0  0  0  0
 28 31  1  0  0  0  0
 29 25  1  0  0  0  0
 30 31  1  0  0  0  0
 31 23  1  0  0  0  0
 32 30  2  0  0  0  0
 33 21  1  1  0  0  0
 34 33  1  0  0  0  0
M  END
>  <MODEL>
6

>  <REMARK>
 VINA RESULT:      -8.7      2.154      3.192
  Name = 
  5 active torsions:
  status: ('A' for Active; 'I' for Inactive)
    1  A    between atoms: C_1  and  C_34
    2  A    between atoms: O_3  and  C_24
    3  A    between atoms: O_3  and  C_25
    4  A    between atoms: C_17  and  N_18
    5  A    between atoms: N_18  and  C_30
                            x       y       z     vdW  Elec       q    Type
                         _______ _______ _______ _____ _____    ______ ____

>  <TORSDO>
F 5

$$$$
=
 OpenBabel10272415103D

 34 38  0  0  1  0  0  0  0  0999 V2000
  188.7680  177.4570  145.4530 C   0  0  0  0  0  0  0  0  0  0  0  0
  188.0360  177.8480  148.5940 N   0  0  0  0  0  1  0  0  0  0  0  0
  191.4810  176.5230  145.2640 C   0  0  0  0  0  3  0  0  0  0  0  0
  189.4530  177.5010  144.2950 C   0  0  0  0  0  3  0  0  0  0  0  0
  190.8130  176.6280  146.5560 C   0  0  1  0  0  3  0  0  0  0  0  0
  191.3980  177.1240  147.6330 C   0  0  0  0  0  2  0  0  0  0  0  0
  190.8240  176.9390  144.1720 C   0  0  0  0  0  0  0  0  0  0  0  0
  189.2580  177.4950  147.9460 C   0  0  0  0  0  0  0  0  0  0  0  0
  189.3320  176.7250  146.6600 C   0  0  1  0  0  3  0  0  0  0  0  0
  190.4090  177.6260  148.5270 N   0  0  0  0  0  0  0  0  0  0  0  0
  185.8380  179.1630  147.0380 C   0  0  0  0  0  3  0  0  0  0  0  0
  184.6420  178.3380  146.6630 C   0  0  0  0  0  2  0  0  0  0  0  0
  184.3190  178.4410  145.1960 C   0  0  0  0  0  0  0  0  0  0  0  0
  185.1950  178.0760  144.2560 C   0  0  0  0  0  3  0  0  0  0  0  0
  187.0580  178.9640  146.5400 C   0  0  0  0  0  3  0  0  0  0  0  0
  186.5910  177.6450  144.4790 C   0  0  0  0  0  3  0  0  0  0  0  0
  187.4000  177.9790  145.4880 C   0  0  0  0  0  0  0  0  0  0  0  0
  183.0450  178.8380  144.7710 O   0  0  0  0  0  0  0  0  0  0  0  0
  181.2090  179.1440  143.2100 C   0  0  0  0  0  1  0  0  0  0  0  0
  182.7130  179.0320  143.3990 C   0  0  0  0  0  2  0  0  0  0  0  0
  191.4020  176.7730  142.8620 N   0  0  0  0  0  2  0  0  0  0  0  0
  189.4520  177.3380  139.6910 C   0  0  0  0  0  2  0  0  0  0  0  0
  192.1390  177.6160  140.6570 C   0  0  0  0  0  2  0  0  0  0  0  0
  191.5040  176.1420  136.7450 N   0  0  0  0  0  0  0  0  0  0  0  0
  191.3250  175.5940  135.4300 C   0  0  0  0  0  0  0  0  0  0  0  0
  190.3920  176.8060  137.4210 C   0  0  0  0  0  2  0  0  0  0  0  0
  191.7490  174.4350  135.1680 O   0  0  0  0  0  0  0  0  0  0  0  0
  190.5230  176.5850  138.9210 C   0  0  1  0  0  3  0  0  0  0  0  0
  190.6820  176.4050  134.3560 C   0  0  0  0  0  1  0  0  0  0  0  0
  192.9970  176.5710  138.5810 C   0  0  0  0  0  3  0  0  0  0  0  0
  191.8710  176.9570  139.3750 N   0  0  0  0  0  0  0  0  0  0  0  0
  192.8190  176.1580  137.3290 C   0  0  0  0  0  3  0  0  0  0  0  0
  190.9850  177.5290  141.6760 C   0  0  1  0  0  3  0  0  0  0  0  0
  189.6390  177.0120  141.1590 C   0  0  0  0  0  2  0  0  0  0  0  0
  1 17  1  0  0  0  0
  4  1  2  0  0  0  0
  5  3  1  6  0  0  0
  5  9  1  0  0  0  0
  5  6  1  0  0  0  0
  6 10  1  0  0  0  0
  7  4  1  0  0  0  0
  7  3  2  0  0  0  0
  8 10  2  0  0  0  0
  8  2  1  0  0  0  0
  9  1  1  6  0  0  0
  9  8  1  0  0  0  0
 12 11  1  0  0  0  0
 13 12  1  0  0  0  0
 14 16  1  0  0  0  0
 14 13  2  0  0  0  0
 15 11  2  0  0  0  0
 16 17  2  0  0  0  0
 17 15  1  0  0  0  0
 18 13  1  0  0  0  0
 19 20  1  0  0  0  0
 20 18  1  0  0  0  0
 21  7  1  0  0  0  0
 22 34  1  0  0  0  0
 23 33  1  0  0  0  0
 24 32  1  0  0  0  0
 24 26  1  0  0  0  0
 25 24  1  0  0  0  0
 27 25  2  0  0  0  0
 28 26  1  6  0  0  0
 28 31  1  0  0  0  0
 28 22  1  0  0  0  0
 29 25  1  0  0  0  0
 30 31  1  0  0  0  0
 31 23  1  0  0  0  0
 32 30  2  0  0  0  0
 33 21  1  1  0  0  0
 34 33  1  0  0  0  0
M  END
>  <MODEL>
7

>  <REMARK>
 VINA RESULT:      -8.6      3.285      7.058
  Name = 
  5 active torsions:
  status: ('A' for Active; 'I' for Inactive)
    1  A    between atoms: C_1  and  C_34
    2  A    between atoms: O_3  and  C_24
    3  A    between atoms: O_3  and  C_25
    4  A    between atoms: C_17  and  N_18
    5  A    between atoms: N_18  and  C_30
                            x       y       z     vdW  Elec       q    Type
                         _______ _______ _______ _____ _____    ______ ____

>  <TORSDO>
F 5

$$$$
=
 OpenBabel10272415103D

 34 38  0  0  1  0  0  0  0  0999 V2000
  186.7170  177.9390  144.1840 C   0  0  0  0  0  0  0  0  0  0  0  0
  184.9020  178.4330  146.8320 N   0  0  0  0  0  1  0  0  0  0  0  0
  189.3190  177.0440  145.0240 C   0  0  0  0  0  3  0  0  0  0  0  0
  187.7750  177.9510  143.3500 C   0  0  0  0  0  3  0  0  0  0  0  0
  188.2300  177.1860  145.9830 C   0  0  1  0  0  3  0  0  0  0  0  0
  188.3850  177.7310  147.1770 C   0  0  0  0  0  2  0  0  0  0  0  0
  189.0990  177.4080  143.7520 C   0  0  0  0  0  0  0  0  0  0  0  0
  186.2750  178.0770  146.6820 C   0  0  0  0  0  0  0  0  0  0  0  0
  186.8110  177.2610  145.5430 C   0  0  1  0  0  3  0  0  0  0  0  0
  187.1390  178.2490  147.6330 N   0  0  0  0  0  0  0  0  0  0  0  0
  183.5450  179.9080  144.4370 C   0  0  0  0  0  3  0  0  0  0  0  0
  182.4700  179.0070  143.9070 C   0  0  0  0  0  2  0  0  0  0  0  0
  182.5940  178.7860  142.4220 C   0  0  0  0  0  0  0  0  0  0  0  0
  183.6860  178.2390  141.8820 C   0  0  0  0  0  3  0  0  0  0  0  0
  184.8450  179.6220  144.3760 C   0  0  0  0  0  3  0  0  0  0  0  0
  184.9320  177.8840  142.5930 C   0  0  0  0  0  3  0  0  0  0  0  0
  185.4280  178.4380  143.7030 C   0  0  0  0  0  0  0  0  0  0  0  0
  181.5220  179.0660  141.5670 O   0  0  0  0  0  0  0  0  0  0  0  0
  179.9860  177.3320  140.8350 C   0  0  0  0  0  1  0  0  0  0  0  0
  181.1640  178.2230  140.4750 C   0  0  0  0  0  2  0  0  0  0  0  0
  190.1110  177.2040  142.7470 N   0  0  0  0  0  2  0  0  0  0  0  0
  189.1030  177.8410  139.1750 C   0  0  0  0  0  2  0  0  0  0  0  0
  191.4950  177.6630  140.7490 C   0  0  0  0  0  2  0  0  0  0  0  0
  191.4570  175.9760  136.8730 N   0  0  0  0  0  0  0  0  0  0  0  0
  191.4650  175.3510  135.5800 C   0  0  0  0  0  0  0  0  0  0  0  0
  190.3930  176.9130  137.2280 C   0  0  0  0  0  2  0  0  0  0  0  0
  191.6740  174.1110  135.4820 O   0  0  0  0  0  0  0  0  0  0  0  0
  190.1290  176.8170  138.7230 C   0  0  1  0  0  3  0  0  0  0  0  0
  191.2750  176.1680  134.3460 C   0  0  0  0  0  1  0  0  0  0  0  0
  192.5510  176.2720  138.9930 C   0  0  0  0  0  3  0  0  0  0  0  0
  191.3870  176.9510  139.4720 N   0  0  0  0  0  0  0  0  0  0  0  0
  192.5760  175.7840  137.7560 C   0  0  0  0  0  3  0  0  0  0  0  0
  190.1490  177.9100  141.4610 C   0  0  1  0  0  3  0  0  0  0  0  0
  188.8760  177.6270  140.6580 C   0  0  0  0  0  2  0  0  0  0  0  0
  4  7  1  0  0  0  0
  4  1  2  0  0  0  0
  5  3  1  6  0  0  0
  5  6  1  0  0  0  0
  6 10  1  0  0  0  0
  7  3  2  0  0  0  0
  8  2  1  0  0  0  0
  8 10  2  0  0  0  0
  9  1  1  6  0  0  0
  9  5  1  0  0  0  0
  9  8  1  0  0  0  0
 12 11  1  0  0  0  0
 13 12  1  0  0  0  0
 14 13  2  0  0  0  0
 14 16  1  0  0  0  0
 15 11  2  0  0  0  0
 16 17  2  0  0  0  0
 17  1  1  0  0  0  0
 17 15  1  0  0  0  0
 18 13  1  0  0  0  0
 20 19  1  0  0  0  0
 20 18  1  0  0  0  0
 21  7  1  0  0  0  0
 22 34  1  0  0  0  0
 23 33  1  0  0  0  0
 24 26  1  0  0  0  0
 24 32  1  0  0  0  0
 25 24  1  0  0  0  0
 27 25  2  0  0  0  0
 28 26  1  6  0  0  0
 28 22  1  0  0  0  0
 28 31  1  0  0  0  0
 29 25  1  0  0  0  0
 30 31  1  0  0  0  0
 31 23  1  0  0  0  0
 32 30  2  0  0  0  0
 33 21  1  1  0  0  0
 34 33  1  0  0  0  0
M  END
>  <MODEL>
8

>  <REMARK>
 VINA RESULT:      -8.5      2.798      7.009
  Name = 
  5 active torsions:
  status: ('A' for Active; 'I' for Inactive)
    1  A    between atoms: C_1  and  C_34
    2  A    between atoms: O_3  and  C_24
    3  A    between atoms: O_3  and  C_25
    4  A    between atoms: C_17  and  N_18
    5  A    between atoms: N_18  and  C_30
                            x       y       z     vdW  Elec       q    Type
                         _______ _______ _______ _____ _____    ______ ____

>  <TORSDO>
F 5

$$$$
=
 OpenBabel10272415103D

 34 38  0  0  1  0  0  0  0  0999 V2000
  183.0970  178.4100  141.5400 C   0  0  0  0  0  0  0  0  0  0  0  0
  180.4980  178.4870  139.5910 N   0  0  0  0  0  1  0  0  0  0  0  0
  182.3820  179.6170  144.0510 C   0  0  0  0  0  3  0  0  0  0  0  0
  184.0290  178.8050  142.4270 C   0  0  0  0  0  3  0  0  0  0  0  0
  181.3730  179.3530  143.0320 C   0  0  1  0  0  3  0  0  0  0  0  0
  180.4260  180.2190  142.7130 C   0  0  0  0  0  2  0  0  0  0  0  0
  183.6640  179.3480  143.7620 C   0  0  0  0  0  0  0  0  0  0  0  0
  180.7170  179.0230  140.8960 C   0  0  0  0  0  0  0  0  0  0  0  0
  181.6240  178.4010  141.9170 C   0  0  1  0  0  3  0  0  0  0  0  0
  179.9830  179.9740  141.3810 N   0  0  0  0  0  0  0  0  0  0  0  0
  184.8620  178.4330  138.2400 C   0  0  0  0  0  3  0  0  0  0  0  0
  183.9110  177.7960  137.2710 C   0  0  0  0  0  2  0  0  0  0  0  0
  183.7360  176.3230  137.5320 C   0  0  0  0  0  0  0  0  0  0  0  0
  183.2700  175.8660  138.6970 C   0  0  0  0  0  3  0  0  0  0  0  0
  184.6580  178.4760  139.5560 C   0  0  0  0  0  3  0  0  0  0  0  0
  182.9740  176.6730  139.9000 C   0  0  0  0  0  3  0  0  0  0  0  0
  183.5290  177.8320  140.2660 C   0  0  0  0  0  0  0  0  0  0  0  0
  183.9710  175.3860  136.5200 O   0  0  0  0  0  0  0  0  0  0  0  0
  186.2530  174.6990  136.9940 C   0  0  0  0  0  1  0  0  0  0  0  0
  184.8300  174.2610  136.6910 C   0  0  0  0  0  2  0  0  0  0  0  0
  184.6880  179.5050  144.7630 N   0  0  0  0  0  2  0  0  0  0  0  0
  186.7770  178.0040  147.5130 C   0  0  0  0  0  2  0  0  0  0  0  0
  186.0940  177.4700  144.7780 C   0  0  0  0  0  2  0  0  0  0  0  0
  190.0690  176.8270  146.0670 N   0  0  0  0  0  0  0  0  0  0  0  0
  191.4380  176.6420  146.4570 C   0  0  0  0  0  0  0  0  0  0  0  0
  189.0310  176.9770  147.0830 C   0  0  0  0  0  2  0  0  0  0  0  0
  192.3490  177.3080  145.8940 O   0  0  0  0  0  0  0  0  0  0  0  0
  187.9380  177.8890  146.5420 C   0  0  1  0  0  3  0  0  0  0  0  0
  191.7980  175.6310  147.4940 C   0  0  0  0  0  1  0  0  0  0  0  0
  188.4700  176.9790  144.2780 C   0  0  0  0  0  3  0  0  0  0  0  0
  187.4900  177.4180  145.2230 N   0  0  0  0  0  0  0  0  0  0  0  0
  189.7120  176.7190  144.6780 C   0  0  0  0  0  3  0  0  0  0  0  0
  185.1930  178.4120  145.6020 C   0  0  1  0  0  3  0  0  0  0  0  0
  185.7760  178.9660  146.9070 C   0  0  0  0  0  2  0  0  0  0  0  0
  1  9  1  0  0  0  0
  1  4  2  0  0  0  0
  2  8  1  0  0  0  0
  4  7  1  0  0  0  0
  5  6  1  6  0  0  0
  5  3  1  0  0  0  0
  7  3  2  0  0  0  0
  7 21  1  0  0  0  0
  8 10  2  0  0  0  0
  9  8  1  6  0  0  0
  9  5  1  0  0  0  0
 10  6  1  0  0  0  0
 11 15  2  0  0  0  0
 12 13  1  0  0  0  0
 12 11  1  0  0  0  0
 13 14  2  0  0  0  0
 14 16  1  0  0  0  0
 15 17  1  0  0  0  0
 16 17  2  0  0  0  0
 17  1  1  0  0  0  0
 18 20  1  0  0  0  0
 18 13  1  0  0  0  0
 20 19  1  0  0  0  0
 23 31  1  0  0  0  0
 23 33  1  0  0  0  0
 24 25  1  0  0  0  0
 24 26  1  0  0  0  0
 25 29  1  0  0  0  0
 27 25  2  0  0  0  0
 28 26  1  1  0  0  0
 28 22  1  0  0  0  0
 30 32  2  0  0  0  0
 30 31  1  0  0  0  0
 31 28  1  0  0  0  0
 32 24  1  0  0  0  0
 33 21  1  6  0  0  0
 33 34  1  0  0  0  0
 34 22  1  0  0  0  0
M  END
>  <MODEL>
9

>  <REMARK>
 VINA RESULT:      -8.4      2.328      7.724
  Name = 
  5 active torsions:
  status: ('A' for Active; 'I' for Inactive)
    1  A    between atoms: C_1  and  C_34
    2  A    between atoms: O_3  and  C_24
    3  A    between atoms: O_3  and  C_25
    4  A    between atoms: C_17  and  N_18
    5  A    between atoms: N_18  and  C_30
                            x       y       z     vdW  Elec       q    Type
                         _______ _______ _______ _____ _____    ______ ____

>  <TORSDO>
F 5

$$$$
