=
 OpenBabel10272413473D

 30 33  0  0  1  0  0  0  0  0999 V2000
  188.2840  177.6450  136.2460 C   0  0  1  0  0  0  0  0  0  0  0  0
  189.8800  175.7580  136.8460 C   0  0  0  0  0  0  0  0  0  0  0  0
  188.5280  178.6740  137.3560 C   0  0  2  0  0  3  0  0  0  0  0  0
  190.5500  176.8130  140.0320 C   0  0  0  0  0  3  0  0  0  0  0  0
  192.8350  173.6040  137.5010 C   0  0  0  0  0  1  0  0  0  0  0  0
  190.1190  177.2540  138.7670 C   0  0  0  0  0  0  0  0  0  0  0  0
  188.3920  178.5630  139.8620 C   0  0  0  0  0  3  0  0  0  0  0  0
  188.9890  178.1000  138.6820 C   0  0  0  0  0  0  0  0  0  0  0  0
  190.7850  176.7670  137.4970 C   0  0  1  0  0  3  0  0  0  0  0  0
  191.8260  174.6990  137.3840 C   0  0  0  0  0  0  0  0  0  0  0  0
  189.9160  177.2490  141.1950 C   0  0  0  0  0  3  0  0  0  0  0  0
  188.6800  178.1950  134.8860 C   0  0  0  0  0  1  0  0  0  0  0  0
  188.8420  178.1320  141.1100 C   0  0  0  0  0  3  0  0  0  0  0  0
  188.4370  176.1140  136.4860 C   0  0  2  0  0  3  0  0  0  0  0  0
  190.4770  174.5560  136.8550 C   0  0  0  0  0  0  0  0  0  0  0  0
  193.3070  176.5110  138.2590 C   0  0  0  0  0  1  0  0  0  0  0  0
  187.0870  178.3620  136.8770 C   0  0  2  0  0  3  0  0  0  0  0  0
  192.0250  175.9590  137.7300 C   0  0  0  0  0  0  0  0  0  0  0  0
  188.7460  175.0360  134.3460 F   0  0  0  0  0  0  0  0  0  0  0  0
  186.7570  175.9880  134.7490 F   0  0  0  0  0  0  0  0  0  0  0  0
  187.2990  174.0970  135.8240 O   0  0  0  0  0  1  0  0  0  0  0  0
  187.8080  175.2970  135.3290 C   0  0  0  0  0  0  0  0  0  0  0  0
  190.5700  172.7040  135.2200 C   0  0  0  0  0  1  0  0  0  0  0  0
  189.8850  173.2430  136.4620 C   0  0  0  0  0  2  0  0  0  0  0  0
  185.7360  176.4040  137.3550 O   0  0  0  0  0  1  0  0  0  0  0  0
  186.2360  177.5850  137.9060 C   0  0  2  0  0  3  0  0  0  0  0  0
  185.0610  178.4260  138.4210 C   0  0  1  0  0  3  0  0  0  0  0  0
  183.7230  177.8970  137.9320 C   0  0  0  0  0  1  0  0  0  0  0  0
  185.0620  178.5420  139.9160 C   0  0  0  0  0  3  0  0  0  0  0  0
  185.0610  179.6390  140.4510 O   0  0  0  0  0  0  0  0  0  0  0  0
  1 12  1  6  0  0  0
  1 14  1  0  0  0  0
  1 17  1  0  0  0  0
  1  3  1  0  0  0  0
  2 15  2  0  0  0  0
  3  8  1  1  0  0  0
  4 11  1  0  0  0  0
  6  4  2  0  0  0  0
  7 13  1  0  0  0  0
  8  6  1  0  0  0  0
  8  7  2  0  0  0  0
  9  2  1  1  0  0  0
  9 18  1  0  0  0  0
  9  6  1  0  0  0  0
 10  5  1  0  0  0  0
 10 18  2  0  0  0  0
 13 11  2  0  0  0  0
 14 22  1  6  0  0  0
 14  2  1  0  0  0  0
 15 10  1  0  0  0  0
 17  3  1  0  0  0  0
 17 26  1  1  0  0  0
 18 16  1  0  0  0  0
 19 22  1  0  0  0  0
 20 22  1  0  0  0  0
 22 21  1  0  0  0  0
 23 24  1  0  0  0  0
 24 15  1  0  0  0  0
 26 25  1  6  0  0  0
 26 27  1  0  0  0  0
 27 28  1  1  0  0  0
 27 29  1  0  0  0  0
 29 30  2  0  0  0  0
M  END
>  <MODEL>
1

>  <REMARK>
 VINA RESULT:      -5.9      0.000      0.000
  Name = 
  5 active torsions:
  status: ('A' for Active; 'I' for Inactive)
    1  A    between atoms: C_2  and  C_14
    2  A    between atoms: C_2  and  C_22
    3  A    between atoms: C_11  and  C_25
    4  A    between atoms: C_22  and  C_29
    5  A    between atoms: C_23  and  C_26
                            x       y       z     vdW  Elec       q    Type
                         _______ _______ _______ _____ _____    ______ ____

>  <TORSDO>
F 5

$$$$
=
 OpenBabel10272413473D

 30 33  0  0  1  0  0  0  0  0999 V2000
  187.9820  176.6760  135.5940 C   0  0  1  0  0  0  0  0  0  0  0  0
  185.8710  177.3080  136.8620 C   0  0  0  0  0  0  0  0  0  0  0  0
  187.7470  175.2030  135.2370 C   0  0  2  0  0  3  0  0  0  0  0  0
  184.7500  174.1140  137.3690 C   0  0  0  0  0  3  0  0  0  0  0  0
  182.4030  178.1290  137.9130 C   0  0  0  0  0  1  0  0  0  0  0  0
  185.5640  174.9020  136.5360 C   0  0  0  0  0  0  0  0  0  0  0  0
  187.2530  173.1600  136.6130 C   0  0  0  0  0  3  0  0  0  0  0  0
  186.8560  174.4380  136.1970 C   0  0  0  0  0  0  0  0  0  0  0  0
  185.1180  176.2730  136.0720 C   0  0  1  0  0  3  0  0  0  0  0  0
  183.6510  177.5640  137.3190 C   0  0  0  0  0  0  0  0  0  0  0  0
  185.1780  172.8620  137.8100 C   0  0  0  0  0  3  0  0  0  0  0  0
  188.0690  177.5380  134.3460 C   0  0  0  0  0  1  0  0  0  0  0  0
  186.4280  172.3810  137.4240 C   0  0  0  0  0  3  0  0  0  0  0  0
  187.3990  177.3190  136.8860 C   0  0  2  0  0  3  0  0  0  0  0  0
  185.0070  177.9940  137.6270 C   0  0  0  0  0  0  0  0  0  0  0  0
  182.5060  175.9420  135.8020 C   0  0  0  0  0  1  0  0  0  0  0  0
  189.1350  175.6780  135.7360 C   0  0  2  0  0  3  0  0  0  0  0  0
  183.6970  176.6010  136.4150 C   0  0  0  0  0  0  0  0  0  0  0  0
  187.3160  179.7200  136.6330 F   0  0  0  0  0  0  0  0  0  0  0  0
  189.3360  178.7490  136.6450 F   0  0  0  0  0  0  0  0  0  0  0  0
  188.1740  178.8710  138.5580 O   0  0  0  0  0  1  0  0  0  0  0  0
  188.0600  178.6900  137.1800 C   0  0  0  0  0  0  0  0  0  0  0  0
  185.0420  178.4320  140.0610 C   0  0  0  0  0  1  0  0  0  0  0  0
  185.3290  179.0000  138.6830 C   0  0  0  0  0  2  0  0  0  0  0  0
  189.9190  176.2430  137.9620 O   0  0  0  0  0  1  0  0  0  0  0  0
  189.4970  175.1860  137.1550 C   0  0  2  0  0  3  0  0  0  0  0  0
  190.6000  174.1190  137.1220 C   0  0  1  0  0  3  0  0  0  0  0  0
  190.7890  173.5380  135.7310 C   0  0  0  0  0  1  0  0  0  0  0  0
  191.9020  174.6380  137.6530 C   0  0  0  0  0  3  0  0  0  0  0  0
  192.9430  174.0380  137.4340 O   0  0  0  0  0  0  0  0  0  0  0  0
  1 12  1  6  0  0  0
  1 17  1  0  0  0  0
  1 14  1  0  0  0  0
  2 14  1  0  0  0  0
  2 15  2  0  0  0  0
  3  1  1  0  0  0  0
  3 17  1  0  0  0  0
  3  8  1  1  0  0  0
  4 11  1  0  0  0  0
  6  4  2  0  0  0  0
  7 13  1  0  0  0  0
  8  6  1  0  0  0  0
  8  7  2  0  0  0  0
  9 18  1  1  0  0  0
  9  6  1  0  0  0  0
  9  2  1  0  0  0  0
 10 15  1  0  0  0  0
 10  5  1  0  0  0  0
 13 11  2  0  0  0  0
 14 22  1  6  0  0  0
 15 24  1  0  0  0  0
 16 18  1  0  0  0  0
 17 26  1  1  0  0  0
 18 10  2  0  0  0  0
 19 22  1  0  0  0  0
 20 22  1  0  0  0  0
 22 21  1  0  0  0  0
 24 23  1  0  0  0  0
 26 25  1  1  0  0  0
 27 28  1  6  0  0  0
 27 26  1  0  0  0  0
 27 29  1  0  0  0  0
 30 29  2  0  0  0  0
M  END
>  <MODEL>
2

>  <REMARK>
 VINA RESULT:      -5.5      2.546      6.702
  Name = 
  5 active torsions:
  status: ('A' for Active; 'I' for Inactive)
    1  A    between atoms: C_2  and  C_14
    2  A    between atoms: C_2  and  C_22
    3  A    between atoms: C_11  and  C_25
    4  A    between atoms: C_22  and  C_29
    5  A    between atoms: C_23  and  C_26
                            x       y       z     vdW  Elec       q    Type
                         _______ _______ _______ _____ _____    ______ ____

>  <TORSDO>
F 5

$$$$
=
 OpenBabel10272413473D

 30 33  0  0  1  0  0  0  0  0999 V2000
  186.8020  177.6190  136.2710 C   0  0  1  0  0  0  0  0  0  0  0  0
  188.3660  175.6160  136.3630 C   0  0  0  0  0  0  0  0  0  0  0  0
  187.4240  178.5940  137.2780 C   0  0  2  0  0  3  0  0  0  0  0  0
  189.9890  176.5220  139.2380 C   0  0  0  0  0  3  0  0  0  0  0  0
  191.2270  173.2590  136.1170 C   0  0  0  0  0  1  0  0  0  0  0  0
  189.2470  177.0300  138.1550 C   0  0  0  0  0  0  0  0  0  0  0  0
  188.0000  178.4090  139.7170 C   0  0  0  0  0  3  0  0  0  0  0  0
  188.2020  177.9490  138.4080 C   0  0  0  0  0  0  0  0  0  0  0  0
  189.4880  176.5440  136.7420 C   0  0  1  0  0  3  0  0  0  0  0  0
  190.3070  174.4190  136.3070 C   0  0  0  0  0  0  0  0  0  0  0  0
  189.7450  176.9590  140.5390 C   0  0  0  0  0  3  0  0  0  0  0  0
  186.8320  178.1870  134.8620 C   0  0  0  0  0  1  0  0  0  0  0  0
  188.7550  177.9110  140.7770 C   0  0  0  0  0  3  0  0  0  0  0  0
  186.9100  176.0750  136.4360 C   0  0  2  0  0  3  0  0  0  0  0  0
  188.8560  174.3790  136.1860 C   0  0  0  0  0  0  0  0  0  0  0  0
  192.0980  176.1040  136.7460 C   0  0  0  0  0  1  0  0  0  0  0  0
  185.8880  178.3900  137.2280 C   0  0  2  0  0  3  0  0  0  0  0  0
  190.6840  175.6520  136.5980 C   0  0  0  0  0  0  0  0  0  0  0  0
  186.5630  174.9100  134.3490 F   0  0  0  0  0  0  0  0  0  0  0  0
  184.8780  176.1690  135.1250 F   0  0  0  0  0  0  0  0  0  0  0  0
  185.3690  174.2430  136.1630 O   0  0  0  0  0  1  0  0  0  0  0  0
  185.9220  175.3370  135.4980 C   0  0  0  0  0  0  0  0  0  0  0  0
  187.9140  172.3640  137.2650 C   0  0  0  0  0  1  0  0  0  0  0  0
  188.0860  173.1200  135.9610 C   0  0  0  0  0  2  0  0  0  0  0  0
  184.2840  176.7730  138.0650 O   0  0  0  0  0  1  0  0  0  0  0  0
  185.3130  177.6350  138.4470 C   0  0  2  0  0  3  0  0  0  0  0  0
  184.7780  178.6010  139.5120 C   0  0  1  0  0  3  0  0  0  0  0  0
  184.0050  179.7560  138.8980 C   0  0  0  0  0  1  0  0  0  0  0  0
  183.9420  177.9010  140.5410 C   0  0  0  0  0  3  0  0  0  0  0  0
  184.1880  178.0290  141.7290 O   0  0  0  0  0  0  0  0  0  0  0  0
  1 12  1  6  0  0  0
  1 14  1  0  0  0  0
  1 17  1  0  0  0  0
  1  3  1  0  0  0  0
  2 14  1  0  0  0  0
  3  8  1  1  0  0  0
  4 11  1  0  0  0  0
  5 10  1  0  0  0  0
  6  8  1  0  0  0  0
  6  4  2  0  0  0  0
  7 13  1  0  0  0  0
  8  7  2  0  0  0  0
  9  2  1  1  0  0  0
  9  6  1  0  0  0  0
 10 18  2  0  0  0  0
 11 13  2  0  0  0  0
 14 22  1  6  0  0  0
 15 10  1  0  0  0  0
 15  2  2  0  0  0  0
 17  3  1  0  0  0  0
 17 26  1  1  0  0  0
 18  9  1  0  0  0  0
 18 16  1  0  0  0  0
 19 22  1  0  0  0  0
 20 22  1  0  0  0  0
 22 21  1  0  0  0  0
 24 15  1  0  0  0  0
 24 23  1  0  0  0  0
 26 25  1  6  0  0  0
 26 27  1  0  0  0  0
 27 28  1  6  0  0  0
 27 29  1  0  0  0  0
 29 30  2  0  0  0  0
M  END
>  <MODEL>
3

>  <REMARK>
 VINA RESULT:      -5.5      1.343      1.686
  Name = 
  5 active torsions:
  status: ('A' for Active; 'I' for Inactive)
    1  A    between atoms: C_2  and  C_14
    2  A    between atoms: C_2  and  C_22
    3  A    between atoms: C_11  and  C_25
    4  A    between atoms: C_22  and  C_29
    5  A    between atoms: C_23  and  C_26
                            x       y       z     vdW  Elec       q    Type
                         _______ _______ _______ _____ _____    ______ ____

>  <TORSDO>
F 5

$$$$
=
 OpenBabel10272413473D

 30 33  0  0  1  0  0  0  0  0999 V2000
  187.5440  177.8680  137.1360 C   0  0  1  0  0  0  0  0  0  0  0  0
  186.5840  178.2760  139.4550 C   0  0  0  0  0  0  0  0  0  0  0  0
  186.3280  177.3860  136.3350 C   0  0  2  0  0  3  0  0  0  0  0  0
  183.6380  176.6060  138.9560 C   0  0  0  0  0  3  0  0  0  0  0  0
  184.7540  179.5390  142.4310 C   0  0  0  0  0  1  0  0  0  0  0  0
  184.6810  177.2740  138.2890 C   0  0  0  0  0  0  0  0  0  0  0  0
  184.7110  175.4870  136.6450 C   0  0  0  0  0  3  0  0  0  0  0  0
  185.2590  176.6760  137.1450 C   0  0  0  0  0  0  0  0  0  0  0  0
  185.2520  178.5710  138.8230 C   0  0  1  0  0  3  0  0  0  0  0  0
  185.2060  179.0820  141.0840 C   0  0  0  0  0  0  0  0  0  0  0  0
  183.1330  175.4010  138.4690 C   0  0  0  0  0  3  0  0  0  0  0  0
  188.0710  179.1870  136.5960 C   0  0  0  0  0  1  0  0  0  0  0  0
  183.6650  174.8460  137.3070 C   0  0  0  0  0  3  0  0  0  0  0  0
  187.6960  177.5920  138.6600 C   0  0  2  0  0  3  0  0  0  0  0  0
  186.5100  178.5130  140.7740 C   0  0  0  0  0  0  0  0  0  0  0  0
  183.1140  179.7230  139.8770 C   0  0  0  0  0  1  0  0  0  0  0  0
  187.7050  176.6950  136.1650 C   0  0  2  0  0  3  0  0  0  0  0  0
  184.4870  179.1450  139.9760 C   0  0  0  0  0  0  0  0  0  0  0  0
  189.2530  179.1600  139.6360 F   0  0  0  0  0  0  0  0  0  0  0  0
  190.0460  177.7310  138.1020 F   0  0  0  0  0  0  0  0  0  0  0  0
  189.4940  176.9560  140.1320 O   0  0  0  0  0  1  0  0  0  0  0  0
  189.1420  177.8720  139.1420 C   0  0  0  0  0  0  0  0  0  0  0  0
  186.9610  177.2930  142.8770 C   0  0  0  0  0  1  0  0  0  0  0  0
  187.5390  178.2070  141.8120 C   0  0  0  0  0  2  0  0  0  0  0  0
  189.0150  175.0260  137.3430 O   0  0  0  0  0  1  0  0  0  0  0  0
  187.7730  175.2690  136.7560 C   0  0  2  0  0  3  0  0  0  0  0  0
  187.5140  174.1990  135.6870 C   0  0  1  0  0  3  0  0  0  0  0  0
  188.5840  174.2010  134.6080 C   0  0  0  0  0  1  0  0  0  0  0  0
  187.3730  172.8300  136.2810 C   0  0  0  0  0  3  0  0  0  0  0  0
  186.7170  172.6610  137.2960 O   0  0  0  0  0  0  0  0  0  0  0  0
  1 12  1  6  0  0  0
  1 14  1  0  0  0  0
  2 15  2  0  0  0  0
  3  1  1  0  0  0  0
  3  8  1  1  0  0  0
  6  4  2  0  0  0  0
  7  8  2  0  0  0  0
  7 13  1  0  0  0  0
  8  6  1  0  0  0  0
  9  6  1  1  0  0  0
  9  2  1  0  0  0  0
  9 18  1  0  0  0  0
 10  5  1  0  0  0  0
 11  4  1  0  0  0  0
 13 11  2  0  0  0  0
 14 22  1  1  0  0  0
 14  2  1  0  0  0  0
 15 10  1  0  0  0  0
 15 24  1  0  0  0  0
 16 18  1  0  0  0  0
 17  3  1  0  0  0  0
 17 26  1  1  0  0  0
 17  1  1  0  0  0  0
 18 10  2  0  0  0  0
 20 22  1  0  0  0  0
 22 19  1  0  0  0  0
 22 21  1  0  0  0  0
 24 23  1  0  0  0  0
 26 25  1  6  0  0  0
 27 28  1  6  0  0  0
 27 29  1  0  0  0  0
 27 26  1  0  0  0  0
 29 30  2  0  0  0  0
M  END
>  <MODEL>
4

>  <REMARK>
 VINA RESULT:      -5.3      2.774      6.457
  Name = 
  5 active torsions:
  status: ('A' for Active; 'I' for Inactive)
    1  A    between atoms: C_2  and  C_14
    2  A    between atoms: C_2  and  C_22
    3  A    between atoms: C_11  and  C_25
    4  A    between atoms: C_22  and  C_29
    5  A    between atoms: C_23  and  C_26
                            x       y       z     vdW  Elec       q    Type
                         _______ _______ _______ _____ _____    ______ ____

>  <TORSDO>
F 5

$$$$
=
 OpenBabel10272413473D

 30 33  0  0  1  0  0  0  0  0999 V2000
  182.3500  178.4010  138.0290 C   0  0  1  0  0  0  0  0  0  0  0  0
  184.2410  176.8760  137.2770 C   0  0  0  0  0  0  0  0  0  0  0  0
  183.0740  179.4760  138.8490 C   0  0  2  0  0  3  0  0  0  0  0  0
  186.6030  178.0910  139.4350 C   0  0  0  0  0  3  0  0  0  0  0  0
  187.2350  175.3570  135.6870 C   0  0  0  0  0  1  0  0  0  0  0  0
  185.4020  178.4190  138.7790 C   0  0  0  0  0  0  0  0  0  0  0  0
  184.5850  179.3790  140.8550 C   0  0  0  0  0  3  0  0  0  0  0  0
  184.3590  179.0240  139.5170 C   0  0  0  0  0  0  0  0  0  0  0  0
  185.1750  178.0530  137.3270 C   0  0  1  0  0  3  0  0  0  0  0  0
  186.2230  176.2300  136.3520 C   0  0  0  0  0  0  0  0  0  0  0  0
  186.7950  178.4120  140.7780 C   0  0  0  0  0  3  0  0  0  0  0  0
  181.6950  178.9980  136.7950 C   0  0  0  0  0  1  0  0  0  0  0  0
  185.7880  179.0650  141.4860 C   0  0  0  0  0  3  0  0  0  0  0  0
  182.8660  176.9350  137.9440 C   0  0  2  0  0  3  0  0  0  0  0  0
  184.8920  175.8160  136.7740 C   0  0  0  0  0  0  0  0  0  0  0  0
  187.6040  178.3120  136.3060 C   0  0  0  0  0  1  0  0  0  0  0  0
  181.7330  178.8780  139.3470 C   0  0  2  0  0  3  0  0  0  0  0  0
  186.3890  177.5100  136.6380 C   0  0  0  0  0  0  0  0  0  0  0  0
  181.9660  175.8360  135.9900 F   0  0  0  0  0  0  0  0  0  0  0  0
  180.5170  176.4990  137.5650 F   0  0  0  0  0  0  0  0  0  0  0  0
  181.8550  174.7490  137.9820 O   0  0  0  0  0  1  0  0  0  0  0  0
  181.7880  175.9920  137.3530 C   0  0  0  0  0  0  0  0  0  0  0  0
  185.1090  173.5430  137.7240 C   0  0  0  0  0  1  0  0  0  0  0  0
  184.4070  174.4060  136.6920 C   0  0  0  0  0  2  0  0  0  0  0  0
  181.3440  176.6970  140.3360 O   0  0  0  0  0  1  0  0  0  0  0  0
  181.8720  177.9640  140.5850 C   0  0  2  0  0  3  0  0  0  0  0  0
  181.1680  178.5600  141.8110 C   0  0  1  0  0  3  0  0  0  0  0  0
  182.1340  178.8180  142.9550 C   0  0  0  0  0  1  0  0  0  0  0  0
  180.4110  179.8100  141.4760 C   0  0  0  0  0  3  0  0  0  0  0  0
  180.1170  180.6090  142.3510 O   0  0  0  0  0  0  0  0  0  0  0  0
  1 12  1  6  0  0  0
  1  3  1  0  0  0  0
  1 17  1  0  0  0  0
  2  9  1  0  0  0  0
  2 14  1  0  0  0  0
  3 17  1  0  0  0  0
  3  8  1  1  0  0  0
  4 11  1  0  0  0  0
  5 10  1  0  0  0  0
  6  4  2  0  0  0  0
  6  8  1  0  0  0  0
  7 13  1  0  0  0  0
  8  7  2  0  0  0  0
  9 18  1  1  0  0  0
  9  6  1  0  0  0  0
 10 18  2  0  0  0  0
 10 15  1  0  0  0  0
 11 13  2  0  0  0  0
 14 22  1  6  0  0  0
 14  1  1  0  0  0  0
 15  2  2  0  0  0  0
 16 18  1  0  0  0  0
 17 26  1  1  0  0  0
 19 22  1  0  0  0  0
 22 20  1  0  0  0  0
 22 21  1  0  0  0  0
 24 15  1  0  0  0  0
 24 23  1  0  0  0  0
 26 25  1  6  0  0  0
 26 27  1  0  0  0  0
 27 28  1  1  0  0  0
 29 27  1  0  0  0  0
 29 30  2  0  0  0  0
M  END
>  <MODEL>
5

>  <REMARK>
 VINA RESULT:      -5.2      3.714      5.618
  Name = 
  5 active torsions:
  status: ('A' for Active; 'I' for Inactive)
    1  A    between atoms: C_2  and  C_14
    2  A    between atoms: C_2  and  C_22
    3  A    between atoms: C_11  and  C_25
    4  A    between atoms: C_22  and  C_29
    5  A    between atoms: C_23  and  C_26
                            x       y       z     vdW  Elec       q    Type
                         _______ _______ _______ _____ _____    ______ ____

>  <TORSDO>
F 5

$$$$
=
 OpenBabel10272413473D

 30 33  0  0  1  0  0  0  0  0999 V2000
  185.5380  177.0570  136.1530 C   0  0  1  0  0  0  0  0  0  0  0  0
  186.8790  174.9010  136.3040 C   0  0  0  0  0  0  0  0  0  0  0  0
  186.5380  178.1220  136.6200 C   0  0  2  0  0  3  0  0  0  0  0  0
  189.4390  176.1660  138.1920 C   0  0  0  0  0  3  0  0  0  0  0  0
  189.2940  172.1160  135.8470 C   0  0  0  0  0  1  0  0  0  0  0  0
  188.4200  176.5260  137.2910 C   0  0  0  0  0  0  0  0  0  0  0  0
  187.8830  178.4120  138.7230 C   0  0  0  0  0  3  0  0  0  0  0  0
  187.5970  177.6360  137.5910 C   0  0  0  0  0  0  0  0  0  0  0  0
  188.1320  175.6950  136.0580 C   0  0  1  0  0  3  0  0  0  0  0  0
  188.5860  173.4230  135.9870 C   0  0  0  0  0  0  0  0  0  0  0  0
  189.6820  176.9240  139.3360 C   0  0  0  0  0  3  0  0  0  0  0  0
  185.1380  177.2730  134.7040 C   0  0  0  0  0  1  0  0  0  0  0  0
  188.9090  178.0540  139.5970 C   0  0  0  0  0  3  0  0  0  0  0  0
  185.5730  175.5960  136.6900 C   0  0  2  0  0  3  0  0  0  0  0  0
  187.1810  173.5940  136.3280 C   0  0  0  0  0  0  0  0  0  0  0  0
  190.5490  174.8470  135.3870 C   0  0  0  0  0  1  0  0  0  0  0  0
  185.0630  178.1650  137.0970 C   0  0  2  0  0  3  0  0  0  0  0  0
  189.1350  174.6110  135.8050 C   0  0  0  0  0  0  0  0  0  0  0  0
  184.4120  174.1580  135.1340 F   0  0  0  0  0  0  0  0  0  0  0  0
  183.2030  175.7070  136.2120 F   0  0  0  0  0  0  0  0  0  0  0  0
  183.9620  173.9310  137.3490 O   0  0  0  0  0  1  0  0  0  0  0  0
  184.2710  174.8340  136.3330 C   0  0  0  0  0  0  0  0  0  0  0  0
  186.0130  171.5810  135.4900 C   0  0  0  0  0  1  0  0  0  0  0  0
  186.2820  172.4600  136.6980 C   0  0  0  0  0  2  0  0  0  0  0  0
  183.7920  176.9520  138.7700 O   0  0  0  0  0  1  0  0  0  0  0  0
  184.8730  177.8150  138.5900 C   0  0  2  0  0  3  0  0  0  0  0  0
  184.6500  179.0710  139.4430 C   0  0  1  0  0  3  0  0  0  0  0  0
  183.2740  179.6740  139.2210 C   0  0  0  0  0  1  0  0  0  0  0  0
  184.8770  178.8100  140.9020 C   0  0  0  0  0  3  0  0  0  0  0  0
  185.6080  179.5390  141.5540 O   0  0  0  0  0  0  0  0  0  0  0  0
  1 12  1  6  0  0  0
  1  3  1  0  0  0  0
  1 14  1  0  0  0  0
  1 17  1  0  0  0  0
  2 15  2  0  0  0  0
  2 14  1  0  0  0  0
  3 17  1  0  0  0  0
  3  8  1  1  0  0  0
  4 11  1  0  0  0  0
  5 10  1  0  0  0  0
  6  8  1  0  0  0  0
  6  4  2  0  0  0  0
  7 13  1  0  0  0  0
  8  7  2  0  0  0  0
  9 18  1  1  0  0  0
  9  2  1  0  0  0  0
  9  6  1  0  0  0  0
 10 15  1  0  0  0  0
 11 13  2  0  0  0  0
 14 22  1  6  0  0  0
 15 24  1  0  0  0  0
 16 18  1  0  0  0  0
 17 26  1  1  0  0  0
 18 10  2  0  0  0  0
 19 22  1  0  0  0  0
 20 22  1  0  0  0  0
 22 21  1  0  0  0  0
 23 24  1  0  0  0  0
 26 25  1  6  0  0  0
 26 27  1  0  0  0  0
 27 28  1  1  0  0  0
 27 29  1  0  0  0  0
 29 30  2  0  0  0  0
M  END
>  <MODEL>
6

>  <REMARK>
 VINA RESULT:      -4.9      2.106      3.013
  Name = 
  5 active torsions:
  status: ('A' for Active; 'I' for Inactive)
    1  A    between atoms: C_2  and  C_14
    2  A    between atoms: C_2  and  C_22
    3  A    between atoms: C_11  and  C_25
    4  A    between atoms: C_22  and  C_29
    5  A    between atoms: C_23  and  C_26
                            x       y       z     vdW  Elec       q    Type
                         _______ _______ _______ _____ _____    ______ ____

>  <TORSDO>
F 5

$$$$
=
 OpenBabel10272413473D

 30 33  0  0  1  0  0  0  0  0999 V2000
  183.4560  178.7010  139.1470 C   0  0  1  0  0  0  0  0  0  0  0  0
  183.6330  176.7360  137.5430 C   0  0  0  0  0  0  0  0  0  0  0  0
  184.8570  179.3230  139.0920 C   0  0  2  0  0  3  0  0  0  0  0  0
  187.0480  176.7210  137.3200 C   0  0  0  0  0  3  0  0  0  0  0  0
  183.9560  174.5110  134.5860 C   0  0  0  0  0  1  0  0  0  0  0  0
  185.9430  177.5390  137.6150 C   0  0  0  0  0  0  0  0  0  0  0  0
  187.1590  178.4140  139.5260 C   0  0  0  0  0  3  0  0  0  0  0  0
  185.9820  178.3590  138.7670 C   0  0  0  0  0  0  0  0  0  0  0  0
  184.6830  177.4900  136.7760 C   0  0  1  0  0  3  0  0  0  0  0  0
  184.0590  175.5770  135.6260 C   0  0  0  0  0  0  0  0  0  0  0  0
  188.1960  176.7560  138.1110 C   0  0  0  0  0  3  0  0  0  0  0  0
  182.4050  179.6600  138.6170 C   0  0  0  0  0  1  0  0  0  0  0  0
  188.2540  177.6110  139.2100 C   0  0  0  0  0  3  0  0  0  0  0  0
  183.2180  177.1750  138.9470 C   0  0  2  0  0  3  0  0  0  0  0  0
  183.3410  175.5990  136.8920 C   0  0  0  0  0  0  0  0  0  0  0  0
  185.6490  177.0260  134.3560 C   0  0  0  0  0  1  0  0  0  0  0  0
  184.1190  179.1680  140.4460 C   0  0  2  0  0  3  0  0  0  0  0  0
  184.8090  176.6620  135.5340 C   0  0  0  0  0  0  0  0  0  0  0  0
  181.7690  175.4510  139.8210 F   0  0  0  0  0  0  0  0  0  0  0  0
  180.8930  176.8890  138.3420 F   0  0  0  0  0  0  0  0  0  0  0  0
  181.3570  177.6040  140.4150 O   0  0  0  0  0  1  0  0  0  0  0  0
  181.7900  176.7650  139.3900 C   0  0  0  0  0  0  0  0  0  0  0  0
  181.2110  174.3940  136.5350 C   0  0  0  0  0  1  0  0  0  0  0  0
  182.4780  174.4760  137.3650 C   0  0  0  0  0  2  0  0  0  0  0  0
  183.7300  177.3600  142.0180 O   0  0  0  0  0  1  0  0  0  0  0  0
  184.7280  178.0950  141.3760 C   0  0  2  0  0  3  0  0  0  0  0  0
  185.6430  178.7180  142.4390 C   0  0  1  0  0  3  0  0  0  0  0  0
  184.8580  179.4900  143.4860 C   0  0  0  0  0  1  0  0  0  0  0  0
  186.5240  177.6970  143.0940 C   0  0  0  0  0  3  0  0  0  0  0  0
  187.4150  178.0450  143.8530 O   0  0  0  0  0  0  0  0  0  0  0  0
  1 12  1  6  0  0  0
  1 17  1  0  0  0  0
  2 14  1  0  0  0  0
  3  8  1  1  0  0  0
  3  1  1  0  0  0  0
  3 17  1  0  0  0  0
  4  6  2  0  0  0  0
  4 11  1  0  0  0  0
  5 10  1  0  0  0  0
  6  8  1  0  0  0  0
  8  7  2  0  0  0  0
  9 18  1  6  0  0  0
  9  2  1  0  0  0  0
  9  6  1  0  0  0  0
 10 15  1  0  0  0  0
 11 13  2  0  0  0  0
 13  7  1  0  0  0  0
 14  1  1  0  0  0  0
 14 22  1  6  0  0  0
 15 24  1  0  0  0  0
 15  2  2  0  0  0  0
 16 18  1  0  0  0  0
 17 26  1  1  0  0  0
 18 10  2  0  0  0  0
 20 22  1  0  0  0  0
 22 19  1  0  0  0  0
 22 21  1  0  0  0  0
 23 24  1  0  0  0  0
 26 25  1  1  0  0  0
 26 27  1  0  0  0  0
 27 29  1  0  0  0  0
 27 28  1  1  0  0  0
 29 30  2  0  0  0  0
M  END
>  <MODEL>
7

>  <REMARK>
 VINA RESULT:      -4.8      3.861      6.239
  Name = 
  5 active torsions:
  status: ('A' for Active; 'I' for Inactive)
    1  A    between atoms: C_2  and  C_14
    2  A    between atoms: C_2  and  C_22
    3  A    between atoms: C_11  and  C_25
    4  A    between atoms: C_22  and  C_29
    5  A    between atoms: C_23  and  C_26
                            x       y       z     vdW  Elec       q    Type
                         _______ _______ _______ _____ _____    ______ ____

>  <TORSDO>
F 5

$$$$
=
 OpenBabel10272413473D

 30 33  0  0  1  0  0  0  0  0999 V2000
  188.4320  176.4630  143.8710 C   0  0  1  0  0  0  0  0  0  0  0  0
  187.3980  177.8940  142.0410 C   0  0  0  0  0  0  0  0  0  0  0  0
  187.3930  176.5330  144.9970 C   0  0  2  0  0  3  0  0  0  0  0  0
  185.0150  179.3730  144.0020 C   0  0  0  0  0  3  0  0  0  0  0  0
  185.2950  179.3150  139.3290 C   0  0  0  0  0  1  0  0  0  0  0  0
  185.8380  178.2370  143.8940 C   0  0  0  0  0  0  0  0  0  0  0  0
  186.3520  178.4400  146.2580 C   0  0  0  0  0  3  0  0  0  0  0  0
  186.5570  177.7980  145.0290 C   0  0  0  0  0  0  0  0  0  0  0  0
  186.0360  177.5350  142.5660 C   0  0  1  0  0  3  0  0  0  0  0  0
  185.8530  178.6650  140.5510 C   0  0  0  0  0  0  0  0  0  0  0  0
  184.8560  180.0270  145.2230 C   0  0  0  0  0  3  0  0  0  0  0  0
  188.5830  175.0460  143.3460 C   0  0  0  0  0  1  0  0  0  0  0  0
  185.5180  179.5540  146.3550 C   0  0  0  0  0  3  0  0  0  0  0  0
  188.6540  177.6380  142.8740 C   0  0  2  0  0  3  0  0  0  0  0  0
  187.2630  178.6070  140.9120 C   0  0  0  0  0  0  0  0  0  0  0  0
  183.6660  177.8320  141.4250 C   0  0  0  0  0  1  0  0  0  0  0  0
  188.9060  176.6390  145.3170 C   0  0  2  0  0  3  0  0  0  0  0  0
  185.1440  178.0360  141.4720 C   0  0  0  0  0  0  0  0  0  0  0  0
  190.4980  178.6850  141.7170 F   0  0  0  0  0  0  0  0  0  0  0  0
  189.7500  176.7300  140.9170 F   0  0  0  0  0  0  0  0  0  0  0  0
  190.8950  176.7530  142.8450 O   0  0  0  0  0  1  0  0  0  0  0  0
  189.9700  177.4580  142.0750 C   0  0  0  0  0  0  0  0  0  0  0  0
  188.6450  178.5490  138.8620 C   0  0  0  0  0  1  0  0  0  0  0  0
  188.3360  179.3030  140.1420 C   0  0  0  0  0  2  0  0  0  0  0  0
  190.3380  178.5560  144.9130 O   0  0  0  0  0  1  0  0  0  0  0  0
  189.3570  178.0470  145.7660 C   0  0  2  0  0  3  0  0  0  0  0  0
  189.9060  178.0370  147.1990 C   0  0  1  0  0  3  0  0  0  0  0  0
  188.7980  178.1290  148.2340 C   0  0  0  0  0  1  0  0  0  0  0  0
  190.7710  176.8410  147.4640 C   0  0  0  0  0  3  0  0  0  0  0  0
  191.9820  176.9120  147.3320 O   0  0  0  0  0  0  0  0  0  0  0  0
  1 12  1  6  0  0  0
  1  3  1  0  0  0  0
  1 17  1  0  0  0  0
  2  9  1  0  0  0  0
  2 14  1  0  0  0  0
  3  8  1  6  0  0  0
  3 17  1  0  0  0  0
  4 11  1  0  0  0  0
  5 10  1  0  0  0  0
  6  4  2  0  0  0  0
  6  8  1  0  0  0  0
  7 13  1  0  0  0  0
  8  7  2  0  0  0  0
  9 18  1  6  0  0  0
  9  6  1  0  0  0  0
 10 15  1  0  0  0  0
 10 18  2  0  0  0  0
 11 13  2  0  0  0  0
 14 22  1  6  0  0  0
 14  1  1  0  0  0  0
 15  2  2  0  0  0  0
 16 18  1  0  0  0  0
 17 26  1  6  0  0  0
 19 22  1  0  0  0  0
 20 22  1  0  0  0  0
 22 21  1  0  0  0  0
 23 24  1  0  0  0  0
 24 15  1  0  0  0  0
 26 25  1  6  0  0  0
 26 27  1  0  0  0  0
 27 29  1  0  0  0  0
 27 28  1  1  0  0  0
 30 29  2  0  0  0  0
M  END
>  <MODEL>
8

>  <REMARK>
 VINA RESULT:      -4.4      4.875      8.143
  Name = 
  5 active torsions:
  status: ('A' for Active; 'I' for Inactive)
    1  A    between atoms: C_2  and  C_14
    2  A    between atoms: C_2  and  C_22
    3  A    between atoms: C_11  and  C_25
    4  A    between atoms: C_22  and  C_29
    5  A    between atoms: C_23  and  C_26
                            x       y       z     vdW  Elec       q    Type
                         _______ _______ _______ _____ _____    ______ ____

>  <TORSDO>
F 5

$$$$
=
 OpenBabel10272413473D

 30 33  0  0  1  0  0  0  0  0999 V2000
  187.8870  176.4860  135.5460 C   0  0  1  0  0  0  0  0  0  0  0  0
  186.7900  177.4300  137.6360 C   0  0  0  0  0  0  0  0  0  0  0  0
  186.8150  175.5440  134.9850 C   0  0  2  0  0  3  0  0  0  0  0  0
  184.2410  175.1520  137.8020 C   0  0  0  0  0  3  0  0  0  0  0  0
  184.6530  179.2110  140.0980 C   0  0  0  0  0  1  0  0  0  0  0  0
  185.1560  175.7560  136.9200 C   0  0  0  0  0  0  0  0  0  0  0  0
  185.5860  173.5730  135.9460 C   0  0  0  0  0  3  0  0  0  0  0  0
  185.8770  174.9430  136.0150 C   0  0  0  0  0  0  0  0  0  0  0  0
  185.4470  177.2400  136.9860 C   0  0  1  0  0  3  0  0  0  0  0  0
  185.2290  178.4380  138.9580 C   0  0  0  0  0  0  0  0  0  0  0  0
  183.9950  173.7810  137.7490 C   0  0  0  0  0  3  0  0  0  0  0  0
  188.1670  177.6330  134.5900 C   0  0  0  0  0  1  0  0  0  0  0  0
  184.6620  172.9920  136.8130 C   0  0  0  0  0  3  0  0  0  0  0  0
  188.0390  176.7540  137.0720 C   0  0  2  0  0  3  0  0  0  0  0  0
  186.6280  178.0640  138.8090 C   0  0  0  0  0  0  0  0  0  0  0  0
  183.0940  178.2350  137.6770 C   0  0  0  0  0  1  0  0  0  0  0  0
  188.3040  175.1160  135.0040 C   0  0  2  0  0  3  0  0  0  0  0  0
  184.5480  177.9980  137.9140 C   0  0  0  0  0  0  0  0  0  0  0  0
  189.2420  178.8260  137.3810 F   0  0  0  0  0  0  0  0  0  0  0  0
  190.3510  177.1130  136.4540 F   0  0  0  0  0  0  0  0  0  0  0  0
  189.8490  177.0320  138.6370 O   0  0  0  0  0  1  0  0  0  0  0  0
  189.3870  177.4500  137.3900 C   0  0  0  0  0  0  0  0  0  0  0  0
  187.0220  178.3570  141.2320 C   0  0  0  0  0  1  0  0  0  0  0  0
  187.6610  178.3160  139.8560 C   0  0  0  0  0  2  0  0  0  0  0  0
  189.8060  174.2770  136.7160 O   0  0  0  0  0  1  0  0  0  0  0  0
  188.6260  174.0000  136.0230 C   0  0  2  0  0  3  0  0  0  0  0  0
  188.7630  172.6320  135.3420 C   0  0  1  0  0  3  0  0  0  0  0  0
  190.1940  172.3460  134.9200 C   0  0  0  0  0  1  0  0  0  0  0  0
  188.2400  171.5190  136.2010 C   0  0  0  0  0  3  0  0  0  0  0  0
  187.6730  170.5640  135.6960 O   0  0  0  0  0  0  0  0  0  0  0  0
  1 12  1  6  0  0  0
  1 14  1  0  0  0  0
  2 15  2  0  0  0  0
  3 17  1  0  0  0  0
  3  1  1  0  0  0  0
  3  8  1  1  0  0  0
  6  4  2  0  0  0  0
  7  8  2  0  0  0  0
  7 13  1  0  0  0  0
  8  6  1  0  0  0  0
  9  6  1  1  0  0  0
  9  2  1  0  0  0  0
  9 18  1  0  0  0  0
 10  5  1  0  0  0  0
 11  4  1  0  0  0  0
 13 11  2  0  0  0  0
 14 22  1  6  0  0  0
 14  2  1  0  0  0  0
 15 10  1  0  0  0  0
 15 24  1  0  0  0  0
 16 18  1  0  0  0  0
 17  1  1  0  0  0  0
 17 26  1  1  0  0  0
 18 10  2  0  0  0  0
 19 22  1  0  0  0  0
 20 22  1  0  0  0  0
 22 21  1  0  0  0  0
 24 23  1  0  0  0  0
 26 25  1  6  0  0  0
 27 28  1  1  0  0  0
 27 26  1  0  0  0  0
 27 29  1  0  0  0  0
 30 29  2  0  0  0  0
M  END
>  <MODEL>
9

>  <REMARK>
 VINA RESULT:      -4.3      2.509      6.538
  Name = 
  5 active torsions:
  status: ('A' for Active; 'I' for Inactive)
    1  A    between atoms: C_2  and  C_14
    2  A    between atoms: C_2  and  C_22
    3  A    between atoms: C_11  and  C_25
    4  A    between atoms: C_22  and  C_29
    5  A    between atoms: C_23  and  C_26
                            x       y       z     vdW  Elec       q    Type
                         _______ _______ _______ _____ _____    ______ ____

>  <TORSDO>
F 5

$$$$
