=
 OpenBabel10272401483D

 28 31  0  0  1  0  0  0  0  0999 V2000
  191.4700  179.5570  144.0610 C   0  0  0  0  0  1  0  0  0  0  0  0
  189.8920  177.2970  141.4760 C   0  0  1  0  0  3  0  0  0  0  0  0
  190.0330  177.2070  144.2280 C   0  0  2  0  0  0  0  0  0  0  0  0
  188.5460  177.5730  142.1540 C   0  0  0  0  0  2  0  0  0  0  0  0
  190.2780  177.4010  145.5790 C   0  0  0  0  0  0  0  0  0  0  0  0
  190.8820  176.1560  143.5100 C   0  0  0  0  0  2  0  0  0  0  0  0
  190.7700  178.3610  144.4890 N   0  0  0  0  0  0  0  0  0  0  0  0
  190.5190  176.0150  142.0260 C   0  0  0  0  0  2  0  0  0  0  0  0
  190.1820  177.0620  146.7860 O   0  0  0  0  0  0  0  0  0  0  0  0
  188.6310  177.5460  143.6930 C   0  0  1  0  0  3  0  0  0  0  0  0
  190.8210  176.5720  139.2820 C   0  0  0  0  0  2  0  0  0  0  0  0
  188.2750  177.3970  137.9390 C   0  0  0  0  0  2  0  0  0  0  0  0
  189.3980  176.6360  137.2170 C   0  0  2  0  0  3  0  0  0  0  0  0
  189.7610  177.2470  140.0210 N   0  0  0  0  0  0  0  0  0  0  0  0
  187.9450  178.7260  139.8810 O   0  0  0  0  0  0  0  0  0  0  0  0
  188.6580  177.8550  139.3180 C   0  0  0  0  0  0  0  0  0  0  0  0
  190.2430  175.7510  138.1380 C   0  0  0  0  0  2  0  0  0  0  0  0
  189.4470  177.6400  135.2590 O   0  0  0  0  0  1  0  0  0  0  0  0
  190.1660  177.4370  136.3470 O   0  0  0  0  0  0  0  0  0  0  0  0
  187.5140  176.7000  144.3200 C   0  0  0  0  0  2  0  0  0  0  0  0
  186.3620  177.5080  144.8420 C   0  0  0  0  0  0  0  0  0  0  0  0
  186.2490  177.7290  146.2190 C   0  0  0  0  0  3  0  0  0  0  0  0
  184.3300  178.7880  144.4840 C   0  0  0  0  0  0  0  0  0  0  0  0
  185.1850  178.4820  146.7270 C   0  0  0  0  0  3  0  0  0  0  0  0
  185.4630  177.7970  142.6390 F   0  0  0  0  0  0  0  0  0  0  0  0
  185.3910  178.0310  143.9720 C   0  0  0  0  0  0  0  0  0  0  0  0
  183.3920  179.3000  143.6490 F   0  0  0  0  0  0  0  0  0  0  0  0
  184.2290  179.0130  145.8590 C   0  0  0  0  0  3  0  0  0  0  0  0
  1  7  1  0  0  0  0
  2 14  1  6  0  0  0
  2  8  1  0  0  0  0
  2  4  1  0  0  0  0
  3  6  1  6  0  0  0
  3  7  1  0  0  0  0
  3  5  1  0  0  0  0
  4 10  1  0  0  0  0
  5  9  2  0  0  0  0
  7  5  1  0  0  0  0
  8  6  1  0  0  0  0
 10  3  1  0  0  0  0
 10 20  1  6  0  0  0
 11 14  1  0  0  0  0
 12 16  1  0  0  0  0
 13 19  1  1  0  0  0
 13 12  1  0  0  0  0
 13 17  1  0  0  0  0
 16 15  2  0  0  0  0
 16 14  1  0  0  0  0
 17 11  1  0  0  0  0
 18 19  1  0  0  0  0
 20 21  1  0  0  0  0
 21 22  1  0  0  0  0
 22 24  2  0  0  0  0
 23 28  2  0  0  0  0
 25 26  1  0  0  0  0
 26 23  1  0  0  0  0
 26 21  2  0  0  0  0
 27 23  1  0  0  0  0
 28 24  1  0  0  0  0
M  END
>  <MODEL>
1

>  <REMARK>
 VINA RESULT:      -9.1      0.000      0.000
  Name = 
  4 active torsions:
  status: ('A' for Active; 'I' for Inactive)
    1  A    between atoms: C_1  and  C_2
    2  A    between atoms: C_1  and  C_27
    3  A    between atoms: C_10  and  N_13
    4  A    between atoms: C_12  and  O_23
                            x       y       z     vdW  Elec       q    Type
                         _______ _______ _______ _____ _____    ______ ____

>  <TORSDO>
F 4

$$$$
=
 OpenBabel10272401483D

 28 31  0  0  1  0  0  0  0  0999 V2000
  191.3500  179.6920  143.8570 C   0  0  0  0  0  1  0  0  0  0  0  0
  190.0340  177.3380  141.2090 C   0  0  1  0  0  3  0  0  0  0  0  0
  189.9790  177.3000  143.9660 C   0  0  2  0  0  0  0  0  0  0  0  0
  188.6350  177.5820  141.7840 C   0  0  0  0  0  2  0  0  0  0  0  0
  190.1200  177.5240  145.3270 C   0  0  0  0  0  0  0  0  0  0  0  0
  190.9100  176.2650  143.3310 C   0  0  0  0  0  2  0  0  0  0  0  0
  190.6590  178.4810  144.2560 N   0  0  0  0  0  0  0  0  0  0  0  0
  190.6600  176.0870  141.8280 C   0  0  0  0  0  2  0  0  0  0  0  0
  189.9470  177.2030  146.5310 O   0  0  0  0  0  0  0  0  0  0  0  0
  188.6100  177.5840  143.3250 C   0  0  1  0  0  3  0  0  0  0  0  0
  190.7990  176.2020  139.1300 C   0  0  0  0  0  2  0  0  0  0  0  0
  188.8570  177.8300  137.5340 C   0  0  0  0  0  2  0  0  0  0  0  0
  189.6710  176.6710  136.9390 C   0  0  2  0  0  3  0  0  0  0  0  0
  190.0100  177.2600  139.7510 N   0  0  0  0  0  0  0  0  0  0  0  0
  188.8920  179.2930  139.4070 O   0  0  0  0  0  0  0  0  0  0  0  0
  189.2720  178.1910  138.9330 C   0  0  0  0  0  0  0  0  0  0  0  0
  190.0500  175.5890  137.9550 C   0  0  0  0  0  2  0  0  0  0  0  0
  191.2740  175.9990  135.5880 O   0  0  0  0  0  1  0  0  0  0  0  0
  190.7480  177.0830  136.1280 O   0  0  0  0  0  0  0  0  0  0  0  0
  187.4770  176.7130  143.8870 C   0  0  0  0  0  2  0  0  0  0  0  0
  186.3060  177.4990  144.4010 C   0  0  0  0  0  0  0  0  0  0  0  0
  185.4250  178.0920  143.4900 C   0  0  0  0  0  3  0  0  0  0  0  0
  184.9890  178.3930  146.2350 C   0  0  0  0  0  0  0  0  0  0  0  0
  184.3270  178.8260  143.9480 C   0  0  0  0  0  3  0  0  0  0  0  0
  186.9550  177.1260  146.6790 F   0  0  0  0  0  0  0  0  0  0  0  0
  186.0930  177.6610  145.7800 C   0  0  0  0  0  0  0  0  0  0  0  0
  184.7740  178.5480  147.5640 F   0  0  0  0  0  0  0  0  0  0  0  0
  184.1080  178.9730  145.3190 C   0  0  0  0  0  3  0  0  0  0  0  0
  1  7  1  0  0  0  0
  2 14  1  6  0  0  0
  2  4  1  0  0  0  0
  2  8  1  0  0  0  0
  3  6  1  6  0  0  0
  3  7  1  0  0  0  0
  3  5  1  0  0  0  0
  4 10  1  0  0  0  0
  5  9  2  0  0  0  0
  7  5  1  0  0  0  0
  8  6  1  0  0  0  0
 10 20  1  6  0  0  0
 10  3  1  0  0  0  0
 11 14  1  0  0  0  0
 12 16  1  0  0  0  0
 13 19  1  1  0  0  0
 13 12  1  0  0  0  0
 13 17  1  0  0  0  0
 16 15  2  0  0  0  0
 16 14  1  0  0  0  0
 17 11  1  0  0  0  0
 18 19  1  0  0  0  0
 20 21  1  0  0  0  0
 21 26  1  0  0  0  0
 22 24  1  0  0  0  0
 22 21  2  0  0  0  0
 23 27  1  0  0  0  0
 24 28  2  0  0  0  0
 26 23  2  0  0  0  0
 26 25  1  0  0  0  0
 28 23  1  0  0  0  0
M  END
>  <MODEL>
2

>  <REMARK>
 VINA RESULT:      -9.0      1.298      1.613
  Name = 
  4 active torsions:
  status: ('A' for Active; 'I' for Inactive)
    1  A    between atoms: C_1  and  C_2
    2  A    between atoms: C_1  and  C_27
    3  A    between atoms: C_10  and  N_13
    4  A    between atoms: C_12  and  O_23
                            x       y       z     vdW  Elec       q    Type
                         _______ _______ _______ _____ _____    ______ ____

>  <TORSDO>
F 4

$$$$
=
 OpenBabel10272401483D

 28 31  0  0  1  0  0  0  0  0999 V2000
  192.1530  179.1970  144.2070 C   0  0  0  0  0  1  0  0  0  0  0  0
  189.9350  177.4930  141.6650 C   0  0  1  0  0  3  0  0  0  0  0  0
  190.4680  177.0140  144.3280 C   0  0  2  0  0  0  0  0  0  0  0  0
  188.7500  177.8180  142.5820 C   0  0  0  0  0  2  0  0  0  0  0  0
  190.9330  176.9950  145.6340 C   0  0  0  0  0  0  0  0  0  0  0  0
  191.0600  175.9850  143.3620 C   0  0  0  0  0  2  0  0  0  0  0  0
  191.3770  178.0350  144.5990 N   0  0  0  0  0  0  0  0  0  0  0  0
  190.4670  176.0880  141.9520 C   0  0  0  0  0  2  0  0  0  0  0  0
  190.9740  176.5070  146.7930 O   0  0  0  0  0  0  0  0  0  0  0  0
  189.0580  177.5720  144.0720 C   0  0  1  0  0  3  0  0  0  0  0  0
  190.6100  177.3210  139.2750 C   0  0  0  0  0  2  0  0  0  0  0  0
  187.7840  177.8600  138.4440 C   0  0  0  0  0  2  0  0  0  0  0  0
  188.8870  177.4520  137.4560 C   0  0  2  0  0  3  0  0  0  0  0  0
  189.5850  177.6570  140.2560 N   0  0  0  0  0  0  0  0  0  0  0  0
  187.5540  178.7710  140.6280 O   0  0  0  0  0  0  0  0  0  0  0  0
  188.3000  178.1520  139.8250 C   0  0  0  0  0  0  0  0  0  0  0  0
  189.9990  176.6040  138.0800 C   0  0  0  0  0  2  0  0  0  0  0  0
  188.8820  179.6340  137.1660 O   0  0  0  0  0  1  0  0  0  0  0  0
  189.3670  178.5130  136.6620 O   0  0  0  0  0  0  0  0  0  0  0  0
  187.9470  176.7740  144.7690 C   0  0  0  0  0  2  0  0  0  0  0  0
  186.8050  177.6200  145.2520 C   0  0  0  0  0  0  0  0  0  0  0  0
  185.6710  177.7660  144.4450 C   0  0  0  0  0  3  0  0  0  0  0  0
  185.7830  179.0550  146.9220 C   0  0  0  0  0  0  0  0  0  0  0  0
  184.5950  178.5470  144.8760 C   0  0  0  0  0  3  0  0  0  0  0  0
  187.9690  178.1790  147.2720 F   0  0  0  0  0  0  0  0  0  0  0  0
  186.8640  178.2780  146.4920 C   0  0  0  0  0  0  0  0  0  0  0  0
  185.8310  179.6880  148.1200 F   0  0  0  0  0  0  0  0  0  0  0  0
  184.6500  179.1880  146.1150 C   0  0  0  0  0  3  0  0  0  0  0  0
  1  7  1  0  0  0  0
  2 14  1  6  0  0  0
  2  8  1  0  0  0  0
  2  4  1  0  0  0  0
  3  6  1  6  0  0  0
  3  7  1  0  0  0  0
  3  5  1  0  0  0  0
  4 10  1  0  0  0  0
  5  9  2  0  0  0  0
  7  5  1  0  0  0  0
  8  6  1  0  0  0  0
 10  3  1  0  0  0  0
 10 20  1  6  0  0  0
 11 14  1  0  0  0  0
 12 16  1  0  0  0  0
 13 19  1  1  0  0  0
 13 17  1  0  0  0  0
 13 12  1  0  0  0  0
 16 14  1  0  0  0  0
 16 15  2  0  0  0  0
 17 11  1  0  0  0  0
 19 18  1  0  0  0  0
 20 21  1  0  0  0  0
 21 26  1  0  0  0  0
 22 24  1  0  0  0  0
 22 21  2  0  0  0  0
 23 27  1  0  0  0  0
 24 28  2  0  0  0  0
 26 23  2  0  0  0  0
 26 25  1  0  0  0  0
 28 23  1  0  0  0  0
M  END
>  <MODEL>
3

>  <REMARK>
 VINA RESULT:      -8.6      1.626      1.861
  Name = 
  4 active torsions:
  status: ('A' for Active; 'I' for Inactive)
    1  A    between atoms: C_1  and  C_2
    2  A    between atoms: C_1  and  C_27
    3  A    between atoms: C_10  and  N_13
    4  A    between atoms: C_12  and  O_23
                            x       y       z     vdW  Elec       q    Type
                         _______ _______ _______ _____ _____    ______ ____

>  <TORSDO>
F 4

$$$$
=
 OpenBabel10272401483D

 28 31  0  0  1  0  0  0  0  0999 V2000
  189.2300  177.2880  139.7640 C   0  0  0  0  0  1  0  0  0  0  0  0
  187.1470  177.7300  142.8860 C   0  0  1  0  0  3  0  0  0  0  0  0
  189.7930  177.0840  142.4580 C   0  0  2  0  0  0  0  0  0  0  0  0
  188.1100  178.8520  143.2890 C   0  0  0  0  0  2  0  0  0  0  0  0
  191.0440  176.7610  141.9560 C   0  0  0  0  0  0  0  0  0  0  0  0
  188.9290  175.9310  142.9710 C   0  0  0  0  0  2  0  0  0  0  0  0
  189.8420  177.0990  141.0650 N   0  0  0  0  0  0  0  0  0  0  0  0
  187.5740  176.4030  143.5140 C   0  0  0  0  0  2  0  0  0  0  0  0
  192.2510  176.4350  142.1010 O   0  0  0  0  0  0  0  0  0  0  0  0
  189.5880  178.4990  143.0270 C   0  0  1  0  0  3  0  0  0  0  0  0
  185.4020  178.0400  144.6360 C   0  0  0  0  0  2  0  0  0  0  0  0
  183.5450  179.1660  142.5760 C   0  0  0  0  0  2  0  0  0  0  0  0
  183.2320  179.1680  144.0800 C   0  0  2  0  0  3  0  0  0  0  0  0
  185.7640  178.0620  143.2240 N   0  0  0  0  0  0  0  0  0  0  0  0
  184.9590  178.0570  141.0200 O   0  0  0  0  0  0  0  0  0  0  0  0
  184.7720  178.3740  142.2240 C   0  0  0  0  0  0  0  0  0  0  0  0
  184.4750  179.1980  144.9740 C   0  0  0  0  0  2  0  0  0  0  0  0
  181.0950  178.6420  144.0950 O   0  0  0  0  0  1  0  0  0  0  0  0
  182.2820  178.2020  144.4690 O   0  0  0  0  0  0  0  0  0  0  0  0
  190.4810  178.8100  144.2360 C   0  0  0  0  0  2  0  0  0  0  0  0
  190.1190  178.0380  145.4710 C   0  0  0  0  0  0  0  0  0  0  0  0
  188.9540  178.3720  146.1710 C   0  0  0  0  0  3  0  0  0  0  0  0
  190.5740  176.2900  147.0930 C   0  0  0  0  0  0  0  0  0  0  0  0
  188.5960  177.6640  147.3220 C   0  0  0  0  0  3  0  0  0  0  0  0
  192.0900  176.6840  145.2990 F   0  0  0  0  0  0  0  0  0  0  0  0
  190.9380  176.9990  145.9420 C   0  0  0  0  0  0  0  0  0  0  0  0
  191.3580  175.2820  147.5500 F   0  0  0  0  0  0  0  0  0  0  0  0
  189.4050  176.6220  147.7810 C   0  0  0  0  0  3  0  0  0  0  0  0
  1  7  1  0  0  0  0
  2 14  1  1  0  0  0
  2  4  1  0  0  0  0
  2  8  1  0  0  0  0
  3  6  1  1  0  0  0
  3 10  1  0  0  0  0
  5  9  2  0  0  0  0
  5  3  1  0  0  0  0
  6  8  1  0  0  0  0
  7  5  1  0  0  0  0
  7  3  1  0  0  0  0
 10  4  1  0  0  0  0
 10 20  1  1  0  0  0
 11 17  1  0  0  0  0
 12 13  1  0  0  0  0
 13 19  1  1  0  0  0
 13 17  1  0  0  0  0
 14 11  1  0  0  0  0
 15 16  2  0  0  0  0
 16 12  1  0  0  0  0
 16 14  1  0  0  0  0
 18 19  1  0  0  0  0
 20 21  1  0  0  0  0
 21 26  2  0  0  0  0
 21 22  1  0  0  0  0
 22 24  2  0  0  0  0
 23 27  1  0  0  0  0
 23 28  2  0  0  0  0
 24 28  1  0  0  0  0
 25 26  1  0  0  0  0
 26 23  1  0  0  0  0
M  END
>  <MODEL>
4

>  <REMARK>
 VINA RESULT:      -8.0      3.516      6.170
  Name = 
  4 active torsions:
  status: ('A' for Active; 'I' for Inactive)
    1  A    between atoms: C_1  and  C_2
    2  A    between atoms: C_1  and  C_27
    3  A    between atoms: C_10  and  N_13
    4  A    between atoms: C_12  and  O_23
                            x       y       z     vdW  Elec       q    Type
                         _______ _______ _______ _____ _____    ______ ____

>  <TORSDO>
F 4

$$$$
=
 OpenBabel10272401483D

 28 31  0  0  1  0  0  0  0  0999 V2000
  186.4850  175.4250  136.9700 C   0  0  0  0  0  1  0  0  0  0  0  0
  190.0240  176.7060  137.3040 C   0  0  1  0  0  3  0  0  0  0  0  0
  187.5650  177.7550  137.9800 C   0  0  2  0  0  0  0  0  0  0  0  0
  189.7900  176.7590  138.8180 C   0  0  0  0  0  2  0  0  0  0  0  0
  186.2240  178.0380  138.1860 C   0  0  0  0  0  0  0  0  0  0  0  0
  188.2470  178.4390  136.7930 C   0  0  0  0  0  2  0  0  0  0  0  0
  186.7200  176.7300  137.5570 N   0  0  0  0  0  0  0  0  0  0  0  0
  189.7290  178.0650  136.6670 C   0  0  0  0  0  2  0  0  0  0  0  0
  185.2930  178.7850  138.5820 O   0  0  0  0  0  0  0  0  0  0  0  0
  188.4060  177.3220  139.1940 C   0  0  1  0  0  3  0  0  0  0  0  0
  192.4240  176.5490  137.9480 C   0  0  0  0  0  2  0  0  0  0  0  0
  192.9080  174.6730  135.6650 C   0  0  0  0  0  2  0  0  0  0  0  0
  193.9650  174.9840  136.7360 C   0  0  2  0  0  3  0  0  0  0  0  0
  191.3730  176.2460  136.9840 N   0  0  0  0  0  0  0  0  0  0  0  0
  190.9000  175.5890  134.7820 O   0  0  0  0  0  0  0  0  0  0  0  0
  191.6880  175.5460  135.7620 C   0  0  0  0  0  0  0  0  0  0  0  0
  193.3770  175.3720  138.0960 C   0  0  0  0  0  2  0  0  0  0  0  0
  196.1210  175.4150  136.8190 O   0  0  0  0  0  1  0  0  0  0  0  0
  194.9880  175.8480  136.2980 O   0  0  0  0  0  0  0  0  0  0  0  0
  188.4950  178.3930  140.2910 C   0  0  0  0  0  2  0  0  0  0  0  0
  188.0030  177.9290  141.6300 C   0  0  0  0  0  0  0  0  0  0  0  0
  188.7450  176.9820  142.3430 C   0  0  0  0  0  3  0  0  0  0  0  0
  186.3690  177.9770  143.4250 C   0  0  0  0  0  0  0  0  0  0  0  0
  188.3070  176.5380  143.5940 C   0  0  0  0  0  3  0  0  0  0  0  0
  186.0490  179.3110  141.4790 F   0  0  0  0  0  0  0  0  0  0  0  0
  186.8020  178.4200  142.1700 C   0  0  0  0  0  0  0  0  0  0  0  0
  185.2140  178.4510  143.9550 F   0  0  0  0  0  0  0  0  0  0  0  0
  187.1210  177.0380  144.1360 C   0  0  0  0  0  3  0  0  0  0  0  0
  1  7  1  0  0  0  0
  2  8  1  1  0  0  0
  2  4  1  0  0  0  0
  3  6  1  6  0  0  0
  3  5  1  0  0  0  0
  3 10  1  0  0  0  0
  4 10  1  0  0  0  0
  5  9  2  0  0  0  0
  7  3  1  0  0  0  0
  7  5  1  0  0  0  0
  8  6  1  0  0  0  0
 10 20  1  1  0  0  0
 11 17  1  0  0  0  0
 12 16  1  0  0  0  0
 12 13  1  0  0  0  0
 13 19  1  6  0  0  0
 13 17  1  0  0  0  0
 14  2  1  0  0  0  0
 14 11  1  0  0  0  0
 15 16  2  0  0  0  0
 16 14  1  0  0  0  0
 19 18  1  0  0  0  0
 20 21  1  0  0  0  0
 21 26  2  0  0  0  0
 21 22  1  0  0  0  0
 22 24  2  0  0  0  0
 23 27  1  0  0  0  0
 23 28  2  0  0  0  0
 24 28  1  0  0  0  0
 25 26  1  0  0  0  0
 26 23  1  0  0  0  0
M  END
>  <MODEL>
5

>  <REMARK>
 VINA RESULT:      -7.9      3.179      5.543
  Name = 
  4 active torsions:
  status: ('A' for Active; 'I' for Inactive)
    1  A    between atoms: C_1  and  C_2
    2  A    between atoms: C_1  and  C_27
    3  A    between atoms: C_10  and  N_13
    4  A    between atoms: C_12  and  O_23
                            x       y       z     vdW  Elec       q    Type
                         _______ _______ _______ _____ _____    ______ ____

>  <TORSDO>
F 4

$$$$
=
 OpenBabel10272401483D

 28 31  0  0  1  0  0  0  0  0999 V2000
  186.5050  175.4500  137.0030 C   0  0  0  0  0  1  0  0  0  0  0  0
  190.0320  176.7820  137.2530 C   0  0  1  0  0  3  0  0  0  0  0  0
  187.5690  177.8240  137.9220 C   0  0  2  0  0  0  0  0  0  0  0  0
  189.8150  176.8830  138.7670 C   0  0  0  0  0  2  0  0  0  0  0  0
  186.2260  178.0990  138.1350 C   0  0  0  0  0  0  0  0  0  0  0  0
  188.2290  178.4760  136.7060 C   0  0  0  0  0  2  0  0  0  0  0  0
  186.7310  176.7770  137.5430 N   0  0  0  0  0  0  0  0  0  0  0  0
  189.7140  178.1160  136.5750 C   0  0  0  0  0  2  0  0  0  0  0  0
  185.2910  178.8490  138.5160 O   0  0  0  0  0  0  0  0  0  0  0  0
  188.4280  177.4430  139.1400 C   0  0  1  0  0  3  0  0  0  0  0  0
  192.4270  176.6080  137.9110 C   0  0  0  0  0  2  0  0  0  0  0  0
  192.9250  174.7820  135.5910 C   0  0  0  0  0  2  0  0  0  0  0  0
  193.9750  175.0660  136.6760 C   0  0  2  0  0  3  0  0  0  0  0  0
  191.3830  176.3270  136.9330 N   0  0  0  0  0  0  0  0  0  0  0  0
  190.9250  175.7200  134.7130 O   0  0  0  0  0  0  0  0  0  0  0  0
  191.7060  175.6530  135.6990 C   0  0  0  0  0  0  0  0  0  0  0  0
  193.3780  175.4260  138.0400 C   0  0  0  0  0  2  0  0  0  0  0  0
  196.1310  175.4930  136.7860 O   0  0  0  0  0  1  0  0  0  0  0  0
  195.0030  175.9390  136.2650 O   0  0  0  0  0  0  0  0  0  0  0  0
  188.5170  178.5500  140.1990 C   0  0  0  0  0  2  0  0  0  0  0  0
  187.9210  178.1710  141.5230 C   0  0  0  0  0  0  0  0  0  0  0  0
  186.6060  178.5490  141.8170 C   0  0  0  0  0  3  0  0  0  0  0  0
  188.0860  177.1100  143.7010 C   0  0  0  0  0  0  0  0  0  0  0  0
  186.0300  178.2030  143.0430 C   0  0  0  0  0  3  0  0  0  0  0  0
  189.9550  177.1140  142.2260 F   0  0  0  0  0  0  0  0  0  0  0  0
  188.6680  177.4580  142.4760 C   0  0  0  0  0  0  0  0  0  0  0  0
  188.7990  176.4170  144.6230 F   0  0  0  0  0  0  0  0  0  0  0  0
  186.7690  177.4820  143.9830 C   0  0  0  0  0  3  0  0  0  0  0  0
  1  7  1  0  0  0  0
  2  8  1  6  0  0  0
  2  4  1  0  0  0  0
  3  6  1  6  0  0  0
  3  5  1  0  0  0  0
  3 10  1  0  0  0  0
  4 10  1  0  0  0  0
  5  9  2  0  0  0  0
  7  3  1  0  0  0  0
  7  5  1  0  0  0  0
  8  6  1  0  0  0  0
 10 20  1  1  0  0  0
 11 17  1  0  0  0  0
 12 16  1  0  0  0  0
 12 13  1  0  0  0  0
 13 19  1  6  0  0  0
 13 17  1  0  0  0  0
 14  2  1  0  0  0  0
 14 11  1  0  0  0  0
 15 16  2  0  0  0  0
 16 14  1  0  0  0  0
 19 18  1  0  0  0  0
 20 21  1  0  0  0  0
 21 22  2  0  0  0  0
 21 26  1  0  0  0  0
 22 24  1  0  0  0  0
 23 28  1  0  0  0  0
 23 27  1  0  0  0  0
 24 28  2  0  0  0  0
 25 26  1  0  0  0  0
 26 23  2  0  0  0  0
M  END
>  <MODEL>
6

>  <REMARK>
 VINA RESULT:      -7.9      3.443      5.747
  Name = 
  4 active torsions:
  status: ('A' for Active; 'I' for Inactive)
    1  A    between atoms: C_1  and  C_2
    2  A    between atoms: C_1  and  C_27
    3  A    between atoms: C_10  and  N_13
    4  A    between atoms: C_12  and  O_23
                            x       y       z     vdW  Elec       q    Type
                         _______ _______ _______ _____ _____    ______ ____

>  <TORSDO>
F 4

$$$$
=
 OpenBabel10272401483D

 28 31  0  0  1  0  0  0  0  0999 V2000
  191.5490  179.7850  144.0260 C   0  0  0  0  0  1  0  0  0  0  0  0
  190.0370  177.4140  141.5010 C   0  0  1  0  0  3  0  0  0  0  0  0
  189.9430  177.5520  144.2530 C   0  0  2  0  0  0  0  0  0  0  0  0
  188.6620  177.8310  142.0330 C   0  0  0  0  0  2  0  0  0  0  0  0
  190.0880  177.8450  145.6000 C   0  0  0  0  0  0  0  0  0  0  0  0
  190.7730  176.3920  143.6990 C   0  0  0  0  0  2  0  0  0  0  0  0
  190.7340  178.6750  144.4850 N   0  0  0  0  0  0  0  0  0  0  0  0
  190.5250  176.1480  142.2060 C   0  0  0  0  0  2  0  0  0  0  0  0
  189.8680  177.6180  146.8180 O   0  0  0  0  0  0  0  0  0  0  0  0
  188.6170  177.9310  143.5710 C   0  0  1  0  0  3  0  0  0  0  0  0
  190.9760  176.3020  139.4810 C   0  0  0  0  0  2  0  0  0  0  0  0
  188.7880  177.4890  137.8170 C   0  0  0  0  0  2  0  0  0  0  0  0
  189.7820  176.4490  137.2790 C   0  0  2  0  0  3  0  0  0  0  0  0
  190.0240  177.2490  140.0490 N   0  0  0  0  0  0  0  0  0  0  0  0
  188.5810  179.0440  139.6030 O   0  0  0  0  0  0  0  0  0  0  0  0
  189.1390  177.9950  139.1880 C   0  0  0  0  0  0  0  0  0  0  0  0
  190.3380  175.5060  138.3510 C   0  0  0  0  0  2  0  0  0  0  0  0
  191.4580  175.9750  135.9330 O   0  0  0  0  0  1  0  0  0  0  0  0
  190.7740  176.9870  136.4350 O   0  0  0  0  0  0  0  0  0  0  0  0
  187.3960  177.2140  144.1630 C   0  0  0  0  0  2  0  0  0  0  0  0
  186.0860  177.8530  143.8060 C   0  0  0  0  0  0  0  0  0  0  0  0
  185.8480  178.2370  142.4820 C   0  0  0  0  0  3  0  0  0  0  0  0
  183.8870  178.6780  144.4240 C   0  0  0  0  0  0  0  0  0  0  0  0
  184.6330  178.8320  142.1270 C   0  0  0  0  0  3  0  0  0  0  0  0
  185.3290  177.7560  146.0790 F   0  0  0  0  0  0  0  0  0  0  0  0
  185.1040  178.0870  144.7840 C   0  0  0  0  0  0  0  0  0  0  0  0
  182.9330  178.9010  145.3610 F   0  0  0  0  0  0  0  0  0  0  0  0
  183.6530  179.0490  143.0980 C   0  0  0  0  0  3  0  0  0  0  0  0
  1  7  1  0  0  0  0
  2 14  1  6  0  0  0
  2  4  1  0  0  0  0
  2  8  1  0  0  0  0
  3  6  1  6  0  0  0
  3  7  1  0  0  0  0
  3  5  1  0  0  0  0
  4 10  1  0  0  0  0
  5  9  2  0  0  0  0
  7  5  1  0  0  0  0
  8  6  1  0  0  0  0
 10 20  1  1  0  0  0
 10  3  1  0  0  0  0
 11 14  1  0  0  0  0
 12 16  1  0  0  0  0
 13 19  1  1  0  0  0
 13 12  1  0  0  0  0
 13 17  1  0  0  0  0
 16 15  2  0  0  0  0
 16 14  1  0  0  0  0
 17 11  1  0  0  0  0
 18 19  1  0  0  0  0
 21 20  1  0  0  0  0
 21 26  1  0  0  0  0
 22 21  2  0  0  0  0
 23 26  2  0  0  0  0
 23 27  1  0  0  0  0
 24 22  1  0  0  0  0
 24 28  2  0  0  0  0
 26 25  1  0  0  0  0
 28 23  1  0  0  0  0
M  END
>  <MODEL>
7

>  <REMARK>
 VINA RESULT:      -7.7      1.108      1.609
  Name = 
  4 active torsions:
  status: ('A' for Active; 'I' for Inactive)
    1  A    between atoms: C_1  and  C_2
    2  A    between atoms: C_1  and  C_27
    3  A    between atoms: C_10  and  N_13
    4  A    between atoms: C_12  and  O_23
                            x       y       z     vdW  Elec       q    Type
                         _______ _______ _______ _____ _____    ______ ____

>  <TORSDO>
F 4

$$$$
=
 OpenBabel10272401483D

 28 31  0  0  1  0  0  0  0  0999 V2000
  179.9820  176.8120  141.0940 C   0  0  0  0  0  1  0  0  0  0  0  0
  183.1490  177.5920  139.1850 C   0  0  1  0  0  3  0  0  0  0  0  0
  181.7320  178.9460  141.1250 C   0  0  2  0  0  0  0  0  0  0  0  0
  183.8720  177.6350  140.5350 C   0  0  0  0  0  2  0  0  0  0  0  0
  180.8260  179.4030  142.0700 C   0  0  0  0  0  0  0  0  0  0  0  0
  181.6510  179.5630  139.7270 C   0  0  0  0  0  2  0  0  0  0  0  0
  180.6820  178.0580  141.3480 N   0  0  0  0  0  0  0  0  0  0  0  0
  182.7050  178.9950  138.7680 C   0  0  0  0  0  2  0  0  0  0  0  0
  180.4170  180.2590  142.8950 O   0  0  0  0  0  0  0  0  0  0  0  0
  183.0690  178.3710  141.6250 C   0  0  1  0  0  3  0  0  0  0  0  0
  185.0260  177.7730  137.5590 C   0  0  0  0  0  2  0  0  0  0  0  0
  184.8540  174.8290  137.0420 C   0  0  0  0  0  2  0  0  0  0  0  0
  185.9760  175.7160  136.4820 C   0  0  2  0  0  3  0  0  0  0  0  0
  183.9700  176.9620  138.1540 N   0  0  0  0  0  0  0  0  0  0  0  0
  182.6600  175.0290  137.9330 O   0  0  0  0  0  0  0  0  0  0  0  0
  183.7530  175.6090  137.7040 C   0  0  0  0  0  0  0  0  0  0  0  0
  186.2850  176.9470  137.3410 C   0  0  0  0  0  2  0  0  0  0  0  0
  186.8210  176.8360  134.7860 O   0  0  0  0  0  1  0  0  0  0  0  0
  185.8450  176.0080  135.1090 O   0  0  0  0  0  0  0  0  0  0  0  0
  183.9270  179.3890  142.3890 C   0  0  0  0  0  2  0  0  0  0  0  0
  184.7180  178.7910  143.5150 C   0  0  0  0  0  0  0  0  0  0  0  0
  185.9600  178.2060  143.2450 C   0  0  0  0  0  3  0  0  0  0  0  0
  184.9840  178.2390  145.8640 C   0  0  0  0  0  0  0  0  0  0  0  0
  186.7150  177.6460  144.2800 C   0  0  0  0  0  3  0  0  0  0  0  0
  183.0060  179.3260  145.1070 F   0  0  0  0  0  0  0  0  0  0  0  0
  184.2230  178.7960  144.8300 C   0  0  0  0  0  0  0  0  0  0  0  0
  184.5150  178.2450  147.1360 F   0  0  0  0  0  0  0  0  0  0  0  0
  186.2280  177.6650  145.5890 C   0  0  0  0  0  3  0  0  0  0  0  0
  1  7  1  0  0  0  0
  2 14  1  6  0  0  0
  2  4  1  0  0  0  0
  3  6  1  6  0  0  0
  3  7  1  0  0  0  0
  3 10  1  0  0  0  0
  3  5  1  0  0  0  0
  4 10  1  0  0  0  0
  5  9  2  0  0  0  0
  7  5  1  0  0  0  0
  8  2  1  0  0  0  0
  8  6  1  0  0  0  0
 10 20  1  6  0  0  0
 11 14  1  0  0  0  0
 12 16  1  0  0  0  0
 13 19  1  6  0  0  0
 13 12  1  0  0  0  0
 13 17  1  0  0  0  0
 16 15  2  0  0  0  0
 16 14  1  0  0  0  0
 17 11  1  0  0  0  0
 18 19  1  0  0  0  0
 20 21  1  0  0  0  0
 21 26  1  0  0  0  0
 22 21  2  0  0  0  0
 22 24  1  0  0  0  0
 23 27  1  0  0  0  0
 24 28  2  0  0  0  0
 26 25  1  0  0  0  0
 26 23  2  0  0  0  0
 28 23  1  0  0  0  0
M  END
>  <MODEL>
8

>  <REMARK>
 VINA RESULT:      -7.4      4.393      6.523
  Name = 
  4 active torsions:
  status: ('A' for Active; 'I' for Inactive)
    1  A    between atoms: C_1  and  C_2
    2  A    between atoms: C_1  and  C_27
    3  A    between atoms: C_10  and  N_13
    4  A    between atoms: C_12  and  O_23
                            x       y       z     vdW  Elec       q    Type
                         _______ _______ _______ _____ _____    ______ ____

>  <TORSDO>
F 4

$$$$
=
 OpenBabel10272401483D

 28 31  0  0  1  0  0  0  0  0999 V2000
  191.8620  175.1590  143.7210 C   0  0  0  0  0  1  0  0  0  0  0  0
  189.1770  177.7760  144.1910 C   0  0  1  0  0  3  0  0  0  0  0  0
  191.2410  177.4920  142.3840 C   0  0  2  0  0  0  0  0  0  0  0  0
  188.6930  177.4370  142.7770 C   0  0  0  0  0  2  0  0  0  0  0  0
  192.3490  177.1140  141.6430 C   0  0  0  0  0  0  0  0  0  0  0  0
  191.4350  178.6140  143.4060 C   0  0  0  0  0  2  0  0  0  0  0  0
  191.8110  176.3000  142.8260 N   0  0  0  0  0  0  0  0  0  0  0  0
  190.1450  178.9600  144.1580 C   0  0  0  0  0  2  0  0  0  0  0  0
  193.1780  177.2880  140.7120 O   0  0  0  0  0  0  0  0  0  0  0  0
  189.8490  177.2540  141.7730 C   0  0  1  0  0  3  0  0  0  0  0  0
  186.7750  178.3620  144.4910 C   0  0  0  0  0  2  0  0  0  0  0  0
  186.9950  177.7400  147.4110 C   0  0  0  0  0  2  0  0  0  0  0  0
  185.6610  178.0490  146.7160 C   0  0  2  0  0  3  0  0  0  0  0  0
  188.0580  178.0240  145.0970 N   0  0  0  0  0  0  0  0  0  0  0  0
  189.3280  178.0380  147.0690 O   0  0  0  0  0  0  0  0  0  0  0  0
  188.1920  177.9710  146.5320 C   0  0  0  0  0  0  0  0  0  0  0  0
  185.6320  177.6810  145.2300 C   0  0  0  0  0  2  0  0  0  0  0  0
  185.9820  179.9110  147.8460 O   0  0  0  0  0  1  0  0  0  0  0  0
  185.1600  179.3400  146.9850 O   0  0  0  0  0  0  0  0  0  0  0  0
  189.6110  178.0290  140.4690 C   0  0  0  0  0  2  0  0  0  0  0  0
  189.3670  177.1490  139.2780 C   0  0  0  0  0  0  0  0  0  0  0  0
  190.3780  176.2850  138.8460 C   0  0  0  0  0  3  0  0  0  0  0  0
  187.9420  176.3580  137.4790 C   0  0  0  0  0  0  0  0  0  0  0  0
  190.1710  175.4550  137.7400 C   0  0  0  0  0  3  0  0  0  0  0  0
  187.1680  178.0520  138.9630 F   0  0  0  0  0  0  0  0  0  0  0  0
  188.1470  177.1940  138.5820 C   0  0  0  0  0  0  0  0  0  0  0  0
  186.7640  176.3920  136.8060 F   0  0  0  0  0  0  0  0  0  0  0  0
  188.9520  175.4900  137.0590 C   0  0  0  0  0  3  0  0  0  0  0  0
  2  4  1  6  0  0  0
  2 14  1  0  0  0  0
  3  7  1  0  0  0  0
  3  6  1  1  0  0  0
  5  3  1  0  0  0  0
  5  7  1  0  0  0  0
  6  8  1  0  0  0  0
  7  1  1  0  0  0  0
  8  2  1  0  0  0  0
  9  5  2  0  0  0  0
 10 20  1  6  0  0  0
 10  3  1  0  0  0  0
 10  4  1  0  0  0  0
 11 14  1  0  0  0  0
 11 17  1  0  0  0  0
 13 19  1  6  0  0  0
 13 12  1  0  0  0  0
 14 16  1  0  0  0  0
 16 15  2  0  0  0  0
 16 12  1  0  0  0  0
 17 13  1  0  0  0  0
 19 18  1  0  0  0  0
 21 20  1  0  0  0  0
 22 21  1  0  0  0  0
 23 26  1  0  0  0  0
 24 22  2  0  0  0  0
 26 25  1  0  0  0  0
 26 21  2  0  0  0  0
 27 23  1  0  0  0  0
 28 23  2  0  0  0  0
 28 24  1  0  0  0  0
M  END
>  <MODEL>
9

>  <REMARK>
 VINA RESULT:      -7.3      2.723      7.208
  Name = 
  4 active torsions:
  status: ('A' for Active; 'I' for Inactive)
    1  A    between atoms: C_1  and  C_2
    2  A    between atoms: C_1  and  C_27
    3  A    between atoms: C_10  and  N_13
    4  A    between atoms: C_12  and  O_23
                            x       y       z     vdW  Elec       q    Type
                         _______ _______ _______ _____ _____    ______ ____

>  <TORSDO>
F 4

$$$$
