=
 OpenBabel10272415153D

 34 37  0  0  1  0  0  0  0  0999 V2000
  188.3810  177.8400  144.3810 C   0  0  1  0  0  0  0  0  0  0  0  0
  190.4330  177.3580  147.4710 C   0  0  0  0  0  2  0  0  0  0  0  0
  188.1050  177.1980  147.1200 C   0  0  0  0  0  2  0  0  0  0  0  0
  188.5200  176.4800  144.0830 O   0  0  0  0  0  1  0  0  0  0  0  0
  185.8900  178.4340  144.3280 C   0  0  0  0  0  3  0  0  0  0  0  0
  184.5490  178.2420  146.3350 C   0  0  0  0  0  3  0  0  0  0  0  0
  184.6550  178.5450  144.9750 C   0  0  0  0  0  3  0  0  0  0  0  0
  186.9090  177.7190  146.4000 C   0  0  0  0  0  0  0  0  0  0  0  0
  187.0340  178.0380  145.0430 C   0  0  0  0  0  0  0  0  0  0  0  0
  185.6740  177.8200  147.0470 C   0  0  0  0  0  3  0  0  0  0  0  0
  190.9830  176.2220  146.6160 C   0  0  0  0  0  2  0  0  0  0  0  0
  191.5940  176.7780  145.3330 C   0  0  2  0  0  3  0  0  0  0  0  0
  189.2900  178.0110  146.8220 N   0  0  2  0  0  0  0  0  0  0  0  0
  190.9530  178.0890  144.8680 C   0  0  0  0  0  2  0  0  0  0  0  0
  189.5060  178.2870  145.3650 C   0  0  1  0  0  3  0  0  0  0  0  0
  188.4610  178.6690  143.0860 C   0  0  0  0  0  2  0  0  0  0  0  0
  187.9660  177.9180  141.8550 C   0  0  0  0  0  2  0  0  0  0  0  0
  188.2180  178.7330  140.5970 C   0  0  0  0  0  2  0  0  0  0  0  0
  188.2180  177.8460  139.3600 C   0  0  0  0  0  2  0  0  0  0  0  0
  188.1100  177.4470  135.4420 C   0  0  1  0  0  3  0  0  0  0  0  0
  186.7540  177.8980  135.9950 C   0  0  0  0  0  2  0  0  0  0  0  0
  186.7160  177.7890  137.5230 C   0  0  1  0  0  3  0  0  0  0  0  0
  188.9380  178.8650  137.3570 C   0  0  0  0  0  2  0  0  0  0  0  0
  187.7570  178.5950  138.1960 N   0  0  0  0  0  0  0  0  0  0  0  0
  189.2670  177.7020  136.4190 C   0  0  0  0  0  2  0  0  0  0  0  0
  188.0500  175.9860  134.9940 C   0  0  1  0  0  3  0  0  0  0  0  0
  188.7100  175.0770  136.0150 C   0  0  0  0  0  1  0  0  0  0  0  0
  186.7300  175.5800  134.7790 O   0  0  0  0  0  1  0  0  0  0  0  0
  185.3280  178.1360  138.0560 C   0  0  0  0  0  2  0  0  0  0  0  0
  184.2500  177.2380  137.4700 C   0  0  0  0  0  1  0  0  0  0  0  0
  191.5390  175.5310  144.0130 S   0  0  0  0  0  0  0  0  0  0  0  0
  191.8890  176.7590  142.7140 C   0  0  0  0  0  2  0  0  0  0  0  0
  191.0390  176.4960  141.4810 C   0  0  0  0  0  2  0  0  0  0  0  0
  191.5850  177.2600  140.2900 C   0  0  0  0  0  1  0  0  0  0  0  0
  1  4  1  6  0  0  0
  1  9  1  0  0  0  0
  1 15  1  0  0  0  0
  5  7  2  0  0  0  0
  5  9  1  0  0  0  0
  6 10  2  0  0  0  0
  7  6  1  0  0  0  0
  8 10  1  0  0  0  0
  8  3  1  0  0  0  0
  9  8  2  0  0  0  0
 11  2  1  0  0  0  0
 12 31  1  6  0  0  0
 12 11  1  0  0  0  0
 13  3  1  6  0  0  0
 13  2  1  0  0  0  0
 14 12  1  0  0  0  0
 15 14  1  6  0  0  0
 15 13  1  0  0  0  0
 16  1  1  0  0  0  0
 17 16  1  0  0  0  0
 18 17  1  0  0  0  0
 19 18  1  0  0  0  0
 20 26  1  1  0  0  0
 20 21  1  0  0  0  0
 20 25  1  0  0  0  0
 21 22  1  0  0  0  0
 22 29  1  1  0  0  0
 22 24  1  0  0  0  0
 23 24  1  0  0  0  0
 24 19  1  0  0  0  0
 25 23  1  0  0  0  0
 26 27  1  1  0  0  0
 28 26  1  0  0  0  0
 30 29  1  0  0  0  0
 32 31  1  0  0  0  0
 33 32  1  0  0  0  0
 34 33  1  0  0  0  0
M  END
>  <MODEL>
1

>  <REMARK>
 VINA RESULT:      -7.2      0.000      0.000
  Name = 
  10 active torsions:
  status: ('A' for Active; 'I' for Inactive)
    1  A    between atoms: C_1  and  C_8
    2  A    between atoms: C_3  and  C_13
    3  A    between atoms: C_4  and  C_16
    4  A    between atoms: C_6  and  N_28
    5  A    between atoms: C_6  and  C_30
    6  A    between atoms: C_7  and  C_11
    7  A    between atoms: C_8  and  C_18
    8  A    between atoms: C_13  and  S_27
    9  A    between atoms: C_18  and  C_30
   10  A    between atoms: C_25  and  S_27
                            x       y       z     vdW  Elec       q    Type
                         _______ _______ _______ _____ _____    ______ ____

>  <TORSDO>
F 10

$$$$
=
 OpenBabel10272415153D

 34 37  0  0  1  0  0  0  0  0999 V2000
  189.3130  177.3470  137.8810 C   0  0  1  0  0  0  0  0  0  0  0  0
  188.0930  177.4770  134.3480 C   0  0  0  0  0  2  0  0  0  0  0  0
  189.9050  176.3170  135.3170 C   0  0  0  0  0  2  0  0  0  0  0  0
  188.4800  176.2500  138.1230 O   0  0  0  0  0  1  0  0  0  0  0  0
  191.6920  176.7390  138.6120 C   0  0  0  0  0  3  0  0  0  0  0  0
  193.2220  175.7100  137.0420 C   0  0  0  0  0  3  0  0  0  0  0  0
  192.9470  176.1940  138.3240 C   0  0  0  0  0  3  0  0  0  0  0  0
  190.9910  176.3180  136.3360 C   0  0  0  0  0  0  0  0  0  0  0  0
  190.7080  176.8240  137.6110 C   0  0  0  0  0  0  0  0  0  0  0  0
  192.2410  175.7640  136.0490 C   0  0  0  0  0  3  0  0  0  0  0  0
  186.8820  176.8340  135.0160 C   0  0  0  0  0  2  0  0  0  0  0  0
  186.3180  177.7610  136.0880 C   0  0  2  0  0  3  0  0  0  0  0  0
  189.2130  177.6110  135.2860 N   0  0  2  0  0  0  0  0  0  0  0  0
  187.3700  178.6810  136.7160 C   0  0  0  0  0  2  0  0  0  0  0  0
  188.8100  178.1330  136.6310 C   0  0  1  0  0  3  0  0  0  0  0  0
  189.3250  178.2740  139.1100 C   0  0  0  0  0  2  0  0  0  0  0  0
  188.8040  177.6060  140.3780 C   0  0  0  0  0  2  0  0  0  0  0  0
  189.7820  177.8020  141.5240 C   0  0  0  0  0  2  0  0  0  0  0  0
  189.0710  178.3040  142.7730 C   0  0  0  0  0  2  0  0  0  0  0  0
  187.4400  177.2680  146.2060 C   0  0  1  0  0  3  0  0  0  0  0  0
  186.3990  177.3050  145.0830 C   0  0  0  0  0  2  0  0  0  0  0  0
  186.9690  177.9660  143.8220 C   0  0  1  0  0  3  0  0  0  0  0  0
  188.9140  176.5150  144.3020 C   0  0  0  0  0  2  0  0  0  0  0  0
  188.1670  177.2830  143.2910 N   0  0  0  0  0  0  0  0  0  0  0  0
  188.8810  177.1760  145.6810 C   0  0  0  0  0  2  0  0  0  0  0  0
  187.2510  178.4500  147.1570 C   0  0  1  0  0  3  0  0  0  0  0  0
  185.7870  178.8450  147.2470 C   0  0  0  0  0  1  0  0  0  0  0  0
  187.7430  178.1550  148.4310 O   0  0  0  0  0  1  0  0  0  0  0  0
  185.8930  178.0980  142.7470 C   0  0  0  0  0  2  0  0  0  0  0  0
  184.8350  179.1240  143.1200 C   0  0  0  0  0  1  0  0  0  0  0  0
  185.4560  176.8010  137.3670 S   0  0  0  0  0  0  0  0  0  0  0  0
  185.3900  178.2150  138.5130 C   0  0  0  0  0  2  0  0  0  0  0  0
  183.9500  178.6240  138.7810 C   0  0  0  0  0  2  0  0  0  0  0  0
  183.4240  177.9230  140.0200 C   0  0  0  0  0  1  0  0  0  0  0  0
  1  4  1  1  0  0  0
  1 16  1  0  0  0  0
  2 11  1  0  0  0  0
  3  8  1  0  0  0  0
  6  7  2  0  0  0  0
  7  5  1  0  0  0  0
  8  9  1  0  0  0  0
  9  1  1  0  0  0  0
  9  5  2  0  0  0  0
 10  8  2  0  0  0  0
 10  6  1  0  0  0  0
 11 12  1  0  0  0  0
 12 14  1  0  0  0  0
 12 31  1  1  0  0  0
 13  2  1  6  0  0  0
 13  3  1  0  0  0  0
 13 15  1  0  0  0  0
 15 14  1  6  0  0  0
 15  1  1  0  0  0  0
 16 17  1  0  0  0  0
 17 18  1  0  0  0  0
 18 19  1  0  0  0  0
 19 24  1  0  0  0  0
 20 26  1  6  0  0  0
 21 20  1  0  0  0  0
 22 29  1  6  0  0  0
 22 21  1  0  0  0  0
 23 25  1  0  0  0  0
 24 22  1  0  0  0  0
 24 23  1  0  0  0  0
 25 20  1  0  0  0  0
 26 27  1  1  0  0  0
 26 28  1  0  0  0  0
 29 30  1  0  0  0  0
 31 32  1  0  0  0  0
 32 33  1  0  0  0  0
 33 34  1  0  0  0  0
M  END
>  <MODEL>
2

>  <REMARK>
 VINA RESULT:      -7.2      2.636      9.304
  Name = 
  10 active torsions:
  status: ('A' for Active; 'I' for Inactive)
    1  A    between atoms: C_1  and  C_8
    2  A    between atoms: C_3  and  C_13
    3  A    between atoms: C_4  and  C_16
    4  A    between atoms: C_6  and  N_28
    5  A    between atoms: C_6  and  C_30
    6  A    between atoms: C_7  and  C_11
    7  A    between atoms: C_8  and  C_18
    8  A    between atoms: C_13  and  S_27
    9  A    between atoms: C_18  and  C_30
   10  A    between atoms: C_25  and  S_27
                            x       y       z     vdW  Elec       q    Type
                         _______ _______ _______ _____ _____    ______ ____

>  <TORSDO>
F 10

$$$$
=
 OpenBabel10272415153D

 34 37  0  0  1  0  0  0  0  0999 V2000
  188.4220  177.3460  144.2460 C   0  0  1  0  0  0  0  0  0  0  0  0
  185.5240  178.0250  146.5100 C   0  0  0  0  0  2  0  0  0  0  0  0
  187.8470  178.0410  146.9240 C   0  0  0  0  0  2  0  0  0  0  0  0
  188.4720  178.7030  143.9100 O   0  0  0  0  0  1  0  0  0  0  0  0
  190.7560  176.6070  144.9980 C   0  0  0  0  0  3  0  0  0  0  0  0
  191.3940  176.7730  147.3290 C   0  0  0  0  0  3  0  0  0  0  0  0
  191.7090  176.4410  146.0080 C   0  0  0  0  0  3  0  0  0  0  0  0
  189.1750  177.4340  146.6300 C   0  0  0  0  0  0  0  0  0  0  0  0
  189.4710  177.0880  145.3060 C   0  0  0  0  0  0  0  0  0  0  0  0
  190.1280  177.2780  147.6390 C   0  0  0  0  0  3  0  0  0  0  0  0
  185.3490  179.1690  145.5160 C   0  0  0  0  0  2  0  0  0  0  0  0
  185.1470  178.6160  144.1080 C   0  0  2  0  0  3  0  0  0  0  0  0
  186.7700  177.2900  146.2650 N   0  0  2  0  0  0  0  0  0  0  0  0
  185.8200  177.2580  143.8820 C   0  0  0  0  0  2  0  0  0  0  0  0
  187.0160  176.9900  144.8190 C   0  0  1  0  0  3  0  0  0  0  0  0
  188.7090  176.4900  142.9980 C   0  0  0  0  0  2  0  0  0  0  0  0
  188.7870  177.3030  141.7110 C   0  0  0  0  0  2  0  0  0  0  0  0
  190.2350  177.4970  141.2910 C   0  0  0  0  0  2  0  0  0  0  0  0
  190.6490  176.4610  140.2550 C   0  0  0  0  0  2  0  0  0  0  0  0
  191.2680  175.4290  136.5030 C   0  0  1  0  0  3  0  0  0  0  0  0
  190.2560  176.5760  136.6070 C   0  0  0  0  0  2  0  0  0  0  0  0
  189.8120  176.7910  138.0590 C   0  0  1  0  0  3  0  0  0  0  0  0
  192.2360  176.6030  138.5150 C   0  0  0  0  0  2  0  0  0  0  0  0
  190.9290  177.1030  138.9750 N   0  0  0  0  0  0  0  0  0  0  0  0
  192.1240  175.2730  137.7690 C   0  0  0  0  0  2  0  0  0  0  0  0
  190.5660  174.1250  136.1210 C   0  0  1  0  0  3  0  0  0  0  0  0
  191.4910  173.2260  135.3200 C   0  0  0  0  0  1  0  0  0  0  0  0
  190.1100  173.4480  137.2560 O   0  0  0  0  0  1  0  0  0  0  0  0
  188.7250  177.8600  138.1390 C   0  0  0  0  0  2  0  0  0  0  0  0
  188.9030  178.9350  137.0780 C   0  0  0  0  0  1  0  0  0  0  0  0
  185.7010  179.8230  142.8680 S   0  0  0  0  0  0  0  0  0  0  0  0
  184.7950  178.9940  141.5240 C   0  0  0  0  0  2  0  0  0  0  0  0
  185.7020  178.7620  140.3260 C   0  0  0  0  0  2  0  0  0  0  0  0
  184.8810  178.6510  139.0550 C   0  0  0  0  0  1  0  0  0  0  0  0
  1  4  1  6  0  0  0
  1 15  1  0  0  0  0
  1  9  1  0  0  0  0
  5  9  2  0  0  0  0
  5  7  1  0  0  0  0
  6 10  1  0  0  0  0
  7  6  2  0  0  0  0
  8  3  1  0  0  0  0
  8 10  2  0  0  0  0
  9  8  1  0  0  0  0
 11  2  1  0  0  0  0
 12 31  1  6  0  0  0
 12 11  1  0  0  0  0
 13  2  1  6  0  0  0
 13  3  1  0  0  0  0
 14 12  1  0  0  0  0
 15 14  1  6  0  0  0
 15 13  1  0  0  0  0
 16  1  1  0  0  0  0
 17 16  1  0  0  0  0
 18 17  1  0  0  0  0
 19 18  1  0  0  0  0
 20 26  1  1  0  0  0
 20 21  1  0  0  0  0
 20 25  1  0  0  0  0
 21 22  1  0  0  0  0
 22 29  1  6  0  0  0
 22 24  1  0  0  0  0
 23 24  1  0  0  0  0
 24 19  1  0  0  0  0
 25 23  1  0  0  0  0
 26 27  1  1  0  0  0
 26 28  1  0  0  0  0
 30 29  1  0  0  0  0
 32 31  1  0  0  0  0
 33 32  1  0  0  0  0
 34 33  1  0  0  0  0
M  END
>  <MODEL>
3

>  <REMARK>
 VINA RESULT:      -7.1      2.316      4.571
  Name = 
  10 active torsions:
  status: ('A' for Active; 'I' for Inactive)
    1  A    between atoms: C_1  and  C_8
    2  A    between atoms: C_3  and  C_13
    3  A    between atoms: C_4  and  C_16
    4  A    between atoms: C_6  and  N_28
    5  A    between atoms: C_6  and  C_30
    6  A    between atoms: C_7  and  C_11
    7  A    between atoms: C_8  and  C_18
    8  A    between atoms: C_13  and  S_27
    9  A    between atoms: C_18  and  C_30
   10  A    between atoms: C_25  and  S_27
                            x       y       z     vdW  Elec       q    Type
                         _______ _______ _______ _____ _____    ______ ____

>  <TORSDO>
F 10

$$$$
=
 OpenBabel10272415153D

 34 37  0  0  1  0  0  0  0  0999 V2000
  188.3340  177.8470  144.1700 C   0  0  1  0  0  0  0  0  0  0  0  0
  190.3640  177.4790  147.2900 C   0  0  0  0  0  2  0  0  0  0  0  0
  188.0390  177.3040  146.9270 C   0  0  0  0  0  2  0  0  0  0  0  0
  188.4770  176.4780  143.9210 O   0  0  0  0  0  1  0  0  0  0  0  0
  185.8440  178.4370  144.0770 C   0  0  0  0  0  3  0  0  0  0  0  0
  184.4880  178.3160  146.0800 C   0  0  0  0  0  3  0  0  0  0  0  0
  184.6040  178.5700  144.7100 C   0  0  0  0  0  3  0  0  0  0  0  0
  186.8480  177.7970  146.1810 C   0  0  0  0  0  0  0  0  0  0  0  0
  186.9830  178.0670  144.8140 C   0  0  0  0  0  0  0  0  0  0  0  0
  185.6090  177.9210  146.8150 C   0  0  0  0  0  3  0  0  0  0  0  0
  190.9220  176.3130  146.4790 C   0  0  0  0  0  2  0  0  0  0  0  0
  191.5420  176.8230  145.1820 C   0  0  2  0  0  3  0  0  0  0  0  0
  189.2260  178.1070  146.6090 N   0  0  2  0  0  0  0  0  0  0  0  0
  190.9030  178.1170  144.6650 C   0  0  0  0  0  2  0  0  0  0  0  0
  189.4520  178.3310  145.1450 C   0  0  1  0  0  3  0  0  0  0  0  0
  188.4230  178.6290  142.8460 C   0  0  0  0  0  2  0  0  0  0  0  0
  188.0980  177.7830  141.6200 C   0  0  0  0  0  2  0  0  0  0  0  0
  188.2300  178.6110  140.3520 C   0  0  0  0  0  2  0  0  0  0  0  0
  187.7060  177.8490  139.1430 C   0  0  0  0  0  2  0  0  0  0  0  0
  184.6030  177.1730  136.8120 C   0  0  1  0  0  3  0  0  0  0  0  0
  184.2360  178.1010  137.9750 C   0  0  0  0  0  2  0  0  0  0  0  0
  185.3550  178.1440  139.0220 C   0  0  1  0  0  3  0  0  0  0  0  0
  186.8030  178.3890  137.0310 C   0  0  0  0  0  2  0  0  0  0  0  0
  186.6500  178.6060  138.4810 N   0  0  0  0  0  0  0  0  0  0  0  0
  186.1160  177.1070  136.5570 C   0  0  0  0  0  2  0  0  0  0  0  0
  183.9950  175.7850  137.0170 C   0  0  1  0  0  3  0  0  0  0  0  0
  182.4790  175.8410  136.9450 C   0  0  0  0  0  1  0  0  0  0  0  0
  184.4830  174.8780  136.0720 O   0  0  0  0  0  1  0  0  0  0  0  0
  184.9360  178.9830  140.2270 C   0  0  0  0  0  2  0  0  0  0  0  0
  183.8240  178.3200  141.0260 C   0  0  0  0  0  1  0  0  0  0  0  0
  191.4970  175.5300  143.9070 S   0  0  0  0  0  0  0  0  0  0  0  0
  191.9170  176.7000  142.5760 C   0  0  0  0  0  2  0  0  0  0  0  0
  191.0500  176.4560  141.3510 C   0  0  0  0  0  2  0  0  0  0  0  0
  191.5410  177.2890  140.1820 C   0  0  0  0  0  1  0  0  0  0  0  0
  1  4  1  6  0  0  0
  1  9  1  0  0  0  0
  1 15  1  0  0  0  0
  5  7  2  0  0  0  0
  5  9  1  0  0  0  0
  6 10  2  0  0  0  0
  7  6  1  0  0  0  0
  8 10  1  0  0  0  0
  8  3  1  0  0  0  0
  9  8  2  0  0  0  0
 11  2  1  0  0  0  0
 12 31  1  6  0  0  0
 12 11  1  0  0  0  0
 13  3  1  6  0  0  0
 13  2  1  0  0  0  0
 14 12  1  0  0  0  0
 15 14  1  6  0  0  0
 15 13  1  0  0  0  0
 16  1  1  0  0  0  0
 17 16  1  0  0  0  0
 18 17  1  0  0  0  0
 19 18  1  0  0  0  0
 20 26  1  1  0  0  0
 20 21  1  0  0  0  0
 21 22  1  0  0  0  0
 22 29  1  1  0  0  0
 23 24  1  0  0  0  0
 24 22  1  0  0  0  0
 24 19  1  0  0  0  0
 25 20  1  0  0  0  0
 25 23  1  0  0  0  0
 26 27  1  6  0  0  0
 28 26  1  0  0  0  0
 29 30  1  0  0  0  0
 32 31  1  0  0  0  0
 33 32  1  0  0  0  0
 34 33  1  0  0  0  0
M  END
>  <MODEL>
4

>  <REMARK>
 VINA RESULT:      -7.0      1.199      1.988
  Name = 
  10 active torsions:
  status: ('A' for Active; 'I' for Inactive)
    1  A    between atoms: C_1  and  C_8
    2  A    between atoms: C_3  and  C_13
    3  A    between atoms: C_4  and  C_16
    4  A    between atoms: C_6  and  N_28
    5  A    between atoms: C_6  and  C_30
    6  A    between atoms: C_7  and  C_11
    7  A    between atoms: C_8  and  C_18
    8  A    between atoms: C_13  and  S_27
    9  A    between atoms: C_18  and  C_30
   10  A    between atoms: C_25  and  S_27
                            x       y       z     vdW  Elec       q    Type
                         _______ _______ _______ _____ _____    ______ ____

>  <TORSDO>
F 10

$$$$
=
 OpenBabel10272415153D

 34 37  0  0  1  0  0  0  0  0999 V2000
  189.0910  177.3430  137.9360 C   0  0  1  0  0  0  0  0  0  0  0  0
  188.0280  177.2750  134.3500 C   0  0  0  0  0  2  0  0  0  0  0  0
  189.8710  176.2800  135.4360 C   0  0  0  0  0  2  0  0  0  0  0  0
  188.3280  176.1960  138.1790 O   0  0  0  0  0  1  0  0  0  0  0  0
  191.4710  176.9330  138.7890 C   0  0  0  0  0  3  0  0  0  0  0  0
  193.1410  175.9700  137.3240 C   0  0  0  0  0  3  0  0  0  0  0  0
  192.7730  176.4720  138.5760 C   0  0  0  0  0  3  0  0  0  0  0  0
  190.9060  176.3920  136.5010 C   0  0  0  0  0  0  0  0  0  0  0  0
  190.5300  176.9150  137.7440 C   0  0  0  0  0  0  0  0  0  0  0  0
  192.2050  175.9210  136.2880 C   0  0  0  0  0  3  0  0  0  0  0  0
  186.8370  176.5660  134.9870 C   0  0  0  0  0  2  0  0  0  0  0  0
  186.1590  177.4830  136.0010 C   0  0  2  0  0  3  0  0  0  0  0  0
  189.0910  177.5190  135.3320 N   0  0  2  0  0  0  0  0  0  0  0  0
  187.1120  178.4960  136.6430 C   0  0  0  0  0  2  0  0  0  0  0  0
  188.5900  178.0520  136.6390 C   0  0  1  0  0  3  0  0  0  0  0  0
  188.9800  178.3060  139.1320 C   0  0  0  0  0  2  0  0  0  0  0  0
  188.2950  177.6880  140.3460 C   0  0  0  0  0  2  0  0  0  0  0  0
  188.0870  178.7330  141.4290 C   0  0  0  0  0  2  0  0  0  0  0  0
  188.9170  178.4140  142.6650 C   0  0  0  0  0  2  0  0  0  0  0  0
  188.8640  176.9280  146.3140 C   0  0  1  0  0  3  0  0  0  0  0  0
  187.4600  176.9540  145.7010 C   0  0  0  0  0  2  0  0  0  0  0  0
  187.4360  177.7740  144.4060 C   0  0  1  0  0  3  0  0  0  0  0  0
  189.4950  176.4950  143.9090 C   0  0  0  0  0  2  0  0  0  0  0  0
  188.3600  177.2650  143.3710 N   0  0  0  0  0  0  0  0  0  0  0  0
  189.9760  177.0300  145.2590 C   0  0  0  0  0  2  0  0  0  0  0  0
  189.0000  178.0000  147.3950 C   0  0  1  0  0  3  0  0  0  0  0  0
  187.7360  178.0910  148.2310 C   0  0  0  0  0  1  0  0  0  0  0  0
  190.0990  177.7450  148.2210 O   0  0  0  0  0  1  0  0  0  0  0  0
  186.0140  177.8850  143.8620 C   0  0  0  0  0  2  0  0  0  0  0  0
  185.2400  179.0190  144.5150 C   0  0  0  0  0  1  0  0  0  0  0  0
  185.3100  176.5030  137.2730 S   0  0  0  0  0  0  0  0  0  0  0  0
  185.5600  174.9420  136.3680 C   0  0  0  0  0  2  0  0  0  0  0  0
  185.7520  173.7840  137.3350 C   0  0  0  0  0  2  0  0  0  0  0  0
  184.9450  172.5810  136.8840 C   0  0  0  0  0  1  0  0  0  0  0  0
  1  4  1  1  0  0  0
  1 16  1  0  0  0  0
  2 11  1  0  0  0  0
  3  8  1  0  0  0  0
  6  7  2  0  0  0  0
  7  5  1  0  0  0  0
  8  9  1  0  0  0  0
  9  1  1  0  0  0  0
  9  5  2  0  0  0  0
 10  8  2  0  0  0  0
 10  6  1  0  0  0  0
 11 12  1  0  0  0  0
 12 14  1  0  0  0  0
 12 31  1  1  0  0  0
 13  2  1  6  0  0  0
 13  3  1  0  0  0  0
 13 15  1  0  0  0  0
 15 14  1  6  0  0  0
 15  1  1  0  0  0  0
 16 17  1  0  0  0  0
 17 18  1  0  0  0  0
 18 19  1  0  0  0  0
 19 24  1  0  0  0  0
 20 26  1  1  0  0  0
 21 20  1  0  0  0  0
 22 29  1  6  0  0  0
 22 21  1  0  0  0  0
 23 25  1  0  0  0  0
 24 23  1  0  0  0  0
 24 22  1  0  0  0  0
 25 20  1  0  0  0  0
 26 28  1  0  0  0  0
 26 27  1  1  0  0  0
 29 30  1  0  0  0  0
 32 31  1  0  0  0  0
 32 33  1  0  0  0  0
 34 33  1  0  0  0  0
M  END
>  <MODEL>
5

>  <REMARK>
 VINA RESULT:      -6.7      2.735      9.376
  Name = 
  10 active torsions:
  status: ('A' for Active; 'I' for Inactive)
    1  A    between atoms: C_1  and  C_8
    2  A    between atoms: C_3  and  C_13
    3  A    between atoms: C_4  and  C_16
    4  A    between atoms: C_6  and  N_28
    5  A    between atoms: C_6  and  C_30
    6  A    between atoms: C_7  and  C_11
    7  A    between atoms: C_8  and  C_18
    8  A    between atoms: C_13  and  S_27
    9  A    between atoms: C_18  and  C_30
   10  A    between atoms: C_25  and  S_27
                            x       y       z     vdW  Elec       q    Type
                         _______ _______ _______ _____ _____    ______ ____

>  <TORSDO>
F 10

$$$$
=
 OpenBabel10272415153D

 34 37  0  0  1  0  0  0  0  0999 V2000
  188.3550  177.4230  144.1860 C   0  0  1  0  0  0  0  0  0  0  0  0
  185.4210  177.9970  146.4340 C   0  0  0  0  0  2  0  0  0  0  0  0
  187.7390  178.0400  146.8740 C   0  0  0  0  0  2  0  0  0  0  0  0
  188.3860  178.7880  143.8850 O   0  0  0  0  0  1  0  0  0  0  0  0
  190.6930  176.7030  144.9460 C   0  0  0  0  0  3  0  0  0  0  0  0
  191.3020  176.8200  147.2870 C   0  0  0  0  0  3  0  0  0  0  0  0
  191.6370  176.5270  145.9620 C   0  0  0  0  0  3  0  0  0  0  0  0
  189.0800  177.4620  146.5800 C   0  0  0  0  0  0  0  0  0  0  0  0
  189.3960  177.1550  145.2510 C   0  0  0  0  0  0  0  0  0  0  0  0
  190.0250  177.2960  147.5950 C   0  0  0  0  0  3  0  0  0  0  0  0
  185.2380  179.1620  145.4670 C   0  0  0  0  0  2  0  0  0  0  0  0
  185.0610  178.6420  144.0440 C   0  0  2  0  0  3  0  0  0  0  0  0
  186.6820  177.2890  146.1850 N   0  0  2  0  0  0  0  0  0  0  0  0
  185.7580  177.3020  143.7910 C   0  0  0  0  0  2  0  0  0  0  0  0
  186.9480  177.0290  144.7340 C   0  0  1  0  0  3  0  0  0  0  0  0
  188.6690  176.6030  142.9210 C   0  0  0  0  0  2  0  0  0  0  0  0
  189.3770  177.4090  141.8370 C   0  0  0  0  0  2  0  0  0  0  0  0
  188.3650  178.0150  140.8790 C   0  0  0  0  0  2  0  0  0  0  0  0
  188.4590  177.3710  139.5030 C   0  0  0  0  0  2  0  0  0  0  0  0
  188.6030  177.6630  135.5770 C   0  0  1  0  0  3  0  0  0  0  0  0
  187.2330  178.0840  136.1170 C   0  0  0  0  0  2  0  0  0  0  0  0
  187.0850  177.7140  137.5980 C   0  0  1  0  0  3  0  0  0  0  0  0
  189.3570  178.6810  137.7590 C   0  0  0  0  0  2  0  0  0  0  0  0
  188.1110  178.3340  138.4640 N   0  0  0  0  0  0  0  0  0  0  0  0
  189.7000  177.6820  136.6520 C   0  0  0  0  0  2  0  0  0  0  0  0
  188.5120  176.3080  134.8750 C   0  0  1  0  0  3  0  0  0  0  0  0
  189.0700  175.2030  135.7530 C   0  0  0  0  0  1  0  0  0  0  0  0
  187.1920  176.0130  134.5200 O   0  0  0  0  0  1  0  0  0  0  0  0
  185.6800  178.0380  138.0990 C   0  0  0  0  0  2  0  0  0  0  0  0
  184.6220  177.1740  137.4310 C   0  0  0  0  0  1  0  0  0  0  0  0
  185.6070  179.8890  142.8410 S   0  0  0  0  0  0  0  0  0  0  0  0
  184.9910  178.9250  141.4240 C   0  0  0  0  0  2  0  0  0  0  0  0
  183.5120  178.6140  141.5880 C   0  0  0  0  0  2  0  0  0  0  0  0
  182.7560  178.9550  140.3170 C   0  0  0  0  0  1  0  0  0  0  0  0
  1  4  1  6  0  0  0
  1 15  1  0  0  0  0
  1  9  1  0  0  0  0
  5  9  2  0  0  0  0
  5  7  1  0  0  0  0
  6 10  1  0  0  0  0
  7  6  2  0  0  0  0
  8  3  1  0  0  0  0
  8 10  2  0  0  0  0
  9  8  1  0  0  0  0
 11  2  1  0  0  0  0
 12 31  1  6  0  0  0
 12 11  1  0  0  0  0
 13  2  1  6  0  0  0
 13  3  1  0  0  0  0
 14 12  1  0  0  0  0
 15 14  1  6  0  0  0
 15 13  1  0  0  0  0
 16  1  1  0  0  0  0
 17 16  1  0  0  0  0
 18 17  1  0  0  0  0
 19 18  1  0  0  0  0
 20 26  1  1  0  0  0
 20 21  1  0  0  0  0
 20 25  1  0  0  0  0
 21 22  1  0  0  0  0
 22 29  1  1  0  0  0
 22 24  1  0  0  0  0
 23 24  1  0  0  0  0
 24 19  1  0  0  0  0
 25 23  1  0  0  0  0
 26 27  1  1  0  0  0
 28 26  1  0  0  0  0
 30 29  1  0  0  0  0
 32 33  1  0  0  0  0
 32 31  1  0  0  0  0
 34 33  1  0  0  0  0
M  END
>  <MODEL>
6

>  <REMARK>
 VINA RESULT:      -6.7      1.909      4.167
  Name = 
  10 active torsions:
  status: ('A' for Active; 'I' for Inactive)
    1  A    between atoms: C_1  and  C_8
    2  A    between atoms: C_3  and  C_13
    3  A    between atoms: C_4  and  C_16
    4  A    between atoms: C_6  and  N_28
    5  A    between atoms: C_6  and  C_30
    6  A    between atoms: C_7  and  C_11
    7  A    between atoms: C_8  and  C_18
    8  A    between atoms: C_13  and  S_27
    9  A    between atoms: C_18  and  C_30
   10  A    between atoms: C_25  and  S_27
                            x       y       z     vdW  Elec       q    Type
                         _______ _______ _______ _____ _____    ______ ____

>  <TORSDO>
F 10

$$$$
=
 OpenBabel10272415153D

 34 37  0  0  1  0  0  0  0  0999 V2000
  186.4310  177.7800  137.9850 C   0  0  1  0  0  0  0  0  0  0  0  0
  186.0320  175.0060  135.5080 C   0  0  0  0  0  2  0  0  0  0  0  0
  184.5850  176.7750  136.0960 C   0  0  0  0  0  2  0  0  0  0  0  0
  187.0050  178.5790  136.9900 O   0  0  0  0  0  1  0  0  0  0  0  0
  184.5170  179.0870  139.0750 C   0  0  0  0  0  3  0  0  0  0  0  0
  182.2710  178.9310  138.1820 C   0  0  0  0  0  3  0  0  0  0  0  0
  183.1690  179.4580  139.1140 C   0  0  0  0  0  3  0  0  0  0  0  0
  184.0680  177.6630  137.1730 C   0  0  0  0  0  0  0  0  0  0  0  0
  184.9740  178.1690  138.1130 C   0  0  0  0  0  0  0  0  0  0  0  0
  182.7220  178.0390  137.2050 C   0  0  0  0  0  3  0  0  0  0  0  0
  187.2230  175.7330  134.8920 C   0  0  0  0  0  2  0  0  0  0  0  0
  188.3890  175.7600  135.8760 C   0  0  2  0  0  3  0  0  0  0  0  0
  185.4810  175.7510  136.6460 N   0  0  2  0  0  0  0  0  0  0  0  0
  187.9510  175.7320  137.3440 C   0  0  0  0  0  2  0  0  0  0  0  0
  186.5270  176.2760  137.5810 C   0  0  1  0  0  3  0  0  0  0  0  0
  187.1590  178.0090  139.3220 C   0  0  0  0  0  2  0  0  0  0  0  0
  188.6410  178.3300  139.1570 C   0  0  0  0  0  2  0  0  0  0  0  0
  189.4150  177.9190  140.3990 C   0  0  0  0  0  2  0  0  0  0  0  0
  188.7190  178.4000  141.6640 C   0  0  0  0  0  2  0  0  0  0  0  0
  188.4160  176.9170  145.3020 C   0  0  1  0  0  3  0  0  0  0  0  0
  187.0440  177.0300  144.6280 C   0  0  0  0  0  2  0  0  0  0  0  0
  187.1270  177.8510  143.3360 C   0  0  1  0  0  3  0  0  0  0  0  0
  189.1230  176.4480  142.9260 C   0  0  0  0  0  2  0  0  0  0  0  0
  188.0630  177.2870  142.3400 N   0  0  0  0  0  0  0  0  0  0  0  0
  189.5770  176.9520  144.2970 C   0  0  0  0  0  2  0  0  0  0  0  0
  188.5690  177.9780  146.3920 C   0  0  1  0  0  3  0  0  0  0  0  0
  187.2860  178.1290  147.1880 C   0  0  0  0  0  1  0  0  0  0  0  0
  189.6280  177.6670  147.2510 O   0  0  0  0  0  1  0  0  0  0  0  0
  185.7390  178.0490  142.7310 C   0  0  0  0  0  2  0  0  0  0  0  0
  184.7400  178.5690  143.7530 C   0  0  0  0  0  1  0  0  0  0  0  0
  189.4590  177.1910  135.5510 S   0  0  0  0  0  0  0  0  0  0  0  0
  190.9820  176.2100  135.7360 C   0  0  0  0  0  2  0  0  0  0  0  0
  191.4980  176.2800  137.1640 C   0  0  0  0  0  2  0  0  0  0  0  0
  191.7480  174.8850  137.7040 C   0  0  0  0  0  1  0  0  0  0  0  0
  1  4  1  6  0  0  0
  1  9  1  0  0  0  0
  1 16  1  0  0  0  0
  3 13  1  0  0  0  0
  3  8  1  0  0  0  0
  5  7  1  0  0  0  0
  6  7  2  0  0  0  0
  8 10  2  0  0  0  0
  8  9  1  0  0  0  0
  9  5  2  0  0  0  0
 10  6  1  0  0  0  0
 11  2  1  0  0  0  0
 11 12  1  0  0  0  0
 12 31  1  1  0  0  0
 12 14  1  0  0  0  0
 13  2  1  6  0  0  0
 13 15  1  0  0  0  0
 15 14  1  6  0  0  0
 15  1  1  0  0  0  0
 17 16  1  0  0  0  0
 17 18  1  0  0  0  0
 18 19  1  0  0  0  0
 19 24  1  0  0  0  0
 20 26  1  1  0  0  0
 21 20  1  0  0  0  0
 22 29  1  6  0  0  0
 22 21  1  0  0  0  0
 23 25  1  0  0  0  0
 24 23  1  0  0  0  0
 24 22  1  0  0  0  0
 25 20  1  0  0  0  0
 26 27  1  1  0  0  0
 26 28  1  0  0  0  0
 29 30  1  0  0  0  0
 31 32  1  0  0  0  0
 32 33  1  0  0  0  0
 33 34  1  0  0  0  0
M  END
>  <MODEL>
7

>  <REMARK>
 VINA RESULT:      -6.6      2.578      8.286
  Name = 
  10 active torsions:
  status: ('A' for Active; 'I' for Inactive)
    1  A    between atoms: C_1  and  C_8
    2  A    between atoms: C_3  and  C_13
    3  A    between atoms: C_4  and  C_16
    4  A    between atoms: C_6  and  N_28
    5  A    between atoms: C_6  and  C_30
    6  A    between atoms: C_7  and  C_11
    7  A    between atoms: C_8  and  C_18
    8  A    between atoms: C_13  and  S_27
    9  A    between atoms: C_18  and  C_30
   10  A    between atoms: C_25  and  S_27
                            x       y       z     vdW  Elec       q    Type
                         _______ _______ _______ _____ _____    ______ ____

>  <TORSDO>
F 10

$$$$
=
 OpenBabel10272415153D

 34 37  0  0  1  0  0  0  0  0999 V2000
  189.2650  176.7430  137.4590 C   0  0  1  0  0  0  0  0  0  0  0  0
  189.4630  173.2510  136.1340 C   0  0  0  0  0  2  0  0  0  0  0  0
  187.7630  174.8790  135.9590 C   0  0  0  0  0  2  0  0  0  0  0  0
  189.8440  177.2190  136.2780 O   0  0  0  0  0  1  0  0  0  0  0  0
  187.1050  178.0500  137.8910 C   0  0  0  0  0  3  0  0  0  0  0  0
  185.0020  177.2600  136.9870 C   0  0  0  0  0  3  0  0  0  0  0  0
  185.7270  178.2070  137.7160 C   0  0  0  0  0  3  0  0  0  0  0  0
  187.0320  176.0010  136.6110 C   0  0  0  0  0  0  0  0  0  0  0  0
  187.7670  176.9320  137.3550 C   0  0  0  0  0  0  0  0  0  0  0  0
  185.6560  176.1600  136.4260 C   0  0  0  0  0  3  0  0  0  0  0  0
  190.6190  173.8840  135.3670 C   0  0  0  0  0  2  0  0  0  0  0  0
  191.6610  174.4270  136.3400 C   0  0  2  0  0  3  0  0  0  0  0  0
  188.7100  174.2570  136.8930 N   0  0  2  0  0  0  0  0  0  0  0  0
  191.0760  174.8500  137.6910 C   0  0  0  0  0  2  0  0  0  0  0  0
  189.5800  175.2250  137.6330 C   0  0  1  0  0  3  0  0  0  0  0  0
  189.8140  177.5310  138.6630 C   0  0  0  0  0  2  0  0  0  0  0  0
  189.5210  176.8690  140.0050 C   0  0  0  0  0  2  0  0  0  0  0  0
  190.3420  177.5150  141.1080 C   0  0  0  0  0  2  0  0  0  0  0  0
  189.4430  178.1240  142.1760 C   0  0  0  0  0  2  0  0  0  0  0  0
  186.9000  177.2770  145.0640 C   0  0  1  0  0  3  0  0  0  0  0  0
  186.1720  177.5910  143.7530 C   0  0  0  0  0  2  0  0  0  0  0  0
  187.1320  178.1820  142.7140 C   0  0  1  0  0  3  0  0  0  0  0  0
  188.5970  176.3300  143.4540 C   0  0  0  0  0  2  0  0  0  0  0  0
  188.2650  177.2900  142.3870 N   0  0  0  0  0  0  0  0  0  0  0  0
  188.3770  176.9120  144.8520 C   0  0  0  0  0  2  0  0  0  0  0  0
  186.7300  178.4220  146.0620 C   0  0  1  0  0  3  0  0  0  0  0  0
  185.2650  178.6430  146.3910 C   0  0  0  0  0  1  0  0  0  0  0  0
  187.4490  178.1770  147.2360 O   0  0  0  0  0  1  0  0  0  0  0  0
  186.3780  178.5920  141.4510 C   0  0  0  0  0  2  0  0  0  0  0  0
  184.9880  179.1240  141.7640 C   0  0  0  0  0  1  0  0  0  0  0  0
  192.5840  175.7950  135.5820 S   0  0  0  0  0  0  0  0  0  0  0  0
  193.8160  175.8290  136.9220 C   0  0  0  0  0  2  0  0  0  0  0  0
  194.9810  174.9050  136.6060 C   0  0  0  0  0  2  0  0  0  0  0  0
  195.5590  174.3270  137.8850 C   0  0  0  0  0  1  0  0  0  0  0  0
  1  4  1  6  0  0  0
  1 15  1  0  0  0  0
  1 16  1  0  0  0  0
  2 13  1  0  0  0  0
  3  8  1  0  0  0  0
  6  7  2  0  0  0  0
  7  5  1  0  0  0  0
  8  9  1  0  0  0  0
  9  1  1  0  0  0  0
  9  5  2  0  0  0  0
 10  8  2  0  0  0  0
 10  6  1  0  0  0  0
 11  2  1  0  0  0  0
 11 12  1  0  0  0  0
 12 31  1  6  0  0  0
 12 14  1  0  0  0  0
 13  3  1  6  0  0  0
 13 15  1  0  0  0  0
 15 14  1  6  0  0  0
 16 17  1  0  0  0  0
 17 18  1  0  0  0  0
 18 19  1  0  0  0  0
 19 24  1  0  0  0  0
 20 26  1  1  0  0  0
 21 20  1  0  0  0  0
 22 29  1  6  0  0  0
 22 21  1  0  0  0  0
 23 25  1  0  0  0  0
 24 22  1  0  0  0  0
 24 23  1  0  0  0  0
 25 20  1  0  0  0  0
 26 27  1  1  0  0  0
 26 28  1  0  0  0  0
 29 30  1  0  0  0  0
 31 32  1  0  0  0  0
 33 32  1  0  0  0  0
 33 34  1  0  0  0  0
M  END
>  <MODEL>
8

>  <REMARK>
 VINA RESULT:      -6.6      2.947      8.258
  Name = 
  10 active torsions:
  status: ('A' for Active; 'I' for Inactive)
    1  A    between atoms: C_1  and  C_8
    2  A    between atoms: C_3  and  C_13
    3  A    between atoms: C_4  and  C_16
    4  A    between atoms: C_6  and  N_28
    5  A    between atoms: C_6  and  C_30
    6  A    between atoms: C_7  and  C_11
    7  A    between atoms: C_8  and  C_18
    8  A    between atoms: C_13  and  S_27
    9  A    between atoms: C_18  and  C_30
   10  A    between atoms: C_25  and  S_27
                            x       y       z     vdW  Elec       q    Type
                         _______ _______ _______ _____ _____    ______ ____

>  <TORSDO>
F 10

$$$$
=
 OpenBabel10272415153D

 34 37  0  0  1  0  0  0  0  0999 V2000
  188.5850  177.2150  144.2510 C   0  0  1  0  0  0  0  0  0  0  0  0
  185.6450  178.0670  146.4020 C   0  0  0  0  0  2  0  0  0  0  0  0
  187.9570  178.0570  146.8750 C   0  0  0  0  0  2  0  0  0  0  0  0
  188.6720  178.5520  143.8490 O   0  0  0  0  0  1  0  0  0  0  0  0
  190.8830  176.4690  145.1010 C   0  0  0  0  0  3  0  0  0  0  0  0
  191.4650  176.7410  147.4370 C   0  0  0  0  0  3  0  0  0  0  0  0
  191.8060  176.3360  146.1430 C   0  0  0  0  0  3  0  0  0  0  0  0
  189.2780  177.4090  146.6470 C   0  0  0  0  0  0  0  0  0  0  0  0
  189.6010  176.9900  145.3500 C   0  0  0  0  0  0  0  0  0  0  0  0
  190.2030  177.2860  147.6880 C   0  0  0  0  0  3  0  0  0  0  0  0
  185.5200  179.1610  145.3470 C   0  0  0  0  0  2  0  0  0  0  0  0
  185.3420  178.5410  143.9640 C   0  0  2  0  0  3  0  0  0  0  0  0
  186.8820  177.2950  146.2270 N   0  0  2  0  0  0  0  0  0  0  0  0
  185.9910  177.1600  143.8240 C   0  0  0  0  0  2  0  0  0  0  0  0
  187.1570  176.9160  144.8050 C   0  0  1  0  0  3  0  0  0  0  0  0
  188.8850  176.2900  143.0570 C   0  0  0  0  0  2  0  0  0  0  0  0
  189.1500  177.0450  141.7590 C   0  0  0  0  0  2  0  0  0  0  0  0
  190.5870  176.8410  141.3090 C   0  0  0  0  0  2  0  0  0  0  0  0
  190.7790  177.2900  139.8670 C   0  0  0  0  0  2  0  0  0  0  0  0
  189.1550  176.3800  136.3940 C   0  0  1  0  0  3  0  0  0  0  0  0
  190.6250  175.9510  136.4530 C   0  0  0  0  0  2  0  0  0  0  0  0
  191.3260  176.5430  137.6820 C   0  0  1  0  0  3  0  0  0  0  0  0
  189.2760  175.7870  138.8440 C   0  0  0  0  0  2  0  0  0  0  0  0
  190.7000  176.1490  138.9620 N   0  0  0  0  0  0  0  0  0  0  0  0
  188.5480  176.6170  137.7850 C   0  0  0  0  0  2  0  0  0  0  0  0
  188.9850  177.5940  135.4810 C   0  0  1  0  0  3  0  0  0  0  0  0
  187.6840  177.5090  134.7020 C   0  0  0  0  0  1  0  0  0  0  0  0
  189.0230  178.7850  136.2130 O   0  0  0  0  0  1  0  0  0  0  0  0
  192.8140  176.2000  137.6730 C   0  0  0  0  0  2  0  0  0  0  0  0
  193.0540  174.7030  137.5550 C   0  0  0  0  0  1  0  0  0  0  0  0
  185.9520  179.6720  142.6800 S   0  0  0  0  0  0  0  0  0  0  0  0
  184.7350  179.0870  141.4580 C   0  0  0  0  0  2  0  0  0  0  0  0
  185.4070  178.7890  140.1270 C   0  0  0  0  0  2  0  0  0  0  0  0
  184.4480  179.0480  138.9810 C   0  0  0  0  0  1  0  0  0  0  0  0
  1  4  1  6  0  0  0
  1 15  1  0  0  0  0
  1  9  1  0  0  0  0
  5  9  2  0  0  0  0
  5  7  1  0  0  0  0
  6 10  1  0  0  0  0
  7  6  2  0  0  0  0
  8  3  1  0  0  0  0
  8 10  2  0  0  0  0
  9  8  1  0  0  0  0
 11  2  1  0  0  0  0
 12 31  1  6  0  0  0
 12 11  1  0  0  0  0
 13  2  1  6  0  0  0
 13  3  1  0  0  0  0
 14 12  1  0  0  0  0
 15 14  1  6  0  0  0
 15 13  1  0  0  0  0
 16  1  1  0  0  0  0
 17 16  1  0  0  0  0
 18 17  1  0  0  0  0
 19 18  1  0  0  0  0
 20 26  1  6  0  0  0
 20 21  1  0  0  0  0
 20 25  1  0  0  0  0
 21 22  1  0  0  0  0
 22 29  1  1  0  0  0
 22 24  1  0  0  0  0
 23 24  1  0  0  0  0
 24 19  1  0  0  0  0
 25 23  1  0  0  0  0
 26 27  1  1  0  0  0
 26 28  1  0  0  0  0
 30 29  1  0  0  0  0
 32 31  1  0  0  0  0
 33 32  1  0  0  0  0
 34 33  1  0  0  0  0
M  END
>  <MODEL>
9

>  <REMARK>
 VINA RESULT:      -6.4      2.312      4.867
  Name = 
  10 active torsions:
  status: ('A' for Active; 'I' for Inactive)
    1  A    between atoms: C_1  and  C_8
    2  A    between atoms: C_3  and  C_13
    3  A    between atoms: C_4  and  C_16
    4  A    between atoms: C_6  and  N_28
    5  A    between atoms: C_6  and  C_30
    6  A    between atoms: C_7  and  C_11
    7  A    between atoms: C_8  and  C_18
    8  A    between atoms: C_13  and  S_27
    9  A    between atoms: C_18  and  C_30
   10  A    between atoms: C_25  and  S_27
                            x       y       z     vdW  Elec       q    Type
                         _______ _______ _______ _____ _____    ______ ____

>  <TORSDO>
F 10

$$$$
