=
 OpenBabel10272401393D

 55 63  0  0  1  0  0  0  0  0999 V2000
  182.6770  178.6750  141.0330 C   0  0  0  0  0  3  0  0  0  0  0  0
  183.4170  178.7250  143.7380 C   0  0  0  0  0  0  0  0  0  0  0  0
  184.3920  178.5980  142.7470 C   0  0  0  0  0  3  0  0  0  0  0  0
  181.6960  178.7990  142.0230 C   0  0  0  0  0  3  0  0  0  0  0  0
  184.0270  178.5680  141.3930 C   0  0  0  0  0  0  0  0  0  0  0  0
  182.0660  178.8230  143.3750 C   0  0  0  0  0  3  0  0  0  0  0  0
  185.0790  178.4900  140.3420 C   0  0  0  0  0  2  0  0  0  0  0  0
  184.5030  178.9730  139.0190 C   0  0  0  0  0  2  0  0  0  0  0  0
  181.9860  175.3770  136.6920 C   0  0  0  0  0  2  0  0  0  0  0  0
  187.4060  178.8570  136.8390 C   0  0  0  0  0  2  0  0  0  0  0  0
  183.2730  173.3400  136.1290 N   0  0  0  0  0  2  0  0  0  0  0  0
  184.4550  175.5730  136.2430 C   0  0  1  0  0  3  0  0  0  0  0  0
  184.5160  174.0590  136.4640 C   0  0  0  0  0  2  0  0  0  0  0  0
  182.1660  174.2150  135.7180 C   0  0  0  0  0  2  0  0  0  0  0  0
  183.2370  176.1270  136.8440 N   0  0  0  0  0  0  0  0  0  0  0  0
  185.6880  177.2340  137.5480 C   0  0  0  0  0  0  0  0  0  0  0  0
  188.0380  177.1150  138.3790 C   0  0  0  0  0  2  0  0  0  0  0  0
  185.6650  176.1920  136.7690 N   0  0  0  0  0  0  0  0  0  0  0  0
  189.2830  177.5640  137.6390 C   0  0  1  0  0  3  0  0  0  0  0  0
  183.2440  177.3630  137.5870 C   0  0  0  0  0  0  0  0  0  0  0  0
  188.9280  178.8490  136.9090 C   0  0  0  0  0  2  0  0  0  0  0  0
  184.4270  177.8610  138.0110 C   0  0  0  0  0  0  0  0  0  0  0  0
  186.9450  177.8700  137.7980 N   0  0  0  0  0  0  0  0  0  0  0  0
  181.4850  178.7200  136.5820 C   0  0  1  0  0  3  0  0  0  0  0  0
  180.7770  180.1230  138.6060 C   0  0  0  0  0  1  0  0  0  0  0  0
  181.9100  178.0320  137.8710 C   0  0  2  0  0  3  0  0  0  0  0  0
  179.9820  178.5880  136.3850 C   0  0  0  0  0  1  0  0  0  0  0  0
  181.9180  179.5520  137.7830 C   0  0  1  0  0  3  0  0  0  0  0  0
  191.3070  176.6650  138.9240 C   0  0  0  0  0  0  0  0  0  0  0  0
  191.1440  175.3790  138.4220 O   0  0  0  0  0  0  0  0  0  0  0  0
  190.4270  177.7290  138.5320 N   0  0  0  0  0  2  0  0  0  0  0  0
  192.2940  176.9260  139.6660 O   0  0  0  0  0  1  0  0  0  0  0  0
  183.8270  178.7600  145.1730 C   0  0  0  0  0  2  0  0  0  0  0  0
  185.5940  179.5660  146.7360 C   0  0  0  0  0  2  0  0  0  0  0  0
  186.0590  178.2720  146.0990 C   0  0  1  0  0  3  0  0  0  0  0  0
  185.2540  179.2680  145.2910 C   0  0  1  0  0  3  0  0  0  0  0  0
  187.4020  178.3840  145.7150 O   0  0  0  0  0  0  0  0  0  0  0  0
  191.9170  176.2670  146.9510 C   0  0  0  0  0  0  0  0  0  0  0  0
  191.5910  178.0590  142.8210 C   0  0  0  0  0  1  0  0  0  0  0  0
  190.3480  177.5710  145.5580 C   0  0  2  0  0  0  0  0  0  0  0  0
  189.1950  178.2050  147.7770 C   0  0  0  0  0  1  0  0  0  0  0  0
  188.3210  176.5580  144.4770 C   0  0  0  0  0  2  0  0  0  0  0  0
  189.8010  176.8530  144.3080 C   0  0  2  0  0  0  0  0  0  0  0  0
  189.2960  177.1820  146.6340 C   0  0  1  0  0  0  0  0  0  0  0  0
  190.7960  175.8530  147.8400 C   0  0  0  0  0  2  0  0  0  0  0  0
  187.9620  177.1020  145.8620 C   0  0  1  0  0  3  0  0  0  0  0  0
  190.5390  175.7580  143.5110 C   0  0  1  0  0  3  0  0  0  0  0  0
  193.0820  175.8390  147.1570 O   0  0  0  0  0  0  0  0  0  0  0  0
  190.3540  177.1650  142.9150 C   0  0  2  0  0  0  0  0  0  0  0  0
  189.5640  175.8820  147.1460 O   0  0  0  0  0  0  0  0  0  0  0  0
  190.3300  178.9540  145.3400 O   0  0  0  0  0  1  0  0  0  0  0  0
  191.8560  175.5460  143.9300 O   0  0  0  0  0  1  0  0  0  0  0  0
  191.6750  177.1720  145.9180 O   0  0  0  0  0  0  0  0  0  0  0  0
  189.3430  177.2450  141.7880 C   0  0  0  0  0  2  0  0  0  0  0  0
  188.8900  178.5580  141.6350 O   0  0  0  0  0  1  0  0  0  0  0  0
  1  5  2  0  0  0  0
  1  4  1  0  0  0  0
  2 33  1  0  0  0  0
  3  2  2  0  0  0  0
  4  6  2  0  0  0  0
  5  3  1  0  0  0  0
  6  2  1  0  0  0  0
  7  5  1  0  0  0  0
  8  7  1  0  0  0  0
  9 15  1  0  0  0  0
 10 21  1  0  0  0  0
 10 23  1  0  0  0  0
 11 13  1  0  0  0  0
 12 13  1  1  0  0  0
 12 18  1  0  0  0  0
 12 15  1  0  0  0  0
 14 11  1  0  0  0  0
 14  9  1  0  0  0  0
 15 20  1  0  0  0  0
 16 23  1  0  0  0  0
 16 22  1  0  0  0  0
 18 16  2  0  0  0  0
 19 17  1  0  0  0  0
 19 31  1  1  0  0  0
 20 22  2  0  0  0  0
 21 19  1  0  0  0  0
 22  8  1  0  0  0  0
 23 17  1  0  0  0  0
 24 27  1  1  0  0  0
 24 28  1  0  0  0  0
 24 26  1  0  0  0  0
 26 20  1  6  0  0  0
 28 26  1  0  0  0  0
 28 25  1  1  0  0  0
 29 32  1  0  0  0  0
 30 29  2  0  0  0  0
 31 29  1  0  0  0  0
 35 37  1  6  0  0  0
 35 34  1  0  0  0  0
 36 33  1  1  0  0  0
 36 35  1  0  0  0  0
 36 34  1  0  0  0  0
 38 48  2  0  0  0  0
 38 45  1  0  0  0  0
 40 51  1  6  0  0  0
 40 53  1  0  0  0  0
 40 44  1  0  0  0  0
 42 46  1  0  0  0  0
 43 42  1  1  0  0  0
 43 40  1  0  0  0  0
 44 50  1  0  0  0  0
 44 41  1  1  0  0  0
 46 37  1  6  0  0  0
 46 44  1  0  0  0  0
 47 52  1  1  0  0  0
 47 43  1  0  0  0  0
 49 39  1  6  0  0  0
 49 47  1  0  0  0  0
 49 43  1  0  0  0  0
 50 45  1  0  0  0  0
 53 38  1  0  0  0  0
 54 49  1  0  0  0  0
 55 54  1  0  0  0  0
M  END
>  <MODEL>
1

>  <REMARK>
 VINA RESULT:     -10.1      0.000      0.000
  Name = 
  10 active torsions:
  status: ('A' for Active; 'I' for Inactive)
    1  A    between atoms: C_2  and  C_28
    2  A    between atoms: C_2  and  C_44
    3  A    between atoms: O_8  and  C_22
    4  A    between atoms: O_8  and  C_43
    5  A    between atoms: C_11  and  C_38
    6  A    between atoms: C_19  and  C_45
    7  A    between atoms: C_27  and  C_54
    8  A    between atoms: C_28  and  C_49
    9  A    between atoms: N_32  and  C_39
   10  A    between atoms: C_51  and  C_54
                            x       y       z     vdW  Elec       q    Type
                         _______ _______ _______ _____ _____    ______ ____

>  <TORSDO>
F 10

$$$$
=
 OpenBabel10272401393D

 55 63  0  0  1  0  0  0  0  0999 V2000
  185.7380  178.4070  139.2010 C   0  0  0  0  0  3  0  0  0  0  0  0
  184.6550  178.7870  141.7600 C   0  0  0  0  0  0  0  0  0  0  0  0
  183.8290  178.4180  140.6970 C   0  0  0  0  0  3  0  0  0  0  0  0
  186.5690  178.7790  140.2640 C   0  0  0  0  0  3  0  0  0  0  0  0
  184.3640  178.2310  139.4150 C   0  0  0  0  0  0  0  0  0  0  0  0
  186.0280  178.9700  141.5420 C   0  0  0  0  0  3  0  0  0  0  0  0
  183.4840  177.7820  138.3010 C   0  0  0  0  0  2  0  0  0  0  0  0
  184.3180  177.6190  137.0380 C   0  0  0  0  0  2  0  0  0  0  0  0
  182.1600  173.2080  136.2860 C   0  0  0  0  0  2  0  0  0  0  0  0
  187.4230  176.8010  135.3390 C   0  0  0  0  0  2  0  0  0  0  0  0
  183.5610  171.2210  136.7440 N   0  0  0  0  0  2  0  0  0  0  0  0
  184.6530  173.3710  135.9820 C   0  0  1  0  0  3  0  0  0  0  0  0
  184.7410  172.1010  136.8310 C   0  0  0  0  0  2  0  0  0  0  0  0
  182.4710  171.7590  135.9170 C   0  0  0  0  0  2  0  0  0  0  0  0
  183.3650  174.0390  136.1960 N   0  0  0  0  0  0  0  0  0  0  0  0
  185.6970  175.5110  136.5420 C   0  0  0  0  0  0  0  0  0  0  0  0
  187.9580  175.9210  137.5170 C   0  0  0  0  0  2  0  0  0  0  0  0
  185.7850  174.2390  136.2830 N   0  0  0  0  0  0  0  0  0  0  0  0
  189.2540  176.1020  136.7510 C   0  0  1  0  0  3  0  0  0  0  0  0
  183.2580  175.4700  136.3400 C   0  0  0  0  0  0  0  0  0  0  0  0
  188.9300  176.9310  135.5180 C   0  0  0  0  0  2  0  0  0  0  0  0
  184.3780  176.1830  136.5980 C   0  0  0  0  0  0  0  0  0  0  0  0
  186.9030  176.2810  136.5900 N   0  0  0  0  0  0  0  0  0  0  0  0
  181.4680  175.9470  134.7540 C   0  0  1  0  0  3  0  0  0  0  0  0
  180.6160  178.1770  135.6840 C   0  0  0  0  0  1  0  0  0  0  0  0
  181.8820  176.1000  136.2110 C   0  0  2  0  0  3  0  0  0  0  0  0
  179.9820  175.6340  134.6600 C   0  0  0  0  0  1  0  0  0  0  0  0
  181.8140  177.3240  135.3080 C   0  0  1  0  0  3  0  0  0  0  0  0
  191.3780  175.9820  138.1760 C   0  0  0  0  0  0  0  0  0  0  0  0
  191.5220  174.6150  137.9720 O   0  0  0  0  0  0  0  0  0  0  0  0
  190.2990  176.7100  137.5720 N   0  0  0  0  0  2  0  0  0  0  0  0
  192.2540  176.6120  138.8290 O   0  0  0  0  0  1  0  0  0  0  0  0
  184.0650  178.9750  143.1190 C   0  0  0  0  0  2  0  0  0  0  0  0
  184.8010  178.8390  145.4970 C   0  0  0  0  0  2  0  0  0  0  0  0
  185.7760  178.0590  144.6390 C   0  0  1  0  0  3  0  0  0  0  0  0
  185.1570  179.3360  144.1120 C   0  0  1  0  0  3  0  0  0  0  0  0
  187.0910  178.3420  145.0310 O   0  0  0  0  0  0  0  0  0  0  0  0
  191.5380  176.5590  146.8850 C   0  0  0  0  0  0  0  0  0  0  0  0
  191.5530  177.9460  142.5900 C   0  0  0  0  0  1  0  0  0  0  0  0
  190.0660  177.6550  145.2320 C   0  0  2  0  0  0  0  0  0  0  0  0
  188.6770  178.4370  147.2610 C   0  0  0  0  0  1  0  0  0  0  0  0
  188.1940  176.4540  144.0670 C   0  0  0  0  0  2  0  0  0  0  0  0
  189.6710  176.8010  144.0110 C   0  0  2  0  0  0  0  0  0  0  0  0
  188.9290  177.3190  146.2360 C   0  0  1  0  0  0  0  0  0  0  0  0
  190.3510  176.1770  147.7000 C   0  0  0  0  0  2  0  0  0  0  0  0
  187.6810  177.1070  145.3530 C   0  0  1  0  0  3  0  0  0  0  0  0
  190.5240  175.6720  143.3960 C   0  0  1  0  0  3  0  0  0  0  0  0
  192.6920  176.2060  147.2400 O   0  0  0  0  0  0  0  0  0  0  0  0
  190.3460  177.0090  142.6530 C   0  0  2  0  0  0  0  0  0  0  0  0
  189.1930  176.0860  146.8940 O   0  0  0  0  0  0  0  0  0  0  0  0
  190.0180  179.0100  144.8810 O   0  0  0  0  0  1  0  0  0  0  0  0
  191.8010  175.5610  143.9550 O   0  0  0  0  0  1  0  0  0  0  0  0
  191.3650  177.3530  145.7520 O   0  0  0  0  0  0  0  0  0  0  0  0
  189.4490  176.9370  141.4330 C   0  0  0  0  0  2  0  0  0  0  0  0
  189.8270  177.9020  140.4960 O   0  0  0  0  0  1  0  0  0  0  0  0
  1  5  2  0  0  0  0
  1  4  1  0  0  0  0
  2 33  1  0  0  0  0
  3  2  2  0  0  0  0
  4  6  2  0  0  0  0
  5  3  1  0  0  0  0
  6  2  1  0  0  0  0
  7  5  1  0  0  0  0
  8  7  1  0  0  0  0
 10 21  1  0  0  0  0
 10 23  1  0  0  0  0
 11 13  1  0  0  0  0
 12 15  1  0  0  0  0
 12 18  1  0  0  0  0
 12 13  1  1  0  0  0
 14  9  1  0  0  0  0
 14 11  1  0  0  0  0
 15  9  1  0  0  0  0
 15 20  1  0  0  0  0
 16 23  1  0  0  0  0
 16 22  1  0  0  0  0
 18 16  2  0  0  0  0
 19 17  1  0  0  0  0
 19 31  1  1  0  0  0
 20 22  2  0  0  0  0
 21 19  1  0  0  0  0
 22  8  1  0  0  0  0
 23 17  1  0  0  0  0
 24 27  1  1  0  0  0
 24 28  1  0  0  0  0
 24 26  1  0  0  0  0
 26 20  1  6  0  0  0
 28 25  1  1  0  0  0
 28 26  1  0  0  0  0
 29 32  1  0  0  0  0
 30 29  2  0  0  0  0
 31 29  1  0  0  0  0
 35 37  1  1  0  0  0
 35 34  1  0  0  0  0
 36 33  1  6  0  0  0
 36 35  1  0  0  0  0
 36 34  1  0  0  0  0
 38 48  2  0  0  0  0
 38 45  1  0  0  0  0
 40 51  1  6  0  0  0
 40 53  1  0  0  0  0
 40 44  1  0  0  0  0
 42 46  1  0  0  0  0
 43 42  1  6  0  0  0
 43 40  1  0  0  0  0
 44 50  1  0  0  0  0
 44 41  1  1  0  0  0
 46 37  1  6  0  0  0
 46 44  1  0  0  0  0
 47 52  1  1  0  0  0
 47 43  1  0  0  0  0
 49 39  1  6  0  0  0
 49 47  1  0  0  0  0
 49 43  1  0  0  0  0
 50 45  1  0  0  0  0
 53 38  1  0  0  0  0
 54 49  1  0  0  0  0
 55 54  1  0  0  0  0
M  END
>  <MODEL>
2

>  <REMARK>
 VINA RESULT:      -8.7      1.302      2.044
  Name = 
  10 active torsions:
  status: ('A' for Active; 'I' for Inactive)
    1  A    between atoms: C_2  and  C_28
    2  A    between atoms: C_2  and  C_44
    3  A    between atoms: O_8  and  C_22
    4  A    between atoms: O_8  and  C_43
    5  A    between atoms: C_11  and  C_38
    6  A    between atoms: C_19  and  C_45
    7  A    between atoms: C_27  and  C_54
    8  A    between atoms: C_28  and  C_49
    9  A    between atoms: N_32  and  C_39
   10  A    between atoms: C_51  and  C_54
                            x       y       z     vdW  Elec       q    Type
                         _______ _______ _______ _____ _____    ______ ____

>  <TORSDO>
F 10

$$$$
=
 OpenBabel10272401393D

 55 63  0  0  1  0  0  0  0  0999 V2000
  190.1860  176.8200  139.9260 C   0  0  0  0  0  3  0  0  0  0  0  0
  189.2330  177.2290  137.3200 C   0  0  0  0  0  0  0  0  0  0  0  0
  188.5850  177.8220  138.4040 C   0  0  0  0  0  3  0  0  0  0  0  0
  190.8370  176.2210  138.8420 C   0  0  0  0  0  3  0  0  0  0  0  0
  189.0540  177.6180  139.7090 C   0  0  0  0  0  0  0  0  0  0  0  0
  190.3610  176.4240  137.5400 C   0  0  0  0  0  3  0  0  0  0  0  0
  188.3900  178.3010  140.8540 C   0  0  0  0  0  2  0  0  0  0  0  0
  187.6430  177.2700  141.6880 C   0  0  0  0  0  2  0  0  0  0  0  0
  186.9670  178.3450  146.4910 C   0  0  0  0  0  2  0  0  0  0  0  0
  185.0460  179.4870  140.4480 C   0  0  0  0  0  2  0  0  0  0  0  0
  184.6210  178.3810  147.2750 N   0  0  0  0  0  2  0  0  0  0  0  0
  185.1420  178.9680  144.8720 C   0  0  1  0  0  3  0  0  0  0  0  0
  184.1730  178.3320  145.8720 C   0  0  0  0  0  2  0  0  0  0  0  0
  185.9590  178.9600  147.4590 C   0  0  0  0  0  2  0  0  0  0  0  0
  186.5070  178.4810  145.1050 N   0  0  0  0  0  0  0  0  0  0  0  0
  185.4340  178.2540  142.5510 C   0  0  0  0  0  0  0  0  0  0  0  0
  183.6830  177.5550  140.9150 C   0  0  0  0  0  2  0  0  0  0  0  0
  184.6840  178.7050  143.5130 N   0  0  0  0  0  0  0  0  0  0  0  0
  182.9110  178.4600  139.9740 C   0  0  1  0  0  3  0  0  0  0  0  0
  187.3860  178.1180  144.0210 C   0  0  0  0  0  0  0  0  0  0  0  0
  183.8900  179.5020  139.4570 C   0  0  0  0  0  2  0  0  0  0  0  0
  186.8570  177.9180  142.7930 C   0  0  0  0  0  0  0  0  0  0  0  0
  184.9110  178.2640  141.2180 N   0  0  0  0  0  0  0  0  0  0  0  0
  189.2220  176.5130  144.0220 C   0  0  1  0  0  3  0  0  0  0  0  0
  190.5530  177.3430  146.0480 C   0  0  0  0  0  1  0  0  0  0  0  0
  188.8660  177.9610  144.3250 C   0  0  2  0  0  3  0  0  0  0  0  0
  190.6020  176.4320  143.3860 C   0  0  0  0  0  1  0  0  0  0  0  0
  189.1930  177.0050  145.4650 C   0  0  1  0  0  3  0  0  0  0  0  0
  180.9790  178.0280  138.3510 C   0  0  0  0  0  0  0  0  0  0  0  0
  180.2600  179.1280  138.8040 O   0  0  0  0  0  1  0  0  0  0  0  0
  182.2690  177.7140  138.8950 N   0  0  0  0  0  2  0  0  0  0  0  0
  180.5360  177.3460  137.3870 O   0  0  0  0  0  0  0  0  0  0  0  0
  188.7200  177.4640  135.9370 C   0  0  0  0  0  2  0  0  0  0  0  0
  186.7040  178.1470  134.6390 C   0  0  0  0  0  2  0  0  0  0  0  0
  186.6010  176.6700  134.9580 C   0  0  1  0  0  3  0  0  0  0  0  0
  187.2090  177.6220  135.9670 C   0  0  1  0  0  3  0  0  0  0  0  0
  185.3010  176.3610  135.3800 O   0  0  0  0  0  0  0  0  0  0  0  0
  183.5560  171.6560  136.4840 C   0  0  0  0  0  0  0  0  0  0  0  0
  187.9210  172.4390  137.3270 C   0  0  0  0  0  1  0  0  0  0  0  0
  185.2000  173.5000  136.4620 C   0  0  2  0  0  0  0  0  0  0  0  0
  183.1580  175.0760  136.4990 C   0  0  0  0  0  1  0  0  0  0  0  0
  186.2040  174.4050  134.3460 C   0  0  0  0  0  2  0  0  0  0  0  0
  186.3500  173.3650  135.4440 C   0  0  2  0  0  0  0  0  0  0  0  0
  184.1260  174.2550  135.6310 C   0  0  1  0  0  0  0  0  0  0  0  0
  182.6660  172.4300  135.5740 C   0  0  0  0  0  2  0  0  0  0  0  0
  184.9360  175.1840  134.7020 C   0  0  1  0  0  3  0  0  0  0  0  0
  186.9360  172.0350  134.9290 C   0  0  1  0  0  3  0  0  0  0  0  0
  183.2350  170.4980  136.8530 O   0  0  0  0  0  0  0  0  0  0  0  0
  187.7470  172.9260  135.8870 C   0  0  2  0  0  0  0  0  0  0  0  0
  183.4100  173.3490  134.8000 O   0  0  0  0  0  0  0  0  0  0  0  0
  185.6270  174.2910  137.5360 O   0  0  0  0  0  1  0  0  0  0  0  0
  186.4320  170.9050  135.5820 O   0  0  0  0  0  1  0  0  0  0  0  0
  184.7240  172.2470  136.9650 O   0  0  0  0  0  0  0  0  0  0  0  0
  188.9180  173.6430  135.2430 C   0  0  0  0  0  2  0  0  0  0  0  0
  189.9900  172.7630  135.0720 O   0  0  0  0  0  1  0  0  0  0  0  0
  2  6  2  0  0  0  0
  2  3  1  0  0  0  0
  3  5  2  0  0  0  0
  4  1  2  0  0  0  0
  5  1  1  0  0  0  0
  5  7  1  0  0  0  0
  6  4  1  0  0  0  0
  7  8  1  0  0  0  0
  8 22  1  0  0  0  0
  9 14  1  0  0  0  0
 10 23  1  0  0  0  0
 11 14  1  0  0  0  0
 12 15  1  0  0  0  0
 12 13  1  1  0  0  0
 13 11  1  0  0  0  0
 15  9  1  0  0  0  0
 16 22  1  0  0  0  0
 16 18  2  0  0  0  0
 17 23  1  0  0  0  0
 18 12  1  0  0  0  0
 19 31  1  6  0  0  0
 19 17  1  0  0  0  0
 20 15  1  0  0  0  0
 21 19  1  0  0  0  0
 21 10  1  0  0  0  0
 22 20  2  0  0  0  0
 23 16  1  0  0  0  0
 24 27  1  6  0  0  0
 24 26  1  0  0  0  0
 24 28  1  0  0  0  0
 26 20  1  1  0  0  0
 26 28  1  0  0  0  0
 28 25  1  6  0  0  0
 29 30  1  0  0  0  0
 29 31  1  0  0  0  0
 32 29  2  0  0  0  0
 33  2  1  0  0  0  0
 34 35  1  0  0  0  0
 34 36  1  0  0  0  0
 35 37  1  1  0  0  0
 35 36  1  0  0  0  0
 36 33  1  6  0  0  0
 38 48  2  0  0  0  0
 38 53  1  0  0  0  0
 40 53  1  0  0  0  0
 40 51  1  1  0  0  0
 42 46  1  0  0  0  0
 43 42  1  6  0  0  0
 43 49  1  0  0  0  0
 43 40  1  0  0  0  0
 44 40  1  0  0  0  0
 44 41  1  1  0  0  0
 45 38  1  0  0  0  0
 46 37  1  1  0  0  0
 46 44  1  0  0  0  0
 47 43  1  0  0  0  0
 47 52  1  1  0  0  0
 47 49  1  0  0  0  0
 49 39  1  1  0  0  0
 50 45  1  0  0  0  0
 50 44  1  0  0  0  0
 54 49  1  0  0  0  0
 55 54  1  0  0  0  0
M  END
>  <MODEL>
3

>  <REMARK>
 VINA RESULT:      -7.8      4.200     10.102
  Name = 
  10 active torsions:
  status: ('A' for Active; 'I' for Inactive)
    1  A    between atoms: C_2  and  C_28
    2  A    between atoms: C_2  and  C_44
    3  A    between atoms: O_8  and  C_22
    4  A    between atoms: O_8  and  C_43
    5  A    between atoms: C_11  and  C_38
    6  A    between atoms: C_19  and  C_45
    7  A    between atoms: C_27  and  C_54
    8  A    between atoms: C_28  and  C_49
    9  A    between atoms: N_32  and  C_39
   10  A    between atoms: C_51  and  C_54
                            x       y       z     vdW  Elec       q    Type
                         _______ _______ _______ _____ _____    ______ ____

>  <TORSDO>
F 10

$$$$
=
 OpenBabel10272401393D

 55 63  0  0  1  0  0  0  0  0999 V2000
  183.3460  178.2750  141.2570 C   0  0  0  0  0  3  0  0  0  0  0  0
  184.2670  179.2650  143.7140 C   0  0  0  0  0  0  0  0  0  0  0  0
  185.1140  179.2450  142.6050 C   0  0  0  0  0  3  0  0  0  0  0  0
  182.4950  178.2890  142.3680 C   0  0  0  0  0  3  0  0  0  0  0  0
  184.6600  178.7480  141.3750 C   0  0  0  0  0  0  0  0  0  0  0  0
  182.9550  178.7830  143.5960 C   0  0  0  0  0  3  0  0  0  0  0  0
  185.5530  178.7840  140.1840 C   0  0  0  0  0  2  0  0  0  0  0  0
  184.7480  179.2190  138.9670 C   0  0  0  0  0  2  0  0  0  0  0  0
  181.5340  175.7720  137.3990 C   0  0  0  0  0  2  0  0  0  0  0  0
  187.2310  178.6060  136.3880 C   0  0  0  0  0  2  0  0  0  0  0  0
  182.4990  173.5640  136.8370 N   0  0  0  0  0  2  0  0  0  0  0  0
  183.9040  175.6470  136.5590 C   0  0  1  0  0  3  0  0  0  0  0  0
  183.8470  174.1580  136.9080 C   0  0  0  0  0  2  0  0  0  0  0  0
  181.4340  174.5260  136.5210 C   0  0  0  0  0  2  0  0  0  0  0  0
  182.8630  176.3820  137.2860 N   0  0  0  0  0  0  0  0  0  0  0  0
  185.4950  177.2500  137.5000 C   0  0  0  0  0  0  0  0  0  0  0  0
  187.9250  176.9240  137.9680 C   0  0  0  0  0  2  0  0  0  0  0  0
  185.2400  176.1610  136.8340 N   0  0  0  0  0  0  0  0  0  0  0  0
  189.0720  177.1700  137.0060 C   0  0  1  0  0  3  0  0  0  0  0  0
  183.1160  177.6620  137.9020 C   0  0  0  0  0  0  0  0  0  0  0  0
  188.7350  178.4280  136.2230 C   0  0  0  0  0  2  0  0  0  0  0  0
  184.3970  178.0510  138.0900 C   0  0  0  0  0  0  0  0  0  0  0  0
  186.8350  177.7540  137.4940 N   0  0  0  0  0  0  0  0  0  0  0  0
  181.4990  179.3020  137.1020 C   0  0  1  0  0  3  0  0  0  0  0  0
  181.1670  180.6920  139.2290 C   0  0  0  0  0  1  0  0  0  0  0  0
  181.9210  178.4990  138.3230 C   0  0  2  0  0  3  0  0  0  0  0  0
  179.9820  179.3950  137.0310 C   0  0  0  0  0  1  0  0  0  0  0  0
  182.1440  180.0050  138.2910 C   0  0  1  0  0  3  0  0  0  0  0  0
  191.4740  176.4020  137.4510 C   0  0  0  0  0  0  0  0  0  0  0  0
  191.4120  175.4110  136.4780 O   0  0  0  0  0  0  0  0  0  0  0  0
  190.3570  177.2690  137.6950 N   0  0  0  0  0  2  0  0  0  0  0  0
  192.5550  176.6050  138.0690 O   0  0  0  0  0  1  0  0  0  0  0  0
  184.7690  179.8040  145.0140 C   0  0  0  0  0  2  0  0  0  0  0  0
  185.6170  178.0440  146.5610 C   0  0  0  0  0  2  0  0  0  0  0  0
  185.7720  177.5560  145.1350 C   0  0  1  0  0  3  0  0  0  0  0  0
  185.9880  179.0180  145.4640 C   0  0  1  0  0  3  0  0  0  0  0  0
  187.0280  176.9570  144.9690 O   0  0  0  0  0  0  0  0  0  0  0  0
  190.7710  177.5660  141.5040 C   0  0  0  0  0  0  0  0  0  0  0  0
  191.8420  175.2910  145.2520 C   0  0  0  0  0  1  0  0  0  0  0  0
  189.7210  176.6590  143.5470 C   0  0  2  0  0  0  0  0  0  0  0  0
  187.4890  176.8690  142.2710 C   0  0  0  0  0  1  0  0  0  0  0  0
  189.0590  178.1000  145.4940 C   0  0  0  0  0  2  0  0  0  0  0  0
  190.1840  177.2860  144.8770 C   0  0  2  0  0  0  0  0  0  0  0  0
  188.5240  177.5730  143.1640 C   0  0  1  0  0  0  0  0  0  0  0  0
  189.6210  178.4940  141.3150 C   0  0  0  0  0  2  0  0  0  0  0  0
  187.8900  177.9700  144.5140 C   0  0  1  0  0  3  0  0  0  0  0  0
  191.5750  177.8980  145.1410 C   0  0  1  0  0  3  0  0  0  0  0  0
  191.7460  177.5940  140.7100 O   0  0  0  0  0  0  0  0  0  0  0  0
  191.1760  176.5590  145.7880 C   0  0  2  0  0  0  0  0  0  0  0  0
  188.9870  178.7690  142.5480 O   0  0  0  0  0  0  0  0  0  0  0  0
  189.2770  175.3520  143.7840 O   0  0  0  0  0  1  0  0  0  0  0  0
  192.4810  177.7120  144.0930 O   0  0  0  0  0  1  0  0  0  0  0  0
  190.7360  176.6320  142.5380 O   0  0  0  0  0  0  0  0  0  0  0  0
  190.9070  176.6340  147.2790 C   0  0  0  0  0  2  0  0  0  0  0  0
  191.9990  177.2000  147.9400 O   0  0  0  0  0  1  0  0  0  0  0  0
  1  5  2  0  0  0  0
  1  4  1  0  0  0  0
  2 33  1  0  0  0  0
  3  2  2  0  0  0  0
  4  6  2  0  0  0  0
  5  3  1  0  0  0  0
  6  2  1  0  0  0  0
  7  5  1  0  0  0  0
  8  7  1  0  0  0  0
 10 23  1  0  0  0  0
 11 13  1  0  0  0  0
 12 18  1  0  0  0  0
 12 13  1  1  0  0  0
 12 15  1  0  0  0  0
 14 11  1  0  0  0  0
 14  9  1  0  0  0  0
 15  9  1  0  0  0  0
 15 20  1  0  0  0  0
 16 22  1  0  0  0  0
 18 16  2  0  0  0  0
 19 31  1  1  0  0  0
 19 17  1  0  0  0  0
 20 22  2  0  0  0  0
 21 10  1  0  0  0  0
 21 19  1  0  0  0  0
 22  8  1  0  0  0  0
 23 16  1  0  0  0  0
 23 17  1  0  0  0  0
 24 27  1  1  0  0  0
 24 28  1  0  0  0  0
 24 26  1  0  0  0  0
 26 20  1  6  0  0  0
 28 26  1  0  0  0  0
 28 25  1  1  0  0  0
 29 31  1  0  0  0  0
 29 32  1  0  0  0  0
 30 29  2  0  0  0  0
 35 37  1  1  0  0  0
 35 36  1  0  0  0  0
 35 34  1  0  0  0  0
 36 33  1  6  0  0  0
 36 34  1  0  0  0  0
 38 53  1  0  0  0  0
 40 51  1  1  0  0  0
 40 43  1  0  0  0  0
 43 47  1  0  0  0  0
 43 42  1  1  0  0  0
 43 49  1  0  0  0  0
 44 41  1  6  0  0  0
 44 40  1  0  0  0  0
 44 46  1  0  0  0  0
 45 38  1  0  0  0  0
 45 50  1  0  0  0  0
 46 37  1  1  0  0  0
 46 42  1  0  0  0  0
 47 52  1  6  0  0  0
 47 49  1  0  0  0  0
 48 38  2  0  0  0  0
 49 39  1  6  0  0  0
 49 54  1  0  0  0  0
 50 44  1  0  0  0  0
 53 40  1  0  0  0  0
 54 55  1  0  0  0  0
M  END
>  <MODEL>
4

>  <REMARK>
 VINA RESULT:      -7.4      1.230      2.713
  Name = 
  10 active torsions:
  status: ('A' for Active; 'I' for Inactive)
    1  A    between atoms: C_2  and  C_28
    2  A    between atoms: C_2  and  C_44
    3  A    between atoms: O_8  and  C_22
    4  A    between atoms: O_8  and  C_43
    5  A    between atoms: C_11  and  C_38
    6  A    between atoms: C_19  and  C_45
    7  A    between atoms: C_27  and  C_54
    8  A    between atoms: C_28  and  C_49
    9  A    between atoms: N_32  and  C_39
   10  A    between atoms: C_51  and  C_54
                            x       y       z     vdW  Elec       q    Type
                         _______ _______ _______ _____ _____    ______ ____

>  <TORSDO>
F 10

$$$$
=
 OpenBabel10272401393D

 55 63  0  0  1  0  0  0  0  0999 V2000
  192.9570  177.4070  140.3140 C   0  0  0  0  0  3  0  0  0  0  0  0
  192.0540  176.0850  138.0110 C   0  0  0  0  0  0  0  0  0  0  0  0
  191.1360  176.6050  138.9260 C   0  0  0  0  0  3  0  0  0  0  0  0
  193.8800  176.8840  139.4010 C   0  0  0  0  0  3  0  0  0  0  0  0
  191.5830  177.2630  140.0810 C   0  0  0  0  0  0  0  0  0  0  0  0
  193.4290  176.2230  138.2510 C   0  0  0  0  0  3  0  0  0  0  0  0
  190.5970  177.8630  141.0220 C   0  0  0  0  0  2  0  0  0  0  0  0
  189.3770  176.9580  141.1150 C   0  0  0  0  0  2  0  0  0  0  0  0
  185.5910  178.7170  143.8070 C   0  0  0  0  0  2  0  0  0  0  0  0
  188.6740  178.9440  138.1550 C   0  0  0  0  0  2  0  0  0  0  0  0
  183.4060  178.8440  142.6550 N   0  0  0  0  0  2  0  0  0  0  0  0
  185.5380  179.0780  141.3160 C   0  0  1  0  0  3  0  0  0  0  0  0
  184.0900  178.5860  141.3740 C   0  0  0  0  0  2  0  0  0  0  0  0
  184.2610  179.4570  143.6810 C   0  0  0  0  0  2  0  0  0  0  0  0
  186.2720  178.6440  142.5110 N   0  0  0  0  0  0  0  0  0  0  0  0
  187.3250  178.0360  140.0110 C   0  0  0  0  0  0  0  0  0  0  0  0
  187.2040  177.0880  137.7050 C   0  0  0  0  0  2  0  0  0  0  0  0
  186.1620  178.6150  140.0830 N   0  0  0  0  0  0  0  0  0  0  0  0
  187.4270  177.8380  136.4060 C   0  0  1  0  0  3  0  0  0  0  0  0
  187.6200  178.1350  142.4380 C   0  0  0  0  0  0  0  0  0  0  0  0
  188.5780  178.8020  136.6410 C   0  0  0  0  0  2  0  0  0  0  0  0
  188.1070  177.7530  141.2370 C   0  0  0  0  0  0  0  0  0  0  0  0
  187.9110  177.8460  138.7190 N   0  0  0  0  0  0  0  0  0  0  0  0
  188.8050  176.5770  143.8920 C   0  0  1  0  0  3  0  0  0  0  0  0
  188.3080  177.6190  146.1800 C   0  0  0  0  0  1  0  0  0  0  0  0
  188.4150  178.0390  143.7290 C   0  0  2  0  0  3  0  0  0  0  0  0
  190.2130  176.4680  144.4580 C   0  0  0  0  0  1  0  0  0  0  0  0
  187.7710  177.1990  144.8230 C   0  0  1  0  0  3  0  0  0  0  0  0
  188.0340  175.5530  135.4230 C   0  0  0  0  0  0  0  0  0  0  0  0
  188.1230  174.9580  136.6760 O   0  0  0  0  0  1  0  0  0  0  0  0
  187.6770  176.9360  135.2840 N   0  0  0  0  0  2  0  0  0  0  0  0
  188.1830  174.8500  134.3860 O   0  0  0  0  0  0  0  0  0  0  0  0
  191.5570  175.3930  136.7850 C   0  0  0  0  0  2  0  0  0  0  0  0
  191.3370  173.1780  135.6630 C   0  0  0  0  0  2  0  0  0  0  0  0
  192.7820  173.3770  136.0710 C   0  0  1  0  0  3  0  0  0  0  0  0
  191.6670  173.8880  136.9590 C   0  0  1  0  0  3  0  0  0  0  0  0
  193.2850  172.1990  136.6400 O   0  0  0  0  0  0  0  0  0  0  0  0
  197.9030  169.9640  136.9080 C   0  0  0  0  0  0  0  0  0  0  0  0
  197.7270  174.3610  137.9120 C   0  0  0  0  0  1  0  0  0  0  0  0
  196.2610  171.7840  137.2160 C   0  0  2  0  0  0  0  0  0  0  0  0
  194.5130  169.9080  137.5030 C   0  0  0  0  0  1  0  0  0  0  0  0
  195.1200  172.9290  135.2950 C   0  0  0  0  0  2  0  0  0  0  0  0
  196.3400  172.9410  136.2000 C   0  0  2  0  0  0  0  0  0  0  0  0
  195.2700  170.8130  136.5170 C   0  0  1  0  0  0  0  0  0  0  0  0
  196.9000  169.1800  136.1350 C   0  0  0  0  0  2  0  0  0  0  0  0
  194.2860  171.7360  135.7670 C   0  0  1  0  0  3  0  0  0  0  0  0
  197.6170  173.4050  135.4720 C   0  0  1  0  0  3  0  0  0  0  0  0
  199.0690  169.5200  137.0710 O   0  0  0  0  0  0  0  0  0  0  0  0
  196.9890  174.2750  136.5750 C   0  0  2  0  0  0  0  0  0  0  0  0
  195.9440  170.0330  135.5370 O   0  0  0  0  0  0  0  0  0  0  0  0
  195.7110  172.2590  138.4140 O   0  0  0  0  0  1  0  0  0  0  0  0
  198.7830  172.7740  135.9170 O   0  0  0  0  0  1  0  0  0  0  0  0
  197.5250  171.1720  137.4930 O   0  0  0  0  0  0  0  0  0  0  0  0
  196.2970  175.5290  136.0740 C   0  0  0  0  0  2  0  0  0  0  0  0
  197.2330  176.5420  135.8530 O   0  0  0  0  0  1  0  0  0  0  0  0
  2  6  2  0  0  0  0
  2  3  1  0  0  0  0
  3  5  2  0  0  0  0
  4  1  2  0  0  0  0
  5  1  1  0  0  0  0
  5  7  1  0  0  0  0
  6  4  1  0  0  0  0
  7  8  1  0  0  0  0
  8 22  1  0  0  0  0
 10 23  1  0  0  0  0
 11 14  1  0  0  0  0
 12 13  1  1  0  0  0
 12 15  1  0  0  0  0
 13 11  1  0  0  0  0
 14  9  1  0  0  0  0
 15  9  1  0  0  0  0
 16 18  2  0  0  0  0
 16 22  1  0  0  0  0
 17 23  1  0  0  0  0
 18 12  1  0  0  0  0
 19 31  1  6  0  0  0
 19 21  1  0  0  0  0
 19 17  1  0  0  0  0
 20 15  1  0  0  0  0
 21 10  1  0  0  0  0
 22 20  2  0  0  0  0
 23 16  1  0  0  0  0
 24 27  1  1  0  0  0
 24 28  1  0  0  0  0
 26 20  1  6  0  0  0
 26 24  1  0  0  0  0
 26 28  1  0  0  0  0
 28 25  1  1  0  0  0
 29 30  1  0  0  0  0
 31 29  1  0  0  0  0
 32 29  2  0  0  0  0
 33  2  1  0  0  0  0
 34 35  1  0  0  0  0
 34 36  1  0  0  0  0
 35 37  1  1  0  0  0
 35 36  1  0  0  0  0
 36 33  1  6  0  0  0
 38 48  2  0  0  0  0
 38 53  1  0  0  0  0
 40 53  1  0  0  0  0
 40 51  1  1  0  0  0
 42 46  1  0  0  0  0
 43 42  1  6  0  0  0
 43 49  1  0  0  0  0
 43 40  1  0  0  0  0
 44 40  1  0  0  0  0
 44 41  1  1  0  0  0
 45 38  1  0  0  0  0
 46 44  1  0  0  0  0
 46 37  1  1  0  0  0
 47 52  1  1  0  0  0
 47 43  1  0  0  0  0
 47 49  1  0  0  0  0
 49 39  1  1  0  0  0
 50 45  1  0  0  0  0
 50 44  1  0  0  0  0
 54 49  1  0  0  0  0
 55 54  1  0  0  0  0
M  END
>  <MODEL>
5

>  <REMARK>
 VINA RESULT:      -7.4      4.830      9.809
  Name = 
  10 active torsions:
  status: ('A' for Active; 'I' for Inactive)
    1  A    between atoms: C_2  and  C_28
    2  A    between atoms: C_2  and  C_44
    3  A    between atoms: O_8  and  C_22
    4  A    between atoms: O_8  and  C_43
    5  A    between atoms: C_11  and  C_38
    6  A    between atoms: C_19  and  C_45
    7  A    between atoms: C_27  and  C_54
    8  A    between atoms: C_28  and  C_49
    9  A    between atoms: N_32  and  C_39
   10  A    between atoms: C_51  and  C_54
                            x       y       z     vdW  Elec       q    Type
                         _______ _______ _______ _____ _____    ______ ____

>  <TORSDO>
F 10

$$$$
