=
 OpenBabel10272413463D

 30 31  0  0  1  0  0  0  0  0999 V2000
  183.2370  178.5630  141.9360 C   0  0  0  0  0  0  0  0  0  0  0  0
  181.6020  177.9510  140.1620 C   0  0  2  0  0  3  0  0  0  0  0  0
  184.3310  178.1060  141.0210 C   0  0  0  0  0  2  0  0  0  0  0  0
  184.0480  178.2010  137.7440 N   0  0  0  0  0  0  0  0  0  0  0  0
  183.5330  179.0700  138.7860 C   0  0  2  0  0  3  0  0  0  0  0  0
  185.7760  178.6100  139.1850 N   0  0  0  0  0  2  0  0  0  0  0  0
  184.6030  179.0940  139.8950 C   0  0  2  0  0  3  0  0  0  0  0  0
  182.0220  178.9190  139.0430 C   0  0  2  0  0  3  0  0  0  0  0  0
  186.1340  177.2550  137.1250 N   0  0  0  0  0  1  0  0  0  0  0  0
  185.3020  178.0290  137.9790 C   0  0  0  0  0  0  0  0  0  0  0  0
  181.9480  178.4250  141.5550 C   0  0  0  0  0  0  0  0  0  0  0  0
  184.7040  178.7980  144.0350 C   0  0  0  0  0  0  0  0  0  0  0  0
  185.5530  177.9420  143.6720 O   0  0  0  0  0  0  0  0  0  0  0  0
  183.5660  179.1140  143.2230 N   0  0  0  0  0  2  0  0  0  0  0  0
  184.8650  179.4710  145.3510 C   0  0  0  0  0  2  0  0  0  0  0  0
  184.6940  178.4970  146.4240 N   0  0  0  0  0  2  0  0  0  0  0  0
  186.1390  179.9230  147.6280 O   0  0  0  0  0  1  0  0  0  0  0  0
  187.0150  177.8080  146.9050 C   0  0  0  0  0  1  0  0  0  0  0  0
  185.8000  178.5900  147.3780 C   0  0  2  0  0  3  0  0  0  0  0  0
  180.8040  178.7700  142.4400 C   0  0  0  0  0  0  0  0  0  0  0  0
  180.6080  180.0610  142.9160 O   0  0  0  0  0  1  0  0  0  0  0  0
  179.9880  177.8730  142.7820 O   0  0  0  0  0  0  0  0  0  0  0  0
  179.9830  180.1310  139.5010 O   0  0  0  0  0  1  0  0  0  0  0  0
  181.3320  180.2860  139.1720 C   0  0  2  0  0  3  0  0  0  0  0  0
  181.4580  181.1280  137.9010 C   0  0  0  0  0  2  0  0  0  0  0  0
  180.6790  182.4300  138.0030 C   0  0  0  0  0  1  0  0  0  0  0  0
  182.0510  176.2100  139.8430 S   0  0  0  0  0  0  0  0  0  0  0  0
  180.6440  175.8550  137.5300 C   0  0  0  0  0  1  0  0  0  0  0  0
  180.4660  175.8470  139.0340 C   0  0  0  0  0  3  0  0  0  0  0  0
  179.9820  174.4810  139.4710 C   0  0  0  0  0  1  0  0  0  0  0  0
  1 14  1  0  0  0  0
  2 27  1  6  0  0  0
  2 11  1  0  0  0  0
  3  1  1  0  0  0  0
  4 10  2  0  0  0  0
  5  4  1  6  0  0  0
  5  8  1  0  0  0  0
  5  7  1  0  0  0  0
  6  7  1  0  0  0  0
  7  3  1  1  0  0  0
  8 24  1  1  0  0  0
  8  2  1  0  0  0  0
  9 10  1  0  0  0  0
 10  6  1  0  0  0  0
 11  1  2  0  0  0  0
 11 20  1  0  0  0  0
 12 15  1  0  0  0  0
 13 12  2  0  0  0  0
 14 12  1  0  0  0  0
 15 16  1  0  0  0  0
 16 19  1  0  0  0  0
 19 18  1  6  0  0  0
 19 17  1  0  0  0  0
 20 22  2  0  0  0  0
 20 21  1  0  0  0  0
 24 23  1  6  0  0  0
 25 26  1  0  0  0  0
 25 24  1  0  0  0  0
 28 29  1  0  0  0  0
 29 30  1  0  0  0  0
 29 27  1  0  0  0  0
M  END
>  <MODEL>
1

>  <REMARK>
 VINA RESULT:      -5.7      0.000      0.000
  Name = 
  9 active torsions:
  status: ('A' for Active; 'I' for Inactive)
    1  A    between atoms: C_1  and  N_22
    2  A    between atoms: C_2  and  C_14
    3  A    between atoms: C_4  and  S_25
    4  A    between atoms: C_7  and  C_30
    5  A    between atoms: C_10  and  C_23
    6  A    between atoms: C_11  and  S_25
    7  A    between atoms: C_13  and  C_30
    8  A    between atoms: C_14  and  N_28
    9  A    between atoms: N_28  and  C_29
                            x       y       z     vdW  Elec       q    Type
                         _______ _______ _______ _____ _____    ______ ____

>  <TORSDO>
F 9

$$$$
=
 OpenBabel10272413463D

 30 31  0  0  1  0  0  0  0  0999 V2000
  184.7730  177.6000  137.7060 C   0  0  0  0  0  0  0  0  0  0  0  0
  182.5020  177.6760  138.7220 C   0  0  2  0  0  3  0  0  0  0  0  0
  184.3300  176.4060  136.9180 C   0  0  0  0  0  2  0  0  0  0  0  0
  181.1910  175.9210  136.0580 N   0  0  0  0  0  0  0  0  0  0  0  0
  181.9770  177.1320  136.2110 C   0  0  2  0  0  3  0  0  0  0  0  0
  183.1850  175.5590  134.9990 N   0  0  0  0  0  2  0  0  0  0  0  0
  183.4090  176.7750  135.7640 C   0  0  2  0  0  3  0  0  0  0  0  0
  181.6420  177.9460  137.4750 C   0  0  2  0  0  3  0  0  0  0  0  0
  181.3870  173.8340  134.9480 N   0  0  0  0  0  1  0  0  0  0  0  0
  181.8790  175.1120  135.3310 C   0  0  0  0  0  0  0  0  0  0  0  0
  183.9310  178.1550  138.6050 C   0  0  0  0  0  0  0  0  0  0  0  0
  187.3220  177.3820  137.4440 C   0  0  0  0  0  0  0  0  0  0  0  0
  187.3370  176.1280  137.5580 O   0  0  0  0  0  0  0  0  0  0  0  0
  186.0990  178.1250  137.5220 N   0  0  0  0  0  2  0  0  0  0  0  0
  188.6040  178.1130  137.2610 C   0  0  0  0  0  2  0  0  0  0  0  0
  188.8930  178.9020  138.4530 N   0  0  0  0  0  2  0  0  0  0  0  0
  188.4020  178.7180  140.7540 O   0  0  0  0  0  1  0  0  0  0  0  0
  190.3090  177.5180  139.9260 C   0  0  0  0  0  1  0  0  0  0  0  0
  188.9120  178.0460  139.6390 C   0  0  2  0  0  3  0  0  0  0  0  0
  184.3240  179.2830  139.4900 C   0  0  0  0  0  0  0  0  0  0  0  0
  184.8050  179.0720  140.7770 O   0  0  0  0  0  1  0  0  0  0  0  0
  184.2130  180.4680  139.0770 O   0  0  0  0  0  0  0  0  0  0  0  0
  180.9620  180.1320  138.2440 O   0  0  0  0  0  1  0  0  0  0  0  0
  181.5260  179.4460  137.1660 C   0  0  2  0  0  3  0  0  0  0  0  0
  180.7140  179.7220  135.9000 C   0  0  0  0  0  2  0  0  0  0  0  0
  180.6790  181.2040  135.5590 C   0  0  0  0  0  1  0  0  0  0  0  0
  182.3430  175.9800  139.3790 S   0  0  0  0  0  0  0  0  0  0  0  0
  179.9910  174.8370  140.1620 C   0  0  0  0  0  1  0  0  0  0  0  0
  180.5570  176.1490  139.6570 C   0  0  0  0  0  3  0  0  0  0  0  0
  180.3110  177.2290  140.6880 C   0  0  0  0  0  1  0  0  0  0  0  0
  1 11  2  0  0  0  0
  2 27  1  6  0  0  0
  3  1  1  0  0  0  0
  5  4  1  1  0  0  0
  5  8  1  0  0  0  0
  6 10  1  0  0  0  0
  6  7  1  0  0  0  0
  7  5  1  0  0  0  0
  7  3  1  1  0  0  0
  8 24  1  6  0  0  0
  8  2  1  0  0  0  0
  9 10  1  0  0  0  0
 10  4  2  0  0  0  0
 11  2  1  0  0  0  0
 11 20  1  0  0  0  0
 12 14  1  0  0  0  0
 12 13  2  0  0  0  0
 14  1  1  0  0  0  0
 15 12  1  0  0  0  0
 15 16  1  0  0  0  0
 16 19  1  0  0  0  0
 19 18  1  1  0  0  0
 19 17  1  0  0  0  0
 20 21  1  0  0  0  0
 22 20  2  0  0  0  0
 24 23  1  1  0  0  0
 25 24  1  0  0  0  0
 26 25  1  0  0  0  0
 27 29  1  0  0  0  0
 29 28  1  0  0  0  0
 29 30  1  0  0  0  0
M  END
>  <MODEL>
2

>  <REMARK>
 VINA RESULT:      -5.3      3.946      5.219
  Name = 
  9 active torsions:
  status: ('A' for Active; 'I' for Inactive)
    1  A    between atoms: C_1  and  N_22
    2  A    between atoms: C_2  and  C_14
    3  A    between atoms: C_4  and  S_25
    4  A    between atoms: C_7  and  C_30
    5  A    between atoms: C_10  and  C_23
    6  A    between atoms: C_11  and  S_25
    7  A    between atoms: C_13  and  C_30
    8  A    between atoms: C_14  and  N_28
    9  A    between atoms: N_28  and  C_29
                            x       y       z     vdW  Elec       q    Type
                         _______ _______ _______ _____ _____    ______ ____

>  <TORSDO>
F 9

$$$$
=
 OpenBabel10272413463D

 30 31  0  0  1  0  0  0  0  0999 V2000
  185.1630  178.8010  140.3600 C   0  0  0  0  0  0  0  0  0  0  0  0
  183.3280  178.8630  138.6800 C   0  0  2  0  0  3  0  0  0  0  0  0
  184.2010  179.3600  141.3630 C   0  0  0  0  0  2  0  0  0  0  0  0
  180.9570  178.8330  141.1850 N   0  0  0  0  0  0  0  0  0  0  0  0
  182.0940  178.0040  140.8280 C   0  0  2  0  0  3  0  0  0  0  0  0
  182.4390  178.9490  142.9240 N   0  0  0  0  0  2  0  0  0  0  0  0
  183.2000  178.3240  141.8540 C   0  0  2  0  0  3  0  0  0  0  0  0
  182.3310  177.8770  139.3120 C   0  0  2  0  0  3  0  0  0  0  0  0
  180.2330  180.1010  143.0540 N   0  0  0  0  0  1  0  0  0  0  0  0
  181.1720  179.2790  142.3730 C   0  0  0  0  0  0  0  0  0  0  0  0
  184.7670  178.6320  139.0800 C   0  0  0  0  0  0  0  0  0  0  0  0
  186.9530  178.1080  142.0710 C   0  0  0  0  0  0  0  0  0  0  0  0
  186.1570  178.0490  143.0450 O   0  0  0  0  0  0  0  0  0  0  0  0
  186.5060  178.4800  140.7610 N   0  0  0  0  0  2  0  0  0  0  0  0
  188.3950  177.8220  142.2900 C   0  0  0  0  0  2  0  0  0  0  0  0
  188.5380  176.6430  143.1390 N   0  0  0  0  0  2  0  0  0  0  0  0
  188.5690  176.9920  145.4730 O   0  0  0  0  0  1  0  0  0  0  0  0
  190.1090  178.2620  144.1390 C   0  0  0  0  0  1  0  0  0  0  0  0
  189.3510  176.9560  144.3140 C   0  0  2  0  0  3  0  0  0  0  0  0
  185.6850  178.1690  138.0050 C   0  0  0  0  0  0  0  0  0  0  0  0
  185.6710  176.8570  137.5440 O   0  0  0  0  0  1  0  0  0  0  0  0
  186.5100  178.9750  137.4980 O   0  0  0  0  0  0  0  0  0  0  0  0
  182.4950  176.2610  137.5240 O   0  0  0  0  0  1  0  0  0  0  0  0
  182.6190  176.4230  138.9060 C   0  0  2  0  0  3  0  0  0  0  0  0
  181.7120  175.4230  139.6240 C   0  0  0  0  0  2  0  0  0  0  0  0
  180.3880  175.2350  138.8990 C   0  0  0  0  0  1  0  0  0  0  0  0
  182.8050  180.6100  138.7800 S   0  0  0  0  0  0  0  0  0  0  0  0
  180.1680  181.3030  138.6610 C   0  0  0  0  0  1  0  0  0  0  0  0
  181.1360  180.2490  138.1650 C   0  0  0  0  0  3  0  0  0  0  0  0
  181.1470  180.2550  136.6510 C   0  0  0  0  0  1  0  0  0  0  0  0
  1 14  1  0  0  0  0
  1  3  1  0  0  0  0
  2 27  1  1  0  0  0
  2 11  1  0  0  0  0
  2  8  1  0  0  0  0
  4 10  2  0  0  0  0
  5  4  1  6  0  0  0
  5  7  1  0  0  0  0
  7  3  1  6  0  0  0
  7  6  1  0  0  0  0
  8 24  1  1  0  0  0
  8  5  1  0  0  0  0
 10  6  1  0  0  0  0
 10  9  1  0  0  0  0
 11  1  2  0  0  0  0
 12 15  1  0  0  0  0
 12 13  2  0  0  0  0
 14 12  1  0  0  0  0
 15 16  1  0  0  0  0
 16 19  1  0  0  0  0
 19 18  1  6  0  0  0
 19 17  1  0  0  0  0
 20 11  1  0  0  0  0
 21 20  1  0  0  0  0
 22 20  2  0  0  0  0
 24 23  1  6  0  0  0
 24 25  1  0  0  0  0
 26 25  1  0  0  0  0
 29 28  1  0  0  0  0
 29 27  1  0  0  0  0
 30 29  1  0  0  0  0
M  END
>  <MODEL>
3

>  <REMARK>
 VINA RESULT:      -5.1      2.991      5.073
  Name = 
  9 active torsions:
  status: ('A' for Active; 'I' for Inactive)
    1  A    between atoms: C_1  and  N_22
    2  A    between atoms: C_2  and  C_14
    3  A    between atoms: C_4  and  S_25
    4  A    between atoms: C_7  and  C_30
    5  A    between atoms: C_10  and  C_23
    6  A    between atoms: C_11  and  S_25
    7  A    between atoms: C_13  and  C_30
    8  A    between atoms: C_14  and  N_28
    9  A    between atoms: N_28  and  C_29
                            x       y       z     vdW  Elec       q    Type
                         _______ _______ _______ _____ _____    ______ ____

>  <TORSDO>
F 9

$$$$
=
 OpenBabel10272413463D

 30 31  0  0  1  0  0  0  0  0999 V2000
  189.3120  176.1990  138.4880 C   0  0  0  0  0  0  0  0  0  0  0  0
  189.2170  175.1820  136.2190 C   0  0  2  0  0  3  0  0  0  0  0  0
  190.7810  175.9100  138.5050 C   0  0  0  0  0  2  0  0  0  0  0  0
  192.5850  175.7590  135.7570 N   0  0  0  0  0  0  0  0  0  0  0  0
  191.4380  176.5710  136.1190 C   0  0  2  0  0  3  0  0  0  0  0  0
  192.9820  176.5760  137.8560 N   0  0  0  0  0  2  0  0  0  0  0  0
  191.5770  176.8650  137.6260 C   0  0  2  0  0  3  0  0  0  0  0  0
  190.1240  176.1460  135.4370 C   0  0  2  0  0  3  0  0  0  0  0  0
  194.6960  175.1980  136.6840 N   0  0  0  0  0  1  0  0  0  0  0  0
  193.4310  175.8460  136.7240 C   0  0  0  0  0  0  0  0  0  0  0  0
  188.5650  175.7940  137.4380 C   0  0  0  0  0  0  0  0  0  0  0  0
  188.5600  178.2920  139.7800 C   0  0  0  0  0  0  0  0  0  0  0  0
  189.0010  179.1100  138.9290 O   0  0  0  0  0  0  0  0  0  0  0  0
  188.7040  176.8770  139.6010 N   0  0  0  0  0  2  0  0  0  0  0  0
  187.9070  178.8050  141.0130 C   0  0  0  0  0  2  0  0  0  0  0  0
  188.6450  178.3450  142.1850 N   0  0  0  0  0  2  0  0  0  0  0  0
  187.9110  176.2710  143.0410 O   0  0  0  0  0  1  0  0  0  0  0  0
  186.2950  178.0390  142.8760 C   0  0  0  0  0  1  0  0  0  0  0  0
  187.7480  177.6580  143.1150 C   0  0  2  0  0  3  0  0  0  0  0  0
  187.0890  175.9620  137.3840 C   0  0  0  0  0  0  0  0  0  0  0  0
  186.4850  177.2020  137.5610 O   0  0  0  0  0  1  0  0  0  0  0  0
  186.3530  174.9590  137.1830 O   0  0  0  0  0  0  0  0  0  0  0  0
  189.2120  178.3370  135.8860 O   0  0  0  0  0  1  0  0  0  0  0  0
  189.3520  177.3600  134.8970 C   0  0  2  0  0  3  0  0  0  0  0  0
  187.9740  176.9820  134.3500 C   0  0  0  0  0  2  0  0  0  0  0  0
  187.0200  178.1660  134.3460 C   0  0  0  0  0  1  0  0  0  0  0  0
  189.9650  173.5450  136.5250 S   0  0  0  0  0  0  0  0  0  0  0  0
  189.0400  171.5820  134.8680 C   0  0  0  0  0  1  0  0  0  0  0  0
  188.5480  172.6560  135.8170 C   0  0  0  0  0  3  0  0  0  0  0  0
  187.7540  172.0100  136.9320 C   0  0  0  0  0  1  0  0  0  0  0  0
  1  3  1  0  0  0  0
  1 14  1  0  0  0  0
  2 27  1  1  0  0  0
  2 11  1  0  0  0  0
  4 10  2  0  0  0  0
  5  4  1  1  0  0  0
  5  7  1  0  0  0  0
  7  6  1  0  0  0  0
  7  3  1  1  0  0  0
  8 24  1  1  0  0  0
  8  5  1  0  0  0  0
  8  2  1  0  0  0  0
  9 10  1  0  0  0  0
 10  6  1  0  0  0  0
 11  1  2  0  0  0  0
 12 15  1  0  0  0  0
 13 12  2  0  0  0  0
 14 12  1  0  0  0  0
 15 16  1  0  0  0  0
 16 19  1  0  0  0  0
 17 19  1  0  0  0  0
 19 18  1  6  0  0  0
 20 11  1  0  0  0  0
 20 21  1  0  0  0  0
 22 20  2  0  0  0  0
 24 23  1  1  0  0  0
 25 24  1  0  0  0  0
 26 25  1  0  0  0  0
 28 29  1  0  0  0  0
 29 27  1  0  0  0  0
 29 30  1  0  0  0  0
M  END
>  <MODEL>
4

>  <REMARK>
 VINA RESULT:      -4.8      5.897      7.994
  Name = 
  9 active torsions:
  status: ('A' for Active; 'I' for Inactive)
    1  A    between atoms: C_1  and  N_22
    2  A    between atoms: C_2  and  C_14
    3  A    between atoms: C_4  and  S_25
    4  A    between atoms: C_7  and  C_30
    5  A    between atoms: C_10  and  C_23
    6  A    between atoms: C_11  and  S_25
    7  A    between atoms: C_13  and  C_30
    8  A    between atoms: C_14  and  N_28
    9  A    between atoms: N_28  and  C_29
                            x       y       z     vdW  Elec       q    Type
                         _______ _______ _______ _____ _____    ______ ____

>  <TORSDO>
F 9

$$$$
=
 OpenBabel10272413463D

 30 31  0  0  1  0  0  0  0  0999 V2000
  189.8930  177.0310  139.5780 C   0  0  0  0  0  0  0  0  0  0  0  0
  188.2480  176.6570  137.7480 C   0  0  2  0  0  3  0  0  0  0  0  0
  190.8400  176.1280  138.8480 C   0  0  0  0  0  2  0  0  0  0  0  0
  190.7770  175.7750  135.5760 N   0  0  0  0  0  0  0  0  0  0  0  0
  190.5010  176.9140  136.4330 C   0  0  2  0  0  3  0  0  0  0  0  0
  192.4660  175.8760  137.1150 N   0  0  0  0  0  2  0  0  0  0  0  0
  191.4650  176.7950  137.6300 C   0  0  2  0  0  3  0  0  0  0  0  0
  189.0060  177.2630  136.5560 C   0  0  2  0  0  3  0  0  0  0  0  0
  192.4970  174.1630  135.3050 N   0  0  0  0  0  1  0  0  0  0  0  0
  191.9010  175.2770  135.9580 C   0  0  0  0  0  0  0  0  0  0  0  0
  188.6480  177.2240  139.0910 C   0  0  0  0  0  0  0  0  0  0  0  0
  190.5540  177.0190  142.0630 C   0  0  0  0  0  0  0  0  0  0  0  0
  190.4010  175.7780  142.2110 O   0  0  0  0  0  0  0  0  0  0  0  0
  190.3070  177.6580  140.8030 N   0  0  0  0  0  2  0  0  0  0  0  0
  190.9680  177.8470  143.2260 C   0  0  0  0  0  2  0  0  0  0  0  0
  191.5950  176.9980  144.2340 N   0  0  0  0  0  2  0  0  0  0  0  0
  191.9420  176.7490  146.5550 O   0  0  0  0  0  1  0  0  0  0  0  0
  189.7210  177.2800  145.8150 C   0  0  0  0  0  1  0  0  0  0  0  0
  191.2150  177.4350  145.5780 C   0  0  2  0  0  3  0  0  0  0  0  0
  187.6200  178.0310  139.8010 C   0  0  0  0  0  0  0  0  0  0  0  0
  186.4290  178.4040  139.1880 O   0  0  0  0  0  0  0  0  0  0  0  0
  187.8280  178.4030  140.9860 O   0  0  0  0  0  1  0  0  0  0  0  0
  189.2270  179.4470  137.5620 O   0  0  0  0  0  1  0  0  0  0  0  0
  188.7680  178.7750  136.4260 C   0  0  2  0  0  3  0  0  0  0  0  0
  187.2970  179.1190  136.1860 C   0  0  0  0  0  2  0  0  0  0  0  0
  186.7020  178.3030  135.0490 C   0  0  0  0  0  1  0  0  0  0  0  0
  188.1510  174.8340  137.7160 S   0  0  0  0  0  0  0  0  0  0  0  0
  186.8740  174.5530  135.3200 C   0  0  0  0  0  1  0  0  0  0  0  0
  186.5940  174.8340  136.7820 C   0  0  0  0  0  3  0  0  0  0  0  0
  185.6810  173.7600  137.3310 C   0  0  0  0  0  1  0  0  0  0  0  0
  1 14  1  0  0  0  0
  2 27  1  1  0  0  0
  2 11  1  0  0  0  0
  3  1  1  0  0  0  0
  4 10  2  0  0  0  0
  5  4  1  1  0  0  0
  5  8  1  0  0  0  0
  5  7  1  0  0  0  0
  6  7  1  0  0  0  0
  7  3  1  1  0  0  0
  8 24  1  1  0  0  0
  8  2  1  0  0  0  0
  9 10  1  0  0  0  0
 10  6  1  0  0  0  0
 11  1  2  0  0  0  0
 11 20  1  0  0  0  0
 12 13  2  0  0  0  0
 12 15  1  0  0  0  0
 14 12  1  0  0  0  0
 15 16  1  0  0  0  0
 16 19  1  0  0  0  0
 19 18  1  1  0  0  0
 19 17  1  0  0  0  0
 20 22  1  0  0  0  0
 21 20  2  0  0  0  0
 24 23  1  1  0  0  0
 25 24  1  0  0  0  0
 26 25  1  0  0  0  0
 28 29  1  0  0  0  0
 29 30  1  0  0  0  0
 29 27  1  0  0  0  0
M  END
>  <MODEL>
5

>  <REMARK>
 VINA RESULT:      -4.7      5.832      7.098
  Name = 
  9 active torsions:
  status: ('A' for Active; 'I' for Inactive)
    1  A    between atoms: C_1  and  N_22
    2  A    between atoms: C_2  and  C_14
    3  A    between atoms: C_4  and  S_25
    4  A    between atoms: C_7  and  C_30
    5  A    between atoms: C_10  and  C_23
    6  A    between atoms: C_11  and  S_25
    7  A    between atoms: C_13  and  C_30
    8  A    between atoms: C_14  and  N_28
    9  A    between atoms: N_28  and  C_29
                            x       y       z     vdW  Elec       q    Type
                         _______ _______ _______ _____ _____    ______ ____

>  <TORSDO>
F 9

$$$$
=
 OpenBabel10272413463D

 30 31  0  0  1  0  0  0  0  0999 V2000
  189.6890  176.5210  138.6050 C   0  0  0  0  0  0  0  0  0  0  0  0
  189.0070  175.3160  136.5370 C   0  0  2  0  0  3  0  0  0  0  0  0
  191.0520  175.9200  138.4490 C   0  0  0  0  0  2  0  0  0  0  0  0
  192.2930  175.0890  135.5170 N   0  0  0  0  0  0  0  0  0  0  0  0
  191.4100  176.1670  135.9250 C   0  0  2  0  0  3  0  0  0  0  0  0
  193.1980  176.0150  137.4020 N   0  0  0  0  0  2  0  0  0  0  0  0
  191.8600  176.5800  137.3400 C   0  0  2  0  0  3  0  0  0  0  0  0
  189.9410  175.9710  135.5050 C   0  0  2  0  0  3  0  0  0  0  0  0
  194.3760  174.1800  136.1960 N   0  0  0  0  0  1  0  0  0  0  0  0
  193.2920  175.0900  136.3290 C   0  0  0  0  0  0  0  0  0  0  0  0
  188.7080  176.1810  137.7400 C   0  0  0  0  0  0  0  0  0  0  0  0
  189.6620  177.2000  141.0850 C   0  0  0  0  0  0  0  0  0  0  0  0
  190.1280  176.1070  141.5030 O   0  0  0  0  0  0  0  0  0  0  0  0
  189.4280  177.4280  139.6890 N   0  0  0  0  0  2  0  0  0  0  0  0
  189.3140  178.2650  142.0620 C   0  0  0  0  0  2  0  0  0  0  0  0
  189.1090  177.6730  143.3800 N   0  0  0  0  0  2  0  0  0  0  0  0
  191.0280  179.0010  143.7380 O   0  0  0  0  0  1  0  0  0  0  0  0
  190.5500  177.2840  145.3460 C   0  0  0  0  0  1  0  0  0  0  0  0
  189.9910  178.3020  144.3640 C   0  0  2  0  0  3  0  0  0  0  0  0
  187.3080  176.6620  137.8780 C   0  0  0  0  0  0  0  0  0  0  0  0
  187.0060  177.8770  138.4830 O   0  0  0  0  0  1  0  0  0  0  0  0
  186.3590  175.9520  137.4490 O   0  0  0  0  0  0  0  0  0  0  0  0
  189.3110  178.2710  135.8850 O   0  0  0  0  0  1  0  0  0  0  0  0
  189.3450  177.2610  134.9210 C   0  0  2  0  0  3  0  0  0  0  0  0
  187.9430  177.0510  134.3460 C   0  0  0  0  0  2  0  0  0  0  0  0
  187.0210  178.2190  134.6580 C   0  0  0  0  0  1  0  0  0  0  0  0
  189.4540  173.5960  136.9560 S   0  0  0  0  0  0  0  0  0  0  0  0
  188.4980  171.6120  135.3430 C   0  0  0  0  0  1  0  0  0  0  0  0
  188.0670  172.9010  136.0120 C   0  0  0  0  0  3  0  0  0  0  0  0
  186.9150  172.6160  136.9510 C   0  0  0  0  0  1  0  0  0  0  0  0
  1 14  1  0  0  0  0
  2 27  1  1  0  0  0
  2 11  1  0  0  0  0
  3  1  1  0  0  0  0
  4 10  2  0  0  0  0
  5  4  1  1  0  0  0
  5  7  1  0  0  0  0
  7  6  1  0  0  0  0
  7  3  1  1  0  0  0
  8 24  1  1  0  0  0
  8  5  1  0  0  0  0
  8  2  1  0  0  0  0
  9 10  1  0  0  0  0
 10  6  1  0  0  0  0
 11 20  1  0  0  0  0
 11  1  2  0  0  0  0
 12 13  2  0  0  0  0
 12 15  1  0  0  0  0
 14 12  1  0  0  0  0
 15 16  1  0  0  0  0
 16 19  1  0  0  0  0
 17 19  1  0  0  0  0
 19 18  1  1  0  0  0
 20 21  1  0  0  0  0
 22 20  2  0  0  0  0
 24 23  1  1  0  0  0
 25 26  1  0  0  0  0
 25 24  1  0  0  0  0
 28 29  1  0  0  0  0
 29 30  1  0  0  0  0
 29 27  1  0  0  0  0
M  END
>  <MODEL>
6

>  <REMARK>
 VINA RESULT:      -4.6      6.221      7.894
  Name = 
  9 active torsions:
  status: ('A' for Active; 'I' for Inactive)
    1  A    between atoms: C_1  and  N_22
    2  A    between atoms: C_2  and  C_14
    3  A    between atoms: C_4  and  S_25
    4  A    between atoms: C_7  and  C_30
    5  A    between atoms: C_10  and  C_23
    6  A    between atoms: C_11  and  S_25
    7  A    between atoms: C_13  and  C_30
    8  A    between atoms: C_14  and  N_28
    9  A    between atoms: N_28  and  C_29
                            x       y       z     vdW  Elec       q    Type
                         _______ _______ _______ _____ _____    ______ ____

>  <TORSDO>
F 9

$$$$
=
 OpenBabel10272413463D

 30 31  0  0  1  0  0  0  0  0999 V2000
  184.2510  177.7100  138.0900 C   0  0  0  0  0  0  0  0  0  0  0  0
  181.9280  177.9550  137.2310 C   0  0  2  0  0  3  0  0  0  0  0  0
  183.8240  178.4450  139.3220 C   0  0  0  0  0  2  0  0  0  0  0  0
  180.7270  178.3760  140.4360 N   0  0  0  0  0  0  0  0  0  0  0  0
  181.5350  177.3790  139.7580 C   0  0  2  0  0  3  0  0  0  0  0  0
  182.7700  178.3600  141.4660 N   0  0  0  0  0  2  0  0  0  0  0  0
  182.9800  177.5850  140.2540 C   0  0  2  0  0  3  0  0  0  0  0  0
  181.1500  177.1500  138.2850 C   0  0  2  0  0  3  0  0  0  0  0  0
  180.9330  179.8190  142.3080 N   0  0  0  0  0  1  0  0  0  0  0  0
  181.4350  178.8420  141.4060 C   0  0  0  0  0  0  0  0  0  0  0  0
  183.3740  177.5400  137.0770 C   0  0  0  0  0  0  0  0  0  0  0  0
  186.7690  177.9720  137.6370 C   0  0  0  0  0  0  0  0  0  0  0  0
  186.7040  179.2000  137.3650 O   0  0  0  0  0  0  0  0  0  0  0  0
  185.5990  177.2200  137.9820 N   0  0  0  0  0  2  0  0  0  0  0  0
  188.0820  177.2780  137.5670 C   0  0  0  0  0  2  0  0  0  0  0  0
  189.1370  178.1790  138.0220 N   0  0  0  0  0  2  0  0  0  0  0  0
  190.0010  176.2850  139.1360 O   0  0  0  0  0  1  0  0  0  0  0  0
  188.9260  177.9660  140.4720 C   0  0  0  0  0  1  0  0  0  0  0  0
  189.7620  177.6590  139.2390 C   0  0  2  0  0  3  0  0  0  0  0  0
  183.7450  176.9020  135.7860 C   0  0  0  0  0  0  0  0  0  0  0  0
  183.7320  175.5220  135.6200 O   0  0  0  0  0  1  0  0  0  0  0  0
  184.0910  177.6220  134.8110 O   0  0  0  0  0  0  0  0  0  0  0  0
  180.4650  175.4510  136.7100 O   0  0  0  0  0  1  0  0  0  0  0  0
  181.0910  175.6530  137.9430 C   0  0  2  0  0  3  0  0  0  0  0  0
  180.3800  174.8330  139.0210 C   0  0  0  0  0  2  0  0  0  0  0  0
  179.9820  173.4550  138.5160 C   0  0  0  0  0  1  0  0  0  0  0  0
  181.6880  179.7610  137.3510 S   0  0  0  0  0  0  0  0  0  0  0  0
  180.1450  181.1910  135.6100 C   0  0  0  0  0  1  0  0  0  0  0  0
  180.3910  179.7720  136.0790 C   0  0  0  0  0  3  0  0  0  0  0  0
  180.8360  178.9280  134.9040 C   0  0  0  0  0  1  0  0  0  0  0  0
  1  3  1  0  0  0  0
  2 27  1  1  0  0  0
  2  8  1  0  0  0  0
  4 10  2  0  0  0  0
  5  7  1  0  0  0  0
  5  4  1  6  0  0  0
  7  3  1  6  0  0  0
  7  6  1  0  0  0  0
  8 24  1  6  0  0  0
  8  5  1  0  0  0  0
 10  6  1  0  0  0  0
 10  9  1  0  0  0  0
 11  2  1  0  0  0  0
 11  1  2  0  0  0  0
 12 14  1  0  0  0  0
 13 12  2  0  0  0  0
 14  1  1  0  0  0  0
 15 12  1  0  0  0  0
 15 16  1  0  0  0  0
 16 19  1  0  0  0  0
 17 19  1  0  0  0  0
 19 18  1  1  0  0  0
 20 11  1  0  0  0  0
 21 20  1  0  0  0  0
 22 20  2  0  0  0  0
 24 23  1  6  0  0  0
 24 25  1  0  0  0  0
 26 25  1  0  0  0  0
 28 29  1  0  0  0  0
 29 27  1  0  0  0  0
 30 29  1  0  0  0  0
M  END
>  <MODEL>
7

>  <REMARK>
 VINA RESULT:      -4.5      4.156      6.379
  Name = 
  9 active torsions:
  status: ('A' for Active; 'I' for Inactive)
    1  A    between atoms: C_1  and  N_22
    2  A    between atoms: C_2  and  C_14
    3  A    between atoms: C_4  and  S_25
    4  A    between atoms: C_7  and  C_30
    5  A    between atoms: C_10  and  C_23
    6  A    between atoms: C_11  and  S_25
    7  A    between atoms: C_13  and  C_30
    8  A    between atoms: C_14  and  N_28
    9  A    between atoms: N_28  and  C_29
                            x       y       z     vdW  Elec       q    Type
                         _______ _______ _______ _____ _____    ______ ____

>  <TORSDO>
F 9

$$$$
=
 OpenBabel10272413463D

 30 31  0  0  1  0  0  0  0  0999 V2000
  186.0260  178.0210  138.3010 C   0  0  0  0  0  0  0  0  0  0  0  0
  186.7660  176.5600  136.4280 C   0  0  2  0  0  3  0  0  0  0  0  0
  184.8080  178.3570  137.4970 C   0  0  0  0  0  2  0  0  0  0  0  0
  183.5230  176.2860  135.2860 N   0  0  0  0  0  0  0  0  0  0  0  0
  184.1960  176.0560  136.5520 C   0  0  2  0  0  3  0  0  0  0  0  0
  182.6080  177.7360  136.8000 N   0  0  0  0  0  2  0  0  0  0  0  0
  183.7910  177.2250  137.4730 C   0  0  2  0  0  3  0  0  0  0  0  0
  185.6320  175.5200  136.4140 C   0  0  2  0  0  3  0  0  0  0  0  0
  181.7370  177.6160  134.4680 N   0  0  0  0  0  1  0  0  0  0  0  0
  182.6180  177.1770  135.4940 C   0  0  0  0  0  0  0  0  0  0  0  0
  186.9790  177.2270  137.7680 C   0  0  0  0  0  0  0  0  0  0  0  0
  185.2220  178.5610  140.6840 C   0  0  0  0  0  0  0  0  0  0  0  0
  184.0790  178.0550  140.5310 O   0  0  0  0  0  0  0  0  0  0  0  0
  186.1840  178.5700  139.6210 N   0  0  0  0  0  2  0  0  0  0  0  0
  185.5710  179.1940  141.9830 C   0  0  0  0  0  2  0  0  0  0  0  0
  185.6030  178.1790  143.0300 N   0  0  0  0  0  2  0  0  0  0  0  0
  184.3510  179.9220  144.0130 O   0  0  0  0  0  1  0  0  0  0  0  0
  185.6420  178.5210  145.4740 C   0  0  0  0  0  1  0  0  0  0  0  0
  184.8310  178.6210  144.1920 C   0  0  2  0  0  3  0  0  0  0  0  0
  188.2560  176.9180  138.4640 C   0  0  0  0  0  0  0  0  0  0  0  0
  188.5850  177.4990  139.6830 O   0  0  0  0  0  1  0  0  0  0  0  0
  189.0760  176.1190  137.9390 O   0  0  0  0  0  0  0  0  0  0  0  0
  186.9180  173.5360  136.9110 O   0  0  0  0  0  1  0  0  0  0  0  0
  185.8970  174.3620  137.3890 C   0  0  2  0  0  3  0  0  0  0  0  0
  184.6460  173.5250  137.6600 C   0  0  0  0  0  2  0  0  0  0  0  0
  184.5560  172.3210  136.7360 C   0  0  0  0  0  1  0  0  0  0  0  0
  186.7200  177.7230  135.0220 S   0  0  0  0  0  0  0  0  0  0  0  0
  189.4470  177.7190  135.1570 C   0  0  0  0  0  1  0  0  0  0  0  0
  188.3030  177.1330  134.3550 C   0  0  0  0  0  3  0  0  0  0  0  0
  188.3520  175.6240  134.4440 C   0  0  0  0  0  1  0  0  0  0  0  0
  1 14  1  0  0  0  0
  2 27  1  6  0  0  0
  2 11  1  0  0  0  0
  3  1  1  0  0  0  0
  4 10  2  0  0  0  0
  5  4  1  6  0  0  0
  5  7  1  0  0  0  0
  6  7  1  0  0  0  0
  7  3  1  6  0  0  0
  8  2  1  0  0  0  0
  8  5  1  0  0  0  0
  8 24  1  1  0  0  0
  9 10  1  0  0  0  0
 10  6  1  0  0  0  0
 11  1  2  0  0  0  0
 11 20  1  0  0  0  0
 12 15  1  0  0  0  0
 13 12  2  0  0  0  0
 14 12  1  0  0  0  0
 15 16  1  0  0  0  0
 16 19  1  0  0  0  0
 17 19  1  0  0  0  0
 19 18  1  1  0  0  0
 20 21  1  0  0  0  0
 22 20  2  0  0  0  0
 24 23  1  6  0  0  0
 24 25  1  0  0  0  0
 26 25  1  0  0  0  0
 29 30  1  0  0  0  0
 29 27  1  0  0  0  0
 29 28  1  0  0  0  0
M  END
>  <MODEL>
8

>  <REMARK>
 VINA RESULT:      -4.5      3.816      6.494
  Name = 
  9 active torsions:
  status: ('A' for Active; 'I' for Inactive)
    1  A    between atoms: C_1  and  N_22
    2  A    between atoms: C_2  and  C_14
    3  A    between atoms: C_4  and  S_25
    4  A    between atoms: C_7  and  C_30
    5  A    between atoms: C_10  and  C_23
    6  A    between atoms: C_11  and  S_25
    7  A    between atoms: C_13  and  C_30
    8  A    between atoms: C_14  and  N_28
    9  A    between atoms: N_28  and  C_29
                            x       y       z     vdW  Elec       q    Type
                         _______ _______ _______ _____ _____    ______ ____

>  <TORSDO>
F 9

$$$$
=
 OpenBabel10272413463D

 30 31  0  0  1  0  0  0  0  0999 V2000
  187.6000  177.1910  138.3460 C   0  0  0  0  0  0  0  0  0  0  0  0
  187.7510  175.7150  136.3480 C   0  0  2  0  0  3  0  0  0  0  0  0
  186.3910  177.8240  137.7300 C   0  0  0  0  0  2  0  0  0  0  0  0
  184.4060  176.2060  135.6630 N   0  0  0  0  0  0  0  0  0  0  0  0
  185.1710  175.7650  136.8160 C   0  0  2  0  0  3  0  0  0  0  0  0
  184.0370  177.7280  137.3290 N   0  0  0  0  0  2  0  0  0  0  0  0
  185.1560  176.9380  137.8160 C   0  0  2  0  0  3  0  0  0  0  0  0
  186.4250  174.9430  136.4640 C   0  0  2  0  0  3  0  0  0  0  0  0
  182.8650  177.9310  135.1390 N   0  0  0  0  0  1  0  0  0  0  0  0
  183.7540  177.2560  136.0200 C   0  0  0  0  0  0  0  0  0  0  0  0
  188.2780  176.2430  137.6630 C   0  0  0  0  0  0  0  0  0  0  0  0
  187.3100  178.3900  140.6020 C   0  0  0  0  0  0  0  0  0  0  0  0
  186.1450  178.8030  140.3580 O   0  0  0  0  0  0  0  0  0  0  0  0
  188.0450  177.6170  139.6450 N   0  0  0  0  0  2  0  0  0  0  0  0
  187.9510  178.7420  141.8960 C   0  0  0  0  0  2  0  0  0  0  0  0
  189.1000  177.8720  142.1270 N   0  0  0  0  0  2  0  0  0  0  0  0
  188.0490  175.9450  142.9930 O   0  0  0  0  0  1  0  0  0  0  0  0
  188.2970  177.8280  144.4600 C   0  0  0  0  0  1  0  0  0  0  0  0
  188.8750  177.0300  143.3020 C   0  0  2  0  0  3  0  0  0  0  0  0
  189.5360  175.6300  138.1640 C   0  0  0  0  0  0  0  0  0  0  0  0
  189.9710  174.3860  137.7240 O   0  0  0  0  0  0  0  0  0  0  0  0
  190.2300  176.2410  139.0200 O   0  0  0  0  0  1  0  0  0  0  0  0
  187.4010  172.7560  136.7740 O   0  0  0  0  0  1  0  0  0  0  0  0
  186.5550  173.7010  137.3590 C   0  0  2  0  0  3  0  0  0  0  0  0
  185.2020  173.0590  137.6690 C   0  0  0  0  0  2  0  0  0  0  0  0
  184.7120  172.1860  136.5240 C   0  0  0  0  0  1  0  0  0  0  0  0
  187.7790  176.9410  134.9950 S   0  0  0  0  0  0  0  0  0  0  0  0
  190.5040  176.9520  135.1550 C   0  0  0  0  0  1  0  0  0  0  0  0
  189.3700  176.3440  134.3550 C   0  0  0  0  0  3  0  0  0  0  0  0
  189.4250  174.8370  134.4770 C   0  0  0  0  0  1  0  0  0  0  0  0
  1 14  1  0  0  0  0
  2 27  1  6  0  0  0
  2  8  1  0  0  0  0
  2 11  1  0  0  0  0
  3  1  1  0  0  0  0
  4 10  2  0  0  0  0
  5  4  1  6  0  0  0
  5  7  1  0  0  0  0
  6  7  1  0  0  0  0
  7  3  1  6  0  0  0
  8  5  1  0  0  0  0
  8 24  1  1  0  0  0
  9 10  1  0  0  0  0
 10  6  1  0  0  0  0
 11 20  1  0  0  0  0
 11  1  2  0  0  0  0
 12 15  1  0  0  0  0
 13 12  2  0  0  0  0
 14 12  1  0  0  0  0
 15 16  1  0  0  0  0
 16 19  1  0  0  0  0
 17 19  1  0  0  0  0
 19 18  1  1  0  0  0
 20 22  1  0  0  0  0
 21 20  2  0  0  0  0
 24 23  1  6  0  0  0
 24 25  1  0  0  0  0
 26 25  1  0  0  0  0
 29 30  1  0  0  0  0
 29 27  1  0  0  0  0
 29 28  1  0  0  0  0
M  END
>  <MODEL>
9

>  <REMARK>
 VINA RESULT:      -4.1      4.741      7.345
  Name = 
  9 active torsions:
  status: ('A' for Active; 'I' for Inactive)
    1  A    between atoms: C_1  and  N_22
    2  A    between atoms: C_2  and  C_14
    3  A    between atoms: C_4  and  S_25
    4  A    between atoms: C_7  and  C_30
    5  A    between atoms: C_10  and  C_23
    6  A    between atoms: C_11  and  S_25
    7  A    between atoms: C_13  and  C_30
    8  A    between atoms: C_14  and  N_28
    9  A    between atoms: N_28  and  C_29
                            x       y       z     vdW  Elec       q    Type
                         _______ _______ _______ _____ _____    ______ ____

>  <TORSDO>
F 9

$$$$
