=
 OpenBabel10272414353D

 43 47  0  0  1  0  0  0  0  0999 V2000
  191.4380  176.4860  146.8350 C   0  0  0  0  0  0  0  0  0  0  0  0
  187.6740  177.4680  143.9580 C   0  0  1  0  0  3  0  0  0  0  0  0
  188.5750  178.1790  141.3360 C   0  0  0  0  0  0  0  0  0  0  0  0
  189.4500  177.9220  146.2620 C   0  0  2  0  0  3  0  0  0  0  0  0
  191.8340  176.2870  145.4020 C   0  0  0  0  0  2  0  0  0  0  0  0
  192.2660  176.3330  147.7200 O   0  0  0  0  0  0  0  0  0  0  0  0
  190.0050  177.8820  144.8010 C   0  0  1  0  0  3  0  0  0  0  0  0
  190.0250  176.8430  147.1930 C   0  0  0  0  0  2  0  0  0  0  0  0
  190.6550  176.5350  144.4660 C   0  0  0  0  0  2  0  0  0  0  0  0
  189.4440  178.2520  142.3540 C   0  0  0  0  0  3  0  0  0  0  0  0
  188.9490  178.2970  143.7710 C   0  0  1  0  0  3  0  0  0  0  0  0
  187.1230  177.7320  145.3320 C   0  0  0  0  0  3  0  0  0  0  0  0
  186.6810  177.7540  142.8510 C   0  0  0  0  0  0  0  0  0  0  0  0
  187.1270  178.0260  141.6150 C   0  0  0  0  0  3  0  0  0  0  0  0
  187.9400  177.9240  146.3780 C   0  0  0  0  0  3  0  0  0  0  0  0
  189.0660  178.1910  139.9480 C   0  0  0  0  0  0  0  0  0  0  0  0
  189.9500  177.1630  139.4980 N   0  0  0  0  0  2  0  0  0  0  0  0
  188.6990  179.0990  139.1530 O   0  0  0  0  0  0  0  0  0  0  0  0
  190.4480  177.0920  138.1350 C   0  0  0  0  0  2  0  0  0  0  0  0
  189.6250  174.9330  137.3400 C   0  0  0  0  0  3  0  0  0  0  0  0
  192.0610  175.1050  137.7630 C   0  0  0  0  0  2  0  0  0  0  0  0
  191.8020  173.5300  135.3970 C   0  0  0  0  0  2  0  0  0  0  0  0
  190.6650  175.6640  137.7630 C   0  0  0  0  0  0  0  0  0  0  0  0
  189.7570  173.5040  136.8900 C   0  0  0  0  0  2  0  0  0  0  0  0
  192.8030  175.5240  136.5690 N   0  0  0  0  0  0  0  0  0  0  0  0
  192.2080  175.0040  135.3250 C   0  0  0  0  0  2  0  0  0  0  0  0
  190.2860  173.4030  135.4600 C   0  0  0  0  0  2  0  0  0  0  0  0
  194.1590  175.0040  136.6850 C   0  0  0  0  0  2  0  0  0  0  0  0
  194.4850  174.7180  138.1440 C   0  0  0  0  0  2  0  0  0  0  0  0
  195.9050  174.1880  138.3040 C   0  0  0  0  0  2  0  0  0  0  0  0
  198.2670  175.6350  139.0590 O   0  0  0  0  0  0  0  0  0  0  0  0
  197.9110  175.4010  141.3970 C   0  0  0  0  0  1  0  0  0  0  0  0
  197.5410  175.1670  139.9750 C   0  0  0  0  0  0  0  0  0  0  0  0
  196.3750  174.3980  139.6660 N   0  0  0  0  0  2  0  0  0  0  0  0
  185.2190  177.5030  143.0430 C   0  0  0  0  0  2  0  0  0  0  0  0
  182.1390  179.5120  143.1250 C   0  0  0  0  0  2  0  0  0  0  0  0
  181.5860  178.7770  141.9000 C   0  0  2  0  0  3  0  0  0  0  0  0
  184.0520  178.6480  141.3310 C   0  0  0  0  0  2  0  0  0  0  0  0
  183.3380  178.7580  143.6970 C   0  0  0  0  0  2  0  0  0  0  0  0
  184.4620  178.7110  142.7480 N   0  0  0  0  0  0  0  0  0  0  0  0
  182.6740  178.0060  141.1340 C   0  0  0  0  0  2  0  0  0  0  0  0
  180.1050  178.9140  139.5920 S   0  0  0  0  0  1  0  0  0  0  0  0
  180.8930  179.7760  140.9870 C   0  0  0  0  0  2  0  0  0  0  0  0
  1  8  1  0  0  0  0
  1  6  2  0  0  0  0
  2 12  1  1  0  0  0
  3 14  1  0  0  0  0
  3 10  2  0  0  0  0
  4 15  1  6  0  0  0
  4  8  1  0  0  0  0
  5  1  1  0  0  0  0
  7  9  1  6  0  0  0
  7  4  1  0  0  0  0
  9  5  1  0  0  0  0
 11 10  1  6  0  0  0
 11  2  1  0  0  0  0
 11  7  1  0  0  0  0
 12 15  2  0  0  0  0
 13 35  1  0  0  0  0
 13  2  1  0  0  0  0
 14 13  2  0  0  0  0
 16  3  1  0  0  0  0
 17 16  1  0  0  0  0
 18 16  2  0  0  0  0
 19 17  1  0  0  0  0
 20 23  2  0  0  0  0
 22 27  1  0  0  0  0
 23 21  1  0  0  0  0
 23 19  1  0  0  0  0
 24 20  1  0  0  0  0
 25 28  1  0  0  0  0
 25 21  1  0  0  0  0
 26 22  1  0  0  0  0
 26 25  1  0  0  0  0
 27 24  1  0  0  0  0
 28 29  1  0  0  0  0
 29 30  1  0  0  0  0
 30 34  1  0  0  0  0
 31 33  2  0  0  0  0
 33 32  1  0  0  0  0
 34 33  1  0  0  0  0
 36 39  1  0  0  0  0
 37 43  1  6  0  0  0
 37 36  1  0  0  0  0
 38 40  1  0  0  0  0
 40 35  1  0  0  0  0
 40 39  1  0  0  0  0
 41 38  1  0  0  0  0
 41 37  1  0  0  0  0
 42 43  1  0  0  0  0
M  END
>  <MODEL>
1

>  <REMARK>
 VINA RESULT:      -9.5      0.000      0.000
  Name = 
  10 active torsions:
  status: ('A' for Active; 'I' for Inactive)
    1  A    between atoms: C_1  and  C_34
    2  A    between atoms: C_1  and  N_35
    3  A    between atoms: C_2  and  C_13
    4  A    between atoms: N_6  and  C_17
    5  A    between atoms: C_11  and  C_14
    6  A    between atoms: C_11  and  C_36
    7  A    between atoms: C_12  and  C_17
    8  A    between atoms: C_14  and  N_22
    9  A    between atoms: C_19  and  C_37
   10  A    between atoms: C_36  and  N_40
                            x       y       z     vdW  Elec       q    Type
                         _______ _______ _______ _____ _____    ______ ____

>  <TORSDO>
F 10

$$$$
=
 OpenBabel10272414353D

 43 47  0  0  1  0  0  0  0  0999 V2000
  186.4440  178.0010  146.6590 C   0  0  0  0  0  0  0  0  0  0  0  0
  184.1700  178.2860  142.3980 C   0  0  1  0  0  3  0  0  0  0  0  0
  186.0620  178.5750  140.2700 C   0  0  0  0  0  0  0  0  0  0  0  0
  184.8880  179.2180  145.0970 C   0  0  2  0  0  3  0  0  0  0  0  0
  187.3750  177.5770  145.5620 C   0  0  0  0  0  2  0  0  0  0  0  0
  186.8450  178.0450  147.8110 O   0  0  0  0  0  0  0  0  0  0  0  0
  185.9790  178.9530  144.0100 C   0  0  1  0  0  3  0  0  0  0  0  0
  185.0150  178.3460  146.3550 C   0  0  0  0  0  2  0  0  0  0  0  0
  186.6750  177.6010  144.2060 C   0  0  0  0  0  2  0  0  0  0  0  0
  186.4530  178.8660  141.5180 C   0  0  0  0  0  3  0  0  0  0  0  0
  185.4330  179.1310  142.5890 C   0  0  1  0  0  3  0  0  0  0  0  0
  183.1220  178.7560  143.3680 C   0  0  0  0  0  3  0  0  0  0  0  0
  183.7100  178.3270  140.9550 C   0  0  0  0  0  0  0  0  0  0  0  0
  184.6200  178.4020  139.9720 C   0  0  0  0  0  3  0  0  0  0  0  0
  183.4570  179.1660  144.6000 C   0  0  0  0  0  3  0  0  0  0  0  0
  187.0670  178.3700  139.2130 C   0  0  0  0  0  0  0  0  0  0  0  0
  186.7380  177.5920  138.0610 N   0  0  0  0  0  2  0  0  0  0  0  0
  188.2120  178.8900  139.3170 O   0  0  0  0  0  0  0  0  0  0  0  0
  187.6670  177.3750  136.9650 C   0  0  0  0  0  2  0  0  0  0  0  0
  188.1730  175.0520  136.3990 C   0  0  0  0  0  3  0  0  0  0  0  0
  189.4920  176.0580  138.2400 C   0  0  0  0  0  2  0  0  0  0  0  0
  191.3340  174.4540  136.7650 C   0  0  0  0  0  2  0  0  0  0  0  0
  188.4120  176.1030  137.1950 C   0  0  0  0  0  0  0  0  0  0  0  0
  188.9140  173.7490  136.5170 C   0  0  0  0  0  2  0  0  0  0  0  0
  190.7260  176.6880  137.7600 N   0  0  0  0  0  0  0  0  0  0  0  0
  191.3100  175.9770  136.6090 C   0  0  0  0  0  2  0  0  0  0  0  0
  190.2920  173.8140  135.8580 C   0  0  0  0  0  2  0  0  0  0  0  0
  191.6890  176.6680  138.8520 C   0  0  0  0  0  2  0  0  0  0  0  0
  190.9670  176.7910  140.1870 C   0  0  0  0  0  2  0  0  0  0  0  0
  191.7880  177.5860  141.1930 C   0  0  0  0  0  2  0  0  0  0  0  0
  191.5560  178.9890  143.6870 O   0  0  0  0  0  0  0  0  0  0  0  0
  191.4010  177.0240  145.0140 C   0  0  0  0  0  1  0  0  0  0  0  0
  191.5520  177.7300  143.7140 C   0  0  0  0  0  0  0  0  0  0  0  0
  191.7100  176.9720  142.5110 N   0  0  0  0  0  2  0  0  0  0  0  0
  182.2880  178.0420  140.5910 C   0  0  0  0  0  2  0  0  0  0  0  0
  180.4690  176.8050  137.6430 C   0  0  0  0  0  2  0  0  0  0  0  0
  179.9840  175.5750  138.4160 C   0  0  2  0  0  3  0  0  0  0  0  0
  182.2060  175.8990  139.5890 C   0  0  0  0  0  2  0  0  0  0  0  0
  181.0360  177.8450  138.6070 C   0  0  0  0  0  2  0  0  0  0  0  0
  182.2290  177.3500  139.3110 N   0  0  0  0  0  0  0  0  0  0  0  0
  180.7860  175.3330  139.7050 C   0  0  0  0  0  2  0  0  0  0  0  0
  180.2490  174.8700  135.7760 S   0  0  0  0  0  1  0  0  0  0  0  0
  180.0460  174.3560  137.5090 C   0  0  0  0  0  2  0  0  0  0  0  0
  1  6  2  0  0  0  0
  2 11  1  0  0  0  0
  2 12  1  1  0  0  0
  3 10  2  0  0  0  0
  4 15  1  6  0  0  0
  4  8  1  0  0  0  0
  5  1  1  0  0  0  0
  7  9  1  6  0  0  0
  7  4  1  0  0  0  0
  8  1  1  0  0  0  0
  9  5  1  0  0  0  0
 11 10  1  6  0  0  0
 11  7  1  0  0  0  0
 12 15  2  0  0  0  0
 13  2  1  0  0  0  0
 14  3  1  0  0  0  0
 14 13  2  0  0  0  0
 16 18  2  0  0  0  0
 16  3  1  0  0  0  0
 17 16  1  0  0  0  0
 19 23  1  0  0  0  0
 19 17  1  0  0  0  0
 20 24  1  0  0  0  0
 20 23  2  0  0  0  0
 23 21  1  0  0  0  0
 25 21  1  0  0  0  0
 25 28  1  0  0  0  0
 26 22  1  0  0  0  0
 26 25  1  0  0  0  0
 27 24  1  0  0  0  0
 27 22  1  0  0  0  0
 28 29  1  0  0  0  0
 29 30  1  0  0  0  0
 30 34  1  0  0  0  0
 31 33  2  0  0  0  0
 33 32  1  0  0  0  0
 34 33  1  0  0  0  0
 35 13  1  0  0  0  0
 36 37  1  0  0  0  0
 36 39  1  0  0  0  0
 37 43  1  6  0  0  0
 37 41  1  0  0  0  0
 38 41  1  0  0  0  0
 39 40  1  0  0  0  0
 40 38  1  0  0  0  0
 40 35  1  0  0  0  0
 42 43  1  0  0  0  0
M  END
>  <MODEL>
2

>  <REMARK>
 VINA RESULT:      -9.2      3.038      4.501
  Name = 
  10 active torsions:
  status: ('A' for Active; 'I' for Inactive)
    1  A    between atoms: C_1  and  C_34
    2  A    between atoms: C_1  and  N_35
    3  A    between atoms: C_2  and  C_13
    4  A    between atoms: N_6  and  C_17
    5  A    between atoms: C_11  and  C_14
    6  A    between atoms: C_11  and  C_36
    7  A    between atoms: C_12  and  C_17
    8  A    between atoms: C_14  and  N_22
    9  A    between atoms: C_19  and  C_37
   10  A    between atoms: C_36  and  N_40
                            x       y       z     vdW  Elec       q    Type
                         _______ _______ _______ _____ _____    ______ ____

>  <TORSDO>
F 10

$$$$
=
 OpenBabel10272414353D

 43 47  0  0  1  0  0  0  0  0999 V2000
  191.1200  176.9130  146.7000 C   0  0  0  0  0  0  0  0  0  0  0  0
  188.9660  177.9490  142.4920 C   0  0  1  0  0  3  0  0  0  0  0  0
  186.1500  178.2970  142.8680 C   0  0  0  0  0  0  0  0  0  0  0  0
  190.4660  176.2390  144.3620 C   0  0  2  0  0  3  0  0  0  0  0  0
  189.8340  177.6390  146.9580 C   0  0  0  0  0  2  0  0  0  0  0  0
  191.7940  176.5190  147.6390 O   0  0  0  0  0  0  0  0  0  0  0  0
  189.0580  176.8090  144.7300 C   0  0  1  0  0  3  0  0  0  0  0  0
  191.6010  176.6900  145.2950 C   0  0  0  0  0  2  0  0  0  0  0  0
  189.1510  178.0320  145.6510 C   0  0  0  0  0  2  0  0  0  0  0  0
  186.8450  177.6400  143.8060 C   0  0  0  0  0  3  0  0  0  0  0  0
  188.1990  177.0730  143.4890 C   0  0  1  0  0  3  0  0  0  0  0  0
  190.2080  177.2180  142.0620 C   0  0  0  0  0  3  0  0  0  0  0  0
  188.0760  178.3490  141.3340 C   0  0  0  0  0  0  0  0  0  0  0  0
  186.7690  178.5660  141.5480 C   0  0  0  0  0  3  0  0  0  0  0  0
  190.8920  176.4520  142.9240 C   0  0  0  0  0  3  0  0  0  0  0  0
  184.8000  178.8020  143.1700 C   0  0  0  0  0  0  0  0  0  0  0  0
  183.6730  178.2820  142.4620 N   0  0  0  0  0  2  0  0  0  0  0  0
  184.6360  179.6820  144.0590 O   0  0  0  0  0  0  0  0  0  0  0  0
  182.3100  178.7090  142.7300 C   0  0  0  0  0  2  0  0  0  0  0  0
  180.7270  179.8700  141.2730 C   0  0  0  0  0  3  0  0  0  0  0  0
  181.8760  177.8930  140.3140 C   0  0  0  0  0  2  0  0  0  0  0  0
  181.7520  179.8090  138.2020 C   0  0  0  0  0  2  0  0  0  0  0  0
  181.5730  178.8430  141.4390 C   0  0  0  0  0  0  0  0  0  0  0  0
  179.9850  180.1190  139.9900 C   0  0  0  0  0  2  0  0  0  0  0  0
  183.1230  178.2520  139.6330 N   0  0  0  0  0  0  0  0  0  0  0  0
  183.0490  179.5710  138.9790 C   0  0  0  0  0  2  0  0  0  0  0  0
  180.8660  180.8010  138.9430 C   0  0  0  0  0  2  0  0  0  0  0  0
  183.3780  177.2440  138.6130 C   0  0  0  0  0  2  0  0  0  0  0  0
  182.3370  176.1380  138.7010 C   0  0  0  0  0  2  0  0  0  0  0  0
  182.4070  175.2100  137.4950 C   0  0  0  0  0  2  0  0  0  0  0  0
  185.0590  174.9970  136.4160 O   0  0  0  0  0  0  0  0  0  0  0  0
  185.5910  172.9910  137.5740 C   0  0  0  0  0  1  0  0  0  0  0  0
  184.6680  174.0990  137.2080 C   0  0  0  0  0  0  0  0  0  0  0  0
  183.3430  174.1220  137.7450 N   0  0  0  0  0  2  0  0  0  0  0  0
  188.6590  178.7450  140.0150 C   0  0  0  0  0  2  0  0  0  0  0  0
  189.9880  176.8250  137.1730 C   0  0  0  0  0  2  0  0  0  0  0  0
  189.2900  177.7540  136.1750 C   0  0  2  0  0  3  0  0  0  0  0  0
  187.6100  177.9090  138.0650 C   0  0  0  0  0  2  0  0  0  0  0  0
  189.9890  177.4510  138.5660 C   0  0  0  0  0  2  0  0  0  0  0  0
  188.6260  177.6160  139.0960 N   0  0  0  0  0  0  0  0  0  0  0  0
  188.1920  178.6070  136.8310 C   0  0  0  0  0  2  0  0  0  0  0  0
  188.3940  175.2260  135.5920 S   0  0  0  0  0  1  0  0  0  0  0  0
  188.7180  176.9260  135.0350 C   0  0  0  0  0  2  0  0  0  0  0  0
  1  5  1  0  0  0  0
  1  6  2  0  0  0  0
  2 12  1  6  0  0  0
  2 11  1  0  0  0  0
  3 16  1  0  0  0  0
  3 10  2  0  0  0  0
  4 15  1  6  0  0  0
  4  7  1  0  0  0  0
  4  8  1  0  0  0  0
  7  9  1  6  0  0  0
  8  1  1  0  0  0  0
  9  5  1  0  0  0  0
 11 10  1  1  0  0  0
 11  7  1  0  0  0  0
 12 15  2  0  0  0  0
 13 14  2  0  0  0  0
 13  2  1  0  0  0  0
 14  3  1  0  0  0  0
 16 18  2  0  0  0  0
 17 19  1  0  0  0  0
 17 16  1  0  0  0  0
 20 23  2  0  0  0  0
 21 23  1  0  0  0  0
 22 27  1  0  0  0  0
 22 26  1  0  0  0  0
 23 19  1  0  0  0  0
 24 20  1  0  0  0  0
 25 21  1  0  0  0  0
 26 25  1  0  0  0  0
 27 24  1  0  0  0  0
 28 29  1  0  0  0  0
 28 25  1  0  0  0  0
 30 34  1  0  0  0  0
 30 29  1  0  0  0  0
 31 33  2  0  0  0  0
 33 32  1  0  0  0  0
 33 34  1  0  0  0  0
 35 13  1  0  0  0  0
 36 39  1  0  0  0  0
 37 43  1  6  0  0  0
 37 41  1  0  0  0  0
 37 36  1  0  0  0  0
 38 40  1  0  0  0  0
 39 40  1  0  0  0  0
 40 35  1  0  0  0  0
 41 38  1  0  0  0  0
 43 42  1  0  0  0  0
M  END
>  <MODEL>
3

>  <REMARK>
 VINA RESULT:      -9.2      3.866      8.487
  Name = 
  10 active torsions:
  status: ('A' for Active; 'I' for Inactive)
    1  A    between atoms: C_1  and  C_34
    2  A    between atoms: C_1  and  N_35
    3  A    between atoms: C_2  and  C_13
    4  A    between atoms: N_6  and  C_17
    5  A    between atoms: C_11  and  C_14
    6  A    between atoms: C_11  and  C_36
    7  A    between atoms: C_12  and  C_17
    8  A    between atoms: C_14  and  N_22
    9  A    between atoms: C_19  and  C_37
   10  A    between atoms: C_36  and  N_40
                            x       y       z     vdW  Elec       q    Type
                         _______ _______ _______ _____ _____    ______ ____

>  <TORSDO>
F 10

$$$$
=
 OpenBabel10272414353D

 43 47  0  0  1  0  0  0  0  0999 V2000
  184.8150  176.9230  135.3030 C   0  0  0  0  0  0  0  0  0  0  0  0
  189.1450  176.2710  137.3630 C   0  0  1  0  0  3  0  0  0  0  0  0
  189.3420  177.7890  139.7810 C   0  0  0  0  0  0  0  0  0  0  0  0
  187.3200  177.1810  135.2390 C   0  0  2  0  0  3  0  0  0  0  0  0
  184.7230  177.2120  136.7710 C   0  0  0  0  0  2  0  0  0  0  0  0
  183.8350  177.0760  134.5920 O   0  0  0  0  0  0  0  0  0  0  0  0
  187.1770  177.6900  136.7090 C   0  0  1  0  0  3  0  0  0  0  0  0
  186.0970  176.4200  134.7040 C   0  0  0  0  0  2  0  0  0  0  0  0
  186.0590  176.9640  137.4670 C   0  0  0  0  0  2  0  0  0  0  0  0
  188.4040  178.1280  138.8870 C   0  0  0  0  0  3  0  0  0  0  0  0
  188.5110  177.6620  137.4630 C   0  0  1  0  0  3  0  0  0  0  0  0
  189.4140  175.9650  135.9150 C   0  0  0  0  0  3  0  0  0  0  0  0
  190.3820  176.1810  138.2330 C   0  0  0  0  0  0  0  0  0  0  0  0
  190.4260  176.8550  139.3920 C   0  0  0  0  0  3  0  0  0  0  0  0
  188.5700  176.3710  134.9560 C   0  0  0  0  0  3  0  0  0  0  0  0
  189.2610  178.2960  141.1620 C   0  0  0  0  0  0  0  0  0  0  0  0
  190.4120  178.2450  142.0060 N   0  0  0  0  0  2  0  0  0  0  0  0
  188.1810  178.7850  141.5950 O   0  0  0  0  0  0  0  0  0  0  0  0
  190.4140  178.7550  143.3660 C   0  0  0  0  0  2  0  0  0  0  0  0
  191.5180  177.2330  144.9290 C   0  0  0  0  0  3  0  0  0  0  0  0
  189.0660  176.9750  144.6710 C   0  0  0  0  0  2  0  0  0  0  0  0
  189.5890  176.5970  147.4510 C   0  0  0  0  0  2  0  0  0  0  0  0
  190.3830  177.6100  144.3230 C   0  0  0  0  0  0  0  0  0  0  0  0
  191.5740  176.1300  145.9490 C   0  0  0  0  0  2  0  0  0  0  0  0
  188.3170  177.7910  145.6320 N   0  0  0  0  0  0  0  0  0  0  0  0
  189.0100  177.9130  146.9260 C   0  0  0  0  0  2  0  0  0  0  0  0
  191.1060  176.6000  147.3250 C   0  0  0  0  0  2  0  0  0  0  0  0
  187.0310  177.1450  145.8560 C   0  0  0  0  0  2  0  0  0  0  0  0
  186.1380  178.0390  146.7040 C   0  0  0  0  0  2  0  0  0  0  0  0
  185.6090  179.2200  145.9010 C   0  0  0  0  0  2  0  0  0  0  0  0
  184.4180  179.4040  143.2950 O   0  0  0  0  0  0  0  0  0  0  0  0
  182.2340  178.8200  144.0270 C   0  0  0  0  0  1  0  0  0  0  0  0
  183.6750  179.0990  144.2650 C   0  0  0  0  0  0  0  0  0  0  0  0
  184.1970  179.0350  145.5950 N   0  0  0  0  0  2  0  0  0  0  0  0
  191.4500  175.1740  137.9510 C   0  0  0  0  0  2  0  0  0  0  0  0
  194.2520  175.3930  135.5780 C   0  0  0  0  0  2  0  0  0  0  0  0
  195.0890  174.4300  136.4240 C   0  0  2  0  0  3  0  0  0  0  0  0
  193.7680  175.5150  138.2940 C   0  0  0  0  0  2  0  0  0  0  0  0
  192.7920  175.3580  136.0250 C   0  0  0  0  0  2  0  0  0  0  0  0
  192.6290  175.8340  137.4080 N   0  0  0  0  0  0  0  0  0  0  0  0
  194.5400  174.2670  137.8510 C   0  0  0  0  0  2  0  0  0  0  0  0
  196.8310  176.0910  135.1040 S   0  0  0  0  0  1  0  0  0  0  0  0
  196.5300  174.9130  136.4560 C   0  0  0  0  0  2  0  0  0  0  0  0
  1  5  1  0  0  0  0
  2 12  1  6  0  0  0
  2 11  1  0  0  0  0
  2 13  1  0  0  0  0
  3 16  1  0  0  0  0
  4  8  1  1  0  0  0
  4  7  1  0  0  0  0
  5  9  1  0  0  0  0
  6  1  2  0  0  0  0
  7 11  1  0  0  0  0
  7  9  1  1  0  0  0
  8  1  1  0  0  0  0
 10  3  2  0  0  0  0
 11 10  1  1  0  0  0
 13 14  2  0  0  0  0
 14  3  1  0  0  0  0
 15  4  1  0  0  0  0
 15 12  2  0  0  0  0
 16 18  2  0  0  0  0
 16 17  1  0  0  0  0
 17 19  1  0  0  0  0
 19 23  1  0  0  0  0
 20 24  1  0  0  0  0
 21 25  1  0  0  0  0
 23 21  1  0  0  0  0
 23 20  2  0  0  0  0
 24 27  1  0  0  0  0
 25 28  1  0  0  0  0
 25 26  1  0  0  0  0
 26 22  1  0  0  0  0
 27 22  1  0  0  0  0
 28 29  1  0  0  0  0
 30 29  1  0  0  0  0
 31 33  2  0  0  0  0
 32 33  1  0  0  0  0
 33 34  1  0  0  0  0
 34 30  1  0  0  0  0
 35 13  1  0  0  0  0
 36 39  1  0  0  0  0
 36 37  1  0  0  0  0
 37 43  1  1  0  0  0
 37 41  1  0  0  0  0
 39 40  1  0  0  0  0
 40 35  1  0  0  0  0
 40 38  1  0  0  0  0
 41 38  1  0  0  0  0
 42 43  1  0  0  0  0
M  END
>  <MODEL>
4

>  <REMARK>
 VINA RESULT:      -8.9      3.939     11.127
  Name = 
  10 active torsions:
  status: ('A' for Active; 'I' for Inactive)
    1  A    between atoms: C_1  and  C_34
    2  A    between atoms: C_1  and  N_35
    3  A    between atoms: C_2  and  C_13
    4  A    between atoms: N_6  and  C_17
    5  A    between atoms: C_11  and  C_14
    6  A    between atoms: C_11  and  C_36
    7  A    between atoms: C_12  and  C_17
    8  A    between atoms: C_14  and  N_22
    9  A    between atoms: C_19  and  C_37
   10  A    between atoms: C_36  and  N_40
                            x       y       z     vdW  Elec       q    Type
                         _______ _______ _______ _____ _____    ______ ____

>  <TORSDO>
F 10

$$$$
=
 OpenBabel10272414353D

 43 47  0  0  1  0  0  0  0  0999 V2000
  193.6420  173.5060  136.6080 C   0  0  0  0  0  0  0  0  0  0  0  0
  190.6230  176.5560  138.8430 C   0  0  1  0  0  3  0  0  0  0  0  0
  188.1040  176.6450  137.4870 C   0  0  0  0  0  0  0  0  0  0  0  0
  193.0460  175.8450  137.3300 C   0  0  2  0  0  3  0  0  0  0  0  0
  192.2240  173.1360  136.2880 C   0  0  0  0  0  2  0  0  0  0  0  0
  194.5610  172.8830  136.1000 O   0  0  0  0  0  0  0  0  0  0  0  0
  191.6190  175.5110  136.7860 C   0  0  1  0  0  3  0  0  0  0  0  0
  193.9400  174.6190  137.5710 C   0  0  0  0  0  2  0  0  0  0  0  0
  191.2400  174.0440  137.0200 C   0  0  0  0  0  2  0  0  0  0  0  0
  189.1710  176.1790  136.8250 C   0  0  0  0  0  3  0  0  0  0  0  0
  190.5590  176.4830  137.3140 C   0  0  1  0  0  3  0  0  0  0  0  0
  191.9770  177.0710  139.2460 C   0  0  0  0  0  3  0  0  0  0  0  0
  189.4810  177.3880  139.3890 C   0  0  0  0  0  0  0  0  0  0  0  0
  188.2910  177.3660  138.7700 C   0  0  0  0  0  3  0  0  0  0  0  0
  193.0770  176.7300  138.5590 C   0  0  0  0  0  3  0  0  0  0  0  0
  186.7480  176.3900  136.9710 C   0  0  0  0  0  0  0  0  0  0  0  0
  185.6380  177.1150  137.5030 N   0  0  0  0  0  2  0  0  0  0  0  0
  186.5680  175.5420  136.0550 O   0  0  0  0  0  0  0  0  0  0  0  0
  184.2790  176.9390  137.0200 C   0  0  0  0  0  2  0  0  0  0  0  0
  182.1330  178.0940  137.2030 C   0  0  0  0  0  3  0  0  0  0  0  0
  183.9320  178.8440  138.7350 C   0  0  0  0  0  2  0  0  0  0  0  0
  181.5340  178.9020  140.2810 C   0  0  0  0  0  2  0  0  0  0  0  0
  183.4050  177.9920  137.6130 C   0  0  0  0  0  0  0  0  0  0  0  0
  181.1620  179.0850  137.7830 C   0  0  0  0  0  2  0  0  0  0  0  0
  183.9140  178.1190  140.0090 N   0  0  0  0  0  0  0  0  0  0  0  0
  182.5490  177.7670  140.4370 C   0  0  0  0  0  2  0  0  0  0  0  0
  180.5930  178.6130  139.1200 C   0  0  0  0  0  2  0  0  0  0  0  0
  184.5070  178.9840  141.0200 C   0  0  0  0  0  2  0  0  0  0  0  0
  184.6450  178.2320  142.3350 C   0  0  0  0  0  2  0  0  0  0  0  0
  184.4960  179.1650  143.5300 C   0  0  0  0  0  2  0  0  0  0  0  0
  184.0850  178.7880  146.3460 O   0  0  0  0  0  0  0  0  0  0  0  0
  186.3680  178.3400  146.8280 C   0  0  0  0  0  1  0  0  0  0  0  0
  185.2580  178.6810  145.8990 C   0  0  0  0  0  0  0  0  0  0  0  0
  185.5360  178.9020  144.5140 N   0  0  0  0  0  2  0  0  0  0  0  0
  189.5740  178.0380  140.7320 C   0  0  0  0  0  2  0  0  0  0  0  0
  188.5430  176.8420  144.0540 C   0  0  0  0  0  2  0  0  0  0  0  0
  189.7010  177.5900  144.7210 C   0  0  2  0  0  3  0  0  0  0  0  0
  190.8160  177.0780  142.5040 C   0  0  0  0  0  2  0  0  0  0  0  0
  188.3570  177.3270  142.6180 C   0  0  0  0  0  2  0  0  0  0  0  0
  189.5290  177.0280  141.7800 N   0  0  0  0  0  0  0  0  0  0  0  0
  190.7850  178.0150  143.7170 C   0  0  0  0  0  2  0  0  0  0  0  0
  189.7320  177.2880  147.4490 S   0  0  0  0  0  1  0  0  0  0  0  0
  190.2950  176.7190  145.8160 C   0  0  0  0  0  2  0  0  0  0  0  0
  1  8  1  0  0  0  0
  2 12  1  6  0  0  0
  2 13  1  0  0  0  0
  3 14  1  0  0  0  0
  4  8  1  1  0  0  0
  4 15  1  0  0  0  0
  5  1  1  0  0  0  0
  5  9  1  0  0  0  0
  6  1  2  0  0  0  0
  7  9  1  1  0  0  0
  7 11  1  0  0  0  0
  7  4  1  0  0  0  0
 10  3  2  0  0  0  0
 11 10  1  1  0  0  0
 11  2  1  0  0  0  0
 13 35  1  0  0  0  0
 14 13  2  0  0  0  0
 15 12  2  0  0  0  0
 16  3  1  0  0  0  0
 16 17  1  0  0  0  0
 18 16  2  0  0  0  0
 19 17  1  0  0  0  0
 19 23  1  0  0  0  0
 20 23  2  0  0  0  0
 20 24  1  0  0  0  0
 21 25  1  0  0  0  0
 22 26  1  0  0  0  0
 23 21  1  0  0  0  0
 24 27  1  0  0  0  0
 25 26  1  0  0  0  0
 25 28  1  0  0  0  0
 27 22  1  0  0  0  0
 28 29  1  0  0  0  0
 29 30  1  0  0  0  0
 30 34  1  0  0  0  0
 33 31  2  0  0  0  0
 33 32  1  0  0  0  0
 34 33  1  0  0  0  0
 35 40  1  0  0  0  0
 36 37  1  0  0  0  0
 37 43  1  1  0  0  0
 38 41  1  0  0  0  0
 39 36  1  0  0  0  0
 40 38  1  0  0  0  0
 40 39  1  0  0  0  0
 41 37  1  0  0  0  0
 43 42  1  0  0  0  0
M  END
>  <MODEL>
5

>  <REMARK>
 VINA RESULT:      -8.9      3.456      9.397
  Name = 
  10 active torsions:
  status: ('A' for Active; 'I' for Inactive)
    1  A    between atoms: C_1  and  C_34
    2  A    between atoms: C_1  and  N_35
    3  A    between atoms: C_2  and  C_13
    4  A    between atoms: N_6  and  C_17
    5  A    between atoms: C_11  and  C_14
    6  A    between atoms: C_11  and  C_36
    7  A    between atoms: C_12  and  C_17
    8  A    between atoms: C_14  and  N_22
    9  A    between atoms: C_19  and  C_37
   10  A    between atoms: C_36  and  N_40
                            x       y       z     vdW  Elec       q    Type
                         _______ _______ _______ _____ _____    ______ ____

>  <TORSDO>
F 10

$$$$
=
 OpenBabel10272414353D

 43 47  0  0  1  0  0  0  0  0999 V2000
  193.2430  175.0790  135.7960 C   0  0  0  0  0  0  0  0  0  0  0  0
  188.9320  176.8450  137.1040 C   0  0  1  0  0  3  0  0  0  0  0  0
  188.9180  177.4940  139.8910 C   0  0  0  0  0  0  0  0  0  0  0  0
  190.7650  174.7620  136.1200 C   0  0  2  0  0  3  0  0  0  0  0  0
  193.3970  175.9250  137.0250 C   0  0  0  0  0  2  0  0  0  0  0  0
  194.2130  174.5020  135.3320 O   0  0  0  0  0  0  0  0  0  0  0  0
  190.9870  175.4560  137.5030 C   0  0  1  0  0  3  0  0  0  0  0  0
  191.9100  174.9600  135.1150 C   0  0  0  0  0  2  0  0  0  0  0  0
  192.0640  176.5450  137.4370 C   0  0  0  0  0  2  0  0  0  0  0  0
  189.8560  176.6530  139.4340 C   0  0  0  0  0  3  0  0  0  0  0  0
  189.6760  175.9640  138.1120 C   0  0  1  0  0  3  0  0  0  0  0  0
  188.6010  176.0200  135.8910 C   0  0  0  0  0  3  0  0  0  0  0  0
  187.7150  177.4820  137.7430 C   0  0  0  0  0  0  0  0  0  0  0  0
  187.7550  177.8320  139.0370 C   0  0  0  0  0  3  0  0  0  0  0  0
  189.4490  175.0830  135.4430 C   0  0  0  0  0  3  0  0  0  0  0  0
  189.0760  178.1240  141.2130 C   0  0  0  0  0  0  0  0  0  0  0  0
  190.2760  177.9140  141.9610 N   0  0  0  0  0  2  0  0  0  0  0  0
  188.1610  178.8550  141.6810 O   0  0  0  0  0  0  0  0  0  0  0  0
  190.5140  178.5290  143.2550 C   0  0  0  0  0  2  0  0  0  0  0  0
  191.5210  177.1600  145.0120 C   0  0  0  0  0  3  0  0  0  0  0  0
  189.0790  176.9080  144.6710 C   0  0  0  0  0  2  0  0  0  0  0  0
  189.4730  176.8090  147.4950 C   0  0  0  0  0  2  0  0  0  0  0  0
  190.4210  177.4880  144.3200 C   0  0  0  0  0  0  0  0  0  0  0  0
  191.5130  176.1660  146.1400 C   0  0  0  0  0  2  0  0  0  0  0  0
  188.3030  177.8270  145.5090 N   0  0  0  0  0  0  0  0  0  0  0  0
  188.9410  178.0720  146.8150 C   0  0  0  0  0  2  0  0  0  0  0  0
  190.9940  176.7800  147.4390 C   0  0  0  0  0  2  0  0  0  0  0  0
  186.9980  177.2240  145.7380 C   0  0  0  0  0  2  0  0  0  0  0  0
  186.1810  178.0900  146.6870 C   0  0  0  0  0  2  0  0  0  0  0  0
  185.6240  179.3180  145.9800 C   0  0  0  0  0  2  0  0  0  0  0  0
  184.5390  179.3270  143.3210 O   0  0  0  0  0  0  0  0  0  0  0  0
  182.3260  178.7910  144.0010 C   0  0  0  0  0  1  0  0  0  0  0  0
  183.7580  179.0870  144.2790 C   0  0  0  0  0  0  0  0  0  0  0  0
  184.2250  179.1120  145.6300 N   0  0  0  0  0  2  0  0  0  0  0  0
  186.5630  177.9490  136.9120 C   0  0  0  0  0  2  0  0  0  0  0  0
  183.3470  176.5950  135.7480 C   0  0  0  0  0  2  0  0  0  0  0  0
  182.5740  177.6090  136.5960 C   0  0  2  0  0  3  0  0  0  0  0  0
  184.6020  177.3430  138.0910 C   0  0  0  0  0  2  0  0  0  0  0  0
  184.8170  176.9990  135.6500 C   0  0  0  0  0  2  0  0  0  0  0  0
  185.4820  176.9750  136.9630 N   0  0  0  0  0  0  0  0  0  0  0  0
  183.4500  178.2650  137.6760 C   0  0  0  0  0  2  0  0  0  0  0  0
  181.6260  175.1250  137.2770 S   0  0  0  0  0  1  0  0  0  0  0  0
  181.3710  176.9250  137.2240 C   0  0  0  0  0  2  0  0  0  0  0  0
  1  5  1  0  0  0  0
  2 12  1  6  0  0  0
  2 13  1  0  0  0  0
  2 11  1  0  0  0  0
  3 16  1  0  0  0  0
  4  8  1  6  0  0  0
  4  7  1  0  0  0  0
  5  9  1  0  0  0  0
  6  1  2  0  0  0  0
  7  9  1  6  0  0  0
  7 11  1  0  0  0  0
  8  1  1  0  0  0  0
 10  3  2  0  0  0  0
 11 10  1  1  0  0  0
 13 14  2  0  0  0  0
 14  3  1  0  0  0  0
 15 12  2  0  0  0  0
 15  4  1  0  0  0  0
 16 18  2  0  0  0  0
 16 17  1  0  0  0  0
 17 19  1  0  0  0  0
 19 23  1  0  0  0  0
 20 24  1  0  0  0  0
 21 25  1  0  0  0  0
 23 21  1  0  0  0  0
 23 20  2  0  0  0  0
 24 27  1  0  0  0  0
 25 28  1  0  0  0  0
 25 26  1  0  0  0  0
 26 22  1  0  0  0  0
 27 22  1  0  0  0  0
 28 29  1  0  0  0  0
 30 29  1  0  0  0  0
 31 33  2  0  0  0  0
 32 33  1  0  0  0  0
 33 34  1  0  0  0  0
 34 30  1  0  0  0  0
 35 40  1  0  0  0  0
 35 13  1  0  0  0  0
 36 37  1  0  0  0  0
 37 43  1  1  0  0  0
 37 41  1  0  0  0  0
 39 36  1  0  0  0  0
 39 40  1  0  0  0  0
 40 38  1  0  0  0  0
 41 38  1  0  0  0  0
 43 42  1  0  0  0  0
M  END
>  <MODEL>
6

>  <REMARK>
 VINA RESULT:      -8.8      3.034      9.266
  Name = 
  10 active torsions:
  status: ('A' for Active; 'I' for Inactive)
    1  A    between atoms: C_1  and  C_34
    2  A    between atoms: C_1  and  N_35
    3  A    between atoms: C_2  and  C_13
    4  A    between atoms: N_6  and  C_17
    5  A    between atoms: C_11  and  C_14
    6  A    between atoms: C_11  and  C_36
    7  A    between atoms: C_12  and  C_17
    8  A    between atoms: C_14  and  N_22
    9  A    between atoms: C_19  and  C_37
   10  A    between atoms: C_36  and  N_40
                            x       y       z     vdW  Elec       q    Type
                         _______ _______ _______ _____ _____    ______ ____

>  <TORSDO>
F 10

$$$$
=
 OpenBabel10272414353D

 43 47  0  0  1  0  0  0  0  0999 V2000
  181.3720  178.8180  141.6230 C   0  0  0  0  0  0  0  0  0  0  0  0
  184.2460  177.1710  138.0950 C   0  0  1  0  0  3  0  0  0  0  0  0
  186.9410  178.0430  138.5090 C   0  0  0  0  0  0  0  0  0  0  0  0
  182.0320  178.7730  139.1920 C   0  0  2  0  0  3  0  0  0  0  0  0
  182.7890  178.7630  142.1120 C   0  0  0  0  0  2  0  0  0  0  0  0
  180.4960  179.2530  142.3520 O   0  0  0  0  0  0  0  0  0  0  0  0
  183.4950  178.9360  139.7190 C   0  0  1  0  0  3  0  0  0  0  0  0
  181.0190  178.3150  140.2530 C   0  0  0  0  0  2  0  0  0  0  0  0
  183.7190  178.1950  141.0430 C   0  0  0  0  0  2  0  0  0  0  0  0
  185.9530  178.6960  139.1360 C   0  0  0  0  0  3  0  0  0  0  0  0
  184.5350  178.5670  138.6560 C   0  0  1  0  0  3  0  0  0  0  0  0
  182.8910  177.1830  137.4440 C   0  0  0  0  0  3  0  0  0  0  0  0
  185.3540  176.7280  137.1610 C   0  0  0  0  0  0  0  0  0  0  0  0
  186.6180  177.1000  137.4110 C   0  0  0  0  0  3  0  0  0  0  0  0
  181.8850  177.9050  137.9590 C   0  0  0  0  0  3  0  0  0  0  0  0
  188.3350  178.2170  138.9510 C   0  0  0  0  0  0  0  0  0  0  0  0
  188.9660  177.1980  139.7290 N   0  0  0  0  0  2  0  0  0  0  0  0
  188.9750  179.2570  138.6350 O   0  0  0  0  0  0  0  0  0  0  0  0
  190.3470  177.2870  140.1720 C   0  0  0  0  0  2  0  0  0  0  0  0
  191.6210  176.8960  142.2210 C   0  0  0  0  0  3  0  0  0  0  0  0
  189.1850  176.4490  142.3260 C   0  0  0  0  0  2  0  0  0  0  0  0
  189.8520  177.6560  144.8240 C   0  0  0  0  0  2  0  0  0  0  0  0
  190.4380  176.8430  141.5930 C   0  0  0  0  0  0  0  0  0  0  0  0
  191.8000  176.5240  143.6660 C   0  0  0  0  0  2  0  0  0  0  0  0
  188.4220  177.6270  142.7490 N   0  0  0  0  0  0  0  0  0  0  0  0
  189.1590  178.4570  143.7180 C   0  0  0  0  0  2  0  0  0  0  0  0
  191.3590  177.6480  144.6040 C   0  0  0  0  0  2  0  0  0  0  0  0
  187.1960  177.1580  143.3800 C   0  0  0  0  0  2  0  0  0  0  0  0
  186.1730  178.2830  143.4340 C   0  0  0  0  0  2  0  0  0  0  0  0
  185.5590  178.4120  144.8220 C   0  0  0  0  0  2  0  0  0  0  0  0
  185.7270  179.4830  147.4800 O   0  0  0  0  0  0  0  0  0  0  0  0
  187.4840  178.0400  148.1710 C   0  0  0  0  0  1  0  0  0  0  0  0
  186.5210  178.5580  147.1630 C   0  0  0  0  0  0  0  0  0  0  0  0
  186.5190  178.0130  145.8410 N   0  0  0  0  0  2  0  0  0  0  0  0
  185.1080  175.6910  136.1120 C   0  0  0  0  0  2  0  0  0  0  0  0
  185.7670  172.0740  136.0120 C   0  0  0  0  0  2  0  0  0  0  0  0
  184.4550  171.8210  135.2640 C   0  0  2  0  0  3  0  0  0  0  0  0
  183.7290  173.8350  136.6180 C   0  0  0  0  0  2  0  0  0  0  0  0
  186.1080  173.5630  135.9940 C   0  0  0  0  0  2  0  0  0  0  0  0
  185.1040  174.3650  136.7130 N   0  0  0  0  0  0  0  0  0  0  0  0
  183.4890  173.0140  135.3450 C   0  0  0  0  0  2  0  0  0  0  0  0
  181.9900  170.7230  135.7680 S   0  0  0  0  0  1  0  0  0  0  0  0
  183.8010  170.5620  135.8100 C   0  0  0  0  0  2  0  0  0  0  0  0
  1  5  1  0  0  0  0
  1  6  2  0  0  0  0
  2 12  1  6  0  0  0
  2 11  1  0  0  0  0
  3 16  1  0  0  0  0
  3 10  2  0  0  0  0
  4 15  1  6  0  0  0
  4  7  1  0  0  0  0
  4  8  1  0  0  0  0
  7  9  1  1  0  0  0
  8  1  1  0  0  0  0
  9  5  1  0  0  0  0
 11 10  1  1  0  0  0
 11  7  1  0  0  0  0
 12 15  2  0  0  0  0
 13 14  2  0  0  0  0
 13  2  1  0  0  0  0
 14  3  1  0  0  0  0
 16 17  1  0  0  0  0
 17 19  1  0  0  0  0
 18 16  2  0  0  0  0
 19 23  1  0  0  0  0
 20 24  1  0  0  0  0
 21 25  1  0  0  0  0
 23 20  2  0  0  0  0
 23 21  1  0  0  0  0
 24 27  1  0  0  0  0
 25 28  1  0  0  0  0
 25 26  1  0  0  0  0
 26 22  1  0  0  0  0
 27 22  1  0  0  0  0
 28 29  1  0  0  0  0
 29 30  1  0  0  0  0
 30 34  1  0  0  0  0
 33 31  2  0  0  0  0
 33 32  1  0  0  0  0
 34 33  1  0  0  0  0
 35 40  1  0  0  0  0
 35 13  1  0  0  0  0
 37 41  1  0  0  0  0
 37 43  1  1  0  0  0
 37 36  1  0  0  0  0
 38 40  1  0  0  0  0
 39 36  1  0  0  0  0
 39 40  1  0  0  0  0
 41 38  1  0  0  0  0
 42 43  1  0  0  0  0
M  END
>  <MODEL>
7

>  <REMARK>
 VINA RESULT:      -8.5      4.079      9.021
  Name = 
  10 active torsions:
  status: ('A' for Active; 'I' for Inactive)
    1  A    between atoms: C_1  and  C_34
    2  A    between atoms: C_1  and  N_35
    3  A    between atoms: C_2  and  C_13
    4  A    between atoms: N_6  and  C_17
    5  A    between atoms: C_11  and  C_14
    6  A    between atoms: C_11  and  C_36
    7  A    between atoms: C_12  and  C_17
    8  A    between atoms: C_14  and  N_22
    9  A    between atoms: C_19  and  C_37
   10  A    between atoms: C_36  and  N_40
                            x       y       z     vdW  Elec       q    Type
                         _______ _______ _______ _____ _____    ______ ____

>  <TORSDO>
F 10

$$$$
=
 OpenBabel10272414353D

 43 47  0  0  1  0  0  0  0  0999 V2000
  191.3160  176.5110  147.0040 C   0  0  0  0  0  0  0  0  0  0  0  0
  187.5010  177.5550  144.2160 C   0  0  1  0  0  3  0  0  0  0  0  0
  188.3480  178.2000  141.5590 C   0  0  0  0  0  0  0  0  0  0  0  0
  189.3530  177.9940  146.4630 C   0  0  2  0  0  3  0  0  0  0  0  0
  191.6660  176.2790  145.5640 C   0  0  0  0  0  2  0  0  0  0  0  0
  192.1630  176.3490  147.8670 O   0  0  0  0  0  0  0  0  0  0  0  0
  189.8650  177.9160  144.9880 C   0  0  1  0  0  3  0  0  0  0  0  0
  189.9230  176.9130  147.3940 C   0  0  0  0  0  2  0  0  0  0  0  0
  190.4680  176.5460  144.6560 C   0  0  0  0  0  2  0  0  0  0  0  0
  189.2470  178.2640  142.5510 C   0  0  0  0  0  3  0  0  0  0  0  0
  188.7930  178.3450  143.9810 C   0  0  1  0  0  3  0  0  0  0  0  0
  186.9960  177.8550  145.6000 C   0  0  0  0  0  3  0  0  0  0  0  0
  186.4860  177.8520  143.1320 C   0  0  0  0  0  0  0  0  0  0  0  0
  186.9050  178.0920  141.8800 C   0  0  0  0  0  3  0  0  0  0  0  0
  187.8470  178.0390  146.6200 C   0  0  0  0  0  3  0  0  0  0  0  0
  188.8000  178.1770  140.1580 C   0  0  0  0  0  0  0  0  0  0  0  0
  189.3400  176.9760  139.6050 N   0  0  0  0  0  2  0  0  0  0  0  0
  188.7010  179.2120  139.4430 O   0  0  0  0  0  0  0  0  0  0  0  0
  189.7750  176.8700  138.2230 C   0  0  0  0  0  2  0  0  0  0  0  0
  187.6820  175.9730  137.3360 C   0  0  0  0  0  3  0  0  0  0  0  0
  189.7130  174.5920  137.0000 C   0  0  0  0  0  2  0  0  0  0  0  0
  188.2140  174.3530  134.5830 C   0  0  0  0  0  2  0  0  0  0  0  0
  188.9950  175.7970  137.5410 C   0  0  0  0  0  0  0  0  0  0  0  0
  186.8260  174.9740  136.6080 C   0  0  0  0  0  2  0  0  0  0  0  0
  190.3890  174.8970  135.7350 N   0  0  0  0  0  0  0  0  0  0  0  0
  189.4430  175.2620  134.6650 C   0  0  0  0  0  2  0  0  0  0  0  0
  186.9810  175.0870  135.0920 C   0  0  0  0  0  2  0  0  0  0  0  0
  191.1160  173.7050  135.3220 C   0  0  0  0  0  2  0  0  0  0  0  0
  192.5710  174.0520  135.0410 C   0  0  0  0  0  2  0  0  0  0  0  0
  193.4740  173.6430  136.1980 C   0  0  0  0  0  2  0  0  0  0  0  0
  194.2980  176.3460  136.7090 O   0  0  0  0  0  0  0  0  0  0  0  0
  193.1330  176.5280  138.7730 C   0  0  0  0  0  1  0  0  0  0  0  0
  193.5640  175.7790  137.5620 C   0  0  0  0  0  0  0  0  0  0  0  0
  193.1570  174.4190  137.3890 N   0  0  0  0  0  2  0  0  0  0  0  0
  185.0240  177.6440  143.3680 C   0  0  0  0  0  2  0  0  0  0  0  0
  181.8950  179.5100  142.8570 C   0  0  0  0  0  2  0  0  0  0  0  0
  181.5000  178.5960  141.6940 C   0  0  2  0  0  3  0  0  0  0  0  0
  184.0150  178.5000  141.4040 C   0  0  0  0  0  2  0  0  0  0  0  0
  183.0470  178.8920  143.6480 C   0  0  0  0  0  2  0  0  0  0  0  0
  184.2670  178.7690  142.8350 N   0  0  0  0  0  0  0  0  0  0  0  0
  182.6850  177.7780  141.1560 C   0  0  0  0  0  2  0  0  0  0  0  0
  180.2890  178.3620  139.2410 S   0  0  0  0  0  1  0  0  0  0  0  0
  180.8800  179.4330  140.5870 C   0  0  0  0  0  2  0  0  0  0  0  0
  1  8  1  0  0  0  0
  1  6  2  0  0  0  0
  2 12  1  1  0  0  0
  3 14  1  0  0  0  0
  3 10  2  0  0  0  0
  4 15  1  6  0  0  0
  4  8  1  0  0  0  0
  5  1  1  0  0  0  0
  7  9  1  6  0  0  0
  7  4  1  0  0  0  0
  9  5  1  0  0  0  0
 11 10  1  6  0  0  0
 11  2  1  0  0  0  0
 11  7  1  0  0  0  0
 12 15  2  0  0  0  0
 13 35  1  0  0  0  0
 13  2  1  0  0  0  0
 14 13  2  0  0  0  0
 16  3  1  0  0  0  0
 17 16  1  0  0  0  0
 18 16  2  0  0  0  0
 19 17  1  0  0  0  0
 20 23  2  0  0  0  0
 21 23  1  0  0  0  0
 22 26  1  0  0  0  0
 22 27  1  0  0  0  0
 23 19  1  0  0  0  0
 24 20  1  0  0  0  0
 25 21  1  0  0  0  0
 26 25  1  0  0  0  0
 27 24  1  0  0  0  0
 28 25  1  0  0  0  0
 29 28  1  0  0  0  0
 29 30  1  0  0  0  0
 30 34  1  0  0  0  0
 31 33  2  0  0  0  0
 33 32  1  0  0  0  0
 34 33  1  0  0  0  0
 36 39  1  0  0  0  0
 37 43  1  6  0  0  0
 37 36  1  0  0  0  0
 38 40  1  0  0  0  0
 40 35  1  0  0  0  0
 40 39  1  0  0  0  0
 41 38  1  0  0  0  0
 41 37  1  0  0  0  0
 42 43  1  0  0  0  0
M  END
>  <MODEL>
8

>  <REMARK>
 VINA RESULT:      -8.4      1.654      2.152
  Name = 
  10 active torsions:
  status: ('A' for Active; 'I' for Inactive)
    1  A    between atoms: C_1  and  C_34
    2  A    between atoms: C_1  and  N_35
    3  A    between atoms: C_2  and  C_13
    4  A    between atoms: N_6  and  C_17
    5  A    between atoms: C_11  and  C_14
    6  A    between atoms: C_11  and  C_36
    7  A    between atoms: C_12  and  C_17
    8  A    between atoms: C_14  and  N_22
    9  A    between atoms: C_19  and  C_37
   10  A    between atoms: C_36  and  N_40
                            x       y       z     vdW  Elec       q    Type
                         _______ _______ _______ _____ _____    ______ ____

>  <TORSDO>
F 10

$$$$
=
 OpenBabel10272414353D

 43 47  0  0  1  0  0  0  0  0999 V2000
  191.9210  173.7470  135.2750 C   0  0  0  0  0  0  0  0  0  0  0  0
  190.9290  176.6140  139.0450 C   0  0  1  0  0  3  0  0  0  0  0  0
  188.3230  177.7650  138.7690 C   0  0  0  0  0  0  0  0  0  0  0  0
  192.4100  175.8140  136.6290 C   0  0  2  0  0  3  0  0  0  0  0  0
  190.4350  173.8720  135.4350 C   0  0  0  0  0  2  0  0  0  0  0  0
  192.3780  173.1000  134.3460 O   0  0  0  0  0  0  0  0  0  0  0  0
  190.8650  176.0440  136.5980 C   0  0  1  0  0  3  0  0  0  0  0  0
  192.8510  174.3880  136.2640 C   0  0  0  0  0  2  0  0  0  0  0  0
  190.0820  174.7260  136.6490 C   0  0  0  0  0  2  0  0  0  0  0  0
  188.9230  177.2710  137.6780 C   0  0  0  0  0  3  0  0  0  0  0  0
  190.4080  177.0400  137.6680 C   0  0  1  0  0  3  0  0  0  0  0  0
  192.4320  176.6110  139.0130 C   0  0  0  0  0  3  0  0  0  0  0  0
  190.3560  177.4980  140.1330 C   0  0  0  0  0  0  0  0  0  0  0  0
  189.1080  177.9760  140.0090 C   0  0  0  0  0  3  0  0  0  0  0  0
  193.0980  176.2320  137.9120 C   0  0  0  0  0  3  0  0  0  0  0  0
  186.8760  178.0400  138.7520 C   0  0  0  0  0  0  0  0  0  0  0  0
  186.2650  178.6940  139.8650 N   0  0  0  0  0  2  0  0  0  0  0  0
  186.1800  177.7090  137.7540 O   0  0  0  0  0  0  0  0  0  0  0  0
  184.8510  179.0260  139.9040 C   0  0  0  0  0  2  0  0  0  0  0  0
  184.7980  178.8450  142.3410 C   0  0  0  0  0  3  0  0  0  0  0  0
  182.9950  177.6800  141.1010 C   0  0  0  0  0  2  0  0  0  0  0  0
  181.7420  178.7920  143.4120 C   0  0  0  0  0  2  0  0  0  0  0  0
  184.2550  178.4980  141.1660 C   0  0  0  0  0  0  0  0  0  0  0  0
  184.2330  178.4090  143.6650 C   0  0  0  0  0  2  0  0  0  0  0  0
  181.8160  178.5300  140.9070 N   0  0  0  0  0  0  0  0  0  0  0  0
  181.5910  179.4470  142.0370 C   0  0  0  0  0  2  0  0  0  0  0  0
  183.0300  179.2560  144.0790 C   0  0  0  0  0  2  0  0  0  0  0  0
  180.6570  177.6580  140.7810 C   0  0  0  0  0  2  0  0  0  0  0  0
  180.2110  177.5870  139.3270 C   0  0  0  0  0  2  0  0  0  0  0  0
  180.7960  176.3680  138.6250 C   0  0  0  0  0  2  0  0  0  0  0  0
  183.5520  175.8910  137.9790 O   0  0  0  0  0  0  0  0  0  0  0  0
  183.4160  176.8260  135.7980 C   0  0  0  0  0  1  0  0  0  0  0  0
  182.8310  176.4570  137.1150 C   0  0  0  0  0  0  0  0  0  0  0  0
  181.4620  176.7630  137.3910 N   0  0  0  0  0  2  0  0  0  0  0  0
  191.0510  177.6490  141.4480 C   0  0  0  0  0  2  0  0  0  0  0  0
  188.9590  177.6240  144.4740 C   0  0  0  0  0  2  0  0  0  0  0  0
  190.1900  177.7980  145.3680 C   0  0  2  0  0  3  0  0  0  0  0  0
  191.2750  176.4810  143.4950 C   0  0  0  0  0  2  0  0  0  0  0  0
  189.3170  177.9170  143.0180 C   0  0  0  0  0  2  0  0  0  0  0  0
  190.3030  176.9600  142.4910 N   0  0  0  0  0  0  0  0  0  0  0  0
  191.5030  177.4820  144.6330 C   0  0  0  0  0  2  0  0  0  0  0  0
  188.7380  177.5790  147.6870 S   0  0  0  0  0  1  0  0  0  0  0  0
  190.0420  176.9230  146.6020 C   0  0  0  0  0  2  0  0  0  0  0  0
  1  5  1  0  0  0  0
  1  8  1  0  0  0  0
  2 12  1  6  0  0  0
  2 13  1  0  0  0  0
  3 14  1  0  0  0  0
  4  8  1  1  0  0  0
  4 15  1  0  0  0  0
  5  9  1  0  0  0  0
  6  1  2  0  0  0  0
  7  4  1  0  0  0  0
  7  9  1  1  0  0  0
  7 11  1  0  0  0  0
 10  3  2  0  0  0  0
 11 10  1  1  0  0  0
 11  2  1  0  0  0  0
 13 35  1  0  0  0  0
 14 13  2  0  0  0  0
 15 12  2  0  0  0  0
 16  3  1  0  0  0  0
 16 17  1  0  0  0  0
 17 19  1  0  0  0  0
 18 16  2  0  0  0  0
 19 23  1  0  0  0  0
 20 24  1  0  0  0  0
 21 23  1  0  0  0  0
 22 27  1  0  0  0  0
 23 20  2  0  0  0  0
 24 27  1  0  0  0  0
 25 21  1  0  0  0  0
 25 26  1  0  0  0  0
 26 22  1  0  0  0  0
 28 25  1  0  0  0  0
 29 28  1  0  0  0  0
 30 29  1  0  0  0  0
 32 33  1  0  0  0  0
 33 34  1  0  0  0  0
 33 31  2  0  0  0  0
 34 30  1  0  0  0  0
 35 40  1  0  0  0  0
 36 37  1  0  0  0  0
 37 43  1  1  0  0  0
 38 41  1  0  0  0  0
 39 36  1  0  0  0  0
 40 39  1  0  0  0  0
 40 38  1  0  0  0  0
 41 37  1  0  0  0  0
 43 42  1  0  0  0  0
M  END
>  <MODEL>
9

>  <REMARK>
 VINA RESULT:      -8.3      3.721     10.154
  Name = 
  10 active torsions:
  status: ('A' for Active; 'I' for Inactive)
    1  A    between atoms: C_1  and  C_34
    2  A    between atoms: C_1  and  N_35
    3  A    between atoms: C_2  and  C_13
    4  A    between atoms: N_6  and  C_17
    5  A    between atoms: C_11  and  C_14
    6  A    between atoms: C_11  and  C_36
    7  A    between atoms: C_12  and  C_17
    8  A    between atoms: C_14  and  N_22
    9  A    between atoms: C_19  and  C_37
   10  A    between atoms: C_36  and  N_40
                            x       y       z     vdW  Elec       q    Type
                         _______ _______ _______ _____ _____    ______ ____

>  <TORSDO>
F 10

$$$$
