=
 OpenBabel10272413143D

 32 37  0  0  1  0  0  0  0  0999 V2000
  189.1730  176.9920  138.2650 C   0  0  2  0  0  3  0  0  0  0  0  0
  188.4890  177.2020  140.7680 C   0  0  2  0  0  3  0  0  0  0  0  0
  189.5040  178.2520  137.4560 C   0  0  0  0  0  2  0  0  0  0  0  0
  188.0660  177.2430  139.3250 C   0  0  1  0  0  3  0  0  0  0  0  0
  187.3790  177.4760  141.7660 C   0  0  1  0  0  3  0  0  0  0  0  0
  191.9210  178.5620  143.9610 C   0  0  0  0  0  2  0  0  0  0  0  0
  189.7810  177.0850  141.1240 C   0  0  0  0  0  0  0  0  0  0  0  0
  189.6070  178.1160  144.8630 C   0  0  0  0  0  2  0  0  0  0  0  0
  189.2250  178.0730  143.3780 C   0  0  2  0  0  3  0  0  0  0  0  0
  187.3520  178.5900  139.1140 C   0  0  2  0  0  3  0  0  0  0  0  0
  187.8330  177.4860  143.2310 C   0  0  0  0  0  2  0  0  0  0  0  0
  186.1710  178.6770  139.9670 N   0  0  0  0  0  2  0  0  0  0  0  0
  186.9920  178.7820  137.6480 C   0  0  0  0  0  2  0  0  0  0  0  0
  190.7430  176.6680  140.1540 N   0  0  0  0  0  0  0  0  0  0  0  0
  190.3910  176.3950  138.8230 N   0  0  0  0  0  0  0  0  0  0  0  0
  190.2170  177.2320  142.5620 C   0  0  2  0  0  3  0  0  0  0  0  0
  186.6140  178.7530  141.3650 C   0  0  1  0  0  3  0  0  0  0  0  0
  188.2490  178.7990  136.7600 C   0  0  0  0  0  2  0  0  0  0  0  0
  191.1140  177.9740  145.1130 C   0  0  0  0  0  2  0  0  0  0  0  0
  191.6390  177.8180  142.6500 C   0  0  0  0  0  2  0  0  0  0  0  0
  193.3570  176.0220  136.6220 C   0  0  0  0  0  0  0  0  0  0  0  0
  193.1790  172.9800  134.9390 O   0  0  0  0  0  1  0  0  0  0  0  0
  194.6590  176.5000  136.5050 O   0  0  0  0  0  1  0  0  0  0  0  0
  191.6420  173.5280  136.6290 C   0  0  0  0  0  3  0  0  0  0  0  0
  191.3000  175.6350  137.9940 C   0  0  0  0  0  0  0  0  0  0  0  0
  192.7400  175.3770  135.4280 C   0  0  0  0  0  2  0  0  0  0  0  0
  190.8980  174.4360  137.5220 C   0  0  0  0  0  3  0  0  0  0  0  0
  192.6910  176.1430  137.7850 C   0  0  0  0  0  0  0  0  0  0  0  0
  193.3860  176.7900  138.9420 C   0  0  0  0  0  1  0  0  0  0  0  0
  192.5060  173.9280  135.6970 C   0  0  0  0  0  0  0  0  0  0  0  0
  185.4110  179.0100  142.2710 C   0  0  0  0  0  2  0  0  0  0  0  0
  184.3610  178.0340  142.0280 N   0  0  0  0  0  1  0  0  0  0  0  0
  1  3  1  1  0  0  0
  1 15  1  0  0  0  0
  1  4  1  0  0  0  0
  2  7  1  6  0  0  0
  2  5  1  0  0  0  0
  4  2  1  0  0  0  0
  5 11  1  0  0  0  0
  6 19  1  0  0  0  0
  7 16  1  0  0  0  0
  8 19  1  0  0  0  0
  9  8  1  0  0  0  0
 10  4  1  0  0  0  0
 10 12  1  0  0  0  0
 11  9  1  0  0  0  0
 12 17  1  0  0  0  0
 13 10  1  0  0  0  0
 14  7  2  0  0  0  0
 15 14  1  0  0  0  0
 16 20  1  0  0  0  0
 16  9  1  0  0  0  0
 17  5  1  0  0  0  0
 17 31  1  0  0  0  0
 18  3  1  0  0  0  0
 18 13  1  0  0  0  0
 20  6  1  0  0  0  0
 21 28  2  0  0  0  0
 22 30  1  0  0  0  0
 23 21  1  0  0  0  0
 24 27  1  0  0  0  0
 25 15  1  0  0  0  0
 26 30  1  0  0  0  0
 26 21  1  0  0  0  0
 27 25  2  0  0  0  0
 28 25  1  0  0  0  0
 28 29  1  0  0  0  0
 30 24  2  0  0  0  0
 32 31  1  0  0  0  0
M  END
>  <MODEL>
1

>  <REMARK>
 VINA RESULT:      -7.9      0.000      0.000
  Name = 
  2 active torsions:
  status: ('A' for Active; 'I' for Inactive)
    1  A    between atoms: C_13  and  C_29
    2  A    between atoms: C_16  and  N_27
                            x       y       z     vdW  Elec       q    Type
                         _______ _______ _______ _____ _____    ______ ____

>  <TORSDO>
F 2

$$$$
=
 OpenBabel10272413143D

 32 37  0  0  1  0  0  0  0  0999 V2000
  185.3620  178.1520  138.1840 C   0  0  2  0  0  3  0  0  0  0  0  0
  187.6710  178.1320  139.3850 C   0  0  2  0  0  3  0  0  0  0  0  0
  184.6130  176.8350  137.9490 C   0  0  0  0  0  2  0  0  0  0  0  0
  186.9030  177.9790  138.1010 C   0  0  1  0  0  3  0  0  0  0  0  0
  189.1710  177.9310  139.2590 C   0  0  1  0  0  3  0  0  0  0  0  0
  187.7580  177.0330  144.1390 C   0  0  0  0  0  2  0  0  0  0  0  0
  187.0500  178.2800  140.5690 C   0  0  0  0  0  0  0  0  0  0  0  0
  189.9640  177.5370  143.0240 C   0  0  0  0  0  2  0  0  0  0  0  0
  189.1320  177.4660  141.7370 C   0  0  2  0  0  3  0  0  0  0  0  0
  187.3050  176.6170  137.5070 C   0  0  2  0  0  3  0  0  0  0  0  0
  189.9370  178.0350  140.5840 C   0  0  0  0  0  2  0  0  0  0  0  0
  188.7360  176.5920  137.2200 N   0  0  0  0  0  2  0  0  0  0  0  0
  186.4850  176.3120  136.2620 C   0  0  0  0  0  2  0  0  0  0  0  0
  185.6640  178.6260  140.5980 N   0  0  0  0  0  0  0  0  0  0  0  0
  184.9130  178.7950  139.4240 N   0  0  0  0  0  0  0  0  0  0  0  0
  187.8160  178.2450  141.8700 C   0  0  2  0  0  3  0  0  0  0  0  0
  189.4650  176.6240  138.4950 C   0  0  1  0  0  3  0  0  0  0  0  0
  184.9830  176.2330  136.5860 C   0  0  0  0  0  2  0  0  0  0  0  0
  189.1180  177.7040  144.2930 C   0  0  0  0  0  2  0  0  0  0  0  0
  186.9480  177.6730  143.0060 C   0  0  0  0  0  2  0  0  0  0  0  0
  181.2750  179.0170  140.1260 C   0  0  0  0  0  0  0  0  0  0  0  0
  179.9820  181.8950  138.6550 O   0  0  0  0  0  1  0  0  0  0  0  0
  180.3400  178.5510  141.0450 O   0  0  0  0  0  1  0  0  0  0  0  0
  182.2930  181.4760  138.6830 C   0  0  0  0  0  3  0  0  0  0  0  0
  183.6480  179.4920  139.4900 C   0  0  0  0  0  0  0  0  0  0  0  0
  180.7710  179.5440  138.8260 C   0  0  0  0  0  2  0  0  0  0  0  0
  183.5030  180.6390  138.7920 C   0  0  0  0  0  3  0  0  0  0  0  0
  182.5870  178.9890  140.4170 C   0  0  0  0  0  0  0  0  0  0  0  0
  183.0120  178.4580  141.7500 C   0  0  0  0  0  1  0  0  0  0  0  0
  181.0460  181.0080  138.7290 C   0  0  0  0  0  0  0  0  0  0  0  0
  190.9580  176.4330  138.2370 C   0  0  0  0  0  2  0  0  0  0  0  0
  191.3000  175.0200  138.1950 N   0  0  0  0  0  1  0  0  0  0  0  0
  1  3  1  1  0  0  0
  1 15  1  0  0  0  0
  2  7  1  1  0  0  0
  4  1  1  0  0  0  0
  4  2  1  0  0  0  0
  5  2  1  0  0  0  0
  5 11  1  0  0  0  0
  6 19  1  0  0  0  0
  7 14  2  0  0  0  0
  7 16  1  0  0  0  0
  8 19  1  0  0  0  0
  9 16  1  0  0  0  0
  9  8  1  0  0  0  0
 10  4  1  0  0  0  0
 11  9  1  0  0  0  0
 12 10  1  0  0  0  0
 12 17  1  0  0  0  0
 13 18  1  0  0  0  0
 13 10  1  0  0  0  0
 15 25  1  0  0  0  0
 15 14  1  0  0  0  0
 16 20  1  0  0  0  0
 17  5  1  0  0  0  0
 18  3  1  0  0  0  0
 20  6  1  0  0  0  0
 21 28  2  0  0  0  0
 21 23  1  0  0  0  0
 22 30  1  0  0  0  0
 24 30  2  0  0  0  0
 24 27  1  0  0  0  0
 25 28  1  0  0  0  0
 26 21  1  0  0  0  0
 27 25  2  0  0  0  0
 28 29  1  0  0  0  0
 30 26  1  0  0  0  0
 31 17  1  0  0  0  0
 32 31  1  0  0  0  0
M  END
>  <MODEL>
2

>  <REMARK>
 VINA RESULT:      -7.8      4.689      7.888
  Name = 
  2 active torsions:
  status: ('A' for Active; 'I' for Inactive)
    1  A    between atoms: C_13  and  C_29
    2  A    between atoms: C_16  and  N_27
                            x       y       z     vdW  Elec       q    Type
                         _______ _______ _______ _____ _____    ______ ____

>  <TORSDO>
F 2

$$$$
=
 OpenBabel10272413143D

 32 37  0  0  1  0  0  0  0  0999 V2000
  189.3280  177.6490  142.7350 C   0  0  2  0  0  3  0  0  0  0  0  0
  189.6460  176.8820  140.2680 C   0  0  2  0  0  3  0  0  0  0  0  0
  189.8630  179.0130  143.1850 C   0  0  0  0  0  2  0  0  0  0  0  0
  190.2250  176.9890  141.6520 C   0  0  1  0  0  3  0  0  0  0  0  0
  190.5670  176.2530  139.2380 C   0  0  1  0  0  3  0  0  0  0  0  0
  187.1070  179.2140  136.8120 C   0  0  0  0  0  2  0  0  0  0  0  0
  188.4670  177.4450  139.9470 C   0  0  0  0  0  0  0  0  0  0  0  0
  188.6390  177.3510  136.0700 C   0  0  0  0  0  2  0  0  0  0  0  0
  189.1420  177.4230  137.5170 C   0  0  2  0  0  3  0  0  0  0  0  0
  191.5820  177.7000  141.5080 C   0  0  2  0  0  3  0  0  0  0  0  0
  189.9880  176.1990  137.8190 C   0  0  0  0  0  2  0  0  0  0  0  0
  192.4800  176.9130  140.6680 N   0  0  0  0  0  2  0  0  0  0  0  0
  192.1950  177.9680  142.8750 C   0  0  0  0  0  2  0  0  0  0  0  0
  187.5850  177.8700  140.9870 N   0  0  0  0  0  0  0  0  0  0  0  0
  187.9170  177.7440  142.3460 N   0  0  0  0  0  0  0  0  0  0  0  0
  187.9810  177.4960  138.5190 C   0  0  2  0  0  3  0  0  0  0  0  0
  191.9560  176.9210  139.2960 C   0  0  1  0  0  3  0  0  0  0  0  0
  191.2960  178.8870  143.7210 C   0  0  0  0  0  2  0  0  0  0  0  0
  187.2830  178.0380  135.8580 C   0  0  0  0  0  2  0  0  0  0  0  0
  187.1190  178.7480  138.2730 C   0  0  0  0  0  2  0  0  0  0  0  0
  184.7850  179.1580  143.7500 C   0  0  0  0  0  0  0  0  0  0  0  0
  184.4870  178.2280  147.0910 O   0  0  0  0  0  1  0  0  0  0  0  0
  183.5440  179.6210  143.3240 O   0  0  0  0  0  1  0  0  0  0  0  0
  186.1890  177.3500  145.7310 C   0  0  0  0  0  3  0  0  0  0  0  0
  186.8700  177.8360  143.3390 C   0  0  0  0  0  0  0  0  0  0  0  0
  185.2390  179.5380  145.1180 C   0  0  0  0  0  2  0  0  0  0  0  0
  187.0950  177.3210  144.5670 C   0  0  0  0  0  3  0  0  0  0  0  0
  185.5370  178.3890  142.9430 C   0  0  0  0  0  0  0  0  0  0  0  0
  185.0050  178.0380  141.5890 C   0  0  0  0  0  1  0  0  0  0  0  0
  185.3180  178.3260  145.9840 C   0  0  0  0  0  0  0  0  0  0  0  0
  192.9570  176.2460  138.3610 C   0  0  0  0  0  2  0  0  0  0  0  0
  194.2450  176.0770  139.0140 N   0  0  0  0  0  1  0  0  0  0  0  0
  1  3  1  6  0  0  0
  2  7  1  6  0  0  0
  2  4  1  0  0  0  0
  3 18  1  0  0  0  0
  4  1  1  0  0  0  0
  5 17  1  0  0  0  0
  5  2  1  0  0  0  0
  6 20  1  0  0  0  0
  7 14  2  0  0  0  0
  8  9  1  0  0  0  0
  9 11  1  0  0  0  0
  9 16  1  0  0  0  0
 10  4  1  0  0  0  0
 10 13  1  0  0  0  0
 11  5  1  0  0  0  0
 12 10  1  0  0  0  0
 13 18  1  0  0  0  0
 14 15  1  0  0  0  0
 15  1  1  0  0  0  0
 15 25  1  0  0  0  0
 16  7  1  0  0  0  0
 17 12  1  0  0  0  0
 19  8  1  0  0  0  0
 19  6  1  0  0  0  0
 20 16  1  0  0  0  0
 21 26  1  0  0  0  0
 23 21  1  0  0  0  0
 24 30  2  0  0  0  0
 25 27  2  0  0  0  0
 26 30  1  0  0  0  0
 27 24  1  0  0  0  0
 28 25  1  0  0  0  0
 28 21  2  0  0  0  0
 29 28  1  0  0  0  0
 30 22  1  0  0  0  0
 31 32  1  0  0  0  0
 31 17  1  0  0  0  0
M  END
>  <MODEL>
3

>  <REMARK>
 VINA RESULT:      -7.5      3.910      8.360
  Name = 
  2 active torsions:
  status: ('A' for Active; 'I' for Inactive)
    1  A    between atoms: C_13  and  C_29
    2  A    between atoms: C_16  and  N_27
                            x       y       z     vdW  Elec       q    Type
                         _______ _______ _______ _____ _____    ______ ____

>  <TORSDO>
F 2

$$$$
=
 OpenBabel10272413143D

 32 37  0  0  1  0  0  0  0  0999 V2000
  191.0820  176.7660  143.4590 C   0  0  2  0  0  3  0  0  0  0  0  0
  189.1520  177.9120  144.7770 C   0  0  2  0  0  3  0  0  0  0  0  0
  191.1570  175.2360  143.3900 C   0  0  0  0  0  2  0  0  0  0  0  0
  190.5120  177.2710  144.8130 C   0  0  1  0  0  3  0  0  0  0  0  0
  188.6260  178.3680  146.1260 C   0  0  1  0  0  3  0  0  0  0  0  0
  184.6400  177.5990  142.9400 C   0  0  0  0  0  2  0  0  0  0  0  0
  188.4060  177.9300  143.6570 C   0  0  0  0  0  0  0  0  0  0  0  0
  184.9270  178.8600  145.1060 C   0  0  0  0  0  2  0  0  0  0  0  0
  186.3400  178.2640  145.0650 C   0  0  2  0  0  3  0  0  0  0  0  0
  190.4460  176.1540  145.8690 C   0  0  2  0  0  3  0  0  0  0  0  0
  187.2150  178.9690  146.0850 C   0  0  0  0  0  2  0  0  0  0  0  0
  190.1410  176.7160  147.1810 N   0  0  0  0  0  2  0  0  0  0  0  0
  191.7440  175.3620  145.8930 C   0  0  0  0  0  2  0  0  0  0  0  0
  189.0190  177.6390  142.3990 N   0  0  0  0  0  0  0  0  0  0  0  0
  190.3780  177.3070  142.2910 N   0  0  0  0  0  0  0  0  0  0  0  0
  186.9730  178.4040  143.6730 C   0  0  2  0  0  3  0  0  0  0  0  0
  188.7650  177.2300  147.1570 C   0  0  1  0  0  3  0  0  0  0  0  0
  192.0100  174.6800  144.5400 C   0  0  0  0  0  2  0  0  0  0  0  0
  184.2000  178.8080  143.7560 C   0  0  0  0  0  2  0  0  0  0  0  0
  186.1360  177.6670  142.6110 C   0  0  0  0  0  2  0  0  0  0  0  0
  190.4570  176.9960  138.5930 C   0  0  0  0  0  0  0  0  0  0  0  0
  193.7610  177.0010  137.4970 O   0  0  0  0  0  1  0  0  0  0  0  0
  189.6410  177.2290  137.4900 O   0  0  0  0  0  1  0  0  0  0  0  0
  193.2230  177.4300  139.7430 C   0  0  0  0  0  3  0  0  0  0  0  0
  191.0230  177.3880  140.9990 C   0  0  0  0  0  0  0  0  0  0  0  0
  191.6340  176.0990  138.4120 C   0  0  0  0  0  2  0  0  0  0  0  0
  192.3720  177.4010  140.9470 C   0  0  0  0  0  3  0  0  0  0  0  0
  190.1810  177.5730  139.7760 C   0  0  0  0  0  0  0  0  0  0  0  0
  188.9890  178.4720  139.8720 C   0  0  0  0  0  1  0  0  0  0  0  0
  192.8970  176.8770  138.5760 C   0  0  0  0  0  0  0  0  0  0  0  0
  188.3590  177.6750  148.5610 C   0  0  0  0  0  2  0  0  0  0  0  0
  189.4070  178.4760  149.1750 N   0  0  0  0  0  1  0  0  0  0  0  0
  1  3  1  1  0  0  0
  1  4  1  0  0  0  0
  2  7  1  1  0  0  0
  2  4  1  0  0  0  0
  2  5  1  0  0  0  0
  3 18  1  0  0  0  0
  4 10  1  0  0  0  0
  5 17  1  0  0  0  0
  6 19  1  0  0  0  0
  7 16  1  0  0  0  0
  9  8  1  0  0  0  0
  9 11  1  0  0  0  0
 10 13  1  0  0  0  0
 10 12  1  0  0  0  0
 11  5  1  0  0  0  0
 14  7  2  0  0  0  0
 15 14  1  0  0  0  0
 15  1  1  0  0  0  0
 16  9  1  0  0  0  0
 17 12  1  0  0  0  0
 17 31  1  0  0  0  0
 18 13  1  0  0  0  0
 19  8  1  0  0  0  0
 20  6  1  0  0  0  0
 20 16  1  0  0  0  0
 21 28  2  0  0  0  0
 22 30  1  0  0  0  0
 23 21  1  0  0  0  0
 24 27  1  0  0  0  0
 25 15  1  0  0  0  0
 26 30  1  0  0  0  0
 26 21  1  0  0  0  0
 27 25  2  0  0  0  0
 28 29  1  0  0  0  0
 28 25  1  0  0  0  0
 30 24  2  0  0  0  0
 31 32  1  0  0  0  0
M  END
>  <MODEL>
4

>  <REMARK>
 VINA RESULT:      -7.3      2.929      5.752
  Name = 
  2 active torsions:
  status: ('A' for Active; 'I' for Inactive)
    1  A    between atoms: C_13  and  C_29
    2  A    between atoms: C_16  and  N_27
                            x       y       z     vdW  Elec       q    Type
                         _______ _______ _______ _____ _____    ______ ____

>  <TORSDO>
F 2

$$$$
=
 OpenBabel10272413143D

 32 37  0  0  1  0  0  0  0  0999 V2000
  188.7650  177.6370  141.3700 C   0  0  2  0  0  3  0  0  0  0  0  0
  186.3790  178.6080  140.9990 C   0  0  2  0  0  3  0  0  0  0  0  0
  188.9340  176.2330  141.9630 C   0  0  0  0  0  2  0  0  0  0  0  0
  187.5260  178.3770  141.9440 C   0  0  1  0  0  3  0  0  0  0  0  0
  185.1810  179.3130  141.6110 C   0  0  1  0  0  3  0  0  0  0  0  0
  183.6220  176.6080  137.5030 C   0  0  0  0  0  2  0  0  0  0  0  0
  186.3660  178.0870  139.7590 C   0  0  0  0  0  0  0  0  0  0  0  0
  182.6220  178.5110  138.8240 C   0  0  0  0  0  2  0  0  0  0  0  0
  183.8540  178.3100  139.7160 C   0  0  2  0  0  3  0  0  0  0  0  0
  186.9440  177.6660  143.1780 C   0  0  2  0  0  3  0  0  0  0  0  0
  183.9960  179.4940  140.6540 C   0  0  0  0  0  2  0  0  0  0  0  0
  185.9470  178.5130  143.8270 N   0  0  0  0  0  2  0  0  0  0  0  0
  188.0530  177.2760  144.1450 C   0  0  0  0  0  2  0  0  0  0  0  0
  187.5780  177.5840  139.1950 N   0  0  0  0  0  0  0  0  0  0  0  0
  188.7900  177.5900  139.9030 N   0  0  0  0  0  0  0  0  0  0  0  0
  185.1370  178.1640  138.8860 C   0  0  2  0  0  3  0  0  0  0  0  0
  184.7860  178.6280  142.9350 C   0  0  1  0  0  3  0  0  0  0  0  0
  189.0450  176.2980  143.4930 C   0  0  0  0  0  2  0  0  0  0  0  0
  182.7530  177.8590  137.4410 C   0  0  0  0  0  2  0  0  0  0  0  0
  185.0500  176.9460  137.9470 C   0  0  0  0  0  2  0  0  0  0  0  0
  190.7990  176.6630  136.9230 C   0  0  0  0  0  0  0  0  0  0  0  0
  194.1430  176.3340  137.8340 O   0  0  0  0  0  1  0  0  0  0  0  0
  190.7410  176.7460  135.5360 O   0  0  0  0  0  1  0  0  0  0  0  0
  192.5450  177.1560  139.3470 C   0  0  0  0  0  3  0  0  0  0  0  0
  190.0310  177.4250  139.1800 C   0  0  0  0  0  0  0  0  0  0  0  0
  191.7610  175.6960  137.5240 C   0  0  0  0  0  2  0  0  0  0  0  0
  191.1850  177.3660  139.8780 C   0  0  0  0  0  3  0  0  0  0  0  0
  190.0090  177.4410  137.6850 C   0  0  0  0  0  0  0  0  0  0  0  0
  189.0800  178.3980  137.0050 C   0  0  0  0  0  1  0  0  0  0  0  0
  192.8270  176.4310  138.2650 C   0  0  0  0  0  0  0  0  0  0  0  0
  183.6600  179.3700  143.6520 C   0  0  0  0  0  2  0  0  0  0  0  0
  183.7240  179.1480  145.0870 N   0  0  0  0  0  1  0  0  0  0  0  0
  1  4  1  0  0  0  0
  1  3  1  1  0  0  0
  2  7  1  1  0  0  0
  2  5  1  0  0  0  0
  2  4  1  0  0  0  0
  3 18  1  0  0  0  0
  4 10  1  0  0  0  0
  5 17  1  0  0  0  0
  6 20  1  0  0  0  0
  8  9  1  0  0  0  0
  9 11  1  0  0  0  0
 10 12  1  0  0  0  0
 10 13  1  0  0  0  0
 11  5  1  0  0  0  0
 14  7  2  0  0  0  0
 14 15  1  0  0  0  0
 15  1  1  0  0  0  0
 16  9  1  0  0  0  0
 16  7  1  0  0  0  0
 17 31  1  0  0  0  0
 17 12  1  0  0  0  0
 18 13  1  0  0  0  0
 19  6  1  0  0  0  0
 19  8  1  0  0  0  0
 20 16  1  0  0  0  0
 21 26  1  0  0  0  0
 21 28  2  0  0  0  0
 22 30  1  0  0  0  0
 23 21  1  0  0  0  0
 24 27  1  0  0  0  0
 25 27  2  0  0  0  0
 25 15  1  0  0  0  0
 26 30  1  0  0  0  0
 28 25  1  0  0  0  0
 29 28  1  0  0  0  0
 30 24  2  0  0  0  0
 31 32  1  0  0  0  0
M  END
>  <MODEL>
5

>  <REMARK>
 VINA RESULT:      -7.3      2.188      5.252
  Name = 
  2 active torsions:
  status: ('A' for Active; 'I' for Inactive)
    1  A    between atoms: C_13  and  C_29
    2  A    between atoms: C_16  and  N_27
                            x       y       z     vdW  Elec       q    Type
                         _______ _______ _______ _____ _____    ______ ____

>  <TORSDO>
F 2

$$$$
=
 OpenBabel10272413143D

 32 37  0  0  1  0  0  0  0  0999 V2000
  189.3960  177.5160  139.1520 C   0  0  2  0  0  3  0  0  0  0  0  0
  187.0200  177.5430  138.0890 C   0  0  2  0  0  3  0  0  0  0  0  0
  189.6170  176.8390  140.5100 C   0  0  0  0  0  2  0  0  0  0  0  0
  187.9950  178.1780  139.0410 C   0  0  1  0  0  3  0  0  0  0  0  0
  185.6580  178.2100  138.0320 C   0  0  1  0  0  3  0  0  0  0  0  0
  185.1980  173.3130  136.4730 C   0  0  0  0  0  2  0  0  0  0  0  0
  187.2940  176.3850  137.4610 C   0  0  0  0  0  0  0  0  0  0  0  0
  183.7590  175.3700  136.2180 C   0  0  0  0  0  2  0  0  0  0  0  0
  184.8230  176.0140  137.1170 C   0  0  2  0  0  3  0  0  0  0  0  0
  187.2860  178.2690  140.4040 C   0  0  2  0  0  3  0  0  0  0  0  0
  184.6530  177.5220  137.0990 C   0  0  0  0  0  2  0  0  0  0  0  0
  186.0960  179.1080  140.3000 N   0  0  0  0  0  2  0  0  0  0  0  0
  188.2380  178.7880  141.4710 C   0  0  0  0  0  2  0  0  0  0  0  0
  188.6390  175.9040  137.4280 N   0  0  0  0  0  0  0  0  0  0  0  0
  189.6920  176.5900  138.0530 N   0  0  0  0  0  0  0  0  0  0  0  0
  186.2440  175.6580  136.6560 C   0  0  2  0  0  3  0  0  0  0  0  0
  185.1110  178.4130  139.4600 C   0  0  1  0  0  3  0  0  0  0  0  0
  189.4390  177.8450  141.6560 C   0  0  0  0  0  2  0  0  0  0  0  0
  184.2150  174.0540  135.5740 C   0  0  0  0  0  2  0  0  0  0  0  0
  186.4720  174.1360  136.6980 C   0  0  0  0  0  2  0  0  0  0  0  0
  192.2680  174.8520  136.0220 C   0  0  0  0  0  0  0  0  0  0  0  0
  195.3540  175.0840  137.6160 O   0  0  0  0  0  1  0  0  0  0  0  0
  192.4950  174.4560  134.7080 O   0  0  0  0  0  1  0  0  0  0  0  0
  193.4820  176.2550  138.4140 C   0  0  0  0  0  3  0  0  0  0  0  0
  191.0550  176.2770  137.6840 C   0  0  0  0  0  0  0  0  0  0  0  0
  193.0850  174.2140  137.0930 C   0  0  0  0  0  2  0  0  0  0  0  0
  192.0420  176.5380  138.5680 C   0  0  0  0  0  3  0  0  0  0  0  0
  191.3400  175.7850  136.3010 C   0  0  0  0  0  0  0  0  0  0  0  0
  190.5710  176.3880  135.1670 C   0  0  0  0  0  1  0  0  0  0  0  0
  193.9790  175.2290  137.7250 C   0  0  0  0  0  0  0  0  0  0  0  0
  183.7940  179.1880  139.4660 C   0  0  0  0  0  2  0  0  0  0  0  0
  183.9570  180.4930  138.8460 N   0  0  0  0  0  1  0  0  0  0  0  0
  1  3  1  1  0  0  0
  2  7  1  1  0  0  0
  2  4  1  0  0  0  0
  3 18  1  0  0  0  0
  4  1  1  0  0  0  0
  4 10  1  0  0  0  0
  5  2  1  0  0  0  0
  5 17  1  0  0  0  0
  6 20  1  0  0  0  0
  8  9  1  0  0  0  0
 10 13  1  0  0  0  0
 11  9  1  0  0  0  0
 11  5  1  0  0  0  0
 12 10  1  0  0  0  0
 13 18  1  0  0  0  0
 14  7  2  0  0  0  0
 14 15  1  0  0  0  0
 15  1  1  0  0  0  0
 16 20  1  0  0  0  0
 16  9  1  0  0  0  0
 16  7  1  0  0  0  0
 17 31  1  0  0  0  0
 17 12  1  0  0  0  0
 19  8  1  0  0  0  0
 19  6  1  0  0  0  0
 21 28  2  0  0  0  0
 21 26  1  0  0  0  0
 22 30  1  0  0  0  0
 23 21  1  0  0  0  0
 24 27  1  0  0  0  0
 25 15  1  0  0  0  0
 25 27  2  0  0  0  0
 26 30  1  0  0  0  0
 28 25  1  0  0  0  0
 29 28  1  0  0  0  0
 30 24  2  0  0  0  0
 32 31  1  0  0  0  0
M  END
>  <MODEL>
6

>  <REMARK>
 VINA RESULT:      -6.9      2.562      5.248
  Name = 
  2 active torsions:
  status: ('A' for Active; 'I' for Inactive)
    1  A    between atoms: C_13  and  C_29
    2  A    between atoms: C_16  and  N_27
                            x       y       z     vdW  Elec       q    Type
                         _______ _______ _______ _____ _____    ______ ____

>  <TORSDO>
F 2

$$$$
=
 OpenBabel10272413143D

 32 37  0  0  1  0  0  0  0  0999 V2000
  184.8770  178.2300  143.3420 C   0  0  2  0  0  3  0  0  0  0  0  0
  186.9890  177.4790  144.6650 C   0  0  2  0  0  3  0  0  0  0  0  0
  184.3990  179.6840  143.4300 C   0  0  0  0  0  2  0  0  0  0  0  0
  185.5070  177.7330  144.6720 C   0  0  1  0  0  3  0  0  0  0  0  0
  187.5640  177.0180  145.9920 C   0  0  1  0  0  3  0  0  0  0  0  0
  191.3220  179.1780  143.1940 C   0  0  0  0  0  2  0  0  0  0  0  0
  187.7570  177.7910  143.6050 C   0  0  0  0  0  0  0  0  0  0  0  0
  191.2970  177.6350  145.1900 C   0  0  0  0  0  2  0  0  0  0  0  0
  189.7790  177.8410  145.1120 C   0  0  2  0  0  3  0  0  0  0  0  0
  185.2300  178.6930  145.8420 C   0  0  2  0  0  3  0  0  0  0  0  0
  189.0840  176.8150  145.9880 C   0  0  0  0  0  2  0  0  0  0  0  0
  185.6210  178.0770  147.1070 N   0  0  0  0  0  2  0  0  0  0  0  0
  183.7660  179.1100  145.8590 C   0  0  0  0  0  2  0  0  0  0  0  0
  187.1400  178.0610  142.3450 N   0  0  0  0  0  0  0  0  0  0  0  0
  185.7460  178.0360  142.1760 N   0  0  0  0  0  0  0  0  0  0  0  0
  189.2630  177.7090  143.6720 C   0  0  2  0  0  3  0  0  0  0  0  0
  187.0830  177.9470  147.1260 C   0  0  1  0  0  3  0  0  0  0  0  0
  183.3830  179.8560  144.5690 C   0  0  0  0  0  2  0  0  0  0  0  0
  192.0370  178.0360  143.9080 C   0  0  0  0  0  2  0  0  0  0  0  0
  189.9140  178.7610  142.7550 C   0  0  0  0  0  2  0  0  0  0  0  0
  185.6370  178.8930  138.5660 C   0  0  0  0  0  0  0  0  0  0  0  0
  182.5740  177.9150  137.2330 O   0  0  0  0  0  1  0  0  0  0  0  0
  186.5050  179.1390  137.5070 O   0  0  0  0  0  1  0  0  0  0  0  0
  183.1830  177.3440  139.4280 C   0  0  0  0  0  3  0  0  0  0  0  0
  185.1990  177.9460  140.8410 C   0  0  0  0  0  0  0  0  0  0  0  0
  184.2220  179.3410  138.4280 C   0  0  0  0  0  2  0  0  0  0  0  0
  183.9440  177.4730  140.6860 C   0  0  0  0  0  3  0  0  0  0  0  0
  186.0760  178.2650  139.6720 C   0  0  0  0  0  0  0  0  0  0  0  0
  187.5070  177.8340  139.7280 C   0  0  0  0  0  1  0  0  0  0  0  0
  183.3150  178.1570  138.3810 C   0  0  0  0  0  0  0  0  0  0  0  0
  187.5370  177.4580  148.5000 C   0  0  0  0  0  2  0  0  0  0  0  0
  188.6390  178.2660  149.0000 N   0  0  0  0  0  1  0  0  0  0  0  0
  1  3  1  1  0  0  0
  1  4  1  0  0  0  0
  2  7  1  1  0  0  0
  2  4  1  0  0  0  0
  2  5  1  0  0  0  0
  3 18  1  0  0  0  0
  4 10  1  0  0  0  0
  5 17  1  0  0  0  0
  6 19  1  0  0  0  0
  7 16  1  0  0  0  0
  9  8  1  0  0  0  0
  9 11  1  0  0  0  0
 10 13  1  0  0  0  0
 10 12  1  0  0  0  0
 11  5  1  0  0  0  0
 12 17  1  0  0  0  0
 14  7  2  0  0  0  0
 15 14  1  0  0  0  0
 15  1  1  0  0  0  0
 16  9  1  0  0  0  0
 17 31  1  0  0  0  0
 18 13  1  0  0  0  0
 19  8  1  0  0  0  0
 20  6  1  0  0  0  0
 20 16  1  0  0  0  0
 21 28  2  0  0  0  0
 22 30  1  0  0  0  0
 23 21  1  0  0  0  0
 24 27  1  0  0  0  0
 25 15  1  0  0  0  0
 26 21  1  0  0  0  0
 27 25  2  0  0  0  0
 28 29  1  0  0  0  0
 28 25  1  0  0  0  0
 30 26  1  0  0  0  0
 30 24  2  0  0  0  0
 31 32  1  0  0  0  0
M  END
>  <MODEL>
7

>  <REMARK>
 VINA RESULT:      -6.5      4.258      6.800
  Name = 
  2 active torsions:
  status: ('A' for Active; 'I' for Inactive)
    1  A    between atoms: C_13  and  C_29
    2  A    between atoms: C_16  and  N_27
                            x       y       z     vdW  Elec       q    Type
                         _______ _______ _______ _____ _____    ______ ____

>  <TORSDO>
F 2

$$$$
=
 OpenBabel10272413143D

 32 37  0  0  1  0  0  0  0  0999 V2000
  185.5070  177.5640  137.5100 C   0  0  2  0  0  3  0  0  0  0  0  0
  188.1050  177.6770  137.6230 C   0  0  2  0  0  3  0  0  0  0  0  0
  184.7980  176.2080  137.6060 C   0  0  0  0  0  2  0  0  0  0  0  0
  186.8760  177.4650  136.7830 C   0  0  1  0  0  3  0  0  0  0  0  0
  189.4200  177.5480  136.8750 C   0  0  1  0  0  3  0  0  0  0  0  0
  190.2480  176.6590  141.8890 C   0  0  0  0  0  2  0  0  0  0  0  0
  188.0360  177.8130  138.9600 C   0  0  0  0  0  0  0  0  0  0  0  0
  191.7470  177.2540  139.9490 C   0  0  0  0  0  2  0  0  0  0  0  0
  190.4550  177.1220  139.1340 C   0  0  2  0  0  3  0  0  0  0  0  0
  187.0590  176.1160  136.0670 C   0  0  2  0  0  3  0  0  0  0  0  0
  190.6670  177.7110  137.7520 C   0  0  0  0  0  2  0  0  0  0  0  0
  188.2340  176.1570  135.2020 N   0  0  0  0  0  2  0  0  0  0  0  0
  185.8070  175.7510  135.2820 C   0  0  0  0  0  2  0  0  0  0  0  0
  186.7760  178.0910  139.5740 N   0  0  0  0  0  0  0  0  0  0  0  0
  185.5910  178.2030  138.8280 N   0  0  0  0  0  0  0  0  0  0  0  0
  189.2800  177.8370  139.8150 C   0  0  2  0  0  3  0  0  0  0  0  0
  189.4300  176.2450  136.0500 C   0  0  1  0  0  3  0  0  0  0  0  0
  184.5890  175.6030  136.2110 C   0  0  0  0  0  2  0  0  0  0  0  0
  191.5090  177.4000  141.4580 C   0  0  0  0  0  2  0  0  0  0  0  0
  189.0030  177.2410  141.2080 C   0  0  0  0  0  2  0  0  0  0  0  0
  183.0940  178.6830  141.5320 C   0  0  0  0  0  0  0  0  0  0  0  0
  180.4130  180.5440  140.3190 O   0  0  0  0  0  1  0  0  0  0  0  0
  183.0200  178.6840  142.9220 O   0  0  0  0  0  1  0  0  0  0  0  0
  182.3460  180.2110  139.0280 C   0  0  0  0  0  3  0  0  0  0  0  0
  184.4390  178.8390  139.4270 C   0  0  0  0  0  0  0  0  0  0  0  0
  181.8220  178.5460  140.7660 C   0  0  0  0  0  2  0  0  0  0  0  0
  183.5950  179.5320  138.6330 C   0  0  0  0  0  3  0  0  0  0  0  0
  184.2820  178.8080  140.9150 C   0  0  0  0  0  0  0  0  0  0  0  0
  185.5120  178.9570  141.7550 C   0  0  0  0  0  1  0  0  0  0  0  0
  181.5440  179.8030  140.0110 C   0  0  0  0  0  0  0  0  0  0  0  0
  190.6830  176.1240  135.1840 C   0  0  0  0  0  2  0  0  0  0  0  0
  191.6820  175.2890  135.8320 N   0  0  0  0  0  1  0  0  0  0  0  0
  1  3  1  1  0  0  0
  1 15  1  0  0  0  0
  2  7  1  1  0  0  0
  4  1  1  0  0  0  0
  4  2  1  0  0  0  0
  5  2  1  0  0  0  0
  5 11  1  0  0  0  0
  7 14  2  0  0  0  0
  7 16  1  0  0  0  0
  8 19  1  0  0  0  0
  9 16  1  0  0  0  0
  9  8  1  0  0  0  0
 10  4  1  0  0  0  0
 11  9  1  0  0  0  0
 12 17  1  0  0  0  0
 12 10  1  0  0  0  0
 13 10  1  0  0  0  0
 13 18  1  0  0  0  0
 15 25  1  0  0  0  0
 15 14  1  0  0  0  0
 16 20  1  0  0  0  0
 17  5  1  0  0  0  0
 18  3  1  0  0  0  0
 19  6  1  0  0  0  0
 20  6  1  0  0  0  0
 21 23  1  0  0  0  0
 24 30  2  0  0  0  0
 25 28  1  0  0  0  0
 26 21  1  0  0  0  0
 27 24  1  0  0  0  0
 27 25  2  0  0  0  0
 28 21  2  0  0  0  0
 28 29  1  0  0  0  0
 30 22  1  0  0  0  0
 30 26  1  0  0  0  0
 31 32  1  0  0  0  0
 31 17  1  0  0  0  0
M  END
>  <MODEL>
8

>  <REMARK>
 VINA RESULT:      -6.4      4.414      7.755
  Name = 
  2 active torsions:
  status: ('A' for Active; 'I' for Inactive)
    1  A    between atoms: C_13  and  C_29
    2  A    between atoms: C_16  and  N_27
                            x       y       z     vdW  Elec       q    Type
                         _______ _______ _______ _____ _____    ______ ____

>  <TORSDO>
F 2

$$$$
=
 OpenBabel10272413143D

 32 37  0  0  1  0  0  0  0  0999 V2000
  190.3690  176.8490  137.5590 C   0  0  2  0  0  3  0  0  0  0  0  0
  187.9140  176.9690  136.7010 C   0  0  2  0  0  3  0  0  0  0  0  0
  190.6820  176.1300  138.8760 C   0  0  0  0  0  2  0  0  0  0  0  0
  188.9830  177.5510  137.5830 C   0  0  1  0  0  3  0  0  0  0  0  0
  186.5710  177.6740  136.7760 C   0  0  1  0  0  3  0  0  0  0  0  0
  185.8400  172.8340  135.1420 C   0  0  0  0  0  2  0  0  0  0  0  0
  188.1000  175.8210  136.0250 C   0  0  0  0  0  0  0  0  0  0  0  0
  184.4450  174.9360  135.0600 C   0  0  0  0  0  2  0  0  0  0  0  0
  185.5990  175.5260  135.8810 C   0  0  2  0  0  3  0  0  0  0  0  0
  188.3930  177.6250  139.0020 C   0  0  2  0  0  3  0  0  0  0  0  0
  185.4730  177.0380  135.9150 C   0  0  0  0  0  2  0  0  0  0  0  0
  187.2230  178.4980  139.0200 N   0  0  0  0  0  2  0  0  0  0  0  0
  189.4460  178.0890  139.9980 C   0  0  0  0  0  2  0  0  0  0  0  0
  189.4230  175.3050  135.8660 N   0  0  0  0  0  0  0  0  0  0  0  0
  190.5440  175.9450  136.4160 N   0  0  0  0  0  0  0  0  0  0  0  0
  186.9650  175.1450  135.2930 C   0  0  2  0  0  3  0  0  0  0  0  0
  186.1520  177.8530  138.2490 C   0  0  1  0  0  3  0  0  0  0  0  0
  190.6310  177.1090  140.0570 C   0  0  0  0  0  2  0  0  0  0  0  0
  184.8070  173.6260  134.3480 C   0  0  0  0  0  2  0  0  0  0  0  0
  187.1520  173.6160  135.2780 C   0  0  0  0  0  2  0  0  0  0  0  0
  193.8220  174.2160  136.6280 C   0  0  0  0  0  0  0  0  0  0  0  0
  196.0360  175.6420  134.3510 O   0  0  0  0  0  1  0  0  0  0  0  0
  194.3550  172.9970  137.0360 O   0  0  0  0  0  1  0  0  0  0  0  0
  193.7690  176.2520  134.3880 C   0  0  0  0  0  3  0  0  0  0  0  0
  191.8620  175.6050  135.9260 C   0  0  0  0  0  0  0  0  0  0  0  0
  194.7560  175.3660  136.4630 C   0  0  0  0  0  2  0  0  0  0  0  0
  192.4260  176.3900  134.9850 C   0  0  0  0  0  3  0  0  0  0  0  0
  192.5040  174.3350  136.3890 C   0  0  0  0  0  0  0  0  0  0  0  0
  191.6350  173.1300  136.5620 C   0  0  0  0  0  1  0  0  0  0  0  0
  194.8300  175.7610  135.0270 C   0  0  0  0  0  0  0  0  0  0  0  0
  184.8630  178.6620  138.3850 C   0  0  0  0  0  2  0  0  0  0  0  0
  184.8940  179.4880  139.5820 N   0  0  0  0  0  1  0  0  0  0  0  0
  1  4  1  0  0  0  0
  1  3  1  1  0  0  0
  2  7  1  1  0  0  0
  2  5  1  0  0  0  0
  2  4  1  0  0  0  0
  3 18  1  0  0  0  0
  4 10  1  0  0  0  0
  5 17  1  0  0  0  0
  6 20  1  0  0  0  0
  8  9  1  0  0  0  0
  9 11  1  0  0  0  0
 10 12  1  0  0  0  0
 10 13  1  0  0  0  0
 11  5  1  0  0  0  0
 13 18  1  0  0  0  0
 14  7  2  0  0  0  0
 14 15  1  0  0  0  0
 15  1  1  0  0  0  0
 16  9  1  0  0  0  0
 16  7  1  0  0  0  0
 17 31  1  0  0  0  0
 17 12  1  0  0  0  0
 19  8  1  0  0  0  0
 19  6  1  0  0  0  0
 20 16  1  0  0  0  0
 21 23  1  0  0  0  0
 22 30  1  0  0  0  0
 24 27  1  0  0  0  0
 24 30  2  0  0  0  0
 25 28  1  0  0  0  0
 25 15  1  0  0  0  0
 26 21  1  0  0  0  0
 27 25  2  0  0  0  0
 28 29  1  0  0  0  0
 28 21  2  0  0  0  0
 30 26  1  0  0  0  0
 31 32  1  0  0  0  0
M  END
>  <MODEL>
9

>  <REMARK>
 VINA RESULT:      -6.3      2.762      5.708
  Name = 
  2 active torsions:
  status: ('A' for Active; 'I' for Inactive)
    1  A    between atoms: C_13  and  C_29
    2  A    between atoms: C_16  and  N_27
                            x       y       z     vdW  Elec       q    Type
                         _______ _______ _______ _____ _____    ______ ____

>  <TORSDO>
F 2

$$$$
