=
 OpenBabel10272414063D

 43 48  0  0  1  0  0  0  0  0999 V2000
  190.5230  176.8790  147.0350 C   0  0  0  0  0  0  0  0  0  0  0  0
  188.4420  177.7550  143.1660 C   0  0  0  0  0  0  0  0  0  0  0  0
  190.3440  177.3200  141.1060 C   0  0  0  0  0  0  0  0  0  0  0  0
  188.5510  177.6160  145.2860 N   0  0  0  0  0  0  0  0  0  0  0  0
  191.9920  176.4640  145.1740 F   0  0  0  0  0  0  0  0  0  0  0  0
  191.4840  176.4970  147.9120 F   0  0  0  0  0  0  0  0  0  0  0  0
  189.7510  177.2350  144.8060 C   0  0  0  0  0  0  0  0  0  0  0  0
  189.2660  177.2860  147.5170 C   0  0  0  0  0  3  0  0  0  0  0  0
  190.7840  176.8530  145.6560 C   0  0  0  0  0  0  0  0  0  0  0  0
  190.6880  177.0870  142.3840 C   0  0  0  0  0  3  0  0  0  0  0  0
  189.7050  177.3200  143.4350 C   0  0  0  0  0  0  0  0  0  0  0  0
  187.7280  177.9420  144.2990 N   0  0  0  0  0  0  0  0  0  0  0  0
  188.0160  178.0300  141.8320 N   0  0  0  0  0  0  0  0  0  0  0  0
  188.9510  177.8320  140.7090 C   0  0  0  0  0  2  0  0  0  0  0  0
  188.2670  177.6630  146.6110 C   0  0  0  0  0  3  0  0  0  0  0  0
  191.3000  177.0850  140.0660 N   0  0  0  0  0  0  0  0  0  0  0  0
  192.7860  175.8950  136.9450 N   0  0  0  0  0  2  0  0  0  0  0  0
  191.0520  176.4890  138.7620 C   0  0  0  0  0  2  0  0  0  0  0  0
  192.6670  177.3370  140.1970 N   0  0  0  0  0  2  0  0  0  0  0  0
  192.4460  176.4370  138.2200 C   0  0  0  0  0  0  0  0  0  0  0  0
  193.3220  176.9210  139.0390 N   0  0  0  0  0  0  0  0  0  0  0  0
  194.1490  175.9190  136.4420 C   0  0  1  0  0  3  0  0  0  0  0  0
  195.6870  174.2690  137.5820 C   0  0  0  0  0  0  0  0  0  0  0  0
  194.7440  174.5980  136.5640 N   0  0  0  0  0  2  0  0  0  0  0  0
  196.0150  175.1260  138.4460 O   0  0  0  0  0  0  0  0  0  0  0  0
  196.2310  172.8790  137.6480 C   0  0  2  0  0  3  0  0  0  0  0  0
  195.8950  171.3530  135.6930 C   0  0  0  0  0  3  0  0  0  0  0  0
  197.9290  172.8180  135.7870 C   0  0  0  0  0  2  0  0  0  0  0  0
  197.3210  171.5330  135.2420 C   0  0  0  0  0  2  0  0  0  0  0  0
  197.7250  172.8660  137.3000 C   0  0  0  0  0  2  0  0  0  0  0  0
  195.4140  171.9270  136.8030 C   0  0  0  0  0  3  0  0  0  0  0  0
  194.1730  176.3960  134.9910 C   0  0  0  0  0  2  0  0  0  0  0  0
  195.9010  178.1730  135.0130 C   0  0  0  0  0  1  0  0  0  0  0  0
  195.5790  176.7720  134.5500 C   0  0  0  0  0  2  0  0  0  0  0  0
  186.7270  178.6540  141.5860 C   0  0  0  0  0  2  0  0  0  0  0  0
  186.3240  178.4860  140.1310 C   0  0  0  0  0  2  0  0  0  0  0  0
  183.1540  180.0360  139.1480 N   0  0  0  0  0  0  0  0  0  0  0  0
  182.5190  179.1370  139.9230 C   0  0  0  0  0  0  0  0  0  0  0  0
  180.4290  178.1340  140.9040 C   0  0  0  0  0  1  0  0  0  0  0  0
  184.8930  178.8560  139.9300 C   0  0  0  0  0  0  0  0  0  0  0  0
  184.4780  179.8810  139.1530 N   0  0  0  0  0  0  0  0  0  0  0  0
  181.0990  179.1120  140.0740 N   0  0  0  0  0  2  0  0  0  0  0  0
  183.6000  178.0770  140.6710 S   0  0  0  0  0  0  0  0  0  0  0  0
  1  8  1  0  0  0  0
  1  6  1  0  0  0  0
  2 11  1  0  0  0  0
  2 12  2  0  0  0  0
  3 10  2  0  0  0  0
  4 15  1  0  0  0  0
  5  9  1  0  0  0  0
  7  4  1  0  0  0  0
  7  9  1  0  0  0  0
  9  1  2  0  0  0  0
 10 11  1  0  0  0  0
 11  7  2  0  0  0  0
 12  4  1  0  0  0  0
 13  2  1  0  0  0  0
 14  3  1  0  0  0  0
 14 13  1  0  0  0  0
 15  8  2  0  0  0  0
 16 19  1  0  0  0  0
 16  3  1  0  0  0  0
 17 20  1  0  0  0  0
 18 16  1  0  0  0  0
 20 18  1  0  0  0  0
 20 21  2  0  0  0  0
 21 19  1  0  0  0  0
 22 32  1  6  0  0  0
 22 24  1  0  0  0  0
 22 17  1  0  0  0  0
 23 25  2  0  0  0  0
 24 23  1  0  0  0  0
 26 23  1  6  0  0  0
 27 31  2  0  0  0  0
 28 30  1  0  0  0  0
 29 27  1  0  0  0  0
 29 28  1  0  0  0  0
 30 26  1  0  0  0  0
 31 26  1  0  0  0  0
 34 32  1  0  0  0  0
 34 33  1  0  0  0  0
 35 13  1  0  0  0  0
 36 35  1  0  0  0  0
 37 41  1  0  0  0  0
 37 38  2  0  0  0  0
 38 42  1  0  0  0  0
 38 43  1  0  0  0  0
 40 36  1  0  0  0  0
 40 43  1  0  0  0  0
 41 40  2  0  0  0  0
 42 39  1  0  0  0  0
M  END
>  <MODEL>
1

>  <REMARK>
 VINA RESULT:      -9.2      0.000      0.000
  Name = 
  9 active torsions:
  status: ('A' for Active; 'I' for Inactive)
    1  A    between atoms: C_1  and  N_34
    2  A    between atoms: C_1  and  C_35
    3  A    between atoms: N_2  and  C_13
    4  A    between atoms: N_3  and  C_4
    5  A    between atoms: C_4  and  C_15
    6  A    between atoms: C_4  and  N_22
    7  A    between atoms: C_11  and  C_14
    8  A    between atoms: C_15  and  C_42
    9  A    between atoms: C_28  and  C_35
                            x       y       z     vdW  Elec       q    Type
                         _______ _______ _______ _____ _____    ______ ____

>  <TORSDO>
F 9

$$$$
=
 OpenBabel10272414063D

 43 48  0  0  1  0  0  0  0  0999 V2000
  186.5700  177.4070  135.5360 C   0  0  0  0  0  0  0  0  0  0  0  0
  190.6610  176.6520  137.1980 C   0  0  0  0  0  0  0  0  0  0  0  0
  190.4750  177.0180  140.0050 C   0  0  0  0  0  0  0  0  0  0  0  0
  189.2440  176.8300  135.6210 N   0  0  0  0  0  0  0  0  0  0  0  0
  186.5530  177.5920  137.9350 F   0  0  0  0  0  0  0  0  0  0  0  0
  185.2410  177.6720  135.4800 F   0  0  0  0  0  0  0  0  0  0  0  0
  188.5830  177.0630  136.7710 C   0  0  0  0  0  0  0  0  0  0  0  0
  187.2810  177.1670  134.3460 C   0  0  0  0  0  3  0  0  0  0  0  0
  187.2230  177.3610  136.7770 C   0  0  0  0  0  0  0  0  0  0  0  0
  189.3720  177.1400  139.2480 C   0  0  0  0  0  3  0  0  0  0  0  0
  189.4800  176.9570  137.8060 C   0  0  0  0  0  0  0  0  0  0  0  0
  190.5240  176.5760  135.8550 N   0  0  0  0  0  0  0  0  0  0  0  0
  191.8710  176.5180  137.9420 N   0  0  0  0  0  0  0  0  0  0  0  0
  191.8530  176.6990  139.4060 C   0  0  0  0  0  2  0  0  0  0  0  0
  188.6490  176.8760  134.4040 C   0  0  0  0  0  3  0  0  0  0  0  0
  190.3770  177.1870  141.4240 N   0  0  0  0  0  0  0  0  0  0  0  0
  191.1380  176.9470  144.9920 N   0  0  0  0  0  2  0  0  0  0  0  0
  191.3660  176.8140  142.4250 C   0  0  0  0  0  2  0  0  0  0  0  0
  189.2440  177.6840  142.0700 N   0  0  0  0  0  2  0  0  0  0  0  0
  190.6220  177.1540  143.6780 C   0  0  0  0  0  0  0  0  0  0  0  0
  189.4460  177.6410  143.4480 N   0  0  0  0  0  0  0  0  0  0  0  0
  190.3970  177.3450  146.1760 C   0  0  1  0  0  3  0  0  0  0  0  0
  187.9710  177.6990  146.7920 C   0  0  0  0  0  0  0  0  0  0  0  0
  188.9770  177.1020  145.9770 N   0  0  0  0  0  2  0  0  0  0  0  0
  188.2900  178.5000  147.7120 O   0  0  0  0  0  0  0  0  0  0  0  0
  186.5340  177.4120  146.5010 C   0  0  2  0  0  3  0  0  0  0  0  0
  184.9730  179.3260  146.0950 C   0  0  0  0  0  3  0  0  0  0  0  0
  186.2120  178.3060  144.1670 C   0  0  0  0  0  2  0  0  0  0  0  0
  184.9780  179.0820  144.6090 C   0  0  0  0  0  2  0  0  0  0  0  0
  186.3440  177.0470  145.0230 C   0  0  0  0  0  2  0  0  0  0  0  0
  185.6420  178.5460  146.9540 C   0  0  0  0  0  3  0  0  0  0  0  0
  190.9110  176.5960  147.4040 C   0  0  0  0  0  2  0  0  0  0  0  0
  193.0490  175.7080  148.2900 C   0  0  0  0  0  1  0  0  0  0  0  0
  192.1480  175.7730  147.0790 C   0  0  0  0  0  2  0  0  0  0  0  0
  193.1420  176.3640  137.2580 C   0  0  0  0  0  2  0  0  0  0  0  0
  193.6000  174.9160  137.3040 C   0  0  0  0  0  2  0  0  0  0  0  0
  196.7900  174.9070  139.1030 N   0  0  0  0  0  0  0  0  0  0  0  0
  197.4030  174.6330  137.9360 C   0  0  0  0  0  0  0  0  0  0  0  0
  199.4630  174.1730  136.5640 C   0  0  0  0  0  1  0  0  0  0  0  0
  195.0300  174.8230  137.7160 C   0  0  0  0  0  0  0  0  0  0  0  0
  195.4680  175.0150  138.9810 N   0  0  0  0  0  0  0  0  0  0  0  0
  198.8190  174.4760  137.8240 N   0  0  0  0  0  2  0  0  0  0  0  0
  196.3020  174.5080  136.6620 S   0  0  0  0  0  0  0  0  0  0  0  0
  1  9  2  0  0  0  0
  2 11  1  0  0  0  0
  2 13  1  0  0  0  0
  3 16  1  0  0  0  0
  4 12  1  0  0  0  0
  4  7  1  0  0  0  0
  6  1  1  0  0  0  0
  7  9  1  0  0  0  0
  7 11  2  0  0  0  0
  8 15  2  0  0  0  0
  8  1  1  0  0  0  0
  9  5  1  0  0  0  0
 10  3  2  0  0  0  0
 11 10  1  0  0  0  0
 12  2  2  0  0  0  0
 13 14  1  0  0  0  0
 14  3  1  0  0  0  0
 15  4  1  0  0  0  0
 16 19  1  0  0  0  0
 16 18  1  0  0  0  0
 17 22  1  0  0  0  0
 18 20  1  0  0  0  0
 19 21  1  0  0  0  0
 20 17  1  0  0  0  0
 21 20  2  0  0  0  0
 22 32  1  1  0  0  0
 23 25  2  0  0  0  0
 24 22  1  0  0  0  0
 24 23  1  0  0  0  0
 26 23  1  6  0  0  0
 26 31  1  0  0  0  0
 27 31  2  0  0  0  0
 28 29  1  0  0  0  0
 28 30  1  0  0  0  0
 29 27  1  0  0  0  0
 30 26  1  0  0  0  0
 34 32  1  0  0  0  0
 34 33  1  0  0  0  0
 35 36  1  0  0  0  0
 35 13  1  0  0  0  0
 36 40  1  0  0  0  0
 38 37  2  0  0  0  0
 39 42  1  0  0  0  0
 40 41  2  0  0  0  0
 41 37  1  0  0  0  0
 42 38  1  0  0  0  0
 43 40  1  0  0  0  0
 43 38  1  0  0  0  0
M  END
>  <MODEL>
2

>  <REMARK>
 VINA RESULT:      -9.0      4.706     11.537
  Name = 
  9 active torsions:
  status: ('A' for Active; 'I' for Inactive)
    1  A    between atoms: C_1  and  N_34
    2  A    between atoms: C_1  and  C_35
    3  A    between atoms: N_2  and  C_13
    4  A    between atoms: N_3  and  C_4
    5  A    between atoms: C_4  and  C_15
    6  A    between atoms: C_4  and  N_22
    7  A    between atoms: C_11  and  C_14
    8  A    between atoms: C_15  and  C_42
    9  A    between atoms: C_28  and  C_35
                            x       y       z     vdW  Elec       q    Type
                         _______ _______ _______ _____ _____    ______ ____

>  <TORSDO>
F 9

$$$$
=
 OpenBabel10272414063D

 43 48  0  0  1  0  0  0  0  0999 V2000
  189.1530  177.1140  147.3560 C   0  0  0  0  0  0  0  0  0  0  0  0
  189.7650  177.5620  142.9410 C   0  0  0  0  0  0  0  0  0  0  0  0
  187.2290  178.1800  141.8300 C   0  0  0  0  0  0  0  0  0  0  0  0
  190.4120  177.1550  144.9260 N   0  0  0  0  0  0  0  0  0  0  0  0
  187.0920  177.7320  146.2770 F   0  0  0  0  0  0  0  0  0  0  0  0
  188.5460  177.1080  148.5680 F   0  0  0  0  0  0  0  0  0  0  0  0
  189.0980  177.4450  144.9930 C   0  0  0  0  0  0  0  0  0  0  0  0
  190.5220  176.8070  147.2630 C   0  0  0  0  0  3  0  0  0  0  0  0
  188.4150  177.4360  146.2060 C   0  0  0  0  0  0  0  0  0  0  0  0
  187.3500  178.0330  143.1590 C   0  0  0  0  0  3  0  0  0  0  0  0
  188.6560  177.7090  143.7190 C   0  0  0  0  0  0  0  0  0  0  0  0
  190.8470  177.2190  143.6760 N   0  0  0  0  0  0  0  0  0  0  0  0
  189.7030  177.6960  141.5220 N   0  0  0  0  0  0  0  0  0  0  0  0
  188.4170  178.0110  140.8710 C   0  0  0  0  0  2  0  0  0  0  0  0
  191.1540  176.8300  146.0140 C   0  0  0  0  0  3  0  0  0  0  0  0
  185.9510  178.5070  141.2710 N   0  0  0  0  0  0  0  0  0  0  0  0
  182.3300  178.8210  140.8830 N   0  0  0  0  0  2  0  0  0  0  0  0
  184.6540  178.4080  141.9240 C   0  0  0  0  0  2  0  0  0  0  0  0
  185.7630  178.9090  139.9470 N   0  0  0  0  0  2  0  0  0  0  0  0
  183.7530  178.7870  140.7910 C   0  0  0  0  0  0  0  0  0  0  0  0
  184.3990  179.0660  139.7060 N   0  0  0  0  0  0  0  0  0  0  0  0
  181.5020  179.2500  139.7690 C   0  0  1  0  0  3  0  0  0  0  0  0
  181.0620  177.7710  137.7680 C   0  0  0  0  0  0  0  0  0  0  0  0
  180.8760  178.0960  139.1440 N   0  0  0  0  0  2  0  0  0  0  0  0
  181.8170  178.4730  137.0440 O   0  0  0  0  0  0  0  0  0  0  0  0
  180.4000  176.5510  137.2140 C   0  0  2  0  0  3  0  0  0  0  0  0
  181.5380  175.2800  135.3830 C   0  0  0  0  0  3  0  0  0  0  0  0
  182.0100  174.6950  137.7760 C   0  0  0  0  0  2  0  0  0  0  0  0
  181.9800  174.2000  136.3360 C   0  0  0  0  0  2  0  0  0  0  0  0
  180.6650  175.3360  138.1130 C   0  0  0  0  0  2  0  0  0  0  0  0
  180.7880  176.3190  135.7710 C   0  0  0  0  0  3  0  0  0  0  0  0
  180.4480  180.2510  140.2420 C   0  0  0  0  0  2  0  0  0  0  0  0
  181.5940  181.5820  138.4920 C   0  0  0  0  0  1  0  0  0  0  0  0
  180.3140  181.4180  139.2760 C   0  0  0  0  0  2  0  0  0  0  0  0
  190.8560  177.3670  140.7010 C   0  0  0  0  0  2  0  0  0  0  0  0
  190.4600  177.2830  139.2360 C   0  0  0  0  0  2  0  0  0  0  0  0
  191.5840  174.2030  137.6030 N   0  0  0  0  0  0  0  0  0  0  0  0
  192.8060  174.7560  137.4870 C   0  0  0  0  0  0  0  0  0  0  0  0
  195.2160  174.6850  136.7650 C   0  0  0  0  0  1  0  0  0  0  0  0
  191.2250  176.2080  138.5400 C   0  0  0  0  0  0  0  0  0  0  0  0
  190.7030  175.0110  138.1920 N   0  0  0  0  0  0  0  0  0  0  0  0
  193.9100  174.0740  136.8910 N   0  0  0  0  0  2  0  0  0  0  0  0
  192.8510  176.3180  138.1270 S   0  0  0  0  0  0  0  0  0  0  0  0
  1  6  1  0  0  0  0
  2 12  2  0  0  0  0
  2 11  1  0  0  0  0
  3 10  2  0  0  0  0
  4  7  1  0  0  0  0
  4 15  1  0  0  0  0
  7  9  1  0  0  0  0
  8  1  1  0  0  0  0
  9  5  1  0  0  0  0
  9  1  2  0  0  0  0
 10 11  1  0  0  0  0
 11  7  2  0  0  0  0
 12  4  1  0  0  0  0
 13  2  1  0  0  0  0
 14 13  1  0  0  0  0
 14  3  1  0  0  0  0
 15  8  2  0  0  0  0
 16  3  1  0  0  0  0
 16 18  1  0  0  0  0
 19 16  1  0  0  0  0
 20 17  1  0  0  0  0
 20 18  1  0  0  0  0
 21 19  1  0  0  0  0
 21 20  2  0  0  0  0
 22 32  1  1  0  0  0
 22 17  1  0  0  0  0
 23 24  1  0  0  0  0
 24 22  1  0  0  0  0
 25 23  2  0  0  0  0
 26 23  1  1  0  0  0
 26 30  1  0  0  0  0
 27 31  2  0  0  0  0
 27 29  1  0  0  0  0
 28 30  1  0  0  0  0
 29 28  1  0  0  0  0
 31 26  1  0  0  0  0
 33 34  1  0  0  0  0
 34 32  1  0  0  0  0
 35 13  1  0  0  0  0
 36 35  1  0  0  0  0
 37 41  1  0  0  0  0
 38 37  2  0  0  0  0
 38 43  1  0  0  0  0
 39 42  1  0  0  0  0
 40 36  1  0  0  0  0
 41 40  2  0  0  0  0
 42 38  1  0  0  0  0
 43 40  1  0  0  0  0
M  END
>  <MODEL>
3

>  <REMARK>
 VINA RESULT:      -9.0      3.711     10.308
  Name = 
  9 active torsions:
  status: ('A' for Active; 'I' for Inactive)
    1  A    between atoms: C_1  and  N_34
    2  A    between atoms: C_1  and  C_35
    3  A    between atoms: N_2  and  C_13
    4  A    between atoms: N_3  and  C_4
    5  A    between atoms: C_4  and  C_15
    6  A    between atoms: C_4  and  N_22
    7  A    between atoms: C_11  and  C_14
    8  A    between atoms: C_15  and  C_42
    9  A    between atoms: C_28  and  C_35
                            x       y       z     vdW  Elec       q    Type
                         _______ _______ _______ _____ _____    ______ ____

>  <TORSDO>
F 9

$$$$
=
 OpenBabel10272414063D

 43 48  0  0  1  0  0  0  0  0999 V2000
  195.1000  174.6600  136.5020 C   0  0  0  0  0  0  0  0  0  0  0  0
  191.1040  176.6220  137.0040 C   0  0  0  0  0  0  0  0  0  0  0  0
  190.7220  176.9810  139.7930 C   0  0  0  0  0  0  0  0  0  0  0  0
  192.6760  175.7570  135.8610 N   0  0  0  0  0  0  0  0  0  0  0  0
  194.6700  175.1150  138.8250 F   0  0  0  0  0  0  0  0  0  0  0  0
  196.3120  174.1320  136.8030 F   0  0  0  0  0  0  0  0  0  0  0  0
  193.0570  175.7090  137.1520 C   0  0  0  0  0  0  0  0  0  0  0  0
  194.6790  174.7130  135.1610 C   0  0  0  0  0  3  0  0  0  0  0  0
  194.2810  175.1600  137.5260 C   0  0  0  0  0  0  0  0  0  0  0  0
  191.8710  176.4470  139.3460 C   0  0  0  0  0  3  0  0  0  0  0  0
  192.0540  176.2610  137.9120 C   0  0  0  0  0  0  0  0  0  0  0  0
  191.4780  176.3120  135.7420 N   0  0  0  0  0  0  0  0  0  0  0  0
  189.8580  177.1850  137.4130 N   0  0  0  0  0  0  0  0  0  0  0  0
  189.5860  177.3960  138.8470 C   0  0  0  0  0  2  0  0  0  0  0  0
  193.4360  175.2750  134.8470 C   0  0  0  0  0  3  0  0  0  0  0  0
  190.5370  177.1750  141.1990 N   0  0  0  0  0  0  0  0  0  0  0  0
  191.1380  177.1060  144.8050 N   0  0  0  0  0  2  0  0  0  0  0  0
  191.5070  176.9310  142.2570 C   0  0  0  0  0  2  0  0  0  0  0  0
  189.3280  177.5690  141.7760 N   0  0  0  0  0  2  0  0  0  0  0  0
  190.6700  177.2250  143.4620 C   0  0  0  0  0  0  0  0  0  0  0  0
  189.4640  177.5830  143.1630 N   0  0  0  0  0  0  0  0  0  0  0  0
  190.3020  177.4560  145.9400 C   0  0  1  0  0  3  0  0  0  0  0  0
  187.8240  177.6680  146.3910 C   0  0  0  0  0  0  0  0  0  0  0  0
  188.9160  177.1180  145.6570 N   0  0  0  0  0  2  0  0  0  0  0  0
  188.0320  178.5080  147.3070 O   0  0  0  0  0  0  0  0  0  0  0  0
  186.4300  177.2840  146.0160 C   0  0  2  0  0  3  0  0  0  0  0  0
  184.7070  179.0800  145.7510 C   0  0  0  0  0  3  0  0  0  0  0  0
  186.0910  178.3880  143.7770 C   0  0  0  0  0  2  0  0  0  0  0  0
  184.7770  178.9970  144.2480 C   0  0  0  0  0  2  0  0  0  0  0  0
  186.3180  177.0630  144.5020 C   0  0  0  0  0  2  0  0  0  0  0  0
  185.4220  178.2770  146.5500 C   0  0  0  0  0  3  0  0  0  0  0  0
  190.7900  176.7450  147.2010 C   0  0  0  0  0  2  0  0  0  0  0  0
  192.8060  175.7290  148.2250 C   0  0  0  0  0  1  0  0  0  0  0  0
  192.0490  175.9350  146.9340 C   0  0  0  0  0  2  0  0  0  0  0  0
  188.7970  177.4010  136.4450 C   0  0  0  0  0  2  0  0  0  0  0  0
  187.9830  178.6310  136.8140 C   0  0  0  0  0  2  0  0  0  0  0  0
  184.8170  178.2830  138.6220 N   0  0  0  0  0  0  0  0  0  0  0  0
  184.4820  177.2980  137.7670 C   0  0  0  0  0  0  0  0  0  0  0  0
  182.8960  175.5350  136.9220 C   0  0  0  0  0  1  0  0  0  0  0  0
  186.6270  178.2440  137.2980 C   0  0  0  0  0  0  0  0  0  0  0  0
  186.0130  178.8100  138.3620 N   0  0  0  0  0  0  0  0  0  0  0  0
  183.2460  176.5860  137.8530 N   0  0  0  0  0  2  0  0  0  0  0  0
  185.6870  177.0270  136.6170 S   0  0  0  0  0  0  0  0  0  0  0  0
  1  6  1  0  0  0  0
  1  9  2  0  0  0  0
  2 13  1  0  0  0  0
  2 11  1  0  0  0  0
  3 16  1  0  0  0  0
  4  7  1  0  0  0  0
  7  9  1  0  0  0  0
  7 11  2  0  0  0  0
  8  1  1  0  0  0  0
  9  5  1  0  0  0  0
 10  3  2  0  0  0  0
 11 10  1  0  0  0  0
 12  4  1  0  0  0  0
 12  2  2  0  0  0  0
 13 14  1  0  0  0  0
 14  3  1  0  0  0  0
 15  8  2  0  0  0  0
 15  4  1  0  0  0  0
 16 19  1  0  0  0  0
 16 18  1  0  0  0  0
 17 22  1  0  0  0  0
 18 20  1  0  0  0  0
 19 21  1  0  0  0  0
 20 17  1  0  0  0  0
 21 20  2  0  0  0  0
 22 32  1  1  0  0  0
 23 25  2  0  0  0  0
 24 22  1  0  0  0  0
 24 23  1  0  0  0  0
 26 23  1  6  0  0  0
 26 31  1  0  0  0  0
 27 31  2  0  0  0  0
 28 29  1  0  0  0  0
 28 30  1  0  0  0  0
 29 27  1  0  0  0  0
 30 26  1  0  0  0  0
 34 32  1  0  0  0  0
 34 33  1  0  0  0  0
 35 36  1  0  0  0  0
 35 13  1  0  0  0  0
 36 40  1  0  0  0  0
 38 42  1  0  0  0  0
 38 37  2  0  0  0  0
 39 42  1  0  0  0  0
 40 41  2  0  0  0  0
 41 37  1  0  0  0  0
 43 40  1  0  0  0  0
 43 38  1  0  0  0  0
M  END
>  <MODEL>
4

>  <REMARK>
 VINA RESULT:      -8.9      3.562      9.602
  Name = 
  9 active torsions:
  status: ('A' for Active; 'I' for Inactive)
    1  A    between atoms: C_1  and  N_34
    2  A    between atoms: C_1  and  C_35
    3  A    between atoms: N_2  and  C_13
    4  A    between atoms: N_3  and  C_4
    5  A    between atoms: C_4  and  C_15
    6  A    between atoms: C_4  and  N_22
    7  A    between atoms: C_11  and  C_14
    8  A    between atoms: C_15  and  C_42
    9  A    between atoms: C_28  and  C_35
                            x       y       z     vdW  Elec       q    Type
                         _______ _______ _______ _____ _____    ______ ____

>  <TORSDO>
F 9

$$$$
=
 OpenBabel10272414063D

 43 48  0  0  1  0  0  0  0  0999 V2000
  191.6150  176.2890  136.4780 C   0  0  0  0  0  0  0  0  0  0  0  0
  190.8390  177.4170  140.7440 C   0  0  0  0  0  0  0  0  0  0  0  0
  188.0870  178.0840  140.9170 C   0  0  0  0  0  0  0  0  0  0  0  0
  192.0780  176.8050  139.1250 N   0  0  0  0  0  0  0  0  0  0  0  0
  189.2860  176.7980  136.8060 F   0  0  0  0  0  0  0  0  0  0  0  0
  191.3970  176.0110  135.1690 F   0  0  0  0  0  0  0  0  0  0  0  0
  190.8280  176.9290  138.6380 C   0  0  0  0  0  0  0  0  0  0  0  0
  192.9140  176.1720  137.0050 C   0  0  0  0  0  3  0  0  0  0  0  0
  190.5450  176.6790  137.2980 C   0  0  0  0  0  0  0  0  0  0  0  0
  188.5920  177.6620  139.7460 C   0  0  0  0  0  3  0  0  0  0  0  0
  190.0090  177.3270  139.6670 C   0  0  0  0  0  0  0  0  0  0  0  0
  192.1130  177.1000  140.4180 N   0  0  0  0  0  0  0  0  0  0  0  0
  190.3690  177.8680  142.0130 N   0  0  0  0  0  0  0  0  0  0  0  0
  188.9500  178.2380  142.1780 C   0  0  0  0  0  2  0  0  0  0  0  0
  193.1370  176.4410  138.3610 C   0  0  0  0  0  3  0  0  0  0  0  0
  186.6940  178.4070  141.0080 N   0  0  0  0  0  0  0  0  0  0  0  0
  183.2970  178.7080  142.3250 N   0  0  0  0  0  2  0  0  0  0  0  0
  185.8420  178.3030  142.1830 C   0  0  0  0  0  2  0  0  0  0  0  0
  185.9180  178.8070  139.9180 N   0  0  0  0  0  2  0  0  0  0  0  0
  184.5210  178.6790  141.5900 C   0  0  0  0  0  0  0  0  0  0  0  0
  184.5950  178.9590  140.3300 N   0  0  0  0  0  0  0  0  0  0  0  0
  182.0490  179.1330  141.7160 C   0  0  1  0  0  3  0  0  0  0  0  0
  181.0230  178.2550  139.5790 C   0  0  0  0  0  0  0  0  0  0  0  0
  181.5000  178.0560  140.9090 N   0  0  0  0  0  2  0  0  0  0  0  0
  181.0960  179.3910  139.0410 O   0  0  0  0  0  0  0  0  0  0  0  0
  180.4970  177.0850  138.8130 C   0  0  2  0  0  3  0  0  0  0  0  0
  181.5350  176.5120  136.6090 C   0  0  0  0  0  3  0  0  0  0  0  0
  182.4600  175.5090  138.7130 C   0  0  0  0  0  2  0  0  0  0  0  0
  182.2920  175.3560  137.2070 C   0  0  0  0  0  2  0  0  0  0  0  0
  181.0950  175.7760  139.3450 C   0  0  0  0  0  2  0  0  0  0  0  0
  180.6910  177.2670  137.3250 C   0  0  0  0  0  3  0  0  0  0  0  0
  181.0540  179.5720  142.7890 C   0  0  0  0  0  2  0  0  0  0  0  0
  179.9840  177.8570  144.2250 C   0  0  0  0  0  1  0  0  0  0  0  0
  181.1970  178.7420  144.0550 C   0  0  0  0  0  2  0  0  0  0  0  0
  191.3030  178.1180  143.0960 C   0  0  0  0  0  2  0  0  0  0  0  0
  191.5270  176.8530  143.9080 C   0  0  0  0  0  2  0  0  0  0  0  0
  191.0890  176.9080  147.5440 N   0  0  0  0  0  0  0  0  0  0  0  0
  189.8570  177.4150  147.3490 C   0  0  0  0  0  0  0  0  0  0  0  0
  187.6520  178.2810  148.1990 C   0  0  0  0  0  1  0  0  0  0  0  0
  191.0350  177.0240  145.3050 C   0  0  0  0  0  0  0  0  0  0  0  0
  191.7450  176.6890  146.4060 N   0  0  0  0  0  0  0  0  0  0  0  0
  188.9700  177.7280  148.4240 N   0  0  0  0  0  2  0  0  0  0  0  0
  189.5150  177.6210  145.7090 S   0  0  0  0  0  0  0  0  0  0  0  0
  1  8  1  0  0  0  0
  1  9  2  0  0  0  0
  2 13  1  0  0  0  0
  3 16  1  0  0  0  0
  3 14  1  0  0  0  0
  4 12  1  0  0  0  0
  5  9  1  0  0  0  0
  6  1  1  0  0  0  0
  7  4  1  0  0  0  0
  7 11  2  0  0  0  0
  8 15  2  0  0  0  0
  9  7  1  0  0  0  0
 10  3  2  0  0  0  0
 11 10  1  0  0  0  0
 11  2  1  0  0  0  0
 12  2  2  0  0  0  0
 13 14  1  0  0  0  0
 13 35  1  0  0  0  0
 15  4  1  0  0  0  0
 16 18  1  0  0  0  0
 19 21  1  0  0  0  0
 19 16  1  0  0  0  0
 20 18  1  0  0  0  0
 20 17  1  0  0  0  0
 21 20  2  0  0  0  0
 22 17  1  0  0  0  0
 22 32  1  1  0  0  0
 23 24  1  0  0  0  0
 24 22  1  0  0  0  0
 25 23  2  0  0  0  0
 26 30  1  0  0  0  0
 26 23  1  1  0  0  0
 27 29  1  0  0  0  0
 27 31  2  0  0  0  0
 28 30  1  0  0  0  0
 29 28  1  0  0  0  0
 31 26  1  0  0  0  0
 32 34  1  0  0  0  0
 34 33  1  0  0  0  0
 35 36  1  0  0  0  0
 36 40  1  0  0  0  0
 38 37  2  0  0  0  0
 38 42  1  0  0  0  0
 39 42  1  0  0  0  0
 40 43  1  0  0  0  0
 40 41  2  0  0  0  0
 41 37  1  0  0  0  0
 43 38  1  0  0  0  0
M  END
>  <MODEL>
5

>  <REMARK>
 VINA RESULT:      -8.8      4.427     11.114
  Name = 
  9 active torsions:
  status: ('A' for Active; 'I' for Inactive)
    1  A    between atoms: C_1  and  N_34
    2  A    between atoms: C_1  and  C_35
    3  A    between atoms: N_2  and  C_13
    4  A    between atoms: N_3  and  C_4
    5  A    between atoms: C_4  and  C_15
    6  A    between atoms: C_4  and  N_22
    7  A    between atoms: C_11  and  C_14
    8  A    between atoms: C_15  and  C_42
    9  A    between atoms: C_28  and  C_35
                            x       y       z     vdW  Elec       q    Type
                         _______ _______ _______ _____ _____    ______ ____

>  <TORSDO>
F 9

$$$$
=
 OpenBabel10272414063D

 43 48  0  0  1  0  0  0  0  0999 V2000
  189.5700  177.3090  147.4650 C   0  0  0  0  0  0  0  0  0  0  0  0
  189.9290  177.4630  143.0010 C   0  0  0  0  0  0  0  0  0  0  0  0
  187.3570  178.1250  142.0040 C   0  0  0  0  0  0  0  0  0  0  0  0
  190.6800  177.1480  144.9680 N   0  0  0  0  0  0  0  0  0  0  0  0
  187.4750  177.9520  146.4710 F   0  0  0  0  0  0  0  0  0  0  0  0
  189.0390  177.4030  148.7080 F   0  0  0  0  0  0  0  0  0  0  0  0
  189.3850  177.5000  145.0930 C   0  0  0  0  0  0  0  0  0  0  0  0
  190.9180  176.9370  147.3110 C   0  0  0  0  0  3  0  0  0  0  0  0
  188.7770  177.5930  146.3420 C   0  0  0  0  0  0  0  0  0  0  0  0
  187.5530  178.0520  143.3310 C   0  0  0  0  0  3  0  0  0  0  0  0
  188.8770  177.7050  143.8330 C   0  0  0  0  0  0  0  0  0  0  0  0
  191.0390  177.1170  143.6920 N   0  0  0  0  0  0  0  0  0  0  0  0
  189.7860  177.5130  141.5830 N   0  0  0  0  0  0  0  0  0  0  0  0
  188.4770  177.8450  140.9900 C   0  0  0  0  0  2  0  0  0  0  0  0
  191.4720  176.8560  146.0280 C   0  0  0  0  0  3  0  0  0  0  0  0
  186.0620  178.4740  141.5020 N   0  0  0  0  0  0  0  0  0  0  0  0
  182.4390  178.5040  141.0150 N   0  0  0  0  0  2  0  0  0  0  0  0
  184.7720  178.0310  142.0110 C   0  0  0  0  0  2  0  0  0  0  0  0
  185.8560  179.2570  140.3640 N   0  0  0  0  0  2  0  0  0  0  0  0
  183.8580  178.6550  141.0040 C   0  0  0  0  0  0  0  0  0  0  0  0
  184.4890  179.3360  140.1040 N   0  0  0  0  0  0  0  0  0  0  0  0
  181.5900  179.1760  140.0470 C   0  0  1  0  0  3  0  0  0  0  0  0
  181.2150  178.8080  137.5750 C   0  0  0  0  0  0  0  0  0  0  0  0
  181.3620  178.3090  138.9030 N   0  0  0  0  0  2  0  0  0  0  0  0
  181.3130  180.0430  137.3450 O   0  0  0  0  0  0  0  0  0  0  0  0
  181.0070  177.8420  136.4540 C   0  0  2  0  0  3  0  0  0  0  0  0
  182.9780  177.1340  135.0820 C   0  0  0  0  0  3  0  0  0  0  0  0
  182.3690  175.8360  137.1400 C   0  0  0  0  0  2  0  0  0  0  0  0
  183.0470  175.8000  135.7770 C   0  0  0  0  0  2  0  0  0  0  0  0
  180.9590  176.4030  136.9830 C   0  0  0  0  0  2  0  0  0  0  0  0
  182.0300  178.0400  135.3580 C   0  0  0  0  0  3  0  0  0  0  0  0
  180.2670  179.5870  140.6910 C   0  0  0  0  0  2  0  0  0  0  0  0
  180.0380  179.6770  143.1580 C   0  0  0  0  0  1  0  0  0  0  0  0
  179.9820  178.7770  141.9460 C   0  0  0  0  0  2  0  0  0  0  0  0
  190.8720  177.0840  140.7190 C   0  0  0  0  0  2  0  0  0  0  0  0
  190.4390  177.1190  139.2620 C   0  0  0  0  0  2  0  0  0  0  0  0
  191.6140  174.1890  137.4050 N   0  0  0  0  0  0  0  0  0  0  0  0
  192.7800  174.8310  137.2060 C   0  0  0  0  0  0  0  0  0  0  0  0
  195.1140  174.9570  136.2710 C   0  0  0  0  0  1  0  0  0  0  0  0
  191.2080  176.1280  138.4560 C   0  0  0  0  0  0  0  0  0  0  0  0
  190.7370  174.9100  138.1030 N   0  0  0  0  0  0  0  0  0  0  0  0
  193.8690  174.2510  136.4860 N   0  0  0  0  0  2  0  0  0  0  0  0
  192.7790  176.3670  137.9050 S   0  0  0  0  0  0  0  0  0  0  0  0
  1  6  1  0  0  0  0
  2 12  2  0  0  0  0
  2 11  1  0  0  0  0
  3 10  2  0  0  0  0
  4  7  1  0  0  0  0
  4 15  1  0  0  0  0
  7  9  1  0  0  0  0
  8  1  1  0  0  0  0
  9  5  1  0  0  0  0
  9  1  2  0  0  0  0
 10 11  1  0  0  0  0
 11  7  2  0  0  0  0
 12  4  1  0  0  0  0
 13  2  1  0  0  0  0
 14 13  1  0  0  0  0
 14  3  1  0  0  0  0
 15  8  2  0  0  0  0
 16  3  1  0  0  0  0
 16 18  1  0  0  0  0
 19 16  1  0  0  0  0
 20 17  1  0  0  0  0
 20 18  1  0  0  0  0
 21 19  1  0  0  0  0
 21 20  2  0  0  0  0
 22 32  1  1  0  0  0
 22 17  1  0  0  0  0
 23 24  1  0  0  0  0
 24 22  1  0  0  0  0
 25 23  2  0  0  0  0
 26 30  1  0  0  0  0
 26 23  1  1  0  0  0
 27 31  2  0  0  0  0
 27 29  1  0  0  0  0
 29 28  1  0  0  0  0
 30 28  1  0  0  0  0
 31 26  1  0  0  0  0
 32 34  1  0  0  0  0
 34 33  1  0  0  0  0
 35 13  1  0  0  0  0
 36 35  1  0  0  0  0
 37 41  1  0  0  0  0
 38 37  2  0  0  0  0
 38 43  1  0  0  0  0
 39 42  1  0  0  0  0
 40 36  1  0  0  0  0
 41 40  2  0  0  0  0
 42 38  1  0  0  0  0
 43 40  1  0  0  0  0
M  END
>  <MODEL>
6

>  <REMARK>
 VINA RESULT:      -8.6      3.664     10.372
  Name = 
  9 active torsions:
  status: ('A' for Active; 'I' for Inactive)
    1  A    between atoms: C_1  and  N_34
    2  A    between atoms: C_1  and  C_35
    3  A    between atoms: N_2  and  C_13
    4  A    between atoms: N_3  and  C_4
    5  A    between atoms: C_4  and  C_15
    6  A    between atoms: C_4  and  N_22
    7  A    between atoms: C_11  and  C_14
    8  A    between atoms: C_15  and  C_42
    9  A    between atoms: C_28  and  C_35
                            x       y       z     vdW  Elec       q    Type
                         _______ _______ _______ _____ _____    ______ ____

>  <TORSDO>
F 9

$$$$
=
 OpenBabel10272414063D

 43 48  0  0  1  0  0  0  0  0999 V2000
  190.7270  176.9900  147.3750 C   0  0  0  0  0  0  0  0  0  0  0  0
  187.9190  177.6120  143.9400 C   0  0  0  0  0  0  0  0  0  0  0  0
  189.4360  177.2290  141.5730 C   0  0  0  0  0  0  0  0  0  0  0  0
  188.4240  177.5480  146.0060 N   0  0  0  0  0  0  0  0  0  0  0  0
  191.8550  176.6080  145.2830 F   0  0  0  0  0  0  0  0  0  0  0  0
  191.8560  176.6970  148.0660 F   0  0  0  0  0  0  0  0  0  0  0  0
  189.5380  177.2270  145.3190 C   0  0  0  0  0  0  0  0  0  0  0  0
  189.5550  177.3350  148.0720 C   0  0  0  0  0  3  0  0  0  0  0  0
  190.7320  176.9360  145.9720 C   0  0  0  0  0  0  0  0  0  0  0  0
  190.0230  177.0590  142.7700 C   0  0  0  0  0  3  0  0  0  0  0  0
  189.2360  177.2650  143.9790 C   0  0  0  0  0  0  0  0  0  0  0  0
  187.4140  177.7910  145.1810 N   0  0  0  0  0  0  0  0  0  0  0  0
  187.2390  177.8180  142.7030 N   0  0  0  0  0  0  0  0  0  0  0  0
  187.9640  177.6420  141.4300 C   0  0  0  0  0  2  0  0  0  0  0  0
  188.3850  177.6200  147.3590 C   0  0  0  0  0  3  0  0  0  0  0  0
  190.1990  177.0200  140.3790 N   0  0  0  0  0  0  0  0  0  0  0  0
  191.1540  175.8430  137.0530 N   0  0  0  0  0  2  0  0  0  0  0  0
  189.7500  176.3880  139.1480 C   0  0  0  0  0  2  0  0  0  0  0  0
  191.5530  177.3400  140.2570 N   0  0  0  0  0  2  0  0  0  0  0  0
  191.0230  176.3930  138.3630 C   0  0  0  0  0  0  0  0  0  0  0  0
  192.0080  176.9340  139.0040 N   0  0  0  0  0  0  0  0  0  0  0  0
  192.4000  175.9230  136.3100 C   0  0  1  0  0  3  0  0  0  0  0  0
  194.7500  175.1290  136.7980 C   0  0  0  0  0  0  0  0  0  0  0  0
  193.3380  174.9290  136.8080 N   0  0  0  0  0  2  0  0  0  0  0  0
  195.2360  176.2110  136.3750 O   0  0  0  0  0  0  0  0  0  0  0  0
  195.6380  174.0630  137.3520 C   0  0  2  0  0  3  0  0  0  0  0  0
  197.9820  174.6550  138.0010 C   0  0  0  0  0  3  0  0  0  0  0  0
  196.1380  174.8640  139.6880 C   0  0  0  0  0  2  0  0  0  0  0  0
  197.6310  174.6590  139.4660 C   0  0  0  0  0  2  0  0  0  0  0  0
  195.3620  173.8520  138.8470 C   0  0  0  0  0  2  0  0  0  0  0  0
  197.0930  174.3440  137.0490 C   0  0  0  0  0  3  0  0  0  0  0  0
  192.1450  175.7300  134.8160 C   0  0  0  0  0  2  0  0  0  0  0  0
  190.5230  173.8810  134.5010 C   0  0  0  0  0  1  0  0  0  0  0  0
  190.6900  175.3820  134.5390 C   0  0  0  0  0  2  0  0  0  0  0  0
  185.8880  178.3530  142.6870 C   0  0  0  0  0  2  0  0  0  0  0  0
  185.6520  179.1640  141.4230 C   0  0  0  0  0  2  0  0  0  0  0  0
  182.1730  178.2420  140.7450 N   0  0  0  0  0  0  0  0  0  0  0  0
  182.4670  178.2540  139.4300 C   0  0  0  0  0  0  0  0  0  0  0  0
  181.8330  177.9740  137.0110 C   0  0  0  0  0  1  0  0  0  0  0  0
  184.3400  178.8160  140.8070 C   0  0  0  0  0  0  0  0  0  0  0  0
  183.2170  178.5540  141.5120 N   0  0  0  0  0  0  0  0  0  0  0  0
  181.5050  177.9490  138.4200 N   0  0  0  0  0  2  0  0  0  0  0  0
  184.0810  178.6640  139.1520 S   0  0  0  0  0  0  0  0  0  0  0  0
  1  6  1  0  0  0  0
  1  8  1  0  0  0  0
  2 11  1  0  0  0  0
  2 12  2  0  0  0  0
  3 10  2  0  0  0  0
  4 15  1  0  0  0  0
  5  9  1  0  0  0  0
  7  9  1  0  0  0  0
  7  4  1  0  0  0  0
  9  1  2  0  0  0  0
 10 11  1  0  0  0  0
 11  7  2  0  0  0  0
 12  4  1  0  0  0  0
 13  2  1  0  0  0  0
 14  3  1  0  0  0  0
 14 13  1  0  0  0  0
 15  8  2  0  0  0  0
 16  3  1  0  0  0  0
 17 20  1  0  0  0  0
 18 16  1  0  0  0  0
 19 16  1  0  0  0  0
 20 21  2  0  0  0  0
 20 18  1  0  0  0  0
 21 19  1  0  0  0  0
 22 32  1  6  0  0  0
 22 24  1  0  0  0  0
 22 17  1  0  0  0  0
 23 24  1  0  0  0  0
 25 23  2  0  0  0  0
 26 23  1  1  0  0  0
 26 30  1  0  0  0  0
 27 29  1  0  0  0  0
 29 28  1  0  0  0  0
 30 28  1  0  0  0  0
 31 26  1  0  0  0  0
 31 27  2  0  0  0  0
 33 34  1  0  0  0  0
 34 32  1  0  0  0  0
 35 13  1  0  0  0  0
 36 35  1  0  0  0  0
 37 41  1  0  0  0  0
 38 37  2  0  0  0  0
 39 42  1  0  0  0  0
 40 36  1  0  0  0  0
 40 41  2  0  0  0  0
 42 38  1  0  0  0  0
 43 38  1  0  0  0  0
 43 40  1  0  0  0  0
M  END
>  <MODEL>
7

>  <REMARK>
 VINA RESULT:      -8.5      1.675      2.405
  Name = 
  9 active torsions:
  status: ('A' for Active; 'I' for Inactive)
    1  A    between atoms: C_1  and  N_34
    2  A    between atoms: C_1  and  C_35
    3  A    between atoms: N_2  and  C_13
    4  A    between atoms: N_3  and  C_4
    5  A    between atoms: C_4  and  C_15
    6  A    between atoms: C_4  and  N_22
    7  A    between atoms: C_11  and  C_14
    8  A    between atoms: C_15  and  C_42
    9  A    between atoms: C_28  and  C_35
                            x       y       z     vdW  Elec       q    Type
                         _______ _______ _______ _____ _____    ______ ____

>  <TORSDO>
F 9

$$$$
=
 OpenBabel10272414063D

 43 48  0  0  1  0  0  0  0  0999 V2000
  189.9440  176.9080  146.9820 C   0  0  0  0  0  0  0  0  0  0  0  0
  186.5500  178.3820  144.4570 C   0  0  0  0  0  0  0  0  0  0  0  0
  187.3770  178.1220  141.7560 C   0  0  0  0  0  0  0  0  0  0  0  0
  187.5110  177.9650  146.3090 N   0  0  0  0  0  0  0  0  0  0  0  0
  190.4630  176.6650  144.6450 F   0  0  0  0  0  0  0  0  0  0  0  0
  191.1380  176.3680  147.3300 F   0  0  0  0  0  0  0  0  0  0  0  0
  188.3600  177.5890  145.3330 C   0  0  0  0  0  0  0  0  0  0  0  0
  189.0460  177.3130  147.9860 C   0  0  0  0  0  3  0  0  0  0  0  0
  189.6080  177.0480  145.6260 C   0  0  0  0  0  0  0  0  0  0  0  0
  188.1930  177.7090  142.7400 C   0  0  0  0  0  3  0  0  0  0  0  0
  187.7600  177.8530  144.1240 C   0  0  0  0  0  0  0  0  0  0  0  0
  186.3910  178.4560  145.7980 N   0  0  0  0  0  0  0  0  0  0  0  0
  185.6410  178.8490  143.4610 N   0  0  0  0  0  0  0  0  0  0  0  0
  186.0040  178.7510  142.0350 C   0  0  0  0  0  2  0  0  0  0  0  0
  187.8050  177.8540  147.6270 C   0  0  0  0  0  3  0  0  0  0  0  0
  187.7890  177.9760  140.3920 N   0  0  0  0  0  0  0  0  0  0  0  0
  187.6350  177.6110  136.7570 N   0  0  0  0  0  2  0  0  0  0  0  0
  186.9480  178.0470  139.2060 C   0  0  0  0  0  2  0  0  0  0  0  0
  189.0920  177.6570  140.0050 N   0  0  0  0  0  2  0  0  0  0  0  0
  187.9490  177.7140  138.1460 C   0  0  0  0  0  0  0  0  0  0  0  0
  189.1340  177.5080  138.6200 N   0  0  0  0  0  0  0  0  0  0  0  0
  188.6560  177.3400  135.7600 C   0  0  1  0  0  3  0  0  0  0  0  0
  190.6010  175.7440  135.5160 C   0  0  0  0  0  0  0  0  0  0  0  0
  189.3370  176.0940  136.0760 N   0  0  0  0  0  2  0  0  0  0  0  0
  191.1930  176.5370  134.7370 O   0  0  0  0  0  0  0  0  0  0  0  0
  191.2400  174.4530  135.9150 C   0  0  2  0  0  3  0  0  0  0  0  0
  193.7060  174.1710  135.5910 C   0  0  0  0  0  3  0  0  0  0  0  0
  192.8390  175.1240  137.7430 C   0  0  0  0  0  2  0  0  0  0  0  0
  193.9740  174.3730  137.0600 C   0  0  0  0  0  2  0  0  0  0  0  0
  191.5150  174.4300  137.4240 C   0  0  0  0  0  2  0  0  0  0  0  0
  192.4670  174.1640  135.0810 C   0  0  0  0  0  3  0  0  0  0  0  0
  188.0370  177.2830  134.3650 C   0  0  0  0  0  2  0  0  0  0  0  0
  185.7040  176.4440  134.3910 C   0  0  0  0  0  1  0  0  0  0  0  0
  186.5700  177.6820  134.3880 C   0  0  0  0  0  2  0  0  0  0  0  0
  184.4360  179.5640  143.8440 C   0  0  0  0  0  2  0  0  0  0  0  0
  183.2900  178.5910  144.0710 C   0  0  0  0  0  2  0  0  0  0  0  0
  180.0810  179.2930  142.4490 N   0  0  0  0  0  0  0  0  0  0  0  0
  180.6940  179.1440  141.2590 C   0  0  0  0  0  0  0  0  0  0  0  0
  180.6820  179.1210  138.7430 C   0  0  0  0  0  1  0  0  0  0  0  0
  182.1770  178.8480  143.1120 C   0  0  0  0  0  0  0  0  0  0  0  0
  180.9070  179.1270  143.4820 N   0  0  0  0  0  0  0  0  0  0  0  0
  180.0080  179.2750  140.0140 N   0  0  0  0  0  2  0  0  0  0  0  0
  182.3350  178.7900  141.4380 S   0  0  0  0  0  0  0  0  0  0  0  0
  1  6  1  0  0  0  0
  1  8  1  0  0  0  0
  2 12  2  0  0  0  0
  3 14  1  0  0  0  0
  3 10  2  0  0  0  0
  4 15  1  0  0  0  0
  5  9  1  0  0  0  0
  7  9  1  0  0  0  0
  7  4  1  0  0  0  0
  9  1  2  0  0  0  0
 10 11  1  0  0  0  0
 11  2  1  0  0  0  0
 11  7  2  0  0  0  0
 12  4  1  0  0  0  0
 13 35  1  0  0  0  0
 13  2  1  0  0  0  0
 14 13  1  0  0  0  0
 15  8  2  0  0  0  0
 16  3  1  0  0  0  0
 17 20  1  0  0  0  0
 18 16  1  0  0  0  0
 19 16  1  0  0  0  0
 20 21  2  0  0  0  0
 20 18  1  0  0  0  0
 21 19  1  0  0  0  0
 22 32  1  6  0  0  0
 22 24  1  0  0  0  0
 22 17  1  0  0  0  0
 23 24  1  0  0  0  0
 25 23  2  0  0  0  0
 26 23  1  6  0  0  0
 26 30  1  0  0  0  0
 27 29  1  0  0  0  0
 29 28  1  0  0  0  0
 30 28  1  0  0  0  0
 31 27  2  0  0  0  0
 31 26  1  0  0  0  0
 32 34  1  0  0  0  0
 34 33  1  0  0  0  0
 35 36  1  0  0  0  0
 37 41  1  0  0  0  0
 38 43  1  0  0  0  0
 38 37  2  0  0  0  0
 39 42  1  0  0  0  0
 40 41  2  0  0  0  0
 40 36  1  0  0  0  0
 42 38  1  0  0  0  0
 43 40  1  0  0  0  0
M  END
>  <MODEL>
8

>  <REMARK>
 VINA RESULT:      -7.9      2.848      4.369
  Name = 
  9 active torsions:
  status: ('A' for Active; 'I' for Inactive)
    1  A    between atoms: C_1  and  N_34
    2  A    between atoms: C_1  and  C_35
    3  A    between atoms: N_2  and  C_13
    4  A    between atoms: N_3  and  C_4
    5  A    between atoms: C_4  and  C_15
    6  A    between atoms: C_4  and  N_22
    7  A    between atoms: C_11  and  C_14
    8  A    between atoms: C_15  and  C_42
    9  A    between atoms: C_28  and  C_35
                            x       y       z     vdW  Elec       q    Type
                         _______ _______ _______ _____ _____    ______ ____

>  <TORSDO>
F 9

$$$$
=
 OpenBabel10272414063D

 43 48  0  0  1  0  0  0  0  0999 V2000
  191.2300  176.5430  146.6580 C   0  0  0  0  0  0  0  0  0  0  0  0
  188.1350  177.8060  143.6750 C   0  0  0  0  0  0  0  0  0  0  0  0
  189.2210  177.2790  141.1080 C   0  0  0  0  0  0  0  0  0  0  0  0
  188.8980  177.5570  145.6460 N   0  0  0  0  0  0  0  0  0  0  0  0
  191.9740  176.0710  144.4190 F   0  0  0  0  0  0  0  0  0  0  0  0
  192.3720  176.0260  147.1740 F   0  0  0  0  0  0  0  0  0  0  0  0
  189.8320  177.0800  144.8000 C   0  0  0  0  0  0  0  0  0  0  0  0
  190.2450  177.0520  147.5230 C   0  0  0  0  0  3  0  0  0  0  0  0
  191.0330  176.5560  145.2680 C   0  0  0  0  0  0  0  0  0  0  0  0
  189.9260  176.9530  142.2040 C   0  0  0  0  0  3  0  0  0  0  0  0
  189.3610  177.2340  143.5180 C   0  0  0  0  0  0  0  0  0  0  0  0
  187.8450  178.0100  144.9800 N   0  0  0  0  0  0  0  0  0  0  0  0
  187.3390  178.1850  142.5540 N   0  0  0  0  0  0  0  0  0  0  0  0
  187.8400  177.9470  141.1870 C   0  0  0  0  0  2  0  0  0  0  0  0
  189.0580  177.5700  146.9920 C   0  0  0  0  0  3  0  0  0  0  0  0
  189.7630  176.9980  139.8130 N   0  0  0  0  0  0  0  0  0  0  0  0
  190.1050  176.8100  136.1780 N   0  0  0  0  0  2  0  0  0  0  0  0
  189.2500  177.4480  138.5280 C   0  0  0  0  0  2  0  0  0  0  0  0
  190.8580  176.1590  139.5950 N   0  0  0  0  0  2  0  0  0  0  0  0
  190.1860  176.7390  137.6000 C   0  0  0  0  0  0  0  0  0  0  0  0
  191.0730  176.0340  138.2230 N   0  0  0  0  0  0  0  0  0  0  0  0
  191.0730  176.1470  135.3220 C   0  0  1  0  0  3  0  0  0  0  0  0
  193.5800  175.8980  135.5320 C   0  0  0  0  0  0  0  0  0  0  0  0
  192.2670  175.8210  136.0850 N   0  0  0  0  0  2  0  0  0  0  0  0
  193.7490  176.2890  134.3460 O   0  0  0  0  0  0  0  0  0  0  0  0
  194.7530  175.5680  136.3970 C   0  0  2  0  0  3  0  0  0  0  0  0
  194.6290  173.5680  137.8970 C   0  0  0  0  0  3  0  0  0  0  0  0
  195.4930  173.3100  135.5570 C   0  0  0  0  0  2  0  0  0  0  0  0
  195.5030  172.7580  136.9760 C   0  0  0  0  0  2  0  0  0  0  0  0
  195.8160  174.8030  135.5970 C   0  0  0  0  0  2  0  0  0  0  0  0
  194.3250  174.8510  137.6570 C   0  0  0  0  0  3  0  0  0  0  0  0
  190.4640  174.8910  134.7010 C   0  0  0  0  0  2  0  0  0  0  0  0
  191.6920  172.7370  134.6900 C   0  0  0  0  0  1  0  0  0  0  0  0
  190.8070  173.6470  135.5070 C   0  0  0  0  0  2  0  0  0  0  0  0
  186.1170  178.9460  142.7430 C   0  0  0  0  0  2  0  0  0  0  0  0
  184.9920  178.0390  143.2120 C   0  0  0  0  0  2  0  0  0  0  0  0
  181.5630  179.0260  142.3840 N   0  0  0  0  0  0  0  0  0  0  0  0
  181.8570  178.8140  141.0870 C   0  0  0  0  0  0  0  0  0  0  0  0
  181.2380  178.7780  138.6470 C   0  0  0  0  0  1  0  0  0  0  0  0
  183.7090  178.3920  142.5390 C   0  0  0  0  0  0  0  0  0  0  0  0
  182.5940  178.7890  143.1940 N   0  0  0  0  0  0  0  0  0  0  0  0
  180.9050  179.0010  140.0380 N   0  0  0  0  0  2  0  0  0  0  0  0
  183.4540  178.3100  140.8790 S   0  0  0  0  0  0  0  0  0  0  0  0
  1  6  1  0  0  0  0
  1  8  1  0  0  0  0
  2 12  2  0  0  0  0
  3 14  1  0  0  0  0
  3 10  2  0  0  0  0
  4 15  1  0  0  0  0
  5  9  1  0  0  0  0
  7  9  1  0  0  0  0
  7  4  1  0  0  0  0
  9  1  2  0  0  0  0
 10 11  1  0  0  0  0
 11  2  1  0  0  0  0
 11  7  2  0  0  0  0
 12  4  1  0  0  0  0
 13 35  1  0  0  0  0
 13  2  1  0  0  0  0
 14 13  1  0  0  0  0
 15  8  2  0  0  0  0
 16  3  1  0  0  0  0
 17 20  1  0  0  0  0
 18 16  1  0  0  0  0
 19 16  1  0  0  0  0
 20 21  2  0  0  0  0
 20 18  1  0  0  0  0
 21 19  1  0  0  0  0
 22 32  1  1  0  0  0
 22 24  1  0  0  0  0
 22 17  1  0  0  0  0
 23 24  1  0  0  0  0
 25 23  2  0  0  0  0
 26 23  1  6  0  0  0
 26 31  1  0  0  0  0
 28 30  1  0  0  0  0
 28 29  1  0  0  0  0
 29 27  1  0  0  0  0
 30 26  1  0  0  0  0
 31 27  2  0  0  0  0
 32 34  1  0  0  0  0
 33 34  1  0  0  0  0
 35 36  1  0  0  0  0
 37 41  1  0  0  0  0
 38 37  2  0  0  0  0
 39 42  1  0  0  0  0
 40 41  2  0  0  0  0
 40 36  1  0  0  0  0
 42 38  1  0  0  0  0
 43 38  1  0  0  0  0
 43 40  1  0  0  0  0
M  END
>  <MODEL>
9

>  <REMARK>
 VINA RESULT:      -7.8      1.998      2.709
  Name = 
  9 active torsions:
  status: ('A' for Active; 'I' for Inactive)
    1  A    between atoms: C_1  and  N_34
    2  A    between atoms: C_1  and  C_35
    3  A    between atoms: N_2  and  C_13
    4  A    between atoms: N_3  and  C_4
    5  A    between atoms: C_4  and  C_15
    6  A    between atoms: C_4  and  N_22
    7  A    between atoms: C_11  and  C_14
    8  A    between atoms: C_15  and  C_42
    9  A    between atoms: C_28  and  C_35
                            x       y       z     vdW  Elec       q    Type
                         _______ _______ _______ _____ _____    ______ ____

>  <TORSDO>
F 9

$$$$
