=
 OpenBabel10272401033D

 27 31  0  0  0  0  0  0  0  0999 V2000
  187.3120  178.6330  141.4160 C   0  0  0  0  0  3  0  0  0  0  0  0
  187.4410  177.8480  143.8150 C   0  0  0  0  0  0  0  0  0  0  0  0
  189.6330  177.2740  142.8150 C   0  0  0  0  0  3  0  0  0  0  0  0
  189.5620  177.1480  147.5080 C   0  0  0  0  0  2  0  0  0  0  0  0
  191.9420  176.3340  147.6060 N   0  0  0  0  0  1  0  0  0  0  0  0
  186.7330  177.8580  145.0490 C   0  0  0  0  0  3  0  0  0  0  0  0
  190.8030  177.0650  145.5200 C   0  0  0  0  0  0  0  0  0  0  0  0
  190.1810  176.2850  139.2090 C   0  0  0  0  0  3  0  0  0  0  0  0
  191.7760  176.8780  144.7410 O   0  0  0  0  0  0  0  0  0  0  0  0
  189.8460  177.1640  138.2700 C   0  0  0  0  0  3  0  0  0  0  0  0
  189.4380  177.3820  145.1320 C   0  0  0  0  0  0  0  0  0  0  0  0
  186.7310  178.1820  142.6960 C   0  0  0  0  0  0  0  0  0  0  0  0
  190.8910  176.9690  146.9330 N   0  0  0  0  0  0  0  0  0  0  0  0
  188.7130  177.4290  146.3020 C   0  0  0  0  0  0  0  0  0  0  0  0
  188.4320  178.2740  140.8030 C   0  0  0  0  0  0  0  0  0  0  0  0
  188.8460  177.5480  143.8620 C   0  0  0  0  0  0  0  0  0  0  0  0
  190.1060  176.4540  140.6670 C   0  0  0  0  0  3  0  0  0  0  0  0
  187.3490  177.6450  146.2840 C   0  0  0  0  0  3  0  0  0  0  0  0
  189.3030  178.5120  138.4630 C   0  0  0  0  0  3  0  0  0  0  0  0
  188.6910  178.9840  139.5450 C   0  0  0  0  0  3  0  0  0  0  0  0
  189.3620  177.2990  141.3830 C   0  0  0  0  0  0  0  0  0  0  0  0
  182.4990  178.6660  142.8050 N   0  0  0  0  0  0  0  0  0  0  0  0
  185.2500  178.3320  142.7400 C   0  0  0  0  0  0  0  0  0  0  0  0
  184.4770  178.1010  141.5930 C   0  0  0  0  0  3  0  0  0  0  0  0
  183.0930  178.2710  141.6480 C   0  0  0  0  0  3  0  0  0  0  0  0
  183.2230  178.9080  143.9300 C   0  0  0  0  0  3  0  0  0  0  0  0
  184.6110  178.7490  143.9170 C   0  0  0  0  0  3  0  0  0  0  0  0
  1 12  1  0  0  0  0
  2 16  1  0  0  0  0
  2  6  1  0  0  0  0
  3 16  2  0  0  0  0
  6 18  2  0  0  0  0
  7 13  1  0  0  0  0
  8 17  1  0  0  0  0
  9  7  2  0  0  0  0
 10 19  1  0  0  0  0
 10  8  2  0  0  0  0
 11  7  1  0  0  0  0
 11 14  2  0  0  0  0
 12 23  1  0  0  0  0
 12  2  2  0  0  0  0
 13  4  1  0  0  0  0
 13  5  1  0  0  0  0
 14  4  1  0  0  0  0
 15 21  1  0  0  0  0
 15  1  2  0  0  0  0
 16 11  1  0  0  0  0
 17 21  2  0  0  0  0
 18 14  1  0  0  0  0
 19 20  2  0  0  0  0
 20 15  1  0  0  0  0
 21  3  1  0  0  0  0
 22 26  1  0  0  0  0
 23 27  1  0  0  0  0
 24 25  1  0  0  0  0
 24 23  2  0  0  0  0
 25 22  2  0  0  0  0
 27 26  2  0  0  0  0
M  END
>  <MODEL>
1

>  <REMARK>
 VINA RESULT:     -11.0      0.000      0.000
  Name = 
  1 active torsions:
  status: ('A' for Active; 'I' for Inactive)
    1  A    between atoms: C_9  and  C_15
                            x       y       z     vdW  Elec       q    Type
                         _______ _______ _______ _____ _____    ______ ____

>  <TORSDO>
F 1

$$$$
=
 OpenBabel10272401033D

 27 31  0  0  0  0  0  0  0  0999 V2000
  188.2520  177.0720  143.9430 C   0  0  0  0  0  3  0  0  0  0  0  0
  186.0490  178.1710  144.5160 C   0  0  0  0  0  0  0  0  0  0  0  0
  186.1780  178.2030  142.0430 C   0  0  0  0  0  3  0  0  0  0  0  0
  181.8890  179.0350  143.7600 C   0  0  0  0  0  2  0  0  0  0  0  0
  180.9520  179.4320  141.4570 N   0  0  0  0  0  1  0  0  0  0  0  0
  185.1800  178.4670  145.6030 C   0  0  0  0  0  3  0  0  0  0  0  0
  183.2550  178.6070  141.9030 C   0  0  0  0  0  0  0  0  0  0  0  0
  189.3660  178.5360  140.0410 C   0  0  0  0  0  3  0  0  0  0  0  0
  183.6160  178.5060  140.7000 O   0  0  0  0  0  0  0  0  0  0  0  0
  190.2960  177.5990  140.1980 C   0  0  0  0  0  3  0  0  0  0  0  0
  184.1090  178.4760  143.0730 C   0  0  0  0  0  0  0  0  0  0  0  0
  187.3270  177.8020  144.8320 C   0  0  0  0  0  0  0  0  0  0  0  0
  181.9260  178.8950  142.3080 N   0  0  0  0  0  0  0  0  0  0  0  0
  183.3030  178.7290  144.1600 C   0  0  0  0  0  0  0  0  0  0  0  0
  188.4170  177.1380  142.6300 C   0  0  0  0  0  0  0  0  0  0  0  0
  185.4930  178.2280  143.1910 C   0  0  0  0  0  0  0  0  0  0  0  0
  188.0390  178.6010  140.6670 C   0  0  0  0  0  3  0  0  0  0  0  0
  183.8230  178.7510  145.4400 C   0  0  0  0  0  3  0  0  0  0  0  0
  190.2250  176.4090  141.0520 C   0  0  0  0  0  3  0  0  0  0  0  0
  189.4270  176.2150  142.0960 C   0  0  0  0  0  3  0  0  0  0  0  0
  187.6010  178.0130  141.7820 C   0  0  0  0  0  0  0  0  0  0  0  0
  188.7780  178.0780  148.8290 N   0  0  0  0  0  0  0  0  0  0  0  0
  187.8390  177.9180  146.2260 C   0  0  0  0  0  0  0  0  0  0  0  0
  189.1720  177.6020  146.5230 C   0  0  0  0  0  3  0  0  0  0  0  0
  189.6270  177.6930  147.8390 C   0  0  0  0  0  3  0  0  0  0  0  0
  187.4770  178.3800  148.5740 C   0  0  0  0  0  3  0  0  0  0  0  0
  186.9840  178.3020  147.2690 C   0  0  0  0  0  3  0  0  0  0  0  0
  1 12  1  0  0  0  0
  2 12  2  0  0  0  0
  2  6  1  0  0  0  0
  3 16  2  0  0  0  0
  4 14  1  0  0  0  0
  5 13  1  0  0  0  0
  7 13  1  0  0  0  0
  7 11  1  0  0  0  0
  8 10  2  0  0  0  0
  8 17  1  0  0  0  0
  9  7  2  0  0  0  0
 10 19  1  0  0  0  0
 11 16  1  0  0  0  0
 11 14  2  0  0  0  0
 12 23  1  0  0  0  0
 13  4  1  0  0  0  0
 14 18  1  0  0  0  0
 15  1  2  0  0  0  0
 16  2  1  0  0  0  0
 17 21  2  0  0  0  0
 18  6  2  0  0  0  0
 19 20  2  0  0  0  0
 20 15  1  0  0  0  0
 21  3  1  0  0  0  0
 21 15  1  0  0  0  0
 23 24  2  0  0  0  0
 23 27  1  0  0  0  0
 24 25  1  0  0  0  0
 25 22  2  0  0  0  0
 26 22  1  0  0  0  0
 27 26  2  0  0  0  0
M  END
>  <MODEL>
2

>  <REMARK>
 VINA RESULT:     -11.0      2.258      6.001
  Name = 
  1 active torsions:
  status: ('A' for Active; 'I' for Inactive)
    1  A    between atoms: C_9  and  C_15
                            x       y       z     vdW  Elec       q    Type
                         _______ _______ _______ _____ _____    ______ ____

>  <TORSDO>
F 1

$$$$
=
 OpenBabel10272401033D

 27 31  0  0  0  0  0  0  0  0999 V2000
  189.5900  178.3800  141.9020 C   0  0  0  0  0  3  0  0  0  0  0  0
  187.1520  178.1690  141.2720 C   0  0  0  0  0  0  0  0  0  0  0  0
  187.2070  178.0450  143.7450 C   0  0  0  0  0  3  0  0  0  0  0  0
  182.9460  178.8610  141.9500 C   0  0  0  0  0  2  0  0  0  0  0  0
  181.8800  178.7880  144.2290 N   0  0  0  0  0  1  0  0  0  0  0  0
  186.2580  178.2290  140.1670 C   0  0  0  0  0  3  0  0  0  0  0  0
  184.3340  178.7280  143.8360 C   0  0  0  0  0  0  0  0  0  0  0  0
  190.0120  176.5380  145.7800 C   0  0  0  0  0  3  0  0  0  0  0  0
  184.6810  178.6690  145.0450 O   0  0  0  0  0  0  0  0  0  0  0  0
  191.2220  177.0770  145.6590 C   0  0  0  0  0  3  0  0  0  0  0  0
  185.2030  178.5620  142.6810 C   0  0  0  0  0  0  0  0  0  0  0  0
  188.4830  178.0540  140.9820 C   0  0  0  0  0  0  0  0  0  0  0  0
  183.0000  178.9510  143.4050 N   0  0  0  0  0  0  0  0  0  0  0  0
  184.3830  178.6400  141.5770 C   0  0  0  0  0  0  0  0  0  0  0  0
  189.6920  178.2340  143.2150 C   0  0  0  0  0  0  0  0  0  0  0  0
  186.5840  178.2930  142.5870 C   0  0  0  0  0  0  0  0  0  0  0  0
  188.7660  176.9720  145.1350 C   0  0  0  0  0  3  0  0  0  0  0  0
  184.8870  178.4540  140.3040 C   0  0  0  0  0  3  0  0  0  0  0  0
  191.6070  178.2270  144.8350 C   0  0  0  0  0  3  0  0  0  0  0  0
  190.9560  178.7170  143.7850 C   0  0  0  0  0  3  0  0  0  0  0  0
  188.5950  177.7000  144.0300 C   0  0  0  0  0  0  0  0  0  0  0  0
  189.8680  177.3030  137.0230 N   0  0  0  0  0  0  0  0  0  0  0  0
  188.9480  177.7850  139.5930 C   0  0  0  0  0  0  0  0  0  0  0  0
  189.4900  176.5380  139.2530 C   0  0  0  0  0  3  0  0  0  0  0  0
  189.9430  176.3140  137.9520 C   0  0  0  0  0  3  0  0  0  0  0  0
  189.3570  178.5270  137.3260 C   0  0  0  0  0  3  0  0  0  0  0  0
  188.8920  178.7910  138.6160 C   0  0  0  0  0  3  0  0  0  0  0  0
  1 15  1  0  0  0  0
  2 16  1  0  0  0  0
  3 21  2  0  0  0  0
  4 13  1  0  0  0  0
  6 18  1  0  0  0  0
  6  2  2  0  0  0  0
  7  9  2  0  0  0  0
 10  8  1  0  0  0  0
 11  7  1  0  0  0  0
 12  2  1  0  0  0  0
 12  1  2  0  0  0  0
 13  7  1  0  0  0  0
 13  5  1  0  0  0  0
 14  4  1  0  0  0  0
 14 11  1  0  0  0  0
 15 20  2  0  0  0  0
 15 21  1  0  0  0  0
 16 11  2  0  0  0  0
 16  3  1  0  0  0  0
 17  8  2  0  0  0  0
 18 14  2  0  0  0  0
 19 10  2  0  0  0  0
 20 19  1  0  0  0  0
 21 17  1  0  0  0  0
 22 26  2  0  0  0  0
 22 25  1  0  0  0  0
 23 12  1  0  0  0  0
 24 23  1  0  0  0  0
 25 24  2  0  0  0  0
 26 27  1  0  0  0  0
 27 23  2  0  0  0  0
M  END
>  <MODEL>
3

>  <REMARK>
 VINA RESULT:      -9.6      3.100      6.349
  Name = 
  1 active torsions:
  status: ('A' for Active; 'I' for Inactive)
    1  A    between atoms: C_9  and  C_15
                            x       y       z     vdW  Elec       q    Type
                         _______ _______ _______ _____ _____    ______ ____

>  <TORSDO>
F 1

$$$$
=
 OpenBabel10272401033D

 27 31  0  0  0  0  0  0  0  0999 V2000
  186.5790  177.4230  145.0970 C   0  0  0  0  0  3  0  0  0  0  0  0
  187.4500  177.9590  142.7860 C   0  0  0  0  0  0  0  0  0  0  0  0
  189.4630  177.7040  144.2060 C   0  0  0  0  0  3  0  0  0  0  0  0
  190.3300  177.5760  139.5940 C   0  0  0  0  0  2  0  0  0  0  0  0
  192.8120  177.4080  139.9800 N   0  0  0  0  0  1  0  0  0  0  0  0
  187.0400  178.1500  141.4370 C   0  0  0  0  0  3  0  0  0  0  0  0
  191.1090  177.2920  141.7880 C   0  0  0  0  0  0  0  0  0  0  0  0
  189.6630  178.6140  147.8690 C   0  0  0  0  0  3  0  0  0  0  0  0
  191.9130  177.1360  142.7450 O   0  0  0  0  0  0  0  0  0  0  0  0
  188.8430  177.9860  148.7070 C   0  0  0  0  0  3  0  0  0  0  0  0
  189.6800  177.5460  141.8950 C   0  0  0  0  0  0  0  0  0  0  0  0
  186.4700  177.9880  143.7380 C   0  0  0  0  0  0  0  0  0  0  0  0
  191.4910  177.2650  140.4210 N   0  0  0  0  0  0  0  0  0  0  0  0
  189.2290  177.7130  140.6040 C   0  0  0  0  0  0  0  0  0  0  0  0
  187.6130  177.3600  145.9240 C   0  0  0  0  0  0  0  0  0  0  0  0
  188.8440  177.6930  143.0200 C   0  0  0  0  0  0  0  0  0  0  0  0
  189.8040  178.4030  146.4220 C   0  0  0  0  0  3  0  0  0  0  0  0
  187.9100  178.0390  140.3510 C   0  0  0  0  0  3  0  0  0  0  0  0
  187.8670  176.9420  148.3840 C   0  0  0  0  0  3  0  0  0  0  0  0
  187.3350  176.6790  147.1940 C   0  0  0  0  0  3  0  0  0  0  0  0
  188.9390  177.8690  145.5570 C   0  0  0  0  0  0  0  0  0  0  0  0
  182.4820  179.1630  142.8020 N   0  0  0  0  0  0  0  0  0  0  0  0
  185.0830  178.4160  143.4020 C   0  0  0  0  0  0  0  0  0  0  0  0
  184.3290  179.1640  144.3150 C   0  0  0  0  0  3  0  0  0  0  0  0
  183.0220  179.5340  143.9930 C   0  0  0  0  0  3  0  0  0  0  0  0
  183.1850  178.4280  141.9000 C   0  0  0  0  0  3  0  0  0  0  0  0
  184.4960  178.0380  142.1850 C   0  0  0  0  0  3  0  0  0  0  0  0
  1 15  1  0  0  0  0
  2 16  1  0  0  0  0
  2 12  1  0  0  0  0
  3 21  2  0  0  0  0
  4 13  1  0  0  0  0
  4 14  1  0  0  0  0
  5 13  1  0  0  0  0
  6  2  2  0  0  0  0
  7 11  1  0  0  0  0
  7  9  2  0  0  0  0
  8 10  1  0  0  0  0
 11 16  2  0  0  0  0
 12  1  2  0  0  0  0
 13  7  1  0  0  0  0
 14 11  1  0  0  0  0
 15 20  2  0  0  0  0
 16  3  1  0  0  0  0
 17  8  2  0  0  0  0
 18 14  2  0  0  0  0
 18  6  1  0  0  0  0
 19 10  2  0  0  0  0
 20 19  1  0  0  0  0
 21 15  1  0  0  0  0
 21 17  1  0  0  0  0
 22 25  1  0  0  0  0
 23 12  1  0  0  0  0
 23 24  1  0  0  0  0
 25 24  2  0  0  0  0
 26 27  1  0  0  0  0
 26 22  2  0  0  0  0
 27 23  2  0  0  0  0
M  END
>  <MODEL>
4

>  <REMARK>
 VINA RESULT:      -9.5      2.155      5.320
  Name = 
  1 active torsions:
  status: ('A' for Active; 'I' for Inactive)
    1  A    between atoms: C_9  and  C_15
                            x       y       z     vdW  Elec       q    Type
                         _______ _______ _______ _____ _____    ______ ____

>  <TORSDO>
F 1

$$$$
=
 OpenBabel10272401033D

 27 31  0  0  0  0  0  0  0  0999 V2000
  186.7960  178.7110  140.5470 C   0  0  0  0  0  3  0  0  0  0  0  0
  185.7300  178.3550  142.8110 C   0  0  0  0  0  0  0  0  0  0  0  0
  188.1090  177.7260  143.0960 C   0  0  0  0  0  3  0  0  0  0  0  0
  185.7980  178.4000  147.1260 C   0  0  0  0  0  2  0  0  0  0  0  0
  187.8060  177.7310  148.4880 N   0  0  0  0  0  1  0  0  0  0  0  0
  184.5200  178.5410  143.5350 C   0  0  0  0  0  3  0  0  0  0  0  0
  187.8340  178.0380  146.0200 C   0  0  0  0  0  0  0  0  0  0  0  0
  190.2750  176.1630  140.4220 C   0  0  0  0  0  3  0  0  0  0  0  0
  189.0520  177.7690  145.8470 O   0  0  0  0  0  0  0  0  0  0  0  0
  190.4650  176.8510  139.3010 C   0  0  0  0  0  3  0  0  0  0  0  0
  186.8340  178.2180  144.9790 C   0  0  0  0  0  0  0  0  0  0  0  0
  185.6560  178.4580  141.4500 C   0  0  0  0  0  0  0  0  0  0  0  0
  187.2310  178.1900  147.2960 N   0  0  0  0  0  0  0  0  0  0  0  0
  185.6400  178.4290  145.6340 C   0  0  0  0  0  0  0  0  0  0  0  0
  188.0570  178.3080  140.6160 C   0  0  0  0  0  0  0  0  0  0  0  0
  186.9290  178.1360  143.5750 C   0  0  0  0  0  0  0  0  0  0  0  0
  189.5190  176.5750  141.6130 C   0  0  0  0  0  3  0  0  0  0  0  0
  184.4600  178.5730  144.9290 C   0  0  0  0  0  3  0  0  0  0  0  0
  189.9500  178.1840  138.9750 C   0  0  0  0  0  3  0  0  0  0  0  0
  188.9140  178.8040  139.5330 C   0  0  0  0  0  3  0  0  0  0  0  0
  188.5570  177.4920  141.7280 C   0  0  0  0  0  0  0  0  0  0  0  0
  181.9150  178.6580  139.4200 N   0  0  0  0  0  0  0  0  0  0  0  0
  184.3420  178.5410  140.7550 C   0  0  0  0  0  0  0  0  0  0  0  0
  183.3340  177.6050  141.0260 C   0  0  0  0  0  3  0  0  0  0  0  0
  182.1170  177.6840  140.3460 C   0  0  0  0  0  3  0  0  0  0  0  0
  182.8770  179.5740  139.1280 C   0  0  0  0  0  3  0  0  0  0  0  0
  184.1080  179.5290  139.7870 C   0  0  0  0  0  3  0  0  0  0  0  0
  1 15  2  0  0  0  0
  1 12  1  0  0  0  0
  2  6  1  0  0  0  0
  2 16  1  0  0  0  0
  3 16  2  0  0  0  0
  4 13  1  0  0  0  0
  6 18  2  0  0  0  0
  7 13  1  0  0  0  0
  8 17  1  0  0  0  0
  9  7  2  0  0  0  0
 10  8  2  0  0  0  0
 11 14  2  0  0  0  0
 11  7  1  0  0  0  0
 12  2  2  0  0  0  0
 13  5  1  0  0  0  0
 14  4  1  0  0  0  0
 15 21  1  0  0  0  0
 16 11  1  0  0  0  0
 17 21  2  0  0  0  0
 18 14  1  0  0  0  0
 19 10  1  0  0  0  0
 19 20  2  0  0  0  0
 20 15  1  0  0  0  0
 21  3  1  0  0  0  0
 22 25  1  0  0  0  0
 23 24  1  0  0  0  0
 23 12  1  0  0  0  0
 25 24  2  0  0  0  0
 26 22  2  0  0  0  0
 26 27  1  0  0  0  0
 27 23  2  0  0  0  0
M  END
>  <MODEL>
5

>  <REMARK>
 VINA RESULT:      -9.4      1.811      2.661
  Name = 
  1 active torsions:
  status: ('A' for Active; 'I' for Inactive)
    1  A    between atoms: C_9  and  C_15
                            x       y       z     vdW  Elec       q    Type
                         _______ _______ _______ _____ _____    ______ ____

>  <TORSDO>
F 1

$$$$
=
 OpenBabel10272401033D

 27 31  0  0  0  0  0  0  0  0999 V2000
  186.5280  178.7880  144.4430 C   0  0  0  0  0  3  0  0  0  0  0  0
  188.3480  177.7880  143.0020 C   0  0  0  0  0  0  0  0  0  0  0  0
  186.4750  178.2740  141.4560 C   0  0  0  0  0  3  0  0  0  0  0  0
  190.5790  177.4690  139.3210 C   0  0  0  0  0  2  0  0  0  0  0  0
  189.5260  177.6560  137.0420 N   0  0  0  0  0  1  0  0  0  0  0  0
  189.6990  177.3420  143.0310 C   0  0  0  0  0  3  0  0  0  0  0  0
  188.3440  178.1640  139.1700 C   0  0  0  0  0  0  0  0  0  0  0  0
  182.8110  178.1030  142.3640 C   0  0  0  0  0  3  0  0  0  0  0  0
  187.2400  178.4890  138.6580 O   0  0  0  0  0  0  0  0  0  0  0  0
  182.3770  178.9010  143.3340 C   0  0  0  0  0  3  0  0  0  0  0  0
  188.6120  177.9670  140.5860 C   0  0  0  0  0  0  0  0  0  0  0  0
  187.7330  177.9680  144.2100 C   0  0  0  0  0  0  0  0  0  0  0  0
  189.5220  177.9120  138.4190 N   0  0  0  0  0  0  0  0  0  0  0  0
  189.9250  177.5580  140.6690 C   0  0  0  0  0  0  0  0  0  0  0  0
  185.4630  178.9910  143.6810 C   0  0  0  0  0  0  0  0  0  0  0  0
  187.7710  178.0640  141.7140 C   0  0  0  0  0  0  0  0  0  0  0  0
  184.1680  178.0200  141.8060 C   0  0  0  0  0  3  0  0  0  0  0  0
  190.4870  177.2180  141.8850 C   0  0  0  0  0  3  0  0  0  0  0  0
  183.1550  179.8820  144.0960 C   0  0  0  0  0  3  0  0  0  0  0  0
  184.4750  179.9160  144.2500 C   0  0  0  0  0  3  0  0  0  0  0  0
  185.3290  178.3920  142.3490 C   0  0  0  0  0  0  0  0  0  0  0  0
  189.5720  176.7210  147.8460 N   0  0  0  0  0  0  0  0  0  0  0  0
  188.3740  177.5120  145.4750 C   0  0  0  0  0  0  0  0  0  0  0  0
  187.6050  177.3160  146.6300 C   0  0  0  0  0  3  0  0  0  0  0  0
  188.2270  176.9130  147.8130 C   0  0  0  0  0  3  0  0  0  0  0  0
  190.3460  176.9130  146.7440 C   0  0  0  0  0  3  0  0  0  0  0  0
  189.7610  177.3160  145.5410 C   0  0  0  0  0  3  0  0  0  0  0  0
  2  6  1  0  0  0  0
  2 12  2  0  0  0  0
  3 16  2  0  0  0  0
  3 21  1  0  0  0  0
  4 14  1  0  0  0  0
  5 13  1  0  0  0  0
  7 11  1  0  0  0  0
  8 10  2  0  0  0  0
  9  7  2  0  0  0  0
 10 19  1  0  0  0  0
 11 14  2  0  0  0  0
 11 16  1  0  0  0  0
 12  1  1  0  0  0  0
 12 23  1  0  0  0  0
 13  7  1  0  0  0  0
 13  4  1  0  0  0  0
 14 18  1  0  0  0  0
 15 20  1  0  0  0  0
 15  1  2  0  0  0  0
 16  2  1  0  0  0  0
 17 21  2  0  0  0  0
 17  8  1  0  0  0  0
 18  6  2  0  0  0  0
 19 20  2  0  0  0  0
 21 15  1  0  0  0  0
 23 27  2  0  0  0  0
 23 24  1  0  0  0  0
 24 25  2  0  0  0  0
 25 22  1  0  0  0  0
 26 22  2  0  0  0  0
 27 26  1  0  0  0  0
M  END
>  <MODEL>
6

>  <REMARK>
 VINA RESULT:      -9.3      2.948      6.479
  Name = 
  1 active torsions:
  status: ('A' for Active; 'I' for Inactive)
    1  A    between atoms: C_9  and  C_15
                            x       y       z     vdW  Elec       q    Type
                         _______ _______ _______ _____ _____    ______ ____

>  <TORSDO>
F 1

$$$$
=
 OpenBabel10272401033D

 27 31  0  0  0  0  0  0  0  0999 V2000
  187.5390  177.4430  144.0040 C   0  0  0  0  0  3  0  0  0  0  0  0
  186.6530  178.2710  141.7860 C   0  0  0  0  0  0  0  0  0  0  0  0
  189.0950  178.0060  141.4640 C   0  0  0  0  0  3  0  0  0  0  0  0
  186.6560  178.4130  137.4730 C   0  0  0  0  0  2  0  0  0  0  0  0
  188.7560  178.3720  136.0860 N   0  0  0  0  0  1  0  0  0  0  0  0
  185.4510  178.5730  141.0880 C   0  0  0  0  0  3  0  0  0  0  0  0
  188.6950  177.9570  138.5370 C   0  0  0  0  0  0  0  0  0  0  0  0
  191.7070  178.5440  144.1400 C   0  0  0  0  0  3  0  0  0  0  0  0
  189.9290  177.7570  138.6890 O   0  0  0  0  0  0  0  0  0  0  0  0
  191.6460  177.7800  145.2260 C   0  0  0  0  0  3  0  0  0  0  0  0
  187.7090  178.1020  139.5960 C   0  0  0  0  0  0  0  0  0  0  0  0
  186.5600  178.1360  143.1430 C   0  0  0  0  0  0  0  0  0  0  0  0
  188.0650  178.0970  137.2730 N   0  0  0  0  0  0  0  0  0  0  0  0
  186.5140  178.3720  138.9660 C   0  0  0  0  0  0  0  0  0  0  0  0
  188.8590  177.3640  143.9180 C   0  0  0  0  0  0  0  0  0  0  0  0
  187.8410  178.0770  141.0000 C   0  0  0  0  0  0  0  0  0  0  0  0
  190.8410  178.4930  142.9540 C   0  0  0  0  0  3  0  0  0  0  0  0
  185.3700  178.6330  139.6960 C   0  0  0  0  0  3  0  0  0  0  0  0
  190.6840  176.7120  145.5110 C   0  0  0  0  0  3  0  0  0  0  0  0
  189.4880  176.5380  144.9560 C   0  0  0  0  0  3  0  0  0  0  0  0
  189.6110  177.9950  142.8270 C   0  0  0  0  0  0  0  0  0  0  0  0
  182.9750  179.1290  145.2210 N   0  0  0  0  0  0  0  0  0  0  0  0
  185.3130  178.5030  143.8690 C   0  0  0  0  0  0  0  0  0  0  0  0
  185.2680  178.4660  145.2700 C   0  0  0  0  0  3  0  0  0  0  0  0
  184.0820  178.7880  145.9320 C   0  0  0  0  0  3  0  0  0  0  0  0
  182.9840  179.1630  143.8620 C   0  0  0  0  0  3  0  0  0  0  0  0
  184.1520  178.8480  143.1620 C   0  0  0  0  0  3  0  0  0  0  0  0
  2 12  1  0  0  0  0
  3 21  2  0  0  0  0
  4 14  1  0  0  0  0
  5 13  1  0  0  0  0
  6  2  1  0  0  0  0
  7  9  2  0  0  0  0
  7 11  1  0  0  0  0
  8 10  1  0  0  0  0
 10 19  2  0  0  0  0
 11 16  1  0  0  0  0
 12 23  1  0  0  0  0
 12  1  2  0  0  0  0
 13  4  1  0  0  0  0
 13  7  1  0  0  0  0
 14 11  2  0  0  0  0
 14 18  1  0  0  0  0
 15  1  1  0  0  0  0
 15 20  2  0  0  0  0
 16  3  1  0  0  0  0
 16  2  2  0  0  0  0
 17  8  2  0  0  0  0
 18  6  2  0  0  0  0
 20 19  1  0  0  0  0
 21 17  1  0  0  0  0
 21 15  1  0  0  0  0
 22 25  1  0  0  0  0
 23 24  1  0  0  0  0
 24 25  2  0  0  0  0
 26 22  2  0  0  0  0
 27 26  1  0  0  0  0
 27 23  2  0  0  0  0
M  END
>  <MODEL>
7

>  <REMARK>
 VINA RESULT:      -9.3      3.054      5.711
  Name = 
  1 active torsions:
  status: ('A' for Active; 'I' for Inactive)
    1  A    between atoms: C_9  and  C_15
                            x       y       z     vdW  Elec       q    Type
                         _______ _______ _______ _____ _____    ______ ____

>  <TORSDO>
F 1

$$$$
=
 OpenBabel10272401033D

 27 31  0  0  0  0  0  0  0  0999 V2000
  190.8460  177.6520  141.1920 C   0  0  0  0  0  3  0  0  0  0  0  0
  188.8130  177.4850  139.7000 C   0  0  0  0  0  0  0  0  0  0  0  0
  187.9360  178.0380  141.9500 C   0  0  0  0  0  3  0  0  0  0  0  0
  184.8570  178.6930  138.4670 C   0  0  0  0  0  2  0  0  0  0  0  0
  183.0380  179.3370  140.0840 N   0  0  0  0  0  1  0  0  0  0  0  0
  188.4120  177.3170  138.3450 C   0  0  0  0  0  3  0  0  0  0  0  0
  185.4100  178.9630  140.7300 C   0  0  0  0  0  0  0  0  0  0  0  0
  189.4730  176.9120  145.2130 C   0  0  0  0  0  3  0  0  0  0  0  0
  185.2730  179.2070  141.9590 O   0  0  0  0  0  0  0  0  0  0  0  0
  190.7200  177.2920  145.4730 C   0  0  0  0  0  3  0  0  0  0  0  0
  186.5930  178.4140  140.0870 C   0  0  0  0  0  0  0  0  0  0  0  0
  190.1110  177.1830  140.0010 C   0  0  0  0  0  0  0  0  0  0  0  0
  184.3910  179.1720  139.7640 N   0  0  0  0  0  0  0  0  0  0  0  0
  186.2630  178.2560  138.7590 C   0  0  0  0  0  0  0  0  0  0  0  0
  190.4320  177.8630  142.4330 C   0  0  0  0  0  0  0  0  0  0  0  0
  187.8370  178.0120  140.6160 C   0  0  0  0  0  0  0  0  0  0  0  0
  188.6520  177.2580  144.0450 C   0  0  0  0  0  3  0  0  0  0  0  0
  187.1530  177.6870  137.8690 C   0  0  0  0  0  3  0  0  0  0  0  0
  191.5860  178.1360  144.6440 C   0  0  0  0  0  3  0  0  0  0  0  0
  191.4660  178.3730  143.3410 C   0  0  0  0  0  3  0  0  0  0  0  0
  189.0350  177.6670  142.8350 C   0  0  0  0  0  0  0  0  0  0  0  0
  192.6500  175.2080  137.2060 N   0  0  0  0  0  0  0  0  0  0  0  0
  190.9930  176.5060  139.0090 C   0  0  0  0  0  0  0  0  0  0  0  0
  190.5180  175.4230  138.2580 C   0  0  0  0  0  3  0  0  0  0  0  0
  191.3670  174.7850  137.3510 C   0  0  0  0  0  3  0  0  0  0  0  0
  193.1430  176.2490  137.9290 C   0  0  0  0  0  3  0  0  0  0  0  0
  192.3250  176.9130  138.8460 C   0  0  0  0  0  3  0  0  0  0  0  0
  1 15  1  0  0  0  0
  2 12  1  0  0  0  0
  2 16  1  0  0  0  0
  3 21  2  0  0  0  0
  4 14  1  0  0  0  0
  4 13  1  0  0  0  0
  6  2  2  0  0  0  0
  7  9  2  0  0  0  0
  8 10  1  0  0  0  0
 11 16  2  0  0  0  0
 11  7  1  0  0  0  0
 12  1  2  0  0  0  0
 13  5  1  0  0  0  0
 13  7  1  0  0  0  0
 14 11  1  0  0  0  0
 15 21  1  0  0  0  0
 15 20  2  0  0  0  0
 16  3  1  0  0  0  0
 17  8  2  0  0  0  0
 18  6  1  0  0  0  0
 18 14  2  0  0  0  0
 19 10  2  0  0  0  0
 20 19  1  0  0  0  0
 21 17  1  0  0  0  0
 22 25  2  0  0  0  0
 22 26  1  0  0  0  0
 23 12  1  0  0  0  0
 24 23  2  0  0  0  0
 25 24  1  0  0  0  0
 26 27  2  0  0  0  0
 27 23  1  0  0  0  0
M  END
>  <MODEL>
8

>  <REMARK>
 VINA RESULT:      -8.9      3.585      7.467
  Name = 
  1 active torsions:
  status: ('A' for Active; 'I' for Inactive)
    1  A    between atoms: C_9  and  C_15
                            x       y       z     vdW  Elec       q    Type
                         _______ _______ _______ _____ _____    ______ ____

>  <TORSDO>
F 1

$$$$
=
 OpenBabel10272401033D

 27 31  0  0  0  0  0  0  0  0999 V2000
  183.8590  178.8070  142.8630 C   0  0  0  0  0  3  0  0  0  0  0  0
  186.1800  178.3260  141.9870 C   0  0  0  0  0  0  0  0  0  0  0  0
  184.6700  178.0380  140.0450 C   0  0  0  0  0  3  0  0  0  0  0  0
  189.2110  178.4210  138.9160 C   0  0  0  0  0  2  0  0  0  0  0  0
  188.7210  178.0520  136.4740 N   0  0  0  0  0  1  0  0  0  0  0  0
  187.5550  178.3480  142.3510 C   0  0  0  0  0  3  0  0  0  0  0  0
  186.9730  178.3370  138.2190 C   0  0  0  0  0  0  0  0  0  0  0  0
  181.1160  176.7690  140.2310 C   0  0  0  0  0  3  0  0  0  0  0  0
  185.9770  178.2390  137.4550 O   0  0  0  0  0  0  0  0  0  0  0  0
  180.2470  177.4660  140.9560 C   0  0  0  0  0  3  0  0  0  0  0  0
  186.9440  178.3650  139.6730 C   0  0  0  0  0  0  0  0  0  0  0  0
  185.2720  178.4050  143.0050 C   0  0  0  0  0  0  0  0  0  0  0  0
  188.3150  178.4150  137.7640 N   0  0  0  0  0  0  0  0  0  0  0  0
  188.2600  178.4130  140.0770 C   0  0  0  0  0  0  0  0  0  0  0  0
  182.9940  178.5840  141.8840 C   0  0  0  0  0  0  0  0  0  0  0  0
  185.8700  178.2840  140.5840 C   0  0  0  0  0  0  0  0  0  0  0  0
  182.5280  177.0810  139.9710 C   0  0  0  0  0  3  0  0  0  0  0  0
  188.5930  178.3840  141.4180 C   0  0  0  0  0  3  0  0  0  0  0  0
  180.4960  178.7110  141.6900 C   0  0  0  0  0  3  0  0  0  0  0  0
  181.6710  179.1840  142.0930 C   0  0  0  0  0  3  0  0  0  0  0  0
  183.3630  177.8560  140.6650 C   0  0  0  0  0  0  0  0  0  0  0  0
  186.5380  178.1360  147.0650 N   0  0  0  0  0  0  0  0  0  0  0  0
  185.7000  178.2970  144.4280 C   0  0  0  0  0  0  0  0  0  0  0  0
  185.1750  179.1630  145.3960 C   0  0  0  0  0  3  0  0  0  0  0  0
  185.6070  179.0640  146.7200 C   0  0  0  0  0  3  0  0  0  0  0  0
  187.0740  177.2880  146.1470 C   0  0  0  0  0  3  0  0  0  0  0  0
  186.6670  177.3560  144.8110 C   0  0  0  0  0  3  0  0  0  0  0  0
  1 12  1  0  0  0  0
  2  6  1  0  0  0  0
  2 12  2  0  0  0  0
  3 16  2  0  0  0  0
  3 21  1  0  0  0  0
  4 14  1  0  0  0  0
  5 13  1  0  0  0  0
  7 11  1  0  0  0  0
  8 10  2  0  0  0  0
  9  7  2  0  0  0  0
 10 19  1  0  0  0  0
 11 14  2  0  0  0  0
 11 16  1  0  0  0  0
 12 23  1  0  0  0  0
 13  7  1  0  0  0  0
 13  4  1  0  0  0  0
 14 18  1  0  0  0  0
 15 20  1  0  0  0  0
 15  1  2  0  0  0  0
 16  2  1  0  0  0  0
 17  8  1  0  0  0  0
 17 21  2  0  0  0  0
 18  6  2  0  0  0  0
 19 20  2  0  0  0  0
 21 15  1  0  0  0  0
 23 27  2  0  0  0  0
 23 24  1  0  0  0  0
 24 25  2  0  0  0  0
 25 22  1  0  0  0  0
 26 22  2  0  0  0  0
 27 26  1  0  0  0  0
M  END
>  <MODEL>
9

>  <REMARK>
 VINA RESULT:      -8.9      3.383      6.716
  Name = 
  1 active torsions:
  status: ('A' for Active; 'I' for Inactive)
    1  A    between atoms: C_9  and  C_15
                            x       y       z     vdW  Elec       q    Type
                         _______ _______ _______ _____ _____    ______ ____

>  <TORSDO>
F 1

$$$$
