=
 OpenBabel10272413513D

 30 31  0  0  1  0  0  0  0  0999 V2000
  188.7540  177.5990  142.1800 C   0  0  1  0  0  0  0  0  0  0  0  0
  187.3160  176.2630  143.9560 C   0  0  0  0  0  3  0  0  0  0  0  0
  188.0670  176.3990  142.8510 C   0  0  0  0  0  3  0  0  0  0  0  0
  187.3950  177.3800  146.1110 C   0  0  0  0  0  0  0  0  0  0  0  0
  186.8420  178.2920  147.1330 C   0  0  0  0  0  3  0  0  0  0  0  0
  188.4830  176.6330  146.4250 F   0  0  0  0  0  0  0  0  0  0  0  0
  185.8920  179.1730  146.8180 C   0  0  0  0  0  3  0  0  0  0  0  0
  186.8220  177.2840  144.8980 C   0  0  0  0  0  0  0  0  0  0  0  0
  185.4270  179.3180  145.3980 C   0  0  0  0  0  2  0  0  0  0  0  0
  185.5100  177.9820  144.6540 C   0  0  0  0  0  2  0  0  0  0  0  0
  189.9830  179.3790  143.3530 O   0  0  0  0  0  1  0  0  0  0  0  0
  190.0200  178.0260  143.0050 C   0  0  1  0  0  3  0  0  0  0  0  0
  191.0750  177.9960  145.3700 C   0  0  0  0  0  2  0  0  0  0  0  0
  191.4150  176.0850  143.9820 C   0  0  0  0  0  2  0  0  0  0  0  0
  190.4670  177.2180  144.2350 C   0  0  2  0  0  3  0  0  0  0  0  0
  191.8670  177.0550  146.1540 N   0  0  0  0  0  2  0  0  0  0  0  0
  192.0330  175.8460  145.3440 C   0  0  0  0  0  2  0  0  0  0  0  0
  189.1310  177.2980  140.7010 C   0  0  2  0  0  3  0  0  0  0  0  0
  190.6340  175.9070  139.4030 O   0  0  0  0  0  1  0  0  0  0  0  0
  190.5430  176.7130  140.5410 C   0  0  0  0  0  2  0  0  0  0  0  0
  188.9610  178.5420  139.8130 C   0  0  0  0  0  2  0  0  0  0  0  0
  188.3160  178.2110  138.4750 C   0  0  0  0  0  2  0  0  0  0  0  0
  189.2020  178.6610  137.3300 C   0  0  0  0  0  1  0  0  0  0  0  0
  187.8640  178.7180  142.1080 O   0  0  0  0  0  0  0  0  0  0  0  0
  186.6930  178.4470  141.3710 C   0  0  0  0  0  2  0  0  0  0  0  0
  185.6130  179.4490  141.7330 C   0  0  0  0  0  2  0  0  0  0  0  0
  184.2630  178.9650  141.2350 C   0  0  0  0  0  2  0  0  0  0  0  0
  184.4010  180.2790  139.1220 O   0  0  0  0  0  1  0  0  0  0  0  0
  184.2110  179.0540  139.7510 C   0  0  0  0  0  0  0  0  0  0  0  0
  184.0250  178.0180  139.0630 O   0  0  0  0  0  0  0  0  0  0  0  0
  1  3  1  1  0  0  0
  1 12  1  0  0  0  0
  2  8  1  0  0  0  0
  3  2  2  0  0  0  0
  4  6  1  0  0  0  0
  4  5  1  0  0  0  0
  7  5  2  0  0  0  0
  8  4  2  0  0  0  0
  9  7  1  0  0  0  0
 10  8  1  0  0  0  0
 10  9  1  0  0  0  0
 12 11  1  1  0  0  0
 13 16  1  0  0  0  0
 14 15  1  0  0  0  0
 14 17  1  0  0  0  0
 15 12  1  6  0  0  0
 15 13  1  0  0  0  0
 17 16  1  0  0  0  0
 18 21  1  6  0  0  0
 18  1  1  0  0  0  0
 19 20  1  0  0  0  0
 20 18  1  0  0  0  0
 22 21  1  0  0  0  0
 23 22  1  0  0  0  0
 24  1  1  0  0  0  0
 25 26  1  0  0  0  0
 25 24  1  0  0  0  0
 27 26  1  0  0  0  0
 28 29  1  0  0  0  0
 29 27  1  0  0  0  0
 30 29  2  0  0  0  0
M  END
>  <MODEL>
1

>  <REMARK>
 VINA RESULT:      -6.1      0.000      0.000
  Name = 
  13 active torsions:
  status: ('A' for Active; 'I' for Inactive)
    1  A    between atoms: C_1  and  C_22
    2  A    between atoms: C_3  and  C_19
    3  A    between atoms: C_4  and  C_13
    4  A    between atoms: C_7  and  C_15
    5  A    between atoms: C_7  and  C_16
    6  A    between atoms: C_8  and  C_12
    7  A    between atoms: C_8  and  C_13
    8  A    between atoms: C_13  and  C_23
    9  A    between atoms: C_13  and  O_27
   10  A    between atoms: C_16  and  C_30
   11  A    between atoms: C_19  and  C_23
   12  A    between atoms: C_23  and  C_25
   13  A    between atoms: O_27  and  C_30
                            x       y       z     vdW  Elec       q    Type
                         _______ _______ _______ _____ _____    ______ ____

>  <TORSDO>
F 13

$$$$
=
 OpenBabel10272413513D

 30 31  0  0  1  0  0  0  0  0999 V2000
  189.4160  177.6970  142.4370 C   0  0  1  0  0  0  0  0  0  0  0  0
  187.5710  176.2750  143.6950 C   0  0  0  0  0  3  0  0  0  0  0  0
  188.5220  176.4930  142.7710 C   0  0  0  0  0  3  0  0  0  0  0  0
  185.8420  177.8180  144.4190 C   0  0  0  0  0  0  0  0  0  0  0  0
  185.3050  178.8460  145.3330 C   0  0  0  0  0  3  0  0  0  0  0  0
  185.1520  177.5310  143.2860 F   0  0  0  0  0  0  0  0  0  0  0  0
  185.8450  179.0370  146.5380 C   0  0  0  0  0  3  0  0  0  0  0  0
  186.9970  177.1910  144.6980 C   0  0  0  0  0  0  0  0  0  0  0  0
  186.9540  178.1490  147.0240 C   0  0  0  0  0  2  0  0  0  0  0  0
  187.8260  177.6710  145.8600 C   0  0  0  0  0  2  0  0  0  0  0  0
  190.5310  179.0000  144.2010 O   0  0  0  0  0  1  0  0  0  0  0  0
  190.5860  177.8050  143.4800 C   0  0  1  0  0  3  0  0  0  0  0  0
  191.4620  177.0360  145.7920 C   0  0  0  0  0  2  0  0  0  0  0  0
  191.7410  175.5440  143.9510 C   0  0  0  0  0  2  0  0  0  0  0  0
  190.8750  176.6560  144.4610 C   0  0  2  0  0  3  0  0  0  0  0  0
  192.1140  175.8450  146.3250 N   0  0  0  0  0  2  0  0  0  0  0  0
  192.2380  174.8880  145.2230 C   0  0  0  0  0  2  0  0  0  0  0  0
  189.9720  177.6200  140.9860 C   0  0  2  0  0  3  0  0  0  0  0  0
  188.7690  176.8290  139.0360 O   0  0  0  0  0  1  0  0  0  0  0  0
  189.4370  176.4180  140.1920 C   0  0  0  0  0  2  0  0  0  0  0  0
  191.5100  177.6310  140.9720 C   0  0  0  0  0  2  0  0  0  0  0  0
  192.0780  177.1870  139.6330 C   0  0  0  0  0  2  0  0  0  0  0  0
  193.5780  176.9920  139.7270 C   0  0  0  0  0  1  0  0  0  0  0  0
  188.6640  178.9140  142.4750 O   0  0  0  0  0  0  0  0  0  0  0  0
  188.0360  179.2150  141.2490 C   0  0  0  0  0  2  0  0  0  0  0  0
  186.5290  179.1890  141.4220 C   0  0  0  0  0  2  0  0  0  0  0  0
  185.8730  178.5960  140.1890 C   0  0  0  0  0  2  0  0  0  0  0  0
  184.3150  180.2200  139.1190 O   0  0  0  0  0  0  0  0  0  0  0  0
  184.5140  179.1760  140.0130 C   0  0  0  0  0  0  0  0  0  0  0  0
  183.5390  178.7010  140.6500 O   0  0  0  0  0  1  0  0  0  0  0  0
  1 24  1  0  0  0  0
  1  3  1  1  0  0  0
  1 12  1  0  0  0  0
  2  8  1  0  0  0  0
  3  2  2  0  0  0  0
  4  8  2  0  0  0  0
  4  5  1  0  0  0  0
  5  7  2  0  0  0  0
  6  4  1  0  0  0  0
  7  9  1  0  0  0  0
  8 10  1  0  0  0  0
 10  9  1  0  0  0  0
 12 11  1  1  0  0  0
 13 16  1  0  0  0  0
 14 15  1  0  0  0  0
 14 17  1  0  0  0  0
 15 12  1  6  0  0  0
 15 13  1  0  0  0  0
 17 16  1  0  0  0  0
 18 20  1  1  0  0  0
 18  1  1  0  0  0  0
 19 20  1  0  0  0  0
 21 18  1  0  0  0  0
 22 23  1  0  0  0  0
 22 21  1  0  0  0  0
 25 26  1  0  0  0  0
 25 24  1  0  0  0  0
 27 26  1  0  0  0  0
 28 29  2  0  0  0  0
 29 27  1  0  0  0  0
 29 30  1  0  0  0  0
M  END
>  <MODEL>
2

>  <REMARK>
 VINA RESULT:      -6.1      1.507      2.042
  Name = 
  13 active torsions:
  status: ('A' for Active; 'I' for Inactive)
    1  A    between atoms: C_1  and  C_22
    2  A    between atoms: C_3  and  C_19
    3  A    between atoms: C_4  and  C_13
    4  A    between atoms: C_7  and  C_15
    5  A    between atoms: C_7  and  C_16
    6  A    between atoms: C_8  and  C_12
    7  A    between atoms: C_8  and  C_13
    8  A    between atoms: C_13  and  C_23
    9  A    between atoms: C_13  and  O_27
   10  A    between atoms: C_16  and  C_30
   11  A    between atoms: C_19  and  C_23
   12  A    between atoms: C_23  and  C_25
   13  A    between atoms: O_27  and  C_30
                            x       y       z     vdW  Elec       q    Type
                         _______ _______ _______ _____ _____    ______ ____

>  <TORSDO>
F 13

$$$$
=
 OpenBabel10272413513D

 30 31  0  0  1  0  0  0  0  0999 V2000
  190.3450  177.2020  143.2300 C   0  0  1  0  0  0  0  0  0  0  0  0
  187.9260  176.1280  143.2970 C   0  0  0  0  0  3  0  0  0  0  0  0
  189.2680  176.1060  143.2270 C   0  0  0  0  0  3  0  0  0  0  0  0
  186.2890  177.4990  144.4530 C   0  0  0  0  0  0  0  0  0  0  0  0
  185.2490  178.5460  144.4850 C   0  0  0  0  0  3  0  0  0  0  0  0
  186.5050  176.7620  145.5710 F   0  0  0  0  0  0  0  0  0  0  0  0
  185.1210  179.4120  143.4780 C   0  0  0  0  0  3  0  0  0  0  0  0
  186.9970  177.2720  143.3330 C   0  0  0  0  0  0  0  0  0  0  0  0
  186.0910  179.3950  142.3320 C   0  0  0  0  0  2  0  0  0  0  0  0
  186.5980  177.9760  142.0620 C   0  0  0  0  0  2  0  0  0  0  0  0
  191.9810  177.6350  141.4440 O   0  0  0  0  0  1  0  0  0  0  0  0
  190.6220  177.6910  141.7640 C   0  0  1  0  0  3  0  0  0  0  0  0
  190.5960  176.3780  139.5320 C   0  0  0  0  0  2  0  0  0  0  0  0
  188.9700  178.1000  139.8210 C   0  0  0  0  0  2  0  0  0  0  0  0
  189.8180  177.1250  140.5800 C   0  0  2  0  0  3  0  0  0  0  0  0
  189.7910  176.3890  138.3160 N   0  0  0  0  0  2  0  0  0  0  0  0
  188.7440  177.3970  138.4990 C   0  0  0  0  0  2  0  0  0  0  0  0
  189.9530  178.3950  144.1480 C   0  0  2  0  0  3  0  0  0  0  0  0
  192.0730  179.5350  144.4330 O   0  0  0  0  0  1  0  0  0  0  0  0
  190.7900  179.6590  143.8950 C   0  0  0  0  0  2  0  0  0  0  0  0
  190.0090  178.0030  145.6340 C   0  0  0  0  0  2  0  0  0  0  0  0
  188.7940  178.4950  146.4070 C   0  0  0  0  0  2  0  0  0  0  0  0
  188.7470  177.8650  147.7850 C   0  0  0  0  0  1  0  0  0  0  0  0
  191.5700  176.7080  143.7800 O   0  0  0  0  0  0  0  0  0  0  0  0
  191.5540  175.3150  144.0040 C   0  0  0  0  0  2  0  0  0  0  0  0
  192.2940  174.9910  145.2880 C   0  0  0  0  0  2  0  0  0  0  0  0
  191.4740  175.4300  146.4880 C   0  0  0  0  0  2  0  0  0  0  0  0
  192.0730  177.1310  148.2060 O   0  0  0  0  0  1  0  0  0  0  0  0
  192.3750  175.9420  147.5550 C   0  0  0  0  0  0  0  0  0  0  0  0
  193.3940  175.2850  147.8880 O   0  0  0  0  0  0  0  0  0  0  0  0
  1  3  1  1  0  0  0
  1 24  1  0  0  0  0
  1 18  1  0  0  0  0
  2  8  1  0  0  0  0
  3  2  2  0  0  0  0
  4  5  1  0  0  0  0
  4  6  1  0  0  0  0
  7  5  2  0  0  0  0
  8  4  2  0  0  0  0
  9  7  1  0  0  0  0
 10  9  1  0  0  0  0
 10  8  1  0  0  0  0
 12 11  1  6  0  0  0
 12  1  1  0  0  0  0
 13 15  1  0  0  0  0
 14 15  1  0  0  0  0
 15 12  1  1  0  0  0
 16 17  1  0  0  0  0
 16 13  1  0  0  0  0
 17 14  1  0  0  0  0
 18 20  1  1  0  0  0
 18 21  1  0  0  0  0
 20 19  1  0  0  0  0
 21 22  1  0  0  0  0
 22 23  1  0  0  0  0
 24 25  1  0  0  0  0
 25 26  1  0  0  0  0
 26 27  1  0  0  0  0
 27 29  1  0  0  0  0
 29 30  2  0  0  0  0
 29 28  1  0  0  0  0
M  END
>  <MODEL>
3

>  <REMARK>
 VINA RESULT:      -6.1      3.109      6.451
  Name = 
  13 active torsions:
  status: ('A' for Active; 'I' for Inactive)
    1  A    between atoms: C_1  and  C_22
    2  A    between atoms: C_3  and  C_19
    3  A    between atoms: C_4  and  C_13
    4  A    between atoms: C_7  and  C_15
    5  A    between atoms: C_7  and  C_16
    6  A    between atoms: C_8  and  C_12
    7  A    between atoms: C_8  and  C_13
    8  A    between atoms: C_13  and  C_23
    9  A    between atoms: C_13  and  O_27
   10  A    between atoms: C_16  and  C_30
   11  A    between atoms: C_19  and  C_23
   12  A    between atoms: C_23  and  C_25
   13  A    between atoms: O_27  and  C_30
                            x       y       z     vdW  Elec       q    Type
                         _______ _______ _______ _____ _____    ______ ____

>  <TORSDO>
F 13

$$$$
=
 OpenBabel10272413513D

 30 31  0  0  1  0  0  0  0  0999 V2000
  189.1630  177.5670  142.3510 C   0  0  1  0  0  0  0  0  0  0  0  0
  187.3000  176.3300  143.7680 C   0  0  0  0  0  3  0  0  0  0  0  0
  188.2420  176.4280  142.8150 C   0  0  0  0  0  3  0  0  0  0  0  0
  187.2920  177.4660  145.9140 C   0  0  0  0  0  0  0  0  0  0  0  0
  186.6970  178.3830  146.9060 C   0  0  0  0  0  3  0  0  0  0  0  0
  188.3700  176.7260  146.2770 F   0  0  0  0  0  0  0  0  0  0  0  0
  185.7550  179.2580  146.5480 C   0  0  0  0  0  3  0  0  0  0  0  0
  186.7660  177.3570  144.6820 C   0  0  0  0  0  0  0  0  0  0  0  0
  185.3450  179.3890  145.1100 C   0  0  0  0  0  2  0  0  0  0  0  0
  185.4610  178.0470  144.3820 C   0  0  0  0  0  2  0  0  0  0  0  0
  190.6510  175.6170  142.1600 O   0  0  0  0  0  1  0  0  0  0  0  0
  190.5550  176.9890  141.9090 C   0  0  1  0  0  3  0  0  0  0  0  0
  190.8180  176.2460  139.4430 C   0  0  0  0  0  2  0  0  0  0  0  0
  192.5890  177.5200  140.4100 C   0  0  0  0  0  2  0  0  0  0  0  0
  191.1150  177.2690  140.5040 C   0  0  2  0  0  3  0  0  0  0  0  0
  191.8200  176.4180  138.3960 N   0  0  0  0  0  2  0  0  0  0  0  0
  192.8880  177.2530  138.9500 C   0  0  0  0  0  2  0  0  0  0  0  0
  188.5200  178.4010  141.2060 C   0  0  2  0  0  3  0  0  0  0  0  0
  186.2070  179.1070  141.3670 O   0  0  0  0  0  1  0  0  0  0  0  0
  187.5170  179.4510  141.7070 C   0  0  0  0  0  2  0  0  0  0  0  0
  187.8650  177.4940  140.1500 C   0  0  0  0  0  2  0  0  0  0  0  0
  187.9530  178.0810  138.7500 C   0  0  0  0  0  2  0  0  0  0  0  0
  186.6150  177.9800  138.0430 C   0  0  0  0  0  1  0  0  0  0  0  0
  189.3800  178.5070  143.4080 O   0  0  0  0  0  0  0  0  0  0  0  0
  190.7310  178.5950  143.8010 C   0  0  0  0  0  2  0  0  0  0  0  0
  190.8750  178.1720  145.2510 C   0  0  0  0  0  2  0  0  0  0  0  0
  191.5520  176.8160  145.3350 C   0  0  0  0  0  2  0  0  0  0  0  0
  191.0060  177.0820  147.7510 O   0  0  0  0  0  1  0  0  0  0  0  0
  191.7230  176.4240  146.7590 C   0  0  0  0  0  0  0  0  0  0  0  0
  192.4930  175.4780  147.0650 O   0  0  0  0  0  0  0  0  0  0  0  0
  1  3  1  1  0  0  0
  1 24  1  0  0  0  0
  2  8  1  0  0  0  0
  3  2  2  0  0  0  0
  4  6  1  0  0  0  0
  4  5  1  0  0  0  0
  7  5  2  0  0  0  0
  8  4  2  0  0  0  0
  9  7  1  0  0  0  0
 10  8  1  0  0  0  0
 10  9  1  0  0  0  0
 12 11  1  6  0  0  0
 12  1  1  0  0  0  0
 13 15  1  0  0  0  0
 14 15  1  0  0  0  0
 15 12  1  1  0  0  0
 16 17  1  0  0  0  0
 16 13  1  0  0  0  0
 17 14  1  0  0  0  0
 18 21  1  6  0  0  0
 18 20  1  0  0  0  0
 18  1  1  0  0  0  0
 19 20  1  0  0  0  0
 22 21  1  0  0  0  0
 23 22  1  0  0  0  0
 24 25  1  0  0  0  0
 25 26  1  0  0  0  0
 26 27  1  0  0  0  0
 27 29  1  0  0  0  0
 29 30  2  0  0  0  0
 29 28  1  0  0  0  0
M  END
>  <MODEL>
4

>  <REMARK>
 VINA RESULT:      -6.1      2.351      5.104
  Name = 
  13 active torsions:
  status: ('A' for Active; 'I' for Inactive)
    1  A    between atoms: C_1  and  C_22
    2  A    between atoms: C_3  and  C_19
    3  A    between atoms: C_4  and  C_13
    4  A    between atoms: C_7  and  C_15
    5  A    between atoms: C_7  and  C_16
    6  A    between atoms: C_8  and  C_12
    7  A    between atoms: C_8  and  C_13
    8  A    between atoms: C_13  and  C_23
    9  A    between atoms: C_13  and  O_27
   10  A    between atoms: C_16  and  C_30
   11  A    between atoms: C_19  and  C_23
   12  A    between atoms: C_23  and  C_25
   13  A    between atoms: O_27  and  C_30
                            x       y       z     vdW  Elec       q    Type
                         _______ _______ _______ _____ _____    ______ ____

>  <TORSDO>
F 13

$$$$
=
 OpenBabel10272413513D

 30 31  0  0  1  0  0  0  0  0999 V2000
  189.3190  177.5520  142.9700 C   0  0  1  0  0  0  0  0  0  0  0  0
  187.3520  176.2900  144.2140 C   0  0  0  0  0  3  0  0  0  0  0  0
  188.3630  176.4060  143.3370 C   0  0  0  0  0  3  0  0  0  0  0  0
  187.2110  177.4060  146.3660 C   0  0  0  0  0  0  0  0  0  0  0  0
  186.5480  178.3020  147.3340 C   0  0  0  0  0  3  0  0  0  0  0  0
  188.2830  176.6830  146.7780 F   0  0  0  0  0  0  0  0  0  0  0  0
  185.6100  179.1630  146.9350 C   0  0  0  0  0  3  0  0  0  0  0  0
  186.7520  177.2980  145.1080 C   0  0  0  0  0  0  0  0  0  0  0  0
  185.2720  179.2990  145.4780 C   0  0  0  0  0  2  0  0  0  0  0  0
  185.4510  177.9660  144.7460 C   0  0  0  0  0  2  0  0  0  0  0  0
  189.3580  179.4520  141.4070 O   0  0  0  0  0  1  0  0  0  0  0  0
  188.5290  178.6990  142.2430 C   0  0  1  0  0  3  0  0  0  0  0  0
  187.2840  178.4140  139.9910 C   0  0  0  0  0  2  0  0  0  0  0  0
  186.0400  179.2570  141.8440 C   0  0  0  0  0  2  0  0  0  0  0  0
  187.2200  178.4020  141.4940 C   0  0  2  0  0  3  0  0  0  0  0  0
  185.9240  178.6270  139.5090 N   0  0  0  0  0  2  0  0  0  0  0  0
  185.1260  179.0840  140.6490 C   0  0  0  0  0  2  0  0  0  0  0  0
  190.0710  178.0990  144.2160 C   0  0  2  0  0  3  0  0  0  0  0  0
  192.1890  179.2780  144.2650 O   0  0  0  0  0  1  0  0  0  0  0  0
  190.8360  179.4040  143.9410 C   0  0  0  0  0  2  0  0  0  0  0  0
  191.0140  177.0400  144.8130 C   0  0  0  0  0  2  0  0  0  0  0  0
  190.8910  176.9450  146.3260 C   0  0  0  0  0  2  0  0  0  0  0  0
  191.9800  176.0580  146.8960 C   0  0  0  0  0  1  0  0  0  0  0  0
  190.3510  177.0900  142.0940 O   0  0  0  0  0  0  0  0  0  0  0  0
  189.8620  176.3180  141.0200 C   0  0  0  0  0  2  0  0  0  0  0  0
  190.7060  176.5610  139.7830 C   0  0  0  0  0  2  0  0  0  0  0  0
  191.9070  177.4210  140.1310 C   0  0  0  0  0  2  0  0  0  0  0  0
  192.9970  176.5230  138.0790 O   0  0  0  0  0  0  0  0  0  0  0  0
  193.1070  176.9310  139.4020 C   0  0  0  0  0  0  0  0  0  0  0  0
  194.2280  176.9140  139.9730 O   0  0  0  0  0  1  0  0  0  0  0  0
  1  3  1  1  0  0  0
  1 18  1  0  0  0  0
  2  8  1  0  0  0  0
  3  2  2  0  0  0  0
  4  6  1  0  0  0  0
  4  5  1  0  0  0  0
  7  5  2  0  0  0  0
  8  4  2  0  0  0  0
  9  7  1  0  0  0  0
 10  8  1  0  0  0  0
 10  9  1  0  0  0  0
 12 11  1  6  0  0  0
 12  1  1  0  0  0  0
 13 15  1  0  0  0  0
 15 14  1  0  0  0  0
 15 12  1  1  0  0  0
 16 13  1  0  0  0  0
 16 17  1  0  0  0  0
 17 14  1  0  0  0  0
 18 20  1  6  0  0  0
 18 21  1  0  0  0  0
 20 19  1  0  0  0  0
 21 22  1  0  0  0  0
 22 23  1  0  0  0  0
 24  1  1  0  0  0  0
 25 24  1  0  0  0  0
 26 27  1  0  0  0  0
 26 25  1  0  0  0  0
 28 29  2  0  0  0  0
 29 30  1  0  0  0  0
 29 27  1  0  0  0  0
M  END
>  <MODEL>
5

>  <REMARK>
 VINA RESULT:      -6.0      2.549      5.651
  Name = 
  13 active torsions:
  status: ('A' for Active; 'I' for Inactive)
    1  A    between atoms: C_1  and  C_22
    2  A    between atoms: C_3  and  C_19
    3  A    between atoms: C_4  and  C_13
    4  A    between atoms: C_7  and  C_15
    5  A    between atoms: C_7  and  C_16
    6  A    between atoms: C_8  and  C_12
    7  A    between atoms: C_8  and  C_13
    8  A    between atoms: C_13  and  C_23
    9  A    between atoms: C_13  and  O_27
   10  A    between atoms: C_16  and  C_30
   11  A    between atoms: C_19  and  C_23
   12  A    between atoms: C_23  and  C_25
   13  A    between atoms: O_27  and  C_30
                            x       y       z     vdW  Elec       q    Type
                         _______ _______ _______ _____ _____    ______ ____

>  <TORSDO>
F 13

$$$$
=
 OpenBabel10272413513D

 30 31  0  0  1  0  0  0  0  0999 V2000
  188.8980  177.5360  142.1750 C   0  0  1  0  0  0  0  0  0  0  0  0
  189.8910  179.0780  144.0850 C   0  0  0  0  0  3  0  0  0  0  0  0
  189.4130  178.8140  142.8570 C   0  0  0  0  0  3  0  0  0  0  0  0
  191.3950  177.6700  145.3700 C   0  0  0  0  0  0  0  0  0  0  0  0
  191.6700  176.6500  146.4010 C   0  0  0  0  0  3  0  0  0  0  0  0
  192.4140  178.0820  144.5740 F   0  0  0  0  0  0  0  0  0  0  0  0
  190.7530  176.3440  147.3210 C   0  0  0  0  0  3  0  0  0  0  0  0
  190.1560  178.1680  145.2140 C   0  0  0  0  0  0  0  0  0  0  0  0
  189.4540  177.0940  147.3790 C   0  0  0  0  0  2  0  0  0  0  0  0
  189.0190  177.5480  145.9830 C   0  0  0  0  0  2  0  0  0  0  0  0
  187.6060  179.2060  140.9110 O   0  0  0  0  0  1  0  0  0  0  0  0
  188.1120  177.9040  140.8660 C   0  0  1  0  0  3  0  0  0  0  0  0
  189.1490  178.8950  138.7100 C   0  0  0  0  0  2  0  0  0  0  0  0
  187.9360  176.8490  138.5150 C   0  0  0  0  0  2  0  0  0  0  0  0
  188.7360  177.6700  139.4800 C   0  0  2  0  0  3  0  0  0  0  0  0
  189.2150  178.5110  137.3050 N   0  0  0  0  0  2  0  0  0  0  0  0
  188.5310  177.2230  137.1740 C   0  0  0  0  0  2  0  0  0  0  0  0
  190.0520  176.5400  141.8670 C   0  0  2  0  0  3  0  0  0  0  0  0
  191.4970  175.3000  143.3680 O   0  0  0  0  0  1  0  0  0  0  0  0
  190.1820  175.4190  142.9110 C   0  0  0  0  0  2  0  0  0  0  0  0
  191.3940  177.2700  141.6940 C   0  0  0  0  0  2  0  0  0  0  0  0
  191.8730  177.2640  140.2500 C   0  0  0  0  0  2  0  0  0  0  0  0
  193.3870  177.2860  140.1890 C   0  0  0  0  0  1  0  0  0  0  0  0
  188.0170  176.8170  143.0430 O   0  0  0  0  0  0  0  0  0  0  0  0
  186.7100  177.3450  143.0660 C   0  0  0  0  0  2  0  0  0  0  0  0
  186.2770  177.5920  144.4990 C   0  0  0  0  0  2  0  0  0  0  0  0
  185.5430  178.9160  144.6030 C   0  0  0  0  0  2  0  0  0  0  0  0
  184.8950  178.4890  146.9700 O   0  0  0  0  0  1  0  0  0  0  0  0
  184.5200  178.8430  145.6800 C   0  0  0  0  0  0  0  0  0  0  0  0
  183.3220  179.1300  145.4310 O   0  0  0  0  0  0  0  0  0  0  0  0
  1  3  1  1  0  0  0
  1 24  1  0  0  0  0
  2  8  1  0  0  0  0
  3  2  2  0  0  0  0
  4  5  1  0  0  0  0
  5  7  2  0  0  0  0
  6  4  1  0  0  0  0
  7  9  1  0  0  0  0
  8  4  2  0  0  0  0
  8 10  1  0  0  0  0
 10  9  1  0  0  0  0
 12 11  1  1  0  0  0
 12  1  1  0  0  0  0
 13 15  1  0  0  0  0
 14 15  1  0  0  0  0
 15 12  1  1  0  0  0
 16 13  1  0  0  0  0
 17 16  1  0  0  0  0
 17 14  1  0  0  0  0
 18 21  1  1  0  0  0
 18  1  1  0  0  0  0
 18 20  1  0  0  0  0
 20 19  1  0  0  0  0
 22 21  1  0  0  0  0
 23 22  1  0  0  0  0
 24 25  1  0  0  0  0
 25 26  1  0  0  0  0
 26 27  1  0  0  0  0
 27 29  1  0  0  0  0
 29 28  1  0  0  0  0
 30 29  2  0  0  0  0
M  END
>  <MODEL>
6

>  <REMARK>
 VINA RESULT:      -6.0      2.874      4.944
  Name = 
  13 active torsions:
  status: ('A' for Active; 'I' for Inactive)
    1  A    between atoms: C_1  and  C_22
    2  A    between atoms: C_3  and  C_19
    3  A    between atoms: C_4  and  C_13
    4  A    between atoms: C_7  and  C_15
    5  A    between atoms: C_7  and  C_16
    6  A    between atoms: C_8  and  C_12
    7  A    between atoms: C_8  and  C_13
    8  A    between atoms: C_13  and  C_23
    9  A    between atoms: C_13  and  O_27
   10  A    between atoms: C_16  and  C_30
   11  A    between atoms: C_19  and  C_23
   12  A    between atoms: C_23  and  C_25
   13  A    between atoms: O_27  and  C_30
                            x       y       z     vdW  Elec       q    Type
                         _______ _______ _______ _____ _____    ______ ____

>  <TORSDO>
F 13

$$$$
=
 OpenBabel10272413513D

 30 31  0  0  1  0  0  0  0  0999 V2000
  189.5490  177.2430  142.9540 C   0  0  1  0  0  0  0  0  0  0  0  0
  187.2120  176.2930  143.7570 C   0  0  0  0  0  3  0  0  0  0  0  0
  188.4870  176.2020  143.3450 C   0  0  0  0  0  3  0  0  0  0  0  0
  186.0000  177.8710  145.1480 C   0  0  0  0  0  0  0  0  0  0  0  0
  185.0260  178.9640  145.3430 C   0  0  0  0  0  3  0  0  0  0  0  0
  186.5240  177.2640  146.2430 F   0  0  0  0  0  0  0  0  0  0  0  0
  184.6200  179.7080  144.3130 C   0  0  0  0  0  3  0  0  0  0  0  0
  186.3470  177.4770  143.9110 C   0  0  0  0  0  0  0  0  0  0  0  0
  185.2120  179.5060  142.9480 C   0  0  0  0  0  2  0  0  0  0  0  0
  185.6030  178.0420  142.7300 C   0  0  0  0  0  2  0  0  0  0  0  0
  189.5290  179.2650  144.3550 O   0  0  0  0  0  1  0  0  0  0  0  0
  190.0740  177.9840  144.2350 C   0  0  1  0  0  3  0  0  0  0  0  0
  189.2990  178.0380  146.7050 C   0  0  0  0  0  2  0  0  0  0  0  0
  191.3460  176.9150  146.2120 C   0  0  0  0  0  2  0  0  0  0  0  0
  190.0280  177.3030  145.6140 C   0  0  2  0  0  3  0  0  0  0  0  0
  189.7980  177.5170  147.9730 N   0  0  0  0  0  2  0  0  0  0  0  0
  191.0230  176.7680  147.6840 C   0  0  0  0  0  2  0  0  0  0  0  0
  190.7240  176.6010  142.1640 C   0  0  2  0  0  3  0  0  0  0  0  0
  190.8820  174.4840  143.3350 O   0  0  0  0  0  1  0  0  0  0  0  0
  191.5820  175.6500  143.0140 C   0  0  0  0  0  2  0  0  0  0  0  0
  191.6080  177.6720  141.5010 C   0  0  0  0  0  2  0  0  0  0  0  0
  192.0360  177.2780  140.0950 C   0  0  0  0  0  2  0  0  0  0  0  0
  193.5470  177.2500  139.9860 C   0  0  0  0  0  1  0  0  0  0  0  0
  188.9990  178.2180  142.0620 O   0  0  0  0  0  0  0  0  0  0  0  0
  188.3950  177.6470  140.9230 C   0  0  0  0  0  2  0  0  0  0  0  0
  188.6300  178.5350  139.7150 C   0  0  0  0  0  2  0  0  0  0  0  0
  188.8030  177.6870  138.4690 C   0  0  0  0  0  2  0  0  0  0  0  0
  188.9890  179.9030  137.3450 O   0  0  0  0  0  1  0  0  0  0  0  0
  188.7100  178.5450  137.2580 C   0  0  0  0  0  0  0  0  0  0  0  0
  188.4080  178.0370  136.1470 O   0  0  0  0  0  0  0  0  0  0  0  0
  1  3  1  1  0  0  0
  1 12  1  0  0  0  0
  2  8  1  0  0  0  0
  3  2  2  0  0  0  0
  4  5  1  0  0  0  0
  4  6  1  0  0  0  0
  7  5  2  0  0  0  0
  8  4  2  0  0  0  0
  9  7  1  0  0  0  0
 10  9  1  0  0  0  0
 10  8  1  0  0  0  0
 12 11  1  1  0  0  0
 13 16  1  0  0  0  0
 14 17  1  0  0  0  0
 15 12  1  6  0  0  0
 15 14  1  0  0  0  0
 15 13  1  0  0  0  0
 17 16  1  0  0  0  0
 18 21  1  1  0  0  0
 18  1  1  0  0  0  0
 18 20  1  0  0  0  0
 20 19  1  0  0  0  0
 22 21  1  0  0  0  0
 23 22  1  0  0  0  0
 24  1  1  0  0  0  0
 25 24  1  0  0  0  0
 26 25  1  0  0  0  0
 27 26  1  0  0  0  0
 29 28  1  0  0  0  0
 29 27  1  0  0  0  0
 30 29  2  0  0  0  0
M  END
>  <MODEL>
7

>  <REMARK>
 VINA RESULT:      -5.3      2.066      3.060
  Name = 
  13 active torsions:
  status: ('A' for Active; 'I' for Inactive)
    1  A    between atoms: C_1  and  C_22
    2  A    between atoms: C_3  and  C_19
    3  A    between atoms: C_4  and  C_13
    4  A    between atoms: C_7  and  C_15
    5  A    between atoms: C_7  and  C_16
    6  A    between atoms: C_8  and  C_12
    7  A    between atoms: C_8  and  C_13
    8  A    between atoms: C_13  and  C_23
    9  A    between atoms: C_13  and  O_27
   10  A    between atoms: C_16  and  C_30
   11  A    between atoms: C_19  and  C_23
   12  A    between atoms: C_23  and  C_25
   13  A    between atoms: O_27  and  C_30
                            x       y       z     vdW  Elec       q    Type
                         _______ _______ _______ _____ _____    ______ ____

>  <TORSDO>
F 13

$$$$
=
 OpenBabel10272413513D

 30 31  0  0  1  0  0  0  0  0999 V2000
  188.8390  177.7450  141.8910 C   0  0  1  0  0  0  0  0  0  0  0  0
  190.4820  178.7290  143.7190 C   0  0  0  0  0  3  0  0  0  0  0  0
  189.6430  178.7970  142.6720 C   0  0  0  0  0  3  0  0  0  0  0  0
  190.7770  177.4840  145.7820 C   0  0  0  0  0  0  0  0  0  0  0  0
  191.3820  176.3980  146.5800 C   0  0  0  0  0  3  0  0  0  0  0  0
  190.0200  178.4130  146.4180 F   0  0  0  0  0  0  0  0  0  0  0  0
  191.9810  175.3660  145.9840 C   0  0  0  0  0  3  0  0  0  0  0  0
  190.9840  177.5550  144.4570 C   0  0  0  0  0  0  0  0  0  0  0  0
  191.9740  175.2420  144.4870 C   0  0  0  0  0  2  0  0  0  0  0  0
  191.9820  176.6220  143.8230 C   0  0  0  0  0  2  0  0  0  0  0  0
  188.2910  175.7750  143.2580 O   0  0  0  0  0  1  0  0  0  0  0  0
  187.8220  177.0250  142.8470 C   0  0  1  0  0  3  0  0  0  0  0  0
  187.3680  177.0570  145.3960 C   0  0  0  0  0  2  0  0  0  0  0  0
  185.8010  178.1660  143.9780 C   0  0  0  0  0  2  0  0  0  0  0  0
  187.2390  177.7540  144.0690 C   0  0  2  0  0  3  0  0  0  0  0  0
  186.3500  177.6220  146.2740 N   0  0  0  0  0  2  0  0  0  0  0  0
  185.4110  178.3640  145.4280 C   0  0  0  0  0  2  0  0  0  0  0  0
  188.1060  178.3680  140.6690 C   0  0  2  0  0  3  0  0  0  0  0  0
  185.7580  178.8020  140.2500 O   0  0  0  0  0  1  0  0  0  0  0  0
  186.8440  179.1570  141.0530 C   0  0  0  0  0  2  0  0  0  0  0  0
  187.7710  177.3030  139.6110 C   0  0  0  0  0  2  0  0  0  0  0  0
  188.1410  177.7490  138.2050 C   0  0  0  0  0  2  0  0  0  0  0  0
  188.9820  179.0100  138.2480 C   0  0  0  0  0  1  0  0  0  0  0  0
  189.7080  176.7570  141.3290 O   0  0  0  0  0  0  0  0  0  0  0  0
  190.8930  177.3020  140.7920 C   0  0  0  0  0  2  0  0  0  0  0  0
  191.3360  176.4890  139.5900 C   0  0  0  0  0  2  0  0  0  0  0  0
  192.7260  176.9160  139.1560 C   0  0  0  0  0  2  0  0  0  0  0  0
  192.0650  176.1720  136.8720 O   0  0  0  0  0  0  0  0  0  0  0  0
  193.0530  176.3060  137.8390 C   0  0  0  0  0  0  0  0  0  0  0  0
  194.2290  175.9380  137.5900 O   0  0  0  0  0  1  0  0  0  0  0  0
  1  3  1  1  0  0  0
  1 12  1  0  0  0  0
  2  8  1  0  0  0  0
  3  2  2  0  0  0  0
  4  6  1  0  0  0  0
  4  5  1  0  0  0  0
  7  5  2  0  0  0  0
  8  4  2  0  0  0  0
  9  7  1  0  0  0  0
 10  8  1  0  0  0  0
 10  9  1  0  0  0  0
 12 11  1  1  0  0  0
 13 16  1  0  0  0  0
 14 15  1  0  0  0  0
 14 17  1  0  0  0  0
 15 12  1  6  0  0  0
 15 13  1  0  0  0  0
 17 16  1  0  0  0  0
 18 21  1  6  0  0  0
 18 20  1  0  0  0  0
 18  1  1  0  0  0  0
 19 20  1  0  0  0  0
 22 23  1  0  0  0  0
 22 21  1  0  0  0  0
 24  1  1  0  0  0  0
 25 24  1  0  0  0  0
 26 25  1  0  0  0  0
 27 26  1  0  0  0  0
 28 29  2  0  0  0  0
 29 27  1  0  0  0  0
 30 29  1  0  0  0  0
M  END
>  <MODEL>
8

>  <REMARK>
 VINA RESULT:      -5.1      2.010      5.471
  Name = 
  13 active torsions:
  status: ('A' for Active; 'I' for Inactive)
    1  A    between atoms: C_1  and  C_22
    2  A    between atoms: C_3  and  C_19
    3  A    between atoms: C_4  and  C_13
    4  A    between atoms: C_7  and  C_15
    5  A    between atoms: C_7  and  C_16
    6  A    between atoms: C_8  and  C_12
    7  A    between atoms: C_8  and  C_13
    8  A    between atoms: C_13  and  C_23
    9  A    between atoms: C_13  and  O_27
   10  A    between atoms: C_16  and  C_30
   11  A    between atoms: C_19  and  C_23
   12  A    between atoms: C_23  and  C_25
   13  A    between atoms: O_27  and  C_30
                            x       y       z     vdW  Elec       q    Type
                         _______ _______ _______ _____ _____    ______ ____

>  <TORSDO>
F 13

$$$$
=
 OpenBabel10272413513D

 30 31  0  0  1  0  0  0  0  0999 V2000
  189.1300  177.2810  142.9050 C   0  0  1  0  0  0  0  0  0  0  0  0
  187.1220  176.2210  144.2670 C   0  0  0  0  0  3  0  0  0  0  0  0
  188.0600  176.2530  143.3050 C   0  0  0  0  0  3  0  0  0  0  0  0
  185.6610  178.0030  145.0310 C   0  0  0  0  0  0  0  0  0  0  0  0
  185.3310  179.1300  145.9270 C   0  0  0  0  0  3  0  0  0  0  0  0
  184.8560  177.7590  143.9670 F   0  0  0  0  0  0  0  0  0  0  0  0
  185.9820  179.3000  147.0780 C   0  0  0  0  0  3  0  0  0  0  0  0
  186.7470  177.2450  145.2590 C   0  0  0  0  0  0  0  0  0  0  0  0
  187.0050  178.2980  147.5300 C   0  0  0  0  0  2  0  0  0  0  0  0
  187.7180  177.6630  146.3320 C   0  0  0  0  0  2  0  0  0  0  0  0
  189.3610  179.1230  141.2900 O   0  0  0  0  0  1  0  0  0  0  0  0
  188.4630  178.4870  142.1510 C   0  0  1  0  0  3  0  0  0  0  0  0
  187.1570  178.4140  139.9160 C   0  0  0  0  0  2  0  0  0  0  0  0
  186.0020  179.2090  141.8470 C   0  0  0  0  0  2  0  0  0  0  0  0
  187.1230  178.3120  141.4160 C   0  0  2  0  0  3  0  0  0  0  0  0
  185.8020  178.7340  139.4810 N   0  0  0  0  0  2  0  0  0  0  0  0
  185.0550  179.1640  140.6660 C   0  0  0  0  0  2  0  0  0  0  0  0
  189.9440  177.7770  144.1340 C   0  0  2  0  0  3  0  0  0  0  0  0
  191.9830  178.8170  143.3360 O   0  0  0  0  0  1  0  0  0  0  0  0
  190.7170  179.0780  143.8670 C   0  0  0  0  0  2  0  0  0  0  0  0
  190.8930  176.6860  144.6570 C   0  0  0  0  0  2  0  0  0  0  0  0
  191.5760  177.0890  145.9550 C   0  0  0  0  0  2  0  0  0  0  0  0
  190.8600  176.4810  147.1460 C   0  0  0  0  0  1  0  0  0  0  0  0
  190.1030  176.6900  142.0380 O   0  0  0  0  0  0  0  0  0  0  0  0
  189.7020  176.6730  140.6860 C   0  0  0  0  0  2  0  0  0  0  0  0
  190.9230  176.6700  139.7860 C   0  0  0  0  0  2  0  0  0  0  0  0
  190.6020  175.9810  138.4730 C   0  0  0  0  0  2  0  0  0  0  0  0
  189.7000  178.0360  137.3910 O   0  0  0  0  0  0  0  0  0  0  0  0
  189.5140  176.7130  137.7720 C   0  0  0  0  0  0  0  0  0  0  0  0
  188.4350  176.1280  137.4970 O   0  0  0  0  0  1  0  0  0  0  0  0
  1  3  1  1  0  0  0
  1 18  1  0  0  0  0
  2  8  1  0  0  0  0
  3  2  2  0  0  0  0
  4  8  2  0  0  0  0
  4  5  1  0  0  0  0
  5  7  2  0  0  0  0
  6  4  1  0  0  0  0
  7  9  1  0  0  0  0
  8 10  1  0  0  0  0
 10  9  1  0  0  0  0
 12 11  1  6  0  0  0
 12  1  1  0  0  0  0
 13 15  1  0  0  0  0
 15 14  1  0  0  0  0
 15 12  1  1  0  0  0
 16 13  1  0  0  0  0
 16 17  1  0  0  0  0
 17 14  1  0  0  0  0
 18 20  1  6  0  0  0
 18 21  1  0  0  0  0
 19 20  1  0  0  0  0
 21 22  1  0  0  0  0
 22 23  1  0  0  0  0
 24  1  1  0  0  0  0
 25 24  1  0  0  0  0
 26 25  1  0  0  0  0
 27 26  1  0  0  0  0
 28 29  2  0  0  0  0
 29 27  1  0  0  0  0
 30 29  1  0  0  0  0
M  END
>  <MODEL>
9

>  <REMARK>
 VINA RESULT:      -5.0      2.582      5.178
  Name = 
  13 active torsions:
  status: ('A' for Active; 'I' for Inactive)
    1  A    between atoms: C_1  and  C_22
    2  A    between atoms: C_3  and  C_19
    3  A    between atoms: C_4  and  C_13
    4  A    between atoms: C_7  and  C_15
    5  A    between atoms: C_7  and  C_16
    6  A    between atoms: C_8  and  C_12
    7  A    between atoms: C_8  and  C_13
    8  A    between atoms: C_13  and  C_23
    9  A    between atoms: C_13  and  O_27
   10  A    between atoms: C_16  and  C_30
   11  A    between atoms: C_19  and  C_23
   12  A    between atoms: C_23  and  C_25
   13  A    between atoms: O_27  and  C_30
                            x       y       z     vdW  Elec       q    Type
                         _______ _______ _______ _____ _____    ______ ____

>  <TORSDO>
F 13

$$$$
