=
 OpenBabel10272401253D

 55 61  0  0  1  0  0  0  0  0999 V2000
  188.7200  177.4870  137.9380 N   0  0  0  0  0  0  0  0  0  0  0  0
  188.8480  176.2050  137.2590 C   0  0  0  0  0  2  0  0  0  0  0  0
  190.1630  176.1490  136.4860 C   0  0  0  0  0  2  0  0  0  0  0  0
  190.7410  174.1530  137.6830 O   0  0  0  0  0  1  0  0  0  0  0  0
  190.7600  174.7400  136.4130 C   0  0  0  0  0  0  0  0  0  0  0  0
  189.9500  173.9740  135.5690 O   0  0  0  0  0  1  0  0  0  0  0  0
  195.2820  173.7970  135.3360 O   0  0  0  0  0  1  0  0  0  0  0  0
  192.2240  174.7790  135.8880 C   0  0  1  0  0  0  0  0  0  0  0  0
  192.0850  172.4010  135.7420 O   0  0  0  0  0  1  0  0  0  0  0  0
  192.9200  173.4980  135.5030 C   0  0  1  0  0  0  0  0  0  0  0  0
  194.2600  173.2630  136.1340 C   0  0  2  0  0  0  0  0  0  0  0  0
  192.5710  175.8590  134.8560 C   0  0  0  0  0  1  0  0  0  0  0  0
  193.3140  174.2470  136.8450 C   0  0  2  0  0  0  0  0  0  0  0  0
  194.1800  175.4570  137.2080 C   0  0  0  0  0  0  0  0  0  0  0  0
  194.5070  175.6700  138.4070 O   0  0  0  0  0  1  0  0  0  0  0  0
  194.7880  176.2230  136.2160 O   0  0  0  0  0  0  0  0  0  0  0  0
  194.5930  171.9410  136.8530 C   0  0  1  0  0  3  0  0  0  0  0  0
  194.9020  170.9150  135.9530 O   0  0  0  0  0  1  0  0  0  0  0  0
  195.7310  172.1310  137.8470 C   0  0  0  0  0  2  0  0  0  0  0  0
  195.2300  172.5920  139.0630 O   0  0  0  0  0  1  0  0  0  0  0  0
  187.3980  177.5340  138.5500 C   0  0  0  0  0  2  0  0  0  0  0  0
  186.3930  178.0570  137.5400 C   0  0  0  0  0  2  0  0  0  0  0  0
  184.9820  177.7580  138.0010 C   0  0  0  0  0  2  0  0  0  0  0  0
  184.7690  179.9200  138.9830 O   0  0  0  0  0  0  0  0  0  0  0  0
  184.2550  178.1130  140.3820 N   0  0  0  0  0  2  0  0  0  0  0  0
  184.6430  178.6720  139.1250 C   0  0  0  0  0  0  0  0  0  0  0  0
  187.4430  178.0510  143.0770 C   0  0  0  0  0  3  0  0  0  0  0  0
  181.5660  178.5770  141.2380 C   0  0  0  0  0  3  0  0  0  0  0  0
  185.5900  178.3860  146.3980 C   0  0  0  0  0  2  0  0  0  0  0  0
  180.2630  178.4440  141.7240 C   0  0  0  0  0  3  0  0  0  0  0  0
  182.3980  178.7830  143.5060 C   0  0  0  0  0  0  0  0  0  0  0  0
  181.0880  178.6620  143.9860 C   0  0  0  0  0  3  0  0  0  0  0  0
  180.0240  178.4840  143.0980 C   0  0  0  0  0  3  0  0  0  0  0  0
  182.6490  178.7330  142.1210 C   0  0  0  0  0  0  0  0  0  0  0  0
  186.4300  178.3330  142.1660 C   0  0  0  0  0  3  0  0  0  0  0  0
  188.0220  178.0880  146.8180 C   0  0  1  0  0  3  0  0  0  0  0  0
  184.8490  178.6170  143.9890 C   0  0  0  0  0  0  0  0  0  0  0  0
  187.1780  178.0430  144.4460 C   0  0  0  0  0  0  0  0  0  0  0  0
  183.4950  179.0570  144.4850 C   0  0  0  0  0  2  0  0  0  0  0  0
  188.2950  177.6590  145.3770 C   0  0  0  0  0  2  0  0  0  0  0  0
  184.0530  178.9230  141.5820 C   0  0  1  0  0  3  0  0  0  0  0  0
  186.6270  177.6370  147.2320 C   0  0  0  0  0  2  0  0  0  0  0  0
  185.1230  178.5970  142.6040 C   0  0  0  0  0  0  0  0  0  0  0  0
  185.8690  178.3120  144.9150 C   0  0  0  0  0  0  0  0  0  0  0  0
  189.0540  177.5270  147.7410 C   0  0  0  0  0  0  0  0  0  0  0  0
  189.7590  176.5400  147.3970 O   0  0  0  0  0  0  0  0  0  0  0  0
  189.2290  178.0940  148.9960 O   0  0  0  0  0  1  0  0  0  0  0  0
  189.6950  177.4770  139.0170 C   0  0  0  0  0  2  0  0  0  0  0  0
  189.2180  176.5610  140.1330 C   0  0  0  0  0  2  0  0  0  0  0  0
  191.5740  176.9550  143.6950 C   0  0  0  0  0  3  0  0  0  0  0  0
  190.1410  176.6370  141.3010 C   0  0  0  0  0  0  0  0  0  0  0  0
  190.0560  175.7610  142.2600 N   0  0  0  0  0  0  0  0  0  0  0  0
  191.4130  178.1550  142.8060 C   0  0  0  0  0  2  0  0  0  0  0  0
  190.8850  175.8410  143.4320 C   0  0  0  0  0  3  0  0  0  0  0  0
  191.1780  177.7250  141.3570 C   0  0  0  0  0  2  0  0  0  0  0  0
  1 21  1  0  0  0  0
  1 48  1  0  0  0  0
  2  1  1  0  0  0  0
  3  2  1  0  0  0  0
  5  3  1  0  0  0  0
  5  4  1  0  0  0  0
  6  5  1  0  0  0  0
  8 12  1  6  0  0  0
  8  5  1  0  0  0  0
  8 13  1  0  0  0  0
 10  9  1  1  0  0  0
 10  8  1  0  0  0  0
 10 11  1  0  0  0  0
 10 13  1  0  0  0  0
 11  7  1  6  0  0  0
 11 13  1  0  0  0  0
 11 17  1  0  0  0  0
 13 14  1  6  0  0  0
 14 15  1  0  0  0  0
 16 14  2  0  0  0  0
 17 18  1  6  0  0  0
 17 19  1  0  0  0  0
 19 20  1  0  0  0  0
 22 23  1  0  0  0  0
 22 21  1  0  0  0  0
 23 26  1  0  0  0  0
 24 26  2  0  0  0  0
 26 25  1  0  0  0  0
 27 38  1  0  0  0  0
 28 30  2  0  0  0  0
 28 34  1  0  0  0  0
 29 42  1  0  0  0  0
 30 33  1  0  0  0  0
 31 32  1  0  0  0  0
 31 39  1  0  0  0  0
 33 32  2  0  0  0  0
 34 31  2  0  0  0  0
 35 43  1  0  0  0  0
 35 27  2  0  0  0  0
 36 42  1  0  0  0  0
 36 45  1  1  0  0  0
 37 39  1  0  0  0  0
 37 44  1  0  0  0  0
 38 44  2  0  0  0  0
 38 40  1  0  0  0  0
 40 36  1  0  0  0  0
 41 25  1  6  0  0  0
 41 34  1  0  0  0  0
 41 43  1  0  0  0  0
 43 37  2  0  0  0  0
 44 29  1  0  0  0  0
 45 47  1  0  0  0  0
 46 45  2  0  0  0  0
 48 49  1  0  0  0  0
 49 51  1  0  0  0  0
 51 55  1  0  0  0  0
 51 52  2  0  0  0  0
 52 54  1  0  0  0  0
 53 50  1  0  0  0  0
 54 50  2  0  0  0  0
 55 53  1  0  0  0  0
M  END
>  <MODEL>
1

>  <REMARK>
 VINA RESULT:      -9.7      0.000      0.000
  Name = 
  16 active torsions:
  status: ('A' for Active; 'I' for Inactive)
    1  A    between atoms: C_1  and  C_53
    2  A    between atoms: C_4  and  C_35
    3  A    between atoms: C_4  and  C_37
    4  A    between atoms: C_6  and  C_20
    5  A    between atoms: C_8  and  C_22
    6  A    between atoms: C_8  and  N_43
    7  A    between atoms: C_10  and  C_32
    8  A    between atoms: C_11  and  C_29
    9  A    between atoms: N_19  and  C_45
   10  A    between atoms: C_20  and  C_22
   11  A    between atoms: C_27  and  C_54
   12  A    between atoms: C_29  and  C_38
   13  A    between atoms: C_35  and  N_43
   14  A    between atoms: C_37  and  C_40
   15  A    between atoms: N_43  and  C_51
   16  A    between atoms: C_51  and  C_54
                            x       y       z     vdW  Elec       q    Type
                         _______ _______ _______ _____ _____    ______ ____

>  <TORSDO>
F 16

$$$$
=
 OpenBabel10272401253D

 55 61  0  0  1  0  0  0  0  0999 V2000
  191.0200  177.1710  138.3120 N   0  0  0  0  0  0  0  0  0  0  0  0
  190.1250  176.2810  137.5870 C   0  0  0  0  0  2  0  0  0  0  0  0
  188.6990  176.8200  137.6330 C   0  0  0  0  0  2  0  0  0  0  0  0
  188.4570  179.1510  137.1220 O   0  0  0  0  0  1  0  0  0  0  0  0
  188.4160  177.8720  136.5560 C   0  0  0  0  0  0  0  0  0  0  0  0
  189.4310  177.7900  135.5980 O   0  0  0  0  0  1  0  0  0  0  0  0
  183.8390  176.9750  135.6900 O   0  0  0  0  0  1  0  0  0  0  0  0
  187.0210  177.6450  135.9040 C   0  0  1  0  0  0  0  0  0  0  0  0
  186.0920  178.4360  137.9550 O   0  0  0  0  0  1  0  0  0  0  0  0
  185.7680  177.9820  136.6710 C   0  0  1  0  0  0  0  0  0  0  0  0
  184.7400  176.8930  136.7620 C   0  0  2  0  0  0  0  0  0  0  0  0
  186.8460  178.0950  134.4480 C   0  0  0  0  0  1  0  0  0  0  0  0
  186.1870  176.4670  136.4540 C   0  0  2  0  0  0  0  0  0  0  0  0
  186.0810  175.4570  135.3080 C   0  0  0  0  0  0  0  0  0  0  0  0
  187.0640  174.7250  135.0100 O   0  0  0  0  0  1  0  0  0  0  0  0
  184.8520  175.1820  134.7100 O   0  0  0  0  0  0  0  0  0  0  0  0
  184.1370  176.4630  138.1130 C   0  0  1  0  0  3  0  0  0  0  0  0
  183.3390  177.4640  138.6770 O   0  0  0  0  0  1  0  0  0  0  0  0
  183.3410  175.1730  137.9700 C   0  0  0  0  0  2  0  0  0  0  0  0
  184.2070  174.0810  137.9230 O   0  0  0  0  0  1  0  0  0  0  0  0
  190.5000  177.3190  139.6660 C   0  0  0  0  0  2  0  0  0  0  0  0
  191.5530  176.8710  140.6630 C   0  0  0  0  0  2  0  0  0  0  0  0
  191.3960  177.6270  141.9660 C   0  0  0  0  0  2  0  0  0  0  0  0
  190.1780  175.7010  142.6660 O   0  0  0  0  0  0  0  0  0  0  0  0
  189.5460  177.7220  143.6670 N   0  0  0  0  0  2  0  0  0  0  0  0
  190.3660  176.9420  142.7940 C   0  0  0  0  0  0  0  0  0  0  0  0
  185.8550  178.1790  141.7710 C   0  0  0  0  0  3  0  0  0  0  0  0
  189.7660  177.5270  146.5110 C   0  0  0  0  0  3  0  0  0  0  0  0
  183.5360  178.5490  144.7810 C   0  0  0  0  0  2  0  0  0  0  0  0
  189.8670  177.7970  147.8790 C   0  0  0  0  0  3  0  0  0  0  0  0
  187.3530  177.7260  146.6420 C   0  0  0  0  0  0  0  0  0  0  0  0
  187.4590  177.9830  148.0130 C   0  0  0  0  0  3  0  0  0  0  0  0
  188.7130  178.0270  148.6300 C   0  0  0  0  0  3  0  0  0  0  0  0
  188.5140  177.5020  145.8740 C   0  0  0  0  0  0  0  0  0  0  0  0
  187.0350  177.7670  142.3810 C   0  0  0  0  0  3  0  0  0  0  0  0
  182.2390  178.8320  142.6800 C   0  0  1  0  0  3  0  0  0  0  0  0
  185.9700  177.8910  144.5610 C   0  0  0  0  0  0  0  0  0  0  0  0
  184.7240  178.4570  142.5390 C   0  0  0  0  0  0  0  0  0  0  0  0
  185.9900  177.6020  146.0410 C   0  0  0  0  0  2  0  0  0  0  0  0
  183.5010  178.9700  141.8300 C   0  0  0  0  0  2  0  0  0  0  0  0
  188.4120  177.1630  144.4000 C   0  0  1  0  0  3  0  0  0  0  0  0
  182.4900  179.4040  144.0700 C   0  0  0  0  0  2  0  0  0  0  0  0
  187.1170  177.6380  143.7760 C   0  0  0  0  0  0  0  0  0  0  0  0
  184.7770  178.3290  143.9480 C   0  0  0  0  0  0  0  0  0  0  0  0
  181.0850  179.5200  142.0280 C   0  0  0  0  0  0  0  0  0  0  0  0
  180.3580  180.3190  142.6780 O   0  0  0  0  0  1  0  0  0  0  0  0
  180.8040  179.2670  140.6920 O   0  0  0  0  0  0  0  0  0  0  0  0
  192.2940  176.4750  138.4140 C   0  0  0  0  0  2  0  0  0  0  0  0
  192.4050  175.4400  137.3060 C   0  0  0  0  0  2  0  0  0  0  0  0
  196.1080  173.2890  137.5410 C   0  0  0  0  0  3  0  0  0  0  0  0
  193.6320  174.6140  137.4860 C   0  0  0  0  0  0  0  0  0  0  0  0
  194.6190  175.0560  138.2110 N   0  0  0  0  0  0  0  0  0  0  0  0
  195.1590  172.9630  136.4220 C   0  0  0  0  0  2  0  0  0  0  0  0
  195.8430  174.3160  138.3530 C   0  0  0  0  0  3  0  0  0  0  0  0
  193.7170  173.2600  136.8340 C   0  0  0  0  0  2  0  0  0  0  0  0
  1 48  1  0  0  0  0
  1 21  1  0  0  0  0
  2  3  1  0  0  0  0
  2  1  1  0  0  0  0
  5  4  1  0  0  0  0
  5  3  1  0  0  0  0
  6  5  1  0  0  0  0
  8 12  1  6  0  0  0
  8 13  1  0  0  0  0
  8  5  1  0  0  0  0
  8 10  1  0  0  0  0
 10 11  1  0  0  0  0
 10  9  1  1  0  0  0
 11  7  1  6  0  0  0
 11 17  1  0  0  0  0
 13 14  1  6  0  0  0
 13 10  1  0  0  0  0
 13 11  1  0  0  0  0
 15 14  1  0  0  0  0
 16 14  2  0  0  0  0
 17 18  1  6  0  0  0
 19 17  1  0  0  0  0
 20 19  1  0  0  0  0
 21 22  1  0  0  0  0
 22 23  1  0  0  0  0
 23 26  1  0  0  0  0
 24 26  2  0  0  0  0
 26 25  1  0  0  0  0
 27 35  2  0  0  0  0
 27 38  1  0  0  0  0
 28 30  1  0  0  0  0
 30 33  2  0  0  0  0
 31 32  2  0  0  0  0
 32 33  1  0  0  0  0
 34 28  2  0  0  0  0
 34 31  1  0  0  0  0
 35 43  1  0  0  0  0
 36 45  1  6  0  0  0
 36 42  1  0  0  0  0
 37 39  1  0  0  0  0
 38 44  2  0  0  0  0
 39 31  1  0  0  0  0
 40 38  1  0  0  0  0
 40 36  1  0  0  0  0
 41 25  1  6  0  0  0
 41 34  1  0  0  0  0
 42 29  1  0  0  0  0
 43 41  1  0  0  0  0
 43 37  2  0  0  0  0
 44 37  1  0  0  0  0
 44 29  1  0  0  0  0
 45 46  1  0  0  0  0
 47 45  2  0  0  0  0
 49 51  1  0  0  0  0
 49 48  1  0  0  0  0
 50 54  2  0  0  0  0
 51 52  2  0  0  0  0
 52 54  1  0  0  0  0
 53 55  1  0  0  0  0
 53 50  1  0  0  0  0
 55 51  1  0  0  0  0
M  END
>  <MODEL>
2

>  <REMARK>
 VINA RESULT:      -9.1      2.994      7.478
  Name = 
  16 active torsions:
  status: ('A' for Active; 'I' for Inactive)
    1  A    between atoms: C_1  and  C_53
    2  A    between atoms: C_4  and  C_35
    3  A    between atoms: C_4  and  C_37
    4  A    between atoms: C_6  and  C_20
    5  A    between atoms: C_8  and  C_22
    6  A    between atoms: C_8  and  N_43
    7  A    between atoms: C_10  and  C_32
    8  A    between atoms: C_11  and  C_29
    9  A    between atoms: N_19  and  C_45
   10  A    between atoms: C_20  and  C_22
   11  A    between atoms: C_27  and  C_54
   12  A    between atoms: C_29  and  C_38
   13  A    between atoms: C_35  and  N_43
   14  A    between atoms: C_37  and  C_40
   15  A    between atoms: N_43  and  C_51
   16  A    between atoms: C_51  and  C_54
                            x       y       z     vdW  Elec       q    Type
                         _______ _______ _______ _____ _____    ______ ____

>  <TORSDO>
F 16

$$$$
=
 OpenBabel10272401253D

 55 61  0  0  1  0  0  0  0  0999 V2000
  186.4540  175.5290  136.7070 N   0  0  0  0  0  0  0  0  0  0  0  0
  187.6760  175.1880  135.9950 C   0  0  0  0  0  2  0  0  0  0  0  0
  188.8790  175.3130  136.9250 C   0  0  0  0  0  2  0  0  0  0  0  0
  190.1220  173.3660  137.5720 O   0  0  0  0  0  1  0  0  0  0  0  0
  190.0140  174.3440  136.5780 C   0  0  0  0  0  0  0  0  0  0  0  0
  189.6840  173.7080  135.3770 O   0  0  0  0  0  1  0  0  0  0  0  0
  194.5730  175.6500  136.6930 O   0  0  0  0  0  1  0  0  0  0  0  0
  191.3710  175.0960  136.4490 C   0  0  1  0  0  0  0  0  0  0  0  0
  192.3810  172.9430  136.2420 O   0  0  0  0  0  1  0  0  0  0  0  0
  192.6450  174.3180  136.2400 C   0  0  1  0  0  0  0  0  0  0  0  0
  193.7640  174.6210  137.1940 C   0  0  2  0  0  0  0  0  0  0  0  0
  191.4010  176.3410  135.5540 C   0  0  0  0  0  1  0  0  0  0  0  0
  192.3380  174.9820  137.6480 C   0  0  2  0  0  0  0  0  0  0  0  0
  192.4430  176.3920  138.2370 C   0  0  0  0  0  0  0  0  0  0  0  0
  191.4500  176.9190  138.8100 O   0  0  0  0  0  1  0  0  0  0  0  0
  193.6750  177.0350  138.3350 O   0  0  0  0  0  0  0  0  0  0  0  0
  194.4980  173.5020  137.9580 C   0  0  1  0  0  3  0  0  0  0  0  0
  195.1340  172.6030  137.0940 O   0  0  0  0  0  1  0  0  0  0  0  0
  195.5010  174.0830  138.9450 C   0  0  0  0  0  2  0  0  0  0  0  0
  196.7910  173.9900  138.4240 O   0  0  0  0  0  1  0  0  0  0  0  0
  186.1040  176.9000  136.3560 C   0  0  0  0  0  2  0  0  0  0  0  0
  185.9860  177.7300  137.6220 C   0  0  0  0  0  2  0  0  0  0  0  0
  184.5360  178.0750  137.8890 C   0  0  0  0  0  2  0  0  0  0  0  0
  184.4360  180.1570  139.0450 O   0  0  0  0  0  0  0  0  0  0  0  0
  184.4970  178.2450  140.3970 N   0  0  0  0  0  2  0  0  0  0  0  0
  184.4600  178.8970  139.1260 C   0  0  0  0  0  0  0  0  0  0  0  0
  188.1420  177.8450  142.3920 C   0  0  0  0  0  3  0  0  0  0  0  0
  182.0610  178.7680  141.8000 C   0  0  0  0  0  3  0  0  0  0  0  0
  187.0010  178.0230  146.0300 C   0  0  0  0  0  2  0  0  0  0  0  0
  180.8720  178.6590  142.5270 C   0  0  0  0  0  3  0  0  0  0  0  0
  183.3320  178.7710  143.8650 C   0  0  0  0  0  0  0  0  0  0  0  0
  182.1370  178.6760  144.5880 C   0  0  0  0  0  3  0  0  0  0  0  0
  180.9100  178.6110  143.9210 C   0  0  0  0  0  3  0  0  0  0  0  0
  183.3030  178.8110  142.4560 C   0  0  0  0  0  0  0  0  0  0  0  0
  186.9880  178.2370  141.7210 C   0  0  0  0  0  3  0  0  0  0  0  0
  189.4450  177.5860  145.9360 C   0  0  1  0  0  3  0  0  0  0  0  0
  185.8160  178.4600  143.8370 C   0  0  0  0  0  0  0  0  0  0  0  0
  188.1510  177.7500  143.7830 C   0  0  0  0  0  0  0  0  0  0  0  0
  184.6130  178.9250  144.6190 C   0  0  0  0  0  2  0  0  0  0  0  0
  189.4050  177.2500  144.4470 C   0  0  0  0  0  2  0  0  0  0  0  0
  184.5820  178.9750  141.6610 C   0  0  1  0  0  3  0  0  0  0  0  0
  188.1350  177.1700  146.5930 C   0  0  0  0  0  2  0  0  0  0  0  0
  185.8110  178.5280  142.4260 C   0  0  0  0  0  0  0  0  0  0  0  0
  186.9780  178.0440  144.5190 C   0  0  0  0  0  0  0  0  0  0  0  0
  190.6040  176.9130  146.5980 C   0  0  0  0  0  0  0  0  0  0  0  0
  190.4400  176.2220  147.6390 O   0  0  0  0  0  1  0  0  0  0  0  0
  191.8770  177.0620  146.0650 O   0  0  0  0  0  0  0  0  0  0  0  0
  185.4130  174.6670  136.1690 C   0  0  0  0  0  2  0  0  0  0  0  0
  184.9440  173.6960  137.2400 C   0  0  0  0  0  2  0  0  0  0  0  0
  184.1410  169.9930  135.2310 C   0  0  0  0  0  3  0  0  0  0  0  0
  184.7140  172.3450  136.6550 C   0  0  0  0  0  0  0  0  0  0  0  0
  185.5620  171.8490  135.8000 N   0  0  0  0  0  0  0  0  0  0  0  0
  183.0000  170.7100  135.8960 C   0  0  0  0  0  2  0  0  0  0  0  0
  185.3400  170.5780  135.1670 C   0  0  0  0  0  3  0  0  0  0  0  0
  183.5030  171.5540  137.0680 C   0  0  0  0  0  2  0  0  0  0  0  0
  2  1  1  0  0  0  0
  2  3  1  0  0  0  0
  5  3  1  0  0  0  0
  5  4  1  0  0  0  0
  6  5  1  0  0  0  0
  8 12  1  6  0  0  0
  8  5  1  0  0  0  0
  8 13  1  0  0  0  0
 10  9  1  1  0  0  0
 10  8  1  0  0  0  0
 10 11  1  0  0  0  0
 10 13  1  0  0  0  0
 11  7  1  6  0  0  0
 11 13  1  0  0  0  0
 11 17  1  0  0  0  0
 13 14  1  6  0  0  0
 14 16  2  0  0  0  0
 14 15  1  0  0  0  0
 17 18  1  6  0  0  0
 17 19  1  0  0  0  0
 20 19  1  0  0  0  0
 21  1  1  0  0  0  0
 21 22  1  0  0  0  0
 22 23  1  0  0  0  0
 23 26  1  0  0  0  0
 24 26  2  0  0  0  0
 26 25  1  0  0  0  0
 27 38  1  0  0  0  0
 28 34  2  0  0  0  0
 28 30  1  0  0  0  0
 29 42  1  0  0  0  0
 30 33  2  0  0  0  0
 31 32  2  0  0  0  0
 31 39  1  0  0  0  0
 33 32  1  0  0  0  0
 34 31  1  0  0  0  0
 35 27  2  0  0  0  0
 35 43  1  0  0  0  0
 36 42  1  0  0  0  0
 36 45  1  1  0  0  0
 37 44  1  0  0  0  0
 37 39  1  0  0  0  0
 38 40  1  0  0  0  0
 38 44  2  0  0  0  0
 40 36  1  0  0  0  0
 41 25  1  6  0  0  0
 41 43  1  0  0  0  0
 41 34  1  0  0  0  0
 43 37  2  0  0  0  0
 44 29  1  0  0  0  0
 45 46  1  0  0  0  0
 47 45  2  0  0  0  0
 48  1  1  0  0  0  0
 48 49  1  0  0  0  0
 50 53  1  0  0  0  0
 51 55  1  0  0  0  0
 51 49  1  0  0  0  0
 52 51  2  0  0  0  0
 53 55  1  0  0  0  0
 54 50  2  0  0  0  0
 54 52  1  0  0  0  0
M  END
>  <MODEL>
3

>  <REMARK>
 VINA RESULT:      -8.8      2.726      4.125
  Name = 
  16 active torsions:
  status: ('A' for Active; 'I' for Inactive)
    1  A    between atoms: C_1  and  C_53
    2  A    between atoms: C_4  and  C_35
    3  A    between atoms: C_4  and  C_37
    4  A    between atoms: C_6  and  C_20
    5  A    between atoms: C_8  and  C_22
    6  A    between atoms: C_8  and  N_43
    7  A    between atoms: C_10  and  C_32
    8  A    between atoms: C_11  and  C_29
    9  A    between atoms: N_19  and  C_45
   10  A    between atoms: C_20  and  C_22
   11  A    between atoms: C_27  and  C_54
   12  A    between atoms: C_29  and  C_38
   13  A    between atoms: C_35  and  N_43
   14  A    between atoms: C_37  and  C_40
   15  A    between atoms: N_43  and  C_51
   16  A    between atoms: C_51  and  C_54
                            x       y       z     vdW  Elec       q    Type
                         _______ _______ _______ _____ _____    ______ ____

>  <TORSDO>
F 16

$$$$
=
 OpenBabel10272401253D

 55 61  0  0  1  0  0  0  0  0999 V2000
  186.0700  175.4280  136.5270 N   0  0  0  0  0  0  0  0  0  0  0  0
  187.2290  174.9340  135.8000 C   0  0  0  0  0  2  0  0  0  0  0  0
  188.5080  175.2630  136.5630 C   0  0  0  0  0  2  0  0  0  0  0  0
  189.8220  173.4630  137.4500 O   0  0  0  0  0  1  0  0  0  0  0  0
  189.6360  174.2560  136.3130 C   0  0  0  0  0  0  0  0  0  0  0  0
  189.2420  173.4220  135.2620 O   0  0  0  0  0  1  0  0  0  0  0  0
  194.1790  175.4910  135.7350 O   0  0  0  0  0  1  0  0  0  0  0  0
  190.9690  174.9830  135.9710 C   0  0  1  0  0  0  0  0  0  0  0  0
  191.9110  172.8100  135.6720 O   0  0  0  0  0  1  0  0  0  0  0  0
  192.1900  174.1800  135.5990 C   0  0  1  0  0  0  0  0  0  0  0  0
  193.4380  174.4860  136.3730 C   0  0  2  0  0  0  0  0  0  0  0  0
  190.8850  176.2080  135.0520 C   0  0  0  0  0  1  0  0  0  0  0  0
  192.0980  174.8800  137.0200 C   0  0  2  0  0  0  0  0  0  0  0  0
  192.3050  176.3010  137.5530 C   0  0  0  0  0  0  0  0  0  0  0  0
  191.3720  176.8970  138.1590 O   0  0  0  0  0  1  0  0  0  0  0  0
  193.5720  176.8820  137.5650 O   0  0  0  0  0  0  0  0  0  0  0  0
  194.2620  173.3730  137.0490 C   0  0  1  0  0  3  0  0  0  0  0  0
  195.1110  172.7220  136.1470 O   0  0  0  0  0  1  0  0  0  0  0  0
  195.0610  173.9210  138.2230 C   0  0  0  0  0  2  0  0  0  0  0  0
  195.4780  172.8770  139.0460 O   0  0  0  0  0  1  0  0  0  0  0  0
  186.1070  176.8860  136.4840 C   0  0  0  0  0  2  0  0  0  0  0  0
  185.7880  177.4390  137.8620 C   0  0  0  0  0  2  0  0  0  0  0  0
  184.5540  178.3140  137.8020 C   0  0  0  0  0  2  0  0  0  0  0  0
  184.2930  180.3280  139.0500 O   0  0  0  0  0  0  0  0  0  0  0  0
  184.5980  178.3810  140.3150 N   0  0  0  0  0  2  0  0  0  0  0  0
  184.4460  179.0760  139.0750 C   0  0  0  0  0  0  0  0  0  0  0  0
  188.2160  177.9290  142.3490 C   0  0  0  0  0  3  0  0  0  0  0  0
  182.1380  178.8380  141.6990 C   0  0  0  0  0  3  0  0  0  0  0  0
  187.0190  177.9690  145.9740 C   0  0  0  0  0  2  0  0  0  0  0  0
  180.9390  178.6970  142.4030 C   0  0  0  0  0  3  0  0  0  0  0  0
  183.3780  178.7750  143.7810 C   0  0  0  0  0  0  0  0  0  0  0  0
  182.1730  178.6460  144.4820 C   0  0  0  0  0  3  0  0  0  0  0  0
  180.9570  178.5990  143.7950 C   0  0  0  0  0  3  0  0  0  0  0  0
  183.3700  178.8650  142.3750 C   0  0  0  0  0  0  0  0  0  0  0  0
  187.0700  178.3380  141.6750 C   0  0  0  0  0  3  0  0  0  0  0  0
  189.4670  177.5490  145.9010 C   0  0  1  0  0  3  0  0  0  0  0  0
  185.8640  178.4780  143.7800 C   0  0  0  0  0  0  0  0  0  0  0  0
  188.2050  177.7840  143.7350 C   0  0  0  0  0  0  0  0  0  0  0  0
  184.6480  178.9070  144.5600 C   0  0  0  0  0  2  0  0  0  0  0  0
  189.4510  177.2660  144.3990 C   0  0  0  0  0  2  0  0  0  0  0  0
  184.6600  179.0640  141.6050 C   0  0  1  0  0  3  0  0  0  0  0  0
  188.1500  177.1020  146.5220 C   0  0  0  0  0  2  0  0  0  0  0  0
  185.8800  178.5970  142.3720 C   0  0  0  0  0  0  0  0  0  0  0  0
  187.0190  178.0440  144.4640 C   0  0  0  0  0  0  0  0  0  0  0  0
  190.6200  176.8590  146.5550 C   0  0  0  0  0  0  0  0  0  0  0  0
  190.4380  176.0870  147.5340 O   0  0  0  0  0  1  0  0  0  0  0  0
  191.9070  177.0830  146.0850 O   0  0  0  0  0  0  0  0  0  0  0  0
  184.9010  175.0050  135.7720 C   0  0  0  0  0  2  0  0  0  0  0  0
  183.8980  174.3420  136.7030 C   0  0  0  0  0  2  0  0  0  0  0  0
  180.8480  177.2370  137.5410 C   0  0  0  0  0  3  0  0  0  0  0  0
  182.7460  175.2500  136.9600 C   0  0  0  0  0  0  0  0  0  0  0  0
  182.3910  176.1280  136.0660 N   0  0  0  0  0  0  0  0  0  0  0  0
  181.4850  176.5140  138.6930 C   0  0  0  0  0  2  0  0  0  0  0  0
  181.3270  177.0640  136.3060 C   0  0  0  0  0  3  0  0  0  0  0  0
  181.9860  175.1370  138.2540 C   0  0  0  0  0  2  0  0  0  0  0  0
  2  1  1  0  0  0  0
  2  3  1  0  0  0  0
  5  3  1  0  0  0  0
  5  4  1  0  0  0  0
  6  5  1  0  0  0  0
  8 12  1  6  0  0  0
  8  5  1  0  0  0  0
  8 13  1  0  0  0  0
 10  9  1  1  0  0  0
 10  8  1  0  0  0  0
 10 11  1  0  0  0  0
 10 13  1  0  0  0  0
 11  7  1  6  0  0  0
 11 13  1  0  0  0  0
 11 17  1  0  0  0  0
 13 14  1  6  0  0  0
 14 16  2  0  0  0  0
 14 15  1  0  0  0  0
 17 18  1  6  0  0  0
 17 19  1  0  0  0  0
 19 20  1  0  0  0  0
 21  1  1  0  0  0  0
 21 22  1  0  0  0  0
 23 22  1  0  0  0  0
 23 26  1  0  0  0  0
 24 26  2  0  0  0  0
 26 25  1  0  0  0  0
 27 38  1  0  0  0  0
 28 34  2  0  0  0  0
 28 30  1  0  0  0  0
 29 42  1  0  0  0  0
 30 33  2  0  0  0  0
 31 32  2  0  0  0  0
 31 39  1  0  0  0  0
 33 32  1  0  0  0  0
 34 31  1  0  0  0  0
 35 27  2  0  0  0  0
 35 43  1  0  0  0  0
 36 42  1  0  0  0  0
 36 45  1  1  0  0  0
 37 44  1  0  0  0  0
 37 39  1  0  0  0  0
 38 40  1  0  0  0  0
 38 44  2  0  0  0  0
 40 36  1  0  0  0  0
 41 25  1  6  0  0  0
 41 43  1  0  0  0  0
 41 34  1  0  0  0  0
 43 37  2  0  0  0  0
 44 29  1  0  0  0  0
 45 46  1  0  0  0  0
 47 45  2  0  0  0  0
 48  1  1  0  0  0  0
 48 49  1  0  0  0  0
 49 51  1  0  0  0  0
 50 53  1  0  0  0  0
 51 55  1  0  0  0  0
 52 54  1  0  0  0  0
 52 51  2  0  0  0  0
 54 50  2  0  0  0  0
 55 53  1  0  0  0  0
M  END
>  <MODEL>
4

>  <REMARK>
 VINA RESULT:      -8.7      1.956      4.043
  Name = 
  16 active torsions:
  status: ('A' for Active; 'I' for Inactive)
    1  A    between atoms: C_1  and  C_53
    2  A    between atoms: C_4  and  C_35
    3  A    between atoms: C_4  and  C_37
    4  A    between atoms: C_6  and  C_20
    5  A    between atoms: C_8  and  C_22
    6  A    between atoms: C_8  and  N_43
    7  A    between atoms: C_10  and  C_32
    8  A    between atoms: C_11  and  C_29
    9  A    between atoms: N_19  and  C_45
   10  A    between atoms: C_20  and  C_22
   11  A    between atoms: C_27  and  C_54
   12  A    between atoms: C_29  and  C_38
   13  A    between atoms: C_35  and  N_43
   14  A    between atoms: C_37  and  C_40
   15  A    between atoms: N_43  and  C_51
   16  A    between atoms: C_51  and  C_54
                            x       y       z     vdW  Elec       q    Type
                         _______ _______ _______ _____ _____    ______ ____

>  <TORSDO>
F 16

$$$$
=
 OpenBabel10272401253D

 55 61  0  0  1  0  0  0  0  0999 V2000
  189.3950  177.2960  138.1870 N   0  0  0  0  0  0  0  0  0  0  0  0
  190.2620  176.1870  137.8150 C   0  0  0  0  0  2  0  0  0  0  0  0
  191.6380  176.7090  137.4120 C   0  0  0  0  0  2  0  0  0  0  0  0
  191.3130  175.6190  135.3010 O   0  0  0  0  0  1  0  0  0  0  0  0
  192.2770  175.9090  136.2720 C   0  0  0  0  0  0  0  0  0  0  0  0
  193.2590  176.7100  135.6830 O   0  0  0  0  0  1  0  0  0  0  0  0
  194.9750  172.5830  138.3130 O   0  0  0  0  0  1  0  0  0  0  0  0
  192.8900  174.5780  136.7980 C   0  0  1  0  0  0  0  0  0  0  0  0
  193.7510  175.8610  138.6180 O   0  0  0  0  0  1  0  0  0  0  0  0
  193.6670  174.5670  138.0900 C   0  0  1  0  0  0  0  0  0  0  0  0
  195.0360  173.9550  138.0290 C   0  0  2  0  0  0  0  0  0  0  0  0
  192.0050  173.3280  136.7430 C   0  0  0  0  0  1  0  0  0  0  0  0
  194.4260  174.4430  136.7020 C   0  0  2  0  0  0  0  0  0  0  0  0
  194.6860  173.3190  135.6950 C   0  0  0  0  0  0  0  0  0  0  0  0
  195.5090  173.4840  134.7540 O   0  0  0  0  0  0  0  0  0  0  0  0
  194.1820  172.0370  135.9100 O   0  0  0  0  0  1  0  0  0  0  0  0
  196.2760  174.6960  138.5640 C   0  0  1  0  0  3  0  0  0  0  0  0
  196.4930  174.4470  139.9240 O   0  0  0  0  0  1  0  0  0  0  0  0
  197.5170  174.3360  137.7590 C   0  0  0  0  0  2  0  0  0  0  0  0
  197.8960  175.4130  136.9600 O   0  0  0  0  0  1  0  0  0  0  0  0
  188.0300  176.7870  138.2600 C   0  0  0  0  0  2  0  0  0  0  0  0
  187.1220  177.6580  137.4100 C   0  0  0  0  0  2  0  0  0  0  0  0
  185.6710  177.3790  137.7380 C   0  0  0  0  0  2  0  0  0  0  0  0
  185.4180  179.6010  138.5630 O   0  0  0  0  0  0  0  0  0  0  0  0
  184.6070  177.9010  139.9560 N   0  0  0  0  0  2  0  0  0  0  0  0
  185.2100  178.3700  138.7480 C   0  0  0  0  0  0  0  0  0  0  0  0
  187.4010  177.9570  143.0580 C   0  0  0  0  0  3  0  0  0  0  0  0
  181.8400  178.4590  140.4100 C   0  0  0  0  0  3  0  0  0  0  0  0
  185.1270  178.5270  146.0710 C   0  0  0  0  0  2  0  0  0  0  0  0
  180.4800  178.3770  140.7210 C   0  0  0  0  0  3  0  0  0  0  0  0
  182.3630  178.7920  142.7540 C   0  0  0  0  0  0  0  0  0  0  0  0
  180.9990  178.7220  143.0580 C   0  0  0  0  0  3  0  0  0  0  0  0
  180.0590  178.5060  142.0460 C   0  0  0  0  0  3  0  0  0  0  0  0
  182.7970  178.6530  141.4210 C   0  0  0  0  0  0  0  0  0  0  0  0
  186.5270  178.1980  142.0030 C   0  0  0  0  0  3  0  0  0  0  0  0
  187.4720  178.2180  146.8340 C   0  0  1  0  0  3  0  0  0  0  0  0
  184.7220  178.6190  143.5740 C   0  0  0  0  0  0  0  0  0  0  0  0
  186.9540  178.0390  144.3760 C   0  0  0  0  0  0  0  0  0  0  0  0
  183.3250  179.1100  143.8540 C   0  0  0  0  0  2  0  0  0  0  0  0
  187.9260  177.6960  145.4720 C   0  0  0  0  0  2  0  0  0  0  0  0
  184.2650  178.7870  141.0680 C   0  0  1  0  0  3  0  0  0  0  0  0
  186.0240  177.8150  147.0810 C   0  0  0  0  0  2  0  0  0  0  0  0
  185.1800  178.5080  142.2420 C   0  0  0  0  0  0  0  0  0  0  0  0
  185.6010  178.3570  144.6460 C   0  0  0  0  0  0  0  0  0  0  0  0
  188.3570  177.6990  147.9200 C   0  0  0  0  0  0  0  0  0  0  0  0
  189.5390  177.3410  147.6730 O   0  0  0  0  0  0  0  0  0  0  0  0
  187.8650  177.6010  149.2140 O   0  0  0  0  0  1  0  0  0  0  0  0
  189.7820  177.6820  139.5350 C   0  0  0  0  0  2  0  0  0  0  0  0
  189.9320  176.4430  140.4040 C   0  0  0  0  0  2  0  0  0  0  0  0
  191.5290  177.4840  144.2450 C   0  0  0  0  0  3  0  0  0  0  0  0
  190.3550  176.8200  141.7810 C   0  0  0  0  0  0  0  0  0  0  0  0
  190.7490  178.0340  142.0370 N   0  0  0  0  0  0  0  0  0  0  0  0
  191.4500  176.0310  143.8710 C   0  0  0  0  0  2  0  0  0  0  0  0
  191.2270  178.4160  143.3370 C   0  0  0  0  0  3  0  0  0  0  0  0
  190.3130  175.7900  142.8780 C   0  0  0  0  0  2  0  0  0  0  0  0
  1 21  1  0  0  0  0
  1 48  1  0  0  0  0
  2  1  1  0  0  0  0
  3  2  1  0  0  0  0
  4  5  1  0  0  0  0
  5  8  1  0  0  0  0
  5  3  1  0  0  0  0
  6  5  1  0  0  0  0
  8 12  1  6  0  0  0
  8 10  1  0  0  0  0
 10  9  1  1  0  0  0
 11 10  1  0  0  0  0
 11  7  1  1  0  0  0
 11 17  1  0  0  0  0
 13 14  1  1  0  0  0
 13  8  1  0  0  0  0
 13 11  1  0  0  0  0
 13 10  1  0  0  0  0
 14 16  1  0  0  0  0
 15 14  2  0  0  0  0
 17 18  1  1  0  0  0
 19 17  1  0  0  0  0
 20 19  1  0  0  0  0
 22 23  1  0  0  0  0
 22 21  1  0  0  0  0
 23 26  1  0  0  0  0
 24 26  2  0  0  0  0
 26 25  1  0  0  0  0
 27 38  1  0  0  0  0
 28 30  2  0  0  0  0
 28 34  1  0  0  0  0
 29 42  1  0  0  0  0
 30 33  1  0  0  0  0
 31 32  1  0  0  0  0
 31 39  1  0  0  0  0
 33 32  2  0  0  0  0
 34 31  2  0  0  0  0
 35 43  1  0  0  0  0
 35 27  2  0  0  0  0
 36 42  1  0  0  0  0
 36 45  1  1  0  0  0
 37 39  1  0  0  0  0
 37 44  1  0  0  0  0
 38 44  2  0  0  0  0
 38 40  1  0  0  0  0
 40 36  1  0  0  0  0
 41 25  1  6  0  0  0
 41 34  1  0  0  0  0
 41 43  1  0  0  0  0
 43 37  2  0  0  0  0
 44 29  1  0  0  0  0
 45 47  1  0  0  0  0
 46 45  2  0  0  0  0
 48 49  1  0  0  0  0
 49 51  1  0  0  0  0
 51 52  2  0  0  0  0
 51 55  1  0  0  0  0
 52 54  1  0  0  0  0
 53 50  1  0  0  0  0
 54 50  2  0  0  0  0
 55 53  1  0  0  0  0
M  END
>  <MODEL>
5

>  <REMARK>
 VINA RESULT:      -8.6      1.225      2.147
  Name = 
  16 active torsions:
  status: ('A' for Active; 'I' for Inactive)
    1  A    between atoms: C_1  and  C_53
    2  A    between atoms: C_4  and  C_35
    3  A    between atoms: C_4  and  C_37
    4  A    between atoms: C_6  and  C_20
    5  A    between atoms: C_8  and  C_22
    6  A    between atoms: C_8  and  N_43
    7  A    between atoms: C_10  and  C_32
    8  A    between atoms: C_11  and  C_29
    9  A    between atoms: N_19  and  C_45
   10  A    between atoms: C_20  and  C_22
   11  A    between atoms: C_27  and  C_54
   12  A    between atoms: C_29  and  C_38
   13  A    between atoms: C_35  and  N_43
   14  A    between atoms: C_37  and  C_40
   15  A    between atoms: N_43  and  C_51
   16  A    between atoms: C_51  and  C_54
                            x       y       z     vdW  Elec       q    Type
                         _______ _______ _______ _____ _____    ______ ____

>  <TORSDO>
F 16

$$$$
=
 OpenBabel10272401253D

 55 61  0  0  1  0  0  0  0  0999 V2000
  191.4360  177.0490  138.6680 N   0  0  0  0  0  0  0  0  0  0  0  0
  191.7610  175.7150  138.1860 C   0  0  0  0  0  2  0  0  0  0  0  0
  193.2720  175.5660  138.0310 C   0  0  0  0  0  2  0  0  0  0  0  0
  192.7200  175.9210  135.7240 O   0  0  0  0  0  1  0  0  0  0  0  0
  193.7770  175.9620  136.6390 C   0  0  0  0  0  0  0  0  0  0  0  0
  194.2400  177.2790  136.7090 O   0  0  0  0  0  1  0  0  0  0  0  0
  196.4920  172.2100  135.6140 O   0  0  0  0  0  1  0  0  0  0  0  0
  194.9060  175.0030  136.1610 C   0  0  1  0  0  0  0  0  0  0  0  0
  193.1880  173.3840  135.8120 O   0  0  0  0  0  1  0  0  0  0  0  0
  194.5630  173.6130  135.6890 C   0  0  1  0  0  0  0  0  0  0  0  0
  195.3240  172.4930  136.3360 C   0  0  2  0  0  0  0  0  0  0  0  0
  195.9770  175.5900  135.2330 C   0  0  0  0  0  1  0  0  0  0  0  0
  195.2560  173.8280  137.1000 C   0  0  2  0  0  0  0  0  0  0  0  0
  196.6840  174.0930  137.5870 C   0  0  0  0  0  0  0  0  0  0  0  0
  196.9190  175.0360  138.3900 O   0  0  0  0  0  1  0  0  0  0  0  0
  197.7090  173.1860  137.3210 O   0  0  0  0  0  0  0  0  0  0  0  0
  194.6040  171.2780  136.9510 C   0  0  1  0  0  3  0  0  0  0  0  0
  194.0180  170.4630  135.9750 O   0  0  0  0  0  1  0  0  0  0  0  0
  195.5530  170.4620  137.8180 C   0  0  0  0  0  2  0  0  0  0  0  0
  194.8400  169.4970  138.5270 O   0  0  0  0  0  1  0  0  0  0  0  0
  189.9940  177.2270  138.5420 C   0  0  0  0  0  2  0  0  0  0  0  0
  189.6500  177.5490  137.0980 C   0  0  0  0  0  2  0  0  0  0  0  0
  188.2680  177.0330  136.7620 C   0  0  0  0  0  2  0  0  0  0  0  0
  187.4160  179.2480  136.9860 O   0  0  0  0  0  0  0  0  0  0  0  0
  186.1690  177.5670  138.0390 N   0  0  0  0  0  2  0  0  0  0  0  0
  187.2600  178.0200  137.2350 C   0  0  0  0  0  0  0  0  0  0  0  0
  186.9960  178.4230  142.0410 C   0  0  0  0  0  3  0  0  0  0  0  0
  183.5070  177.6590  136.9970 C   0  0  0  0  0  3  0  0  0  0  0  0
  183.4680  178.8590  143.4320 C   0  0  0  0  0  2  0  0  0  0  0  0
  182.1940  177.3630  136.6220 C   0  0  0  0  0  3  0  0  0  0  0  0
  182.7400  178.3040  139.2040 C   0  0  0  0  0  0  0  0  0  0  0  0
  181.4250  178.0180  138.8190 C   0  0  0  0  0  3  0  0  0  0  0  0
  181.1520  177.5410  137.5340 C   0  0  0  0  0  3  0  0  0  0  0  0
  183.7980  178.1180  138.2930 C   0  0  0  0  0  0  0  0  0  0  0  0
  186.7510  178.3990  140.6710 C   0  0  0  0  0  3  0  0  0  0  0  0
  185.1270  179.0520  145.2720 C   0  0  1  0  0  3  0  0  0  0  0  0
  184.3680  178.6370  141.0770 C   0  0  0  0  0  0  0  0  0  0  0  0
  185.9400  178.5480  142.9430 C   0  0  0  0  0  0  0  0  0  0  0  0
  182.9760  178.8930  140.5580 C   0  0  0  0  0  2  0  0  0  0  0  0
  186.2590  178.4920  144.4120 C   0  0  0  0  0  2  0  0  0  0  0  0
  185.2200  178.4790  138.6750 C   0  0  1  0  0  3  0  0  0  0  0  0
  183.8050  178.4210  144.8550 C   0  0  0  0  0  2  0  0  0  0  0  0
  185.4420  178.4840  140.1730 C   0  0  0  0  0  0  0  0  0  0  0  0
  184.6100  178.6420  142.4670 C   0  0  0  0  0  0  0  0  0  0  0  0
  185.3950  178.8080  146.7210 C   0  0  0  0  0  0  0  0  0  0  0  0
  185.0860  177.7110  147.2590 O   0  0  0  0  0  0  0  0  0  0  0  0
  185.9810  179.8080  147.4860 O   0  0  0  0  0  1  0  0  0  0  0  0
  191.7480  177.0580  140.0890 C   0  0  0  0  0  2  0  0  0  0  0  0
  190.5060  177.4220  140.8870 C   0  0  0  0  0  2  0  0  0  0  0  0
  190.9950  177.0250  145.1280 C   0  0  0  0  0  3  0  0  0  0  0  0
  190.7890  177.3640  142.3480 C   0  0  0  0  0  0  0  0  0  0  0  0
  191.3790  176.3220  142.8600 N   0  0  0  0  0  0  0  0  0  0  0  0
  189.9950  178.0200  144.6120 C   0  0  0  0  0  2  0  0  0  0  0  0
  191.6090  176.2020  144.2740 C   0  0  0  0  0  3  0  0  0  0  0  0
  190.4000  178.5220  143.2260 C   0  0  0  0  0  2  0  0  0  0  0  0
  1 48  1  0  0  0  0
  2  1  1  0  0  0  0
  3  2  1  0  0  0  0
  4  5  1  0  0  0  0
  5  6  1  0  0  0  0
  5  3  1  0  0  0  0
  8 12  1  6  0  0  0
  8  5  1  0  0  0  0
  8 13  1  0  0  0  0
 10  9  1  1  0  0  0
 10  8  1  0  0  0  0
 10 11  1  0  0  0  0
 10 13  1  0  0  0  0
 11  7  1  6  0  0  0
 11 17  1  0  0  0  0
 11 13  1  0  0  0  0
 13 14  1  6  0  0  0
 14 15  1  0  0  0  0
 16 14  2  0  0  0  0
 17 18  1  6  0  0  0
 17 19  1  0  0  0  0
 19 20  1  0  0  0  0
 21  1  1  0  0  0  0
 22 21  1  0  0  0  0
 23 22  1  0  0  0  0
 23 26  1  0  0  0  0
 24 26  2  0  0  0  0
 26 25  1  0  0  0  0
 27 38  1  0  0  0  0
 28 34  1  0  0  0  0
 29 42  1  0  0  0  0
 30 28  2  0  0  0  0
 30 33  1  0  0  0  0
 31 39  1  0  0  0  0
 32 31  1  0  0  0  0
 33 32  2  0  0  0  0
 34 41  1  0  0  0  0
 34 31  2  0  0  0  0
 35 27  2  0  0  0  0
 36 45  1  1  0  0  0
 37 44  1  0  0  0  0
 38 40  1  0  0  0  0
 39 37  1  0  0  0  0
 40 36  1  0  0  0  0
 41 25  1  6  0  0  0
 41 43  1  0  0  0  0
 42 36  1  0  0  0  0
 43 35  1  0  0  0  0
 43 37  2  0  0  0  0
 44 38  2  0  0  0  0
 44 29  1  0  0  0  0
 45 46  2  0  0  0  0
 45 47  1  0  0  0  0
 48 49  1  0  0  0  0
 49 51  1  0  0  0  0
 51 52  2  0  0  0  0
 51 55  1  0  0  0  0
 52 54  1  0  0  0  0
 53 50  1  0  0  0  0
 54 50  2  0  0  0  0
 55 53  1  0  0  0  0
M  END
>  <MODEL>
6

>  <REMARK>
 VINA RESULT:      -7.9      1.998      3.186
  Name = 
  16 active torsions:
  status: ('A' for Active; 'I' for Inactive)
    1  A    between atoms: C_1  and  C_53
    2  A    between atoms: C_4  and  C_35
    3  A    between atoms: C_4  and  C_37
    4  A    between atoms: C_6  and  C_20
    5  A    between atoms: C_8  and  C_22
    6  A    between atoms: C_8  and  N_43
    7  A    between atoms: C_10  and  C_32
    8  A    between atoms: C_11  and  C_29
    9  A    between atoms: N_19  and  C_45
   10  A    between atoms: C_20  and  C_22
   11  A    between atoms: C_27  and  C_54
   12  A    between atoms: C_29  and  C_38
   13  A    between atoms: C_35  and  N_43
   14  A    between atoms: C_37  and  C_40
   15  A    between atoms: N_43  and  C_51
   16  A    between atoms: C_51  and  C_54
                            x       y       z     vdW  Elec       q    Type
                         _______ _______ _______ _____ _____    ______ ____

>  <TORSDO>
F 16

$$$$
=
 OpenBabel10272401253D

 55 61  0  0  1  0  0  0  0  0999 V2000
  187.3770  176.0020  136.7030 N   0  0  0  0  0  0  0  0  0  0  0  0
  186.6910  174.7750  137.0810 C   0  0  0  0  0  2  0  0  0  0  0  0
  185.6490  174.4110  136.0290 C   0  0  0  0  0  2  0  0  0  0  0  0
  185.3250  172.0360  135.9450 O   0  0  0  0  0  1  0  0  0  0  0  0
  184.7710  173.2230  136.4360 C   0  0  0  0  0  0  0  0  0  0  0  0
  184.7630  173.1530  137.8320 O   0  0  0  0  0  1  0  0  0  0  0  0
  180.3440  174.6350  135.4810 O   0  0  0  0  0  1  0  0  0  0  0  0
  183.3240  173.3800  135.8820 C   0  0  1  0  0  0  0  0  0  0  0  0
  183.5950  175.7240  136.2410 O   0  0  0  0  0  1  0  0  0  0  0  0
  182.7110  174.7520  135.7590 C   0  0  1  0  0  0  0  0  0  0  0  0
  181.3650  174.9290  136.3960 C   0  0  2  0  0  0  0  0  0  0  0  0
  182.9560  172.5610  134.6390 C   0  0  0  0  0  1  0  0  0  0  0  0
  182.2330  173.7650  136.9050 C   0  0  2  0  0  0  0  0  0  0  0  0
  181.2920  172.5590  136.9870 C   0  0  0  0  0  0  0  0  0  0  0  0
  180.1110  172.6420  136.5520 O   0  0  0  0  0  0  0  0  0  0  0  0
  181.7720  171.3020  137.3500 O   0  0  0  0  0  1  0  0  0  0  0  0
  181.0790  176.0900  137.3690 C   0  0  1  0  0  3  0  0  0  0  0  0
  180.6170  177.2320  136.7060 O   0  0  0  0  0  1  0  0  0  0  0  0
  180.0880  175.6690  138.4450 C   0  0  0  0  0  2  0  0  0  0  0  0
  180.5540  176.0550  139.7010 O   0  0  0  0  0  1  0  0  0  0  0  0
  187.1220  176.9920  137.7430 C   0  0  0  0  0  2  0  0  0  0  0  0
  186.1790  178.0540  137.2070 C   0  0  0  0  0  2  0  0  0  0  0  0
  184.8090  177.9010  137.8310 C   0  0  0  0  0  2  0  0  0  0  0  0
  184.7030  180.0180  138.9220 O   0  0  0  0  0  0  0  0  0  0  0  0
  184.7880  178.1500  140.3330 N   0  0  0  0  0  2  0  0  0  0  0  0
  184.7360  178.7620  139.0430 C   0  0  0  0  0  0  0  0  0  0  0  0
  188.3940  177.7130  142.3920 C   0  0  0  0  0  3  0  0  0  0  0  0
  182.3500  178.7900  141.6840 C   0  0  0  0  0  3  0  0  0  0  0  0
  187.2100  178.0470  146.0060 C   0  0  0  0  0  2  0  0  0  0  0  0
  181.1490  178.7400  142.3970 C   0  0  0  0  0  3  0  0  0  0  0  0
  183.5930  178.8270  143.7640 C   0  0  0  0  0  0  0  0  0  0  0  0
  182.3870  178.7900  144.4740 C   0  0  0  0  0  3  0  0  0  0  0  0
  181.1680  178.7380  143.7920 C   0  0  0  0  0  3  0  0  0  0  0  0
  183.5840  178.8190  142.3550 C   0  0  0  0  0  0  0  0  0  0  0  0
  187.2610  178.1150  141.6920 C   0  0  0  0  0  3  0  0  0  0  0  0
  189.6420  177.5370  145.9610 C   0  0  1  0  0  3  0  0  0  0  0  0
  186.0670  178.4440  143.7820 C   0  0  0  0  0  0  0  0  0  0  0  0
  188.3820  177.6650  143.7850 C   0  0  0  0  0  0  0  0  0  0  0  0
  184.8690  178.9690  144.5310 C   0  0  0  0  0  2  0  0  0  0  0  0
  189.6110  177.1510  144.4830 C   0  0  0  0  0  2  0  0  0  0  0  0
  184.8780  178.9190  141.5730 C   0  0  1  0  0  3  0  0  0  0  0  0
  188.3110  177.1810  146.6120 C   0  0  0  0  0  2  0  0  0  0  0  0
  186.0830  178.4630  142.3700 C   0  0  0  0  0  0  0  0  0  0  0  0
  187.2080  178.0170  144.4950 C   0  0  0  0  0  0  0  0  0  0  0  0
  190.7710  176.8540  146.6610 C   0  0  0  0  0  0  0  0  0  0  0  0
  190.6410  176.4420  147.8450 O   0  0  0  0  0  1  0  0  0  0  0  0
  191.9810  176.6840  146.0030 O   0  0  0  0  0  0  0  0  0  0  0  0
  188.8000  175.7010  136.7350 C   0  0  0  0  0  2  0  0  0  0  0  0
  189.5970  176.9900  136.8580 C   0  0  0  0  0  2  0  0  0  0  0  0
  192.6560  177.0180  139.8620 C   0  0  0  0  0  3  0  0  0  0  0  0
  190.6260  176.8670  137.9280 C   0  0  0  0  0  0  0  0  0  0  0  0
  190.3890  177.3300  139.1220 N   0  0  0  0  0  0  0  0  0  0  0  0
  193.0630  176.8440  138.4260 C   0  0  0  0  0  2  0  0  0  0  0  0
  191.3820  177.2880  140.1590 C   0  0  0  0  0  3  0  0  0  0  0  0
  191.9370  176.1940  137.6220 C   0  0  0  0  0  2  0  0  0  0  0  0
  1 48  1  0  0  0  0
  1  2  1  0  0  0  0
  1 21  1  0  0  0  0
  3  5  1  0  0  0  0
  3  2  1  0  0  0  0
  4  5  1  0  0  0  0
  5  6  1  0  0  0  0
  8 12  1  6  0  0  0
  8  5  1  0  0  0  0
  8 13  1  0  0  0  0
 10  8  1  0  0  0  0
 10  9  1  1  0  0  0
 10 11  1  0  0  0  0
 10 13  1  0  0  0  0
 11  7  1  6  0  0  0
 11 13  1  0  0  0  0
 11 17  1  0  0  0  0
 13 14  1  6  0  0  0
 14 16  1  0  0  0  0
 15 14  2  0  0  0  0
 17 18  1  6  0  0  0
 17 19  1  0  0  0  0
 19 20  1  0  0  0  0
 22 21  1  0  0  0  0
 22 23  1  0  0  0  0
 23 26  1  0  0  0  0
 24 26  2  0  0  0  0
 26 25  1  0  0  0  0
 27 38  1  0  0  0  0
 28 34  2  0  0  0  0
 28 30  1  0  0  0  0
 29 42  1  0  0  0  0
 30 33  2  0  0  0  0
 31 32  2  0  0  0  0
 31 39  1  0  0  0  0
 33 32  1  0  0  0  0
 34 31  1  0  0  0  0
 35 43  1  0  0  0  0
 35 27  2  0  0  0  0
 36 42  1  0  0  0  0
 36 45  1  1  0  0  0
 37 44  1  0  0  0  0
 37 39  1  0  0  0  0
 38 40  1  0  0  0  0
 38 44  2  0  0  0  0
 40 36  1  0  0  0  0
 41 25  1  6  0  0  0
 41 34  1  0  0  0  0
 41 43  1  0  0  0  0
 43 37  2  0  0  0  0
 44 29  1  0  0  0  0
 45 46  1  0  0  0  0
 47 45  2  0  0  0  0
 48 49  1  0  0  0  0
 49 51  1  0  0  0  0
 50 54  2  0  0  0  0
 51 52  2  0  0  0  0
 52 54  1  0  0  0  0
 53 50  1  0  0  0  0
 55 51  1  0  0  0  0
 55 53  1  0  0  0  0
M  END
>  <MODEL>
7

>  <REMARK>
 VINA RESULT:      -7.8      3.662      7.039
  Name = 
  16 active torsions:
  status: ('A' for Active; 'I' for Inactive)
    1  A    between atoms: C_1  and  C_53
    2  A    between atoms: C_4  and  C_35
    3  A    between atoms: C_4  and  C_37
    4  A    between atoms: C_6  and  C_20
    5  A    between atoms: C_8  and  C_22
    6  A    between atoms: C_8  and  N_43
    7  A    between atoms: C_10  and  C_32
    8  A    between atoms: C_11  and  C_29
    9  A    between atoms: N_19  and  C_45
   10  A    between atoms: C_20  and  C_22
   11  A    between atoms: C_27  and  C_54
   12  A    between atoms: C_29  and  C_38
   13  A    between atoms: C_35  and  N_43
   14  A    between atoms: C_37  and  C_40
   15  A    between atoms: N_43  and  C_51
   16  A    between atoms: C_51  and  C_54
                            x       y       z     vdW  Elec       q    Type
                         _______ _______ _______ _____ _____    ______ ____

>  <TORSDO>
F 16

$$$$
=
 OpenBabel10272401253D

 55 61  0  0  1  0  0  0  0  0999 V2000
  187.5180  175.8980  136.3180 N   0  0  0  0  0  0  0  0  0  0  0  0
  188.8270  176.5320  136.3600 C   0  0  0  0  0  2  0  0  0  0  0  0
  189.8470  175.6800  135.6100 C   0  0  0  0  0  2  0  0  0  0  0  0
  191.9270  176.5500  134.7910 O   0  0  0  0  0  1  0  0  0  0  0  0
  191.2980  176.0510  135.9360 C   0  0  0  0  0  0  0  0  0  0  0  0
  191.2770  177.0660  136.8970 O   0  0  0  0  0  1  0  0  0  0  0  0
  194.6380  172.9980  137.3610 O   0  0  0  0  0  1  0  0  0  0  0  0
  192.0880  174.8140  136.4560 C   0  0  1  0  0  0  0  0  0  0  0  0
  193.6640  176.3730  137.3410 O   0  0  0  0  0  1  0  0  0  0  0  0
  193.3600  175.0100  137.2420 C   0  0  1  0  0  0  0  0  0  0  0  0
  194.5590  174.2570  136.7480 C   0  0  2  0  0  0  0  0  0  0  0  0
  191.2770  173.6850  137.1030 C   0  0  0  0  0  1  0  0  0  0  0  0
  193.4200  174.4970  135.7420 C   0  0  2  0  0  0  0  0  0  0  0  0
  193.2080  173.1550  135.0360 C   0  0  0  0  0  0  0  0  0  0  0  0
  192.0690  172.8400  134.5940 O   0  0  0  0  0  0  0  0  0  0  0  0
  194.2920  172.3510  134.6900 O   0  0  0  0  0  1  0  0  0  0  0  0
  195.9050  174.9620  136.4900 C   0  0  1  0  0  3  0  0  0  0  0  0
  196.6760  175.0690  137.6540 O   0  0  0  0  0  1  0  0  0  0  0  0
  196.6950  174.2490  135.4010 C   0  0  0  0  0  2  0  0  0  0  0  0
  197.9030  174.9080  135.1790 O   0  0  0  0  0  1  0  0  0  0  0  0
  186.7910  176.2990  137.5170 C   0  0  0  0  0  2  0  0  0  0  0  0
  186.2370  177.7000  137.3250 C   0  0  0  0  0  2  0  0  0  0  0  0
  184.8060  177.7690  137.8130 C   0  0  0  0  0  2  0  0  0  0  0  0
  184.7240  179.9080  138.8620 O   0  0  0  0  0  0  0  0  0  0  0  0
  184.8080  178.0680  140.3100 N   0  0  0  0  0  2  0  0  0  0  0  0
  184.7500  178.6540  139.0080 C   0  0  0  0  0  0  0  0  0  0  0  0
  188.4130  177.6170  142.3680 C   0  0  0  0  0  3  0  0  0  0  0  0
  182.3850  178.7750  141.6530 C   0  0  0  0  0  3  0  0  0  0  0  0
  187.2450  178.0460  145.9770 C   0  0  0  0  0  2  0  0  0  0  0  0
  181.1850  178.7590  142.3700 C   0  0  0  0  0  3  0  0  0  0  0  0
  183.6340  178.8360  143.7290 C   0  0  0  0  0  0  0  0  0  0  0  0
  182.4300  178.8330  144.4420 C   0  0  0  0  0  3  0  0  0  0  0  0
  181.2080  178.7860  143.7650 C   0  0  0  0  0  3  0  0  0  0  0  0
  183.6210  178.7990  142.3210 C   0  0  0  0  0  0  0  0  0  0  0  0
  187.2840  178.0230  141.6620 C   0  0  0  0  0  3  0  0  0  0  0  0
  189.6680  177.4970  145.9370 C   0  0  1  0  0  3  0  0  0  0  0  0
  186.1020  178.4140  143.7490 C   0  0  0  0  0  0  0  0  0  0  0  0
  188.4040  177.5990  143.7620 C   0  0  0  0  0  0  0  0  0  0  0  0
  184.9140  178.9740  144.4890 C   0  0  0  0  0  2  0  0  0  0  0  0
  189.6270  177.0810  144.4670 C   0  0  0  0  0  2  0  0  0  0  0  0
  184.9140  178.8620  141.5330 C   0  0  1  0  0  3  0  0  0  0  0  0
  188.3340  177.1760  146.5990 C   0  0  0  0  0  2  0  0  0  0  0  0
  186.1140  178.4040  142.3360 C   0  0  0  0  0  0  0  0  0  0  0  0
  187.2380  177.9850  144.4670 C   0  0  0  0  0  0  0  0  0  0  0  0
  190.7890  176.8110  146.6480 C   0  0  0  0  0  0  0  0  0  0  0  0
  191.9870  177.0320  146.3280 O   0  0  0  0  0  0  0  0  0  0  0  0
  190.5030  175.9120  147.6660 O   0  0  0  0  0  1  0  0  0  0  0  0
  186.8210  176.4740  135.1790 C   0  0  0  0  0  2  0  0  0  0  0  0
  186.1900  175.3690  134.3470 C   0  0  0  0  0  2  0  0  0  0  0  0
  182.8650  173.9720  136.6670 C   0  0  0  0  0  3  0  0  0  0  0  0
  184.9950  174.8120  135.0410 C   0  0  0  0  0  0  0  0  0  0  0  0
  183.9170  175.5320  135.1690 N   0  0  0  0  0  0  0  0  0  0  0  0
  184.2000  173.3090  136.8560 C   0  0  0  0  0  2  0  0  0  0  0  0
  182.7690  175.0530  135.8880 C   0  0  0  0  0  3  0  0  0  0  0  0
  185.0370  173.4080  135.5800 C   0  0  0  0  0  2  0  0  0  0  0  0
  1  2  1  0  0  0  0
  1 21  1  0  0  0  0
  3  5  1  0  0  0  0
  3  2  1  0  0  0  0
  4  5  1  0  0  0  0
  5  8  1  0  0  0  0
  5  6  1  0  0  0  0
  8 12  1  1  0  0  0
  8 10  1  0  0  0  0
 10  9  1  1  0  0  0
 11 10  1  0  0  0  0
 11  7  1  1  0  0  0
 13 14  1  1  0  0  0
 13  8  1  0  0  0  0
 13 11  1  0  0  0  0
 13 10  1  0  0  0  0
 15 14  2  0  0  0  0
 16 14  1  0  0  0  0
 17 11  1  0  0  0  0
 17 18  1  1  0  0  0
 19 17  1  0  0  0  0
 20 19  1  0  0  0  0
 22 21  1  0  0  0  0
 22 23  1  0  0  0  0
 23 26  1  0  0  0  0
 24 26  2  0  0  0  0
 26 25  1  0  0  0  0
 27 38  1  0  0  0  0
 28 34  2  0  0  0  0
 28 30  1  0  0  0  0
 29 42  1  0  0  0  0
 30 33  2  0  0  0  0
 31 32  2  0  0  0  0
 31 39  1  0  0  0  0
 33 32  1  0  0  0  0
 34 31  1  0  0  0  0
 35 43  1  0  0  0  0
 35 27  2  0  0  0  0
 36 42  1  0  0  0  0
 36 45  1  1  0  0  0
 37 44  1  0  0  0  0
 37 39  1  0  0  0  0
 38 40  1  0  0  0  0
 38 44  2  0  0  0  0
 40 36  1  0  0  0  0
 41 25  1  6  0  0  0
 41 34  1  0  0  0  0
 41 43  1  0  0  0  0
 43 37  2  0  0  0  0
 44 29  1  0  0  0  0
 45 47  1  0  0  0  0
 46 45  2  0  0  0  0
 48  1  1  0  0  0  0
 49 51  1  0  0  0  0
 49 48  1  0  0  0  0
 50 53  1  0  0  0  0
 51 52  2  0  0  0  0
 51 55  1  0  0  0  0
 52 54  1  0  0  0  0
 54 50  2  0  0  0  0
 55 53  1  0  0  0  0
M  END
>  <MODEL>
8

>  <REMARK>
 VINA RESULT:      -7.5      2.197      4.170
  Name = 
  16 active torsions:
  status: ('A' for Active; 'I' for Inactive)
    1  A    between atoms: C_1  and  C_53
    2  A    between atoms: C_4  and  C_35
    3  A    between atoms: C_4  and  C_37
    4  A    between atoms: C_6  and  C_20
    5  A    between atoms: C_8  and  C_22
    6  A    between atoms: C_8  and  N_43
    7  A    between atoms: C_10  and  C_32
    8  A    between atoms: C_11  and  C_29
    9  A    between atoms: N_19  and  C_45
   10  A    between atoms: C_20  and  C_22
   11  A    between atoms: C_27  and  C_54
   12  A    between atoms: C_29  and  C_38
   13  A    between atoms: C_35  and  N_43
   14  A    between atoms: C_37  and  C_40
   15  A    between atoms: N_43  and  C_51
   16  A    between atoms: C_51  and  C_54
                            x       y       z     vdW  Elec       q    Type
                         _______ _______ _______ _____ _____    ______ ____

>  <TORSDO>
F 16

$$$$
=
 OpenBabel10272401253D

 55 61  0  0  1  0  0  0  0  0999 V2000
  189.3660  173.6780  136.4900 N   0  0  0  0  0  0  0  0  0  0  0  0
  190.3440  172.8180  135.8410 C   0  0  0  0  0  2  0  0  0  0  0  0
  191.4570  173.6600  135.2240 C   0  0  0  0  0  2  0  0  0  0  0  0
  192.8570  172.2740  136.5920 O   0  0  0  0  0  1  0  0  0  0  0  0
  192.8530  173.0660  135.4390 C   0  0  0  0  0  0  0  0  0  0  0  0
  193.1420  172.2420  134.3460 O   0  0  0  0  0  1  0  0  0  0  0  0
  196.6410  175.6840  136.5790 O   0  0  0  0  0  1  0  0  0  0  0  0
  193.9220  174.1880  135.5830 C   0  0  1  0  0  0  0  0  0  0  0  0
  195.5160  172.4340  135.8680 O   0  0  0  0  0  1  0  0  0  0  0  0
  195.3710  173.8240  135.7900 C   0  0  1  0  0  0  0  0  0  0  0  0
  196.0500  174.4710  136.9610 C   0  0  2  0  0  0  0  0  0  0  0  0
  193.8440  175.3630  134.6010 C   0  0  0  0  0  1  0  0  0  0  0  0
  194.5130  174.3980  136.9950 C   0  0  2  0  0  0  0  0  0  0  0  0
  194.0480  175.7870  137.4410 C   0  0  0  0  0  0  0  0  0  0  0  0
  193.4170  176.5350  136.6440 O   0  0  0  0  0  0  0  0  0  0  0  0
  194.1290  176.1730  138.7780 O   0  0  0  0  0  1  0  0  0  0  0  0
  196.8310  173.6430  138.0000 C   0  0  1  0  0  3  0  0  0  0  0  0
  198.1090  173.2980  137.5460 O   0  0  0  0  0  1  0  0  0  0  0  0
  196.9250  174.3820  139.3270 C   0  0  0  0  0  2  0  0  0  0  0  0
  197.8610  175.4100  139.2360 O   0  0  0  0  0  1  0  0  0  0  0  0
  190.0660  174.8640  136.9690 C   0  0  0  0  0  2  0  0  0  0  0  0
  189.0620  175.8380  137.5600 C   0  0  0  0  0  2  0  0  0  0  0  0
  189.3210  177.2360  137.0400 C   0  0  0  0  0  2  0  0  0  0  0  0
  188.8990  179.4330  137.8640 O   0  0  0  0  0  0  0  0  0  0  0  0
  187.6130  177.7240  138.8200 N   0  0  0  0  0  2  0  0  0  0  0  0
  188.5950  178.2080  137.9010 C   0  0  0  0  0  0  0  0  0  0  0  0
  189.3840  177.6710  142.6010 C   0  0  0  0  0  3  0  0  0  0  0  0
  184.8330  178.2900  138.4660 C   0  0  0  0  0  3  0  0  0  0  0  0
  186.3310  178.1730  144.8370 C   0  0  0  0  0  2  0  0  0  0  0  0
  183.4410  178.2100  138.3650 C   0  0  0  0  0  3  0  0  0  0  0  0
  184.6520  178.5530  140.8690 C   0  0  0  0  0  0  0  0  0  0  0  0
  183.2580  178.4850  140.7610 C   0  0  0  0  0  3  0  0  0  0  0  0
  182.6530  178.3040  139.5140 C   0  0  0  0  0  3  0  0  0  0  0  0
  185.4550  178.4480  139.7160 C   0  0  0  0  0  0  0  0  0  0  0  0
  188.8540  177.9480  141.3440 C   0  0  0  0  0  3  0  0  0  0  0  0
  188.3540  177.8240  146.2390 C   0  0  1  0  0  3  0  0  0  0  0  0
  186.6700  178.3380  142.3340 C   0  0  0  0  0  0  0  0  0  0  0  0
  188.5730  177.7190  143.7340 C   0  0  0  0  0  0  0  0  0  0  0  0
  185.2510  178.8320  142.2100 C   0  0  0  0  0  2  0  0  0  0  0  0
  189.1850  177.3380  145.0540 C   0  0  0  0  0  2  0  0  0  0  0  0
  186.9620  178.5810  139.8090 C   0  0  1  0  0  3  0  0  0  0  0  0
  186.8960  177.4260  146.0430 C   0  0  0  0  0  2  0  0  0  0  0  0
  187.4950  178.2620  141.1910 C   0  0  0  0  0  0  0  0  0  0  0  0
  187.2000  178.0390  143.6080 C   0  0  0  0  0  0  0  0  0  0  0  0
  188.8840  177.2690  147.5200 C   0  0  0  0  0  0  0  0  0  0  0  0
  188.1660  176.5370  148.2530 O   0  0  0  0  0  1  0  0  0  0  0  0
  190.1810  177.5720  147.9120 O   0  0  0  0  0  0  0  0  0  0  0  0
  188.4480  174.1120  135.4490 C   0  0  0  0  0  2  0  0  0  0  0  0
  187.4290  173.0180  135.1710 C   0  0  0  0  0  2  0  0  0  0  0  0
  183.9050  173.8650  137.4630 C   0  0  0  0  0  3  0  0  0  0  0  0
  186.1370  173.3240  135.8460 C   0  0  0  0  0  0  0  0  0  0  0  0
  185.8970  174.5260  136.2880 N   0  0  0  0  0  0  0  0  0  0  0  0
  184.3330  172.4330  137.3080 C   0  0  0  0  0  2  0  0  0  0  0  0
  184.6900  174.8420  137.0010 C   0  0  0  0  0  3  0  0  0  0  0  0
  185.1070  172.2390  136.0040 C   0  0  0  0  0  2  0  0  0  0  0  0
  1 21  1  0  0  0  0
  2  1  1  0  0  0  0
  3  5  1  0  0  0  0
  3  2  1  0  0  0  0
  5  8  1  0  0  0  0
  5  4  1  0  0  0  0
  6  5  1  0  0  0  0
  8 12  1  6  0  0  0
  8 10  1  0  0  0  0
  8 13  1  0  0  0  0
 10  9  1  1  0  0  0
 10 11  1  0  0  0  0
 10 13  1  0  0  0  0
 11  7  1  6  0  0  0
 11 13  1  0  0  0  0
 11 17  1  0  0  0  0
 13 14  1  6  0  0  0
 14 16  1  0  0  0  0
 15 14  2  0  0  0  0
 17 18  1  6  0  0  0
 17 19  1  0  0  0  0
 20 19  1  0  0  0  0
 21 22  1  0  0  0  0
 23 22  1  0  0  0  0
 23 26  1  0  0  0  0
 24 26  2  0  0  0  0
 26 25  1  0  0  0  0
 27 38  1  0  0  0  0
 28 34  1  0  0  0  0
 29 42  1  0  0  0  0
 30 28  2  0  0  0  0
 30 33  1  0  0  0  0
 31 39  1  0  0  0  0
 32 31  1  0  0  0  0
 33 32  2  0  0  0  0
 34 41  1  0  0  0  0
 34 31  2  0  0  0  0
 35 27  2  0  0  0  0
 36 45  1  1  0  0  0
 37 44  1  0  0  0  0
 38 40  1  0  0  0  0
 39 37  1  0  0  0  0
 40 36  1  0  0  0  0
 41 25  1  6  0  0  0
 41 43  1  0  0  0  0
 42 36  1  0  0  0  0
 43 35  1  0  0  0  0
 43 37  2  0  0  0  0
 44 38  2  0  0  0  0
 44 29  1  0  0  0  0
 45 47  2  0  0  0  0
 45 46  1  0  0  0  0
 48  1  1  0  0  0  0
 49 48  1  0  0  0  0
 49 51  1  0  0  0  0
 51 55  1  0  0  0  0
 51 52  2  0  0  0  0
 52 54  1  0  0  0  0
 53 50  1  0  0  0  0
 54 50  2  0  0  0  0
 55 53  1  0  0  0  0
M  END
>  <MODEL>
9

>  <REMARK>
 VINA RESULT:      -7.4      2.286      4.286
  Name = 
  16 active torsions:
  status: ('A' for Active; 'I' for Inactive)
    1  A    between atoms: C_1  and  C_53
    2  A    between atoms: C_4  and  C_35
    3  A    between atoms: C_4  and  C_37
    4  A    between atoms: C_6  and  C_20
    5  A    between atoms: C_8  and  C_22
    6  A    between atoms: C_8  and  N_43
    7  A    between atoms: C_10  and  C_32
    8  A    between atoms: C_11  and  C_29
    9  A    between atoms: N_19  and  C_45
   10  A    between atoms: C_20  and  C_22
   11  A    between atoms: C_27  and  C_54
   12  A    between atoms: C_29  and  C_38
   13  A    between atoms: C_35  and  N_43
   14  A    between atoms: C_37  and  C_40
   15  A    between atoms: N_43  and  C_51
   16  A    between atoms: C_51  and  C_54
                            x       y       z     vdW  Elec       q    Type
                         _______ _______ _______ _____ _____    ______ ____

>  <TORSDO>
F 16

$$$$
