=
 OpenBabel10272413593D

 30 34  0  0  1  0  0  0  0  0999 V2000
  188.1890  177.8140  142.2240 C   0  0  0  0  0  0  0  0  0  0  0  0
  190.7320  175.1880  143.2360 C   0  0  0  0  0  2  0  0  0  0  0  0
  189.0180  178.0450  145.2570 N   0  0  0  0  0  2  0  0  0  0  0  0
  186.9310  178.0530  142.8510 C   0  0  0  0  0  0  0  0  0  0  0  0
  188.3920  178.1850  140.8950 C   0  0  0  0  0  3  0  0  0  0  0  0
  182.1570  178.3830  142.7920 C   0  0  0  0  0  2  0  0  0  0  0  0
  186.1530  179.0860  140.7560 C   0  0  0  0  0  0  0  0  0  0  0  0
  185.2230  177.8480  144.7610 C   0  0  0  0  0  2  0  0  0  0  0  0
  187.1790  179.1570  146.1060 O   0  0  0  0  0  0  0  0  0  0  0  0
  187.3870  178.8060  140.1650 C   0  0  0  0  0  3  0  0  0  0  0  0
  185.9210  178.7220  142.0950 C   0  0  0  0  0  0  0  0  0  0  0  0
  191.4180  175.4230  144.5470 C   0  0  0  0  0  3  0  0  0  0  0  0
  184.6350  179.1350  144.2090 C   0  0  2  0  0  3  0  0  0  0  0  0
  182.2160  178.3880  144.3140 C   0  0  0  0  0  2  0  0  0  0  0  0
  189.3300  175.7650  143.2110 C   0  0  0  0  0  2  0  0  0  0  0  0
  189.8720  178.1300  144.0780 C   0  0  2  0  0  3  0  0  0  0  0  0
  191.6900  176.6000  145.0290 N   0  0  0  0  0  0  0  0  0  0  0  0
  189.3950  177.2580  142.9210 C   0  0  2  0  0  3  0  0  0  0  0  0
  186.8930  176.2560  144.4230 O   0  0  0  0  0  1  0  0  0  0  0  0
  187.6210  178.3430  145.2510 C   0  0  0  0  0  0  0  0  0  0  0  0
  186.6760  177.6280  144.3060 C   0  0  1  0  0  0  0  0  0  0  0  0
  183.2490  179.4060  144.8010 C   0  0  0  0  0  2  0  0  0  0  0  0
  183.5240  178.0260  142.2190 C   0  0  0  0  0  2  0  0  0  0  0  0
  191.2940  177.8530  144.4580 C   0  0  0  0  0  0  0  0  0  0  0  0
  192.1310  178.7920  144.3990 O   0  0  0  0  0  0  0  0  0  0  0  0
  184.5730  179.0430  142.6840 C   0  0  2  0  0  3  0  0  0  0  0  0
  185.1430  179.7330  140.0280 O   0  0  0  0  0  0  0  0  0  0  0  0
  184.4470  179.1290  138.9430 C   0  0  0  0  0  2  0  0  0  0  0  0
  183.0540  179.7170  138.8240 C   0  0  0  0  0  2  0  0  0  0  0  0
  182.0340  178.5980  138.8200 C   0  0  0  0  0  1  0  0  0  0  0  0
  1  4  1  0  0  0  0
  1 18  1  0  0  0  0
  2 12  1  0  0  0  0
  4 21  1  0  0  0  0
  5  1  2  0  0  0  0
  6 14  1  0  0  0  0
  7 11  1  0  0  0  0
 10  7  2  0  0  0  0
 10  5  1  0  0  0  0
 11 26  1  0  0  0  0
 11  4  2  0  0  0  0
 12 17  2  0  0  0  0
 13  8  1  1  0  0  0
 13 22  1  0  0  0  0
 14 22  1  0  0  0  0
 15  2  1  0  0  0  0
 16 24  1  1  0  0  0
 16  3  1  0  0  0  0
 18 15  1  1  0  0  0
 18 16  1  0  0  0  0
 20  3  1  0  0  0  0
 20  9  2  0  0  0  0
 21 19  1  1  0  0  0
 21  8  1  0  0  0  0
 21 20  1  0  0  0  0
 23  6  1  0  0  0  0
 24 17  1  0  0  0  0
 25 24  2  0  0  0  0
 26 23  1  1  0  0  0
 26 13  1  0  0  0  0
 27  7  1  0  0  0  0
 28 27  1  0  0  0  0
 29 28  1  0  0  0  0
 30 29  1  0  0  0  0
M  END
>  <MODEL>
1

>  <REMARK>
 VINA RESULT:      -6.8      0.000      0.000
  Name = 
  3 active torsions:
  status: ('A' for Active; 'I' for Inactive)
    1  A    between atoms: O_6  and  C_8
    2  A    between atoms: O_6  and  C_21
    3  A    between atoms: C_9  and  C_21
                            x       y       z     vdW  Elec       q    Type
                         _______ _______ _______ _____ _____    ______ ____

>  <TORSDO>
F 3

$$$$
=
 OpenBabel10272413593D

 30 34  0  0  1  0  0  0  0  0999 V2000
  192.2970  176.2220  138.1280 C   0  0  0  0  0  0  0  0  0  0  0  0
  195.2890  175.8960  135.8190 C   0  0  0  0  0  2  0  0  0  0  0  0
  192.1710  173.6200  136.3530 N   0  0  0  0  0  2  0  0  0  0  0  0
  190.9260  176.2040  137.7370 C   0  0  0  0  0  0  0  0  0  0  0  0
  192.6790  176.8440  139.3170 C   0  0  0  0  0  3  0  0  0  0  0  0
  186.5660  178.1580  137.4710 C   0  0  0  0  0  2  0  0  0  0  0  0
  190.3830  177.4120  139.8130 C   0  0  0  0  0  0  0  0  0  0  0  0
  188.9930  175.7460  136.1070 C   0  0  0  0  0  2  0  0  0  0  0  0
  189.8980  173.2060  136.3840 O   0  0  0  0  0  0  0  0  0  0  0  0
  191.7390  177.4390  140.1460 C   0  0  0  0  0  3  0  0  0  0  0  0
  189.9690  176.7920  138.6190 C   0  0  0  0  0  0  0  0  0  0  0  0
  195.4750  174.5500  135.1870 C   0  0  0  0  0  3  0  0  0  0  0  0
  188.1270  175.6550  137.3520 C   0  0  2  0  0  3  0  0  0  0  0  0
  186.2260  177.0720  136.4580 C   0  0  0  0  0  2  0  0  0  0  0  0
  193.8300  176.2000  136.0970 C   0  0  0  0  0  2  0  0  0  0  0  0
  193.2020  174.0130  137.3050 C   0  0  2  0  0  3  0  0  0  0  0  0
  195.1520  173.4250  135.7550 N   0  0  0  0  0  0  0  0  0  0  0  0
  193.4020  175.5230  137.3910 C   0  0  2  0  0  3  0  0  0  0  0  0
  191.1650  176.1520  135.3620 O   0  0  0  0  0  1  0  0  0  0  0  0
  190.8170  174.0690  136.4140 C   0  0  0  0  0  0  0  0  0  0  0  0
  190.4860  175.5470  136.4190 C   0  0  1  0  0  0  0  0  0  0  0  0
  186.6390  175.6990  136.9930 C   0  0  0  0  0  2  0  0  0  0  0  0
  188.0650  178.1570  137.7520 C   0  0  0  0  0  2  0  0  0  0  0  0
  194.4760  173.2820  137.0110 C   0  0  0  0  0  0  0  0  0  0  0  0
  194.8830  172.4200  137.8330 O   0  0  0  0  0  0  0  0  0  0  0  0
  188.4970  176.7930  138.3030 C   0  0  2  0  0  3  0  0  0  0  0  0
  189.4270  177.9930  140.6590 O   0  0  0  0  0  0  0  0  0  0  0  0
  189.4830  177.9120  142.0790 C   0  0  0  0  0  2  0  0  0  0  0  0
  188.9490  176.5710  142.5460 C   0  0  0  0  0  2  0  0  0  0  0  0
  190.1010  175.7050  143.0110 C   0  0  0  0  0  1  0  0  0  0  0  0
  1  5  1  0  0  0  0
  2 15  1  0  0  0  0
  3 20  1  0  0  0  0
  4  1  2  0  0  0  0
  4 11  1  0  0  0  0
  5 10  2  0  0  0  0
  6 23  1  0  0  0  0
  7 10  1  0  0  0  0
  7 27  1  0  0  0  0
  8 21  1  0  0  0  0
  9 20  2  0  0  0  0
 11  7  2  0  0  0  0
 12 17  2  0  0  0  0
 12  2  1  0  0  0  0
 13  8  1  6  0  0  0
 13 26  1  0  0  0  0
 14 22  1  0  0  0  0
 14  6  1  0  0  0  0
 16  3  1  6  0  0  0
 16 18  1  0  0  0  0
 17 24  1  0  0  0  0
 18 15  1  6  0  0  0
 18  1  1  0  0  0  0
 20 21  1  0  0  0  0
 21 19  1  6  0  0  0
 21  4  1  0  0  0  0
 22 13  1  0  0  0  0
 24 16  1  0  0  0  0
 24 25  2  0  0  0  0
 26 23  1  6  0  0  0
 26 11  1  0  0  0  0
 27 28  1  0  0  0  0
 28 29  1  0  0  0  0
 29 30  1  0  0  0  0
M  END
>  <MODEL>
2

>  <REMARK>
 VINA RESULT:      -6.6      6.036      8.249
  Name = 
  3 active torsions:
  status: ('A' for Active; 'I' for Inactive)
    1  A    between atoms: O_6  and  C_8
    2  A    between atoms: O_6  and  C_21
    3  A    between atoms: C_9  and  C_21
                            x       y       z     vdW  Elec       q    Type
                         _______ _______ _______ _____ _____    ______ ____

>  <TORSDO>
F 3

$$$$
=
 OpenBabel10272413593D

 30 34  0  0  1  0  0  0  0  0999 V2000
  187.7050  177.5540  138.3510 C   0  0  0  0  0  0  0  0  0  0  0  0
  190.2070  177.1160  135.5340 C   0  0  0  0  0  2  0  0  0  0  0  0
  186.9730  175.1450  136.4520 N   0  0  0  0  0  2  0  0  0  0  0  0
  186.2950  177.7160  138.2070 C   0  0  0  0  0  0  0  0  0  0  0  0
  188.3520  178.0250  139.4930 C   0  0  0  0  0  3  0  0  0  0  0  0
  182.2180  180.1370  138.8470 C   0  0  0  0  0  2  0  0  0  0  0  0
  186.2560  178.7880  140.4230 C   0  0  0  0  0  0  0  0  0  0  0  0
  184.0760  177.6100  136.9160 C   0  0  0  0  0  2  0  0  0  0  0  0
  184.7040  174.9740  136.8550 O   0  0  0  0  0  0  0  0  0  0  0  0
  187.6420  178.6410  140.5140 C   0  0  0  0  0  3  0  0  0  0  0  0
  185.5770  178.3230  139.2820 C   0  0  0  0  0  0  0  0  0  0  0  0
  190.1230  175.8180  134.7890 C   0  0  0  0  0  3  0  0  0  0  0  0
  183.4260  177.5030  138.2850 C   0  0  2  0  0  3  0  0  0  0  0  0
  181.5850  179.1860  137.8380 C   0  0  0  0  0  2  0  0  0  0  0  0
  188.8620  177.5480  136.0850 C   0  0  0  0  0  2  0  0  0  0  0  0
  188.1880  175.3430  137.2330 C   0  0  2  0  0  3  0  0  0  0  0  0
  189.7670  174.6890  135.3270 N   0  0  0  0  0  0  0  0  0  0  0  0
  188.5790  176.8090  137.3850 C   0  0  2  0  0  3  0  0  0  0  0  0
  186.1250  177.8480  135.8290 O   0  0  0  0  0  1  0  0  0  0  0  0
  185.7120  175.7290  136.7820 C   0  0  0  0  0  0  0  0  0  0  0  0
  185.5650  177.2280  136.9450 C   0  0  1  0  0  0  0  0  0  0  0  0
  181.9150  177.7360  138.1970 C   0  0  0  0  0  2  0  0  0  0  0  0
  183.7310  179.9530  138.8590 C   0  0  0  0  0  2  0  0  0  0  0  0
  189.2980  174.5090  136.6700 C   0  0  0  0  0  0  0  0  0  0  0  0
  189.7310  173.5390  137.3460 O   0  0  0  0  0  0  0  0  0  0  0  0
  184.0830  178.5070  139.2310 C   0  0  2  0  0  3  0  0  0  0  0  0
  185.5310  179.3910  141.4620 O   0  0  0  0  0  0  0  0  0  0  0  0
  185.2430  178.7440  142.6970 C   0  0  0  0  0  2  0  0  0  0  0  0
  183.7520  178.7880  142.9750 C   0  0  0  0  0  2  0  0  0  0  0  0
  183.5210  178.8680  144.4690 C   0  0  0  0  0  1  0  0  0  0  0  0
  1  5  1  0  0  0  0
  2 15  1  0  0  0  0
  3 20  1  0  0  0  0
  4  1  2  0  0  0  0
  4 11  1  0  0  0  0
  5 10  2  0  0  0  0
  6 23  1  0  0  0  0
  7 10  1  0  0  0  0
  7 27  1  0  0  0  0
  8 21  1  0  0  0  0
 11  7  2  0  0  0  0
 12 17  2  0  0  0  0
 12  2  1  0  0  0  0
 13  8  1  6  0  0  0
 13 26  1  0  0  0  0
 14 22  1  0  0  0  0
 14  6  1  0  0  0  0
 16  3  1  6  0  0  0
 16 18  1  0  0  0  0
 17 24  1  0  0  0  0
 18 15  1  6  0  0  0
 18  1  1  0  0  0  0
 20  9  2  0  0  0  0
 20 21  1  0  0  0  0
 21 19  1  6  0  0  0
 21  4  1  0  0  0  0
 22 13  1  0  0  0  0
 24 16  1  0  0  0  0
 24 25  2  0  0  0  0
 26 23  1  6  0  0  0
 26 11  1  0  0  0  0
 27 28  1  0  0  0  0
 28 29  1  0  0  0  0
 29 30  1  0  0  0  0
M  END
>  <MODEL>
3

>  <REMARK>
 VINA RESULT:      -6.4      4.233      6.672
  Name = 
  3 active torsions:
  status: ('A' for Active; 'I' for Inactive)
    1  A    between atoms: O_6  and  C_8
    2  A    between atoms: O_6  and  C_21
    3  A    between atoms: C_9  and  C_21
                            x       y       z     vdW  Elec       q    Type
                         _______ _______ _______ _____ _____    ______ ____

>  <TORSDO>
F 3

$$$$
=
 OpenBabel10272413593D

 30 34  0  0  1  0  0  0  0  0999 V2000
  187.4100  177.8990  139.2340 C   0  0  0  0  0  0  0  0  0  0  0  0
  187.6270  178.9230  135.5880 C   0  0  0  0  0  2  0  0  0  0  0  0
  184.9490  176.8800  137.5480 N   0  0  0  0  0  2  0  0  0  0  0  0
  186.3240  178.1630  140.1190 C   0  0  0  0  0  0  0  0  0  0  0  0
  188.6900  177.6750  139.7420 C   0  0  0  0  0  3  0  0  0  0  0  0
  184.4650  180.0260  144.1150 C   0  0  0  0  0  2  0  0  0  0  0  0
  187.8820  177.9070  142.0080 C   0  0  0  0  0  0  0  0  0  0  0  0
  183.9060  178.8320  140.6760 C   0  0  0  0  0  2  0  0  0  0  0  0
  183.3830  176.6030  139.2250 O   0  0  0  0  0  0  0  0  0  0  0  0
  188.9280  177.6850  141.1090 C   0  0  0  0  0  3  0  0  0  0  0  0
  186.5810  178.1370  141.5230 C   0  0  0  0  0  0  0  0  0  0  0  0
  186.6860  178.2160  134.6600 C   0  0  0  0  0  3  0  0  0  0  0  0
  184.1120  178.0420  141.9570 C   0  0  2  0  0  3  0  0  0  0  0  0
  183.0930  179.7720  143.5030 C   0  0  0  0  0  2  0  0  0  0  0  0
  187.0630  179.0480  136.9890 C   0  0  0  0  0  2  0  0  0  0  0  0
  186.3640  176.5930  137.3440 C   0  0  2  0  0  3  0  0  0  0  0  0
  186.2930  176.9870  134.8160 N   0  0  0  0  0  0  0  0  0  0  0  0
  187.2790  177.7450  137.7470 C   0  0  2  0  0  3  0  0  0  0  0  0
  184.9600  179.5330  138.7180 O   0  0  0  0  0  1  0  0  0  0  0  0
  184.3840  177.2470  138.8070 C   0  0  0  0  0  0  0  0  0  0  0  0
  184.9110  178.4390  139.5800 C   0  0  1  0  0  0  0  0  0  0  0  0
  183.0050  178.3400  142.9720 C   0  0  0  0  0  2  0  0  0  0  0  0
  185.5510  179.8090  143.0670 C   0  0  0  0  0  2  0  0  0  0  0  0
  186.5950  176.1430  135.9340 C   0  0  0  0  0  0  0  0  0  0  0  0
  186.9340  174.9480  135.7280 O   0  0  0  0  0  0  0  0  0  0  0  0
  185.4890  178.3740  142.5330 C   0  0  2  0  0  3  0  0  0  0  0  0
  188.1140  177.8970  143.3910 O   0  0  0  0  0  0  0  0  0  0  0  0
  188.8730  176.8900  144.0530 C   0  0  0  0  0  2  0  0  0  0  0  0
  188.7970  177.0830  145.5560 C   0  0  0  0  0  2  0  0  0  0  0  0
  187.4670  177.7120  145.9160 C   0  0  0  0  0  1  0  0  0  0  0  0
  1  5  2  0  0  0  0
  1  4  1  0  0  0  0
  2 15  1  0  0  0  0
  3 20  1  0  0  0  0
  4 11  2  0  0  0  0
  5 10  1  0  0  0  0
  7 27  1  0  0  0  0
 10  7  2  0  0  0  0
 11  7  1  0  0  0  0
 11 26  1  0  0  0  0
 12 17  2  0  0  0  0
 12  2  1  0  0  0  0
 13  8  1  6  0  0  0
 13 26  1  0  0  0  0
 13 22  1  0  0  0  0
 14  6  1  0  0  0  0
 16 24  1  6  0  0  0
 16  3  1  0  0  0  0
 16 18  1  0  0  0  0
 17 24  1  0  0  0  0
 18 15  1  1  0  0  0
 18  1  1  0  0  0  0
 20  9  2  0  0  0  0
 20 21  1  0  0  0  0
 21 19  1  6  0  0  0
 21  4  1  0  0  0  0
 21  8  1  0  0  0  0
 22 14  1  0  0  0  0
 23  6  1  0  0  0  0
 25 24  2  0  0  0  0
 26 23  1  6  0  0  0
 27 28  1  0  0  0  0
 28 29  1  0  0  0  0
 29 30  1  0  0  0  0
M  END
>  <MODEL>
4

>  <REMARK>
 VINA RESULT:      -5.7      3.576      6.583
  Name = 
  3 active torsions:
  status: ('A' for Active; 'I' for Inactive)
    1  A    between atoms: O_6  and  C_8
    2  A    between atoms: O_6  and  C_21
    3  A    between atoms: C_9  and  C_21
                            x       y       z     vdW  Elec       q    Type
                         _______ _______ _______ _____ _____    ______ ____

>  <TORSDO>
F 3

$$$$
=
 OpenBabel10272413593D

 30 34  0  0  1  0  0  0  0  0999 V2000
  183.0040  177.9480  138.0390 C   0  0  0  0  0  0  0  0  0  0  0  0
  180.3160  180.4570  138.9690 C   0  0  0  0  0  2  0  0  0  0  0  0
  182.9990  178.6230  141.1190 N   0  0  0  0  0  2  0  0  0  0  0  0
  184.3990  178.0690  138.3120 C   0  0  0  0  0  0  0  0  0  0  0  0
  182.5620  177.1450  136.9880 C   0  0  0  0  0  3  0  0  0  0  0  0
  188.9830  178.2770  136.9560 C   0  0  0  0  0  2  0  0  0  0  0  0
  184.8330  176.5050  136.4600 C   0  0  0  0  0  0  0  0  0  0  0  0
  186.4430  179.0740  139.5010 C   0  0  0  0  0  2  0  0  0  0  0  0
  185.1720  178.0620  141.6710 O   0  0  0  0  0  0  0  0  0  0  0  0
  183.4620  176.4380  136.2020 C   0  0  0  0  0  3  0  0  0  0  0  0
  185.3060  177.3090  137.5140 C   0  0  0  0  0  0  0  0  0  0  0  0
  180.0290  180.5850  140.4340 C   0  0  0  0  0  3  0  0  0  0  0  0
  187.1230  177.7520  139.1870 C   0  0  2  0  0  3  0  0  0  0  0  0
  189.2980  178.7600  138.3660 C   0  0  0  0  0  2  0  0  0  0  0  0
  181.7550  180.0640  138.6990 C   0  0  0  0  0  2  0  0  0  0  0  0
  181.9180  178.0640  140.3150 C   0  0  2  0  0  3  0  0  0  0  0  0
  180.1200  179.6060  141.2850 N   0  0  0  0  0  0  0  0  0  0  0  0
  181.9180  178.5610  138.8730 C   0  0  2  0  0  3  0  0  0  0  0  0
  184.4600  180.2710  139.2320 O   0  0  0  0  0  1  0  0  0  0  0  0
  184.3830  178.4990  140.7890 C   0  0  0  0  0  0  0  0  0  0  0  0
  184.9100  178.9690  139.4480 C   0  0  1  0  0  0  0  0  0  0  0  0
  188.6360  177.8460  139.3990 C   0  0  0  0  0  2  0  0  0  0  0  0
  187.4750  178.2720  136.7310 C   0  0  0  0  0  2  0  0  0  0  0  0
  180.6050  178.2880  141.0000 C   0  0  0  0  0  0  0  0  0  0  0  0
  179.9820  177.2930  141.4550 O   0  0  0  0  0  0  0  0  0  0  0  0
  186.7930  177.3500  137.7490 C   0  0  2  0  0  3  0  0  0  0  0  0
  185.7430  175.7750  135.6820 O   0  0  0  0  0  0  0  0  0  0  0  0
  185.7550  174.3530  135.6150 C   0  0  0  0  0  2  0  0  0  0  0  0
  186.3080  173.7740  136.9040 C   0  0  0  0  0  2  0  0  0  0  0  0
  185.1780  173.1630  137.7060 C   0  0  0  0  0  1  0  0  0  0  0  0
  1  4  1  0  0  0  0
  1 18  1  0  0  0  0
  2 12  1  0  0  0  0
  4 21  1  0  0  0  0
  5  1  2  0  0  0  0
  6 14  1  0  0  0  0
  7 11  1  0  0  0  0
 10  7  2  0  0  0  0
 10  5  1  0  0  0  0
 11 26  1  0  0  0  0
 11  4  2  0  0  0  0
 12 17  2  0  0  0  0
 13 22  1  6  0  0  0
 13  8  1  0  0  0  0
 14 22  1  0  0  0  0
 15  2  1  0  0  0  0
 16 24  1  1  0  0  0
 16  3  1  0  0  0  0
 18 15  1  1  0  0  0
 18 16  1  0  0  0  0
 20  3  1  0  0  0  0
 20  9  2  0  0  0  0
 21 19  1  6  0  0  0
 21  8  1  0  0  0  0
 21 20  1  0  0  0  0
 23  6  1  0  0  0  0
 24 17  1  0  0  0  0
 24 25  2  0  0  0  0
 26 23  1  6  0  0  0
 26 13  1  0  0  0  0
 27  7  1  0  0  0  0
 28 27  1  0  0  0  0
 28 29  1  0  0  0  0
 29 30  1  0  0  0  0
M  END
>  <MODEL>
5

>  <REMARK>
 VINA RESULT:      -5.6      4.295      8.046
  Name = 
  3 active torsions:
  status: ('A' for Active; 'I' for Inactive)
    1  A    between atoms: O_6  and  C_8
    2  A    between atoms: O_6  and  C_21
    3  A    between atoms: C_9  and  C_21
                            x       y       z     vdW  Elec       q    Type
                         _______ _______ _______ _____ _____    ______ ____

>  <TORSDO>
F 3

$$$$
=
 OpenBabel10272413593D

 30 34  0  0  1  0  0  0  0  0999 V2000
  187.2990  177.4710  138.3400 C   0  0  0  0  0  0  0  0  0  0  0  0
  187.6730  174.8910  135.5840 C   0  0  0  0  0  2  0  0  0  0  0  0
  190.2820  177.1750  137.3620 N   0  0  0  0  0  2  0  0  0  0  0  0
  188.0130  177.4930  139.5740 C   0  0  0  0  0  0  0  0  0  0  0  0
  186.0610  178.1040  138.2340 C   0  0  0  0  0  3  0  0  0  0  0  0
  188.2170  177.4800  144.3550 C   0  0  0  0  0  2  0  0  0  0  0  0
  186.1940  178.8500  140.5290 C   0  0  0  0  0  0  0  0  0  0  0  0
  189.9140  176.8010  141.1580 C   0  0  0  0  0  2  0  0  0  0  0  0
  191.4080  177.9660  139.2190 O   0  0  0  0  0  0  0  0  0  0  0  0
  185.5090  178.7790  139.3130 C   0  0  0  0  0  3  0  0  0  0  0  0
  187.4440  178.2190  140.6640 C   0  0  0  0  0  0  0  0  0  0  0  0
  188.9750  174.9190  134.8440 C   0  0  0  0  0  3  0  0  0  0  0  0
  189.6500  178.1240  141.8560 C   0  0  2  0  0  3  0  0  0  0  0  0
  189.7070  177.1970  144.2140 C   0  0  0  0  0  2  0  0  0  0  0  0
  187.8200  175.3590  137.0180 C   0  0  0  0  0  2  0  0  0  0  0  0
  189.1090  177.5460  136.5810 C   0  0  2  0  0  3  0  0  0  0  0  0
  189.6660  175.9980  134.6210 N   0  0  0  0  0  0  0  0  0  0  0  0
  187.8240  176.8800  137.0640 C   0  0  2  0  0  3  0  0  0  0  0  0
  189.2030  175.4300  139.4120 O   0  0  0  0  0  1  0  0  0  0  0  0
  190.3920  177.3650  138.7730 C   0  0  0  0  0  0  0  0  0  0  0  0
  189.3660  176.7790  139.7210 C   0  0  1  0  0  0  0  0  0  0  0  0
  190.3410  178.1750  143.2220 C   0  0  0  0  0  2  0  0  0  0  0  0
  187.5290  177.3400  143.0010 C   0  0  0  0  0  2  0  0  0  0  0  0
  189.3670  177.3060  135.1250 C   0  0  0  0  0  0  0  0  0  0  0  0
  189.4590  178.2970  134.3540 O   0  0  0  0  0  0  0  0  0  0  0  0
  188.1400  178.3230  141.9960 C   0  0  2  0  0  3  0  0  0  0  0  0
  185.6490  179.5490  141.6160 O   0  0  0  0  0  0  0  0  0  0  0  0
  184.5070  179.1060  142.3420 C   0  0  0  0  0  2  0  0  0  0  0  0
  184.6130  179.5360  143.7940 C   0  0  0  0  0  2  0  0  0  0  0  0
  183.5100  178.8780  144.5950 C   0  0  0  0  0  1  0  0  0  0  0  0
  1  4  1  0  0  0  0
  2 15  1  0  0  0  0
  3 20  1  0  0  0  0
  4 21  1  0  0  0  0
  4 11  2  0  0  0  0
  5  1  2  0  0  0  0
  5 10  1  0  0  0  0
  7 11  1  0  0  0  0
  7 27  1  0  0  0  0
 10  7  2  0  0  0  0
 11 26  1  0  0  0  0
 12  2  1  0  0  0  0
 13  8  1  1  0  0  0
 13 26  1  0  0  0  0
 13 22  1  0  0  0  0
 14  6  1  0  0  0  0
 16 24  1  6  0  0  0
 16 18  1  0  0  0  0
 16  3  1  0  0  0  0
 17 12  2  0  0  0  0
 17 24  1  0  0  0  0
 18 15  1  1  0  0  0
 18  1  1  0  0  0  0
 20  9  2  0  0  0  0
 20 21  1  0  0  0  0
 21 19  1  6  0  0  0
 21  8  1  0  0  0  0
 22 14  1  0  0  0  0
 23  6  1  0  0  0  0
 25 24  2  0  0  0  0
 26 23  1  1  0  0  0
 27 28  1  0  0  0  0
 28 29  1  0  0  0  0
 29 30  1  0  0  0  0
M  END
>  <MODEL>
6

>  <REMARK>
 VINA RESULT:      -5.6      4.058      6.416
  Name = 
  3 active torsions:
  status: ('A' for Active; 'I' for Inactive)
    1  A    between atoms: O_6  and  C_8
    2  A    between atoms: O_6  and  C_21
    3  A    between atoms: C_9  and  C_21
                            x       y       z     vdW  Elec       q    Type
                         _______ _______ _______ _____ _____    ______ ____

>  <TORSDO>
F 3

$$$$
=
 OpenBabel10272413593D

 30 34  0  0  1  0  0  0  0  0999 V2000
  193.2610  175.6370  137.1280 C   0  0  0  0  0  0  0  0  0  0  0  0
  196.4530  176.3150  135.1930 C   0  0  0  0  0  2  0  0  0  0  0  0
  194.5340  173.0080  135.9430 N   0  0  0  0  0  2  0  0  0  0  0  0
  192.1100  174.9530  136.6390 C   0  0  0  0  0  0  0  0  0  0  0  0
  193.1440  176.5410  138.1840 C   0  0  0  0  0  3  0  0  0  0  0  0
  187.4440  174.7040  135.6080 C   0  0  0  0  0  2  0  0  0  0  0  0
  190.7740  176.1030  138.3590 C   0  0  0  0  0  0  0  0  0  0  0  0
  190.8470  173.4380  134.9920 C   0  0  0  0  0  2  0  0  0  0  0  0
  192.6720  171.6400  135.8760 O   0  0  0  0  0  0  0  0  0  0  0  0
  191.9180  176.7790  138.7890 C   0  0  0  0  0  3  0  0  0  0  0  0
  190.8630  175.1860  137.2950 C   0  0  0  0  0  0  0  0  0  0  0  0
  197.2880  175.1110  134.8800 C   0  0  0  0  0  3  0  0  0  0  0  0
  189.9050  173.1680  136.1530 C   0  0  2  0  0  3  0  0  0  0  0  0
  187.7630  173.4370  134.8260 C   0  0  0  0  0  2  0  0  0  0  0  0
  194.9770  175.9810  135.2800 C   0  0  0  0  0  2  0  0  0  0  0  0
  195.1310  173.9610  136.8710 C   0  0  2  0  0  3  0  0  0  0  0  0
  197.3760  174.0640  135.6460 N   0  0  0  0  0  0  0  0  0  0  0  0
  194.6630  175.3950  136.6490 C   0  0  2  0  0  3  0  0  0  0  0  0
  192.7390  174.6430  134.3570 O   0  0  0  0  0  1  0  0  0  0  0  0
  193.1260  172.8140  135.7970 C   0  0  0  0  0  0  0  0  0  0  0  0
  192.2110  173.9730  135.4590 C   0  0  1  0  0  0  0  0  0  0  0  0
  188.6180  172.4920  135.6720 C   0  0  0  0  0  2  0  0  0  0  0  0
  188.7350  175.4120  136.0050 C   0  0  0  0  0  2  0  0  0  0  0  0
  196.6230  173.8330  136.8440 C   0  0  0  0  0  0  0  0  0  0  0  0
  197.2110  173.3810  137.8600 O   0  0  0  0  0  0  0  0  0  0  0  0
  189.6000  174.4850  136.8670 C   0  0  2  0  0  3  0  0  0  0  0  0
  189.5370  176.3240  138.9810 O   0  0  0  0  0  0  0  0  0  0  0  0
  189.0540  177.6170  139.3300 C   0  0  0  0  0  2  0  0  0  0  0  0
  188.1580  178.1550  138.2300 C   0  0  0  0  0  2  0  0  0  0  0  0
  188.9860  178.9780  137.2650 C   0  0  0  0  0  1  0  0  0  0  0  0
  1  5  1  0  0  0  0
  2 15  1  0  0  0  0
  4  1  2  0  0  0  0
  4 11  1  0  0  0  0
  5 10  2  0  0  0  0
  6 23  1  0  0  0  0
  7 10  1  0  0  0  0
  7 27  1  0  0  0  0
  8 21  1  0  0  0  0
 11  7  2  0  0  0  0
 12  2  1  0  0  0  0
 12 17  2  0  0  0  0
 13  8  1  6  0  0  0
 13 26  1  0  0  0  0
 14  6  1  0  0  0  0
 14 22  1  0  0  0  0
 16  3  1  6  0  0  0
 17 24  1  0  0  0  0
 18 15  1  6  0  0  0
 18 16  1  0  0  0  0
 18  1  1  0  0  0  0
 20  9  2  0  0  0  0
 20  3  1  0  0  0  0
 21 19  1  6  0  0  0
 21 20  1  0  0  0  0
 21  4  1  0  0  0  0
 22 13  1  0  0  0  0
 24 16  1  0  0  0  0
 24 25  2  0  0  0  0
 26 23  1  6  0  0  0
 26 11  1  0  0  0  0
 27 28  1  0  0  0  0
 29 28  1  0  0  0  0
 30 29  1  0  0  0  0
M  END
>  <MODEL>
7

>  <REMARK>
 VINA RESULT:      -5.3      7.636      9.676
  Name = 
  3 active torsions:
  status: ('A' for Active; 'I' for Inactive)
    1  A    between atoms: O_6  and  C_8
    2  A    between atoms: O_6  and  C_21
    3  A    between atoms: C_9  and  C_21
                            x       y       z     vdW  Elec       q    Type
                         _______ _______ _______ _____ _____    ______ ____

>  <TORSDO>
F 3

$$$$
=
 OpenBabel10272413593D

 30 34  0  0  1  0  0  0  0  0999 V2000
  186.7790  176.9270  137.1090 C   0  0  0  0  0  0  0  0  0  0  0  0
  189.9110  177.0540  134.9730 C   0  0  0  0  0  2  0  0  0  0  0  0
  188.1990  174.1210  136.8840 N   0  0  0  0  0  2  0  0  0  0  0  0
  185.6670  176.0540  136.9220 C   0  0  0  0  0  0  0  0  0  0  0  0
  186.6150  178.1360  137.7850 C   0  0  0  0  0  3  0  0  0  0  0  0
  181.0180  175.2090  136.1700 C   0  0  0  0  0  2  0  0  0  0  0  0
  184.2760  177.6600  138.1660 C   0  0  0  0  0  0  0  0  0  0  0  0
  184.4870  173.9920  135.9430 C   0  0  0  0  0  2  0  0  0  0  0  0
  186.4220  172.7190  137.3500 O   0  0  0  0  0  0  0  0  0  0  0  0
  185.3800  178.5040  138.3020 C   0  0  0  0  0  3  0  0  0  0  0  0
  184.4130  176.4350  137.4880 C   0  0  0  0  0  0  0  0  0  0  0  0
  190.8150  175.8640  135.0780 C   0  0  0  0  0  3  0  0  0  0  0  0
  183.5700  174.0960  137.1500 C   0  0  2  0  0  3  0  0  0  0  0  0
  181.4070  173.7670  135.8720 C   0  0  0  0  0  2  0  0  0  0  0  0
  188.4580  176.6930  135.2120 C   0  0  0  0  0  2  0  0  0  0  0  0
  188.7440  175.3700  137.4040 C   0  0  2  0  0  3  0  0  0  0  0  0
  190.9700  175.1580  136.1590 N   0  0  0  0  0  0  0  0  0  0  0  0
  188.1890  176.6080  136.7070 C   0  0  2  0  0  3  0  0  0  0  0  0
  186.2990  174.9980  134.8760 O   0  0  0  0  0  1  0  0  0  0  0  0
  186.8050  173.8130  136.8530 C   0  0  0  0  0  0  0  0  0  0  0  0
  185.8190  174.7290  136.1570 C   0  0  1  0  0  0  0  0  0  0  0  0
  182.3230  173.2260  136.9720 C   0  0  0  0  0  2  0  0  0  0  0  0
  182.2670  176.0790  136.2590 C   0  0  0  0  0  2  0  0  0  0  0  0
  190.2410  175.3220  137.3820 C   0  0  0  0  0  0  0  0  0  0  0  0
  190.8610  175.2870  138.4770 O   0  0  0  0  0  0  0  0  0  0  0  0
  183.1920  175.5610  137.3670 C   0  0  2  0  0  3  0  0  0  0  0  0
  183.0320  178.0180  138.7060 O   0  0  0  0  0  0  0  0  0  0  0  0
  182.8770  178.9450  139.7760 C   0  0  0  0  0  2  0  0  0  0  0  0
  182.8180  178.2070  141.1000 C   0  0  0  0  0  2  0  0  0  0  0  0
  184.1180  178.4130  141.8490 C   0  0  0  0  0  1  0  0  0  0  0  0
  1  5  1  0  0  0  0
  2 12  1  0  0  0  0
  2 15  1  0  0  0  0
  4  1  2  0  0  0  0
  4 11  1  0  0  0  0
  5 10  2  0  0  0  0
  6 23  1  0  0  0  0
  7 10  1  0  0  0  0
  7 27  1  0  0  0  0
  8 21  1  0  0  0  0
 11  7  2  0  0  0  0
 12 17  2  0  0  0  0
 13  8  1  6  0  0  0
 13 26  1  0  0  0  0
 14  6  1  0  0  0  0
 14 22  1  0  0  0  0
 16  3  1  6  0  0  0
 17 24  1  0  0  0  0
 18 15  1  6  0  0  0
 18  1  1  0  0  0  0
 18 16  1  0  0  0  0
 20  3  1  0  0  0  0
 20  9  2  0  0  0  0
 21 19  1  6  0  0  0
 21 20  1  0  0  0  0
 21  4  1  0  0  0  0
 22 13  1  0  0  0  0
 24 16  1  0  0  0  0
 24 25  2  0  0  0  0
 26 23  1  6  0  0  0
 26 11  1  0  0  0  0
 27 28  1  0  0  0  0
 28 29  1  0  0  0  0
 29 30  1  0  0  0  0
M  END
>  <MODEL>
8

>  <REMARK>
 VINA RESULT:      -5.2      5.146      7.397
  Name = 
  3 active torsions:
  status: ('A' for Active; 'I' for Inactive)
    1  A    between atoms: O_6  and  C_8
    2  A    between atoms: O_6  and  C_21
    3  A    between atoms: C_9  and  C_21
                            x       y       z     vdW  Elec       q    Type
                         _______ _______ _______ _____ _____    ______ ____

>  <TORSDO>
F 3

$$$$
=
 OpenBabel10272413593D

 30 34  0  0  1  0  0  0  0  0999 V2000
  191.8340  177.1240  141.0670 C   0  0  0  0  0  0  0  0  0  0  0  0
  191.2160  176.2530  144.7070 C   0  0  0  0  0  2  0  0  0  0  0  0
  189.3140  178.6040  142.2500 N   0  0  0  0  0  2  0  0  0  0  0  0
  190.8960  176.9970  140.0010 C   0  0  0  0  0  0  0  0  0  0  0  0
  193.2030  177.1160  140.8020 C   0  0  0  0  0  3  0  0  0  0  0  0
  189.5040  175.2680  135.7610 C   0  0  0  0  0  2  0  0  0  0  0  0
  192.7900  176.9080  138.4300 C   0  0  0  0  0  0  0  0  0  0  0  0
  188.5420  176.6990  139.0160 C   0  0  0  0  0  2  0  0  0  0  0  0
  188.1450  179.0490  140.3060 O   0  0  0  0  0  0  0  0  0  0  0  0
  193.6790  177.0020  139.5030 C   0  0  0  0  0  3  0  0  0  0  0  0
  191.4030  176.9140  138.6680 C   0  0  0  0  0  0  0  0  0  0  0  0
  190.2540  177.1450  145.4320 C   0  0  0  0  0  3  0  0  0  0  0  0
  189.1040  177.3830  137.7820 C   0  0  2  0  0  3  0  0  0  0  0  0
  188.1060  175.7680  136.1040 C   0  0  0  0  0  2  0  0  0  0  0  0
  190.9020  176.1540  143.2270 C   0  0  0  0  0  2  0  0  0  0  0  0
  190.6970  178.6690  142.7070 C   0  0  2  0  0  3  0  0  0  0  0  0
  190.1060  178.4130  145.1850 N   0  0  0  0  0  0  0  0  0  0  0  0
  191.4640  177.3670  142.5010 C   0  0  2  0  0  3  0  0  0  0  0  0
  189.0940  175.9310  141.1470 O   0  0  0  0  0  1  0  0  0  0  0  0
  188.9330  178.2740  140.9130 C   0  0  0  0  0  0  0  0  0  0  0  0
  189.3830  176.9770  140.2720 C   0  0  1  0  0  0  0  0  0  0  0  0
  188.1640  177.2190  136.5840 C   0  0  0  0  0  2  0  0  0  0  0  0
  190.4050  175.3570  136.9880 C   0  0  0  0  0  2  0  0  0  0  0  0
  190.7420  179.1430  144.1280 C   0  0  0  0  0  0  0  0  0  0  0  0
  191.2320  180.2770  144.3730 O   0  0  0  0  0  0  0  0  0  0  0  0
  190.4870  176.8080  137.4770 C   0  0  2  0  0  3  0  0  0  0  0  0
  193.2670  176.8150  137.1140 O   0  0  0  0  0  0  0  0  0  0  0  0
  194.2070  175.8350  136.6860 C   0  0  0  0  0  2  0  0  0  0  0  0
  193.7490  174.4520  137.1110 C   0  0  0  0  0  2  0  0  0  0  0  0
  194.7960  173.8300  138.0110 C   0  0  0  0  0  1  0  0  0  0  0  0
  1 18  1  0  0  0  0
  2 12  1  0  0  0  0
  4 21  1  0  0  0  0
  4  1  2  0  0  0  0
  5  1  1  0  0  0  0
  6 14  1  0  0  0  0
  6 23  1  0  0  0  0
  7 11  2  0  0  0  0
  7 10  1  0  0  0  0
  8 21  1  0  0  0  0
  9 20  2  0  0  0  0
 10  5  2  0  0  0  0
 11  4  1  0  0  0  0
 13 22  1  6  0  0  0
 13  8  1  0  0  0  0
 14 22  1  0  0  0  0
 15  2  1  0  0  0  0
 16  3  1  1  0  0  0
 16 24  1  0  0  0  0
 17 12  2  0  0  0  0
 18 16  1  0  0  0  0
 18 15  1  6  0  0  0
 20  3  1  0  0  0  0
 21 20  1  0  0  0  0
 21 19  1  1  0  0  0
 24 25  2  0  0  0  0
 24 17  1  0  0  0  0
 26 23  1  1  0  0  0
 26 13  1  0  0  0  0
 26 11  1  0  0  0  0
 27  7  1  0  0  0  0
 28 29  1  0  0  0  0
 28 27  1  0  0  0  0
 29 30  1  0  0  0  0
M  END
>  <MODEL>
9

>  <REMARK>
 VINA RESULT:      -5.2      4.098      6.936
  Name = 
  3 active torsions:
  status: ('A' for Active; 'I' for Inactive)
    1  A    between atoms: O_6  and  C_8
    2  A    between atoms: O_6  and  C_21
    3  A    between atoms: C_9  and  C_21
                            x       y       z     vdW  Elec       q    Type
                         _______ _______ _______ _____ _____    ______ ____

>  <TORSDO>
F 3

$$$$
