=
 OpenBabel10272415303D

 34 38  0  0  1  0  0  0  0  0999 V2000
  189.7870  176.1980  144.0800 C   0  0  1  0  0  3  0  0  0  0  0  0
  187.2870  178.0020  146.6020 C   0  0  1  0  0  3  0  0  0  0  0  0
  184.4340  179.1230  145.2080 C   0  0  0  0  0  1  0  0  0  0  0  0
  189.6930  177.2210  146.9200 C   0  0  0  0  0  2  0  0  0  0  0  0
  190.2400  177.5950  141.9790 C   0  0  2  0  0  3  0  0  0  0  0  0
  189.7690  176.2540  142.5460 C   0  0  0  0  0  2  0  0  0  0  0  0
  191.5930  178.0700  144.0950 C   0  0  2  0  0  3  0  0  0  0  0  0
  190.9000  179.3310  144.5970 C   0  0  0  0  0  1  0  0  0  0  0  0
  191.5900  178.0130  142.5660 C   0  0  0  0  0  2  0  0  0  0  0  0
  190.9790  176.8370  146.2330 C   0  0  0  0  0  0  0  0  0  0  0  0
  191.0740  176.7600  144.7260 C   0  0  1  0  0  3  0  0  0  0  0  0
  191.9650  176.5970  146.9070 O   0  0  0  0  0  0  0  0  0  0  0  0
  186.0790  177.3610  145.8800 C   0  0  1  0  0  3  0  0  0  0  0  0
  184.9650  177.7380  144.9020 C   0  0  2  0  0  3  0  0  0  0  0  0
  186.3750  177.8260  144.4370 C   0  0  2  0  0  3  0  0  0  0  0  0
  188.6260  177.6270  145.9060 C   0  0  1  0  0  3  0  0  0  0  0  0
  187.1960  176.6530  143.9240 C   0  0  0  0  0  2  0  0  0  0  0  0
  188.4680  176.5270  144.8110 C   0  0  1  0  0  3  0  0  0  0  0  0
  187.1710  179.5070  146.8120 C   0  0  0  0  0  2  0  0  0  0  0  0
  186.3040  179.7710  147.8570 F   0  0  0  0  0  0  0  0  0  0  0  0
  189.1870  178.6940  142.1060 C   0  0  0  0  0  2  0  0  0  0  0  0
  188.1050  178.5710  141.0390 C   0  0  0  0  0  2  0  0  0  0  0  0
  188.7110  178.4120  139.6540 C   0  0  0  0  0  2  0  0  0  0  0  0
  188.9900  179.1290  137.0210 C   0  0  0  0  0  1  0  0  0  0  0  0
  188.3250  176.9830  137.7060 C   0  0  2  0  0  3  0  0  0  0  0  0
  187.6720  177.8490  138.6820 C   0  0  2  0  0  3  0  0  0  0  0  0
  187.8190  178.2920  137.2650 N   0  0  0  0  0  0  0  0  0  0  0  0
  187.8530  174.6690  136.8120 C   0  0  0  0  0  0  0  0  0  0  0  0
  187.4050  175.9430  137.2740 N   0  0  0  0  0  2  0  0  0  0  0  0
  189.0770  174.3740  136.8390 O   0  0  0  0  0  0  0  0  0  0  0  0
  186.8670  173.6820  136.2860 C   0  0  0  0  0  2  0  0  0  0  0  0
  186.3350  172.7870  137.3960 C   0  0  0  0  0  2  0  0  0  0  0  0
  184.8790  173.0980  137.7080 C   0  0  0  0  0  2  0  0  0  0  0  0
  183.9670  172.0580  137.0900 C   0  0  0  0  0  1  0  0  0  0  0  0
  1  6  1  6  0  0  0
  1 11  1  0  0  0  0
  1 18  1  0  0  0  0
  2 19  1  6  0  0  0
  5 21  1  1  0  0  0
  5  6  1  0  0  0  0
  5  9  1  0  0  0  0
  7  8  1  6  0  0  0
  7 11  1  0  0  0  0
  9  7  1  0  0  0  0
 10 12  2  0  0  0  0
 10  4  1  0  0  0  0
 11 10  1  1  0  0  0
 13  2  1  0  0  0  0
 14  3  1  0  0  0  0
 14 13  1  0  0  0  0
 15 14  1  0  0  0  0
 15 13  1  0  0  0  0
 16  2  1  0  0  0  0
 16  4  1  0  0  0  0
 17 15  1  0  0  0  0
 17 18  1  0  0  0  0
 18 16  1  0  0  0  0
 19 20  1  0  0  0  0
 22 21  1  0  0  0  0
 23 22  1  0  0  0  0
 24 27  1  0  0  0  0
 25 26  1  0  0  0  0
 26 23  1  0  0  0  0
 27 25  1  0  0  0  0
 27 26  1  0  0  0  0
 28 30  2  0  0  0  0
 28 29  1  0  0  0  0
 29 25  1  0  0  0  0
 31 28  1  0  0  0  0
 31 32  1  0  0  0  0
 32 33  1  0  0  0  0
 34 33  1  0  0  0  0
M  END
>  <MODEL>
1

>  <REMARK>
 VINA RESULT:      -7.4      0.000      0.000
  Name = 
  9 active torsions:
  status: ('A' for Active; 'I' for Inactive)
    1  A    between atoms: C_2  and  C_13
    2  A    between atoms: C_6  and  C_28
    3  A    between atoms: C_6  and  C_30
    4  A    between atoms: C_7  and  C_29
    5  A    between atoms: C_8  and  C_18
    6  A    between atoms: C_11  and  C_15
    7  A    between atoms: C_11  and  C_29
    8  A    between atoms: N_14  and  C_16
    9  A    between atoms: C_18  and  C_30
                            x       y       z     vdW  Elec       q    Type
                         _______ _______ _______ _____ _____    ______ ____

>  <TORSDO>
F 9

$$$$
=
 OpenBabel10272415303D

 34 38  0  0  1  0  0  0  0  0999 V2000
  189.8310  176.1900  144.0020 C   0  0  1  0  0  3  0  0  0  0  0  0
  187.2770  178.0000  146.4650 C   0  0  1  0  0  3  0  0  0  0  0  0
  184.4380  179.0840  145.0140 C   0  0  0  0  0  1  0  0  0  0  0  0
  189.6840  177.2410  146.8290 C   0  0  0  0  0  2  0  0  0  0  0  0
  190.3070  177.5690  141.8940 C   0  0  2  0  0  3  0  0  0  0  0  0
  189.8380  176.2300  142.4670 C   0  0  0  0  0  2  0  0  0  0  0  0
  191.6230  178.0760  144.0260 C   0  0  2  0  0  3  0  0  0  0  0  0
  190.9110  179.3360  144.5040 C   0  0  0  0  0  1  0  0  0  0  0  0
  191.6450  178.0040  142.4980 C   0  0  0  0  0  2  0  0  0  0  0  0
  190.9840  176.8600  146.1670 C   0  0  0  0  0  0  0  0  0  0  0  0
  191.1040  176.7690  144.6630 C   0  0  1  0  0  3  0  0  0  0  0  0
  191.9600  176.6350  146.8590 O   0  0  0  0  0  0  0  0  0  0  0  0
  186.0860  177.3420  145.7310 C   0  0  1  0  0  3  0  0  0  0  0  0
  184.9850  177.7000  144.7310 C   0  0  2  0  0  3  0  0  0  0  0  0
  186.4020  177.7940  144.2870 C   0  0  2  0  0  3  0  0  0  0  0  0
  188.6300  177.6280  145.7950 C   0  0  1  0  0  3  0  0  0  0  0  0
  187.2390  176.6230  143.8000 C   0  0  0  0  0  2  0  0  0  0  0  0
  188.4990  176.5170  144.7090 C   0  0  1  0  0  3  0  0  0  0  0  0
  187.1460  179.5060  146.6580 C   0  0  0  0  0  2  0  0  0  0  0  0
  186.2650  179.7740  147.6890 F   0  0  0  0  0  0  0  0  0  0  0  0
  189.2440  178.6600  141.9930 C   0  0  0  0  0  2  0  0  0  0  0  0
  188.1140  178.4460  140.9920 C   0  0  0  0  0  2  0  0  0  0  0  0
  188.5950  178.6470  139.5650 C   0  0  0  0  0  2  0  0  0  0  0  0
  187.6830  178.4970  136.9820 C   0  0  0  0  0  1  0  0  0  0  0  0
  189.6460  177.4360  137.7170 C   0  0  2  0  0  3  0  0  0  0  0  0
  188.7550  177.2960  138.8640 C   0  0  2  0  0  3  0  0  0  0  0  0
  188.2090  177.2290  137.4780 N   0  0  0  0  0  0  0  0  0  0  0  0
  191.6590  175.9400  138.0090 C   0  0  0  0  0  0  0  0  0  0  0  0
  190.3540  176.1880  137.4860 N   0  0  0  0  0  2  0  0  0  0  0  0
  192.2130  176.7800  138.7670 O   0  0  0  0  0  0  0  0  0  0  0  0
  192.3750  174.6820  137.6530 C   0  0  0  0  0  2  0  0  0  0  0  0
  193.8840  174.8900  137.6380 C   0  0  0  0  0  2  0  0  0  0  0  0
  194.6170  173.6500  138.1270 C   0  0  0  0  0  2  0  0  0  0  0  0
  195.8040  174.0360  138.9870 C   0  0  0  0  0  1  0  0  0  0  0  0
  1  6  1  6  0  0  0
  1 11  1  0  0  0  0
  1 18  1  0  0  0  0
  2 19  1  6  0  0  0
  5 21  1  1  0  0  0
  5  6  1  0  0  0  0
  5  9  1  0  0  0  0
  7  8  1  6  0  0  0
  7 11  1  0  0  0  0
  9  7  1  0  0  0  0
 10  4  1  0  0  0  0
 10 12  2  0  0  0  0
 11 10  1  1  0  0  0
 13  2  1  0  0  0  0
 14  3  1  0  0  0  0
 14 13  1  0  0  0  0
 15 14  1  0  0  0  0
 15 13  1  0  0  0  0
 16  2  1  0  0  0  0
 16  4  1  0  0  0  0
 17 15  1  0  0  0  0
 17 18  1  0  0  0  0
 18 16  1  0  0  0  0
 19 20  1  0  0  0  0
 22 21  1  0  0  0  0
 23 22  1  0  0  0  0
 24 27  1  0  0  0  0
 25 26  1  0  0  0  0
 26 23  1  0  0  0  0
 27 25  1  0  0  0  0
 27 26  1  0  0  0  0
 28 30  2  0  0  0  0
 29 25  1  0  0  0  0
 29 28  1  0  0  0  0
 31 28  1  0  0  0  0
 32 31  1  0  0  0  0
 32 33  1  0  0  0  0
 33 34  1  0  0  0  0
M  END
>  <MODEL>
2

>  <REMARK>
 VINA RESULT:      -7.4      2.416      3.389
  Name = 
  9 active torsions:
  status: ('A' for Active; 'I' for Inactive)
    1  A    between atoms: C_2  and  C_13
    2  A    between atoms: C_6  and  C_28
    3  A    between atoms: C_6  and  C_30
    4  A    between atoms: C_7  and  C_29
    5  A    between atoms: C_8  and  C_18
    6  A    between atoms: C_11  and  C_15
    7  A    between atoms: C_11  and  C_29
    8  A    between atoms: N_14  and  C_16
    9  A    between atoms: C_18  and  C_30
                            x       y       z     vdW  Elec       q    Type
                         _______ _______ _______ _____ _____    ______ ____

>  <TORSDO>
F 9

$$$$
=
 OpenBabel10272415303D

 34 38  0  0  1  0  0  0  0  0999 V2000
  189.8520  176.1850  143.9840 C   0  0  1  0  0  3  0  0  0  0  0  0
  187.2350  177.9990  146.3770 C   0  0  1  0  0  3  0  0  0  0  0  0
  184.4560  179.1230  144.8440 C   0  0  0  0  0  1  0  0  0  0  0  0
  189.6210  177.2130  146.8140 C   0  0  0  0  0  2  0  0  0  0  0  0
  190.4100  177.5770  141.9060 C   0  0  2  0  0  3  0  0  0  0  0  0
  189.9100  176.2380  142.4510 C   0  0  0  0  0  2  0  0  0  0  0  0
  191.6600  178.0530  144.0840 C   0  0  2  0  0  3  0  0  0  0  0  0
  190.9450  179.3160  144.5500 C   0  0  0  0  0  1  0  0  0  0  0  0
  191.7310  177.9940  142.5570 C   0  0  0  0  0  2  0  0  0  0  0  0
  190.9380  176.8250  146.1920 C   0  0  0  0  0  0  0  0  0  0  0  0
  191.1070  176.7460  144.6920 C   0  0  1  0  0  3  0  0  0  0  0  0
  191.8890  176.5850  146.9140 O   0  0  0  0  0  0  0  0  0  0  0  0
  186.0630  177.3590  145.5990 C   0  0  1  0  0  3  0  0  0  0  0  0
  184.9990  177.7360  144.5670 C   0  0  2  0  0  3  0  0  0  0  0  0
  186.4300  177.8200  144.1710 C   0  0  2  0  0  3  0  0  0  0  0  0
  188.6060  177.6200  145.7490 C   0  0  1  0  0  3  0  0  0  0  0  0
  187.2720  176.6450  143.7010 C   0  0  0  0  0  2  0  0  0  0  0  0
  188.5000  176.5180  144.6500 C   0  0  1  0  0  3  0  0  0  0  0  0
  187.1120  179.5050  146.5790 C   0  0  0  0  0  2  0  0  0  0  0  0
  186.1720  179.7730  147.5570 F   0  0  0  0  0  0  0  0  0  0  0  0
  189.3550  178.6780  141.9790 C   0  0  0  0  0  2  0  0  0  0  0  0
  188.2430  178.4690  140.9560 C   0  0  0  0  0  2  0  0  0  0  0  0
  188.7980  178.4060  139.5430 C   0  0  0  0  0  2  0  0  0  0  0  0
  188.1070  176.4070  137.7960 C   0  0  0  0  0  1  0  0  0  0  0  0
  186.5440  177.8770  138.7520 C   0  0  2  0  0  3  0  0  0  0  0  0
  187.7010  178.7380  138.5290 C   0  0  2  0  0  3  0  0  0  0  0  0
  187.3770  177.6490  137.5610 N   0  0  0  0  0  0  0  0  0  0  0  0
  184.5710  179.3650  139.2740 C   0  0  0  0  0  0  0  0  0  0  0  0
  185.3280  178.5710  138.3600 N   0  0  0  0  0  2  0  0  0  0  0  0
  184.9840  179.5540  140.4490 O   0  0  0  0  0  0  0  0  0  0  0  0
  183.2790  179.9680  138.8390 C   0  0  0  0  0  2  0  0  0  0  0  0
  182.1290  178.9820  138.9900 C   0  0  0  0  0  2  0  0  0  0  0  0
  181.1950  179.3910  140.1190 C   0  0  0  0  0  2  0  0  0  0  0  0
  181.6340  178.7640  141.4280 C   0  0  0  0  0  1  0  0  0  0  0  0
  1  6  1  6  0  0  0
  1 18  1  0  0  0  0
  1 11  1  0  0  0  0
  2 19  1  6  0  0  0
  5 21  1  1  0  0  0
  5  6  1  0  0  0  0
  5  9  1  0  0  0  0
  7  8  1  6  0  0  0
  7 11  1  0  0  0  0
  9  7  1  0  0  0  0
 10  4  1  0  0  0  0
 10 12  2  0  0  0  0
 11 10  1  1  0  0  0
 13  2  1  0  0  0  0
 14  3  1  0  0  0  0
 14 13  1  0  0  0  0
 15 14  1  0  0  0  0
 15 13  1  0  0  0  0
 16  2  1  0  0  0  0
 16  4  1  0  0  0  0
 17 15  1  0  0  0  0
 17 18  1  0  0  0  0
 18 16  1  0  0  0  0
 19 20  1  0  0  0  0
 22 21  1  0  0  0  0
 23 22  1  0  0  0  0
 26 25  1  0  0  0  0
 26 23  1  0  0  0  0
 27 24  1  0  0  0  0
 27 26  1  0  0  0  0
 27 25  1  0  0  0  0
 28 30  2  0  0  0  0
 29 25  1  0  0  0  0
 29 28  1  0  0  0  0
 31 32  1  0  0  0  0
 31 28  1  0  0  0  0
 32 33  1  0  0  0  0
 33 34  1  0  0  0  0
M  END
>  <MODEL>
3

>  <REMARK>
 VINA RESULT:      -7.3      2.396      3.299
  Name = 
  9 active torsions:
  status: ('A' for Active; 'I' for Inactive)
    1  A    between atoms: C_2  and  C_13
    2  A    between atoms: C_6  and  C_28
    3  A    between atoms: C_6  and  C_30
    4  A    between atoms: C_7  and  C_29
    5  A    between atoms: C_8  and  C_18
    6  A    between atoms: C_11  and  C_15
    7  A    between atoms: C_11  and  C_29
    8  A    between atoms: N_14  and  C_16
    9  A    between atoms: C_18  and  C_30
                            x       y       z     vdW  Elec       q    Type
                         _______ _______ _______ _____ _____    ______ ____

>  <TORSDO>
F 9

$$$$
=
 OpenBabel10272415303D

 34 38  0  0  1  0  0  0  0  0999 V2000
  189.8400  176.1940  143.8940 C   0  0  1  0  0  3  0  0  0  0  0  0
  187.4530  177.8980  146.5900 C   0  0  1  0  0  3  0  0  0  0  0  0
  184.5500  179.0830  145.3630 C   0  0  0  0  0  1  0  0  0  0  0  0
  189.8670  177.0980  146.7760 C   0  0  0  0  0  2  0  0  0  0  0  0
  190.2120  177.6770  141.8370 C   0  0  2  0  0  3  0  0  0  0  0  0
  189.7600  176.3140  142.3660 C   0  0  0  0  0  2  0  0  0  0  0  0
  191.6540  178.0590  143.9130 C   0  0  2  0  0  3  0  0  0  0  0  0
  190.9860  179.3000  144.4950 C   0  0  0  0  0  1  0  0  0  0  0  0
  191.5880  178.0670  142.3840 C   0  0  0  0  0  2  0  0  0  0  0  0
  191.1220  176.7400  146.0210 C   0  0  0  0  0  0  0  0  0  0  0  0
  191.1550  176.7260  144.5100 C   0  0  1  0  0  3  0  0  0  0  0  0
  192.1330  176.4700  146.6430 O   0  0  0  0  0  0  0  0  0  0  0  0
  186.2140  177.2910  145.8920 C   0  0  1  0  0  3  0  0  0  0  0  0
  185.0630  177.7110  144.9780 C   0  0  2  0  0  3  0  0  0  0  0  0
  186.4530  177.8140  144.4590 C   0  0  2  0  0  3  0  0  0  0  0  0
  188.7610  177.5490  145.8250 C   0  0  1  0  0  3  0  0  0  0  0  0
  187.2460  176.6620  143.8640 C   0  0  0  0  0  2  0  0  0  0  0  0
  188.5540  176.4960  144.6930 C   0  0  1  0  0  3  0  0  0  0  0  0
  187.3520  179.3930  146.8670 C   0  0  0  0  0  2  0  0  0  0  0  0
  186.4450  179.6230  147.8860 F   0  0  0  0  0  0  0  0  0  0  0  0
  189.1700  178.7710  142.0520 C   0  0  0  0  0  2  0  0  0  0  0  0
  187.9720  178.6080  141.1230 C   0  0  0  0  0  2  0  0  0  0  0  0
  188.4090  178.1880  139.7290 C   0  0  0  0  0  2  0  0  0  0  0  0
  188.9960  178.9330  137.1550 C   0  0  0  0  0  1  0  0  0  0  0  0
  187.4010  177.2920  137.6870 C   0  0  2  0  0  3  0  0  0  0  0  0
  187.2280  178.2680  138.7580 C   0  0  2  0  0  3  0  0  0  0  0  0
  187.5680  178.7200  137.3780 N   0  0  0  0  0  0  0  0  0  0  0  0
  185.8200  175.4770  136.9250 C   0  0  0  0  0  0  0  0  0  0  0  0
  186.1030  176.8470  137.2090 N   0  0  0  0  0  2  0  0  0  0  0  0
  186.6780  174.5850  137.1600 O   0  0  0  0  0  0  0  0  0  0  0  0
  184.5020  175.0970  136.3410 C   0  0  0  0  0  2  0  0  0  0  0  0
  183.3610  175.8450  137.0170 C   0  0  0  0  0  2  0  0  0  0  0  0
  183.0580  175.2660  138.3910 C   0  0  0  0  0  2  0  0  0  0  0  0
  182.7760  176.3740  139.3860 C   0  0  0  0  0  1  0  0  0  0  0  0
  1  6  1  6  0  0  0
  1 11  1  0  0  0  0
  1 18  1  0  0  0  0
  2 19  1  6  0  0  0
  5 21  1  1  0  0  0
  5  6  1  0  0  0  0
  5  9  1  0  0  0  0
  7  8  1  1  0  0  0
  7 11  1  0  0  0  0
  9  7  1  0  0  0  0
 10 12  2  0  0  0  0
 10  4  1  0  0  0  0
 11 10  1  1  0  0  0
 13  2  1  0  0  0  0
 14  3  1  0  0  0  0
 14 13  1  0  0  0  0
 15 14  1  0  0  0  0
 15 13  1  0  0  0  0
 16  2  1  0  0  0  0
 16  4  1  0  0  0  0
 17 15  1  0  0  0  0
 17 18  1  0  0  0  0
 18 16  1  0  0  0  0
 19 20  1  0  0  0  0
 22 21  1  0  0  0  0
 23 22  1  0  0  0  0
 24 27  1  0  0  0  0
 25 26  1  0  0  0  0
 26 23  1  0  0  0  0
 27 25  1  0  0  0  0
 27 26  1  0  0  0  0
 28 30  2  0  0  0  0
 28 29  1  0  0  0  0
 29 25  1  0  0  0  0
 31 28  1  0  0  0  0
 31 32  1  0  0  0  0
 32 33  1  0  0  0  0
 33 34  1  0  0  0  0
M  END
>  <MODEL>
4

>  <REMARK>
 VINA RESULT:      -7.3      1.312      1.491
  Name = 
  9 active torsions:
  status: ('A' for Active; 'I' for Inactive)
    1  A    between atoms: C_2  and  C_13
    2  A    between atoms: C_6  and  C_28
    3  A    between atoms: C_6  and  C_30
    4  A    between atoms: C_7  and  C_29
    5  A    between atoms: C_8  and  C_18
    6  A    between atoms: C_11  and  C_15
    7  A    between atoms: C_11  and  C_29
    8  A    between atoms: N_14  and  C_16
    9  A    between atoms: C_18  and  C_30
                            x       y       z     vdW  Elec       q    Type
                         _______ _______ _______ _____ _____    ______ ____

>  <TORSDO>
F 9

$$$$
=
 OpenBabel10272415303D

 34 38  0  0  1  0  0  0  0  0999 V2000
  189.8680  176.2020  144.0320 C   0  0  1  0  0  3  0  0  0  0  0  0
  187.3310  177.9740  146.5390 C   0  0  1  0  0  3  0  0  0  0  0  0
  184.4880  179.0920  145.1230 C   0  0  0  0  0  1  0  0  0  0  0  0
  189.7370  177.2020  146.8780 C   0  0  0  0  0  2  0  0  0  0  0  0
  190.3370  177.6180  141.9470 C   0  0  2  0  0  3  0  0  0  0  0  0
  189.8670  176.2700  142.4980 C   0  0  0  0  0  2  0  0  0  0  0  0
  191.6650  178.0830  144.0820 C   0  0  2  0  0  3  0  0  0  0  0  0
  190.9590  179.3360  144.5860 C   0  0  0  0  0  1  0  0  0  0  0  0
  191.6790  178.0390  142.5520 C   0  0  0  0  0  2  0  0  0  0  0  0
  191.0330  176.8300  146.2030 C   0  0  0  0  0  0  0  0  0  0  0  0
  191.1450  176.7660  144.6960 C   0  0  1  0  0  3  0  0  0  0  0  0
  192.0120  176.5900  146.8860 O   0  0  0  0  0  0  0  0  0  0  0  0
  186.1350  177.3330  145.7990 C   0  0  1  0  0  3  0  0  0  0  0  0
  185.0300  177.7120  144.8120 C   0  0  2  0  0  3  0  0  0  0  0  0
  186.4440  177.8100  144.3630 C   0  0  2  0  0  3  0  0  0  0  0  0
  188.6790  177.6110  145.8560 C   0  0  1  0  0  3  0  0  0  0  0  0
  187.2760  176.6460  143.8500 C   0  0  0  0  0  2  0  0  0  0  0  0
  188.5400  176.5190  144.7510 C   0  0  1  0  0  3  0  0  0  0  0  0
  187.2050  179.4770  146.7600 C   0  0  0  0  0  2  0  0  0  0  0  0
  186.2610  179.7310  147.7380 F   0  0  0  0  0  0  0  0  0  0  0  0
  189.2770  178.7100  142.0710 C   0  0  0  0  0  2  0  0  0  0  0  0
  188.1850  178.5650  141.0170 C   0  0  0  0  0  2  0  0  0  0  0  0
  188.7510  178.6970  139.6130 C   0  0  0  0  0  2  0  0  0  0  0  0
  188.8710  178.8990  136.8800 C   0  0  0  0  0  1  0  0  0  0  0  0
  189.7220  177.0630  138.0730 C   0  0  2  0  0  3  0  0  0  0  0  0
  188.5190  177.4050  138.8250 C   0  0  2  0  0  3  0  0  0  0  0  0
  188.5440  177.5520  137.3410 N   0  0  0  0  0  0  0  0  0  0  0  0
  190.5580  175.0080  136.8660 C   0  0  0  0  0  0  0  0  0  0  0  0
  189.8150  175.6200  137.9200 N   0  0  0  0  0  2  0  0  0  0  0  0
  191.2320  175.7110  136.0680 O   0  0  0  0  0  0  0  0  0  0  0  0
  190.5310  173.5270  136.7020 C   0  0  0  0  0  2  0  0  0  0  0  0
  189.7450  173.1210  135.4630 C   0  0  0  0  0  2  0  0  0  0  0  0
  188.2480  173.1080  135.7380 C   0  0  0  0  0  2  0  0  0  0  0  0
  187.9490  172.3610  137.0220 C   0  0  0  0  0  1  0  0  0  0  0  0
  1  6  1  6  0  0  0
  1 11  1  0  0  0  0
  1 18  1  0  0  0  0
  2 19  1  6  0  0  0
  5 21  1  1  0  0  0
  5  6  1  0  0  0  0
  5  9  1  0  0  0  0
  7  8  1  6  0  0  0
  7 11  1  0  0  0  0
  9  7  1  0  0  0  0
 10  4  1  0  0  0  0
 10 12  2  0  0  0  0
 11 10  1  1  0  0  0
 13  2  1  0  0  0  0
 14  3  1  0  0  0  0
 14 13  1  0  0  0  0
 15 14  1  0  0  0  0
 15 13  1  0  0  0  0
 16  2  1  0  0  0  0
 16  4  1  0  0  0  0
 17 15  1  0  0  0  0
 17 18  1  0  0  0  0
 18 16  1  0  0  0  0
 19 20  1  0  0  0  0
 22 21  1  0  0  0  0
 23 22  1  0  0  0  0
 24 27  1  0  0  0  0
 25 26  1  0  0  0  0
 26 23  1  0  0  0  0
 27 25  1  0  0  0  0
 27 26  1  0  0  0  0
 28 29  1  0  0  0  0
 29 25  1  0  0  0  0
 30 28  2  0  0  0  0
 31 28  1  0  0  0  0
 32 33  1  0  0  0  0
 32 31  1  0  0  0  0
 33 34  1  0  0  0  0
M  END
>  <MODEL>
5

>  <REMARK>
 VINA RESULT:      -7.1      1.217      1.586
  Name = 
  9 active torsions:
  status: ('A' for Active; 'I' for Inactive)
    1  A    between atoms: C_2  and  C_13
    2  A    between atoms: C_6  and  C_28
    3  A    between atoms: C_6  and  C_30
    4  A    between atoms: C_7  and  C_29
    5  A    between atoms: C_8  and  C_18
    6  A    between atoms: C_11  and  C_15
    7  A    between atoms: C_11  and  C_29
    8  A    between atoms: N_14  and  C_16
    9  A    between atoms: C_18  and  C_30
                            x       y       z     vdW  Elec       q    Type
                         _______ _______ _______ _____ _____    ______ ____

>  <TORSDO>
F 9

$$$$
=
 OpenBabel10272415303D

 34 38  0  0  1  0  0  0  0  0999 V2000
  189.3680  176.1700  144.0460 C   0  0  1  0  0  3  0  0  0  0  0  0
  186.9260  178.1220  146.5140 C   0  0  1  0  0  3  0  0  0  0  0  0
  184.2110  179.4700  145.0470 C   0  0  0  0  0  1  0  0  0  0  0  0
  189.2560  177.1600  146.8960 C   0  0  0  0  0  2  0  0  0  0  0  0
  189.9920  177.5570  141.9820 C   0  0  2  0  0  3  0  0  0  0  0  0
  189.4050  176.2470  142.5130 C   0  0  0  0  0  2  0  0  0  0  0  0
  191.3070  177.9020  144.1470 C   0  0  2  0  0  3  0  0  0  0  0  0
  190.6920  179.2040  144.6470 C   0  0  0  0  0  1  0  0  0  0  0  0
  191.3500  177.8660  142.6190 C   0  0  0  0  0  2  0  0  0  0  0  0
  190.5320  176.6900  146.2450 C   0  0  0  0  0  0  0  0  0  0  0  0
  190.6710  176.6270  144.7410 C   0  0  1  0  0  3  0  0  0  0  0  0
  191.4750  176.3690  146.9460 O   0  0  0  0  0  0  0  0  0  0  0  0
  185.6990  177.5820  145.7440 C   0  0  1  0  0  3  0  0  0  0  0  0
  184.6490  178.0530  144.7370 C   0  0  2  0  0  3  0  0  0  0  0  0
  186.0760  178.0420  144.3180 C   0  0  2  0  0  3  0  0  0  0  0  0
  188.2560  177.6570  145.8560 C   0  0  1  0  0  3  0  0  0  0  0  0
  186.8240  176.8190  143.8140 C   0  0  0  0  0  2  0  0  0  0  0  0
  188.0540  176.5870  144.7400 C   0  0  1  0  0  3  0  0  0  0  0  0
  186.9150  179.6290  146.7440 C   0  0  0  0  0  2  0  0  0  0  0  0
  186.0260  179.9440  147.7550 F   0  0  0  0  0  0  0  0  0  0  0  0
  189.0200  178.7290  142.0920 C   0  0  0  0  0  2  0  0  0  0  0  0
  188.3330  179.0250  140.7640 C   0  0  0  0  0  2  0  0  0  0  0  0
  187.0940  178.1640  140.5790 C   0  0  0  0  0  2  0  0  0  0  0  0
  185.5360  178.4150  138.3350 C   0  0  0  0  0  1  0  0  0  0  0  0
  184.6490  178.1890  140.4990 C   0  0  2  0  0  3  0  0  0  0  0  0
  185.8310  179.0160  140.7200 C   0  0  2  0  0  3  0  0  0  0  0  0
  185.0270  179.1740  139.4740 N   0  0  0  0  0  0  0  0  0  0  0  0
  182.1730  178.4610  140.9110 C   0  0  0  0  0  0  0  0  0  0  0  0
  183.5320  178.7070  141.2720 N   0  0  0  0  0  2  0  0  0  0  0  0
  181.8960  177.7090  139.9390 O   0  0  0  0  0  0  0  0  0  0  0  0
  181.0720  179.1040  141.6840 C   0  0  0  0  0  2  0  0  0  0  0  0
  181.5020  179.4040  143.1140 C   0  0  0  0  0  2  0  0  0  0  0  0
  180.4460  178.9580  144.1140 C   0  0  0  0  0  2  0  0  0  0  0  0
  179.9820  177.5490  143.8060 C   0  0  0  0  0  1  0  0  0  0  0  0
  1  6  1  6  0  0  0
  1 18  1  0  0  0  0
  1 11  1  0  0  0  0
  2 19  1  6  0  0  0
  5 21  1  1  0  0  0
  5  6  1  0  0  0  0
  5  9  1  0  0  0  0
  7  8  1  6  0  0  0
  7 11  1  0  0  0  0
  9  7  1  0  0  0  0
 10  4  1  0  0  0  0
 10 12  2  0  0  0  0
 11 10  1  1  0  0  0
 13  2  1  0  0  0  0
 14  3  1  0  0  0  0
 14 13  1  0  0  0  0
 15 14  1  0  0  0  0
 15 13  1  0  0  0  0
 16  2  1  0  0  0  0
 16  4  1  0  0  0  0
 17 15  1  0  0  0  0
 17 18  1  0  0  0  0
 18 16  1  0  0  0  0
 19 20  1  0  0  0  0
 22 21  1  0  0  0  0
 23 26  1  0  0  0  0
 23 22  1  0  0  0  0
 24 27  1  0  0  0  0
 25 26  1  0  0  0  0
 25 29  1  0  0  0  0
 27 25  1  0  0  0  0
 27 26  1  0  0  0  0
 28 29  1  0  0  0  0
 28 31  1  0  0  0  0
 30 28  2  0  0  0  0
 31 32  1  0  0  0  0
 32 33  1  0  0  0  0
 34 33  1  0  0  0  0
M  END
>  <MODEL>
6

>  <REMARK>
 VINA RESULT:      -7.0      2.957      4.266
  Name = 
  9 active torsions:
  status: ('A' for Active; 'I' for Inactive)
    1  A    between atoms: C_2  and  C_13
    2  A    between atoms: C_6  and  C_28
    3  A    between atoms: C_6  and  C_30
    4  A    between atoms: C_7  and  C_29
    5  A    between atoms: C_8  and  C_18
    6  A    between atoms: C_11  and  C_15
    7  A    between atoms: C_11  and  C_29
    8  A    between atoms: N_14  and  C_16
    9  A    between atoms: C_18  and  C_30
                            x       y       z     vdW  Elec       q    Type
                         _______ _______ _______ _____ _____    ______ ____

>  <TORSDO>
F 9

$$$$
=
 OpenBabel10272415303D

 34 38  0  0  1  0  0  0  0  0999 V2000
  188.6520  178.2360  136.5730 C   0  0  1  0  0  3  0  0  0  0  0  0
  185.6720  175.6370  136.0910 C   0  0  1  0  0  3  0  0  0  0  0  0
  183.0630  176.0720  138.1730 C   0  0  0  0  0  1  0  0  0  0  0  0
  188.0170  175.6840  135.0900 C   0  0  0  0  0  2  0  0  0  0  0  0
  189.4060  178.4230  139.0160 C   0  0  2  0  0  3  0  0  0  0  0  0
  188.9010  179.1600  137.7730 C   0  0  0  0  0  2  0  0  0  0  0  0
  190.3450  176.5330  137.5730 C   0  0  2  0  0  3  0  0  0  0  0  0
  189.5200  175.3560  138.0790 C   0  0  0  0  0  1  0  0  0  0  0  0
  190.6130  177.5380  138.6960 C   0  0  0  0  0  2  0  0  0  0  0  0
  189.4190  176.2220  135.2250 C   0  0  0  0  0  0  0  0  0  0  0  0
  189.7800  177.2130  136.3080 C   0  0  1  0  0  3  0  0  0  0  0  0
  190.2810  175.8370  134.4550 O   0  0  0  0  0  0  0  0  0  0  0  0
  184.6390  176.7560  136.3540 C   0  0  1  0  0  3  0  0  0  0  0  0
  183.6990  177.2450  137.4560 C   0  0  2  0  0  3  0  0  0  0  0  0
  185.1630  177.2650  137.7150 C   0  0  2  0  0  3  0  0  0  0  0  0
  187.1280  176.1660  136.2330 C   0  0  1  0  0  3  0  0  0  0  0  0
  186.1110  178.3640  137.2610 C   0  0  0  0  0  2  0  0  0  0  0  0
  187.2130  177.7170  136.3720 C   0  0  1  0  0  3  0  0  0  0  0  0
  185.4570  174.3720  136.9120 C   0  0  0  0  0  2  0  0  0  0  0  0
  184.4240  173.6280  136.3700 F   0  0  0  0  0  0  0  0  0  0  0  0
  188.3000  177.6580  139.7390 C   0  0  0  0  0  2  0  0  0  0  0  0
  187.7910  178.4130  140.9620 C   0  0  0  0  0  2  0  0  0  0  0  0
  186.3270  178.7870  140.8090 C   0  0  0  0  0  2  0  0  0  0  0  0
  183.7430  178.0560  141.3730 C   0  0  0  0  0  1  0  0  0  0  0  0
  185.4450  178.1200  142.9920 C   0  0  2  0  0  3  0  0  0  0  0  0
  185.7600  179.2680  142.1480 C   0  0  2  0  0  3  0  0  0  0  0  0
  184.3390  178.8960  142.4080 N   0  0  0  0  0  0  0  0  0  0  0  0
  186.7110  178.0560  145.1750 C   0  0  0  0  0  0  0  0  0  0  0  0
  185.5960  178.4810  144.3920 N   0  0  0  0  0  2  0  0  0  0  0  0
  187.6550  177.4110  144.6470 O   0  0  0  0  0  0  0  0  0  0  0  0
  186.7580  178.3720  146.6320 C   0  0  0  0  0  2  0  0  0  0  0  0
  187.5030  177.2940  147.4080 C   0  0  0  0  0  2  0  0  0  0  0  0
  188.8130  177.8240  147.9720 C   0  0  0  0  0  2  0  0  0  0  0  0
  189.9890  177.2900  147.1800 C   0  0  0  0  0  1  0  0  0  0  0  0
  1  6  1  1  0  0  0
  2 16  1  0  0  0  0
  2 13  1  0  0  0  0
  2 19  1  1  0  0  0
  4 10  1  0  0  0  0
  4 16  1  0  0  0  0
  5 21  1  6  0  0  0
  6  5  1  0  0  0  0
  7  8  1  1  0  0  0
  7  9  1  0  0  0  0
  9  5  1  0  0  0  0
 11 10  1  6  0  0  0
 11  1  1  0  0  0  0
 11  7  1  0  0  0  0
 12 10  2  0  0  0  0
 13 14  1  0  0  0  0
 13 15  1  0  0  0  0
 14 15  1  0  0  0  0
 14  3  1  0  0  0  0
 16 18  1  0  0  0  0
 17 15  1  0  0  0  0
 18  1  1  0  0  0  0
 18 17  1  0  0  0  0
 20 19  1  0  0  0  0
 21 22  1  0  0  0  0
 23 22  1  0  0  0  0
 23 26  1  0  0  0  0
 24 27  1  0  0  0  0
 25 29  1  0  0  0  0
 26 27  1  0  0  0  0
 26 25  1  0  0  0  0
 27 25  1  0  0  0  0
 28 31  1  0  0  0  0
 29 28  1  0  0  0  0
 30 28  2  0  0  0  0
 31 32  1  0  0  0  0
 32 33  1  0  0  0  0
 34 33  1  0  0  0  0
M  END
>  <MODEL>
7

>  <REMARK>
 VINA RESULT:      -6.8      3.589      8.671
  Name = 
  9 active torsions:
  status: ('A' for Active; 'I' for Inactive)
    1  A    between atoms: C_2  and  C_13
    2  A    between atoms: C_6  and  C_28
    3  A    between atoms: C_6  and  C_30
    4  A    between atoms: C_7  and  C_29
    5  A    between atoms: C_8  and  C_18
    6  A    between atoms: C_11  and  C_15
    7  A    between atoms: C_11  and  C_29
    8  A    between atoms: N_14  and  C_16
    9  A    between atoms: C_18  and  C_30
                            x       y       z     vdW  Elec       q    Type
                         _______ _______ _______ _____ _____    ______ ____

>  <TORSDO>
F 9

$$$$
=
 OpenBabel10272415303D

 34 38  0  0  1  0  0  0  0  0999 V2000
  188.9220  177.9570  136.4150 C   0  0  1  0  0  3  0  0  0  0  0  0
  185.9300  175.3650  135.9740 C   0  0  1  0  0  3  0  0  0  0  0  0
  183.3170  175.8530  138.0400 C   0  0  0  0  0  1  0  0  0  0  0  0
  188.2780  175.3810  134.9780 C   0  0  0  0  0  2  0  0  0  0  0  0
  189.6710  178.1850  138.8560 C   0  0  2  0  0  3  0  0  0  0  0  0
  189.1730  178.9020  137.5990 C   0  0  0  0  0  2  0  0  0  0  0  0
  190.6040  176.2650  137.4520 C   0  0  2  0  0  3  0  0  0  0  0  0
  189.7710  175.1010  137.9770 C   0  0  0  0  0  1  0  0  0  0  0  0
  190.8740  177.2880  138.5560 C   0  0  0  0  0  2  0  0  0  0  0  0
  189.6820  175.9140  135.1080 C   0  0  0  0  0  0  0  0  0  0  0  0
  190.0460  176.9230  136.1730 C   0  0  1  0  0  3  0  0  0  0  0  0
  190.5440  175.5110  134.3470 O   0  0  0  0  0  0  0  0  0  0  0  0
  184.9030  176.4940  136.2130 C   0  0  1  0  0  3  0  0  0  0  0  0
  183.9620  177.0090  137.3040 C   0  0  2  0  0  3  0  0  0  0  0  0
  185.4260  177.0260  137.5660 C   0  0  2  0  0  3  0  0  0  0  0  0
  187.3880  175.8890  136.1100 C   0  0  1  0  0  3  0  0  0  0  0  0
  186.3800  178.1110  137.0940 C   0  0  0  0  0  2  0  0  0  0  0  0
  187.4810  177.4420  136.2200 C   0  0  1  0  0  3  0  0  0  0  0  0
  185.7060  174.1160  136.8180 C   0  0  0  0  0  2  0  0  0  0  0  0
  186.9170  173.6410  137.2870 F   0  0  0  0  0  0  0  0  0  0  0  0
  188.5590  177.4400  139.5910 C   0  0  0  0  0  2  0  0  0  0  0  0
  188.6720  177.5970  141.1030 C   0  0  0  0  0  2  0  0  0  0  0  0
  189.6940  176.6330  141.6830 C   0  0  0  0  0  2  0  0  0  0  0  0
  191.6600  177.9010  143.1160 C   0  0  0  0  0  1  0  0  0  0  0  0
  189.3950  177.9300  143.7370 C   0  0  2  0  0  3  0  0  0  0  0  0
  189.5660  176.5810  143.2080 C   0  0  2  0  0  3  0  0  0  0  0  0
  190.6730  177.2370  143.9630 N   0  0  0  0  0  0  0  0  0  0  0  0
  187.2020  177.6190  144.9490 C   0  0  0  0  0  0  0  0  0  0  0  0
  188.6040  177.8860  144.9560 N   0  0  0  0  0  2  0  0  0  0  0  0
  186.6120  177.3310  143.8750 O   0  0  0  0  0  0  0  0  0  0  0  0
  186.4270  177.6890  146.2210 C   0  0  0  0  0  2  0  0  0  0  0  0
  187.1500  178.5320  147.2630 C   0  0  0  0  0  2  0  0  0  0  0  0
  187.8610  177.6580  148.2850 C   0  0  0  0  0  2  0  0  0  0  0  0
  189.3590  177.8770  148.2230 C   0  0  0  0  0  1  0  0  0  0  0  0
  1  6  1  1  0  0  0
  2 16  1  0  0  0  0
  2 13  1  0  0  0  0
  2 19  1  1  0  0  0
  4 10  1  0  0  0  0
  4 16  1  0  0  0  0
  5 21  1  6  0  0  0
  6  5  1  0  0  0  0
  7  8  1  1  0  0  0
  7  9  1  0  0  0  0
  9  5  1  0  0  0  0
 11 10  1  6  0  0  0
 11  1  1  0  0  0  0
 11  7  1  0  0  0  0
 12 10  2  0  0  0  0
 13 14  1  0  0  0  0
 13 15  1  0  0  0  0
 14 15  1  0  0  0  0
 14  3  1  0  0  0  0
 16 18  1  0  0  0  0
 17 15  1  0  0  0  0
 18  1  1  0  0  0  0
 18 17  1  0  0  0  0
 19 20  1  0  0  0  0
 21 22  1  0  0  0  0
 22 23  1  0  0  0  0
 23 26  1  0  0  0  0
 24 27  1  0  0  0  0
 25 27  1  0  0  0  0
 25 29  1  0  0  0  0
 26 25  1  0  0  0  0
 26 27  1  0  0  0  0
 28 29  1  0  0  0  0
 28 31  1  0  0  0  0
 30 28  2  0  0  0  0
 31 32  1  0  0  0  0
 32 33  1  0  0  0  0
 34 33  1  0  0  0  0
M  END
>  <MODEL>
8

>  <REMARK>
 VINA RESULT:      -6.6      3.540      8.741
  Name = 
  9 active torsions:
  status: ('A' for Active; 'I' for Inactive)
    1  A    between atoms: C_2  and  C_13
    2  A    between atoms: C_6  and  C_28
    3  A    between atoms: C_6  and  C_30
    4  A    between atoms: C_7  and  C_29
    5  A    between atoms: C_8  and  C_18
    6  A    between atoms: C_11  and  C_15
    7  A    between atoms: C_11  and  C_29
    8  A    between atoms: N_14  and  C_16
    9  A    between atoms: C_18  and  C_30
                            x       y       z     vdW  Elec       q    Type
                         _______ _______ _______ _____ _____    ______ ____

>  <TORSDO>
F 9

$$$$
=
 OpenBabel10272415303D

 34 38  0  0  1  0  0  0  0  0999 V2000
  180.6140  177.6230  138.5690 C   0  0  1  0  0  3  0  0  0  0  0  0
  183.4010  176.4630  135.9700 C   0  0  1  0  0  3  0  0  0  0  0  0
  185.4890  174.0780  137.1040 C   0  0  0  0  0  1  0  0  0  0  0  0
  181.7420  178.3980  135.8770 C   0  0  0  0  0  2  0  0  0  0  0  0
  181.5980  178.2310  140.8570 C   0  0  2  0  0  3  0  0  0  0  0  0
  180.5890  177.3780  140.0840 C   0  0  0  0  0  2  0  0  0  0  0  0
  181.6070  179.9890  139.0010 C   0  0  2  0  0  3  0  0  0  0  0  0
  183.0650  179.9280  138.5620 C   0  0  0  0  0  1  0  0  0  0  0  0
  181.4730  179.7140  140.5000 C   0  0  0  0  0  2  0  0  0  0  0  0
  180.8400  179.3040  136.6750 C   0  0  0  0  0  0  0  0  0  0  0  0
  180.6500  179.1150  138.1630 C   0  0  1  0  0  3  0  0  0  0  0  0
  180.2640  180.2170  136.1100 O   0  0  0  0  0  0  0  0  0  0  0  0
  183.2560  175.0010  136.4520 C   0  0  1  0  0  3  0  0  0  0  0  0
  183.9930  173.9750  137.3150 C   0  0  2  0  0  3  0  0  0  0  0  0
  183.4850  175.2130  137.9650 C   0  0  2  0  0  3  0  0  0  0  0  0
  182.4850  177.4200  136.7840 C   0  0  1  0  0  3  0  0  0  0  0  0
  182.0560  175.4220  138.4410 C   0  0  0  0  0  2  0  0  0  0  0  0
  181.4820  176.6730  137.7160 C   0  0  1  0  0  3  0  0  0  0  0  0
  184.8360  176.9740  135.9200 C   0  0  0  0  0  2  0  0  0  0  0  0
  185.2130  177.4380  137.1670 F   0  0  0  0  0  0  0  0  0  0  0  0
  183.0300  177.7200  140.7220 C   0  0  0  0  0  2  0  0  0  0  0  0
  184.0330  178.6530  141.3920 C   0  0  0  0  0  2  0  0  0  0  0  0
  184.0020  178.5010  142.9040 C   0  0  0  0  0  2  0  0  0  0  0  0
  184.0840  178.7780  145.6320 C   0  0  0  0  0  1  0  0  0  0  0  0
  185.8490  177.8670  144.3780 C   0  0  2  0  0  3  0  0  0  0  0  0
  185.3460  178.9220  143.5050 C   0  0  2  0  0  3  0  0  0  0  0  0
  185.3500  179.1100  144.9850 N   0  0  0  0  0  0  0  0  0  0  0  0
  188.0670  177.6250  145.5610 C   0  0  0  0  0  0  0  0  0  0  0  0
  187.3030  177.8810  144.3830 N   0  0  0  0  0  2  0  0  0  0  0  0
  187.4950  177.2940  146.6340 O   0  0  0  0  0  0  0  0  0  0  0  0
  189.5510  177.7550  145.5260 C   0  0  0  0  0  2  0  0  0  0  0  0
  190.2000  176.9950  146.6750 C   0  0  0  0  0  2  0  0  0  0  0  0
  191.5820  176.4870  146.2910 C   0  0  0  0  0  2  0  0  0  0  0  0
  192.2360  175.7820  147.4620 C   0  0  0  0  0  1  0  0  0  0  0  0
  1  6  1  1  0  0  0
  2 19  1  1  0  0  0
  2 13  1  0  0  0  0
  2 16  1  0  0  0  0
  3 14  1  0  0  0  0
  4 10  1  0  0  0  0
  4 16  1  0  0  0  0
  5 21  1  6  0  0  0
  6  5  1  0  0  0  0
  7  8  1  6  0  0  0
  7  9  1  0  0  0  0
  9  5  1  0  0  0  0
 11 10  1  6  0  0  0
 11  1  1  0  0  0  0
 11  7  1  0  0  0  0
 12 10  2  0  0  0  0
 13 14  1  0  0  0  0
 13 15  1  0  0  0  0
 14 15  1  0  0  0  0
 15 17  1  0  0  0  0
 16 18  1  0  0  0  0
 18 17  1  0  0  0  0
 18  1  1  0  0  0  0
 19 20  1  0  0  0  0
 21 22  1  0  0  0  0
 22 23  1  0  0  0  0
 23 26  1  0  0  0  0
 25 29  1  0  0  0  0
 25 27  1  0  0  0  0
 26 25  1  0  0  0  0
 26 27  1  0  0  0  0
 27 24  1  0  0  0  0
 28 30  2  0  0  0  0
 29 28  1  0  0  0  0
 31 28  1  0  0  0  0
 31 32  1  0  0  0  0
 33 32  1  0  0  0  0
 33 34  1  0  0  0  0
M  END
>  <MODEL>
9

>  <REMARK>
 VINA RESULT:      -6.5      5.111     10.214
  Name = 
  9 active torsions:
  status: ('A' for Active; 'I' for Inactive)
    1  A    between atoms: C_2  and  C_13
    2  A    between atoms: C_6  and  C_28
    3  A    between atoms: C_6  and  C_30
    4  A    between atoms: C_7  and  C_29
    5  A    between atoms: C_8  and  C_18
    6  A    between atoms: C_11  and  C_15
    7  A    between atoms: C_11  and  C_29
    8  A    between atoms: N_14  and  C_16
    9  A    between atoms: C_18  and  C_30
                            x       y       z     vdW  Elec       q    Type
                         _______ _______ _______ _____ _____    ______ ____

>  <TORSDO>
F 9

$$$$
