=
 OpenBabel10272414563D

 37 40  0  0  1  0  0  0  0  0999 V2000
  188.6230  177.6840  136.6660 O   0  0  0  0  0  0  0  0  0  0  0  0
  190.9700  175.0470  137.8590 C   0  0  0  0  0  2  0  0  0  0  0  0
  185.3790  176.0050  135.7850 C   0  0  0  0  0  3  0  0  0  0  0  0
  188.8280  176.9930  137.8770 C   0  0  2  0  0  3  0  0  0  0  0  0
  186.6350  176.2600  136.3570 C   0  0  0  0  0  0  0  0  0  0  0  0
  190.1760  177.3490  138.5000 C   0  0  2  0  0  3  0  0  0  0  0  0
  187.1580  178.1850  134.8890 C   0  0  0  0  0  1  0  0  0  0  0  0
  187.3030  175.2180  137.0350 C   0  0  0  0  0  0  0  0  0  0  0  0
  185.4910  173.7010  136.5120 C   0  0  0  0  0  3  0  0  0  0  0  0
  187.2420  177.6670  136.3160 C   0  0  2  0  0  0  0  0  0  0  0  0
  186.7310  173.9450  137.1050 C   0  0  0  0  0  3  0  0  0  0  0  0
  191.3170  176.5390  137.8870 C   0  0  0  0  0  2  0  0  0  0  0  0
  188.6260  175.4790  137.6930 C   0  0  1  0  0  3  0  0  0  0  0  0
  184.8070  174.7310  135.8500 C   0  0  0  0  0  0  0  0  0  0  0  0
  189.7670  174.7840  137.0500 N   0  0  0  0  0  0  0  0  0  0  0  0
  183.5610  174.5190  135.2530 O   0  0  0  0  0  0  0  0  0  0  0  0
  182.7750  173.3620  135.5080 C   0  0  0  0  0  1  0  0  0  0  0  0
  185.7390  178.2130  138.1250 C   0  0  0  0  0  2  0  0  0  0  0  0
  186.4850  178.5900  137.1470 N   0  0  0  0  0  0  0  0  0  0  0  0
  189.9720  175.1430  135.6240 C   0  0  2  0  0  3  0  0  0  0  0  0
  189.0400  174.4730  134.8180 O   0  0  0  0  0  0  0  0  0  0  0  0
  188.5280  172.1670  134.5530 C   0  0  0  0  0  1  0  0  0  0  0  0
  189.6090  173.2270  134.5410 C   0  0  0  0  0  2  0  0  0  0  0  0
  191.3900  174.7980  135.1310 C   0  0  0  0  0  2  0  0  0  0  0  0
  192.0070  175.9490  134.3460 C   0  0  0  0  0  2  0  0  0  0  0  0
  193.4110  176.2360  134.8460 C   0  0  0  0  0  2  0  0  0  0  0  0
  194.7960  175.1310  136.5750 C   0  0  0  0  0  1  0  0  0  0  0  0
  194.1040  174.9460  135.2410 C   0  0  0  0  0  2  0  0  0  0  0  0
  190.1170  177.1630  140.0120 C   0  0  0  0  0  2  0  0  0  0  0  0
  188.8600  177.7950  140.5970 C   0  0  0  0  0  2  0  0  0  0  0  0
  190.0230  177.9780  142.8090 C   0  0  0  0  0  3  0  0  0  0  0  0
  188.8580  177.7000  142.0860 C   0  0  0  0  0  0  0  0  0  0  0  0
  187.6960  177.3040  142.7590 C   0  0  0  0  0  3  0  0  0  0  0  0
  186.5740  176.8100  144.8030 F   0  0  0  0  0  0  0  0  0  0  0  0
  188.8630  177.4730  144.8750 C   0  0  0  0  0  3  0  0  0  0  0  0
  187.6990  177.1920  144.1520 C   0  0  0  0  0  0  0  0  0  0  0  0
  190.0250  177.8660  144.2020 C   0  0  0  0  0  3  0  0  0  0  0  0
  2 12  1  0  0  0  0
  3 14  2  0  0  0  0
  3  5  1  0  0  0  0
  4  1  1  6  0  0  0
  4  6  1  0  0  0  0
  5  8  2  0  0  0  0
  6 29  1  1  0  0  0
  8 11  1  0  0  0  0
  9 11  2  0  0  0  0
 10  7  1  6  0  0  0
 10  5  1  0  0  0  0
 10  1  1  0  0  0  0
 10 19  1  0  0  0  0
 12  6  1  0  0  0  0
 13  8  1  6  0  0  0
 13  4  1  0  0  0  0
 14  9  1  0  0  0  0
 15 13  1  0  0  0  0
 15  2  1  0  0  0  0
 16 17  1  0  0  0  0
 16 14  1  0  0  0  0
 19 18  2  0  0  0  0
 20 24  1  6  0  0  0
 20 15  1  0  0  0  0
 21 20  1  0  0  0  0
 23 22  1  0  0  0  0
 23 21  1  0  0  0  0
 25 26  1  0  0  0  0
 25 24  1  0  0  0  0
 26 28  1  0  0  0  0
 28 27  1  0  0  0  0
 29 30  1  0  0  0  0
 30 32  1  0  0  0  0
 31 37  1  0  0  0  0
 32 33  1  0  0  0  0
 32 31  2  0  0  0  0
 33 36  2  0  0  0  0
 36 34  1  0  0  0  0
 36 35  1  0  0  0  0
 37 35  2  0  0  0  0
M  END
>  <MODEL>
1

>  <REMARK>
 VINA RESULT:      -5.5      0.000      0.000
  Name = 
  12 active torsions:
  status: ('A' for Active; 'I' for Inactive)
    1  A    between atoms: C_1  and  O_5
    2  A    between atoms: C_1  and  C_33
    3  A    between atoms: C_1  and  N_36
    4  A    between atoms: O_3  and  C_32
    5  A    between atoms: O_5  and  C_23
    6  A    between atoms: C_6  and  C_31
    7  A    between atoms: C_14  and  C_37
    8  A    between atoms: C_17  and  C_26
    9  A    between atoms: C_17  and  C_33
   10  A    between atoms: C_24  and  N_28
   11  A    between atoms: C_26  and  C_34
   12  A    between atoms: C_31  and  C_37
                            x       y       z     vdW  Elec       q    Type
                         _______ _______ _______ _____ _____    ______ ____

>  <TORSDO>
F 12

$$$$
=
 OpenBabel10272414563D

 37 40  0  0  1  0  0  0  0  0999 V2000
  189.5940  177.0620  136.5940 O   0  0  0  0  0  0  0  0  0  0  0  0
  192.3810  174.9590  137.8960 C   0  0  0  0  0  2  0  0  0  0  0  0
  186.8540  174.7500  135.4690 C   0  0  0  0  0  3  0  0  0  0  0  0
  189.8700  176.3950  137.8040 C   0  0  2  0  0  3  0  0  0  0  0  0
  187.9870  175.2530  136.1290 C   0  0  0  0  0  0  0  0  0  0  0  0
  191.0670  177.0140  138.5220 C   0  0  2  0  0  3  0  0  0  0  0  0
  188.1680  177.2910  134.7320 C   0  0  0  0  0  1  0  0  0  0  0  0
  188.8230  174.3600  136.8310 C   0  0  0  0  0  0  0  0  0  0  0  0
  187.4200  172.5030  136.1630 C   0  0  0  0  0  3  0  0  0  0  0  0
  188.2750  176.7580  136.1530 C   0  0  2  0  0  0  0  0  0  0  0  0
  188.5390  172.9910  136.8410 C   0  0  0  0  0  3  0  0  0  0  0  0
  192.3920  176.4890  137.9730 C   0  0  0  0  0  2  0  0  0  0  0  0
  190.0140  174.8800  137.5810 C   0  0  1  0  0  3  0  0  0  0  0  0
  186.5710  173.3810  135.4740 C   0  0  0  0  0  0  0  0  0  0  0  0
  191.3160  174.4680  137.0040 N   0  0  0  0  0  0  0  0  0  0  0  0
  185.4400  172.9240  134.7910 O   0  0  0  0  0  0  0  0  0  0  0  0
  184.6390  171.8500  135.2670 C   0  0  0  0  0  1  0  0  0  0  0  0
  186.9480  178.6910  136.7290 C   0  0  0  0  0  2  0  0  0  0  0  0
  187.2850  177.4690  136.9470 N   0  0  0  0  0  0  0  0  0  0  0  0
  191.5260  174.9070  135.6010 C   0  0  2  0  0  3  0  0  0  0  0  0
  190.7880  174.0970  134.7260 O   0  0  0  0  0  0  0  0  0  0  0  0
  190.9440  171.7360  134.4960 C   0  0  0  0  0  1  0  0  0  0  0  0
  191.6530  173.0660  134.3490 C   0  0  0  0  0  2  0  0  0  0  0  0
  193.0080  174.8600  135.1880 C   0  0  0  0  0  2  0  0  0  0  0  0
  193.4110  176.1010  134.4000 C   0  0  0  0  0  2  0  0  0  0  0  0
  194.9230  176.2240  134.3480 C   0  0  0  0  0  2  0  0  0  0  0  0
  196.6890  175.1850  135.7370 C   0  0  0  0  0  1  0  0  0  0  0  0
  195.5090  176.1330  135.7440 C   0  0  0  0  0  2  0  0  0  0  0  0
  190.9570  176.7720  140.0230 C   0  0  0  0  0  2  0  0  0  0  0  0
  189.5680  177.1280  140.5390 C   0  0  0  0  0  2  0  0  0  0  0  0
  188.3810  176.7680  142.7160 C   0  0  0  0  0  3  0  0  0  0  0  0
  189.5400  177.1470  142.0310 C   0  0  0  0  0  0  0  0  0  0  0  0
  190.6660  177.5750  142.7450 C   0  0  0  0  0  3  0  0  0  0  0  0
  191.7230  178.0270  144.8320 F   0  0  0  0  0  0  0  0  0  0  0  0
  189.4760  177.2330  144.8270 C   0  0  0  0  0  3  0  0  0  0  0  0
  190.6330  177.6160  144.1410 C   0  0  0  0  0  0  0  0  0  0  0  0
  188.3490  176.8100  144.1130 C   0  0  0  0  0  3  0  0  0  0  0  0
  2 12  1  0  0  0  0
  3 14  2  0  0  0  0
  3  5  1  0  0  0  0
  4  1  1  6  0  0  0
  4  6  1  0  0  0  0
  5 10  1  0  0  0  0
  5  8  2  0  0  0  0
  6 29  1  1  0  0  0
  8 11  1  0  0  0  0
  9 11  2  0  0  0  0
 10  7  1  6  0  0  0
 10  1  1  0  0  0  0
 10 19  1  0  0  0  0
 12  6  1  0  0  0  0
 13  8  1  6  0  0  0
 13  4  1  0  0  0  0
 14  9  1  0  0  0  0
 15 13  1  0  0  0  0
 15  2  1  0  0  0  0
 16 17  1  0  0  0  0
 16 14  1  0  0  0  0
 18 19  2  0  0  0  0
 20 24  1  6  0  0  0
 20 15  1  0  0  0  0
 21 20  1  0  0  0  0
 23 22  1  0  0  0  0
 23 21  1  0  0  0  0
 25 24  1  0  0  0  0
 26 25  1  0  0  0  0
 26 28  1  0  0  0  0
 27 28  1  0  0  0  0
 29 30  1  0  0  0  0
 30 32  1  0  0  0  0
 31 37  1  0  0  0  0
 32 31  2  0  0  0  0
 32 33  1  0  0  0  0
 33 36  2  0  0  0  0
 36 35  1  0  0  0  0
 36 34  1  0  0  0  0
 37 35  2  0  0  0  0
M  END
>  <MODEL>
2

>  <REMARK>
 VINA RESULT:      -5.3      1.653      1.982
  Name = 
  12 active torsions:
  status: ('A' for Active; 'I' for Inactive)
    1  A    between atoms: C_1  and  O_5
    2  A    between atoms: C_1  and  C_33
    3  A    between atoms: C_1  and  N_36
    4  A    between atoms: O_3  and  C_32
    5  A    between atoms: O_5  and  C_23
    6  A    between atoms: C_6  and  C_31
    7  A    between atoms: C_14  and  C_37
    8  A    between atoms: C_17  and  C_26
    9  A    between atoms: C_17  and  C_33
   10  A    between atoms: C_24  and  N_28
   11  A    between atoms: C_26  and  C_34
   12  A    between atoms: C_31  and  C_37
                            x       y       z     vdW  Elec       q    Type
                         _______ _______ _______ _____ _____    ______ ____

>  <TORSDO>
F 12

$$$$
=
 OpenBabel10272414563D

 37 40  0  0  1  0  0  0  0  0999 V2000
  193.4650  174.3190  138.1230 O   0  0  0  0  0  0  0  0  0  0  0  0
  190.7160  175.8650  136.1400 C   0  0  0  0  0  2  0  0  0  0  0  0
  196.6660  174.8280  136.2210 C   0  0  0  0  0  3  0  0  0  0  0  0
  192.9690  175.6250  137.9400 C   0  0  2  0  0  3  0  0  0  0  0  0
  195.3470  174.9850  136.6790 C   0  0  0  0  0  0  0  0  0  0  0  0
  191.5600  175.7720  138.5100 C   0  0  2  0  0  3  0  0  0  0  0  0
  195.2870  172.8400  137.9140 C   0  0  0  0  0  1  0  0  0  0  0  0
  194.4740  175.8380  135.9710 C   0  0  0  0  0  0  0  0  0  0  0  0
  196.2180  176.3070  134.3590 C   0  0  0  0  0  3  0  0  0  0  0  0
  194.8810  174.3040  137.9700 C   0  0  2  0  0  0  0  0  0  0  0  0
  194.9110  176.4900  134.8150 C   0  0  0  0  0  3  0  0  0  0  0  0
  190.4980  175.2700  137.5340 C   0  0  0  0  0  2  0  0  0  0  0  0
  193.0750  176.0560  136.4670 C   0  0  1  0  0  3  0  0  0  0  0  0
  197.1040  175.4760  135.0620 C   0  0  0  0  0  0  0  0  0  0  0  0
  192.0270  175.4850  135.5860 N   0  0  0  0  0  0  0  0  0  0  0  0
  198.4200  175.2780  134.6350 O   0  0  0  0  0  0  0  0  0  0  0  0
  199.4460  174.8150  135.5020 C   0  0  0  0  0  1  0  0  0  0  0  0
  196.7390  174.5920  139.4840 C   0  0  0  0  0  2  0  0  0  0  0  0
  195.5360  174.8800  139.1340 N   0  0  0  0  0  0  0  0  0  0  0  0
  192.1370  174.0180  135.3840 C   0  0  2  0  0  3  0  0  0  0  0  0
  193.3930  173.6960  134.8500 O   0  0  0  0  0  0  0  0  0  0  0  0
  194.8060  171.8520  134.3490 C   0  0  0  0  0  1  0  0  0  0  0  0
  193.4240  172.3010  134.7770 C   0  0  0  0  0  2  0  0  0  0  0  0
  191.0450  173.4730  134.4450 C   0  0  0  0  0  2  0  0  0  0  0  0
  190.1140  172.5070  135.1660 C   0  0  0  0  0  2  0  0  0  0  0  0
  188.7120  172.5970  134.5900 C   0  0  0  0  0  2  0  0  0  0  0  0
  187.8520  172.5200  136.9100 C   0  0  0  0  0  1  0  0  0  0  0  0
  187.7160  171.9330  135.5210 C   0  0  0  0  0  2  0  0  0  0  0  0
  191.3060  177.2220  138.9050 C   0  0  0  0  0  2  0  0  0  0  0  0
  189.9540  177.3790  139.5900 C   0  0  0  0  0  2  0  0  0  0  0  0
  191.3920  177.5050  141.6380 C   0  0  0  0  0  3  0  0  0  0  0  0
  190.1140  177.4950  141.0690 C   0  0  0  0  0  0  0  0  0  0  0  0
  188.9830  177.5630  141.8910 C   0  0  0  0  0  3  0  0  0  0  0  0
  188.0370  177.7150  144.0730 F   0  0  0  0  0  0  0  0  0  0  0  0
  190.4090  177.6620  143.8470 C   0  0  0  0  0  3  0  0  0  0  0  0
  189.1310  177.6480  143.2780 C   0  0  0  0  0  0  0  0  0  0  0  0
  191.5400  177.5900  143.0260 C   0  0  0  0  0  3  0  0  0  0  0  0
  2 12  1  0  0  0  0
  3  5  1  0  0  0  0
  4  1  1  6  0  0  0
  4  6  1  0  0  0  0
  5 10  1  0  0  0  0
  6 29  1  6  0  0  0
  8  5  2  0  0  0  0
  9 11  2  0  0  0  0
  9 14  1  0  0  0  0
 10  7  1  6  0  0  0
 10  1  1  0  0  0  0
 10 19  1  0  0  0  0
 11  8  1  0  0  0  0
 12  6  1  0  0  0  0
 13  8  1  6  0  0  0
 13  4  1  0  0  0  0
 14  3  2  0  0  0  0
 15  2  1  0  0  0  0
 15 13  1  0  0  0  0
 16 14  1  0  0  0  0
 16 17  1  0  0  0  0
 19 18  2  0  0  0  0
 20 24  1  6  0  0  0
 20 15  1  0  0  0  0
 21 20  1  0  0  0  0
 22 23  1  0  0  0  0
 23 21  1  0  0  0  0
 24 25  1  0  0  0  0
 26 25  1  0  0  0  0
 26 28  1  0  0  0  0
 28 27  1  0  0  0  0
 29 30  1  0  0  0  0
 30 32  1  0  0  0  0
 31 37  1  0  0  0  0
 32 31  2  0  0  0  0
 32 33  1  0  0  0  0
 33 36  2  0  0  0  0
 36 35  1  0  0  0  0
 36 34  1  0  0  0  0
 37 35  2  0  0  0  0
M  END
>  <MODEL>
3

>  <REMARK>
 VINA RESULT:      -4.9      3.262      7.153
  Name = 
  12 active torsions:
  status: ('A' for Active; 'I' for Inactive)
    1  A    between atoms: C_1  and  O_5
    2  A    between atoms: C_1  and  C_33
    3  A    between atoms: C_1  and  N_36
    4  A    between atoms: O_3  and  C_32
    5  A    between atoms: O_5  and  C_23
    6  A    between atoms: C_6  and  C_31
    7  A    between atoms: C_14  and  C_37
    8  A    between atoms: C_17  and  C_26
    9  A    between atoms: C_17  and  C_33
   10  A    between atoms: C_24  and  N_28
   11  A    between atoms: C_26  and  C_34
   12  A    between atoms: C_31  and  C_37
                            x       y       z     vdW  Elec       q    Type
                         _______ _______ _______ _____ _____    ______ ____

>  <TORSDO>
F 12

$$$$
=
 OpenBabel10272414563D

 37 40  0  0  1  0  0  0  0  0999 V2000
  190.3620  174.8060  137.7150 O   0  0  0  0  0  0  0  0  0  0  0  0
  192.0910  177.6180  139.4440 C   0  0  0  0  0  2  0  0  0  0  0  0
  187.1650  176.1530  136.2700 C   0  0  0  0  0  3  0  0  0  0  0  0
  191.1770  175.8840  137.3150 C   0  0  2  0  0  3  0  0  0  0  0  0
  188.4670  176.0830  136.7940 C   0  0  0  0  0  0  0  0  0  0  0  0
  192.6000  175.7370  137.8490 C   0  0  2  0  0  3  0  0  0  0  0  0
  188.2670  173.7390  137.5670 C   0  0  0  0  0  1  0  0  0  0  0  0
  189.1230  177.2780  137.1580 C   0  0  0  0  0  0  0  0  0  0  0  0
  187.1690  178.5580  136.5230 C   0  0  0  0  0  3  0  0  0  0  0  0
  189.1960  174.7390  136.8990 C   0  0  2  0  0  0  0  0  0  0  0  0
  188.4710  178.5070  137.0250 C   0  0  0  0  0  3  0  0  0  0  0  0
  192.7190  176.2290  139.2900 C   0  0  0  0  0  2  0  0  0  0  0  0
  190.5290  177.2320  137.6770 C   0  0  1  0  0  3  0  0  0  0  0  0
  186.5100  177.3800  136.1410 C   0  0  0  0  0  0  0  0  0  0  0  0
  190.6570  177.6070  139.1060 N   0  0  0  0  0  0  0  0  0  0  0  0
  185.2090  177.4010  135.6290 O   0  0  0  0  0  0  0  0  0  0  0  0
  184.2340  176.4260  135.9740 C   0  0  0  0  0  1  0  0  0  0  0  0
  189.4910  172.9550  135.3000 C   0  0  0  0  0  2  0  0  0  0  0  0
  189.5140  174.2100  135.5830 N   0  0  0  0  0  0  0  0  0  0  0  0
  189.8790  176.7450  140.0320 C   0  0  2  0  0  3  0  0  0  0  0  0
  188.5320  177.1310  140.0350 O   0  0  0  0  0  0  0  0  0  0  0  0
  187.0990  178.7110  141.0850 C   0  0  0  0  0  1  0  0  0  0  0  0
  188.5060  178.4020  140.6160 C   0  0  0  0  0  2  0  0  0  0  0  0
  190.4140  176.8030  141.4750 C   0  0  0  0  0  2  0  0  0  0  0  0
  189.5760  175.9500  142.4190 C   0  0  0  0  0  2  0  0  0  0  0  0
  189.5780  176.5500  143.8140 C   0  0  0  0  0  2  0  0  0  0  0  0
  188.2030  177.5940  145.5880 C   0  0  0  0  0  1  0  0  0  0  0  0
  188.1930  177.0540  144.1730 C   0  0  0  0  0  2  0  0  0  0  0  0
  193.5780  176.4640  136.9340 C   0  0  0  0  0  2  0  0  0  0  0  0
  194.1610  175.5220  135.8890 C   0  0  0  0  0  2  0  0  0  0  0  0
  194.3020  173.1190  136.5860 C   0  0  0  0  0  3  0  0  0  0  0  0
  194.8860  174.3890  136.5350 C   0  0  0  0  0  0  0  0  0  0  0  0
  196.1400  174.6040  137.1190 C   0  0  0  0  0  3  0  0  0  0  0  0
  198.0230  173.7580  138.3090 F   0  0  0  0  0  0  0  0  0  0  0  0
  196.2270  172.2790  137.7930 C   0  0  0  0  0  3  0  0  0  0  0  0
  196.8090  173.5500  137.7460 C   0  0  0  0  0  0  0  0  0  0  0  0
  194.9720  172.0640  137.2130 C   0  0  0  0  0  3  0  0  0  0  0  0
  3  5  1  0  0  0  0
  4 13  1  0  0  0  0
  4  1  1  1  0  0  0
  4  6  1  0  0  0  0
  5 10  1  0  0  0  0
  5  8  2  0  0  0  0
  6 29  1  6  0  0  0
  6 12  1  0  0  0  0
  9 11  2  0  0  0  0
 10  7  1  1  0  0  0
 10  1  1  0  0  0  0
 11  8  1  0  0  0  0
 12  2  1  0  0  0  0
 13  8  1  1  0  0  0
 13 15  1  0  0  0  0
 14  3  2  0  0  0  0
 14  9  1  0  0  0  0
 15  2  1  0  0  0  0
 15 20  1  0  0  0  0
 16 17  1  0  0  0  0
 16 14  1  0  0  0  0
 18 19  2  0  0  0  0
 19 10  1  0  0  0  0
 20 21  1  0  0  0  0
 20 24  1  1  0  0  0
 21 23  1  0  0  0  0
 23 22  1  0  0  0  0
 24 25  1  0  0  0  0
 25 26  1  0  0  0  0
 26 28  1  0  0  0  0
 28 27  1  0  0  0  0
 30 32  1  0  0  0  0
 30 29  1  0  0  0  0
 31 37  1  0  0  0  0
 32 31  2  0  0  0  0
 32 33  1  0  0  0  0
 33 36  2  0  0  0  0
 36 35  1  0  0  0  0
 36 34  1  0  0  0  0
 37 35  2  0  0  0  0
M  END
>  <MODEL>
4

>  <REMARK>
 VINA RESULT:      -4.8      2.926      7.084
  Name = 
  12 active torsions:
  status: ('A' for Active; 'I' for Inactive)
    1  A    between atoms: C_1  and  O_5
    2  A    between atoms: C_1  and  C_33
    3  A    between atoms: C_1  and  N_36
    4  A    between atoms: O_3  and  C_32
    5  A    between atoms: O_5  and  C_23
    6  A    between atoms: C_6  and  C_31
    7  A    between atoms: C_14  and  C_37
    8  A    between atoms: C_17  and  C_26
    9  A    between atoms: C_17  and  C_33
   10  A    between atoms: C_24  and  N_28
   11  A    between atoms: C_26  and  C_34
   12  A    between atoms: C_31  and  C_37
                            x       y       z     vdW  Elec       q    Type
                         _______ _______ _______ _____ _____    ______ ____

>  <TORSDO>
F 12

$$$$
=
 OpenBabel10272414563D

 37 40  0  0  1  0  0  0  0  0999 V2000
  188.5430  178.4770  138.5910 O   0  0  0  0  0  0  0  0  0  0  0  0
  191.1560  176.1240  139.8220 C   0  0  0  0  0  2  0  0  0  0  0  0
  186.4230  176.6240  136.1040 C   0  0  0  0  0  3  0  0  0  0  0  0
  188.5950  177.4440  139.5470 C   0  0  2  0  0  3  0  0  0  0  0  0
  187.3040  176.8980  137.1630 C   0  0  0  0  0  0  0  0  0  0  0  0
  189.5110  177.8090  140.7140 C   0  0  2  0  0  3  0  0  0  0  0  0
  187.5830  179.2940  136.6000 C   0  0  0  0  0  1  0  0  0  0  0  0
  188.0420  175.8390  137.7300 C   0  0  0  0  0  0  0  0  0  0  0  0
  187.0540  174.2890  136.1550 C   0  0  0  0  0  3  0  0  0  0  0  0
  187.4080  178.3110  137.7470 C   0  0  2  0  0  0  0  0  0  0  0  0
  187.9180  174.5430  137.2220 C   0  0  0  0  0  3  0  0  0  0  0  0
  190.9780  177.5350  140.3910 C   0  0  0  0  0  2  0  0  0  0  0  0
  188.9560  176.1000  138.8910 C   0  0  1  0  0  3  0  0  0  0  0  0
  186.3000  175.3290  135.5910 C   0  0  0  0  0  0  0  0  0  0  0  0
  190.3960  175.9410  138.5740 N   0  0  0  0  0  0  0  0  0  0  0  0
  185.4220  175.1050  134.5260 O   0  0  0  0  0  0  0  0  0  0  0  0
  184.4200  174.0980  134.5580 C   0  0  0  0  0  1  0  0  0  0  0  0
  185.0150  178.3070  138.0640 C   0  0  0  0  0  2  0  0  0  0  0  0
  186.1860  178.6840  138.4410 N   0  0  0  0  0  0  0  0  0  0  0  0
  190.8820  176.8380  137.4950 C   0  0  2  0  0  3  0  0  0  0  0  0
  190.0140  176.7860  136.3950 O   0  0  0  0  0  0  0  0  0  0  0  0
  190.1850  175.2850  134.5590 C   0  0  0  0  0  1  0  0  0  0  0  0
  190.8140  176.4470  135.3010 C   0  0  0  0  0  2  0  0  0  0  0  0
  192.3010  176.4710  137.0240 C   0  0  0  0  0  2  0  0  0  0  0  0
  192.7250  175.0980  137.5320 C   0  0  0  0  0  2  0  0  0  0  0  0
  194.1460  174.7900  137.0970 C   0  0  0  0  0  2  0  0  0  0  0  0
  195.6570  174.6100  139.0480 C   0  0  0  0  0  1  0  0  0  0  0  0
  194.8010  173.8310  138.0730 C   0  0  0  0  0  2  0  0  0  0  0  0
  189.0750  177.0660  141.9720 C   0  0  0  0  0  2  0  0  0  0  0  0
  189.6200  177.7370  143.2260 C   0  0  0  0  0  2  0  0  0  0  0  0
  187.2560  177.6720  144.0540 C   0  0  0  0  0  3  0  0  0  0  0  0
  188.6260  177.6820  144.3370 C   0  0  0  0  0  0  0  0  0  0  0  0
  189.0640  177.6710  145.6670 C   0  0  0  0  0  3  0  0  0  0  0  0
  188.5570  177.6310  147.9950 F   0  0  0  0  0  0  0  0  0  0  0  0
  186.7640  177.6290  146.4250 C   0  0  0  0  0  3  0  0  0  0  0  0
  188.1330  177.6430  146.7090 C   0  0  0  0  0  0  0  0  0  0  0  0
  186.3260  177.6440  145.0970 C   0  0  0  0  0  3  0  0  0  0  0  0
  2 12  1  0  0  0  0
  3  5  1  0  0  0  0
  4  1  1  6  0  0  0
  4  6  1  0  0  0  0
  5  8  2  0  0  0  0
  5 10  1  0  0  0  0
  6 29  1  1  0  0  0
  9 11  2  0  0  0  0
 10  7  1  6  0  0  0
 10 19  1  0  0  0  0
 10  1  1  0  0  0  0
 11  8  1  0  0  0  0
 12  6  1  0  0  0  0
 13  8  1  6  0  0  0
 13  4  1  0  0  0  0
 14  3  2  0  0  0  0
 14  9  1  0  0  0  0
 15 13  1  0  0  0  0
 15  2  1  0  0  0  0
 16 17  1  0  0  0  0
 16 14  1  0  0  0  0
 18 19  2  0  0  0  0
 20 24  1  6  0  0  0
 20 15  1  0  0  0  0
 21 20  1  0  0  0  0
 22 23  1  0  0  0  0
 23 21  1  0  0  0  0
 24 25  1  0  0  0  0
 26 25  1  0  0  0  0
 26 28  1  0  0  0  0
 28 27  1  0  0  0  0
 29 30  1  0  0  0  0
 30 32  1  0  0  0  0
 31 32  2  0  0  0  0
 31 37  1  0  0  0  0
 32 33  1  0  0  0  0
 33 36  2  0  0  0  0
 35 36  1  0  0  0  0
 36 34  1  0  0  0  0
 37 35  2  0  0  0  0
M  END
>  <MODEL>
5

>  <REMARK>
 VINA RESULT:      -4.7      1.640      2.467
  Name = 
  12 active torsions:
  status: ('A' for Active; 'I' for Inactive)
    1  A    between atoms: C_1  and  O_5
    2  A    between atoms: C_1  and  C_33
    3  A    between atoms: C_1  and  N_36
    4  A    between atoms: O_3  and  C_32
    5  A    between atoms: O_5  and  C_23
    6  A    between atoms: C_6  and  C_31
    7  A    between atoms: C_14  and  C_37
    8  A    between atoms: C_17  and  C_26
    9  A    between atoms: C_17  and  C_33
   10  A    between atoms: C_24  and  N_28
   11  A    between atoms: C_26  and  C_34
   12  A    between atoms: C_31  and  C_37
                            x       y       z     vdW  Elec       q    Type
                         _______ _______ _______ _____ _____    ______ ____

>  <TORSDO>
F 12

$$$$
=
 OpenBabel10272414563D

 37 40  0  0  1  0  0  0  0  0999 V2000
  188.6740  173.9600  137.0030 O   0  0  0  0  0  0  0  0  0  0  0  0
  191.3070  176.5490  137.5050 C   0  0  0  0  0  2  0  0  0  0  0  0
  185.7570  175.6170  135.3110 C   0  0  0  0  0  3  0  0  0  0  0  0
  189.6710  174.5490  136.2010 C   0  0  2  0  0  3  0  0  0  0  0  0
  187.0580  175.3490  135.7650 C   0  0  0  0  0  0  0  0  0  0  0  0
  191.0700  174.1790  136.6870 C   0  0  2  0  0  3  0  0  0  0  0  0
  186.3760  173.5730  137.3500 C   0  0  0  0  0  1  0  0  0  0  0  0
  188.0470  176.3460  135.6370 C   0  0  0  0  0  0  0  0  0  0  0  0
  186.4190  177.8520  134.6660 C   0  0  0  0  0  3  0  0  0  0  0  0
  187.4230  173.9680  136.3220 C   0  0  2  0  0  0  0  0  0  0  0  0
  187.7230  177.5920  135.0930 C   0  0  0  0  0  3  0  0  0  0  0  0
  191.5240  175.0710  137.8420 C   0  0  0  0  0  2  0  0  0  0  0  0
  189.4550  176.0670  136.0740 C   0  0  1  0  0  3  0  0  0  0  0  0
  185.4290  176.8640  134.7710 C   0  0  0  0  0  0  0  0  0  0  0  0
  189.8850  176.8470  137.2590 N   0  0  0  0  0  0  0  0  0  0  0  0
  184.1170  177.0920  134.3460 O   0  0  0  0  0  0  0  0  0  0  0  0
  183.0340  177.2550  135.2520 C   0  0  0  0  0  1  0  0  0  0  0  0
  186.6640  171.9000  135.3350 C   0  0  0  0  0  2  0  0  0  0  0  0
  187.3950  172.9560  135.2780 N   0  0  0  0  0  0  0  0  0  0  0  0
  189.0560  176.6180  138.4700 C   0  0  2  0  0  3  0  0  0  0  0  0
  187.7020  176.8270  138.1750 O   0  0  0  0  0  0  0  0  0  0  0  0
  185.9440  178.4100  138.4090 C   0  0  0  0  0  1  0  0  0  0  0  0
  187.3770  178.0590  138.7490 C   0  0  0  0  0  2  0  0  0  0  0  0
  189.4570  177.5400  139.6360 C   0  0  0  0  0  2  0  0  0  0  0  0
  189.9500  176.7440  140.8380 C   0  0  0  0  0  2  0  0  0  0  0  0
  189.4090  177.3410  142.1250 C   0  0  0  0  0  2  0  0  0  0  0  0
  187.9380  176.9130  144.0690 C   0  0  0  0  0  1  0  0  0  0  0  0
  188.7600  176.2650  142.9750 C   0  0  0  0  0  2  0  0  0  0  0  0
  192.0570  174.2320  135.5270 C   0  0  0  0  0  2  0  0  0  0  0  0
  192.6840  172.8670  135.2720 C   0  0  0  0  0  2  0  0  0  0  0  0
  194.2720  171.3930  136.5320 C   0  0  0  0  0  3  0  0  0  0  0  0
  193.9050  172.6750  136.1090 C   0  0  0  0  0  0  0  0  0  0  0  0
  194.6680  173.7830  136.4960 C   0  0  0  0  0  3  0  0  0  0  0  0
  196.5370  174.6790  137.6720 F   0  0  0  0  0  0  0  0  0  0  0  0
  196.1670  172.3250  137.7180 C   0  0  0  0  0  3  0  0  0  0  0  0
  195.7980  173.6070  137.2990 C   0  0  0  0  0  0  0  0  0  0  0  0
  195.4020  171.2170  137.3350 C   0  0  0  0  0  3  0  0  0  0  0  0
  2 12  1  0  0  0  0
  3  5  1  0  0  0  0
  4  6  1  0  0  0  0
  4  1  1  1  0  0  0
  5 10  1  0  0  0  0
  6 29  1  6  0  0  0
  6 12  1  0  0  0  0
  8  5  2  0  0  0  0
  9 14  1  0  0  0  0
  9 11  2  0  0  0  0
 10  1  1  0  0  0  0
 10  7  1  1  0  0  0
 11  8  1  0  0  0  0
 13  8  1  1  0  0  0
 13  4  1  0  0  0  0
 13 15  1  0  0  0  0
 14  3  2  0  0  0  0
 15  2  1  0  0  0  0
 15 20  1  0  0  0  0
 16 14  1  0  0  0  0
 16 17  1  0  0  0  0
 19 18  2  0  0  0  0
 19 10  1  0  0  0  0
 20 24  1  1  0  0  0
 21 20  1  0  0  0  0
 21 23  1  0  0  0  0
 22 23  1  0  0  0  0
 24 25  1  0  0  0  0
 25 26  1  0  0  0  0
 26 28  1  0  0  0  0
 28 27  1  0  0  0  0
 30 29  1  0  0  0  0
 30 32  1  0  0  0  0
 31 37  1  0  0  0  0
 32 33  1  0  0  0  0
 32 31  2  0  0  0  0
 33 36  2  0  0  0  0
 36 34  1  0  0  0  0
 36 35  1  0  0  0  0
 37 35  2  0  0  0  0
M  END
>  <MODEL>
6

>  <REMARK>
 VINA RESULT:      -4.7      2.755      6.680
  Name = 
  12 active torsions:
  status: ('A' for Active; 'I' for Inactive)
    1  A    between atoms: C_1  and  O_5
    2  A    between atoms: C_1  and  C_33
    3  A    between atoms: C_1  and  N_36
    4  A    between atoms: O_3  and  C_32
    5  A    between atoms: O_5  and  C_23
    6  A    between atoms: C_6  and  C_31
    7  A    between atoms: C_14  and  C_37
    8  A    between atoms: C_17  and  C_26
    9  A    between atoms: C_17  and  C_33
   10  A    between atoms: C_24  and  N_28
   11  A    between atoms: C_26  and  C_34
   12  A    between atoms: C_31  and  C_37
                            x       y       z     vdW  Elec       q    Type
                         _______ _______ _______ _____ _____    ______ ____

>  <TORSDO>
F 12

$$$$
=
 OpenBabel10272414563D

 37 40  0  0  1  0  0  0  0  0999 V2000
  187.9400  176.4080  142.0080 O   0  0  0  0  0  0  0  0  0  0  0  0
  188.8420  178.9340  139.4210 C   0  0  0  0  0  2  0  0  0  0  0  0
  190.3660  176.7790  144.8540 C   0  0  0  0  0  3  0  0  0  0  0  0
  187.7090  177.7860  141.8240 C   0  0  2  0  0  3  0  0  0  0  0  0
  189.5940  177.0600  143.7150 C   0  0  0  0  0  0  0  0  0  0  0  0
  186.8110  178.0450  140.6160 C   0  0  2  0  0  3  0  0  0  0  0  0
  188.8880  174.7150  143.3450 C   0  0  0  0  0  1  0  0  0  0  0  0
  189.8730  178.2240  142.9690 C   0  0  0  0  0  0  0  0  0  0  0  0
  191.6970  178.7610  144.4680 C   0  0  0  0  0  3  0  0  0  0  0  0
  188.4150  176.1600  143.3280 C   0  0  2  0  0  0  0  0  0  0  0  0
  190.9240  179.0650  143.3450 C   0  0  0  0  0  3  0  0  0  0  0  0
  187.6030  178.0400  139.3100 C   0  0  0  0  0  2  0  0  0  0  0  0
  189.0330  178.5680  141.7750 C   0  0  1  0  0  3  0  0  0  0  0  0
  191.4200  177.6160  145.2290 C   0  0  0  0  0  0  0  0  0  0  0  0
  189.7530  178.4700  140.4820 N   0  0  0  0  0  0  0  0  0  0  0  0
  192.1720  177.2900  146.3620 O   0  0  0  0  0  0  0  0  0  0  0  0
  191.9760  176.0860  147.0920 C   0  0  0  0  0  1  0  0  0  0  0  0
  187.2990  177.1530  145.2240 C   0  0  0  0  0  2  0  0  0  0  0  0
  187.3350  176.2630  144.2960 N   0  0  0  0  0  0  0  0  0  0  0  0
  190.2970  177.1200  140.1910 C   0  0  2  0  0  3  0  0  0  0  0  0
  191.5090  176.9300  140.8690 O   0  0  0  0  0  0  0  0  0  0  0  0
  193.8250  177.0390  140.3450 C   0  0  0  0  0  1  0  0  0  0  0  0
  192.4590  177.6650  140.1550 C   0  0  0  0  0  2  0  0  0  0  0  0
  190.5320  176.8950  138.6860 C   0  0  0  0  0  2  0  0  0  0  0  0
  190.5230  175.4130  138.3310 C   0  0  0  0  0  2  0  0  0  0  0  0
  191.8330  175.0220  137.6700 C   0  0  0  0  0  2  0  0  0  0  0  0
  193.7990  176.1040  136.6280 C   0  0  0  0  0  1  0  0  0  0  0  0
  192.2880  176.1080  136.7150 C   0  0  0  0  0  2  0  0  0  0  0  0
  186.0560  179.3550  140.7990 C   0  0  0  0  0  2  0  0  0  0  0  0
  184.5500  179.1260  140.8150 C   0  0  0  0  0  2  0  0  0  0  0  0
  182.6820  178.7910  142.4520 C   0  0  0  0  0  3  0  0  0  0  0  0
  184.0320  179.0710  142.2140 C   0  0  0  0  0  0  0  0  0  0  0  0
  184.8910  179.3320  143.2870 C   0  0  0  0  0  3  0  0  0  0  0  0
  185.2350  179.5540  145.6350 F   0  0  0  0  0  0  0  0  0  0  0  0
  183.0540  179.0190  144.8350 C   0  0  0  0  0  3  0  0  0  0  0  0
  184.4030  179.3040  144.5960 C   0  0  0  0  0  0  0  0  0  0  0  0
  182.1940  178.7630  143.7620 C   0  0  0  0  0  3  0  0  0  0  0  0
  1 10  1  0  0  0  0
  2 15  1  0  0  0  0
  3 14  1  0  0  0  0
  4  1  1  6  0  0  0
  5  3  2  0  0  0  0
  6 29  1  1  0  0  0
  6  4  1  0  0  0  0
  8 11  2  0  0  0  0
  8  5  1  0  0  0  0
  9 14  2  0  0  0  0
 10  7  1  1  0  0  0
 10  5  1  0  0  0  0
 10 19  1  0  0  0  0
 11  9  1  0  0  0  0
 12  2  1  0  0  0  0
 12  6  1  0  0  0  0
 13  4  1  0  0  0  0
 13  8  1  1  0  0  0
 14 16  1  0  0  0  0
 15 13  1  0  0  0  0
 16 17  1  0  0  0  0
 19 18  2  0  0  0  0
 20 24  1  6  0  0  0
 20 15  1  0  0  0  0
 20 21  1  0  0  0  0
 23 22  1  0  0  0  0
 23 21  1  0  0  0  0
 25 24  1  0  0  0  0
 26 25  1  0  0  0  0
 27 28  1  0  0  0  0
 28 26  1  0  0  0  0
 29 30  1  0  0  0  0
 30 32  1  0  0  0  0
 31 37  1  0  0  0  0
 32 31  2  0  0  0  0
 32 33  1  0  0  0  0
 33 36  2  0  0  0  0
 36 35  1  0  0  0  0
 36 34  1  0  0  0  0
 37 35  2  0  0  0  0
M  END
>  <MODEL>
7

>  <REMARK>
 VINA RESULT:      -4.0      3.723      7.249
  Name = 
  12 active torsions:
  status: ('A' for Active; 'I' for Inactive)
    1  A    between atoms: C_1  and  O_5
    2  A    between atoms: C_1  and  C_33
    3  A    between atoms: C_1  and  N_36
    4  A    between atoms: O_3  and  C_32
    5  A    between atoms: O_5  and  C_23
    6  A    between atoms: C_6  and  C_31
    7  A    between atoms: C_14  and  C_37
    8  A    between atoms: C_17  and  C_26
    9  A    between atoms: C_17  and  C_33
   10  A    between atoms: C_24  and  N_28
   11  A    between atoms: C_26  and  C_34
   12  A    between atoms: C_31  and  C_37
                            x       y       z     vdW  Elec       q    Type
                         _______ _______ _______ _____ _____    ______ ____

>  <TORSDO>
F 12

$$$$
=
 OpenBabel10272414563D

 37 40  0  0  1  0  0  0  0  0999 V2000
  187.9600  176.4320  141.9490 O   0  0  0  0  0  0  0  0  0  0  0  0
  188.9260  178.9240  139.3530 C   0  0  0  0  0  2  0  0  0  0  0  0
  190.2820  176.8750  144.8700 C   0  0  0  0  0  3  0  0  0  0  0  0
  187.7220  177.8040  141.7340 C   0  0  2  0  0  3  0  0  0  0  0  0
  189.5470  177.1290  143.7010 C   0  0  0  0  0  0  0  0  0  0  0  0
  186.8640  178.0340  140.4910 C   0  0  2  0  0  3  0  0  0  0  0  0
  188.8780  174.7710  143.3460 C   0  0  0  0  0  1  0  0  0  0  0  0
  189.8410  178.2830  142.9450 C   0  0  0  0  0  0  0  0  0  0  0  0
  191.6060  178.8650  144.4970 C   0  0  0  0  0  3  0  0  0  0  0  0
  188.3920  176.2100  143.2880 C   0  0  2  0  0  0  0  0  0  0  0  0
  190.8690  179.1420  143.3440 C   0  0  0  0  0  3  0  0  0  0  0  0
  187.7010  178.0160  139.2130 C   0  0  0  0  0  2  0  0  0  0  0  0
  189.0390  178.5990  141.7170 C   0  0  1  0  0  3  0  0  0  0  0  0
  191.3140  177.7290  145.2680 C   0  0  0  0  0  0  0  0  0  0  0  0
  189.8040  178.4880  140.4520 N   0  0  0  0  0  0  0  0  0  0  0  0
  192.0290  177.4290  146.4310 O   0  0  0  0  0  0  0  0  0  0  0  0
  191.9510  176.1640  147.0740 C   0  0  0  0  0  1  0  0  0  0  0  0
  187.2250  177.1890  145.1610 C   0  0  0  0  0  2  0  0  0  0  0  0
  187.2780  176.3180  144.2170 N   0  0  0  0  0  0  0  0  0  0  0  0
  190.3710  177.1380  140.2020 C   0  0  2  0  0  3  0  0  0  0  0  0
  191.5540  176.9670  140.9360 O   0  0  0  0  0  0  0  0  0  0  0  0
  193.8510  176.9150  140.3260 C   0  0  0  0  0  1  0  0  0  0  0  0
  192.5380  177.6650  140.2320 C   0  0  0  0  0  2  0  0  0  0  0  0
  190.6750  176.8970  138.7120 C   0  0  0  0  0  2  0  0  0  0  0  0
  190.5060  175.4310  138.3340 C   0  0  0  0  0  2  0  0  0  0  0  0
  191.7300  174.9350  137.5860 C   0  0  0  0  0  2  0  0  0  0  0  0
  193.8810  175.8270  136.7500 C   0  0  0  0  0  1  0  0  0  0  0  0
  192.3910  176.0770  136.8390 C   0  0  0  0  0  2  0  0  0  0  0  0
  186.0900  179.3390  140.6260 C   0  0  0  0  0  2  0  0  0  0  0  0
  184.5920  179.0830  140.7340 C   0  0  0  0  0  2  0  0  0  0  0  0
  185.0420  179.4890  143.1660 C   0  0  0  0  0  3  0  0  0  0  0  0
  184.1430  179.1260  142.1570 C   0  0  0  0  0  0  0  0  0  0  0  0
  182.8290  178.7740  142.4860 C   0  0  0  0  0  3  0  0  0  0  0  0
  181.1430  178.4520  144.1380 F   0  0  0  0  0  0  0  0  0  0  0  0
  183.3120  179.1570  144.8290 C   0  0  0  0  0  3  0  0  0  0  0  0
  182.4150  178.7910  143.8200 C   0  0  0  0  0  0  0  0  0  0  0  0
  184.6270  179.5060  144.5000 C   0  0  0  0  0  3  0  0  0  0  0  0
  1 10  1  0  0  0  0
  2 15  1  0  0  0  0
  3 14  1  0  0  0  0
  4  1  1  6  0  0  0
  5  3  2  0  0  0  0
  6 29  1  1  0  0  0
  6  4  1  0  0  0  0
  8 11  2  0  0  0  0
  8  5  1  0  0  0  0
  9 14  2  0  0  0  0
 10  7  1  1  0  0  0
 10  5  1  0  0  0  0
 10 19  1  0  0  0  0
 11  9  1  0  0  0  0
 12  2  1  0  0  0  0
 12  6  1  0  0  0  0
 13  4  1  0  0  0  0
 13  8  1  1  0  0  0
 14 16  1  0  0  0  0
 15 13  1  0  0  0  0
 16 17  1  0  0  0  0
 19 18  2  0  0  0  0
 20 24  1  6  0  0  0
 20 15  1  0  0  0  0
 20 21  1  0  0  0  0
 23 22  1  0  0  0  0
 23 21  1  0  0  0  0
 25 24  1  0  0  0  0
 26 25  1  0  0  0  0
 27 28  1  0  0  0  0
 28 26  1  0  0  0  0
 29 30  1  0  0  0  0
 30 32  1  0  0  0  0
 31 37  1  0  0  0  0
 32 33  1  0  0  0  0
 32 31  2  0  0  0  0
 33 36  2  0  0  0  0
 36 34  1  0  0  0  0
 36 35  1  0  0  0  0
 37 35  2  0  0  0  0
M  END
>  <MODEL>
8

>  <REMARK>
 VINA RESULT:      -4.0      3.794      7.214
  Name = 
  12 active torsions:
  status: ('A' for Active; 'I' for Inactive)
    1  A    between atoms: C_1  and  O_5
    2  A    between atoms: C_1  and  C_33
    3  A    between atoms: C_1  and  N_36
    4  A    between atoms: O_3  and  C_32
    5  A    between atoms: O_5  and  C_23
    6  A    between atoms: C_6  and  C_31
    7  A    between atoms: C_14  and  C_37
    8  A    between atoms: C_17  and  C_26
    9  A    between atoms: C_17  and  C_33
   10  A    between atoms: C_24  and  N_28
   11  A    between atoms: C_26  and  C_34
   12  A    between atoms: C_31  and  C_37
                            x       y       z     vdW  Elec       q    Type
                         _______ _______ _______ _____ _____    ______ ____

>  <TORSDO>
F 12

$$$$
=
 OpenBabel10272414563D

 37 40  0  0  1  0  0  0  0  0999 V2000
  187.9020  176.4110  141.9940 O   0  0  0  0  0  0  0  0  0  0  0  0
  188.8280  178.9240  139.4040 C   0  0  0  0  0  2  0  0  0  0  0  0
  190.3040  176.7920  144.8590 C   0  0  0  0  0  3  0  0  0  0  0  0
  187.6740  177.7870  141.8020 C   0  0  2  0  0  3  0  0  0  0  0  0
  189.5420  177.0690  143.7120 C   0  0  0  0  0  0  0  0  0  0  0  0
  186.7860  178.0410  140.5850 C   0  0  2  0  0  3  0  0  0  0  0  0
  188.8370  174.7230  143.3470 C   0  0  0  0  0  1  0  0  0  0  0  0
  189.8280  178.2290  142.9630 C   0  0  0  0  0  0  0  0  0  0  0  0
  191.6390  178.7720  144.4740 C   0  0  0  0  0  3  0  0  0  0  0  0
  188.3660  176.1680  143.3190 C   0  0  2  0  0  0  0  0  0  0  0  0
  190.8760  179.0710  143.3440 C   0  0  0  0  0  3  0  0  0  0  0  0
  187.5890  178.0300  139.2860 C   0  0  0  0  0  2  0  0  0  0  0  0
  188.9980  178.5680  141.7600 C   0  0  1  0  0  3  0  0  0  0  0  0
  191.3560  177.6310  145.2390 C   0  0  0  0  0  0  0  0  0  0  0  0
  189.7290  178.4640  140.4740 N   0  0  0  0  0  0  0  0  0  0  0  0
  192.0970  177.3090  146.3790 O   0  0  0  0  0  0  0  0  0  0  0  0
  191.9820  176.0560  147.0410 C   0  0  0  0  0  1  0  0  0  0  0  0
  187.2430  177.1590  145.2120 C   0  0  0  0  0  2  0  0  0  0  0  0
  187.2780  176.2760  144.2780 N   0  0  0  0  0  0  0  0  0  0  0  0
  190.2740  177.1120  140.1940 C   0  0  2  0  0  3  0  0  0  0  0  0
  191.4450  176.8990  140.9350 O   0  0  0  0  0  0  0  0  0  0  0  0
  193.7320  176.9140  140.2870 C   0  0  0  0  0  1  0  0  0  0  0  0
  192.4270  177.6810  140.3210 C   0  0  0  0  0  2  0  0  0  0  0  0
  190.5900  176.9060  138.7010 C   0  0  0  0  0  2  0  0  0  0  0  0
  190.1790  175.5170  138.2260 C   0  0  0  0  0  2  0  0  0  0  0  0
  189.5500  175.5970  136.8470 C   0  0  0  0  0  2  0  0  0  0  0  0
  188.4160  177.4580  135.6740 C   0  0  0  0  0  1  0  0  0  0  0  0
  189.7280  176.9860  136.2640 C   0  0  0  0  0  2  0  0  0  0  0  0
  186.0300  179.3540  140.7560 C   0  0  0  0  0  2  0  0  0  0  0  0
  184.5240  179.1230  140.7850 C   0  0  0  0  0  2  0  0  0  0  0  0
  182.6720  178.7880  142.4390 C   0  0  0  0  0  3  0  0  0  0  0  0
  184.0170  179.0810  142.1880 C   0  0  0  0  0  0  0  0  0  0  0  0
  184.8810  179.3660  143.2520 C   0  0  0  0  0  3  0  0  0  0  0  0
  185.2380  179.6250  145.5940 F   0  0  0  0  0  0  0  0  0  0  0  0
  183.0580  179.0540  144.8160 C   0  0  0  0  0  3  0  0  0  0  0  0
  184.4010  179.3510  144.5640 C   0  0  0  0  0  0  0  0  0  0  0  0
  182.1930  178.7730  143.7530 C   0  0  0  0  0  3  0  0  0  0  0  0
  1 10  1  0  0  0  0
  2 15  1  0  0  0  0
  3 14  1  0  0  0  0
  4  1  1  6  0  0  0
  5  3  2  0  0  0  0
  6 29  1  1  0  0  0
  6  4  1  0  0  0  0
  8 11  2  0  0  0  0
  8  5  1  0  0  0  0
  9 14  2  0  0  0  0
 10  7  1  1  0  0  0
 10  5  1  0  0  0  0
 10 19  1  0  0  0  0
 11  9  1  0  0  0  0
 12  2  1  0  0  0  0
 12  6  1  0  0  0  0
 13  4  1  0  0  0  0
 13  8  1  1  0  0  0
 14 16  1  0  0  0  0
 15 13  1  0  0  0  0
 16 17  1  0  0  0  0
 19 18  2  0  0  0  0
 20 24  1  6  0  0  0
 20 15  1  0  0  0  0
 20 21  1  0  0  0  0
 22 23  1  0  0  0  0
 23 21  1  0  0  0  0
 25 24  1  0  0  0  0
 26 25  1  0  0  0  0
 27 28  1  0  0  0  0
 28 26  1  0  0  0  0
 29 30  1  0  0  0  0
 30 32  1  0  0  0  0
 31 37  1  0  0  0  0
 32 31  2  0  0  0  0
 32 33  1  0  0  0  0
 33 36  2  0  0  0  0
 36 35  1  0  0  0  0
 36 34  1  0  0  0  0
 37 35  2  0  0  0  0
M  END
>  <MODEL>
9

>  <REMARK>
 VINA RESULT:      -3.9      3.593      7.368
  Name = 
  12 active torsions:
  status: ('A' for Active; 'I' for Inactive)
    1  A    between atoms: C_1  and  O_5
    2  A    between atoms: C_1  and  C_33
    3  A    between atoms: C_1  and  N_36
    4  A    between atoms: O_3  and  C_32
    5  A    between atoms: O_5  and  C_23
    6  A    between atoms: C_6  and  C_31
    7  A    between atoms: C_14  and  C_37
    8  A    between atoms: C_17  and  C_26
    9  A    between atoms: C_17  and  C_33
   10  A    between atoms: C_24  and  N_28
   11  A    between atoms: C_26  and  C_34
   12  A    between atoms: C_31  and  C_37
                            x       y       z     vdW  Elec       q    Type
                         _______ _______ _______ _____ _____    ______ ____

>  <TORSDO>
F 12

$$$$
