=
 OpenBabel10272414113D

 43 48  0  0  1  0  0  0  0  0999 V2000
  187.7380  177.7860  149.0470 C   0  0  0  0  0  2  0  0  0  0  0  0
  186.3010  178.2860  144.0650 C   0  0  0  0  0  0  0  0  0  0  0  0
  188.2040  177.0660  142.2900 C   0  0  1  0  0  3  0  0  0  0  0  0
  186.8020  178.5000  146.8320 C   0  0  0  0  0  0  0  0  0  0  0  0
  189.6950  177.8990  147.4060 C   0  0  0  0  0  2  0  0  0  0  0  0
  189.2390  178.0020  148.8610 C   0  0  0  0  0  2  0  0  0  0  0  0
  187.6400  177.6870  146.0230 C   0  0  0  0  0  0  0  0  0  0  0  0
  186.9730  178.6560  148.2180 O   0  0  0  0  0  0  0  0  0  0  0  0
  188.8190  176.9500  146.6000 C   0  0  0  0  0  2  0  0  0  0  0  0
  188.2390  176.6840  143.7720 C   0  0  0  0  0  2  0  0  0  0  0  0
  187.3840  177.5840  144.6390 C   0  0  0  0  0  0  0  0  0  0  0  0
  185.5030  179.1020  144.8740 C   0  0  0  0  0  3  0  0  0  0  0  0
  186.0510  178.1990  142.6490 N   0  0  0  0  0  0  0  0  0  0  0  0
  186.7460  177.1920  141.8490 C   0  0  0  0  0  2  0  0  0  0  0  0
  185.7530  179.2060  146.2390 C   0  0  0  0  0  3  0  0  0  0  0  0
  189.0290  178.3360  142.0060 C   0  0  1  0  0  3  0  0  0  0  0  0
  190.1790  178.4670  142.9920 C   0  0  0  0  0  1  0  0  0  0  0  0
  189.5570  178.4170  140.5700 C   0  0  0  0  0  2  0  0  0  0  0  0
  190.6240  177.3720  140.2820 C   0  0  0  0  0  2  0  0  0  0  0  0
  190.6490  177.0940  138.7940 C   0  0  0  0  0  2  0  0  0  0  0  0
  189.3980  176.3420  138.3940 C   0  0  0  0  0  2  0  0  0  0  0  0
  189.0250  176.6950  136.9580 C   0  0  1  0  0  3  0  0  0  0  0  0
  186.7310  178.3840  136.9730 C   0  0  0  0  0  2  0  0  0  0  0  0
  187.6640  176.1030  136.5450 C   0  0  2  0  0  3  0  0  0  0  0  0
  188.9780  178.2170  136.7910 C   0  0  0  0  0  2  0  0  0  0  0  0
  186.5000  176.8830  137.1700 C   0  0  2  0  0  3  0  0  0  0  0  0
  187.5830  174.7460  136.8700 O   0  0  0  0  0  1  0  0  0  0  0  0
  187.9440  178.7690  137.5720 O   0  0  0  0  0  0  0  0  0  0  0  0
  185.1830  176.4730  136.5800 C   0  0  0  0  0  0  0  0  0  0  0  0
  183.5860  176.5620  134.6560 C   0  0  0  0  0  2  0  0  0  0  0  0
  182.9350  175.2950  136.6800 C   0  0  0  0  0  2  0  0  0  0  0  0
  183.0280  175.2370  135.1630 C   0  0  0  0  0  2  0  0  0  0  0  0
  184.3340  175.4310  137.2810 C   0  0  0  0  0  2  0  0  0  0  0  0
  184.8750  176.9180  135.3500 C   0  0  0  0  0  3  0  0  0  0  0  0
  185.2350  179.2090  141.9720 C   0  0  0  0  0  2  0  0  0  0  0  0
  183.4080  178.7500  138.5630 C   0  0  0  0  0  2  0  0  0  0  0  0
  182.1390  178.0860  139.1290 C   0  0  1  0  0  3  0  0  0  0  0  0
  182.9010  178.3430  141.5110 C   0  0  0  0  0  2  0  0  0  0  0  0
  184.2720  179.4270  139.6340 C   0  0  0  0  0  2  0  0  0  0  0  0
  184.2990  178.6040  140.9240 C   0  0  1  0  0  3  0  0  0  0  0  0
  181.7650  178.6010  140.5190 C   0  0  0  0  0  2  0  0  0  0  0  0
  180.9680  178.1890  138.1550 C   0  0  0  0  0  2  0  0  0  0  0  0
  181.4020  178.6510  136.7710 C   0  0  0  0  0  1  0  0  0  0  0  0
  2 11  2  0  0  0  0
  2 12  1  0  0  0  0
  3 16  1  1  0  0  0
  3 10  1  0  0  0  0
  4  8  1  0  0  0  0
  5  6  1  0  0  0  0
  6  1  1  0  0  0  0
  7  9  1  0  0  0  0
  7  4  2  0  0  0  0
  8  1  1  0  0  0  0
  9  5  1  0  0  0  0
 10 11  1  0  0  0  0
 11  7  1  0  0  0  0
 12 15  2  0  0  0  0
 13  2  1  0  0  0  0
 14  3  1  0  0  0  0
 14 13  1  0  0  0  0
 15  4  1  0  0  0  0
 16 17  1  1  0  0  0
 18 16  1  0  0  0  0
 19 18  1  0  0  0  0
 20 19  1  0  0  0  0
 21 20  1  0  0  0  0
 22 21  1  1  0  0  0
 23 26  1  0  0  0  0
 23 28  1  0  0  0  0
 24 27  1  1  0  0  0
 24 22  1  0  0  0  0
 24 26  1  0  0  0  0
 25 22  1  0  0  0  0
 25 28  1  0  0  0  0
 26 29  1  6  0  0  0
 29 33  1  0  0  0  0
 30 32  1  0  0  0  0
 30 34  1  0  0  0  0
 31 33  1  0  0  0  0
 32 31  1  0  0  0  0
 34 29  2  0  0  0  0
 35 13  1  0  0  0  0
 36 37  1  0  0  0  0
 36 39  1  0  0  0  0
 37 42  1  6  0  0  0
 37 41  1  0  0  0  0
 39 40  1  0  0  0  0
 40 38  1  0  0  0  0
 40 35  1  1  0  0  0
 41 38  1  0  0  0  0
 43 42  1  0  0  0  0
M  END
>  <MODEL>
1

>  <REMARK>
 VINA RESULT:      -7.4      0.000      0.000
  Name = 
  10 active torsions:
  status: ('A' for Active; 'I' for Inactive)
    1  A    between atoms: C_1  and  N_34
    2  A    between atoms: C_1  and  C_35
    3  A    between atoms: C_2  and  C_6
    4  A    between atoms: C_2  and  C_13
    5  A    between atoms: C_3  and  C_4
    6  A    between atoms: C_3  and  C_12
    7  A    between atoms: C_6  and  C_17
    8  A    between atoms: C_11  and  C_22
    9  A    between atoms: C_12  and  C_17
   10  A    between atoms: C_19  and  C_25
                            x       y       z     vdW  Elec       q    Type
                         _______ _______ _______ _____ _____    ______ ____

>  <TORSDO>
F 10

$$$$
=
 OpenBabel10272414113D

 43 48  0  0  1  0  0  0  0  0999 V2000
  195.1600  174.7400  136.1380 C   0  0  0  0  0  2  0  0  0  0  0  0
  191.0200  176.4910  138.7700 C   0  0  0  0  0  0  0  0  0  0  0  0
  188.5760  176.0030  137.3380 C   0  0  1  0  0  3  0  0  0  0  0  0
  193.5340  175.9610  137.6060 C   0  0  0  0  0  0  0  0  0  0  0  0
  193.2230  175.4920  134.6480 C   0  0  0  0  0  2  0  0  0  0  0  0
  194.7070  175.1370  134.7340 C   0  0  0  0  0  2  0  0  0  0  0  0
  192.3500  175.4900  136.9760 C   0  0  0  0  0  0  0  0  0  0  0  0
  194.8250  175.7340  137.1020 O   0  0  0  0  0  0  0  0  0  0  0  0
  192.3950  174.7330  135.6760 C   0  0  0  0  0  2  0  0  0  0  0  0
  189.8290  175.2230  136.9300 C   0  0  0  0  0  2  0  0  0  0  0  0
  191.0950  175.7590  137.5640 C   0  0  0  0  0  0  0  0  0  0  0  0
  192.1950  176.9680  139.3600 C   0  0  0  0  0  3  0  0  0  0  0  0
  189.7390  176.7840  139.3590 N   0  0  0  0  0  0  0  0  0  0  0  0
  188.5390  176.1130  138.8610 C   0  0  0  0  0  2  0  0  0  0  0  0
  193.4340  176.7050  138.7830 C   0  0  0  0  0  3  0  0  0  0  0  0
  188.4990  177.3720  136.6350 C   0  0  1  0  0  3  0  0  0  0  0  0
  189.3340  177.3760  135.3640 C   0  0  0  0  0  1  0  0  0  0  0  0
  187.0690  177.8250  136.3250 C   0  0  0  0  0  2  0  0  0  0  0  0
  186.1220  176.6540  136.1100 C   0  0  0  0  0  2  0  0  0  0  0  0
  184.7030  177.1150  136.3710 C   0  0  0  0  0  2  0  0  0  0  0  0
  184.3030  176.7580  137.7860 C   0  0  0  0  0  2  0  0  0  0  0  0
  183.2470  177.7380  138.2850 C   0  0  1  0  0  3  0  0  0  0  0  0
  184.4750  179.6440  140.0090 C   0  0  0  0  0  2  0  0  0  0  0  0
  183.0130  177.6260  139.8020 C   0  0  2  0  0  3  0  0  0  0  0  0
  183.6700  179.1720  137.9500 C   0  0  0  0  0  2  0  0  0  0  0  0
  184.1590  178.2660  140.5960 C   0  0  2  0  0  3  0  0  0  0  0  0
  182.8250  176.2950  140.1880 O   0  0  0  0  0  1  0  0  0  0  0  0
  184.8380  179.5220  138.6560 O   0  0  0  0  0  0  0  0  0  0  0  0
  183.8230  178.3810  142.0530 C   0  0  0  0  0  0  0  0  0  0  0  0
  184.6060  178.4000  144.4290 C   0  0  0  0  0  2  0  0  0  0  0  0
  182.1840  178.6370  143.9780 C   0  0  0  0  0  2  0  0  0  0  0  0
  183.3590  179.2170  144.7490 C   0  0  0  0  0  2  0  0  0  0  0  0
  182.4240  178.7870  142.4750 C   0  0  0  0  0  2  0  0  0  0  0  0
  184.8250  178.2890  142.9430 C   0  0  0  0  0  3  0  0  0  0  0  0
  189.5980  177.8640  140.3380 C   0  0  0  0  0  2  0  0  0  0  0  0
  188.2230  176.6910  143.7880 C   0  0  0  0  0  2  0  0  0  0  0  0
  189.4410  177.1260  144.6230 C   0  0  1  0  0  3  0  0  0  0  0  0
  190.6040  178.1510  142.6430 C   0  0  0  0  0  2  0  0  0  0  0  0
  188.2000  177.2960  142.3790 C   0  0  0  0  0  2  0  0  0  0  0  0
  189.6080  177.3560  141.7800 C   0  0  1  0  0  3  0  0  0  0  0  0
  190.1210  178.3820  144.0770 C   0  0  0  0  0  2  0  0  0  0  0  0
  189.0880  177.2720  146.1000 C   0  0  0  0  0  2  0  0  0  0  0  0
  187.6320  177.6630  146.3130 C   0  0  0  0  0  1  0  0  0  0  0  0
  1  8  1  0  0  0  0
  2 13  1  0  0  0  0
  2 12  1  0  0  0  0
  3 16  1  6  0  0  0
  3 14  1  0  0  0  0
  4 15  1  0  0  0  0
  5  6  1  0  0  0  0
  5  9  1  0  0  0  0
  6  1  1  0  0  0  0
  7 11  1  0  0  0  0
  7  4  2  0  0  0  0
  8  4  1  0  0  0  0
  9  7  1  0  0  0  0
 10  3  1  0  0  0  0
 10 11  1  0  0  0  0
 11  2  2  0  0  0  0
 13 35  1  0  0  0  0
 14 13  1  0  0  0  0
 15 12  2  0  0  0  0
 16 17  1  6  0  0  0
 18 16  1  0  0  0  0
 19 18  1  0  0  0  0
 19 20  1  0  0  0  0
 20 21  1  0  0  0  0
 22 21  1  1  0  0  0
 22 24  1  0  0  0  0
 23 26  1  0  0  0  0
 24 27  1  1  0  0  0
 24 26  1  0  0  0  0
 25 22  1  0  0  0  0
 25 28  1  0  0  0  0
 26 29  1  1  0  0  0
 28 23  1  0  0  0  0
 29 33  1  0  0  0  0
 29 34  2  0  0  0  0
 30 32  1  0  0  0  0
 31 32  1  0  0  0  0
 33 31  1  0  0  0  0
 34 30  1  0  0  0  0
 36 37  1  0  0  0  0
 37 42  1  1  0  0  0
 38 41  1  0  0  0  0
 39 36  1  0  0  0  0
 40 35  1  6  0  0  0
 40 39  1  0  0  0  0
 40 38  1  0  0  0  0
 41 37  1  0  0  0  0
 42 43  1  0  0  0  0
M  END
>  <MODEL>
2

>  <REMARK>
 VINA RESULT:      -7.1      2.698      8.495
  Name = 
  10 active torsions:
  status: ('A' for Active; 'I' for Inactive)
    1  A    between atoms: C_1  and  N_34
    2  A    between atoms: C_1  and  C_35
    3  A    between atoms: C_2  and  C_6
    4  A    between atoms: C_2  and  C_13
    5  A    between atoms: C_3  and  C_4
    6  A    between atoms: C_3  and  C_12
    7  A    between atoms: C_6  and  C_17
    8  A    between atoms: C_11  and  C_22
    9  A    between atoms: C_12  and  C_17
   10  A    between atoms: C_19  and  C_25
                            x       y       z     vdW  Elec       q    Type
                         _______ _______ _______ _____ _____    ______ ____

>  <TORSDO>
F 10

$$$$
=
 OpenBabel10272414113D

 43 48  0  0  1  0  0  0  0  0999 V2000
  192.7460  174.0890  136.2990 C   0  0  0  0  0  2  0  0  0  0  0  0
  187.8750  175.8080  135.6300 C   0  0  0  0  0  0  0  0  0  0  0  0
  187.5240  178.4400  136.7300 C   0  0  1  0  0  3  0  0  0  0  0  0
  190.2720  174.3690  136.0030 C   0  0  0  0  0  0  0  0  0  0  0  0
  191.9480  175.6890  138.1270 C   0  0  0  0  0  2  0  0  0  0  0  0
  192.9800  174.6440  137.7030 C   0  0  0  0  0  2  0  0  0  0  0  0
  190.2140  175.7460  136.3460 C   0  0  0  0  0  0  0  0  0  0  0  0
  191.4250  173.5790  136.1460 O   0  0  0  0  0  0  0  0  0  0  0  0
  191.3990  176.4630  136.9360 C   0  0  0  0  0  2  0  0  0  0  0  0
  188.9480  177.9400  136.4730 C   0  0  0  0  0  2  0  0  0  0  0  0
  189.0110  176.4610  136.1570 C   0  0  0  0  0  0  0  0  0  0  0  0
  187.9440  174.4450  135.3230 C   0  0  0  0  0  3  0  0  0  0  0  0
  186.6410  176.5300  135.4570 N   0  0  0  0  0  0  0  0  0  0  0  0
  186.6290  177.9870  135.5770 C   0  0  0  0  0  2  0  0  0  0  0  0
  189.1280  173.7370  135.5080 C   0  0  0  0  0  3  0  0  0  0  0  0
  187.0000  177.9940  138.1080 C   0  0  1  0  0  3  0  0  0  0  0  0
  188.0370  178.2490  139.1910 C   0  0  0  0  0  1  0  0  0  0  0  0
  185.6670  178.6400  138.4970 C   0  0  0  0  0  2  0  0  0  0  0  0
  185.0870  178.0530  139.7750 C   0  0  0  0  0  2  0  0  0  0  0  0
  184.6760  179.1850  140.6930 C   0  0  0  0  0  2  0  0  0  0  0  0
  185.5790  179.2120  141.9070 C   0  0  0  0  0  2  0  0  0  0  0  0
  185.2160  178.0630  142.8420 C   0  0  1  0  0  3  0  0  0  0  0  0
  185.5910  178.8960  145.5400 C   0  0  0  0  0  2  0  0  0  0  0  0
  186.4350  177.5340  143.6200 C   0  0  2  0  0  3  0  0  0  0  0  0
  184.1480  178.5230  143.8400 C   0  0  0  0  0  2  0  0  0  0  0  0
  186.8380  178.4900  144.7500 C   0  0  2  0  0  3  0  0  0  0  0  0
  187.5140  177.2930  142.7650 O   0  0  0  0  0  1  0  0  0  0  0  0
  184.6620  179.5220  144.6900 O   0  0  0  0  0  0  0  0  0  0  0  0
  187.8560  177.8690  145.6600 C   0  0  0  0  0  0  0  0  0  0  0  0
  190.2100  177.1010  146.0200 C   0  0  0  0  0  2  0  0  0  0  0  0
  188.5690  176.7880  147.8460 C   0  0  0  0  0  2  0  0  0  0  0  0
  189.9610  177.2990  147.5110 C   0  0  0  0  0  2  0  0  0  0  0  0
  187.5180  177.6280  147.1180 C   0  0  0  0  0  2  0  0  0  0  0  0
  189.1050  177.7030  145.1920 C   0  0  0  0  0  3  0  0  0  0  0  0
  185.3700  175.8150  135.3230 C   0  0  0  0  0  2  0  0  0  0  0  0
  183.1120  175.3240  138.4580 C   0  0  0  0  0  2  0  0  0  0  0  0
  182.0640  176.3920  138.0930 C   0  0  1  0  0  3  0  0  0  0  0  0
  183.1500  176.8970  135.8820 C   0  0  0  0  0  2  0  0  0  0  0  0
  184.0230  174.9370  137.2880 C   0  0  0  0  0  2  0  0  0  0  0  0
  184.3810  176.1600  136.4380 C   0  0  1  0  0  3  0  0  0  0  0  0
  181.8440  176.5210  136.5850 C   0  0  0  0  0  2  0  0  0  0  0  0
  180.7510  176.1700  138.8380 C   0  0  0  0  0  2  0  0  0  0  0  0
  180.2840  177.4170  139.5740 C   0  0  0  0  0  1  0  0  0  0  0  0
  1  6  1  0  0  0  0
  2 11  1  0  0  0  0
  3 16  1  1  0  0  0
  4  8  1  0  0  0  0
  4  7  1  0  0  0  0
  6  5  1  0  0  0  0
  7  9  1  0  0  0  0
  8  1  1  0  0  0  0
  9  5  1  0  0  0  0
 10  3  1  0  0  0  0
 11  7  2  0  0  0  0
 11 10  1  0  0  0  0
 12 15  1  0  0  0  0
 12  2  2  0  0  0  0
 13 14  1  0  0  0  0
 13  2  1  0  0  0  0
 14  3  1  0  0  0  0
 15  4  2  0  0  0  0
 16 18  1  0  0  0  0
 16 17  1  1  0  0  0
 18 19  1  0  0  0  0
 19 20  1  0  0  0  0
 20 21  1  0  0  0  0
 22 21  1  1  0  0  0
 22 24  1  0  0  0  0
 22 25  1  0  0  0  0
 24 27  1  6  0  0  0
 24 26  1  0  0  0  0
 25 28  1  0  0  0  0
 26 23  1  0  0  0  0
 26 29  1  1  0  0  0
 28 23  1  0  0  0  0
 29 33  1  0  0  0  0
 30 32  1  0  0  0  0
 32 31  1  0  0  0  0
 33 31  1  0  0  0  0
 34 29  2  0  0  0  0
 34 30  1  0  0  0  0
 35 13  1  0  0  0  0
 37 36  1  0  0  0  0
 37 42  1  1  0  0  0
 38 40  1  0  0  0  0
 38 41  1  0  0  0  0
 39 36  1  0  0  0  0
 40 35  1  6  0  0  0
 40 39  1  0  0  0  0
 41 37  1  0  0  0  0
 42 43  1  0  0  0  0
M  END
>  <MODEL>
3

>  <REMARK>
 VINA RESULT:      -7.0      2.353      8.674
  Name = 
  10 active torsions:
  status: ('A' for Active; 'I' for Inactive)
    1  A    between atoms: C_1  and  N_34
    2  A    between atoms: C_1  and  C_35
    3  A    between atoms: C_2  and  C_6
    4  A    between atoms: C_2  and  C_13
    5  A    between atoms: C_3  and  C_4
    6  A    between atoms: C_3  and  C_12
    7  A    between atoms: C_6  and  C_17
    8  A    between atoms: C_11  and  C_22
    9  A    between atoms: C_12  and  C_17
   10  A    between atoms: C_19  and  C_25
                            x       y       z     vdW  Elec       q    Type
                         _______ _______ _______ _____ _____    ______ ____

>  <TORSDO>
F 10

$$$$
=
 OpenBabel10272414113D

 43 48  0  0  1  0  0  0  0  0999 V2000
  184.2490  178.5960  145.7540 C   0  0  0  0  0  2  0  0  0  0  0  0
  187.5260  178.0170  141.7460 C   0  0  0  0  0  0  0  0  0  0  0  0
  189.7950  176.4050  142.4630 C   0  0  1  0  0  3  0  0  0  0  0  0
  185.6310  178.8240  143.6730 C   0  0  0  0  0  0  0  0  0  0  0  0
  186.6950  178.3130  146.4430 C   0  0  0  0  0  2  0  0  0  0  0  0
  185.2890  178.7410  146.8640 C   0  0  0  0  0  2  0  0  0  0  0  0
  186.6000  177.8390  144.0040 C   0  0  0  0  0  0  0  0  0  0  0  0
  184.6460  179.2770  144.5670 O   0  0  0  0  0  0  0  0  0  0  0  0
  186.6650  177.2260  145.3770 C   0  0  0  0  0  2  0  0  0  0  0  0
  188.5530  176.3570  143.3570 C   0  0  0  0  0  2  0  0  0  0  0  0
  187.5460  177.4390  143.0350 C   0  0  0  0  0  0  0  0  0  0  0  0
  186.5810  179.0040  141.4480 C   0  0  0  0  0  3  0  0  0  0  0  0
  188.5030  177.6260  140.7630 N   0  0  0  0  0  0  0  0  0  0  0  0
  189.3470  176.4560  141.0030 C   0  0  0  0  0  2  0  0  0  0  0  0
  185.6470  179.4010  142.4010 C   0  0  0  0  0  3  0  0  0  0  0  0
  190.7310  177.5660  142.8450 C   0  0  1  0  0  3  0  0  0  0  0  0
  190.8590  177.6860  144.3550 C   0  0  0  0  0  1  0  0  0  0  0  0
  192.1210  177.4710  142.2070 C   0  0  0  0  0  2  0  0  0  0  0  0
  192.1400  177.9880  140.7760 C   0  0  0  0  0  2  0  0  0  0  0  0
  193.0860  177.1330  139.9580 C   0  0  0  0  0  2  0  0  0  0  0  0
  192.2990  176.3230  138.9510 C   0  0  0  0  0  2  0  0  0  0  0  0
  193.0130  176.3440  137.6040 C   0  0  1  0  0  3  0  0  0  0  0  0
  192.4890  173.9070  136.2260 C   0  0  0  0  0  2  0  0  0  0  0  0
  194.1280  175.2870  137.5160 C   0  0  2  0  0  3  0  0  0  0  0  0
  192.0040  176.1000  136.4770 C   0  0  0  0  0  2  0  0  0  0  0  0
  193.5520  173.8770  137.3270 C   0  0  2  0  0  3  0  0  0  0  0  0
  194.9620  175.3350  138.6370 O   0  0  0  0  0  1  0  0  0  0  0  0
  191.4620  174.8040  136.5690 O   0  0  0  0  0  0  0  0  0  0  0  0
  194.6250  172.8830  136.9940 C   0  0  0  0  0  0  0  0  0  0  0  0
  196.3380  172.0570  135.3690 C   0  0  0  0  0  2  0  0  0  0  0  0
  196.0410  170.8350  137.5000 C   0  0  0  0  0  2  0  0  0  0  0  0
  197.0670  171.4570  136.5650 C   0  0  0  0  0  2  0  0  0  0  0  0
  195.1200  171.9220  138.0570 C   0  0  0  0  0  2  0  0  0  0  0  0
  195.2410  172.9920  135.8040 C   0  0  0  0  0  3  0  0  0  0  0  0
  188.7760  178.4760  139.6030 C   0  0  0  0  0  2  0  0  0  0  0  0
  188.7070  177.8500  135.7600 C   0  0  0  0  0  2  0  0  0  0  0  0
  187.4100  177.0200  135.7370 C   0  0  1  0  0  3  0  0  0  0  0  0
  187.0090  177.3290  138.2000 C   0  0  0  0  0  2  0  0  0  0  0  0
  188.9220  178.6120  137.0720 C   0  0  0  0  0  2  0  0  0  0  0  0
  188.4790  177.7760  138.2760 C   0  0  1  0  0  3  0  0  0  0  0  0
  186.4030  177.4590  136.8010 C   0  0  0  0  0  2  0  0  0  0  0  0
  186.7850  176.9910  134.3460 C   0  0  0  0  0  2  0  0  0  0  0  0
  185.2900  177.2740  134.3750 C   0  0  0  0  0  1  0  0  0  0  0  0
  1  6  1  0  0  0  0
  2 11  1  0  0  0  0
  3 16  1  1  0  0  0
  3 10  1  0  0  0  0
  4  7  1  0  0  0  0
  4  8  1  0  0  0  0
  5  6  1  0  0  0  0
  7  9  1  0  0  0  0
  8  1  1  0  0  0  0
  9  5  1  0  0  0  0
 11 10  1  0  0  0  0
 11  7  2  0  0  0  0
 12  2  2  0  0  0  0
 12 15  1  0  0  0  0
 13 14  1  0  0  0  0
 13  2  1  0  0  0  0
 14  3  1  0  0  0  0
 15  4  2  0  0  0  0
 16 17  1  1  0  0  0
 18 16  1  0  0  0  0
 19 18  1  0  0  0  0
 20 19  1  0  0  0  0
 21 20  1  0  0  0  0
 22 21  1  1  0  0  0
 23 28  1  0  0  0  0
 23 26  1  0  0  0  0
 24 22  1  0  0  0  0
 24 27  1  1  0  0  0
 25 28  1  0  0  0  0
 25 22  1  0  0  0  0
 26 29  1  6  0  0  0
 26 24  1  0  0  0  0
 29 33  1  0  0  0  0
 30 34  1  0  0  0  0
 30 32  1  0  0  0  0
 31 33  1  0  0  0  0
 32 31  1  0  0  0  0
 34 29  2  0  0  0  0
 35 13  1  0  0  0  0
 36 39  1  0  0  0  0
 37 42  1  6  0  0  0
 37 36  1  0  0  0  0
 37 41  1  0  0  0  0
 38 40  1  0  0  0  0
 39 40  1  0  0  0  0
 40 35  1  1  0  0  0
 41 38  1  0  0  0  0
 42 43  1  0  0  0  0
M  END
>  <MODEL>
4

>  <REMARK>
 VINA RESULT:      -6.8      3.668      6.279
  Name = 
  10 active torsions:
  status: ('A' for Active; 'I' for Inactive)
    1  A    between atoms: C_1  and  N_34
    2  A    between atoms: C_1  and  C_35
    3  A    between atoms: C_2  and  C_6
    4  A    between atoms: C_2  and  C_13
    5  A    between atoms: C_3  and  C_4
    6  A    between atoms: C_3  and  C_12
    7  A    between atoms: C_6  and  C_17
    8  A    between atoms: C_11  and  C_22
    9  A    between atoms: C_12  and  C_17
   10  A    between atoms: C_19  and  C_25
                            x       y       z     vdW  Elec       q    Type
                         _______ _______ _______ _____ _____    ______ ____

>  <TORSDO>
F 10

$$$$
=
 OpenBabel10272414113D

 43 48  0  0  1  0  0  0  0  0999 V2000
  190.9830  177.6390  142.1410 C   0  0  0  0  0  2  0  0  0  0  0  0
  190.0780  176.9790  137.0530 C   0  0  0  0  0  0  0  0  0  0  0  0
  187.5360  178.0750  136.2830 C   0  0  1  0  0  3  0  0  0  0  0  0
  190.8680  176.8620  139.7580 C   0  0  0  0  0  0  0  0  0  0  0  0
  188.5070  177.4080  141.5460 C   0  0  0  0  0  2  0  0  0  0  0  0
  189.5660  177.3750  142.6480 C   0  0  0  0  0  2  0  0  0  0  0  0
  189.7240  177.6190  139.3880 C   0  0  0  0  0  0  0  0  0  0  0  0
  191.3360  176.7570  141.0790 O   0  0  0  0  0  0  0  0  0  0  0  0
  188.8940  178.3470  140.4110 C   0  0  0  0  0  2  0  0  0  0  0  0
  188.1470  178.5150  137.6160 C   0  0  0  0  0  2  0  0  0  0  0  0
  189.3340  177.6740  138.0330 C   0  0  0  0  0  0  0  0  0  0  0  0
  191.1850  176.2170  137.4420 C   0  0  0  0  0  3  0  0  0  0  0  0
  189.6700  177.0160  135.6730 N   0  0  0  0  0  0  0  0  0  0  0  0
  188.6500  177.9710  135.2420 C   0  0  0  0  0  2  0  0  0  0  0  0
  191.5720  176.1610  138.7770 C   0  0  0  0  0  3  0  0  0  0  0  0
  186.7240  176.7740  136.4260 C   0  0  1  0  0  3  0  0  0  0  0  0
  186.7370  176.2820  137.8650 C   0  0  0  0  0  1  0  0  0  0  0  0
  185.2810  176.8910  135.9250 C   0  0  0  0  0  2  0  0  0  0  0  0
  184.2680  176.4110  136.9530 C   0  0  0  0  0  2  0  0  0  0  0  0
  183.3690  177.5680  137.3340 C   0  0  0  0  0  2  0  0  0  0  0  0
  182.9130  177.4100  138.7690 C   0  0  0  0  0  2  0  0  0  0  0  0
  182.9140  178.7690  139.4600 C   0  0  1  0  0  3  0  0  0  0  0  0
  185.4290  179.1710  140.7370 C   0  0  0  0  0  2  0  0  0  0  0  0
  182.9970  178.6460  140.9930 C   0  0  2  0  0  3  0  0  0  0  0  0
  184.0980  179.6050  138.9620 C   0  0  0  0  0  2  0  0  0  0  0  0
  184.4140  178.2740  141.4500 C   0  0  2  0  0  3  0  0  0  0  0  0
  182.0620  177.7270  141.4780 O   0  0  0  0  0  1  0  0  0  0  0  0
  185.3170  179.0140  139.3430 O   0  0  0  0  0  0  0  0  0  0  0  0
  184.5620  178.3960  142.9380 C   0  0  0  0  0  0  0  0  0  0  0  0
  185.9460  178.0030  144.9840 C   0  0  0  0  0  2  0  0  0  0  0  0
  183.7150  179.0420  145.2450 C   0  0  0  0  0  2  0  0  0  0  0  0
  185.1830  179.1570  145.6240 C   0  0  0  0  0  2  0  0  0  0  0  0
  183.5550  179.2050  143.7330 C   0  0  0  0  0  2  0  0  0  0  0  0
  185.6860  177.9250  143.5030 C   0  0  0  0  0  3  0  0  0  0  0  0
  190.1410  176.0020  134.7270 C   0  0  0  0  0  2  0  0  0  0  0  0
  187.0080  173.7180  134.3610 C   0  0  0  0  0  2  0  0  0  0  0  0
  187.4170  172.6820  135.4240 C   0  0  1  0  0  3  0  0  0  0  0  0
  189.4850  173.9580  136.0700 C   0  0  0  0  0  2  0  0  0  0  0  0
  187.8220  175.0160  134.4280 C   0  0  0  0  0  2  0  0  0  0  0  0
  189.2910  174.7310  134.7530 C   0  0  1  0  0  3  0  0  0  0  0  0
  188.2050  173.2940  136.5820 C   0  0  0  0  0  2  0  0  0  0  0  0
  186.2170  171.8800  135.9190 C   0  0  0  0  0  2  0  0  0  0  0  0
  185.1990  172.7470  136.6450 C   0  0  0  0  0  1  0  0  0  0  0  0
  1  6  1  0  0  0  0
  2 12  2  0  0  0  0
  2 11  1  0  0  0  0
  3 16  1  1  0  0  0
  3 10  1  0  0  0  0
  4  8  1  0  0  0  0
  5  6  1  0  0  0  0
  7  4  1  0  0  0  0
  7  9  1  0  0  0  0
  8  1  1  0  0  0  0
  9  5  1  0  0  0  0
 10 11  1  0  0  0  0
 11  7  2  0  0  0  0
 12 15  1  0  0  0  0
 13  2  1  0  0  0  0
 14 13  1  0  0  0  0
 14  3  1  0  0  0  0
 15  4  2  0  0  0  0
 16 17  1  1  0  0  0
 18 16  1  0  0  0  0
 18 19  1  0  0  0  0
 19 20  1  0  0  0  0
 20 21  1  0  0  0  0
 22 21  1  6  0  0  0
 22 24  1  0  0  0  0
 23 26  1  0  0  0  0
 24 26  1  0  0  0  0
 24 27  1  6  0  0  0
 25 28  1  0  0  0  0
 25 22  1  0  0  0  0
 26 29  1  1  0  0  0
 28 23  1  0  0  0  0
 29 34  2  0  0  0  0
 29 33  1  0  0  0  0
 30 32  1  0  0  0  0
 31 32  1  0  0  0  0
 33 31  1  0  0  0  0
 34 30  1  0  0  0  0
 35 13  1  0  0  0  0
 36 39  1  0  0  0  0
 36 37  1  0  0  0  0
 37 42  1  1  0  0  0
 37 41  1  0  0  0  0
 38 41  1  0  0  0  0
 39 40  1  0  0  0  0
 40 35  1  1  0  0  0
 40 38  1  0  0  0  0
 42 43  1  0  0  0  0
M  END
>  <MODEL>
5

>  <REMARK>
 VINA RESULT:      -6.5      2.715      7.664
  Name = 
  10 active torsions:
  status: ('A' for Active; 'I' for Inactive)
    1  A    between atoms: C_1  and  N_34
    2  A    between atoms: C_1  and  C_35
    3  A    between atoms: C_2  and  C_6
    4  A    between atoms: C_2  and  C_13
    5  A    between atoms: C_3  and  C_4
    6  A    between atoms: C_3  and  C_12
    7  A    between atoms: C_6  and  C_17
    8  A    between atoms: C_11  and  C_22
    9  A    between atoms: C_12  and  C_17
   10  A    between atoms: C_19  and  C_25
                            x       y       z     vdW  Elec       q    Type
                         _______ _______ _______ _____ _____    ______ ____

>  <TORSDO>
F 10

$$$$
=
 OpenBabel10272414113D

 43 48  0  0  1  0  0  0  0  0999 V2000
  187.8440  177.7920  148.9860 C   0  0  0  0  0  2  0  0  0  0  0  0
  186.0420  178.2830  144.1240 C   0  0  0  0  0  0  0  0  0  0  0  0
  187.8560  177.1460  142.2060 C   0  0  1  0  0  3  0  0  0  0  0  0
  186.7290  178.4910  146.8510 C   0  0  0  0  0  0  0  0  0  0  0  0
  189.6760  177.9890  147.2130 C   0  0  0  0  0  2  0  0  0  0  0  0
  189.3200  178.0630  148.6980 C   0  0  0  0  0  2  0  0  0  0  0  0
  187.5370  177.7150  145.9760 C   0  0  0  0  0  0  0  0  0  0  0  0
  186.9930  178.6420  148.2230 O   0  0  0  0  0  0  0  0  0  0  0  0
  188.7780  177.0160  146.4600 C   0  0  0  0  0  2  0  0  0  0  0  0
  188.0090  176.7530  143.6780 C   0  0  0  0  0  2  0  0  0  0  0  0
  187.1870  177.6150  144.6120 C   0  0  0  0  0  0  0  0  0  0  0  0
  185.2760  179.0630  144.9950 C   0  0  0  0  0  3  0  0  0  0  0  0
  185.6960  178.1990  142.7280 N   0  0  0  0  0  0  0  0  0  0  0  0
  186.3680  177.2240  141.8700 C   0  0  0  0  0  2  0  0  0  0  0  0
  185.6170  179.1650  146.3410 C   0  0  0  0  0  3  0  0  0  0  0  0
  188.6140  178.4460  141.8790 C   0  0  1  0  0  3  0  0  0  0  0  0
  190.0330  178.3990  142.4230 C   0  0  0  0  0  1  0  0  0  0  0  0
  188.6370  178.7850  140.3850 C   0  0  0  0  0  2  0  0  0  0  0  0
  189.7540  178.0680  139.6420 C   0  0  0  0  0  2  0  0  0  0  0  0
  189.1640  176.9130  138.8620 C   0  0  0  0  0  2  0  0  0  0  0  0
  190.2610  175.9470  138.4710 C   0  0  0  0  0  2  0  0  0  0  0  0
  191.1670  176.5940  137.4290 C   0  0  1  0  0  3  0  0  0  0  0  0
  192.5960  174.5610  136.0360 C   0  0  0  0  0  2  0  0  0  0  0  0
  192.6600  176.3880  137.7420 C   0  0  2  0  0  3  0  0  0  0  0  0
  190.8630  176.0130  136.0440 C   0  0  0  0  0  2  0  0  0  0  0  0
  193.1090  174.9560  137.4230 C   0  0  2  0  0  3  0  0  0  0  0  0
  192.9470  176.7130  139.0710 O   0  0  0  0  0  1  0  0  0  0  0  0
  191.1920  174.6450  135.9970 O   0  0  0  0  0  0  0  0  0  0  0  0
  194.6010  174.8190  137.4890 C   0  0  0  0  0  0  0  0  0  0  0  0
  196.6410  174.3310  138.8520 C   0  0  0  0  0  2  0  0  0  0  0  0
  196.9240  174.9200  136.4650 C   0  0  0  0  0  2  0  0  0  0  0  0
  197.3180  173.9270  137.5480 C   0  0  0  0  0  2  0  0  0  0  0  0
  195.4180  174.8410  136.2120 C   0  0  0  0  0  2  0  0  0  0  0  0
  195.1560  174.5040  138.6710 C   0  0  0  0  0  3  0  0  0  0  0  0
  184.7990  179.1840  142.1210 C   0  0  0  0  0  2  0  0  0  0  0  0
  183.5640  178.5860  138.4760 C   0  0  0  0  0  2  0  0  0  0  0  0
  182.1190  178.1990  138.8390 C   0  0  1  0  0  3  0  0  0  0  0  0
  182.4730  178.6320  141.2900 C   0  0  0  0  0  2  0  0  0  0  0  0
  184.3250  179.2530  139.6280 C   0  0  0  0  0  2  0  0  0  0  0  0
  183.9770  178.6020  140.9700 C   0  0  1  0  0  3  0  0  0  0  0  0
  181.5960  178.9330  140.0730 C   0  0  0  0  0  2  0  0  0  0  0  0
  181.1780  178.3560  137.6470 C   0  0  0  0  0  2  0  0  0  0  0  0
  181.1150  179.7900  137.1420 C   0  0  0  0  0  1  0  0  0  0  0  0
  2 11  2  0  0  0  0
  2 12  1  0  0  0  0
  3 16  1  1  0  0  0
  3 10  1  0  0  0  0
  4  8  1  0  0  0  0
  5  6  1  0  0  0  0
  6  1  1  0  0  0  0
  7  9  1  0  0  0  0
  7  4  2  0  0  0  0
  8  1  1  0  0  0  0
  9  5  1  0  0  0  0
 10 11  1  0  0  0  0
 11  7  1  0  0  0  0
 12 15  2  0  0  0  0
 13  2  1  0  0  0  0
 14  3  1  0  0  0  0
 14 13  1  0  0  0  0
 15  4  1  0  0  0  0
 16 17  1  6  0  0  0
 18 16  1  0  0  0  0
 19 18  1  0  0  0  0
 20 19  1  0  0  0  0
 21 20  1  0  0  0  0
 22 24  1  0  0  0  0
 22 21  1  1  0  0  0
 23 26  1  0  0  0  0
 24 27  1  1  0  0  0
 25 22  1  0  0  0  0
 26 29  1  6  0  0  0
 26 24  1  0  0  0  0
 28 23  1  0  0  0  0
 28 25  1  0  0  0  0
 29 34  2  0  0  0  0
 31 32  1  0  0  0  0
 32 30  1  0  0  0  0
 33 31  1  0  0  0  0
 33 29  1  0  0  0  0
 34 30  1  0  0  0  0
 35 13  1  0  0  0  0
 36 37  1  0  0  0  0
 36 39  1  0  0  0  0
 37 42  1  6  0  0  0
 37 41  1  0  0  0  0
 39 40  1  0  0  0  0
 40 38  1  0  0  0  0
 40 35  1  1  0  0  0
 41 38  1  0  0  0  0
 43 42  1  0  0  0  0
M  END
>  <MODEL>
6

>  <REMARK>
 VINA RESULT:      -6.4      2.768      5.183
  Name = 
  10 active torsions:
  status: ('A' for Active; 'I' for Inactive)
    1  A    between atoms: C_1  and  N_34
    2  A    between atoms: C_1  and  C_35
    3  A    between atoms: C_2  and  C_6
    4  A    between atoms: C_2  and  C_13
    5  A    between atoms: C_3  and  C_4
    6  A    between atoms: C_3  and  C_12
    7  A    between atoms: C_6  and  C_17
    8  A    between atoms: C_11  and  C_22
    9  A    between atoms: C_12  and  C_17
   10  A    between atoms: C_19  and  C_25
                            x       y       z     vdW  Elec       q    Type
                         _______ _______ _______ _____ _____    ______ ____

>  <TORSDO>
F 10

$$$$
=
 OpenBabel10272414113D

 43 48  0  0  1  0  0  0  0  0999 V2000
  193.2640  173.6050  136.1160 C   0  0  0  0  0  2  0  0  0  0  0  0
  188.2920  175.1550  136.2560 C   0  0  0  0  0  0  0  0  0  0  0  0
  188.0440  177.9590  135.6740 C   0  0  1  0  0  3  0  0  0  0  0  0
  190.8180  173.9370  136.5620 C   0  0  0  0  0  0  0  0  0  0  0  0
  192.9540  176.0430  136.8230 C   0  0  0  0  0  2  0  0  0  0  0  0
  193.8920  174.8380  136.7640 C   0  0  0  0  0  2  0  0  0  0  0  0
  190.7280  175.2560  136.0420 C   0  0  0  0  0  0  0  0  0  0  0  0
  192.0320  173.2520  136.7380 O   0  0  0  0  0  0  0  0  0  0  0  0
  191.9560  176.0440  135.6720 C   0  0  0  0  0  2  0  0  0  0  0  0
  189.3460  177.2470  135.2950 C   0  0  0  0  0  2  0  0  0  0  0  0
  189.4610  175.8600  135.8920 C   0  0  0  0  0  0  0  0  0  0  0  0
  188.4040  173.8670  136.7900 C   0  0  0  0  0  3  0  0  0  0  0  0
  187.0010  175.7770  136.1230 N   0  0  0  0  0  0  0  0  0  0  0  0
  186.8700  177.0280  135.3760 C   0  0  0  0  0  2  0  0  0  0  0  0
  189.6510  173.2680  136.9400 C   0  0  0  0  0  3  0  0  0  0  0  0
  188.0650  178.4500  137.1340 C   0  0  1  0  0  3  0  0  0  0  0  0
  186.8890  177.8850  137.9140 C   0  0  0  0  0  1  0  0  0  0  0  0
  189.3750  178.1440  137.8670 C   0  0  0  0  0  2  0  0  0  0  0  0
  189.1660  177.2690  139.0930 C   0  0  0  0  0  2  0  0  0  0  0  0
  190.4840  177.1230  139.8230 C   0  0  0  0  0  2  0  0  0  0  0  0
  190.2340  176.6380  141.2350 C   0  0  0  0  0  2  0  0  0  0  0  0
  190.4870  177.7750  142.2200 C   0  0  1  0  0  3  0  0  0  0  0  0
  190.4960  176.7320  144.8720 C   0  0  0  0  0  2  0  0  0  0  0  0
  189.2730  178.0430  143.1280 C   0  0  2  0  0  3  0  0  0  0  0  0
  191.7010  177.4430  143.0960 C   0  0  0  0  0  2  0  0  0  0  0  0
  189.1340  176.9670  144.2140 C   0  0  2  0  0  3  0  0  0  0  0  0
  188.0960  178.1480  142.3810 O   0  0  0  0  0  1  0  0  0  0  0  0
  191.4350  176.3240  143.9070 O   0  0  0  0  0  0  0  0  0  0  0  0
  188.1140  177.3520  145.2430 C   0  0  0  0  0  0  0  0  0  0  0  0
  187.6140  178.0810  147.5840 C   0  0  0  0  0  2  0  0  0  0  0  0
  185.7250  177.7250  146.0240 C   0  0  0  0  0  2  0  0  0  0  0  0
  186.3290  178.6890  147.0340 C   0  0  0  0  0  2  0  0  0  0  0  0
  186.6700  177.5640  144.8320 C   0  0  0  0  0  2  0  0  0  0  0  0
  188.5470  177.6700  146.4750 C   0  0  0  0  0  3  0  0  0  0  0  0
  185.8450  175.2640  136.8610 C   0  0  0  0  0  2  0  0  0  0  0  0
  184.5360  172.1940  134.8530 C   0  0  0  0  0  2  0  0  0  0  0  0
  184.2490  171.2950  136.0690 C   0  0  1  0  0  3  0  0  0  0  0  0
  184.8670  173.0910  137.7160 C   0  0  0  0  0  2  0  0  0  0  0  0
  184.7490  173.6670  135.2200 C   0  0  0  0  0  2  0  0  0  0  0  0
  185.5340  173.8040  136.5270 C   0  0  1  0  0  3  0  0  0  0  0  0
  183.7960  172.0810  137.2990 C   0  0  0  0  0  2  0  0  0  0  0  0
  183.2710  170.1760  135.7230 C   0  0  0  0  0  2  0  0  0  0  0  0
  183.9650  168.8360  135.5290 C   0  0  0  0  0  1  0  0  0  0  0  0
  1  8  1  0  0  0  0
  1  6  1  0  0  0  0
  2 12  1  0  0  0  0
  3 16  1  1  0  0  0
  4  8  1  0  0  0  0
  4 15  1  0  0  0  0
  6  5  1  0  0  0  0
  7  4  2  0  0  0  0
  9  7  1  0  0  0  0
  9  5  1  0  0  0  0
 10  3  1  0  0  0  0
 10 11  1  0  0  0  0
 11  7  1  0  0  0  0
 11  2  2  0  0  0  0
 12 15  2  0  0  0  0
 13  2  1  0  0  0  0
 13 35  1  0  0  0  0
 14  3  1  0  0  0  0
 14 13  1  0  0  0  0
 16 18  1  0  0  0  0
 16 17  1  1  0  0  0
 18 19  1  0  0  0  0
 19 20  1  0  0  0  0
 20 21  1  0  0  0  0
 22 21  1  6  0  0  0
 22 25  1  0  0  0  0
 22 24  1  0  0  0  0
 24 27  1  6  0  0  0
 24 26  1  0  0  0  0
 25 28  1  0  0  0  0
 26 23  1  0  0  0  0
 26 29  1  1  0  0  0
 28 23  1  0  0  0  0
 29 34  2  0  0  0  0
 31 32  1  0  0  0  0
 32 30  1  0  0  0  0
 33 29  1  0  0  0  0
 33 31  1  0  0  0  0
 34 30  1  0  0  0  0
 36 39  1  0  0  0  0
 36 37  1  0  0  0  0
 37 42  1  6  0  0  0
 37 41  1  0  0  0  0
 39 40  1  0  0  0  0
 40 35  1  1  0  0  0
 40 38  1  0  0  0  0
 41 38  1  0  0  0  0
 43 42  1  0  0  0  0
M  END
>  <MODEL>
7

>  <REMARK>
 VINA RESULT:      -6.4      3.092      8.926
  Name = 
  10 active torsions:
  status: ('A' for Active; 'I' for Inactive)
    1  A    between atoms: C_1  and  N_34
    2  A    between atoms: C_1  and  C_35
    3  A    between atoms: C_2  and  C_6
    4  A    between atoms: C_2  and  C_13
    5  A    between atoms: C_3  and  C_4
    6  A    between atoms: C_3  and  C_12
    7  A    between atoms: C_6  and  C_17
    8  A    between atoms: C_11  and  C_22
    9  A    between atoms: C_12  and  C_17
   10  A    between atoms: C_19  and  C_25
                            x       y       z     vdW  Elec       q    Type
                         _______ _______ _______ _____ _____    ______ ____

>  <TORSDO>
F 10

$$$$
=
 OpenBabel10272414113D

 43 48  0  0  1  0  0  0  0  0999 V2000
  197.3870  170.0250  136.1010 C   0  0  0  0  0  2  0  0  0  0  0  0
  192.8900  172.5520  135.3750 C   0  0  0  0  0  0  0  0  0  0  0  0
  193.1790  175.3740  135.8380 C   0  0  1  0  0  3  0  0  0  0  0  0
  194.9940  170.7530  135.9160 C   0  0  0  0  0  0  0  0  0  0  0  0
  197.1260  172.1180  137.5450 C   0  0  0  0  0  2  0  0  0  0  0  0
  197.8830  170.8110  137.3130 C   0  0  0  0  0  2  0  0  0  0  0  0
  195.2410  172.1520  135.9240 C   0  0  0  0  0  0  0  0  0  0  0  0
  195.9840  169.7870  136.1640 O   0  0  0  0  0  0  0  0  0  0  0  0
  196.6010  172.7120  136.2450 C   0  0  0  0  0  2  0  0  0  0  0  0
  194.4420  174.5380  135.6110 C   0  0  0  0  0  2  0  0  0  0  0  0
  194.1840  173.0470  135.6530 C   0  0  0  0  0  0  0  0  0  0  0  0
  192.6620  171.1720  135.3980 C   0  0  0  0  0  3  0  0  0  0  0  0
  191.8060  173.4640  135.1190 N   0  0  0  0  0  0  0  0  0  0  0  0
  192.0870  174.8810  134.8900 C   0  0  0  0  0  2  0  0  0  0  0  0
  193.7010  170.2870  135.6650 C   0  0  0  0  0  3  0  0  0  0  0  0
  192.7430  175.3630  137.3150 C   0  0  1  0  0  3  0  0  0  0  0  0
  193.9490  175.2760  138.2360 C   0  0  0  0  0  1  0  0  0  0  0  0
  191.8690  176.5590  137.7070 C   0  0  0  0  0  2  0  0  0  0  0  0
  191.8360  176.7880  139.2100 C   0  0  0  0  0  2  0  0  0  0  0  0
  190.4120  177.0790  139.6320 C   0  0  0  0  0  2  0  0  0  0  0  0
  190.1850  176.5800  141.0430 C   0  0  0  0  0  2  0  0  0  0  0  0
  190.5230  177.6840  142.0390 C   0  0  1  0  0  3  0  0  0  0  0  0
  190.6080  176.5840  144.6650 C   0  0  0  0  0  2  0  0  0  0  0  0
  189.3600  177.9770  143.0050 C   0  0  2  0  0  3  0  0  0  0  0  0
  191.7600  177.2890  142.8520 C   0  0  0  0  0  2  0  0  0  0  0  0
  189.2290  176.8830  144.0730 C   0  0  2  0  0  3  0  0  0  0  0  0
  188.1570  178.1410  142.3120 O   0  0  0  0  0  1  0  0  0  0  0  0
  191.4880  176.1630  143.6520 O   0  0  0  0  0  0  0  0  0  0  0  0
  188.2690  177.2830  145.1550 C   0  0  0  0  0  0  0  0  0  0  0  0
  187.9040  178.0290  147.5140 C   0  0  0  0  0  2  0  0  0  0  0  0
  185.9300  177.6810  146.0620 C   0  0  0  0  0  2  0  0  0  0  0  0
  186.5960  178.6450  147.0320 C   0  0  0  0  0  2  0  0  0  0  0  0
  186.8060  177.5050  144.8220 C   0  0  0  0  0  2  0  0  0  0  0  0
  188.7710  177.6040  146.3590 C   0  0  0  0  0  3  0  0  0  0  0  0
  190.4150  173.0250  135.2470 C   0  0  0  0  0  2  0  0  0  0  0  0
  188.2690  175.6270  137.1960 C   0  0  0  0  0  2  0  0  0  0  0  0
  187.1780  175.7980  136.1220 C   0  0  1  0  0  3  0  0  0  0  0  0
  188.1800  174.0410  134.6280 C   0  0  0  0  0  2  0  0  0  0  0  0
  189.1570  174.3970  136.9730 C   0  0  0  0  0  2  0  0  0  0  0  0
  189.4500  174.1880  135.4850 C   0  0  1  0  0  3  0  0  0  0  0  0
  186.9090  174.5150  135.3360 C   0  0  0  0  0  2  0  0  0  0  0  0
  185.8960  176.3790  136.7110 C   0  0  0  0  0  2  0  0  0  0  0  0
  186.1340  177.6960  137.4350 C   0  0  0  0  0  1  0  0  0  0  0  0
  1  8  1  0  0  0  0
  1  6  1  0  0  0  0
  2 12  2  0  0  0  0
  2 11  1  0  0  0  0
  3 16  1  1  0  0  0
  4  7  1  0  0  0  0
  4  8  1  0  0  0  0
  6  5  1  0  0  0  0
  7  9  1  0  0  0  0
  9  5  1  0  0  0  0
 10 11  1  0  0  0  0
 10  3  1  0  0  0  0
 11  7  2  0  0  0  0
 12 15  1  0  0  0  0
 13 35  1  0  0  0  0
 13  2  1  0  0  0  0
 14 13  1  0  0  0  0
 14  3  1  0  0  0  0
 15  4  2  0  0  0  0
 16 18  1  0  0  0  0
 16 17  1  1  0  0  0
 18 19  1  0  0  0  0
 19 20  1  0  0  0  0
 20 21  1  0  0  0  0
 22 21  1  6  0  0  0
 22 25  1  0  0  0  0
 22 24  1  0  0  0  0
 24 27  1  6  0  0  0
 24 26  1  0  0  0  0
 25 28  1  0  0  0  0
 26 23  1  0  0  0  0
 26 29  1  1  0  0  0
 28 23  1  0  0  0  0
 29 34  2  0  0  0  0
 31 32  1  0  0  0  0
 32 30  1  0  0  0  0
 33 29  1  0  0  0  0
 33 31  1  0  0  0  0
 34 30  1  0  0  0  0
 37 42  1  1  0  0  0
 37 36  1  0  0  0  0
 38 41  1  0  0  0  0
 38 40  1  0  0  0  0
 39 36  1  0  0  0  0
 40 35  1  1  0  0  0
 40 39  1  0  0  0  0
 41 37  1  0  0  0  0
 42 43  1  0  0  0  0
M  END
>  <MODEL>
8

>  <REMARK>
 VINA RESULT:      -6.3      4.992     10.314
  Name = 
  10 active torsions:
  status: ('A' for Active; 'I' for Inactive)
    1  A    between atoms: C_1  and  N_34
    2  A    between atoms: C_1  and  C_35
    3  A    between atoms: C_2  and  C_6
    4  A    between atoms: C_2  and  C_13
    5  A    between atoms: C_3  and  C_4
    6  A    between atoms: C_3  and  C_12
    7  A    between atoms: C_6  and  C_17
    8  A    between atoms: C_11  and  C_22
    9  A    between atoms: C_12  and  C_17
   10  A    between atoms: C_19  and  C_25
                            x       y       z     vdW  Elec       q    Type
                         _______ _______ _______ _____ _____    ______ ____

>  <TORSDO>
F 10

$$$$
=
 OpenBabel10272414113D

 43 48  0  0  1  0  0  0  0  0999 V2000
  194.9190  173.6020  136.7970 C   0  0  0  0  0  2  0  0  0  0  0  0
  190.8830  176.4200  138.5030 C   0  0  0  0  0  0  0  0  0  0  0  0
  188.4840  175.8200  137.0380 C   0  0  1  0  0  3  0  0  0  0  0  0
  193.3750  175.3360  137.7450 C   0  0  0  0  0  0  0  0  0  0  0  0
  193.1790  174.1210  134.9980 C   0  0  0  0  0  2  0  0  0  0  0  0
  194.6000  173.6500  135.3040 C   0  0  0  0  0  2  0  0  0  0  0  0
  192.1800  174.8390  137.1580 C   0  0  0  0  0  0  0  0  0  0  0  0
  194.6550  174.8490  137.4340 O   0  0  0  0  0  0  0  0  0  0  0  0
  192.2060  173.7580  136.1110 C   0  0  0  0  0  2  0  0  0  0  0  0
  189.6520  174.8330  136.9610 C   0  0  0  0  0  2  0  0  0  0  0  0
  190.9360  175.3850  137.5420 C   0  0  0  0  0  0  0  0  0  0  0  0
  192.0720  176.9140  139.0490 C   0  0  0  0  0  3  0  0  0  0  0  0
  189.6170  176.9930  138.8790 N   0  0  0  0  0  0  0  0  0  0  0  0
  188.3740  176.3410  138.4700 C   0  0  0  0  0  2  0  0  0  0  0  0
  193.3000  176.3770  138.6730 C   0  0  0  0  0  3  0  0  0  0  0  0
  188.6180  176.9480  135.9980 C   0  0  1  0  0  3  0  0  0  0  0  0
  188.7400  176.3790  134.5930 C   0  0  0  0  0  1  0  0  0  0  0  0
  187.4800  177.9720  136.0520 C   0  0  0  0  0  2  0  0  0  0  0  0
  186.5420  177.8630  134.8590 C   0  0  0  0  0  2  0  0  0  0  0  0
  185.3460  177.0220  135.2500 C   0  0  0  0  0  2  0  0  0  0  0  0
  184.6310  177.6630  136.4190 C   0  0  0  0  0  2  0  0  0  0  0  0
  184.9290  176.8830  137.6950 C   0  0  1  0  0  3  0  0  0  0  0  0
  182.4840  176.3300  139.0490 C   0  0  0  0  0  2  0  0  0  0  0  0
  184.5860  177.6830  138.9640 C   0  0  2  0  0  3  0  0  0  0  0  0
  184.1330  175.5730  137.7000 C   0  0  0  0  0  2  0  0  0  0  0  0
  183.0710  177.7360  139.2030 C   0  0  2  0  0  3  0  0  0  0  0  0
  185.1240  178.9720  138.9100 O   0  0  0  0  0  1  0  0  0  0  0  0
  182.7510  175.8340  137.7600 O   0  0  0  0  0  0  0  0  0  0  0  0
  182.7460  178.2940  140.5570 C   0  0  0  0  0  0  0  0  0  0  0  0
  181.0990  179.4320  142.0570 C   0  0  0  0  0  2  0  0  0  0  0  0
  183.3330  178.8690  142.9610 C   0  0  0  0  0  2  0  0  0  0  0  0
  181.8370  178.7870  143.2240 C   0  0  0  0  0  2  0  0  0  0  0  0
  183.6880  178.0490  141.7200 C   0  0  0  0  0  2  0  0  0  0  0  0
  181.5360  178.8500  140.7380 C   0  0  0  0  0  3  0  0  0  0  0  0
  189.5540  178.3060  139.5250 C   0  0  0  0  0  2  0  0  0  0  0  0
  189.1910  176.7910  143.0940 C   0  0  0  0  0  2  0  0  0  0  0  0
  187.9480  177.6010  143.5060 C   0  0  1  0  0  3  0  0  0  0  0  0
  187.7430  178.6930  141.2510 C   0  0  0  0  0  2  0  0  0  0  0  0
  189.4730  176.8290  141.5880 C   0  0  0  0  0  2  0  0  0  0  0  0
  189.1860  178.2160  141.0060 C   0  0  1  0  0  3  0  0  0  0  0  0
  187.0130  177.8970  142.3340 C   0  0  0  0  0  2  0  0  0  0  0  0
  187.2080  176.9450  144.6680 C   0  0  0  0  0  2  0  0  0  0  0  0
  187.2650  177.7790  145.9400 C   0  0  0  0  0  1  0  0  0  0  0  0
  1  8  1  0  0  0  0
  2 13  1  0  0  0  0
  2 12  1  0  0  0  0
  3 16  1  6  0  0  0
  3 14  1  0  0  0  0
  4 15  1  0  0  0  0
  5  6  1  0  0  0  0
  5  9  1  0  0  0  0
  6  1  1  0  0  0  0
  7 11  1  0  0  0  0
  7  4  2  0  0  0  0
  8  4  1  0  0  0  0
  9  7  1  0  0  0  0
 10  3  1  0  0  0  0
 10 11  1  0  0  0  0
 11  2  2  0  0  0  0
 13 35  1  0  0  0  0
 14 13  1  0  0  0  0
 15 12  2  0  0  0  0
 16 17  1  6  0  0  0
 16 18  1  0  0  0  0
 19 20  1  0  0  0  0
 19 18  1  0  0  0  0
 20 21  1  0  0  0  0
 22 21  1  6  0  0  0
 22 25  1  0  0  0  0
 22 24  1  0  0  0  0
 23 26  1  0  0  0  0
 24 27  1  6  0  0  0
 24 26  1  0  0  0  0
 25 28  1  0  0  0  0
 26 29  1  1  0  0  0
 28 23  1  0  0  0  0
 29 34  2  0  0  0  0
 29 33  1  0  0  0  0
 30 32  1  0  0  0  0
 31 32  1  0  0  0  0
 33 31  1  0  0  0  0
 34 30  1  0  0  0  0
 36 37  1  0  0  0  0
 37 42  1  1  0  0  0
 38 41  1  0  0  0  0
 39 36  1  0  0  0  0
 40 35  1  6  0  0  0
 40 38  1  0  0  0  0
 40 39  1  0  0  0  0
 41 37  1  0  0  0  0
 42 43  1  0  0  0  0
M  END
>  <MODEL>
9

>  <REMARK>
 VINA RESULT:      -6.1      2.733      8.109
  Name = 
  10 active torsions:
  status: ('A' for Active; 'I' for Inactive)
    1  A    between atoms: C_1  and  N_34
    2  A    between atoms: C_1  and  C_35
    3  A    between atoms: C_2  and  C_6
    4  A    between atoms: C_2  and  C_13
    5  A    between atoms: C_3  and  C_4
    6  A    between atoms: C_3  and  C_12
    7  A    between atoms: C_6  and  C_17
    8  A    between atoms: C_11  and  C_22
    9  A    between atoms: C_12  and  C_17
   10  A    between atoms: C_19  and  C_25
                            x       y       z     vdW  Elec       q    Type
                         _______ _______ _______ _____ _____    ______ ____

>  <TORSDO>
F 10

$$$$
