=
 OpenBabel10272413353D

 32 35  0  0  1  0  0  0  0  0999 V2000
  191.4360  176.6110  137.6130 C   0  0  2  0  0  3  0  0  0  0  0  0
  189.6010  177.8960  142.1530 C   0  0  0  0  0  0  0  0  0  0  0  0
  189.8080  177.2740  139.8250 C   0  0  0  0  0  0  0  0  0  0  0  0
  191.7200  177.0590  141.3030 C   0  0  0  0  0  3  0  0  0  0  0  0
  191.9120  176.4750  138.9540 O   0  0  0  0  0  0  0  0  0  0  0  0
  191.9960  179.1300  143.9310 C   0  0  0  0  0  1  0  0  0  0  0  0
  190.9460  177.5390  142.3650 C   0  0  0  0  0  0  0  0  0  0  0  0
  191.5480  177.6900  143.7260 C   0  0  2  0  0  3  0  0  0  0  0  0
  189.1130  177.8380  144.6470 C   0  0  1  0  0  3  0  0  0  0  0  0
  189.9300  176.3410  137.5540 C   0  0  0  0  0  2  0  0  0  0  0  0
  191.1530  176.9340  140.0330 C   0  0  0  0  0  0  0  0  0  0  0  0
  189.2530  177.1070  138.5530 O   0  0  0  0  0  0  0  0  0  0  0  0
  190.5270  177.2290  144.7780 C   0  0  2  0  0  3  0  0  0  0  0  0
  189.0390  177.7730  140.8790 C   0  0  0  0  0  3  0  0  0  0  0  0
  188.7860  178.4660  143.2770 C   0  0  0  0  0  2  0  0  0  0  0  0
  192.1110  175.7190  136.7800 O   0  0  0  0  0  0  0  0  0  0  0  0
  192.8400  174.9030  137.6480 C   0  0  0  0  0  2  0  0  0  0  0  0
  194.1810  174.5500  137.0310 C   0  0  0  0  0  2  0  0  0  0  0  0
  195.6850  174.4200  139.1820 C   0  0  0  0  0  1  0  0  0  0  0  0
  194.9950  173.2370  137.9910 S   0  0  0  0  0  0  0  0  0  0  0  0
  191.0650  177.2010  146.2110 C   0  0  0  0  0  2  0  0  0  0  0  0
  192.4100  176.2750  148.2530 C   0  0  0  0  0  1  0  0  0  0  0  0
  191.9950  175.6810  146.5900 S   0  0  0  0  0  0  0  0  0  0  0  0
  188.0210  176.8720  145.1220 C   0  0  0  0  0  2  0  0  0  0  0  0
  187.0630  177.5070  146.0360 N   0  0  0  0  0  0  0  0  0  0  0  0
  184.8990  178.7120  146.3330 C   0  0  0  0  0  2  0  0  0  0  0  0
  185.3760  178.0830  144.3410 C   0  0  0  0  0  2  0  0  0  0  0  0
  185.6270  177.5190  145.7280 C   0  0  0  0  0  3  0  0  0  0  0  0
  184.6440  179.2640  144.9460 C   0  0  0  0  0  2  0  0  0  0  0  0
  188.0250  177.8560  148.2630 C   0  0  0  0  0  3  0  0  0  0  0  0
  187.4950  178.3290  147.1350 C   0  0  0  0  0  3  0  0  0  0  0  0
  188.2650  176.5010  148.4610 O   0  0  0  0  0  1  0  0  0  0  0  0
  1 16  1  6  0  0  0
  1  5  1  0  0  0  0
  2  7  1  0  0  0  0
  2 15  1  0  0  0  0
  3 11  2  0  0  0  0
  3 14  1  0  0  0  0
  4  7  2  0  0  0  0
  5 11  1  0  0  0  0
  7  8  1  0  0  0  0
  8  6  1  1  0  0  0
  8 13  1  0  0  0  0
  9 13  1  0  0  0  0
  9 24  1  6  0  0  0
 10  1  1  0  0  0  0
 10 12  1  0  0  0  0
 11  4  1  0  0  0  0
 12  3  1  0  0  0  0
 13 21  1  1  0  0  0
 14  2  2  0  0  0  0
 15  9  1  0  0  0  0
 16 17  1  0  0  0  0
 18 17  1  0  0  0  0
 18 20  1  0  0  0  0
 20 19  1  0  0  0  0
 21 23  1  0  0  0  0
 23 22  1  0  0  0  0
 24 25  1  0  0  0  0
 25 31  1  0  0  0  0
 27 29  1  0  0  0  0
 27 28  1  0  0  0  0
 28 25  1  0  0  0  0
 28 26  1  0  0  0  0
 29 26  1  0  0  0  0
 30 32  1  0  0  0  0
 31 30  2  0  0  0  0
M  END
>  <MODEL>
1

>  <REMARK>
 VINA RESULT:      -6.9      0.000      0.000
  Name = 
  10 active torsions:
  status: ('A' for Active; 'I' for Inactive)
    1  A    between atoms: C_2  and  O_24
    2  A    between atoms: S_5  and  C_25
    3  A    between atoms: C_7  and  N_32
    4  A    between atoms: C_10  and  C_20
    5  A    between atoms: C_10  and  O_24
    6  A    between atoms: C_16  and  C_27
    7  A    between atoms: S_17  and  C_20
    8  A    between atoms: C_22  and  N_32
    9  A    between atoms: C_25  and  C_26
   10  A    between atoms: C_27  and  N_32
                            x       y       z     vdW  Elec       q    Type
                         _______ _______ _______ _____ _____    ______ ____

>  <TORSDO>
F 10

$$$$
=
 OpenBabel10272413353D

 32 35  0  0  1  0  0  0  0  0999 V2000
  191.9810  176.4570  137.0270 C   0  0  2  0  0  3  0  0  0  0  0  0
  189.2600  178.0320  140.9970 C   0  0  0  0  0  0  0  0  0  0  0  0
  189.9580  177.3660  138.7780 C   0  0  0  0  0  0  0  0  0  0  0  0
  191.3850  176.8920  140.6830 C   0  0  0  0  0  3  0  0  0  0  0  0
  192.0800  176.2660  138.4410 O   0  0  0  0  0  0  0  0  0  0  0  0
  191.2790  178.9250  143.3520 C   0  0  0  0  0  1  0  0  0  0  0  0
  190.4440  177.4870  141.5290 C   0  0  0  0  0  0  0  0  0  0  0  0
  190.6980  177.5620  143.0010 C   0  0  2  0  0  3  0  0  0  0  0  0
  188.1560  178.0660  143.2850 C   0  0  1  0  0  3  0  0  0  0  0  0
  190.5160  176.4070  136.5850 C   0  0  0  0  0  2  0  0  0  0  0  0
  191.1460  176.8390  139.3070 C   0  0  0  0  0  0  0  0  0  0  0  0
  189.7240  177.2700  137.4040 O   0  0  0  0  0  0  0  0  0  0  0  0
  189.3900  177.2620  143.7500 C   0  0  2  0  0  3  0  0  0  0  0  0
  189.0270  177.9800  139.6190 C   0  0  0  0  0  3  0  0  0  0  0  0
  188.2780  178.7230  141.8960 C   0  0  0  0  0  2  0  0  0  0  0  0
  192.7120  175.4700  136.3660 O   0  0  0  0  0  0  0  0  0  0  0  0
  194.0460  175.8540  136.5150 C   0  0  0  0  0  2  0  0  0  0  0  0
  194.9650  174.6970  136.1700 C   0  0  0  0  0  2  0  0  0  0  0  0
  195.2340  173.6370  138.5600 C   0  0  0  0  0  1  0  0  0  0  0  0
  194.4150  173.1790  137.0060 S   0  0  0  0  0  0  0  0  0  0  0  0
  189.5390  177.1690  145.2710 C   0  0  0  0  0  2  0  0  0  0  0  0
  190.8290  176.9130  147.5320 C   0  0  0  0  0  1  0  0  0  0  0  0
  191.1760  176.5570  145.7870 S   0  0  0  0  0  0  0  0  0  0  0  0
  186.8550  177.2720  143.4440 C   0  0  0  0  0  2  0  0  0  0  0  0
  185.6700  178.1360  143.5210 N   0  0  0  0  0  0  0  0  0  0  0  0
  184.0840  178.8960  145.2910 C   0  0  0  0  0  2  0  0  0  0  0  0
  186.0810  178.4460  145.9270 C   0  0  0  0  0  2  0  0  0  0  0  0
  185.4670  179.0320  144.6670 C   0  0  0  0  0  3  0  0  0  0  0  0
  184.7040  178.3220  146.5480 C   0  0  0  0  0  2  0  0  0  0  0  0
  184.4050  178.6960  141.4980 C   0  0  0  0  0  3  0  0  0  0  0  0
  184.5630  177.9860  142.6160 C   0  0  0  0  0  3  0  0  0  0  0  0
  185.3440  179.6260  141.0700 O   0  0  0  0  0  1  0  0  0  0  0  0
  1 16  1  6  0  0  0
  1  5  1  0  0  0  0
  2  7  1  0  0  0  0
  2 15  1  0  0  0  0
  3 11  2  0  0  0  0
  3 14  1  0  0  0  0
  4  7  2  0  0  0  0
  5 11  1  0  0  0  0
  7  8  1  0  0  0  0
  8  6  1  6  0  0  0
  8 13  1  0  0  0  0
  9 24  1  6  0  0  0
  9 13  1  0  0  0  0
 10  1  1  0  0  0  0
 10 12  1  0  0  0  0
 11  4  1  0  0  0  0
 12  3  1  0  0  0  0
 13 21  1  1  0  0  0
 14  2  2  0  0  0  0
 15  9  1  0  0  0  0
 16 17  1  0  0  0  0
 18 17  1  0  0  0  0
 18 20  1  0  0  0  0
 20 19  1  0  0  0  0
 21 23  1  0  0  0  0
 23 22  1  0  0  0  0
 24 25  1  0  0  0  0
 25 28  1  0  0  0  0
 26 29  1  0  0  0  0
 27 29  1  0  0  0  0
 28 26  1  0  0  0  0
 28 27  1  0  0  0  0
 30 31  2  0  0  0  0
 31 25  1  0  0  0  0
 32 30  1  0  0  0  0
M  END
>  <MODEL>
2

>  <REMARK>
 VINA RESULT:      -6.8      1.999      2.640
  Name = 
  10 active torsions:
  status: ('A' for Active; 'I' for Inactive)
    1  A    between atoms: C_2  and  O_24
    2  A    between atoms: S_5  and  C_25
    3  A    between atoms: C_7  and  N_32
    4  A    between atoms: C_10  and  C_20
    5  A    between atoms: C_10  and  O_24
    6  A    between atoms: C_16  and  C_27
    7  A    between atoms: S_17  and  C_20
    8  A    between atoms: C_22  and  N_32
    9  A    between atoms: C_25  and  C_26
   10  A    between atoms: C_27  and  N_32
                            x       y       z     vdW  Elec       q    Type
                         _______ _______ _______ _____ _____    ______ ____

>  <TORSDO>
F 10

$$$$
=
 OpenBabel10272413353D

 32 35  0  0  1  0  0  0  0  0999 V2000
  188.7090  177.6050  136.2290 C   0  0  2  0  0  3  0  0  0  0  0  0
  188.9270  177.9900  141.2730 C   0  0  0  0  0  0  0  0  0  0  0  0
  188.1800  178.0270  138.9730 C   0  0  0  0  0  0  0  0  0  0  0  0
  190.2420  176.8860  139.5520 C   0  0  0  0  0  3  0  0  0  0  0  0
  189.4890  176.9670  137.2440 O   0  0  0  0  0  0  0  0  0  0  0  0
  192.0240  177.9640  142.1850 C   0  0  0  0  0  1  0  0  0  0  0  0
  190.0530  177.2350  140.8930 C   0  0  0  0  0  0  0  0  0  0  0  0
  191.0520  176.8220  141.9260 C   0  0  2  0  0  3  0  0  0  0  0  0
  189.2330  177.3590  143.7160 C   0  0  1  0  0  3  0  0  0  0  0  0
  187.2640  177.7840  136.7040 C   0  0  0  0  0  2  0  0  0  0  0  0
  189.3100  177.2880  138.5910 C   0  0  0  0  0  0  0  0  0  0  0  0
  187.2430  178.3870  138.0000 O   0  0  0  0  0  0  0  0  0  0  0  0
  190.3050  176.3770  143.1940 C   0  0  2  0  0  3  0  0  0  0  0  0
  187.9990  178.3950  140.3080 C   0  0  0  0  0  3  0  0  0  0  0  0
  188.7530  178.4170  142.7020 C   0  0  0  0  0  2  0  0  0  0  0  0
  188.7340  176.8380  135.0640 O   0  0  0  0  0  0  0  0  0  0  0  0
  188.3520  175.5580  135.4720 C   0  0  0  0  0  2  0  0  0  0  0  0
  189.0780  174.5090  134.6480 C   0  0  0  0  0  2  0  0  0  0  0  0
  190.4980  173.6600  136.6900 C   0  0  0  0  0  1  0  0  0  0  0  0
  190.8390  174.4580  135.0960 S   0  0  0  0  0  0  0  0  0  0  0  0
  191.2060  175.7950  144.2870 C   0  0  0  0  0  2  0  0  0  0  0  0
  192.0480  175.6590  146.7590 C   0  0  0  0  0  1  0  0  0  0  0  0
  191.5620  176.9850  145.6200 S   0  0  0  0  0  0  0  0  0  0  0  0
  188.0700  176.6340  144.4010 C   0  0  0  0  0  2  0  0  0  0  0  0
  187.4350  177.4460  145.4480 N   0  0  0  0  0  0  0  0  0  0  0  0
  185.5770  178.9970  146.0480 C   0  0  0  0  0  2  0  0  0  0  0  0
  185.4880  178.1100  144.1000 C   0  0  0  0  0  2  0  0  0  0  0  0
  185.9810  177.6520  145.4610 C   0  0  0  0  0  3  0  0  0  0  0  0
  185.0780  179.4440  144.6900 C   0  0  0  0  0  2  0  0  0  0  0  0
  188.6120  177.8400  147.5610 C   0  0  0  0  0  3  0  0  0  0  0  0
  188.2090  178.2470  146.3570 C   0  0  0  0  0  3  0  0  0  0  0  0
  188.3620  176.5570  148.0340 O   0  0  0  0  0  1  0  0  0  0  0  0
  1 16  1  6  0  0  0
  1 10  1  0  0  0  0
  1  5  1  0  0  0  0
  2 15  1  0  0  0  0
  3 14  1  0  0  0  0
  4  7  2  0  0  0  0
  5 11  1  0  0  0  0
  7  2  1  0  0  0  0
  7  8  1  0  0  0  0
  8  6  1  1  0  0  0
  8 13  1  0  0  0  0
  9 24  1  6  0  0  0
 10 12  1  0  0  0  0
 11  3  2  0  0  0  0
 11  4  1  0  0  0  0
 12  3  1  0  0  0  0
 13  9  1  0  0  0  0
 13 21  1  1  0  0  0
 14  2  2  0  0  0  0
 15  9  1  0  0  0  0
 16 17  1  0  0  0  0
 18 20  1  0  0  0  0
 18 17  1  0  0  0  0
 20 19  1  0  0  0  0
 21 23  1  0  0  0  0
 23 22  1  0  0  0  0
 24 25  1  0  0  0  0
 25 28  1  0  0  0  0
 25 31  1  0  0  0  0
 27 29  1  0  0  0  0
 27 28  1  0  0  0  0
 28 26  1  0  0  0  0
 29 26  1  0  0  0  0
 30 32  1  0  0  0  0
 31 30  2  0  0  0  0
M  END
>  <MODEL>
3

>  <REMARK>
 VINA RESULT:      -6.8      2.090      2.614
  Name = 
  10 active torsions:
  status: ('A' for Active; 'I' for Inactive)
    1  A    between atoms: C_2  and  O_24
    2  A    between atoms: S_5  and  C_25
    3  A    between atoms: C_7  and  N_32
    4  A    between atoms: C_10  and  C_20
    5  A    between atoms: C_10  and  O_24
    6  A    between atoms: C_16  and  C_27
    7  A    between atoms: S_17  and  C_20
    8  A    between atoms: C_22  and  N_32
    9  A    between atoms: C_25  and  C_26
   10  A    between atoms: C_27  and  N_32
                            x       y       z     vdW  Elec       q    Type
                         _______ _______ _______ _____ _____    ______ ____

>  <TORSDO>
F 10

$$$$
=
 OpenBabel10272413353D

 32 35  0  0  1  0  0  0  0  0999 V2000
  189.7110  178.0000  145.1910 C   0  0  2  0  0  3  0  0  0  0  0  0
  191.1820  177.2600  140.4040 C   0  0  0  0  0  0  0  0  0  0  0  0
  191.1340  177.4420  142.8150 C   0  0  0  0  0  0  0  0  0  0  0  0
  189.0540  177.4180  141.5670 C   0  0  0  0  0  3  0  0  0  0  0  0
  189.0330  177.6360  143.9860 O   0  0  0  0  0  0  0  0  0  0  0  0
  189.0150  178.6110  138.4290 C   0  0  0  0  0  1  0  0  0  0  0  0
  189.7760  177.2990  140.3750 C   0  0  0  0  0  0  0  0  0  0  0  0
  189.0580  177.2290  139.0660 C   0  0  2  0  0  3  0  0  0  0  0  0
  191.2800  176.3270  138.0410 C   0  0  1  0  0  3  0  0  0  0  0  0
  191.0710  177.3000  145.2680 C   0  0  0  0  0  2  0  0  0  0  0  0
  189.7330  177.4980  142.7860 C   0  0  0  0  0  0  0  0  0  0  0  0
  191.7910  177.4870  144.0480 O   0  0  0  0  0  0  0  0  0  0  0  0
  189.7470  176.1840  138.1730 C   0  0  2  0  0  3  0  0  0  0  0  0
  191.8590  177.3440  141.6240 C   0  0  0  0  0  3  0  0  0  0  0  0
  191.9600  177.1920  139.1220 C   0  0  0  0  0  2  0  0  0  0  0  0
  188.9330  177.6490  146.2950 O   0  0  0  0  0  0  0  0  0  0  0  0
  187.6160  177.7110  145.8360 C   0  0  0  0  0  2  0  0  0  0  0  0
  186.6990  178.1990  146.9430 C   0  0  0  0  0  2  0  0  0  0  0  0
  185.6170  178.5470  144.5730 C   0  0  0  0  0  1  0  0  0  0  0  0
  185.0320  178.5200  146.2900 S   0  0  0  0  0  0  0  0  0  0  0  0
  189.0280  175.9110  136.8490 C   0  0  0  0  0  2  0  0  0  0  0  0
  188.2530  173.4220  136.6310 C   0  0  0  0  0  1  0  0  0  0  0  0
  187.4660  174.9980  137.0650 S   0  0  0  0  0  0  0  0  0  0  0  0
  191.9730  174.9730  137.8540 C   0  0  0  0  0  2  0  0  0  0  0  0
  192.8580  174.9480  136.6810 N   0  0  0  0  0  0  0  0  0  0  0  0
  194.7540  174.6850  138.2800 C   0  0  0  0  0  2  0  0  0  0  0  0
  194.5590  173.1740  136.7740 C   0  0  0  0  0  2  0  0  0  0  0  0
  194.2920  174.6680  136.8300 C   0  0  0  0  0  3  0  0  0  0  0  0
  195.0280  173.1970  138.2140 C   0  0  0  0  0  2  0  0  0  0  0  0
  191.7630  174.6610  134.5080 C   0  0  0  0  0  3  0  0  0  0  0  0
  192.4200  175.4120  135.3930 C   0  0  0  0  0  3  0  0  0  0  0  0
  191.3860  173.3520  134.7790 O   0  0  0  0  0  1  0  0  0  0  0  0
  1 10  1  0  0  0  0
  1 16  1  1  0  0  0
  2 14  1  0  0  0  0
  3 12  1  0  0  0  0
  4 11  2  0  0  0  0
  5  1  1  0  0  0  0
  7  2  2  0  0  0  0
  7  4  1  0  0  0  0
  8  6  1  6  0  0  0
  8  7  1  0  0  0  0
  9 24  1  1  0  0  0
  9 13  1  0  0  0  0
  9 15  1  0  0  0  0
 11  3  1  0  0  0  0
 11  5  1  0  0  0  0
 12 10  1  0  0  0  0
 13 21  1  6  0  0  0
 13  8  1  0  0  0  0
 14  3  2  0  0  0  0
 15  2  1  0  0  0  0
 17 16  1  0  0  0  0
 17 18  1  0  0  0  0
 19 20  1  0  0  0  0
 20 18  1  0  0  0  0
 21 23  1  0  0  0  0
 22 23  1  0  0  0  0
 25 28  1  0  0  0  0
 25 24  1  0  0  0  0
 27 28  1  0  0  0  0
 27 29  1  0  0  0  0
 28 26  1  0  0  0  0
 29 26  1  0  0  0  0
 30 32  1  0  0  0  0
 30 31  2  0  0  0  0
 31 25  1  0  0  0  0
M  END
>  <MODEL>
4

>  <REMARK>
 VINA RESULT:      -6.4      3.363      9.693
  Name = 
  10 active torsions:
  status: ('A' for Active; 'I' for Inactive)
    1  A    between atoms: C_2  and  O_24
    2  A    between atoms: S_5  and  C_25
    3  A    between atoms: C_7  and  N_32
    4  A    between atoms: C_10  and  C_20
    5  A    between atoms: C_10  and  O_24
    6  A    between atoms: C_16  and  C_27
    7  A    between atoms: S_17  and  C_20
    8  A    between atoms: C_22  and  N_32
    9  A    between atoms: C_25  and  C_26
   10  A    between atoms: C_27  and  N_32
                            x       y       z     vdW  Elec       q    Type
                         _______ _______ _______ _____ _____    ______ ____

>  <TORSDO>
F 10

$$$$
=
 OpenBabel10272413353D

 32 35  0  0  1  0  0  0  0  0999 V2000
  189.9910  178.3800  144.5840 C   0  0  2  0  0  3  0  0  0  0  0  0
  191.2680  177.1350  139.8450 C   0  0  0  0  0  0  0  0  0  0  0  0
  191.3070  177.5360  142.2300 C   0  0  0  0  0  0  0  0  0  0  0  0
  189.1880  177.5080  141.0480 C   0  0  0  0  0  3  0  0  0  0  0  0
  189.2570  177.9440  143.4370 O   0  0  0  0  0  0  0  0  0  0  0  0
  189.1060  178.4120  137.8160 C   0  0  0  0  0  1  0  0  0  0  0  0
  189.8640  177.2440  139.8520 C   0  0  0  0  0  0  0  0  0  0  0  0
  189.1020  177.0930  138.5750 C   0  0  2  0  0  3  0  0  0  0  0  0
  191.2430  175.9890  137.5770 C   0  0  1  0  0  3  0  0  0  0  0  0
  191.3170  177.6200  144.6860 C   0  0  0  0  0  2  0  0  0  0  0  0
  189.9100  177.6620  142.2350 C   0  0  0  0  0  0  0  0  0  0  0  0
  192.0050  177.6590  143.4350 O   0  0  0  0  0  0  0  0  0  0  0  0
  189.7100  175.9380  137.7630 C   0  0  2  0  0  3  0  0  0  0  0  0
  191.9870  177.2940  141.0330 C   0  0  0  0  0  3  0  0  0  0  0  0
  191.9990  176.9120  138.5540 C   0  0  0  0  0  2  0  0  0  0  0  0
  189.2330  178.1710  145.7360 O   0  0  0  0  0  0  0  0  0  0  0  0
  188.2320  177.2790  145.3460 C   0  0  0  0  0  2  0  0  0  0  0  0
  186.8920  177.7200  145.9080 C   0  0  0  0  0  2  0  0  0  0  0  0
  184.4760  178.7340  145.7070 C   0  0  0  0  0  1  0  0  0  0  0  0
  185.7360  178.1090  144.5600 S   0  0  0  0  0  0  0  0  0  0  0  0
  188.9360  175.5830  136.4910 C   0  0  0  0  0  2  0  0  0  0  0  0
  188.4490  173.0430  136.8750 C   0  0  0  0  0  1  0  0  0  0  0  0
  187.4620  174.5630  136.8180 S   0  0  0  0  0  0  0  0  0  0  0  0
  191.8620  174.5900  137.4950 C   0  0  0  0  0  2  0  0  0  0  0  0
  193.1980  174.5970  136.8830 N   0  0  0  0  0  0  0  0  0  0  0  0
  194.2920  176.4970  135.6930 C   0  0  0  0  0  2  0  0  0  0  0  0
  194.5400  174.5540  134.8220 C   0  0  0  0  0  2  0  0  0  0  0  0
  193.4260  175.2480  135.5870 C   0  0  0  0  0  3  0  0  0  0  0  0
  195.3940  175.8020  134.9210 C   0  0  0  0  0  2  0  0  0  0  0  0
  195.1090  174.1800  138.3590 C   0  0  0  0  0  3  0  0  0  0  0  0
  194.2710  173.7900  137.3990 C   0  0  0  0  0  3  0  0  0  0  0  0
  194.9860  175.4070  139.0000 O   0  0  0  0  0  1  0  0  0  0  0  0
  1 10  1  0  0  0  0
  1 16  1  1  0  0  0
  2  7  2  0  0  0  0
  2 14  1  0  0  0  0
  3 11  1  0  0  0  0
  3 12  1  0  0  0  0
  4 11  2  0  0  0  0
  5  1  1  0  0  0  0
  7  4  1  0  0  0  0
  8  6  1  6  0  0  0
  8  7  1  0  0  0  0
  9 24  1  1  0  0  0
  9 13  1  0  0  0  0
  9 15  1  0  0  0  0
 11  5  1  0  0  0  0
 12 10  1  0  0  0  0
 13 21  1  6  0  0  0
 13  8  1  0  0  0  0
 14  3  2  0  0  0  0
 15  2  1  0  0  0  0
 17 16  1  0  0  0  0
 17 18  1  0  0  0  0
 20 19  1  0  0  0  0
 20 18  1  0  0  0  0
 21 23  1  0  0  0  0
 23 22  1  0  0  0  0
 25 31  1  0  0  0  0
 25 24  1  0  0  0  0
 27 29  1  0  0  0  0
 27 28  1  0  0  0  0
 28 26  1  0  0  0  0
 28 25  1  0  0  0  0
 29 26  1  0  0  0  0
 30 32  1  0  0  0  0
 31 30  2  0  0  0  0
M  END
>  <MODEL>
5

>  <REMARK>
 VINA RESULT:      -6.4      3.360      9.575
  Name = 
  10 active torsions:
  status: ('A' for Active; 'I' for Inactive)
    1  A    between atoms: C_2  and  O_24
    2  A    between atoms: S_5  and  C_25
    3  A    between atoms: C_7  and  N_32
    4  A    between atoms: C_10  and  C_20
    5  A    between atoms: C_10  and  O_24
    6  A    between atoms: C_16  and  C_27
    7  A    between atoms: S_17  and  C_20
    8  A    between atoms: C_22  and  N_32
    9  A    between atoms: C_25  and  C_26
   10  A    between atoms: C_27  and  N_32
                            x       y       z     vdW  Elec       q    Type
                         _______ _______ _______ _____ _____    ______ ____

>  <TORSDO>
F 10

$$$$
=
 OpenBabel10272413353D

 32 35  0  0  1  0  0  0  0  0999 V2000
  182.3690  178.9020  138.4410 C   0  0  2  0  0  3  0  0  0  0  0  0
  186.9940  178.5350  140.4670 C   0  0  0  0  0  0  0  0  0  0  0  0
  184.6040  178.7470  140.1630 C   0  0  0  0  0  0  0  0  0  0  0  0
  186.0010  178.0690  138.2970 C   0  0  0  0  0  3  0  0  0  0  0  0
  183.6030  178.3240  138.0070 O   0  0  0  0  0  0  0  0  0  0  0  0
  189.1850  179.1250  138.1710 C   0  0  0  0  0  1  0  0  0  0  0  0
  187.1290  178.1470  139.1200 C   0  0  0  0  0  0  0  0  0  0  0  0
  188.4840  177.8350  138.5700 C   0  0  2  0  0  3  0  0  0  0  0  0
  189.2970  177.6230  141.0390 C   0  0  1  0  0  3  0  0  0  0  0  0
  182.1590  178.6460  139.9360 C   0  0  0  0  0  2  0  0  0  0  0  0
  184.7400  178.3770  138.8160 C   0  0  0  0  0  0  0  0  0  0  0  0
  183.3290  179.0150  140.6680 O   0  0  0  0  0  0  0  0  0  0  0  0
  189.2730  177.0280  139.6140 C   0  0  2  0  0  3  0  0  0  0  0  0
  185.7320  178.8460  140.9810 C   0  0  0  0  0  3  0  0  0  0  0  0
  188.2100  178.6760  141.3360 C   0  0  0  0  0  2  0  0  0  0  0  0
  181.3110  178.3570  137.7130 O   0  0  0  0  0  0  0  0  0  0  0  0
  181.1520  177.0690  138.2260 C   0  0  0  0  0  2  0  0  0  0  0  0
  180.8030  176.1010  137.1100 C   0  0  0  0  0  2  0  0  0  0  0  0
  182.8970  175.1410  138.3750 C   0  0  0  0  0  1  0  0  0  0  0  0
  182.2440  175.0780  136.6830 S   0  0  0  0  0  0  0  0  0  0  0  0
  190.6320  176.5200  139.1250 C   0  0  0  0  0  2  0  0  0  0  0  0
  192.2340  175.8930  137.1550 C   0  0  0  0  0  1  0  0  0  0  0  0
  190.5140  175.5290  137.6010 S   0  0  0  0  0  0  0  0  0  0  0  0
  189.3690  176.5370  142.1180 C   0  0  0  0  0  2  0  0  0  0  0  0
  189.4870  177.0930  143.4730 N   0  0  0  0  0  0  0  0  0  0  0  0
  187.9570  178.0370  145.2020 C   0  0  0  0  0  2  0  0  0  0  0  0
  187.1120  176.5880  143.8690 C   0  0  0  0  0  2  0  0  0  0  0  0
  188.4790  176.7920  144.4980 C   0  0  0  0  0  3  0  0  0  0  0  0
  186.5940  177.8210  144.5790 C   0  0  0  0  0  2  0  0  0  0  0  0
  191.5030  177.9370  144.5810 C   0  0  0  0  0  3  0  0  0  0  0  0
  190.4450  178.1170  143.7900 C   0  0  0  0  0  3  0  0  0  0  0  0
  191.8130  176.7020  145.1380 O   0  0  0  0  0  1  0  0  0  0  0  0
  1 16  1  6  0  0  0
  1 10  1  0  0  0  0
  2 14  1  0  0  0  0
  2 15  1  0  0  0  0
  3 12  1  0  0  0  0
  3 14  2  0  0  0  0
  4 11  2  0  0  0  0
  4  7  1  0  0  0  0
  5  1  1  0  0  0  0
  5 11  1  0  0  0  0
  7  2  2  0  0  0  0
  8  6  1  1  0  0  0
  8  7  1  0  0  0  0
  8 13  1  0  0  0  0
  9 15  1  0  0  0  0
  9 24  1  1  0  0  0
 10 12  1  0  0  0  0
 11  3  1  0  0  0  0
 13 21  1  6  0  0  0
 13  9  1  0  0  0  0
 16 17  1  0  0  0  0
 18 17  1  0  0  0  0
 20 18  1  0  0  0  0
 20 19  1  0  0  0  0
 22 23  1  0  0  0  0
 23 21  1  0  0  0  0
 24 25  1  0  0  0  0
 25 31  1  0  0  0  0
 25 28  1  0  0  0  0
 27 28  1  0  0  0  0
 27 29  1  0  0  0  0
 28 26  1  0  0  0  0
 29 26  1  0  0  0  0
 30 32  1  0  0  0  0
 31 30  2  0  0  0  0
M  END
>  <MODEL>
6

>  <REMARK>
 VINA RESULT:      -6.3      4.798      7.344
  Name = 
  10 active torsions:
  status: ('A' for Active; 'I' for Inactive)
    1  A    between atoms: C_2  and  O_24
    2  A    between atoms: S_5  and  C_25
    3  A    between atoms: C_7  and  N_32
    4  A    between atoms: C_10  and  C_20
    5  A    between atoms: C_10  and  O_24
    6  A    between atoms: C_16  and  C_27
    7  A    between atoms: S_17  and  C_20
    8  A    between atoms: C_22  and  N_32
    9  A    between atoms: C_25  and  C_26
   10  A    between atoms: C_27  and  N_32
                            x       y       z     vdW  Elec       q    Type
                         _______ _______ _______ _____ _____    ______ ____

>  <TORSDO>
F 10

$$$$
=
 OpenBabel10272413353D

 32 35  0  0  1  0  0  0  0  0999 V2000
  189.4920  177.9720  145.4110 C   0  0  2  0  0  3  0  0  0  0  0  0
  191.0180  177.2870  140.6320 C   0  0  0  0  0  0  0  0  0  0  0  0
  190.9260  177.3920  143.0470 C   0  0  0  0  0  0  0  0  0  0  0  0
  188.8790  177.5590  141.7560 C   0  0  0  0  0  3  0  0  0  0  0  0
  188.8170  177.6980  144.1800 O   0  0  0  0  0  0  0  0  0  0  0  0
  188.9980  178.8550  138.6610 C   0  0  0  0  0  1  0  0  0  0  0  0
  189.6180  177.4280  140.5760 C   0  0  0  0  0  0  0  0  0  0  0  0
  188.9280  177.4530  139.2500 C   0  0  2  0  0  3  0  0  0  0  0  0
  191.1040  176.4280  138.2420 C   0  0  1  0  0  3  0  0  0  0  0  0
  190.7960  177.1740  145.4920 C   0  0  0  0  0  2  0  0  0  0  0  0
  189.5340  177.5490  142.9900 C   0  0  0  0  0  0  0  0  0  0  0  0
  191.5560  177.3490  144.2940 O   0  0  0  0  0  0  0  0  0  0  0  0
  189.5620  176.3920  138.3360 C   0  0  2  0  0  3  0  0  0  0  0  0
  191.6690  177.2810  141.8690 C   0  0  0  0  0  3  0  0  0  0  0  0
  191.8180  177.2050  139.3650 C   0  0  0  0  0  2  0  0  0  0  0  0
  188.6650  177.6420  146.4850 O   0  0  0  0  0  0  0  0  0  0  0  0
  187.3730  177.6550  145.9560 C   0  0  0  0  0  2  0  0  0  0  0  0
  186.4390  178.4210  146.8760 C   0  0  0  0  0  2  0  0  0  0  0  0
  185.5570  178.3780  144.4010 C   0  0  0  0  0  1  0  0  0  0  0  0
  184.8690  178.7800  146.0320 S   0  0  0  0  0  0  0  0  0  0  0  0
  188.8570  176.2140  136.9890 C   0  0  0  0  0  2  0  0  0  0  0  0
  186.2690  175.8670  136.8360 C   0  0  0  0  0  1  0  0  0  0  0  0
  187.7220  174.7890  136.9640 S   0  0  0  0  0  0  0  0  0  0  0  0
  191.7020  175.0350  138.0220 C   0  0  0  0  0  2  0  0  0  0  0  0
  192.8140  175.0420  137.0610 N   0  0  0  0  0  0  0  0  0  0  0  0
  191.2330  174.0070  135.4320 C   0  0  0  0  0  2  0  0  0  0  0  0
  192.5750  175.4840  134.6530 C   0  0  0  0  0  2  0  0  0  0  0  0
  192.6660  174.4240  135.7370 C   0  0  0  0  0  3  0  0  0  0  0  0
  191.1540  175.0590  134.3460 C   0  0  0  0  0  2  0  0  0  0  0  0
  195.0130  174.6460  138.0670 C   0  0  0  0  0  3  0  0  0  0  0  0
  194.1420  175.4390  137.4430 C   0  0  0  0  0  3  0  0  0  0  0  0
  194.7300  173.3170  138.3610 O   0  0  0  0  0  1  0  0  0  0  0  0
  1 10  1  0  0  0  0
  1 16  1  1  0  0  0
  2 14  1  0  0  0  0
  3 12  1  0  0  0  0
  4 11  2  0  0  0  0
  5  1  1  0  0  0  0
  7  2  2  0  0  0  0
  7  4  1  0  0  0  0
  8  6  1  6  0  0  0
  8  7  1  0  0  0  0
  9 24  1  1  0  0  0
  9 13  1  0  0  0  0
  9 15  1  0  0  0  0
 11  3  1  0  0  0  0
 11  5  1  0  0  0  0
 12 10  1  0  0  0  0
 13 21  1  6  0  0  0
 13  8  1  0  0  0  0
 14  3  2  0  0  0  0
 15  2  1  0  0  0  0
 17 16  1  0  0  0  0
 17 18  1  0  0  0  0
 19 20  1  0  0  0  0
 20 18  1  0  0  0  0
 22 23  1  0  0  0  0
 23 21  1  0  0  0  0
 25 31  1  0  0  0  0
 25 24  1  0  0  0  0
 26 28  1  0  0  0  0
 27 28  1  0  0  0  0
 28 25  1  0  0  0  0
 29 27  1  0  0  0  0
 29 26  1  0  0  0  0
 30 32  1  0  0  0  0
 31 30  2  0  0  0  0
M  END
>  <MODEL>
7

>  <REMARK>
 VINA RESULT:      -6.2      3.429      9.446
  Name = 
  10 active torsions:
  status: ('A' for Active; 'I' for Inactive)
    1  A    between atoms: C_2  and  O_24
    2  A    between atoms: S_5  and  C_25
    3  A    between atoms: C_7  and  N_32
    4  A    between atoms: C_10  and  C_20
    5  A    between atoms: C_10  and  O_24
    6  A    between atoms: C_16  and  C_27
    7  A    between atoms: S_17  and  C_20
    8  A    between atoms: C_22  and  N_32
    9  A    between atoms: C_25  and  C_26
   10  A    between atoms: C_27  and  N_32
                            x       y       z     vdW  Elec       q    Type
                         _______ _______ _______ _____ _____    ______ ____

>  <TORSDO>
F 10

$$$$
=
 OpenBabel10272413353D

 32 35  0  0  1  0  0  0  0  0999 V2000
  182.2920  179.0220  138.8350 C   0  0  2  0  0  3  0  0  0  0  0  0
  186.9590  178.5880  140.7490 C   0  0  0  0  0  0  0  0  0  0  0  0
  184.5650  178.8330  140.5020 C   0  0  0  0  0  0  0  0  0  0  0  0
  185.9080  178.1420  138.6020 C   0  0  0  0  0  3  0  0  0  0  0  0
  183.5070  178.4290  138.3700 O   0  0  0  0  0  0  0  0  0  0  0  0
  189.1020  179.1560  138.4030 C   0  0  0  0  0  1  0  0  0  0  0  0
  187.0560  178.2030  139.3990 C   0  0  0  0  0  0  0  0  0  0  0  0
  188.3940  177.8740  138.8160 C   0  0  2  0  0  3  0  0  0  0  0  0
  189.2620  177.6450  141.2640 C   0  0  1  0  0  3  0  0  0  0  0  0
  182.1140  178.7650  140.3340 C   0  0  0  0  0  2  0  0  0  0  0  0
  184.6650  178.4650  139.1520 C   0  0  0  0  0  0  0  0  0  0  0  0
  183.3060  179.1160  141.0390 O   0  0  0  0  0  0  0  0  0  0  0  0
  189.1970  177.0530  139.8380 C   0  0  2  0  0  3  0  0  0  0  0  0
  185.7130  178.9140  141.2940 C   0  0  0  0  0  3  0  0  0  0  0  0
  188.1970  178.7110  141.5890 C   0  0  0  0  0  2  0  0  0  0  0  0
  181.2100  178.4930  138.1300 O   0  0  0  0  0  0  0  0  0  0  0  0
  180.1420  179.3400  138.4300 C   0  0  0  0  0  2  0  0  0  0  0  0
  180.4180  180.7370  137.9030 C   0  0  0  0  0  2  0  0  0  0  0  0
  180.6210  182.5430  136.0050 C   0  0  0  0  0  1  0  0  0  0  0  0
  179.9830  180.8490  136.1420 S   0  0  0  0  0  0  0  0  0  0  0  0
  190.5370  176.5300  139.3160 C   0  0  0  0  0  2  0  0  0  0  0  0
  193.0960  176.7050  138.8030 C   0  0  0  0  0  1  0  0  0  0  0  0
  191.9680  177.3840  140.0520 S   0  0  0  0  0  0  0  0  0  0  0  0
  189.3460  176.5550  142.3380 C   0  0  0  0  0  2  0  0  0  0  0  0
  189.5540  177.1030  143.6850 N   0  0  0  0  0  0  0  0  0  0  0  0
  188.2670  178.0390  145.6060 C   0  0  0  0  0  2  0  0  0  0  0  0
  187.1790  176.7900  144.2460 C   0  0  0  0  0  2  0  0  0  0  0  0
  188.6050  176.8140  144.7680 C   0  0  0  0  0  3  0  0  0  0  0  0
  186.8440  178.0040  145.0890 C   0  0  0  0  0  2  0  0  0  0  0  0
  191.6070  177.9340  144.7350 C   0  0  0  0  0  3  0  0  0  0  0  0
  190.5450  178.1110  143.9470 C   0  0  0  0  0  3  0  0  0  0  0  0
  191.8860  176.7160  145.3430 O   0  0  0  0  0  1  0  0  0  0  0  0
  1 16  1  6  0  0  0
  1 10  1  0  0  0  0
  2 14  1  0  0  0  0
  2 15  1  0  0  0  0
  3 12  1  0  0  0  0
  3 14  2  0  0  0  0
  4 11  2  0  0  0  0
  4  7  1  0  0  0  0
  5  1  1  0  0  0  0
  5 11  1  0  0  0  0
  7  2  2  0  0  0  0
  8  6  1  1  0  0  0
  8  7  1  0  0  0  0
  8 13  1  0  0  0  0
  9 15  1  0  0  0  0
  9 24  1  1  0  0  0
 10 12  1  0  0  0  0
 11  3  1  0  0  0  0
 13 21  1  6  0  0  0
 13  9  1  0  0  0  0
 16 17  1  0  0  0  0
 18 17  1  0  0  0  0
 19 20  1  0  0  0  0
 20 18  1  0  0  0  0
 21 23  1  0  0  0  0
 22 23  1  0  0  0  0
 24 25  1  0  0  0  0
 25 31  1  0  0  0  0
 25 28  1  0  0  0  0
 27 28  1  0  0  0  0
 27 29  1  0  0  0  0
 28 26  1  0  0  0  0
 29 26  1  0  0  0  0
 30 32  1  0  0  0  0
 31 30  2  0  0  0  0
M  END
>  <MODEL>
8

>  <REMARK>
 VINA RESULT:      -6.0      5.310      7.904
  Name = 
  10 active torsions:
  status: ('A' for Active; 'I' for Inactive)
    1  A    between atoms: C_2  and  O_24
    2  A    between atoms: S_5  and  C_25
    3  A    between atoms: C_7  and  N_32
    4  A    between atoms: C_10  and  C_20
    5  A    between atoms: C_10  and  O_24
    6  A    between atoms: C_16  and  C_27
    7  A    between atoms: S_17  and  C_20
    8  A    between atoms: C_22  and  N_32
    9  A    between atoms: C_25  and  C_26
   10  A    between atoms: C_27  and  N_32
                            x       y       z     vdW  Elec       q    Type
                         _______ _______ _______ _____ _____    ______ ____

>  <TORSDO>
F 10

$$$$
=
 OpenBabel10272413353D

 32 35  0  0  1  0  0  0  0  0999 V2000
  190.1600  177.9120  142.6700 C   0  0  2  0  0  3  0  0  0  0  0  0
  189.7870  177.2240  137.6680 C   0  0  0  0  0  0  0  0  0  0  0  0
  190.6060  177.3300  139.9420 C   0  0  0  0  0  0  0  0  0  0  0  0
  188.2240  177.4980  139.5110 C   0  0  0  0  0  3  0  0  0  0  0  0
  189.0740  177.6380  141.7810 O   0  0  0  0  0  0  0  0  0  0  0  0
  187.1770  178.7930  136.5950 C   0  0  0  0  0  1  0  0  0  0  0  0
  188.4680  177.3670  138.1400 C   0  0  0  0  0  0  0  0  0  0  0  0
  187.3320  177.3910  137.1680 C   0  0  2  0  0  3  0  0  0  0  0  0
  188.9720  176.3650  135.4200 C   0  0  1  0  0  3  0  0  0  0  0  0
  191.3990  177.1120  142.2580 C   0  0  0  0  0  2  0  0  0  0  0  0
  189.2930  177.4880  140.4100 C   0  0  0  0  0  0  0  0  0  0  0  0
  191.6560  177.2870  140.8630 O   0  0  0  0  0  0  0  0  0  0  0  0
  187.5770  176.3290  136.0840 C   0  0  2  0  0  3  0  0  0  0  0  0
  190.8540  177.2180  138.5710 C   0  0  0  0  0  3  0  0  0  0  0  0
  190.0550  177.1420  136.1940 C   0  0  0  0  0  2  0  0  0  0  0  0
  189.7950  177.5820  143.9760 O   0  0  0  0  0  0  0  0  0  0  0  0
  188.4000  177.6410  143.9810 C   0  0  0  0  0  2  0  0  0  0  0  0
  187.8830  177.6700  145.4080 C   0  0  0  0  0  2  0  0  0  0  0  0
  188.2340  177.8010  148.0100 C   0  0  0  0  0  1  0  0  0  0  0  0
  189.2230  177.2890  146.5760 S   0  0  0  0  0  0  0  0  0  0  0  0
  186.4190  176.1520  135.0980 C   0  0  0  0  0  2  0  0  0  0  0  0
  184.2510  175.4360  136.3740 C   0  0  0  0  0  1  0  0  0  0  0  0
  185.4990  174.6010  135.3570 S   0  0  0  0  0  0  0  0  0  0  0  0
  189.4440  174.9710  134.9920 C   0  0  0  0  0  2  0  0  0  0  0  0
  189.9170  174.1620  136.1230 N   0  0  0  0  0  0  0  0  0  0  0  0
  192.2320  174.3880  135.2220 C   0  0  0  0  0  2  0  0  0  0  0  0
  192.0520  174.1670  137.3450 C   0  0  0  0  0  2  0  0  0  0  0  0
  191.2870  173.6330  136.1470 C   0  0  0  0  0  3  0  0  0  0  0  0
  192.9960  174.9080  136.4210 C   0  0  0  0  0  2  0  0  0  0  0  0
  188.2310  172.6000  136.9750 C   0  0  0  0  0  3  0  0  0  0  0  0
  189.0160  173.6670  137.1290 C   0  0  0  0  0  3  0  0  0  0  0  0
  188.2540  171.8210  135.8240 O   0  0  0  0  0  1  0  0  0  0  0  0
  1 16  1  1  0  0  0
  2  7  2  0  0  0  0
  2 14  1  0  0  0  0
  3 11  1  0  0  0  0
  3 12  1  0  0  0  0
  4 11  2  0  0  0  0
  5  1  1  0  0  0  0
  7  4  1  0  0  0  0
  8  6  1  6  0  0  0
  8  7  1  0  0  0  0
  9 24  1  1  0  0  0
  9 13  1  0  0  0  0
  9 15  1  0  0  0  0
 10  1  1  0  0  0  0
 11  5  1  0  0  0  0
 12 10  1  0  0  0  0
 13 21  1  6  0  0  0
 13  8  1  0  0  0  0
 14  3  2  0  0  0  0
 15  2  1  0  0  0  0
 16 17  1  0  0  0  0
 17 18  1  0  0  0  0
 18 20  1  0  0  0  0
 20 19  1  0  0  0  0
 21 23  1  0  0  0  0
 23 22  1  0  0  0  0
 24 25  1  0  0  0  0
 25 28  1  0  0  0  0
 25 31  1  0  0  0  0
 26 28  1  0  0  0  0
 26 29  1  0  0  0  0
 28 27  1  0  0  0  0
 29 27  1  0  0  0  0
 30 31  2  0  0  0  0
 32 30  1  0  0  0  0
M  END
>  <MODEL>
9

>  <REMARK>
 VINA RESULT:      -5.5      3.748      9.440
  Name = 
  10 active torsions:
  status: ('A' for Active; 'I' for Inactive)
    1  A    between atoms: C_2  and  O_24
    2  A    between atoms: S_5  and  C_25
    3  A    between atoms: C_7  and  N_32
    4  A    between atoms: C_10  and  C_20
    5  A    between atoms: C_10  and  O_24
    6  A    between atoms: C_16  and  C_27
    7  A    between atoms: S_17  and  C_20
    8  A    between atoms: C_22  and  N_32
    9  A    between atoms: C_25  and  C_26
   10  A    between atoms: C_27  and  N_32
                            x       y       z     vdW  Elec       q    Type
                         _______ _______ _______ _____ _____    ______ ____

>  <TORSDO>
F 10

$$$$
