=
 OpenBabel10272413433D

 30 33  0  0  1  0  0  0  0  0999 V2000
  185.3090  176.9620  137.3400 C   0  0  0  0  0  0  0  0  0  0  0  0
  183.8430  177.3650  137.4470 C   0  0  1  0  0  3  0  0  0  0  0  0
  185.6540  175.6690  137.2920 C   0  0  0  0  0  3  0  0  0  0  0  0
  182.3240  174.1410  136.7930 O   0  0  0  0  0  0  0  0  0  0  0  0
  183.2490  174.9910  136.8850 C   0  0  0  0  0  0  0  0  0  0  0  0
  185.0580  173.3450  137.4220 C   0  0  0  0  0  3  0  0  0  0  0  0
  184.6440  174.6020  137.2270 C   0  0  0  0  0  0  0  0  0  0  0  0
  182.9410  176.4380  136.6130 C   0  0  2  0  0  3  0  0  0  0  0  0
  187.1100  177.9100  135.8640 C   0  0  0  0  0  0  0  0  0  0  0  0
  188.4440  177.2290  135.7310 C   0  0  0  0  0  2  0  0  0  0  0  0
  186.5570  178.3440  134.8630 O   0  0  0  0  0  0  0  0  0  0  0  0
  187.3540  178.0200  138.3950 C   0  0  0  0  0  2  0  0  0  0  0  0
  189.4030  177.1000  139.4430 C   0  0  0  0  0  1  0  0  0  0  0  0
  186.3990  177.9860  137.1940 C   0  0  2  0  0  3  0  0  0  0  0  0
  189.2990  177.4070  136.9820 C   0  0  0  0  0  2  0  0  0  0  0  0
  188.5060  177.0360  138.2270 C   0  0  2  0  0  3  0  0  0  0  0  0
  181.8160  177.1920  134.4040 C   0  0  0  0  0  2  0  0  0  0  0  0
  182.8010  178.1090  134.8340 O   0  0  0  0  0  0  0  0  0  0  0  0
  184.0530  176.2210  134.3460 O   0  0  0  0  0  1  0  0  0  0  0  0
  183.0230  176.7540  135.1230 C   0  0  1  0  0  0  0  0  0  0  0  0
  182.4370  176.3840  139.2260 O   0  0  0  0  0  0  0  0  0  0  0  0
  181.5640  178.1680  140.5610 C   0  0  0  0  0  1  0  0  0  0  0  0
  183.2980  177.4390  138.8870 C   0  0  2  0  0  0  0  0  0  0  0  0
  181.8510  177.6690  139.1540 C   0  0  1  0  0  3  0  0  0  0  0  0
  184.4640  179.9890  139.4890 O   0  0  0  0  0  0  0  0  0  0  0  0
  184.7740  179.0140  140.2210 C   0  0  0  0  0  0  0  0  0  0  0  0
  185.6920  179.2240  141.3720 C   0  0  0  0  0  1  0  0  0  0  0  0
  184.2520  177.7100  139.9600 N   0  0  0  0  0  2  0  0  0  0  0  0
  184.3520  171.4100  136.0610 C   0  0  0  0  0  1  0  0  0  0  0  0
  184.1900  172.1290  137.3870 C   0  0  0  0  0  2  0  0  0  0  0  0
  2  1  1  1  0  0  0
  2 23  1  0  0  0  0
  3  1  2  0  0  0  0
  4  5  2  0  0  0  0
  5  7  1  0  0  0  0
  7  3  1  0  0  0  0
  7  6  2  0  0  0  0
  8  5  1  6  0  0  0
  8  2  1  0  0  0  0
  9 14  1  0  0  0  0
 10  9  1  0  0  0  0
 10 15  1  0  0  0  0
 11  9  2  0  0  0  0
 14  1  1  1  0  0  0
 14 12  1  0  0  0  0
 15 16  1  0  0  0  0
 16 12  1  0  0  0  0
 16 13  1  1  0  0  0
 17 18  1  0  0  0  0
 17 20  1  0  0  0  0
 18 20  1  0  0  0  0
 20 19  1  6  0  0  0
 20  8  1  0  0  0  0
 23 24  1  0  0  0  0
 23 21  1  0  0  0  0
 23 28  1  1  0  0  0
 24 21  1  0  0  0  0
 24 22  1  1  0  0  0
 25 26  2  0  0  0  0
 26 27  1  0  0  0  0
 28 26  1  0  0  0  0
 29 30  1  0  0  0  0
 30  6  1  0  0  0  0
M  END
>  <MODEL>
1

>  <REMARK>
 VINA RESULT:      -5.3      0.000      0.000
  Name = 
  5 active torsions:
  status: ('A' for Active; 'I' for Inactive)
    1  A    between atoms: C_1  and  C_22
    2  A    between atoms: C_4  and  C_23
    3  A    between atoms: C_9  and  C_21
    4  A    between atoms: C_13  and  C_30
    5  A    between atoms: C_23  and  N_25
                            x       y       z     vdW  Elec       q    Type
                         _______ _______ _______ _____ _____    ______ ____

>  <TORSDO>
F 5

$$$$
=
 OpenBabel10272413433D

 30 33  0  0  1  0  0  0  0  0999 V2000
  184.9740  178.0990  138.6830 C   0  0  0  0  0  0  0  0  0  0  0  0
  184.5460  179.0970  139.7520 C   0  0  1  0  0  3  0  0  0  0  0  0
  184.2430  177.0020  138.4490 C   0  0  0  0  0  3  0  0  0  0  0  0
  181.2170  177.8260  140.4080 O   0  0  0  0  0  0  0  0  0  0  0  0
  182.3250  177.9280  139.8170 C   0  0  0  0  0  0  0  0  0  0  0  0
  182.4100  175.5570  139.0190 C   0  0  0  0  0  3  0  0  0  0  0  0
  182.9560  176.7740  139.1230 C   0  0  0  0  0  0  0  0  0  0  0  0
  183.0170  179.2640  139.7880 C   0  0  2  0  0  3  0  0  0  0  0  0
  186.2130  177.4440  136.5960 C   0  0  0  0  0  0  0  0  0  0  0  0
  187.1020  176.2310  136.5690 C   0  0  0  0  0  2  0  0  0  0  0  0
  185.4610  177.6550  135.6550 O   0  0  0  0  0  0  0  0  0  0  0  0
  187.4860  178.4030  138.5790 C   0  0  0  0  0  2  0  0  0  0  0  0
  189.4000  177.1290  139.5070 C   0  0  0  0  0  1  0  0  0  0  0  0
  186.1640  178.3510  137.8010 C   0  0  2  0  0  3  0  0  0  0  0  0
  188.4020  176.4630  137.3330 C   0  0  0  0  0  2  0  0  0  0  0  0
  188.1120  177.0200  138.7190 C   0  0  2  0  0  3  0  0  0  0  0  0
  181.8750  181.4230  138.9240 C   0  0  0  0  0  2  0  0  0  0  0  0
  183.2190  181.3310  138.4990 O   0  0  0  0  0  0  0  0  0  0  0  0
  182.2220  179.5510  137.3990 O   0  0  0  0  0  1  0  0  0  0  0  0
  182.5110  180.1280  138.6370 C   0  0  1  0  0  0  0  0  0  0  0  0
  185.9370  179.7380  141.6910 O   0  0  0  0  0  0  0  0  0  0  0  0
  186.7250  177.7380  142.7420 C   0  0  0  0  0  1  0  0  0  0  0  0
  185.0540  178.7780  141.1720 C   0  0  2  0  0  0  0  0  0  0  0  0
  186.4870  178.4630  141.4270 C   0  0  1  0  0  3  0  0  0  0  0  0
  184.4480  180.1850  143.5960 O   0  0  0  0  0  0  0  0  0  0  0  0
  183.7960  179.1390  143.3460 C   0  0  0  0  0  0  0  0  0  0  0  0
  182.7290  178.6980  144.2840 C   0  0  0  0  0  1  0  0  0  0  0  0
  184.0660  178.3740  142.1700 N   0  0  0  0  0  2  0  0  0  0  0  0
  180.0550  174.9890  138.5410 C   0  0  0  0  0  1  0  0  0  0  0  0
  181.1100  175.1330  139.6220 C   0  0  0  0  0  2  0  0  0  0  0  0
  2  1  1  6  0  0  0
  2  8  1  0  0  0  0
  2 23  1  0  0  0  0
  3  1  2  0  0  0  0
  3  7  1  0  0  0  0
  5  4  2  0  0  0  0
  6  7  2  0  0  0  0
  6 30  1  0  0  0  0
  7  5  1  0  0  0  0
  8  5  1  6  0  0  0
  9 14  1  0  0  0  0
 10  9  1  0  0  0  0
 10 15  1  0  0  0  0
 11  9  2  0  0  0  0
 12 16  1  0  0  0  0
 14 12  1  0  0  0  0
 14  1  1  1  0  0  0
 15 16  1  0  0  0  0
 16 13  1  1  0  0  0
 18 20  1  0  0  0  0
 18 17  1  0  0  0  0
 20 19  1  6  0  0  0
 20 17  1  0  0  0  0
 20  8  1  0  0  0  0
 23 24  1  0  0  0  0
 23 21  1  0  0  0  0
 23 28  1  1  0  0  0
 24 21  1  0  0  0  0
 24 22  1  1  0  0  0
 26 25  2  0  0  0  0
 26 27  1  0  0  0  0
 28 26  1  0  0  0  0
 29 30  1  0  0  0  0
M  END
>  <MODEL>
2

>  <REMARK>
 VINA RESULT:      -4.7      2.483      3.818
  Name = 
  5 active torsions:
  status: ('A' for Active; 'I' for Inactive)
    1  A    between atoms: C_1  and  C_22
    2  A    between atoms: C_4  and  C_23
    3  A    between atoms: C_9  and  C_21
    4  A    between atoms: C_13  and  C_30
    5  A    between atoms: C_23  and  N_25
                            x       y       z     vdW  Elec       q    Type
                         _______ _______ _______ _____ _____    ______ ____

>  <TORSDO>
F 5

$$$$
=
 OpenBabel10272413433D

 30 33  0  0  1  0  0  0  0  0999 V2000
  194.0830  173.9830  137.6240 C   0  0  0  0  0  0  0  0  0  0  0  0
  193.9230  175.4940  137.5070 C   0  0  1  0  0  3  0  0  0  0  0  0
  193.3140  173.1620  136.8990 C   0  0  0  0  0  3  0  0  0  0  0  0
  191.7790  175.6080  134.5880 O   0  0  0  0  0  0  0  0  0  0  0  0
  192.5290  175.0910  135.4580 C   0  0  0  0  0  0  0  0  0  0  0  0
  191.4810  172.8180  135.3830 C   0  0  0  0  0  3  0  0  0  0  0  0
  192.3750  173.6750  135.8890 C   0  0  0  0  0  0  0  0  0  0  0  0
  193.6330  175.9190  136.0570 C   0  0  2  0  0  3  0  0  0  0  0  0
  196.2010  174.3610  138.9240 C   0  0  0  0  0  0  0  0  0  0  0  0
  197.5320  174.4580  138.2300 C   0  0  0  0  0  2  0  0  0  0  0  0
  195.9340  175.1520  139.8170 O   0  0  0  0  0  0  0  0  0  0  0  0
  195.7500  172.0920  137.8650 C   0  0  0  0  0  2  0  0  0  0  0  0
  197.4540  171.1150  136.3510 C   0  0  0  0  0  1  0  0  0  0  0  0
  195.1560  173.3680  138.4770 C   0  0  2  0  0  3  0  0  0  0  0  0
  198.0150  173.0990  137.7340 C   0  0  0  0  0  2  0  0  0  0  0  0
  196.9200  172.4030  136.9380 C   0  0  2  0  0  3  0  0  0  0  0  0
  195.4780  177.1450  134.7130 C   0  0  0  0  0  2  0  0  0  0  0  0
  196.0080  176.4480  135.8210 O   0  0  0  0  0  0  0  0  0  0  0  0
  195.2210  174.7300  134.4800 O   0  0  0  0  0  1  0  0  0  0  0  0
  194.8890  175.8840  135.1910 C   0  0  1  0  0  0  0  0  0  0  0  0
  192.7460  177.4990  138.3410 O   0  0  0  0  0  0  0  0  0  0  0  0
  192.1530  177.1240  140.6290 C   0  0  0  0  0  1  0  0  0  0  0  0
  192.8550  176.1040  138.4370 C   0  0  2  0  0  0  0  0  0  0  0  0
  193.2340  176.9950  139.5680 C   0  0  1  0  0  3  0  0  0  0  0  0
  190.4610  177.1640  137.2690 O   0  0  0  0  0  0  0  0  0  0  0  0
  190.3900  176.0440  137.8370 C   0  0  0  0  0  0  0  0  0  0  0  0
  189.0980  175.3080  137.8500 C   0  0  0  0  0  1  0  0  0  0  0  0
  191.5390  175.4700  138.4640 N   0  0  0  0  0  2  0  0  0  0  0  0
  189.0600  172.9700  134.9190 C   0  0  0  0  0  1  0  0  0  0  0  0
  190.4540  173.1450  134.3470 C   0  0  0  0  0  2  0  0  0  0  0  0
  2  1  1  6  0  0  0
  2 23  1  0  0  0  0
  3  1  2  0  0  0  0
  4  5  2  0  0  0  0
  5  7  1  0  0  0  0
  6  7  2  0  0  0  0
  7  3  1  0  0  0  0
  8  5  1  6  0  0  0
  8  2  1  0  0  0  0
  9 11  2  0  0  0  0
 10  9  1  0  0  0  0
 12 14  1  0  0  0  0
 14  1  1  6  0  0  0
 14  9  1  0  0  0  0
 15 10  1  0  0  0  0
 16 13  1  1  0  0  0
 16 15  1  0  0  0  0
 16 12  1  0  0  0  0
 17 20  1  0  0  0  0
 17 18  1  0  0  0  0
 20 19  1  6  0  0  0
 20 18  1  0  0  0  0
 20  8  1  0  0  0  0
 21 23  1  0  0  0  0
 21 24  1  0  0  0  0
 23 28  1  1  0  0  0
 23 24  1  0  0  0  0
 24 22  1  1  0  0  0
 25 26  2  0  0  0  0
 26 27  1  0  0  0  0
 26 28  1  0  0  0  0
 30 29  1  0  0  0  0
 30  6  1  0  0  0  0
M  END
>  <MODEL>
3

>  <REMARK>
 VINA RESULT:      -4.6      6.720      9.731
  Name = 
  5 active torsions:
  status: ('A' for Active; 'I' for Inactive)
    1  A    between atoms: C_1  and  C_22
    2  A    between atoms: C_4  and  C_23
    3  A    between atoms: C_9  and  C_21
    4  A    between atoms: C_13  and  C_30
    5  A    between atoms: C_23  and  N_25
                            x       y       z     vdW  Elec       q    Type
                         _______ _______ _______ _____ _____    ______ ____

>  <TORSDO>
F 5

$$$$
=
 OpenBabel10272413433D

 30 33  0  0  1  0  0  0  0  0999 V2000
  188.7030  176.6470  135.8990 C   0  0  0  0  0  0  0  0  0  0  0  0
  188.7830  175.8860  137.2170 C   0  0  1  0  0  3  0  0  0  0  0  0
  189.6790  176.5300  134.9900 C   0  0  0  0  0  3  0  0  0  0  0  0
  191.5540  173.6870  136.4320 O   0  0  0  0  0  0  0  0  0  0  0  0
  190.6540  174.5420  136.2180 C   0  0  0  0  0  0  0  0  0  0  0  0
  191.8420  175.7040  134.3460 C   0  0  0  0  0  3  0  0  0  0  0  0
  190.7960  175.5910  135.1730 C   0  0  0  0  0  0  0  0  0  0  0  0
  189.3840  174.4830  137.0240 C   0  0  2  0  0  3  0  0  0  0  0  0
  187.0750  178.4140  136.6360 C   0  0  0  0  0  0  0  0  0  0  0  0
  185.9260  178.0810  137.5480 C   0  0  0  0  0  2  0  0  0  0  0  0
  187.7220  179.4320  136.8370 O   0  0  0  0  0  0  0  0  0  0  0  0
  186.3470  176.6320  134.9730 C   0  0  0  0  0  2  0  0  0  0  0  0
  184.3260  175.2830  135.4680 C   0  0  0  0  0  1  0  0  0  0  0  0
  187.5010  177.4710  135.5370 C   0  0  2  0  0  3  0  0  0  0  0  0
  184.8340  177.3000  136.8230 C   0  0  0  0  0  2  0  0  0  0  0  0
  185.4320  176.1150  136.0780 C   0  0  2  0  0  3  0  0  0  0  0  0
  187.9440  172.3340  137.1760 C   0  0  0  0  0  2  0  0  0  0  0  0
  187.1480  173.4970  137.0810 O   0  0  0  0  0  0  0  0  0  0  0  0
  188.2150  173.4540  135.0250 O   0  0  0  0  0  1  0  0  0  0  0  0
  188.3790  173.5130  136.4100 C   0  0  1  0  0  0  0  0  0  0  0  0
  190.2100  177.7790  137.9130 O   0  0  0  0  0  0  0  0  0  0  0  0
  191.6420  177.0310  139.6780 C   0  0  0  0  0  1  0  0  0  0  0  0
  189.5520  176.6150  138.3380 C   0  0  2  0  0  0  0  0  0  0  0  0
  191.0380  176.7080  138.3210 C   0  0  1  0  0  3  0  0  0  0  0  0
  188.8520  179.1650  139.4500 O   0  0  0  0  0  0  0  0  0  0  0  0
  188.5160  178.1330  140.0880 C   0  0  0  0  0  0  0  0  0  0  0  0
  187.7510  178.2730  141.3550 C   0  0  0  0  0  1  0  0  0  0  0  0
  188.8580  176.8330  139.6050 N   0  0  0  0  0  2  0  0  0  0  0  0
  194.2150  175.5850  135.0160 C   0  0  0  0  0  1  0  0  0  0  0  0
  193.0630  174.8430  134.3660 C   0  0  0  0  0  2  0  0  0  0  0  0
  2  1  1  6  0  0  0
  2 23  1  0  0  0  0
  3  7  1  0  0  0  0
  3  1  2  0  0  0  0
  5  4  2  0  0  0  0
  6 30  1  0  0  0  0
  6  7  2  0  0  0  0
  7  5  1  0  0  0  0
  8  5  1  6  0  0  0
  8  2  1  0  0  0  0
  9 11  2  0  0  0  0
  9 10  1  0  0  0  0
 12 14  1  0  0  0  0
 12 16  1  0  0  0  0
 14  1  1  1  0  0  0
 14  9  1  0  0  0  0
 15 10  1  0  0  0  0
 16 13  1  6  0  0  0
 16 15  1  0  0  0  0
 18 17  1  0  0  0  0
 20 19  1  6  0  0  0
 20  8  1  0  0  0  0
 20 18  1  0  0  0  0
 20 17  1  0  0  0  0
 21 24  1  0  0  0  0
 21 23  1  0  0  0  0
 23 28  1  1  0  0  0
 24 23  1  0  0  0  0
 24 22  1  1  0  0  0
 25 26  2  0  0  0  0
 26 27  1  0  0  0  0
 28 26  1  0  0  0  0
 30 29  1  0  0  0  0
M  END
>  <MODEL>
4

>  <REMARK>
 VINA RESULT:      -4.6      3.303      6.368
  Name = 
  5 active torsions:
  status: ('A' for Active; 'I' for Inactive)
    1  A    between atoms: C_1  and  C_22
    2  A    between atoms: C_4  and  C_23
    3  A    between atoms: C_9  and  C_21
    4  A    between atoms: C_13  and  C_30
    5  A    between atoms: C_23  and  N_25
                            x       y       z     vdW  Elec       q    Type
                         _______ _______ _______ _____ _____    ______ ____

>  <TORSDO>
F 5

$$$$
=
 OpenBabel10272413433D

 30 33  0  0  1  0  0  0  0  0999 V2000
  191.3510  175.6410  137.1250 C   0  0  0  0  0  0  0  0  0  0  0  0
  190.3390  176.7380  137.4320 C   0  0  1  0  0  3  0  0  0  0  0  0
  190.9550  174.3680  137.0070 C   0  0  0  0  0  3  0  0  0  0  0  0
  187.2890  174.8500  136.9200 O   0  0  0  0  0  0  0  0  0  0  0  0
  188.5280  175.0810  136.9060 C   0  0  0  0  0  0  0  0  0  0  0  0
  189.2380  172.6940  137.1670 C   0  0  0  0  0  3  0  0  0  0  0  0
  189.5330  173.9940  137.0540 C   0  0  0  0  0  0  0  0  0  0  0  0
  189.0050  176.4930  136.7060 C   0  0  2  0  0  3  0  0  0  0  0  0
  193.2050  175.6930  135.4290 C   0  0  0  0  0  0  0  0  0  0  0  0
  193.9440  174.4400  135.0460 C   0  0  0  0  0  2  0  0  0  0  0  0
  192.8650  176.4770  134.5540 O   0  0  0  0  0  0  0  0  0  0  0  0
  193.7460  175.3300  137.8880 C   0  0  0  0  0  2  0  0  0  0  0  0
  195.0850  173.3480  138.5420 C   0  0  0  0  0  1  0  0  0  0  0  0
  192.7960  175.9550  136.8580 C   0  0  2  0  0  3  0  0  0  0  0  0
  194.8930  173.9810  136.1500 C   0  0  0  0  0  2  0  0  0  0  0  0
  194.1660  173.9210  137.4850 C   0  0  2  0  0  3  0  0  0  0  0  0
  188.0530  177.6990  134.6190 C   0  0  0  0  0  2  0  0  0  0  0  0
  189.3140  178.2140  134.9970 O   0  0  0  0  0  0  0  0  0  0  0  0
  189.8300  176.0490  134.3520 O   0  0  0  0  0  1  0  0  0  0  0  0
  189.0900  176.8480  135.2240 C   0  0  1  0  0  0  0  0  0  0  0  0
  190.9120  177.9040  139.5330 O   0  0  0  0  0  0  0  0  0  0  0  0
  190.4670  176.4230  141.3590 C   0  0  0  0  0  1  0  0  0  0  0  0
  190.0640  176.9610  138.9330 C   0  0  2  0  0  0  0  0  0  0  0  0
  191.0610  176.5670  139.9670 C   0  0  1  0  0  3  0  0  0  0  0  0
  188.4340  179.2340  138.3000 O   0  0  0  0  0  0  0  0  0  0  0  0
  187.9130  178.3060  138.9720 C   0  0  0  0  0  0  0  0  0  0  0  0
  186.4850  178.4060  139.3750 C   0  0  0  0  0  1  0  0  0  0  0  0
  188.6760  177.1580  139.3460 N   0  0  0  0  0  2  0  0  0  0  0  0
  187.5150  171.4630  135.8980 C   0  0  0  0  0  1  0  0  0  0  0  0
  187.8600  172.1180  137.2220 C   0  0  0  0  0  2  0  0  0  0  0  0
  2  1  1  1  0  0  0
  2 23  1  0  0  0  0
  3  7  1  0  0  0  0
  3  1  2  0  0  0  0
  5  4  2  0  0  0  0
  5  7  1  0  0  0  0
  6 30  1  0  0  0  0
  7  6  2  0  0  0  0
  8  5  1  6  0  0  0
  8  2  1  0  0  0  0
  9 14  1  0  0  0  0
 10  9  1  0  0  0  0
 10 15  1  0  0  0  0
 11  9  2  0  0  0  0
 14  1  1  6  0  0  0
 14 12  1  0  0  0  0
 15 16  1  0  0  0  0
 16 12  1  0  0  0  0
 16 13  1  1  0  0  0
 17 18  1  0  0  0  0
 17 20  1  0  0  0  0
 18 20  1  0  0  0  0
 20 19  1  6  0  0  0
 20  8  1  0  0  0  0
 21 24  1  0  0  0  0
 23 28  1  1  0  0  0
 23 21  1  0  0  0  0
 23 24  1  0  0  0  0
 24 22  1  1  0  0  0
 25 26  2  0  0  0  0
 26 28  1  0  0  0  0
 26 27  1  0  0  0  0
 29 30  1  0  0  0  0
M  END
>  <MODEL>
5

>  <REMARK>
 VINA RESULT:      -4.4      3.971      6.094
  Name = 
  5 active torsions:
  status: ('A' for Active; 'I' for Inactive)
    1  A    between atoms: C_1  and  C_22
    2  A    between atoms: C_4  and  C_23
    3  A    between atoms: C_9  and  C_21
    4  A    between atoms: C_13  and  C_30
    5  A    between atoms: C_23  and  N_25
                            x       y       z     vdW  Elec       q    Type
                         _______ _______ _______ _____ _____    ______ ____

>  <TORSDO>
F 5

$$$$
=
 OpenBabel10272413433D

 30 33  0  0  1  0  0  0  0  0999 V2000
  183.6130  177.4480  138.4530 C   0  0  0  0  0  0  0  0  0  0  0  0
  182.8500  176.9800  139.6860 C   0  0  1  0  0  3  0  0  0  0  0  0
  183.2440  178.5640  137.8120 C   0  0  0  0  0  3  0  0  0  0  0  0
  180.8370  179.9370  140.2610 O   0  0  0  0  0  0  0  0  0  0  0  0
  181.7360  179.2290  139.7340 C   0  0  0  0  0  0  0  0  0  0  0  0
  181.7070  180.3870  137.5140 C   0  0  0  0  0  3  0  0  0  0  0  0
  182.1740  179.4320  138.3270 C   0  0  0  0  0  0  0  0  0  0  0  0
  182.4060  178.1650  140.5600 C   0  0  2  0  0  3  0  0  0  0  0  0
  185.9640  177.6790  137.5920 C   0  0  0  0  0  0  0  0  0  0  0  0
  186.2340  178.0280  136.1540 C   0  0  0  0  0  2  0  0  0  0  0  0
  186.6120  178.2260  138.4720 O   0  0  0  0  0  0  0  0  0  0  0  0
  184.5500  175.6800  136.9010 C   0  0  0  0  0  2  0  0  0  0  0  0
  184.2530  175.1970  134.4870 C   0  0  0  0  0  1  0  0  0  0  0  0
  184.8470  176.7380  137.9720 C   0  0  2  0  0  3  0  0  0  0  0  0
  185.9490  176.8540  135.2220 C   0  0  0  0  0  2  0  0  0  0  0  0
  184.5680  176.2770  135.4980 C   0  0  2  0  0  3  0  0  0  0  0  0
  183.4410  178.8530  142.8330 C   0  0  0  0  0  2  0  0  0  0  0  0
  184.1560  177.7970  142.2260 O   0  0  0  0  0  0  0  0  0  0  0  0
  184.5170  179.5540  140.7590 O   0  0  0  0  0  1  0  0  0  0  0  0
  183.5640  178.7380  141.3710 C   0  0  1  0  0  0  0  0  0  0  0  0
  180.4140  176.6030  139.8640 O   0  0  0  0  0  0  0  0  0  0  0  0
  180.0280  174.2460  140.0130 C   0  0  0  0  0  1  0  0  0  0  0  0
  181.6280  176.0860  139.3870 C   0  0  2  0  0  0  0  0  0  0  0  0
  180.8740  175.4180  140.4830 C   0  0  1  0  0  3  0  0  0  0  0  0
  179.9830  177.2130  137.3260 O   0  0  0  0  0  0  0  0  0  0  0  0
  180.6660  176.1950  137.0420 C   0  0  0  0  0  0  0  0  0  0  0  0
  180.6210  175.6450  135.6610 C   0  0  0  0  0  1  0  0  0  0  0  0
  181.4850  175.5660  138.0290 N   0  0  0  0  0  2  0  0  0  0  0  0
  181.1950  182.7790  137.8540 C   0  0  0  0  0  1  0  0  0  0  0  0
  180.6330  181.3700  137.8550 C   0  0  0  0  0  2  0  0  0  0  0  0
  2  1  1  6  0  0  0
  2  8  1  0  0  0  0
  3  7  1  0  0  0  0
  3  1  2  0  0  0  0
  5  4  2  0  0  0  0
  6 30  1  0  0  0  0
  6  7  2  0  0  0  0
  7  5  1  0  0  0  0
  8  5  1  6  0  0  0
  8 20  1  0  0  0  0
  9 14  1  0  0  0  0
  9 11  2  0  0  0  0
 10  9  1  0  0  0  0
 12 14  1  0  0  0  0
 14  1  1  6  0  0  0
 15 16  1  0  0  0  0
 15 10  1  0  0  0  0
 16 13  1  6  0  0  0
 16 12  1  0  0  0  0
 18 17  1  0  0  0  0
 20 19  1  6  0  0  0
 20 18  1  0  0  0  0
 20 17  1  0  0  0  0
 21 24  1  0  0  0  0
 23 28  1  6  0  0  0
 23  2  1  0  0  0  0
 23 21  1  0  0  0  0
 23 24  1  0  0  0  0
 24 22  1  6  0  0  0
 26 25  2  0  0  0  0
 26 28  1  0  0  0  0
 27 26  1  0  0  0  0
 29 30  1  0  0  0  0
M  END
>  <MODEL>
6

>  <REMARK>
 VINA RESULT:      -4.4      2.576      5.793
  Name = 
  5 active torsions:
  status: ('A' for Active; 'I' for Inactive)
    1  A    between atoms: C_1  and  C_22
    2  A    between atoms: C_4  and  C_23
    3  A    between atoms: C_9  and  C_21
    4  A    between atoms: C_13  and  C_30
    5  A    between atoms: C_23  and  N_25
                            x       y       z     vdW  Elec       q    Type
                         _______ _______ _______ _____ _____    ______ ____

>  <TORSDO>
F 5

$$$$
=
 OpenBabel10272413433D

 30 33  0  0  1  0  0  0  0  0999 V2000
  194.6320  173.2180  136.4070 C   0  0  0  0  0  0  0  0  0  0  0  0
  195.6810  174.2750  136.7310 C   0  0  1  0  0  3  0  0  0  0  0  0
  193.3500  173.4120  136.7400 C   0  0  0  0  0  3  0  0  0  0  0  0
  193.4740  176.9840  137.6890 O   0  0  0  0  0  0  0  0  0  0  0  0
  193.7950  175.8550  137.2310 C   0  0  0  0  0  0  0  0  0  0  0  0
  191.6550  174.7090  137.8430 C   0  0  0  0  0  3  0  0  0  0  0  0
  192.8870  174.6800  137.3220 C   0  0  0  0  0  0  0  0  0  0  0  0
  195.1250  175.6970  136.5460 C   0  0  2  0  0  3  0  0  0  0  0  0
  193.8990  170.9240  135.6860 C   0  0  0  0  0  0  0  0  0  0  0  0
  194.0080  169.7460  136.6140 C   0  0  0  0  0  2  0  0  0  0  0  0
  192.8830  171.0690  135.0210 O   0  0  0  0  0  0  0  0  0  0  0  0
  196.3760  171.4380  135.9540 C   0  0  0  0  0  2  0  0  0  0  0  0
  197.7520  169.9850  137.4170 C   0  0  0  0  0  1  0  0  0  0  0  0
  194.9770  171.9790  135.6300 C   0  0  2  0  0  3  0  0  0  0  0  0
  195.4540  169.2900  136.7850 C   0  0  0  0  0  2  0  0  0  0  0  0
  196.3480  170.4710  137.1320 C   0  0  2  0  0  3  0  0  0  0  0  0
  195.9490  177.1180  134.5420 C   0  0  0  0  0  2  0  0  0  0  0  0
  196.1910  175.7400  134.3460 O   0  0  0  0  0  0  0  0  0  0  0  0
  193.8760  175.8480  134.3460 O   0  0  0  0  0  1  0  0  0  0  0  0
  195.0430  176.0880  135.0730 C   0  0  1  0  0  0  0  0  0  0  0  0
  195.4740  173.5250  139.0760 O   0  0  0  0  0  0  0  0  0  0  0  0
  196.7090  175.0380  140.4600 C   0  0  0  0  0  1  0  0  0  0  0  0
  196.3040  174.1550  138.1370 C   0  0  2  0  0  0  0  0  0  0  0  0
  195.7390  174.8960  139.2980 C   0  0  1  0  0  3  0  0  0  0  0  0
  198.5730  175.2550  136.7720 O   0  0  0  0  0  0  0  0  0  0  0  0
  198.7680  174.2780  137.5410 C   0  0  0  0  0  0  0  0  0  0  0  0
  200.1480  173.7620  137.7360 C   0  0  0  0  0  1  0  0  0  0  0  0
  197.6770  173.6630  138.2300 N   0  0  0  0  0  2  0  0  0  0  0  0
  189.9670  176.4840  137.5280 C   0  0  0  0  0  1  0  0  0  0  0  0
  191.0040  175.9000  138.4690 C   0  0  0  0  0  2  0  0  0  0  0  0
  1  3  2  0  0  0  0
  2  1  1  1  0  0  0
  2 23  1  0  0  0  0
  3  7  1  0  0  0  0
  5  7  1  0  0  0  0
  5  4  2  0  0  0  0
  6 30  1  0  0  0  0
  7  6  2  0  0  0  0
  8  2  1  0  0  0  0
  8  5  1  6  0  0  0
  9 10  1  0  0  0  0
 10 15  1  0  0  0  0
 11  9  2  0  0  0  0
 12 16  1  0  0  0  0
 14  9  1  0  0  0  0
 14 12  1  0  0  0  0
 14  1  1  1  0  0  0
 15 16  1  0  0  0  0
 16 13  1  6  0  0  0
 17 20  1  0  0  0  0
 18 17  1  0  0  0  0
 18 20  1  0  0  0  0
 20 19  1  6  0  0  0
 20  8  1  0  0  0  0
 21 24  1  0  0  0  0
 23 28  1  1  0  0  0
 23 21  1  0  0  0  0
 23 24  1  0  0  0  0
 24 22  1  1  0  0  0
 25 26  2  0  0  0  0
 26 27  1  0  0  0  0
 26 28  1  0  0  0  0
 29 30  1  0  0  0  0
M  END
>  <MODEL>
7

>  <REMARK>
 VINA RESULT:      -4.4      8.404     11.732
  Name = 
  5 active torsions:
  status: ('A' for Active; 'I' for Inactive)
    1  A    between atoms: C_1  and  C_22
    2  A    between atoms: C_4  and  C_23
    3  A    between atoms: C_9  and  C_21
    4  A    between atoms: C_13  and  C_30
    5  A    between atoms: C_23  and  N_25
                            x       y       z     vdW  Elec       q    Type
                         _______ _______ _______ _____ _____    ______ ____

>  <TORSDO>
F 5

$$$$
=
 OpenBabel10272413433D

 30 33  0  0  1  0  0  0  0  0999 V2000
  185.5730  177.5250  138.0400 C   0  0  0  0  0  0  0  0  0  0  0  0
  186.0450  176.7100  136.8420 C   0  0  1  0  0  3  0  0  0  0  0  0
  186.4180  177.8110  139.0390 C   0  0  0  0  0  3  0  0  0  0  0  0
  189.6080  176.7580  137.4940 O   0  0  0  0  0  0  0  0  0  0  0  0
  188.3960  177.0660  137.6460 C   0  0  0  0  0  0  0  0  0  0  0  0
  188.5610  177.5560  140.0960 C   0  0  0  0  0  3  0  0  0  0  0  0
  187.8430  177.4530  138.9720 C   0  0  0  0  0  0  0  0  0  0  0  0
  187.4870  177.0690  136.4480 C   0  0  2  0  0  3  0  0  0  0  0  0
  184.0420  179.1750  139.1600 C   0  0  0  0  0  0  0  0  0  0  0  0
  183.4100  178.8690  140.4900 C   0  0  0  0  0  2  0  0  0  0  0  0
  184.5110  180.2860  138.9620 O   0  0  0  0  0  0  0  0  0  0  0  0
  183.0910  177.0400  138.1540 C   0  0  0  0  0  2  0  0  0  0  0  0
  181.7040  175.5570  139.5770 C   0  0  0  0  0  1  0  0  0  0  0  0
  184.1900  178.1090  138.1010 C   0  0  2  0  0  3  0  0  0  0  0  0
  182.2950  177.8350  140.3650 C   0  0  0  0  0  2  0  0  0  0  0  0
  182.7790  176.6210  139.5860 C   0  0  2  0  0  3  0  0  0  0  0  0
  188.1370  178.4390  134.3460 C   0  0  0  0  0  2  0  0  0  0  0  0
  186.7400  178.4310  134.5600 O   0  0  0  0  0  0  0  0  0  0  0  0
  187.5210  179.6030  136.4000 O   0  0  0  0  0  1  0  0  0  0  0  0
  187.5580  178.3970  135.6990 C   0  0  1  0  0  0  0  0  0  0  0  0
  185.1970  174.5440  136.0090 O   0  0  0  0  0  0  0  0  0  0  0  0
  184.7560  173.1360  137.8930 C   0  0  0  0  0  1  0  0  0  0  0  0
  185.9340  175.1820  137.0180 C   0  0  2  0  0  0  0  0  0  0  0  0
  184.6250  174.5300  137.3020 C   0  0  1  0  0  3  0  0  0  0  0  0
  187.6020  173.8320  135.1160 O   0  0  0  0  0  0  0  0  0  0  0  0
  187.9570  173.8170  136.3230 C   0  0  0  0  0  0  0  0  0  0  0  0
  189.2240  173.1400  136.7060 C   0  0  0  0  0  1  0  0  0  0  0  0
  187.1570  174.4450  137.3270 N   0  0  0  0  0  2  0  0  0  0  0  0
  190.3180  176.7340  141.6230 C   0  0  0  0  0  1  0  0  0  0  0  0
  190.0180  177.2480  140.2280 C   0  0  0  0  0  2  0  0  0  0  0  0
  1  3  2  0  0  0  0
  2 23  1  0  0  0  0
  2  1  1  1  0  0  0
  4  5  2  0  0  0  0
  5  7  1  0  0  0  0
  6 30  1  0  0  0  0
  7  3  1  0  0  0  0
  7  6  2  0  0  0  0
  8  2  1  0  0  0  0
  8  5  1  1  0  0  0
  9 10  1  0  0  0  0
 11  9  2  0  0  0  0
 12 16  1  0  0  0  0
 14  1  1  1  0  0  0
 14 12  1  0  0  0  0
 14  9  1  0  0  0  0
 15 10  1  0  0  0  0
 16 13  1  6  0  0  0
 16 15  1  0  0  0  0
 17 18  1  0  0  0  0
 17 20  1  0  0  0  0
 18 20  1  0  0  0  0
 20 19  1  1  0  0  0
 20  8  1  0  0  0  0
 21 23  1  0  0  0  0
 21 24  1  0  0  0  0
 23 24  1  0  0  0  0
 23 28  1  1  0  0  0
 24 22  1  1  0  0  0
 25 26  2  0  0  0  0
 26 27  1  0  0  0  0
 26 28  1  0  0  0  0
 30 29  1  0  0  0  0
M  END
>  <MODEL>
8

>  <REMARK>
 VINA RESULT:      -4.3      2.134      5.928
  Name = 
  5 active torsions:
  status: ('A' for Active; 'I' for Inactive)
    1  A    between atoms: C_1  and  C_22
    2  A    between atoms: C_4  and  C_23
    3  A    between atoms: C_9  and  C_21
    4  A    between atoms: C_13  and  C_30
    5  A    between atoms: C_23  and  N_25
                            x       y       z     vdW  Elec       q    Type
                         _______ _______ _______ _____ _____    ______ ____

>  <TORSDO>
F 5

$$$$
=
 OpenBabel10272413433D

 30 33  0  0  1  0  0  0  0  0999 V2000
  183.3220  175.9560  138.0610 C   0  0  0  0  0  0  0  0  0  0  0  0
  182.9640  175.2630  136.7520 C   0  0  1  0  0  3  0  0  0  0  0  0
  184.3400  176.8240  138.1100 C   0  0  0  0  0  3  0  0  0  0  0  0
  185.0090  177.2270  134.4950 O   0  0  0  0  0  0  0  0  0  0  0  0
  184.4580  176.9070  135.5830 C   0  0  0  0  0  0  0  0  0  0  0  0
  186.2150  177.9020  137.0630 C   0  0  0  0  0  3  0  0  0  0  0  0
  185.0730  177.2250  136.9000 C   0  0  0  0  0  0  0  0  0  0  0  0
  183.1260  176.2090  135.5490 C   0  0  2  0  0  3  0  0  0  0  0  0
  181.0580  175.4280  139.0170 C   0  0  0  0  0  0  0  0  0  0  0  0
  179.9830  176.4770  139.0930 C   0  0  0  0  0  2  0  0  0  0  0  0
  180.7690  174.3010  138.6430 O   0  0  0  0  0  0  0  0  0  0  0  0
  182.6710  176.9070  140.3160 C   0  0  0  0  0  2  0  0  0  0  0  0
  181.9070  179.1420  141.0700 C   0  0  0  0  0  1  0  0  0  0  0  0
  182.5010  175.7650  139.3040 C   0  0  2  0  0  3  0  0  0  0  0  0
  180.2660  177.5030  140.1860 C   0  0  0  0  0  2  0  0  0  0  0  0
  181.6840  178.0400  140.0580 C   0  0  2  0  0  3  0  0  0  0  0  0
  181.0070  177.0940  134.3500 C   0  0  0  0  0  2  0  0  0  0  0  0
  180.7180  176.6190  135.6490 O   0  0  0  0  0  0  0  0  0  0  0  0
  182.0710  178.4520  136.0750 O   0  0  0  0  0  1  0  0  0  0  0  0
  181.9760  177.2070  135.4510 C   0  0  1  0  0  0  0  0  0  0  0  0
  183.7330  173.5630  135.1330 O   0  0  0  0  0  0  0  0  0  0  0  0
  183.8490  171.4540  136.2580 C   0  0  0  0  0  1  0  0  0  0  0  0
  183.7410  173.9590  136.4780 C   0  0  2  0  0  0  0  0  0  0  0  0
  183.0410  172.7220  136.0350 C   0  0  1  0  0  3  0  0  0  0  0  0
  186.2190  174.1460  135.0470 O   0  0  0  0  0  0  0  0  0  0  0  0
  186.2720  173.9620  136.2900 C   0  0  0  0  0  0  0  0  0  0  0  0
  187.5950  173.8850  136.9640 C   0  0  0  0  0  1  0  0  0  0  0  0
  185.0750  173.8310  137.0610 N   0  0  0  0  0  2  0  0  0  0  0  0
  188.3070  177.5030  135.8120 C   0  0  0  0  0  1  0  0  0  0  0  0
  187.0940  178.4020  135.9620 C   0  0  0  0  0  2  0  0  0  0  0  0
  1  3  2  0  0  0  0
  2  1  1  1  0  0  0
  4  5  2  0  0  0  0
  5  7  1  0  0  0  0
  7  6  2  0  0  0  0
  7  3  1  0  0  0  0
  8  5  1  1  0  0  0
  8  2  1  0  0  0  0
  9 10  1  0  0  0  0
  9 14  1  0  0  0  0
 10 15  1  0  0  0  0
 11  9  2  0  0  0  0
 14  1  1  6  0  0  0
 14 12  1  0  0  0  0
 16 15  1  0  0  0  0
 16 12  1  0  0  0  0
 16 13  1  1  0  0  0
 17 20  1  0  0  0  0
 17 18  1  0  0  0  0
 20  8  1  0  0  0  0
 20 18  1  0  0  0  0
 20 19  1  1  0  0  0
 21 24  1  0  0  0  0
 21 23  1  0  0  0  0
 23  2  1  0  0  0  0
 23 28  1  1  0  0  0
 24 22  1  1  0  0  0
 24 23  1  0  0  0  0
 25 26  2  0  0  0  0
 26 27  1  0  0  0  0
 26 28  1  0  0  0  0
 29 30  1  0  0  0  0
 30  6  1  0  0  0  0
M  END
>  <MODEL>
9

>  <REMARK>
 VINA RESULT:      -4.3      2.091      5.717
  Name = 
  5 active torsions:
  status: ('A' for Active; 'I' for Inactive)
    1  A    between atoms: C_1  and  C_22
    2  A    between atoms: C_4  and  C_23
    3  A    between atoms: C_9  and  C_21
    4  A    between atoms: C_13  and  C_30
    5  A    between atoms: C_23  and  N_25
                            x       y       z     vdW  Elec       q    Type
                         _______ _______ _______ _____ _____    ______ ____

>  <TORSDO>
F 5

$$$$
