=
 OpenBabel10262423403D

 34 39  0  0  1  0  0  0  0  0999 V2000
  189.3950  177.1570  146.2010 C   0  0  0  0  0  0  0  0  0  0  0  0
  191.1830  176.4900  144.5620 C   0  0  2  0  0  3  0  0  0  0  0  0
  188.8900  177.4640  143.8380 C   0  0  0  0  0  0  0  0  0  0  0  0
  188.3560  177.9740  141.5300 C   0  0  0  0  0  0  0  0  0  0  0  0
  191.7270  176.9980  146.9270 N   0  0  0  0  0  2  0  0  0  0  0  0
  191.9550  176.0720  145.8230 C   0  0  0  0  0  2  0  0  0  0  0  0
  190.5650  177.5200  141.9440 N   0  0  0  0  0  2  0  0  0  0  0  0
  189.7980  177.0590  144.8570 C   0  0  0  0  0  0  0  0  0  0  0  0
  189.0020  178.0980  140.2000 C   0  0  0  0  0  2  0  0  0  0  0  0
  190.3580  176.9580  147.2350 N   0  0  0  0  0  2  0  0  0  0  0  0
  187.5330  177.7610  144.1810 C   0  0  0  0  0  0  0  0  0  0  0  0
  188.0830  177.4800  146.5340 C   0  0  0  0  0  3  0  0  0  0  0  0
  191.0640  175.2410  143.7040 C   0  0  0  0  0  1  0  0  0  0  0  0
  187.0250  178.2160  141.8350 C   0  0  0  0  0  3  0  0  0  0  0  0
  186.5870  178.1040  143.1660 C   0  0  0  0  0  0  0  0  0  0  0  0
  190.4820  177.7950  140.5100 C   0  0  2  0  0  3  0  0  0  0  0  0
  189.2600  177.6170  142.4860 C   0  0  0  0  0  0  0  0  0  0  0  0
  187.1610  177.7610  145.5330 C   0  0  0  0  0  3  0  0  0  0  0  0
  182.8550  178.6460  142.6840 C   0  0  0  0  0  0  0  0  0  0  0  0
  182.4500  178.9340  143.9890 C   0  0  0  0  0  3  0  0  0  0  0  0
  185.1500  178.3660  143.4450 C   0  0  0  0  0  0  0  0  0  0  0  0
  183.3890  178.9460  145.0230 C   0  0  0  0  0  3  0  0  0  0  0  0
  184.1980  178.3700  142.4130 C   0  0  0  0  0  3  0  0  0  0  0  0
  184.7310  178.6690  144.7520 C   0  0  0  0  0  3  0  0  0  0  0  0
  181.9240  178.6380  141.6550 O   0  0  0  0  0  1  0  0  0  0  0  0
  190.9990  176.6080  139.6990 C   0  0  0  0  0  2  0  0  0  0  0  0
  190.4620  176.6040  138.2730 C   0  0  0  0  0  2  0  0  0  0  0  0
  190.5920  173.8630  137.5760 O   0  0  0  0  0  0  0  0  0  0  0  0
  191.5180  176.0800  137.3130 C   0  0  2  0  0  3  0  0  0  0  0  0
  191.6150  174.5750  137.3940 C   0  0  0  0  0  0  0  0  0  0  0  0
  194.0810  174.7750  136.9920 C   0  0  0  0  0  2  0  0  0  0  0  0
  193.6920  176.2180  136.6620 C   0  0  0  0  0  2  0  0  0  0  0  0
  192.7620  176.6750  137.6140 O   0  0  0  0  0  0  0  0  0  0  0  0
  192.8780  173.9590  137.1340 N   0  0  0  0  0  2  0  0  0  0  0  0
  1 12  1  0  0  0  0
  1 10  1  0  0  0  0
  2 13  1  6  0  0  0
  2  8  1  0  0  0  0
  2  6  1  0  0  0  0
  3 11  1  0  0  0  0
  3  8  1  0  0  0  0
  4 14  2  0  0  0  0
  4 17  1  0  0  0  0
  5 10  1  0  0  0  0
  6  5  1  0  0  0  0
  7 17  1  0  0  0  0
  8  1  2  0  0  0  0
  9 16  1  0  0  0  0
  9  4  1  0  0  0  0
 11 18  1  0  0  0  0
 14 15  1  0  0  0  0
 15 21  1  0  0  0  0
 15 11  2  0  0  0  0
 16 26  1  6  0  0  0
 16  7  1  0  0  0  0
 17  3  2  0  0  0  0
 18 12  2  0  0  0  0
 19 20  1  0  0  0  0
 20 22  2  0  0  0  0
 21 24  2  0  0  0  0
 23 19  2  0  0  0  0
 23 21  1  0  0  0  0
 24 22  1  0  0  0  0
 25 19  1  0  0  0  0
 27 26  1  0  0  0  0
 29 30  1  0  0  0  0
 29 33  1  0  0  0  0
 29 27  1  1  0  0  0
 30 28  2  0  0  0  0
 31 34  1  0  0  0  0
 32 31  1  0  0  0  0
 32 33  1  0  0  0  0
 34 30  1  0  0  0  0
M  END
>  <MODEL>
1

>  <REMARK>
 VINA RESULT:     -11.6      0.000      0.000
  Name = 
  4 active torsions:
  status: ('A' for Active; 'I' for Inactive)
    1  A    between atoms: C_3  and  C_13
    2  A    between atoms: C_3  and  C_17
    3  A    between atoms: C_12  and  C_28
    4  A    between atoms: C_17  and  C_29
                            x       y       z     vdW  Elec       q    Type
                         _______ _______ _______ _____ _____    ______ ____

>  <TORSDO>
F 4

$$$$
=
 OpenBabel10262423403D

 34 39  0  0  1  0  0  0  0  0999 V2000
  189.3420  177.2010  146.0740 C   0  0  0  0  0  0  0  0  0  0  0  0
  191.1170  176.4840  144.4420 C   0  0  2  0  0  3  0  0  0  0  0  0
  188.8290  177.4620  143.7060 C   0  0  0  0  0  0  0  0  0  0  0  0
  188.2890  177.9280  141.3910 C   0  0  0  0  0  0  0  0  0  0  0  0
  191.6760  177.0370  146.7920 N   0  0  0  0  0  2  0  0  0  0  0  0
  191.8910  176.0860  145.7080 C   0  0  0  0  0  2  0  0  0  0  0  0
  190.4960  177.4630  141.8040 N   0  0  0  0  0  2  0  0  0  0  0  0
  189.7390  177.0700  144.7310 C   0  0  0  0  0  0  0  0  0  0  0  0
  188.9310  178.0170  140.0560 C   0  0  0  0  0  2  0  0  0  0  0  0
  190.3080  177.0160  147.1080 N   0  0  0  0  0  2  0  0  0  0  0  0
  187.4770  177.7780  144.0490 C   0  0  0  0  0  0  0  0  0  0  0  0
  188.0350  177.5420  146.4050 C   0  0  0  0  0  3  0  0  0  0  0  0
  190.9840  175.2180  143.6100 C   0  0  0  0  0  1  0  0  0  0  0  0
  186.9620  178.1870  141.6960 C   0  0  0  0  0  3  0  0  0  0  0  0
  186.5290  178.1080  143.0310 C   0  0  0  0  0  0  0  0  0  0  0  0
  190.4100  177.7080  140.3650 C   0  0  2  0  0  3  0  0  0  0  0  0
  189.1950  177.5830  142.3510 C   0  0  0  0  0  0  0  0  0  0  0  0
  187.1100  177.8100  145.4020 C   0  0  0  0  0  3  0  0  0  0  0  0
  182.8050  178.7050  142.5490 C   0  0  0  0  0  0  0  0  0  0  0  0
  182.4030  178.9900  143.8560 C   0  0  0  0  0  3  0  0  0  0  0  0
  185.0950  178.3890  143.3100 C   0  0  0  0  0  0  0  0  0  0  0  0
  183.3410  178.9820  144.8910 C   0  0  0  0  0  3  0  0  0  0  0  0
  184.1440  178.4120  142.2780 C   0  0  0  0  0  3  0  0  0  0  0  0
  184.6800  178.6880  144.6190 C   0  0  0  0  0  3  0  0  0  0  0  0
  181.8750  178.7170  141.5190 O   0  0  0  0  0  1  0  0  0  0  0  0
  190.9120  176.5000  139.5780 C   0  0  0  0  0  2  0  0  0  0  0  0
  191.2440  176.8490  138.1320 C   0  0  0  0  0  2  0  0  0  0  0  0
  189.0520  177.5130  136.4660 O   0  0  0  0  0  0  0  0  0  0  0  0
  190.6290  175.8280  137.1880 C   0  0  2  0  0  3  0  0  0  0  0  0
  189.2770  176.2960  136.7020 C   0  0  0  0  0  0  0  0  0  0  0  0
  188.5130  173.9090  136.7260 C   0  0  0  0  0  2  0  0  0  0  0  0
  190.0090  173.6570  136.9230 C   0  0  0  0  0  2  0  0  0  0  0  0
  190.5160  174.5870  137.8500 O   0  0  0  0  0  0  0  0  0  0  0  0
  188.2880  175.3130  136.3910 N   0  0  0  0  0  2  0  0  0  0  0  0
  1 12  1  0  0  0  0
  1 10  1  0  0  0  0
  2 13  1  6  0  0  0
  2  8  1  0  0  0  0
  2  6  1  0  0  0  0
  3 11  1  0  0  0  0
  3  8  1  0  0  0  0
  4 14  2  0  0  0  0
  4 17  1  0  0  0  0
  5 10  1  0  0  0  0
  6  5  1  0  0  0  0
  7 17  1  0  0  0  0
  8  1  2  0  0  0  0
  9 16  1  0  0  0  0
  9  4  1  0  0  0  0
 11 18  1  0  0  0  0
 14 15  1  0  0  0  0
 15 21  1  0  0  0  0
 15 11  2  0  0  0  0
 16 26  1  6  0  0  0
 16  7  1  0  0  0  0
 17  3  2  0  0  0  0
 18 12  2  0  0  0  0
 19 20  1  0  0  0  0
 20 22  2  0  0  0  0
 21 24  2  0  0  0  0
 23 19  2  0  0  0  0
 23 21  1  0  0  0  0
 24 22  1  0  0  0  0
 25 19  1  0  0  0  0
 27 26  1  0  0  0  0
 28 30  2  0  0  0  0
 29 33  1  0  0  0  0
 29 27  1  1  0  0  0
 30 29  1  0  0  0  0
 31 32  1  0  0  0  0
 32 33  1  0  0  0  0
 34 30  1  0  0  0  0
 34 31  1  0  0  0  0
M  END
>  <MODEL>
2

>  <REMARK>
 VINA RESULT:     -11.5      1.330      1.822
  Name = 
  4 active torsions:
  status: ('A' for Active; 'I' for Inactive)
    1  A    between atoms: C_3  and  C_13
    2  A    between atoms: C_3  and  C_17
    3  A    between atoms: C_12  and  C_28
    4  A    between atoms: C_17  and  C_29
                            x       y       z     vdW  Elec       q    Type
                         _______ _______ _______ _____ _____    ______ ____

>  <TORSDO>
F 4

$$$$
=
 OpenBabel10262423403D

 34 39  0  0  1  0  0  0  0  0999 V2000
  184.1710  178.7250  144.5680 C   0  0  0  0  0  0  0  0  0  0  0  0
  186.5820  178.0700  144.8610 C   0  0  2  0  0  3  0  0  0  0  0  0
  185.4950  178.4680  142.5390 C   0  0  0  0  0  0  0  0  0  0  0  0
  186.7620  178.4120  140.4740 C   0  0  0  0  0  0  0  0  0  0  0  0
  185.2990  179.1210  146.7030 N   0  0  0  0  0  2  0  0  0  0  0  0
  186.2250  178.0490  146.3560 C   0  0  0  0  0  2  0  0  0  0  0  0
  188.0190  178.4390  142.3920 N   0  0  0  0  0  2  0  0  0  0  0  0
  185.4060  178.4360  143.9600 C   0  0  0  0  0  0  0  0  0  0  0  0
  188.1620  178.3810  139.9850 C   0  0  0  0  0  2  0  0  0  0  0  0
  184.1140  178.9050  145.9830 N   0  0  0  0  0  2  0  0  0  0  0  0
  184.2990  178.5860  141.7620 C   0  0  0  0  0  0  0  0  0  0  0  0
  183.0150  178.8750  143.8080 C   0  0  0  0  0  3  0  0  0  0  0  0
  187.0840  176.6740  144.5250 C   0  0  0  0  0  1  0  0  0  0  0  0
  185.6110  178.4740  139.7040 C   0  0  0  0  0  3  0  0  0  0  0  0
  184.3580  178.5530  140.3340 C   0  0  0  0  0  0  0  0  0  0  0  0
  188.9820  178.4080  141.2910 C   0  0  2  0  0  3  0  0  0  0  0  0
  186.7160  178.4130  141.8380 C   0  0  0  0  0  0  0  0  0  0  0  0
  183.0790  178.7880  142.4220 C   0  0  0  0  0  3  0  0  0  0  0  0
  181.3130  177.5150  138.3070 C   0  0  0  0  0  0  0  0  0  0  0  0
  180.9140  178.7400  137.7670 C   0  0  0  0  0  3  0  0  0  0  0  0
  183.1510  178.6110  139.4660 C   0  0  0  0  0  0  0  0  0  0  0  0
  181.6310  179.9000  138.0670 C   0  0  0  0  0  3  0  0  0  0  0  0
  182.4280  177.4510  139.1470 C   0  0  0  0  0  3  0  0  0  0  0  0
  182.7450  179.8350  138.9070 C   0  0  0  0  0  3  0  0  0  0  0  0
  180.6030  176.3610  138.0060 O   0  0  0  0  0  1  0  0  0  0  0  0
  189.9000  177.1920  141.4080 C   0  0  0  0  0  2  0  0  0  0  0  0
  191.0800  177.4460  142.3370 C   0  0  0  0  0  2  0  0  0  0  0  0
  190.1560  178.7700  144.6630 O   0  0  0  0  0  0  0  0  0  0  0  0
  190.8900  176.7020  143.6490 C   0  0  2  0  0  3  0  0  0  0  0  0
  190.7580  177.6720  144.7990 C   0  0  0  0  0  0  0  0  0  0  0  0
  191.9820  176.0280  146.2430 C   0  0  0  0  0  2  0  0  0  0  0  0
  191.7330  175.1150  145.0410 C   0  0  0  0  0  2  0  0  0  0  0  0
  191.9820  175.8320  143.8560 O   0  0  0  0  0  0  0  0  0  0  0  0
  191.2220  177.2660  146.0880 N   0  0  0  0  0  2  0  0  0  0  0  0
  1 10  1  0  0  0  0
  2 13  1  6  0  0  0
  2  6  1  0  0  0  0
  3  8  2  0  0  0  0
  4 17  2  0  0  0  0
  6  5  1  0  0  0  0
  8  1  1  0  0  0  0
  8  2  1  0  0  0  0
  9  4  1  0  0  0  0
  9 16  1  0  0  0  0
 10  5  1  0  0  0  0
 11 18  2  0  0  0  0
 11  3  1  0  0  0  0
 12  1  2  0  0  0  0
 14 15  2  0  0  0  0
 14  4  1  0  0  0  0
 15 11  1  0  0  0  0
 16 26  1  1  0  0  0
 16  7  1  0  0  0  0
 17  7  1  0  0  0  0
 17  3  1  0  0  0  0
 18 12  1  0  0  0  0
 19 23  1  0  0  0  0
 20 22  1  0  0  0  0
 20 19  2  0  0  0  0
 21 15  1  0  0  0  0
 22 24  2  0  0  0  0
 23 21  2  0  0  0  0
 24 21  1  0  0  0  0
 25 19  1  0  0  0  0
 26 27  1  0  0  0  0
 28 30  2  0  0  0  0
 29 27  1  6  0  0  0
 29 33  1  0  0  0  0
 29 30  1  0  0  0  0
 30 34  1  0  0  0  0
 32 31  1  0  0  0  0
 33 32  1  0  0  0  0
 34 31  1  0  0  0  0
M  END
>  <MODEL>
3

>  <REMARK>
 VINA RESULT:     -10.6      3.246      5.622
  Name = 
  4 active torsions:
  status: ('A' for Active; 'I' for Inactive)
    1  A    between atoms: C_3  and  C_13
    2  A    between atoms: C_3  and  C_17
    3  A    between atoms: C_12  and  C_28
    4  A    between atoms: C_17  and  C_29
                            x       y       z     vdW  Elec       q    Type
                         _______ _______ _______ _____ _____    ______ ____

>  <TORSDO>
F 4

$$$$
=
 OpenBabel10262423403D

 34 39  0  0  1  0  0  0  0  0999 V2000
  184.2360  178.7780  144.7070 C   0  0  0  0  0  0  0  0  0  0  0  0
  186.6520  178.0820  144.7690 C   0  0  2  0  0  3  0  0  0  0  0  0
  185.3600  178.5200  142.5620 C   0  0  0  0  0  0  0  0  0  0  0  0
  186.4290  178.4650  140.3880 C   0  0  0  0  0  0  0  0  0  0  0  0
  185.5640  179.1350  146.7320 N   0  0  0  0  0  2  0  0  0  0  0  0
  186.4360  178.0520  146.2900 C   0  0  0  0  0  2  0  0  0  0  0  0
  187.8590  178.4530  142.1800 N   0  0  0  0  0  2  0  0  0  0  0  0
  185.4030  178.4750  143.9850 C   0  0  0  0  0  0  0  0  0  0  0  0
  187.7770  178.4170  139.7700 C   0  0  0  0  0  2  0  0  0  0  0  0
  184.3130  178.9450  146.1230 N   0  0  0  0  0  2  0  0  0  0  0  0
  184.0990  178.6650  141.9000 C   0  0  0  0  0  0  0  0  0  0  0  0
  183.0170  178.9530  144.0590 C   0  0  0  0  0  3  0  0  0  0  0  0
  187.0980  176.6820  144.3760 C   0  0  0  0  0  1  0  0  0  0  0  0
  185.2120  178.5520  139.7280 C   0  0  0  0  0  3  0  0  0  0  0  0
  184.0240  178.6450  140.4730 C   0  0  0  0  0  0  0  0  0  0  0  0
  188.7140  178.4180  140.9940 C   0  0  2  0  0  3  0  0  0  0  0  0
  186.5100  178.4530  141.7500 C   0  0  0  0  0  0  0  0  0  0  0  0
  182.9490  178.8790  142.6730 C   0  0  0  0  0  3  0  0  0  0  0  0
  181.1140  180.0030  138.4380 C   0  0  0  0  0  0  0  0  0  0  0  0
  180.2830  178.8820  138.3680 C   0  0  0  0  0  3  0  0  0  0  0  0
  182.7430  178.7300  139.7220 C   0  0  0  0  0  0  0  0  0  0  0  0
  180.6720  177.6870  138.9770 C   0  0  0  0  0  3  0  0  0  0  0  0
  182.3330  179.9280  139.1160 C   0  0  0  0  0  3  0  0  0  0  0  0
  181.8930  177.6130  139.6540 C   0  0  0  0  0  3  0  0  0  0  0  0
  180.7260  181.1920  137.8370 O   0  0  0  0  0  1  0  0  0  0  0  0
  189.6190  177.1870  141.0150 C   0  0  0  0  0  2  0  0  0  0  0  0
  190.9130  177.4070  140.2410 C   0  0  0  0  0  2  0  0  0  0  0  0
  193.4260  176.9370  139.0230 O   0  0  0  0  0  0  0  0  0  0  0  0
  191.0960  176.3170  139.1970 C   0  0  2  0  0  3  0  0  0  0  0  0
  192.3920  176.5090  138.4450 C   0  0  0  0  0  0  0  0  0  0  0  0
  191.2530  175.6440  136.3870 C   0  0  0  0  0  2  0  0  0  0  0  0
  190.1730  175.2680  137.4030 C   0  0  0  0  0  2  0  0  0  0  0  0
  190.0000  176.3320  138.3070 O   0  0  0  0  0  0  0  0  0  0  0  0
  192.4610  176.0750  137.0850 N   0  0  0  0  0  2  0  0  0  0  0  0
  1 10  1  0  0  0  0
  2 13  1  6  0  0  0
  2  6  1  0  0  0  0
  3  8  1  0  0  0  0
  4 17  1  0  0  0  0
  6  5  1  0  0  0  0
  8  1  2  0  0  0  0
  8  2  1  0  0  0  0
  9  4  1  0  0  0  0
  9 16  1  0  0  0  0
 10  5  1  0  0  0  0
 11  3  1  0  0  0  0
 11 18  1  0  0  0  0
 12  1  1  0  0  0  0
 14  4  2  0  0  0  0
 14 15  1  0  0  0  0
 15 11  2  0  0  0  0
 16 26  1  1  0  0  0
 16  7  1  0  0  0  0
 17  7  1  0  0  0  0
 17  3  2  0  0  0  0
 18 12  2  0  0  0  0
 19 23  1  0  0  0  0
 20 19  2  0  0  0  0
 20 22  1  0  0  0  0
 21 15  1  0  0  0  0
 22 24  2  0  0  0  0
 23 21  2  0  0  0  0
 24 21  1  0  0  0  0
 25 19  1  0  0  0  0
 27 26  1  0  0  0  0
 29 27  1  1  0  0  0
 30 28  2  0  0  0  0
 30 29  1  0  0  0  0
 31 34  1  0  0  0  0
 31 32  1  0  0  0  0
 32 33  1  0  0  0  0
 33 29  1  0  0  0  0
 34 30  1  0  0  0  0
M  END
>  <MODEL>
4

>  <REMARK>
 VINA RESULT:     -10.2      2.698      4.305
  Name = 
  4 active torsions:
  status: ('A' for Active; 'I' for Inactive)
    1  A    between atoms: C_3  and  C_13
    2  A    between atoms: C_3  and  C_17
    3  A    between atoms: C_12  and  C_28
    4  A    between atoms: C_17  and  C_29
                            x       y       z     vdW  Elec       q    Type
                         _______ _______ _______ _____ _____    ______ ____

>  <TORSDO>
F 4

$$$$
=
 OpenBabel10262423403D

 34 39  0  0  1  0  0  0  0  0999 V2000
  187.7470  177.7020  145.5880 C   0  0  0  0  0  0  0  0  0  0  0  0
  189.6370  177.0570  144.0580 C   0  0  2  0  0  3  0  0  0  0  0  0
  187.3380  177.8930  143.1940 C   0  0  0  0  0  0  0  0  0  0  0  0
  186.8880  178.2880  140.8460 C   0  0  0  0  0  0  0  0  0  0  0  0
  190.0480  177.6820  146.4210 N   0  0  0  0  0  2  0  0  0  0  0  0
  190.3680  176.7240  145.3680 C   0  0  0  0  0  2  0  0  0  0  0  0
  189.0940  177.9540  141.3740 N   0  0  0  0  0  2  0  0  0  0  0  0
  188.2160  177.5710  144.2680 C   0  0  0  0  0  0  0  0  0  0  0  0
  187.5890  178.3900  139.5420 C   0  0  0  0  0  2  0  0  0  0  0  0
  188.6700  177.5890  146.6710 N   0  0  0  0  0  2  0  0  0  0  0  0
  185.9550  178.1400  143.4650 C   0  0  0  0  0  0  0  0  0  0  0  0
  186.4080  177.9760  145.8490 C   0  0  0  0  0  3  0  0  0  0  0  0
  189.6140  175.7710  143.2470 C   0  0  0  0  0  1  0  0  0  0  0  0
  185.5350  178.4790  141.0820 C   0  0  0  0  0  3  0  0  0  0  0  0
  185.0420  178.3990  142.3960 C   0  0  0  0  0  0  0  0  0  0  0  0
  189.0650  178.1690  139.9280 C   0  0  2  0  0  3  0  0  0  0  0  0
  187.7630  178.0110  141.8550 C   0  0  0  0  0  0  0  0  0  0  0  0
  185.5210  178.1740  144.7970 C   0  0  0  0  0  3  0  0  0  0  0  0
  181.3260  178.8300  141.7180 C   0  0  0  0  0  0  0  0  0  0  0  0
  180.8390  179.0630  143.0060 C   0  0  0  0  0  3  0  0  0  0  0  0
  183.5830  178.6040  142.6000 C   0  0  0  0  0  0  0  0  0  0  0  0
  181.7170  179.0740  144.0920 C   0  0  0  0  0  3  0  0  0  0  0  0
  182.6900  178.6080  141.5160 C   0  0  0  0  0  3  0  0  0  0  0  0
  183.0810  178.8500  143.8890 C   0  0  0  0  0  3  0  0  0  0  0  0
  180.4540  178.8240  140.6380 O   0  0  0  0  0  1  0  0  0  0  0  0
  189.6710  176.9770  139.1900 C   0  0  0  0  0  2  0  0  0  0  0  0
  190.7910  177.3910  138.2440 C   0  0  0  0  0  2  0  0  0  0  0  0
  193.4460  177.1170  139.1890 O   0  0  0  0  0  0  0  0  0  0  0  0
  191.6430  176.1880  137.8750 C   0  0  2  0  0  3  0  0  0  0  0  0
  193.0990  176.4490  138.1790 C   0  0  0  0  0  0  0  0  0  0  0  0
  193.6990  175.1000  136.1540 C   0  0  0  0  0  2  0  0  0  0  0  0
  192.2150  174.7340  136.2230 C   0  0  0  0  0  2  0  0  0  0  0  0
  191.4670  175.8920  136.5060 O   0  0  0  0  0  0  0  0  0  0  0  0
  194.0890  175.8160  137.3660 N   0  0  0  0  0  2  0  0  0  0  0  0
  1 12  1  0  0  0  0
  1 10  1  0  0  0  0
  2 13  1  6  0  0  0
  2  8  1  0  0  0  0
  2  6  1  0  0  0  0
  3 11  1  0  0  0  0
  3  8  1  0  0  0  0
  4 14  2  0  0  0  0
  4 17  1  0  0  0  0
  5 10  1  0  0  0  0
  6  5  1  0  0  0  0
  7 17  1  0  0  0  0
  8  1  2  0  0  0  0
  9 16  1  0  0  0  0
  9  4  1  0  0  0  0
 11 18  1  0  0  0  0
 14 15  1  0  0  0  0
 15 21  1  0  0  0  0
 15 11  2  0  0  0  0
 16 26  1  6  0  0  0
 16  7  1  0  0  0  0
 17  3  2  0  0  0  0
 18 12  2  0  0  0  0
 19 20  1  0  0  0  0
 20 22  2  0  0  0  0
 21 24  2  0  0  0  0
 23 19  2  0  0  0  0
 23 21  1  0  0  0  0
 24 22  1  0  0  0  0
 25 19  1  0  0  0  0
 27 26  1  0  0  0  0
 29 30  1  0  0  0  0
 29 27  1  6  0  0  0
 30 28  2  0  0  0  0
 31 32  1  0  0  0  0
 31 34  1  0  0  0  0
 32 33  1  0  0  0  0
 33 29  1  0  0  0  0
 34 30  1  0  0  0  0
M  END
>  <MODEL>
5

>  <REMARK>
 VINA RESULT:     -10.1      1.281      1.903
  Name = 
  4 active torsions:
  status: ('A' for Active; 'I' for Inactive)
    1  A    between atoms: C_3  and  C_13
    2  A    between atoms: C_3  and  C_17
    3  A    between atoms: C_12  and  C_28
    4  A    between atoms: C_17  and  C_29
                            x       y       z     vdW  Elec       q    Type
                         _______ _______ _______ _____ _____    ______ ____

>  <TORSDO>
F 4

$$$$
=
 OpenBabel10262423403D

 34 39  0  0  1  0  0  0  0  0999 V2000
  186.4710  178.1000  146.1220 C   0  0  0  0  0  0  0  0  0  0  0  0
  188.6050  177.4980  144.9340 C   0  0  2  0  0  3  0  0  0  0  0  0
  186.4390  178.1950  143.6880 C   0  0  0  0  0  0  0  0  0  0  0  0
  186.3510  178.4940  141.2850 C   0  0  0  0  0  0  0  0  0  0  0  0
  188.6100  178.2160  147.3070 N   0  0  0  0  0  2  0  0  0  0  0  0
  189.1330  177.2430  146.3550 C   0  0  0  0  0  2  0  0  0  0  0  0
  188.4570  178.2830  142.1670 N   0  0  0  0  0  2  0  0  0  0  0  0
  187.1480  177.9500  144.8990 C   0  0  0  0  0  0  0  0  0  0  0  0
  187.2450  178.5880  140.1050 C   0  0  0  0  0  2  0  0  0  0  0  0
  187.2140  178.0660  147.3400 N   0  0  0  0  0  2  0  0  0  0  0  0
  185.0210  178.3830  143.7290 C   0  0  0  0  0  0  0  0  0  0  0  0
  185.0970  178.3170  146.1590 C   0  0  0  0  0  3  0  0  0  0  0  0
  188.7660  176.1880  144.1800 C   0  0  0  0  0  1  0  0  0  0  0  0
  184.9710  178.6270  141.2980 C   0  0  0  0  0  3  0  0  0  0  0  0
  184.2800  178.5640  142.5210 C   0  0  0  0  0  0  0  0  0  0  0  0
  188.6490  178.4510  140.7270 C   0  0  2  0  0  3  0  0  0  0  0  0
  187.0660  178.2910  142.4290 C   0  0  0  0  0  0  0  0  0  0  0  0
  184.3810  178.4390  144.9750 C   0  0  0  0  0  3  0  0  0  0  0  0
  180.6860  178.6300  141.2790 C   0  0  0  0  0  0  0  0  0  0  0  0
  180.0090  179.0470  142.4270 C   0  0  0  0  0  3  0  0  0  0  0  0
  182.7990  178.7050  142.4850 C   0  0  0  0  0  0  0  0  0  0  0  0
  180.7190  179.3010  143.6020 C   0  0  0  0  0  3  0  0  0  0  0  0
  182.0740  178.4660  141.3070 C   0  0  0  0  0  3  0  0  0  0  0  0
  182.1060  179.1360  143.6290 C   0  0  0  0  0  3  0  0  0  0  0  0
  179.9820  178.3810  140.1090 O   0  0  0  0  0  1  0  0  0  0  0  0
  189.4150  177.2670  140.1390 C   0  0  0  0  0  2  0  0  0  0  0  0
  190.3460  177.6840  139.0080 C   0  0  0  0  0  2  0  0  0  0  0  0
  189.2250  179.5340  137.1800 O   0  0  0  0  0  0  0  0  0  0  0  0
  189.7850  177.2340  137.6690 C   0  0  2  0  0  3  0  0  0  0  0  0
  188.9280  178.3160  137.0560 C   0  0  0  0  0  0  0  0  0  0  0  0
  187.4400  176.5250  136.1290 C   0  0  0  0  0  2  0  0  0  0  0  0
  188.5960  175.6310  136.5800 C   0  0  0  0  0  2  0  0  0  0  0  0
  189.0370  176.0500  137.8490 O   0  0  0  0  0  0  0  0  0  0  0  0
  187.8350  177.9280  136.2220 N   0  0  0  0  0  2  0  0  0  0  0  0
  1 12  1  0  0  0  0
  1 10  1  0  0  0  0
  2 13  1  6  0  0  0
  2  6  1  0  0  0  0
  3 11  1  0  0  0  0
  3  8  1  0  0  0  0
  4 14  2  0  0  0  0
  4 17  1  0  0  0  0
  5 10  1  0  0  0  0
  6  5  1  0  0  0  0
  7 17  1  0  0  0  0
  8  2  1  0  0  0  0
  8  1  2  0  0  0  0
  9 16  1  0  0  0  0
  9  4  1  0  0  0  0
 11 18  1  0  0  0  0
 14 15  1  0  0  0  0
 15 11  2  0  0  0  0
 16 26  1  6  0  0  0
 16  7  1  0  0  0  0
 17  3  2  0  0  0  0
 18 12  2  0  0  0  0
 19 23  2  0  0  0  0
 19 20  1  0  0  0  0
 20 22  2  0  0  0  0
 21 15  1  0  0  0  0
 21 24  2  0  0  0  0
 22 24  1  0  0  0  0
 23 21  1  0  0  0  0
 25 19  1  0  0  0  0
 27 26  1  0  0  0  0
 29 33  1  0  0  0  0
 29 27  1  1  0  0  0
 30 28  2  0  0  0  0
 30 29  1  0  0  0  0
 31 34  1  0  0  0  0
 31 32  1  0  0  0  0
 32 33  1  0  0  0  0
 34 30  1  0  0  0  0
M  END
>  <MODEL>
6

>  <REMARK>
 VINA RESULT:      -9.9      2.356      3.318
  Name = 
  4 active torsions:
  status: ('A' for Active; 'I' for Inactive)
    1  A    between atoms: C_3  and  C_13
    2  A    between atoms: C_3  and  C_17
    3  A    between atoms: C_12  and  C_28
    4  A    between atoms: C_17  and  C_29
                            x       y       z     vdW  Elec       q    Type
                         _______ _______ _______ _____ _____    ______ ____

>  <TORSDO>
F 4

$$$$
=
 OpenBabel10262423403D

 34 39  0  0  1  0  0  0  0  0999 V2000
  186.4260  178.1870  138.6830 C   0  0  0  0  0  0  0  0  0  0  0  0
  186.4610  178.7320  141.1380 C   0  0  2  0  0  3  0  0  0  0  0  0
  188.4820  177.6860  139.8920 C   0  0  0  0  0  0  0  0  0  0  0  0
  190.6260  177.3150  140.9570 C   0  0  0  0  0  0  0  0  0  0  0  0
  184.8570  179.8270  139.5980 N   0  0  0  0  0  2  0  0  0  0  0  0
  185.0100  179.1760  140.8940 C   0  0  0  0  0  2  0  0  0  0  0  0
  189.1580  178.6150  142.1450 N   0  0  0  0  0  2  0  0  0  0  0  0
  187.1520  178.1980  139.8880 C   0  0  0  0  0  0  0  0  0  0  0  0
  191.3680  177.6540  142.1960 C   0  0  0  0  0  2  0  0  0  0  0  0
  185.1830  178.8830  138.6110 N   0  0  0  0  0  2  0  0  0  0  0  0
  188.9710  176.9910  138.7410 C   0  0  0  0  0  0  0  0  0  0  0  0
  186.9200  177.5390  137.5550 C   0  0  0  0  0  3  0  0  0  0  0  0
  186.4000  177.6510  142.2050 C   0  0  0  0  0  1  0  0  0  0  0  0
  191.1000  176.5940  139.8720 C   0  0  0  0  0  3  0  0  0  0  0  0
  190.2780  176.4110  138.7480 C   0  0  0  0  0  0  0  0  0  0  0  0
  190.3630  178.5310  142.9690 C   0  0  2  0  0  3  0  0  0  0  0  0
  189.3700  177.8480  140.9740 C   0  0  0  0  0  0  0  0  0  0  0  0
  188.1710  176.9340  137.5920 C   0  0  0  0  0  3  0  0  0  0  0  0
  192.2850  175.4260  135.6720 C   0  0  0  0  0  0  0  0  0  0  0  0
  191.7970  174.1410  135.4280 C   0  0  0  0  0  3  0  0  0  0  0  0
  190.8270  175.6240  137.6110 C   0  0  0  0  0  0  0  0  0  0  0  0
  190.8220  173.5950  136.2650 C   0  0  0  0  0  3  0  0  0  0  0  0
  191.7990  176.1650  136.7540 C   0  0  0  0  0  3  0  0  0  0  0  0
  190.3360  174.3340  137.3470 C   0  0  0  0  0  3  0  0  0  0  0  0
  193.2520  175.9720  134.8380 O   0  0  0  0  0  1  0  0  0  0  0  0
  190.0410  177.9470  144.3430 C   0  0  0  0  0  2  0  0  0  0  0  0
  188.5750  177.5520  144.4750 C   0  0  0  0  0  2  0  0  0  0  0  0
  185.9950  178.1090  145.4990 O   0  0  0  0  0  0  0  0  0  0  0  0
  188.2270  177.2900  145.9310 C   0  0  2  0  0  3  0  0  0  0  0  0
  186.9500  178.0000  146.3130 C   0  0  0  0  0  0  0  0  0  0  0  0
  187.9190  178.3840  148.5930 C   0  0  0  0  0  2  0  0  0  0  0  0
  188.9640  177.3910  148.0800 C   0  0  0  0  0  2  0  0  0  0  0  0
  189.2950  177.7140  146.7510 O   0  0  0  0  0  0  0  0  0  0  0  0
  186.7940  178.4420  147.6630 N   0  0  0  0  0  2  0  0  0  0  0  0
  1  8  1  0  0  0  0
  2 13  1  1  0  0  0
  3 17  1  0  0  0  0
  4 17  2  0  0  0  0
  4  9  1  0  0  0  0
  5  6  1  0  0  0  0
  6  2  1  0  0  0  0
  7 16  1  0  0  0  0
  8  3  2  0  0  0  0
  8  2  1  0  0  0  0
  9 16  1  0  0  0  0
 10  1  1  0  0  0  0
 10  5  1  0  0  0  0
 11 15  1  0  0  0  0
 11  3  1  0  0  0  0
 12 18  1  0  0  0  0
 12  1  2  0  0  0  0
 14  4  1  0  0  0  0
 15 14  2  0  0  0  0
 16 26  1  1  0  0  0
 17  7  1  0  0  0  0
 18 11  2  0  0  0  0
 19 23  1  0  0  0  0
 20 19  2  0  0  0  0
 20 22  1  0  0  0  0
 21 15  1  0  0  0  0
 22 24  2  0  0  0  0
 23 21  2  0  0  0  0
 24 21  1  0  0  0  0
 25 19  1  0  0  0  0
 26 27  1  0  0  0  0
 28 30  2  0  0  0  0
 29 27  1  6  0  0  0
 29 30  1  0  0  0  0
 29 33  1  0  0  0  0
 30 34  1  0  0  0  0
 32 31  1  0  0  0  0
 33 32  1  0  0  0  0
 34 31  1  0  0  0  0
M  END
>  <MODEL>
7

>  <REMARK>
 VINA RESULT:      -9.5      2.948      8.857
  Name = 
  4 active torsions:
  status: ('A' for Active; 'I' for Inactive)
    1  A    between atoms: C_3  and  C_13
    2  A    between atoms: C_3  and  C_17
    3  A    between atoms: C_12  and  C_28
    4  A    between atoms: C_17  and  C_29
                            x       y       z     vdW  Elec       q    Type
                         _______ _______ _______ _____ _____    ______ ____

>  <TORSDO>
F 4

$$$$
=
 OpenBabel10262423403D

 34 39  0  0  1  0  0  0  0  0999 V2000
  186.8660  177.9490  145.4410 C   0  0  0  0  0  0  0  0  0  0  0  0
  188.8960  177.2440  144.1350 C   0  0  2  0  0  3  0  0  0  0  0  0
  186.7080  178.0700  143.0130 C   0  0  0  0  0  0  0  0  0  0  0  0
  186.5070  178.3960  140.6210 C   0  0  0  0  0  0  0  0  0  0  0  0
  189.0680  177.9380  146.5090 N   0  0  0  0  0  2  0  0  0  0  0  0
  189.4850  176.9460  145.5240 C   0  0  0  0  0  2  0  0  0  0  0  0
  188.6430  178.0620  141.3850 N   0  0  0  0  0  2  0  0  0  0  0  0
  187.4670  177.7740  144.1820 C   0  0  0  0  0  0  0  0  0  0  0  0
  187.3400  178.4530  139.3940 C   0  0  0  0  0  2  0  0  0  0  0  0
  187.6700  177.8630  146.6170 N   0  0  0  0  0  2  0  0  0  0  0  0
  185.3060  178.3340  143.1320 C   0  0  0  0  0  0  0  0  0  0  0  0
  185.5100  178.2400  145.5540 C   0  0  0  0  0  3  0  0  0  0  0  0
  188.9450  175.9340  143.3650 C   0  0  0  0  0  1  0  0  0  0  0  0
  185.1390  178.6030  140.7100 C   0  0  0  0  0  3  0  0  0  0  0  0
  184.5120  178.5670  141.9670 C   0  0  0  0  0  0  0  0  0  0  0  0
  188.7660  178.2340  139.9380 C   0  0  2  0  0  3  0  0  0  0  0  0
  187.2700  178.1430  141.7230 C   0  0  0  0  0  0  0  0  0  0  0  0
  184.7380  178.4120  144.4110 C   0  0  0  0  0  3  0  0  0  0  0  0
  180.9580  178.9690  143.2570 C   0  0  0  0  0  0  0  0  0  0  0  0
  180.2520  179.1400  142.0640 C   0  0  0  0  0  3  0  0  0  0  0  0
  183.0420  178.7880  142.0130 C   0  0  0  0  0  0  0  0  0  0  0  0
  180.9330  179.1300  140.8440 C   0  0  0  0  0  3  0  0  0  0  0  0
  182.3430  178.7880  143.2300 C   0  0  0  0  0  3  0  0  0  0  0  0
  182.3180  178.9510  140.8190 C   0  0  0  0  0  3  0  0  0  0  0  0
  180.2820  178.9740  144.4690 O   0  0  0  0  0  1  0  0  0  0  0  0
  189.4330  177.0150  139.3020 C   0  0  0  0  0  2  0  0  0  0  0  0
  189.5650  177.1510  137.7910 C   0  0  0  0  0  2  0  0  0  0  0  0
  190.1290  175.5900  135.4960 O   0  0  0  0  0  0  0  0  0  0  0  0
  190.9940  176.8670  137.3580 C   0  0  2  0  0  3  0  0  0  0  0  0
  191.0360  175.7340  136.3590 C   0  0  0  0  0  0  0  0  0  0  0  0
  193.2140  175.0100  137.3650 C   0  0  0  0  0  2  0  0  0  0  0  0
  193.0990  176.3700  138.0570 C   0  0  0  0  0  2  0  0  0  0  0  0
  191.7740  176.5570  138.4920 O   0  0  0  0  0  0  0  0  0  0  0  0
  192.1920  174.8960  136.3280 N   0  0  0  0  0  2  0  0  0  0  0  0
  1 12  1  0  0  0  0
  1 10  1  0  0  0  0
  2 13  1  6  0  0  0
  2  8  1  0  0  0  0
  2  6  1  0  0  0  0
  3 11  1  0  0  0  0
  3  8  1  0  0  0  0
  4 14  2  0  0  0  0
  4 17  1  0  0  0  0
  5 10  1  0  0  0  0
  6  5  1  0  0  0  0
  7 17  1  0  0  0  0
  8  1  2  0  0  0  0
  9 16  1  0  0  0  0
  9  4  1  0  0  0  0
 11 18  1  0  0  0  0
 14 15  1  0  0  0  0
 15 21  1  0  0  0  0
 15 11  2  0  0  0  0
 16 26  1  6  0  0  0
 16  7  1  0  0  0  0
 17  3  2  0  0  0  0
 18 12  2  0  0  0  0
 19 25  1  0  0  0  0
 20 19  2  0  0  0  0
 21 23  2  0  0  0  0
 22 20  1  0  0  0  0
 23 19  1  0  0  0  0
 24 22  2  0  0  0  0
 24 21  1  0  0  0  0
 27 26  1  0  0  0  0
 28 30  2  0  0  0  0
 29 27  1  1  0  0  0
 29 33  1  0  0  0  0
 30 29  1  0  0  0  0
 31 32  1  0  0  0  0
 32 33  1  0  0  0  0
 34 30  1  0  0  0  0
 34 31  1  0  0  0  0
M  END
>  <MODEL>
8

>  <REMARK>
 VINA RESULT:      -9.4      1.573      2.482
  Name = 
  4 active torsions:
  status: ('A' for Active; 'I' for Inactive)
    1  A    between atoms: C_3  and  C_13
    2  A    between atoms: C_3  and  C_17
    3  A    between atoms: C_12  and  C_28
    4  A    between atoms: C_17  and  C_29
                            x       y       z     vdW  Elec       q    Type
                         _______ _______ _______ _____ _____    ______ ____

>  <TORSDO>
F 4

$$$$
=
 OpenBabel10262423403D

 34 39  0  0  1  0  0  0  0  0999 V2000
  188.0980  178.4290  139.3050 C   0  0  0  0  0  0  0  0  0  0  0  0
  186.2210  178.3820  137.6320 C   0  0  2  0  0  3  0  0  0  0  0  0
  185.8320  178.5340  140.1920 C   0  0  0  0  0  0  0  0  0  0  0  0
  183.6320  178.8220  141.1660 C   0  0  0  0  0  0  0  0  0  0  0  0
  188.5140  179.0580  136.9770 N   0  0  0  0  0  2  0  0  0  0  0  0
  187.3570  178.2520  136.6040 C   0  0  0  0  0  2  0  0  0  0  0  0
  183.7430  179.1290  138.8960 N   0  0  0  0  0  2  0  0  0  0  0  0
  186.7120  178.4600  139.0740 C   0  0  0  0  0  0  0  0  0  0  0  0
  182.2360  179.1440  140.7780 C   0  0  0  0  0  2  0  0  0  0  0  0
  188.9930  178.5690  138.2020 N   0  0  0  0  0  2  0  0  0  0  0  0
  186.3570  178.3670  141.5130 C   0  0  0  0  0  0  0  0  0  0  0  0
  188.6080  178.3010  140.5940 C   0  0  0  0  0  3  0  0  0  0  0  0
  185.3390  177.1580  137.4440 C   0  0  0  0  0  1  0  0  0  0  0  0
  184.1130  178.6100  142.4490 C   0  0  0  0  0  3  0  0  0  0  0  0
  185.4840  178.3700  142.6440 C   0  0  0  0  0  0  0  0  0  0  0  0
  182.3430  179.3510  139.2540 C   0  0  2  0  0  3  0  0  0  0  0  0
  184.4510  178.7920  140.0750 C   0  0  0  0  0  0  0  0  0  0  0  0
  187.7440  178.2520  141.6810 C   0  0  0  0  0  3  0  0  0  0  0  0
  185.9550  178.7240  146.4010 C   0  0  0  0  0  0  0  0  0  0  0  0
  186.9090  177.7350  146.6510 C   0  0  0  0  0  3  0  0  0  0  0  0
  185.9530  178.1420  144.0380 C   0  0  0  0  0  0  0  0  0  0  0  0
  187.3920  176.9520  145.6000 C   0  0  0  0  0  3  0  0  0  0  0  0
  185.4850  178.9300  145.1010 C   0  0  0  0  0  3  0  0  0  0  0  0
  186.9200  177.1570  144.3010 C   0  0  0  0  0  3  0  0  0  0  0  0
  185.4770  179.5060  147.4430 O   0  0  0  0  0  1  0  0  0  0  0  0
  181.4290  178.3970  138.4880 C   0  0  0  0  0  2  0  0  0  0  0  0
  180.7540  177.3830  139.4020 C   0  0  0  0  0  2  0  0  0  0  0  0
  182.9590  175.6080  139.4890 O   0  0  0  0  0  0  0  0  0  0  0  0
  180.7010  176.0200  138.7300 C   0  0  2  0  0  3  0  0  0  0  0  0
  182.0870  175.4350  138.5960 C   0  0  0  0  0  0  0  0  0  0  0  0
  181.3790  174.4210  136.4160 C   0  0  0  0  0  2  0  0  0  0  0  0
  179.9980  174.8560  136.9080 C   0  0  0  0  0  2  0  0  0  0  0  0
  180.0900  176.1450  137.4640 O   0  0  0  0  0  0  0  0  0  0  0  0
  182.3570  174.5720  137.4900 N   0  0  0  0  0  2  0  0  0  0  0  0
  1 12  1  0  0  0  0
  2 13  1  1  0  0  0
  2  8  1  0  0  0  0
  3 11  1  0  0  0  0
  4 14  2  0  0  0  0
  5 10  1  0  0  0  0
  6  5  1  0  0  0  0
  6  2  1  0  0  0  0
  7 16  1  0  0  0  0
  7 17  1  0  0  0  0
  8  1  2  0  0  0  0
  8  3  1  0  0  0  0
  9  4  1  0  0  0  0
 10  1  1  0  0  0  0
 11 18  1  0  0  0  0
 11 15  2  0  0  0  0
 12 18  2  0  0  0  0
 14 15  1  0  0  0  0
 15 21  1  0  0  0  0
 16 26  1  6  0  0  0
 16  9  1  0  0  0  0
 17  3  2  0  0  0  0
 17  4  1  0  0  0  0
 19 20  1  0  0  0  0
 19 25  1  0  0  0  0
 21 24  2  0  0  0  0
 21 23  1  0  0  0  0
 22 20  2  0  0  0  0
 23 19  2  0  0  0  0
 24 22  1  0  0  0  0
 26 27  1  0  0  0  0
 29 27  1  6  0  0  0
 30 29  1  0  0  0  0
 30 28  2  0  0  0  0
 31 32  1  0  0  0  0
 31 34  1  0  0  0  0
 32 33  1  0  0  0  0
 33 29  1  0  0  0  0
 34 30  1  0  0  0  0
M  END
>  <MODEL>
9

>  <REMARK>
 VINA RESULT:      -9.4      4.454      7.881
  Name = 
  4 active torsions:
  status: ('A' for Active; 'I' for Inactive)
    1  A    between atoms: C_3  and  C_13
    2  A    between atoms: C_3  and  C_17
    3  A    between atoms: C_12  and  C_28
    4  A    between atoms: C_17  and  C_29
                            x       y       z     vdW  Elec       q    Type
                         _______ _______ _______ _____ _____    ______ ____

>  <TORSDO>
F 4

$$$$
