=
 OpenBabel10272413293D

 32 34  0  0  1  0  0  0  0  0999 V2000
  187.3310  177.9170  142.4120 C   0  0  0  0  0  0  0  0  0  0  0  0
  183.3620  178.8610  145.0270 C   0  0  0  0  0  2  0  0  0  0  0  0
  184.1230  178.4750  146.3120 C   0  0  0  0  0  2  0  0  0  0  0  0
  189.3110  176.7790  143.5740 C   0  0  0  0  0  0  0  0  0  0  0  0
  190.2440  176.8080  144.7660 C   0  0  2  0  0  3  0  0  0  0  0  0
  184.2250  179.5610  143.9710 C   0  0  0  0  0  2  0  0  0  0  0  0
  186.0770  178.5860  142.5280 C   0  0  0  0  0  0  0  0  0  0  0  0
  186.2280  178.4700  144.9550 C   0  0  0  0  0  0  0  0  0  0  0  0
  187.4620  177.8180  144.8590 C   0  0  0  0  0  0  0  0  0  0  0  0
  185.6210  178.8080  146.2890 C   0  0  0  0  0  2  0  0  0  0  0  0
  185.5380  178.8460  143.8000 C   0  0  0  0  0  0  0  0  0  0  0  0
  188.1790  177.3780  146.1020 C   0  0  0  0  0  2  0  0  0  0  0  0
  189.6250  176.0600  142.5870 O   0  0  0  0  0  0  0  0  0  0  0  0
  188.0100  177.5120  143.5950 C   0  0  0  0  0  0  0  0  0  0  0  0
  189.6760  177.6070  145.9520 C   0  0  1  0  0  3  0  0  0  0  0  0
  188.7060  178.5260  140.3950 C   0  0  0  0  0  3  0  0  0  0  0  0
  187.9900  177.6590  141.1000 C   0  0  0  0  0  3  0  0  0  0  0  0
  190.5270  177.2670  139.3540 C   0  0  0  0  0  1  0  0  0  0  0  0
  189.3030  178.1200  139.0990 C   0  0  0  0  0  2  0  0  0  0  0  0
  190.7040  176.0620  147.4170 O   0  0  0  0  0  0  0  0  0  0  0  0
  190.3480  177.2150  147.2300 C   0  0  0  0  0  3  0  0  0  0  0  0
  191.4460  178.8470  143.9680 C   0  0  0  0  0  1  0  0  0  0  0  0
  191.5930  177.3900  144.3620 C   0  0  0  0  0  2  0  0  0  0  0  0
  185.2710  178.9780  141.3250 C   0  0  0  0  0  2  0  0  0  0  0  0
  184.3000  177.9400  141.0280 N   0  0  0  0  0  2  0  0  0  0  0  0
  183.0940  178.6140  140.5810 C   0  0  0  0  0  2  0  0  0  0  0  0
  182.7890  178.2340  139.1420 C   0  0  0  0  0  2  0  0  0  0  0  0
  183.6190  177.1130  138.7270 N   0  0  0  0  0  2  0  0  0  0  0  0
  184.2090  177.4580  137.4450 C   0  0  0  0  0  2  0  0  0  0  0  0
  185.6670  177.6960  137.6140 C   0  0  0  0  0  0  0  0  0  0  0  0
  186.5660  176.6550  137.4220 O   0  0  0  0  0  0  0  0  0  0  0  0
  186.0840  178.8290  137.9690 O   0  0  0  0  0  1  0  0  0  0  0  0
  1  7  2  0  0  0  0
  1 14  1  0  0  0  0
  2  3  1  0  0  0  0
  4 14  1  0  0  0  0
  4  5  1  0  0  0  0
  5 23  1  6  0  0  0
  5 15  1  0  0  0  0
  6  2  1  0  0  0  0
  7 11  1  0  0  0  0
  8 10  1  0  0  0  0
  9  8  1  0  0  0  0
  9 12  1  0  0  0  0
 10  3  1  0  0  0  0
 11  6  1  0  0  0  0
 11  8  2  0  0  0  0
 13  4  2  0  0  0  0
 14  9  2  0  0  0  0
 15 12  1  0  0  0  0
 15 21  1  1  0  0  0
 16 17  2  0  0  0  0
 17  1  1  0  0  0  0
 19 18  1  0  0  0  0
 19 16  1  0  0  0  0
 21 20  2  0  0  0  0
 22 23  1  0  0  0  0
 24  7  1  0  0  0  0
 25 24  1  0  0  0  0
 26 25  1  0  0  0  0
 27 26  1  0  0  0  0
 28 27  1  0  0  0  0
 29 30  1  0  0  0  0
 29 28  1  0  0  0  0
 30 32  1  0  0  0  0
 31 30  2  0  0  0  0
M  END
>  <MODEL>
1

>  <REMARK>
 VINA RESULT:      -8.2      0.000      0.000
  Name = 
  11 active torsions:
  status: ('A' for Active; 'I' for Inactive)
    1  A    between atoms: C_1  and  C_24
    2  A    between atoms: C_2  and  N_10
    3  A    between atoms: C_2  and  C_12
    4  A    between atoms: C_3  and  C_28
    5  A    between atoms: C_7  and  C_22
    6  A    between atoms: C_8  and  C_23
    7  A    between atoms: C_9  and  C_14
    8  A    between atoms: C_9  and  N_21
    9  A    between atoms: N_10  and  C_24
   10  A    between atoms: C_12  and  N_21
   11  A    between atoms: C_30  and  C_32
                            x       y       z     vdW  Elec       q    Type
                         _______ _______ _______ _____ _____    ______ ____

>  <TORSDO>
F 11

$$$$
=
 OpenBabel10272413293D

 32 34  0  0  1  0  0  0  0  0999 V2000
  186.8370  178.0560  142.5260 C   0  0  0  0  0  0  0  0  0  0  0  0
  187.5210  178.3900  147.3110 C   0  0  0  0  0  2  0  0  0  0  0  0
  186.0590  178.8510  147.4830 C   0  0  0  0  0  2  0  0  0  0  0  0
  184.6610  178.9860  141.5400 C   0  0  0  0  0  0  0  0  0  0  0  0
  183.1510  178.9970  141.6400 C   0  0  2  0  0  3  0  0  0  0  0  0
  187.7280  177.3560  146.2000 C   0  0  0  0  0  2  0  0  0  0  0  0
  187.5790  177.6740  143.6820 C   0  0  0  0  0  0  0  0  0  0  0  0
  185.6690  178.2030  145.0970 C   0  0  0  0  0  0  0  0  0  0  0  0
  184.9250  178.5760  143.9720 C   0  0  0  0  0  0  0  0  0  0  0  0
  185.0760  178.2380  146.4780 C   0  0  0  0  0  2  0  0  0  0  0  0
  186.9870  177.7610  144.9540 C   0  0  0  0  0  0  0  0  0  0  0  0
  183.5240  179.0890  144.1340 C   0  0  0  0  0  2  0  0  0  0  0  0
  185.1950  179.4380  140.4920 O   0  0  0  0  0  0  0  0  0  0  0  0
  185.5050  178.5330  142.6870 C   0  0  0  0  0  0  0  0  0  0  0  0
  182.6370  178.5530  143.0200 C   0  0  1  0  0  3  0  0  0  0  0  0
  188.3740  178.6480  140.6250 C   0  0  0  0  0  3  0  0  0  0  0  0
  187.3780  177.9390  141.1420 C   0  0  0  0  0  3  0  0  0  0  0  0
  190.0030  177.4920  139.2120 C   0  0  0  0  0  1  0  0  0  0  0  0
  188.8040  178.4170  139.2240 C   0  0  0  0  0  2  0  0  0  0  0  0
  180.8800  180.1220  142.8250 O   0  0  0  0  0  0  0  0  0  0  0  0
  181.2400  179.0360  143.2500 C   0  0  0  0  0  3  0  0  0  0  0  0
  181.8110  178.9330  139.5320 C   0  0  0  0  0  1  0  0  0  0  0  0
  182.5490  178.1010  140.5630 C   0  0  0  0  0  2  0  0  0  0  0  0
  189.0100  177.2310  143.5960 C   0  0  0  0  0  2  0  0  0  0  0  0
  189.8840  178.3900  143.6450 N   0  0  0  0  0  2  0  0  0  0  0  0
  191.2460  177.8860  143.6040 C   0  0  0  0  0  2  0  0  0  0  0  0
  191.4600  176.8780  144.7220 C   0  0  0  0  0  2  0  0  0  0  0  0
  191.6420  177.5630  145.9930 N   0  0  0  0  0  2  0  0  0  0  0  0
  191.1810  176.6670  147.0400 C   0  0  0  0  0  2  0  0  0  0  0  0
  192.3120  175.8240  147.5110 C   0  0  0  0  0  0  0  0  0  0  0  0
  193.0470  176.2080  148.6240 O   0  0  0  0  0  1  0  0  0  0  0  0
  192.6280  174.7840  146.8780 O   0  0  0  0  0  0  0  0  0  0  0  0
  1 14  2  0  0  0  0
  1  7  1  0  0  0  0
  2  3  1  0  0  0  0
  4  5  1  0  0  0  0
  4 14  1  0  0  0  0
  5 23  1  6  0  0  0
  5 15  1  0  0  0  0
  6  2  1  0  0  0  0
  7 11  2  0  0  0  0
  8 10  1  0  0  0  0
  9 12  1  0  0  0  0
  9  8  2  0  0  0  0
 10  3  1  0  0  0  0
 11  8  1  0  0  0  0
 11  6  1  0  0  0  0
 13  4  2  0  0  0  0
 14  9  1  0  0  0  0
 15 21  1  1  0  0  0
 15 12  1  0  0  0  0
 16 17  2  0  0  0  0
 17  1  1  0  0  0  0
 18 19  1  0  0  0  0
 19 16  1  0  0  0  0
 20 21  2  0  0  0  0
 22 23  1  0  0  0  0
 24 25  1  0  0  0  0
 24  7  1  0  0  0  0
 26 25  1  0  0  0  0
 26 27  1  0  0  0  0
 27 28  1  0  0  0  0
 28 29  1  0  0  0  0
 29 30  1  0  0  0  0
 30 31  1  0  0  0  0
 32 30  2  0  0  0  0
M  END
>  <MODEL>
2

>  <REMARK>
 VINA RESULT:      -8.1      2.642      7.282
  Name = 
  11 active torsions:
  status: ('A' for Active; 'I' for Inactive)
    1  A    between atoms: C_1  and  C_24
    2  A    between atoms: C_2  and  N_10
    3  A    between atoms: C_2  and  C_12
    4  A    between atoms: C_3  and  C_28
    5  A    between atoms: C_7  and  C_22
    6  A    between atoms: C_8  and  C_23
    7  A    between atoms: C_9  and  C_14
    8  A    between atoms: C_9  and  N_21
    9  A    between atoms: N_10  and  C_24
   10  A    between atoms: C_12  and  N_21
   11  A    between atoms: C_30  and  C_32
                            x       y       z     vdW  Elec       q    Type
                         _______ _______ _______ _____ _____    ______ ____

>  <TORSDO>
F 11

$$$$
=
 OpenBabel10272413293D

 32 34  0  0  1  0  0  0  0  0999 V2000
  187.3670  177.8720  142.4240 C   0  0  0  0  0  0  0  0  0  0  0  0
  183.3550  178.8720  144.9510 C   0  0  0  0  0  2  0  0  0  0  0  0
  184.0870  178.4930  146.2540 C   0  0  0  0  0  2  0  0  0  0  0  0
  189.3150  176.7290  143.6370 C   0  0  0  0  0  0  0  0  0  0  0  0
  190.2230  176.7630  144.8470 C   0  0  2  0  0  3  0  0  0  0  0  0
  184.2430  179.5540  143.9060 C   0  0  0  0  0  2  0  0  0  0  0  0
  186.1170  178.5520  142.5090 C   0  0  0  0  0  0  0  0  0  0  0  0
  186.2180  178.4570  144.9400 C   0  0  0  0  0  0  0  0  0  0  0  0
  187.4490  177.7950  144.8740 C   0  0  0  0  0  0  0  0  0  0  0  0
  185.5870  178.8140  146.2580 C   0  0  0  0  0  2  0  0  0  0  0  0
  185.5540  178.8280  143.7680 C   0  0  0  0  0  0  0  0  0  0  0  0
  188.1370  177.3620  146.1360 C   0  0  0  0  0  2  0  0  0  0  0  0
  189.6420  175.9980  142.6630 O   0  0  0  0  0  0  0  0  0  0  0  0
  188.0190  177.4730  143.6250 C   0  0  0  0  0  0  0  0  0  0  0  0
  189.6380  177.5770  146.0130 C   0  0  1  0  0  3  0  0  0  0  0  0
  188.6970  178.4770  140.3780 C   0  0  0  0  0  3  0  0  0  0  0  0
  188.0500  177.5950  141.1290 C   0  0  0  0  0  3  0  0  0  0  0  0
  190.3420  176.9600  139.3870 C   0  0  0  0  0  1  0  0  0  0  0  0
  189.3300  178.0500  139.1050 C   0  0  0  0  0  2  0  0  0  0  0  0
  190.9610  176.1810  147.3880 O   0  0  0  0  0  0  0  0  0  0  0  0
  190.2810  177.1920  147.3080 C   0  0  0  0  0  3  0  0  0  0  0  0
  191.4460  178.7590  143.9730 C   0  0  0  0  0  1  0  0  0  0  0  0
  191.5850  177.3300  144.4640 C   0  0  0  0  0  2  0  0  0  0  0  0
  185.3380  178.9380  141.2860 C   0  0  0  0  0  2  0  0  0  0  0  0
  184.3420  177.9210  141.0000 N   0  0  0  0  0  2  0  0  0  0  0  0
  183.1960  178.6090  140.4320 C   0  0  0  0  0  2  0  0  0  0  0  0
  182.1230  177.6020  140.0510 C   0  0  0  0  0  2  0  0  0  0  0  0
  180.8090  178.0870  140.4480 N   0  0  0  0  0  2  0  0  0  0  0  0
  180.9530  178.7200  141.7470 C   0  0  0  0  0  2  0  0  0  0  0  0
  180.2940  180.0530  141.7290 C   0  0  0  0  0  0  0  0  0  0  0  0
  179.9820  180.6890  142.9230 O   0  0  0  0  0  1  0  0  0  0  0  0
  179.9830  180.5870  140.6330 O   0  0  0  0  0  0  0  0  0  0  0  0
  1  7  2  0  0  0  0
  1 14  1  0  0  0  0
  2  3  1  0  0  0  0
  3 10  1  0  0  0  0
  4  5  1  0  0  0  0
  5 23  1  6  0  0  0
  5 15  1  0  0  0  0
  6  2  1  0  0  0  0
  7 11  1  0  0  0  0
  8 10  1  0  0  0  0
  9  8  1  0  0  0  0
  9 12  1  0  0  0  0
 11  6  1  0  0  0  0
 11  8  2  0  0  0  0
 13  4  2  0  0  0  0
 14  4  1  0  0  0  0
 14  9  2  0  0  0  0
 15 12  1  0  0  0  0
 15 21  1  1  0  0  0
 16 17  2  0  0  0  0
 17  1  1  0  0  0  0
 19 18  1  0  0  0  0
 19 16  1  0  0  0  0
 21 20  2  0  0  0  0
 22 23  1  0  0  0  0
 24  7  1  0  0  0  0
 25 24  1  0  0  0  0
 26 25  1  0  0  0  0
 27 26  1  0  0  0  0
 27 28  1  0  0  0  0
 28 29  1  0  0  0  0
 30 29  1  0  0  0  0
 30 31  1  0  0  0  0
 32 30  2  0  0  0  0
M  END
>  <MODEL>
3

>  <REMARK>
 VINA RESULT:      -8.0      2.119      2.700
  Name = 
  11 active torsions:
  status: ('A' for Active; 'I' for Inactive)
    1  A    between atoms: C_1  and  C_24
    2  A    between atoms: C_2  and  N_10
    3  A    between atoms: C_2  and  C_12
    4  A    between atoms: C_3  and  C_28
    5  A    between atoms: C_7  and  C_22
    6  A    between atoms: C_8  and  C_23
    7  A    between atoms: C_9  and  C_14
    8  A    between atoms: C_9  and  N_21
    9  A    between atoms: N_10  and  C_24
   10  A    between atoms: C_12  and  N_21
   11  A    between atoms: C_30  and  C_32
                            x       y       z     vdW  Elec       q    Type
                         _______ _______ _______ _____ _____    ______ ____

>  <TORSDO>
F 11

$$$$
=
 OpenBabel10272413293D

 32 34  0  0  1  0  0  0  0  0999 V2000
  187.3210  177.8780  142.3890 C   0  0  0  0  0  0  0  0  0  0  0  0
  183.2470  178.8940  144.8080 C   0  0  0  0  0  2  0  0  0  0  0  0
  183.9470  178.5250  146.1320 C   0  0  0  0  0  2  0  0  0  0  0  0
  189.2390  176.7470  143.6570 C   0  0  0  0  0  0  0  0  0  0  0  0
  190.1170  176.7900  144.8890 C   0  0  2  0  0  3  0  0  0  0  0  0
  184.1600  179.5690  143.7800 C   0  0  0  0  0  2  0  0  0  0  0  0
  186.0680  178.5570  142.4380 C   0  0  0  0  0  0  0  0  0  0  0  0
  186.1100  178.4820  144.8710 C   0  0  0  0  0  0  0  0  0  0  0  0
  187.3420  177.8200  144.8400 C   0  0  0  0  0  0  0  0  0  0  0  0
  185.4470  178.8480  146.1700 C   0  0  0  0  0  2  0  0  0  0  0  0
  185.4750  178.8430  143.6800 C   0  0  0  0  0  0  0  0  0  0  0  0
  188.0000  177.3980  146.1220 C   0  0  0  0  0  2  0  0  0  0  0  0
  189.5900  176.0080  142.6980 O   0  0  0  0  0  0  0  0  0  0  0  0
  187.9430  177.4890  143.6080 C   0  0  0  0  0  0  0  0  0  0  0  0
  189.5040  177.6140  146.0340 C   0  0  1  0  0  3  0  0  0  0  0  0
  188.8360  178.4230  140.4570 C   0  0  0  0  0  3  0  0  0  0  0  0
  188.0350  177.5920  141.1120 C   0  0  0  0  0  3  0  0  0  0  0  0
  190.7440  177.2230  139.5050 C   0  0  0  0  0  1  0  0  0  0  0  0
  189.4800  177.9930  139.1900 C   0  0  0  0  0  2  0  0  0  0  0  0
  189.7770  177.8040  148.3750 O   0  0  0  0  0  0  0  0  0  0  0  0
  190.1150  177.2390  147.3470 C   0  0  0  0  0  3  0  0  0  0  0  0
  191.3610  178.7850  144.0430 C   0  0  0  0  0  1  0  0  0  0  0  0
  191.4870  177.3560  144.5350 C   0  0  0  0  0  2  0  0  0  0  0  0
  185.3190  178.9340  141.1930 C   0  0  0  0  0  2  0  0  0  0  0  0
  184.2330  177.9950  140.9740 N   0  0  0  0  0  2  0  0  0  0  0  0
  183.2360  178.6900  140.1780 C   0  0  0  0  0  2  0  0  0  0  0  0
  183.9170  179.5140  139.0980 C   0  0  0  0  0  2  0  0  0  0  0  0
  183.1880  180.7530  138.8710 N   0  0  0  0  0  2  0  0  0  0  0  0
  181.8630  180.3980  138.3940 C   0  0  0  0  0  2  0  0  0  0  0  0
  180.8710  181.3890  138.8890 C   0  0  0  0  0  0  0  0  0  0  0  0
  180.1600  181.1350  140.0540 O   0  0  0  0  0  1  0  0  0  0  0  0
  180.6470  182.4380  138.2320 O   0  0  0  0  0  0  0  0  0  0  0  0
  1  7  2  0  0  0  0
  1 14  1  0  0  0  0
  2  3  1  0  0  0  0
  3 10  1  0  0  0  0
  4  5  1  0  0  0  0
  5 23  1  6  0  0  0
  5 15  1  0  0  0  0
  6  2  1  0  0  0  0
  7 11  1  0  0  0  0
  8 10  1  0  0  0  0
  9  8  1  0  0  0  0
  9 12  1  0  0  0  0
 11  6  1  0  0  0  0
 11  8  2  0  0  0  0
 13  4  2  0  0  0  0
 14  4  1  0  0  0  0
 14  9  2  0  0  0  0
 15 12  1  0  0  0  0
 15 21  1  1  0  0  0
 16 17  2  0  0  0  0
 17  1  1  0  0  0  0
 19 18  1  0  0  0  0
 19 16  1  0  0  0  0
 21 20  2  0  0  0  0
 22 23  1  0  0  0  0
 24  7  1  0  0  0  0
 25 24  1  0  0  0  0
 26 25  1  0  0  0  0
 27 26  1  0  0  0  0
 28 27  1  0  0  0  0
 29 28  1  0  0  0  0
 29 30  1  0  0  0  0
 30 31  1  0  0  0  0
 32 30  2  0  0  0  0
M  END
>  <MODEL>
4

>  <REMARK>
 VINA RESULT:      -8.0      2.010      2.412
  Name = 
  11 active torsions:
  status: ('A' for Active; 'I' for Inactive)
    1  A    between atoms: C_1  and  C_24
    2  A    between atoms: C_2  and  N_10
    3  A    between atoms: C_2  and  C_12
    4  A    between atoms: C_3  and  C_28
    5  A    between atoms: C_7  and  C_22
    6  A    between atoms: C_8  and  C_23
    7  A    between atoms: C_9  and  C_14
    8  A    between atoms: C_9  and  N_21
    9  A    between atoms: N_10  and  C_24
   10  A    between atoms: C_12  and  N_21
   11  A    between atoms: C_30  and  C_32
                            x       y       z     vdW  Elec       q    Type
                         _______ _______ _______ _____ _____    ______ ____

>  <TORSDO>
F 11

$$$$
=
 OpenBabel10272413293D

 32 34  0  0  1  0  0  0  0  0999 V2000
  187.3540  177.9550  142.2910 C   0  0  0  0  0  0  0  0  0  0  0  0
  183.3430  178.8930  144.8420 C   0  0  0  0  0  2  0  0  0  0  0  0
  184.0780  178.4890  146.1370 C   0  0  0  0  0  2  0  0  0  0  0  0
  189.3060  176.7930  143.4770 C   0  0  0  0  0  0  0  0  0  0  0  0
  190.2160  176.8050  144.6870 C   0  0  2  0  0  3  0  0  0  0  0  0
  184.2280  179.5990  143.8100 C   0  0  0  0  0  2  0  0  0  0  0  0
  186.1020  178.6300  142.3910 C   0  0  0  0  0  0  0  0  0  0  0  0
  186.2070  178.4860  144.8200 C   0  0  0  0  0  0  0  0  0  0  0  0
  187.4390  177.8290  144.7380 C   0  0  0  0  0  0  0  0  0  0  0  0
  185.5770  178.8140  146.1450 C   0  0  0  0  0  2  0  0  0  0  0  0
  185.5410  178.8790  143.6560 C   0  0  0  0  0  0  0  0  0  0  0  0
  188.1310  177.3720  145.9900 C   0  0  0  0  0  2  0  0  0  0  0  0
  189.6340  176.0830  142.4890 O   0  0  0  0  0  0  0  0  0  0  0  0
  188.0090  177.5340  143.4830 C   0  0  0  0  0  0  0  0  0  0  0  0
  189.6310  177.5940  145.8700 C   0  0  1  0  0  3  0  0  0  0  0  0
  188.7390  178.5880  140.2890 C   0  0  0  0  0  3  0  0  0  0  0  0
  188.0360  177.7070  140.9890 C   0  0  0  0  0  3  0  0  0  0  0  0
  188.6660  176.9590  138.4650 C   0  0  0  0  0  1  0  0  0  0  0  0
  189.3620  178.1910  139.0020 C   0  0  0  0  0  2  0  0  0  0  0  0
  189.8670  177.6150  148.2220 O   0  0  0  0  0  0  0  0  0  0  0  0
  190.2770  177.1850  147.1560 C   0  0  0  0  0  3  0  0  0  0  0  0
  191.4420  178.8410  143.9150 C   0  0  0  0  0  1  0  0  0  0  0  0
  191.5760  177.3840  144.3130 C   0  0  0  0  0  2  0  0  0  0  0  0
  185.3200  179.0390  141.1770 C   0  0  0  0  0  2  0  0  0  0  0  0
  184.3620  178.0010  140.8410 N   0  0  0  0  0  2  0  0  0  0  0  0
  183.9840  178.2170  139.4550 C   0  0  0  0  0  2  0  0  0  0  0  0
  183.0130  179.3820  139.3580 C   0  0  0  0  0  2  0  0  0  0  0  0
  181.6400  178.9080  139.4530 N   0  0  0  0  0  2  0  0  0  0  0  0
  181.5030  177.7860  138.5410 C   0  0  0  0  0  2  0  0  0  0  0  0
  180.6280  176.7500  139.1520 C   0  0  0  0  0  0  0  0  0  0  0  0
  180.4130  176.7440  140.5230 O   0  0  0  0  0  1  0  0  0  0  0  0
  180.1150  175.8550  138.4310 O   0  0  0  0  0  0  0  0  0  0  0  0
  1  7  2  0  0  0  0
  1 14  1  0  0  0  0
  2  3  1  0  0  0  0
  3 10  1  0  0  0  0
  4 14  1  0  0  0  0
  4  5  1  0  0  0  0
  5 23  1  6  0  0  0
  5 15  1  0  0  0  0
  6  2  1  0  0  0  0
  7 11  1  0  0  0  0
  8 10  1  0  0  0  0
  9  8  1  0  0  0  0
  9 12  1  0  0  0  0
 11  6  1  0  0  0  0
 11  8  2  0  0  0  0
 13  4  2  0  0  0  0
 14  9  2  0  0  0  0
 15 12  1  0  0  0  0
 15 21  1  1  0  0  0
 16 17  2  0  0  0  0
 17  1  1  0  0  0  0
 18 19  1  0  0  0  0
 19 16  1  0  0  0  0
 21 20  2  0  0  0  0
 22 23  1  0  0  0  0
 24  7  1  0  0  0  0
 25 24  1  0  0  0  0
 26 25  1  0  0  0  0
 27 28  1  0  0  0  0
 27 26  1  0  0  0  0
 29 30  1  0  0  0  0
 29 28  1  0  0  0  0
 30 31  1  0  0  0  0
 32 30  2  0  0  0  0
M  END
>  <MODEL>
5

>  <REMARK>
 VINA RESULT:      -7.5      1.874      2.160
  Name = 
  11 active torsions:
  status: ('A' for Active; 'I' for Inactive)
    1  A    between atoms: C_1  and  C_24
    2  A    between atoms: C_2  and  N_10
    3  A    between atoms: C_2  and  C_12
    4  A    between atoms: C_3  and  C_28
    5  A    between atoms: C_7  and  C_22
    6  A    between atoms: C_8  and  C_23
    7  A    between atoms: C_9  and  C_14
    8  A    between atoms: C_9  and  N_21
    9  A    between atoms: N_10  and  C_24
   10  A    between atoms: C_12  and  N_21
   11  A    between atoms: C_30  and  C_32
                            x       y       z     vdW  Elec       q    Type
                         _______ _______ _______ _____ _____    ______ ____

>  <TORSDO>
F 11

$$$$
=
 OpenBabel10272413293D

 32 34  0  0  1  0  0  0  0  0999 V2000
  186.7920  178.0950  142.3570 C   0  0  0  0  0  0  0  0  0  0  0  0
  187.3860  178.3260  147.1610 C   0  0  0  0  0  2  0  0  0  0  0  0
  185.9280  178.8030  147.3140 C   0  0  0  0  0  2  0  0  0  0  0  0
  184.6480  179.0730  141.3490 C   0  0  0  0  0  0  0  0  0  0  0  0
  183.1370  179.1020  141.4190 C   0  0  2  0  0  3  0  0  0  0  0  0
  187.6020  177.3120  146.0330 C   0  0  0  0  0  2  0  0  0  0  0  0
  187.5060  177.6810  143.5200 C   0  0  0  0  0  0  0  0  0  0  0  0
  185.5760  178.2070  144.9080 C   0  0  0  0  0  0  0  0  0  0  0  0
  184.8590  178.6120  143.7760 C   0  0  0  0  0  0  0  0  0  0  0  0
  184.9570  178.2230  146.2780 C   0  0  0  0  0  2  0  0  0  0  0  0
  186.8900  177.7510  144.7820 C   0  0  0  0  0  0  0  0  0  0  0  0
  183.4620  179.1410  143.9220 C   0  0  0  0  0  2  0  0  0  0  0  0
  185.2090  179.5380  140.3200 O   0  0  0  0  0  0  0  0  0  0  0  0
  185.4640  178.5870  142.5020 C   0  0  0  0  0  0  0  0  0  0  0  0
  182.5910  178.6390  142.7800 C   0  0  1  0  0  3  0  0  0  0  0  0
  188.3110  178.7660  140.4690 C   0  0  0  0  0  3  0  0  0  0  0  0
  187.3590  177.9970  140.9830 C   0  0  0  0  0  3  0  0  0  0  0  0
  188.0760  177.3340  138.4980 C   0  0  0  0  0  1  0  0  0  0  0  0
  188.7750  178.5460  139.0760 C   0  0  0  0  0  2  0  0  0  0  0  0
  180.6390  178.9880  144.0690 O   0  0  0  0  0  0  0  0  0  0  0  0
  181.1960  179.1360  142.9930 C   0  0  0  0  0  3  0  0  0  0  0  0
  181.8650  179.1000  139.2680 C   0  0  0  0  0  1  0  0  0  0  0  0
  182.5440  178.2360  140.3130 C   0  0  0  0  0  2  0  0  0  0  0  0
  188.9330  177.2200  143.4530 C   0  0  0  0  0  2  0  0  0  0  0  0
  189.8200  178.3370  143.7230 N   0  0  0  0  0  2  0  0  0  0  0  0
  191.1160  177.7700  144.0530 C   0  0  0  0  0  2  0  0  0  0  0  0
  191.4990  176.7170  143.0260 C   0  0  0  0  0  2  0  0  0  0  0  0
  192.3640  177.2940  142.0080 N   0  0  0  0  0  2  0  0  0  0  0  0
  191.6250  177.2930  140.7570 C   0  0  0  0  0  2  0  0  0  0  0  0
  192.5600  177.0580  139.6250 C   0  0  0  0  0  0  0  0  0  0  0  0
  192.0830  176.5500  138.4240 O   0  0  0  0  0  0  0  0  0  0  0  0
  193.7910  177.2810  139.7680 O   0  0  0  0  0  1  0  0  0  0  0  0
  1 14  2  0  0  0  0
  1  7  1  0  0  0  0
  2  3  1  0  0  0  0
  4  5  1  0  0  0  0
  4 14  1  0  0  0  0
  5 23  1  6  0  0  0
  5 15  1  0  0  0  0
  6  2  1  0  0  0  0
  7 11  2  0  0  0  0
  8 10  1  0  0  0  0
  9 12  1  0  0  0  0
  9  8  2  0  0  0  0
 10  3  1  0  0  0  0
 11  8  1  0  0  0  0
 11  6  1  0  0  0  0
 13  4  2  0  0  0  0
 14  9  1  0  0  0  0
 15 21  1  1  0  0  0
 15 12  1  0  0  0  0
 16 17  2  0  0  0  0
 17  1  1  0  0  0  0
 18 19  1  0  0  0  0
 19 16  1  0  0  0  0
 21 20  2  0  0  0  0
 22 23  1  0  0  0  0
 24  7  1  0  0  0  0
 24 25  1  0  0  0  0
 25 26  1  0  0  0  0
 27 26  1  0  0  0  0
 28 27  1  0  0  0  0
 29 28  1  0  0  0  0
 30 32  1  0  0  0  0
 30 29  1  0  0  0  0
 31 30  2  0  0  0  0
M  END
>  <MODEL>
6

>  <REMARK>
 VINA RESULT:      -7.3      2.906      6.321
  Name = 
  11 active torsions:
  status: ('A' for Active; 'I' for Inactive)
    1  A    between atoms: C_1  and  C_24
    2  A    between atoms: C_2  and  N_10
    3  A    between atoms: C_2  and  C_12
    4  A    between atoms: C_3  and  C_28
    5  A    between atoms: C_7  and  C_22
    6  A    between atoms: C_8  and  C_23
    7  A    between atoms: C_9  and  C_14
    8  A    between atoms: C_9  and  N_21
    9  A    between atoms: N_10  and  C_24
   10  A    between atoms: C_12  and  N_21
   11  A    between atoms: C_30  and  C_32
                            x       y       z     vdW  Elec       q    Type
                         _______ _______ _______ _____ _____    ______ ____

>  <TORSDO>
F 11

$$$$
=
 OpenBabel10272413293D

 32 34  0  0  1  0  0  0  0  0999 V2000
  186.3960  178.5130  141.3810 C   0  0  0  0  0  0  0  0  0  0  0  0
  186.2590  178.5530  146.2250 C   0  0  0  0  0  2  0  0  0  0  0  0
  184.7360  178.7900  146.1750 C   0  0  0  0  0  2  0  0  0  0  0  0
  184.2880  179.2070  140.0990 C   0  0  0  0  0  0  0  0  0  0  0  0
  182.7970  179.0000  139.9440 C   0  0  2  0  0  3  0  0  0  0  0  0
  186.7920  177.6510  145.1070 C   0  0  0  0  0  2  0  0  0  0  0  0
  186.9960  178.1470  142.6220 C   0  0  0  0  0  0  0  0  0  0  0  0
  184.8290  178.2890  143.7240 C   0  0  0  0  0  0  0  0  0  0  0  0
  184.2240  178.6430  142.5130 C   0  0  0  0  0  0  0  0  0  0  0  0
  184.0270  178.1290  144.9860 C   0  0  0  0  0  2  0  0  0  0  0  0
  186.2040  178.0470  143.7790 C   0  0  0  0  0  0  0  0  0  0  0  0
  182.7540  178.9420  142.4670 C   0  0  0  0  0  2  0  0  0  0  0  0
  184.9060  179.8120  139.1820 O   0  0  0  0  0  0  0  0  0  0  0  0
  184.9990  178.7860  141.3430 C   0  0  0  0  0  0  0  0  0  0  0  0
  182.1450  178.3800  141.1920 C   0  0  1  0  0  3  0  0  0  0  0  0
  187.5300  177.5550  139.3510 C   0  0  0  0  0  3  0  0  0  0  0  0
  187.1610  178.5840  140.1040 C   0  0  0  0  0  3  0  0  0  0  0  0
  187.3540  178.2910  137.0240 C   0  0  0  0  0  1  0  0  0  0  0  0
  188.2930  177.7840  138.0980 C   0  0  0  0  0  2  0  0  0  0  0  0
  180.0210  178.4610  142.2270 O   0  0  0  0  0  0  0  0  0  0  0  0
  180.6730  178.6430  141.2110 C   0  0  0  0  0  3  0  0  0  0  0  0
  181.8430  178.9230  137.6360 C   0  0  0  0  0  1  0  0  0  0  0  0
  182.5140  178.1190  138.7330 C   0  0  0  0  0  2  0  0  0  0  0  0
  188.4730  177.9150  142.7520 C   0  0  0  0  0  2  0  0  0  0  0  0
  188.7650  176.5050  142.5620 N   0  0  0  0  0  2  0  0  0  0  0  0
  190.0630  176.4330  141.9150 C   0  0  0  0  0  2  0  0  0  0  0  0
  190.9580  177.5510  142.4220 C   0  0  0  0  0  2  0  0  0  0  0  0
  191.8320  177.0620  143.4780 N   0  0  0  0  0  2  0  0  0  0  0  0
  191.5570  177.8470  144.6690 C   0  0  0  0  0  2  0  0  0  0  0  0
  191.1700  176.9430  145.7850 C   0  0  0  0  0  0  0  0  0  0  0  0
  192.1020  176.0670  146.3230 O   0  0  0  0  0  1  0  0  0  0  0  0
  189.9870  176.9440  146.2140 O   0  0  0  0  0  0  0  0  0  0  0  0
  1  7  1  0  0  0  0
  3  2  1  0  0  0  0
  4 14  1  0  0  0  0
  5 23  1  6  0  0  0
  5  4  1  0  0  0  0
  5 15  1  0  0  0  0
  6  2  1  0  0  0  0
  7 24  1  0  0  0  0
  7 11  2  0  0  0  0
  8 11  1  0  0  0  0
  8 10  1  0  0  0  0
  9  8  2  0  0  0  0
 10  3  1  0  0  0  0
 11  6  1  0  0  0  0
 12  9  1  0  0  0  0
 13  4  2  0  0  0  0
 14  1  2  0  0  0  0
 14  9  1  0  0  0  0
 15 21  1  1  0  0  0
 15 12  1  0  0  0  0
 16 17  2  0  0  0  0
 17  1  1  0  0  0  0
 18 19  1  0  0  0  0
 19 16  1  0  0  0  0
 21 20  2  0  0  0  0
 22 23  1  0  0  0  0
 25 24  1  0  0  0  0
 26 27  1  0  0  0  0
 26 25  1  0  0  0  0
 27 28  1  0  0  0  0
 28 29  1  0  0  0  0
 29 30  1  0  0  0  0
 30 32  2  0  0  0  0
 30 31  1  0  0  0  0
M  END
>  <MODEL>
7

>  <REMARK>
 VINA RESULT:      -7.0      2.510      7.024
  Name = 
  11 active torsions:
  status: ('A' for Active; 'I' for Inactive)
    1  A    between atoms: C_1  and  C_24
    2  A    between atoms: C_2  and  N_10
    3  A    between atoms: C_2  and  C_12
    4  A    between atoms: C_3  and  C_28
    5  A    between atoms: C_7  and  C_22
    6  A    between atoms: C_8  and  C_23
    7  A    between atoms: C_9  and  C_14
    8  A    between atoms: C_9  and  N_21
    9  A    between atoms: N_10  and  C_24
   10  A    between atoms: C_12  and  N_21
   11  A    between atoms: C_30  and  C_32
                            x       y       z     vdW  Elec       q    Type
                         _______ _______ _______ _____ _____    ______ ____

>  <TORSDO>
F 11

$$$$
=
 OpenBabel10272413293D

 32 34  0  0  1  0  0  0  0  0999 V2000
  188.5610  177.6930  142.1910 C   0  0  0  0  0  0  0  0  0  0  0  0
  187.0780  177.7650  137.5780 C   0  0  0  0  0  2  0  0  0  0  0  0
  185.6250  177.9690  138.0540 C   0  0  0  0  0  2  0  0  0  0  0  0
  186.7860  177.6080  144.0380 C   0  0  0  0  0  0  0  0  0  0  0  0
  185.5150  178.2280  144.5770 C   0  0  2  0  0  3  0  0  0  0  0  0
  188.1290  178.4620  138.4490 C   0  0  0  0  0  2  0  0  0  0  0  0
  188.8700  177.8920  140.8130 C   0  0  0  0  0  0  0  0  0  0  0  0
  186.5310  178.3880  140.3500 C   0  0  0  0  0  0  0  0  0  0  0  0
  186.2130  178.2020  141.7000 C   0  0  0  0  0  0  0  0  0  0  0  0
  185.4870  178.7870  139.3440 C   0  0  0  0  0  2  0  0  0  0  0  0
  187.8470  178.2290  139.9090 C   0  0  0  0  0  0  0  0  0  0  0  0
  184.7900  178.3330  142.1610 C   0  0  0  0  0  2  0  0  0  0  0  0
  187.4420  176.8390  144.7910 O   0  0  0  0  0  0  0  0  0  0  0  0
  187.2110  177.8280  142.6230 C   0  0  0  0  0  0  0  0  0  0  0  0
  184.7400  179.0260  143.5140 C   0  0  1  0  0  3  0  0  0  0  0  0
  190.4400  178.2580  143.7640 C   0  0  0  0  0  3  0  0  0  0  0  0
  189.6000  177.3890  143.2160 C   0  0  0  0  0  3  0  0  0  0  0  0
  190.7270  176.9380  145.8050 C   0  0  0  0  0  1  0  0  0  0  0  0
  191.4250  177.8040  144.7770 C   0  0  0  0  0  2  0  0  0  0  0  0
  182.4100  178.8880  143.1420 O   0  0  0  0  0  0  0  0  0  0  0  0
  183.3080  179.1920  143.9110 C   0  0  0  0  0  3  0  0  0  0  0  0
  185.3750  178.5000  147.0560 C   0  0  0  0  0  1  0  0  0  0  0  0
  185.8350  179.1350  145.7590 C   0  0  0  0  0  2  0  0  0  0  0  0
  190.2560  177.6970  140.2730 C   0  0  0  0  0  2  0  0  0  0  0  0
  190.3470  176.4030  139.6190 N   0  0  0  0  0  2  0  0  0  0  0  0
  191.2230  176.5760  138.4740 C   0  0  0  0  0  2  0  0  0  0  0  0
  191.7340  175.2250  138.0030 C   0  0  0  0  0  2  0  0  0  0  0  0
  193.1270  175.3250  137.5910 N   0  0  0  0  0  2  0  0  0  0  0  0
  193.6650  173.9760  137.5440 C   0  0  0  0  0  2  0  0  0  0  0  0
  194.9270  173.9150  138.3280 C   0  0  0  0  0  0  0  0  0  0  0  0
  195.3330  172.7150  138.8960 O   0  0  0  0  0  1  0  0  0  0  0  0
  195.6070  174.9580  138.5100 O   0  0  0  0  0  0  0  0  0  0  0  0
  1 14  1  0  0  0  0
  1 17  1  0  0  0  0
  2  3  1  0  0  0  0
  2  6  1  0  0  0  0
  3 10  1  0  0  0  0
  4  5  1  0  0  0  0
  4 13  2  0  0  0  0
  5 23  1  1  0  0  0
  6 11  1  0  0  0  0
  7  1  2  0  0  0  0
  8  9  1  0  0  0  0
  9 12  1  0  0  0  0
  9 14  2  0  0  0  0
 10  8  1  0  0  0  0
 11  8  2  0  0  0  0
 11  7  1  0  0  0  0
 12 15  1  0  0  0  0
 14  4  1  0  0  0  0
 15 21  1  1  0  0  0
 15  5  1  0  0  0  0
 16 19  1  0  0  0  0
 17 16  2  0  0  0  0
 19 18  1  0  0  0  0
 20 21  2  0  0  0  0
 23 22  1  0  0  0  0
 24  7  1  0  0  0  0
 25 24  1  0  0  0  0
 26 25  1  0  0  0  0
 27 26  1  0  0  0  0
 28 27  1  0  0  0  0
 29 28  1  0  0  0  0
 29 30  1  0  0  0  0
 30 32  2  0  0  0  0
 30 31  1  0  0  0  0
M  END
>  <MODEL>
8

>  <REMARK>
 VINA RESULT:      -7.0      3.483      6.806
  Name = 
  11 active torsions:
  status: ('A' for Active; 'I' for Inactive)
    1  A    between atoms: C_1  and  C_24
    2  A    between atoms: C_2  and  N_10
    3  A    between atoms: C_2  and  C_12
    4  A    between atoms: C_3  and  C_28
    5  A    between atoms: C_7  and  C_22
    6  A    between atoms: C_8  and  C_23
    7  A    between atoms: C_9  and  C_14
    8  A    between atoms: C_9  and  N_21
    9  A    between atoms: N_10  and  C_24
   10  A    between atoms: C_12  and  N_21
   11  A    between atoms: C_30  and  C_32
                            x       y       z     vdW  Elec       q    Type
                         _______ _______ _______ _____ _____    ______ ____

>  <TORSDO>
F 11

$$$$
=
 OpenBabel10272413293D

 32 34  0  0  1  0  0  0  0  0999 V2000
  188.1170  178.1140  141.0540 C   0  0  0  0  0  0  0  0  0  0  0  0
  191.0280  177.6340  144.8980 C   0  0  0  0  0  2  0  0  0  0  0  0
  189.8290  177.8950  145.8320 C   0  0  0  0  0  2  0  0  0  0  0  0
  185.7310  178.9680  141.4340 C   0  0  0  0  0  0  0  0  0  0  0  0
  184.4570  178.7980  142.2340 C   0  0  2  0  0  3  0  0  0  0  0  0
  190.6780  176.8510  143.6290 C   0  0  0  0  0  2  0  0  0  0  0  0
  189.3280  177.6080  141.6120 C   0  0  0  0  0  0  0  0  0  0  0  0
  188.3370  177.6590  143.8360 C   0  0  0  0  0  0  0  0  0  0  0  0
  187.1400  178.1490  143.3030 C   0  0  0  0  0  0  0  0  0  0  0  0
  188.4860  177.3750  145.3050 C   0  0  0  0  0  2  0  0  0  0  0  0
  189.4240  177.3950  142.9980 C   0  0  0  0  0  0  0  0  0  0  0  0
  185.9890  178.4700  144.2120 C   0  0  0  0  0  2  0  0  0  0  0  0
  185.6880  179.6600  140.3820 O   0  0  0  0  0  0  0  0  0  0  0  0
  187.0270  178.4060  141.9210 C   0  0  0  0  0  0  0  0  0  0  0  0
  184.6780  178.0550  143.5630 C   0  0  1  0  0  3  0  0  0  0  0  0
  187.6270  177.3700  138.7020 C   0  0  0  0  0  3  0  0  0  0  0  0
  187.9230  178.3110  139.5900 C   0  0  0  0  0  3  0  0  0  0  0  0
  188.7620  178.2950  136.7410 C   0  0  0  0  0  1  0  0  0  0  0  0
  187.4640  177.7220  137.2690 C   0  0  0  0  0  2  0  0  0  0  0  0
  183.7320  179.0830  145.4700 O   0  0  0  0  0  0  0  0  0  0  0  0
  183.5630  178.3340  144.5210 C   0  0  0  0  0  3  0  0  0  0  0  0
  182.1120  178.8320  141.3720 C   0  0  0  0  0  1  0  0  0  0  0  0
  183.4150  178.0560  141.4050 C   0  0  0  0  0  2  0  0  0  0  0  0
  190.5420  177.3450  140.7700 C   0  0  0  0  0  2  0  0  0  0  0  0
  190.3690  176.1010  140.0400 N   0  0  0  0  0  2  0  0  0  0  0  0
  191.1630  176.2160  138.8290 C   0  0  0  0  0  2  0  0  0  0  0  0
  192.3810  177.0870  139.0870 C   0  0  0  0  0  2  0  0  0  0  0  0
  193.5470  176.5430  138.4080 N   0  0  0  0  0  2  0  0  0  0  0  0
  193.1630  176.2710  137.0330 C   0  0  0  0  0  2  0  0  0  0  0  0
  194.3820  176.1160  136.1960 C   0  0  0  0  0  0  0  0  0  0  0  0
  195.5170  175.5170  136.7250 O   0  0  0  0  0  1  0  0  0  0  0  0
  194.3990  176.5640  135.0190 O   0  0  0  0  0  0  0  0  0  0  0  0
  1  7  2  0  0  0  0
  1 14  1  0  0  0  0
  2  3  1  0  0  0  0
  4 14  1  0  0  0  0
  4  5  1  0  0  0  0
  5 23  1  6  0  0  0
  5 15  1  0  0  0  0
  6  2  1  0  0  0  0
  7 11  1  0  0  0  0
  8 10  1  0  0  0  0
  9  8  1  0  0  0  0
  9 12  1  0  0  0  0
 10  3  1  0  0  0  0
 11  6  1  0  0  0  0
 11  8  2  0  0  0  0
 13  4  2  0  0  0  0
 14  9  2  0  0  0  0
 15 12  1  0  0  0  0
 15 21  1  1  0  0  0
 16 17  2  0  0  0  0
 17  1  1  0  0  0  0
 18 19  1  0  0  0  0
 19 16  1  0  0  0  0
 21 20  2  0  0  0  0
 22 23  1  0  0  0  0
 24  7  1  0  0  0  0
 25 24  1  0  0  0  0
 26 27  1  0  0  0  0
 26 25  1  0  0  0  0
 28 27  1  0  0  0  0
 29 28  1  0  0  0  0
 30 31  1  0  0  0  0
 30 29  1  0  0  0  0
 32 30  2  0  0  0  0
M  END
>  <MODEL>
9

>  <REMARK>
 VINA RESULT:      -6.8      3.564      6.416
  Name = 
  11 active torsions:
  status: ('A' for Active; 'I' for Inactive)
    1  A    between atoms: C_1  and  C_24
    2  A    between atoms: C_2  and  N_10
    3  A    between atoms: C_2  and  C_12
    4  A    between atoms: C_3  and  C_28
    5  A    between atoms: C_7  and  C_22
    6  A    between atoms: C_8  and  C_23
    7  A    between atoms: C_9  and  C_14
    8  A    between atoms: C_9  and  N_21
    9  A    between atoms: N_10  and  C_24
   10  A    between atoms: C_12  and  N_21
   11  A    between atoms: C_30  and  C_32
                            x       y       z     vdW  Elec       q    Type
                         _______ _______ _______ _____ _____    ______ ____

>  <TORSDO>
F 11

$$$$
