=
 OpenBabel10272402063D

 32 38  0  0  1  0  0  0  0  0999 V2000
  187.4130  177.6950  137.8380 C   0  0  1  0  0  3  0  0  0  0  0  0
  189.2820  178.5580  139.0090 C   0  0  2  0  0  3  0  0  0  0  0  0
  186.1560  178.0190  136.5600 S   0  0  0  0  0  0  0  0  0  0  0  0
  188.6320  178.6060  137.6580 C   0  0  1  0  0  3  0  0  0  0  0  0
  190.2380  177.3900  138.9040 C   0  0  2  0  0  0  0  0  0  0  0  0
  188.4810  176.6640  143.5170 C   0  0  0  0  0  3  0  0  0  0  0  0
  188.2230  178.2820  140.0640 C   0  0  1  0  0  3  0  0  0  0  0  0
  190.5950  176.3160  142.3870 C   0  0  0  0  0  3  0  0  0  0  0  0
  190.0960  176.9480  141.2450 C   0  0  0  0  0  0  0  0  0  0  0  0
  189.7910  176.0990  138.1960 C   0  0  2  0  0  3  0  0  0  0  0  0
  189.1930  177.5740  135.4270 C   0  0  0  0  0  2  0  0  0  0  0  0
  190.9060  177.0460  140.1010 O   0  0  0  0  0  0  0  0  0  0  0  0
  189.6630  178.0680  136.7320 N   0  0  2  0  0  0  0  0  0  0  0  0
  188.2510  176.3770  135.5230 C   0  0  0  0  0  2  0  0  0  0  0  0
  186.9960  177.7050  139.3300 C   0  0  1  0  0  3  0  0  0  0  0  0
  190.6420  175.0300  138.4880 O   0  0  0  0  0  1  0  0  0  0  0  0
  188.7620  177.4630  141.2400 C   0  0  0  0  0  0  0  0  0  0  0  0
  190.5840  177.1620  137.4560 C   0  0  1  0  0  3  0  0  0  0  0  0
  186.7890  176.7920  135.3470 C   0  0  0  0  0  2  0  0  0  0  0  0
  189.7890  176.1730  143.5180 C   0  0  0  0  0  3  0  0  0  0  0  0
  187.9750  177.3120  142.3870 C   0  0  0  0  0  3  0  0  0  0  0  0
  183.9570  178.4800  141.2830 C   0  0  1  0  0  3  0  0  0  0  0  0
  183.6280  179.0380  142.5210 O   0  0  0  0  0  1  0  0  0  0  0  0
  183.0970  179.0800  140.1620 C   0  0  1  0  0  3  0  0  0  0  0  0
  184.7580  177.8370  138.9260 O   0  0  0  0  0  0  0  0  0  0  0  0
  183.7120  178.7680  138.7940 C   0  0  0  0  0  2  0  0  0  0  0  0
  185.4620  178.6330  140.9880 C   0  0  2  0  0  3  0  0  0  0  0  0
  185.9190  179.8720  141.4450 O   0  0  0  0  0  1  0  0  0  0  0  0
  185.7750  178.5060  139.5450 N   0  0  1  0  0  0  0  0  0  0  0  0
  181.6850  178.5130  140.2080 C   0  0  0  0  0  2  0  0  0  0  0  0
  180.2230  179.5570  141.9390 C   0  0  0  0  0  1  0  0  0  0  0  0
  180.6550  179.5970  140.4850 C   0  0  0  0  0  2  0  0  0  0  0  0
  1  3  1  6  0  0  0
  1 15  1  0  0  0  0
  2  7  1  0  0  0  0
  4  1  1  0  0  0  0
  4  2  1  0  0  0  0
  5  2  1  0  0  0  0
  5 12  1  0  0  0  0
  6 20  1  0  0  0  0
  7 17  1  0  0  0  0
  8 20  2  0  0  0  0
  9  8  1  0  0  0  0
 10 16  1  0  0  0  0
 10  5  1  0  0  0  0
 11 14  1  0  0  0  0
 11 13  1  0  0  0  0
 12  9  1  0  0  0  0
 13 18  1  0  0  0  0
 13  4  1  0  0  0  0
 15 29  1  0  0  0  0
 15  7  1  0  0  0  0
 17  9  2  0  0  0  0
 17 21  1  0  0  0  0
 18 10  1  0  0  0  0
 18  5  1  0  0  0  0
 19 14  1  0  0  0  0
 19  3  1  0  0  0  0
 21  6  2  0  0  0  0
 22 23  1  0  0  0  0
 24 30  1  0  0  0  0
 24 22  1  0  0  0  0
 25 29  1  0  0  0  0
 26 25  1  0  0  0  0
 26 24  1  0  0  0  0
 27 22  1  0  0  0  0
 27 28  1  0  0  0  0
 29 27  1  0  0  0  0
 30 32  1  0  0  0  0
 32 31  1  0  0  0  0
M  END
>  <MODEL>
1

>  <REMARK>
 VINA RESULT:      -7.8      0.000      0.000
  Name = 
  3 active torsions:
  status: ('A' for Active; 'I' for Inactive)
    1  A    between atoms: C_15  and  C_19
    2  A    between atoms: C_19  and  C_26
    3  A    between atoms: C_24  and  N_27
                            x       y       z     vdW  Elec       q    Type
                         _______ _______ _______ _____ _____    ______ ____

>  <TORSDO>
F 3

$$$$
=
 OpenBabel10272402063D

 32 38  0  0  1  0  0  0  0  0999 V2000
  192.1060  173.3030  135.9990 C   0  0  1  0  0  3  0  0  0  0  0  0
  192.6970  175.5950  136.0840 C   0  0  2  0  0  3  0  0  0  0  0  0
  191.6280  171.9110  134.9250 S   0  0  0  0  0  0  0  0  0  0  0  0
  192.8350  174.3910  135.2010 C   0  0  1  0  0  3  0  0  0  0  0  0
  193.9230  175.5320  136.9680 C   0  0  2  0  0  0  0  0  0  0  0  0
  190.5050  176.9390  140.3180 C   0  0  0  0  0  3  0  0  0  0  0  0
  191.4350  175.4610  136.9200 C   0  0  1  0  0  3  0  0  0  0  0  0
  192.8630  177.3600  139.9590 C   0  0  0  0  0  3  0  0  0  0  0  0
  192.8080  176.6670  138.7470 C   0  0  0  0  0  0  0  0  0  0  0  0
  194.3810  174.1800  137.5430 C   0  0  2  0  0  3  0  0  0  0  0  0
  194.7540  172.8450  134.6650 C   0  0  0  0  0  2  0  0  0  0  0  0
  193.9820  176.5060  137.9910 O   0  0  0  0  0  0  0  0  0  0  0  0
  194.3020  174.1820  135.0870 N   0  0  2  0  0  0  0  0  0  0  0  0
  194.3880  171.7330  135.6450 C   0  0  0  0  0  2  0  0  0  0  0  0
  191.0330  173.9730  136.8930 C   0  0  1  0  0  3  0  0  0  0  0  0
  195.2920  174.3460  138.5890 O   0  0  0  0  0  1  0  0  0  0  0  0
  191.5700  176.1070  138.3010 C   0  0  0  0  0  0  0  0  0  0  0  0
  194.9960  174.7380  136.2710 C   0  0  1  0  0  3  0  0  0  0  0  0
  193.1700  170.9380  135.1690 C   0  0  0  0  0  2  0  0  0  0  0  0
  191.7150  177.4940  140.7430 C   0  0  0  0  0  3  0  0  0  0  0  0
  190.4330  176.2570  139.1010 C   0  0  0  0  0  3  0  0  0  0  0  0
  187.6600  175.2400  136.0740 C   0  0  1  0  0  3  0  0  0  0  0  0
  187.0680  176.1040  135.1500 O   0  0  0  0  0  1  0  0  0  0  0  0
  186.8770  173.9240  136.1790 C   0  0  1  0  0  3  0  0  0  0  0  0
  188.8850  173.4260  137.4230 O   0  0  0  0  0  0  0  0  0  0  0  0
  187.7240  172.8540  136.8750 C   0  0  0  0  0  2  0  0  0  0  0  0
  189.1430  174.9930  135.7310 C   0  0  2  0  0  3  0  0  0  0  0  0
  189.3090  174.9060  134.3460 O   0  0  0  0  0  1  0  0  0  0  0  0
  189.6730  173.7590  136.3580 N   0  0  1  0  0  0  0  0  0  0  0  0
  185.5920  174.1270  136.9700 C   0  0  0  0  0  2  0  0  0  0  0  0
  184.0780  172.1500  137.1390 C   0  0  0  0  0  1  0  0  0  0  0  0
  185.2350  172.8920  137.7830 C   0  0  0  0  0  2  0  0  0  0  0  0
  1  3  1  6  0  0  0
  1 15  1  0  0  0  0
  2  7  1  0  0  0  0
  2  5  1  0  0  0  0
  3 19  1  0  0  0  0
  4  1  1  0  0  0  0
  4  2  1  0  0  0  0
  5 10  1  0  0  0  0
  5 12  1  0  0  0  0
  6 20  1  0  0  0  0
  7 17  1  0  0  0  0
  8 20  2  0  0  0  0
  9  8  1  0  0  0  0
 10 16  1  0  0  0  0
 11 13  1  0  0  0  0
 11 14  1  0  0  0  0
 12  9  1  0  0  0  0
 13  4  1  0  0  0  0
 13 18  1  0  0  0  0
 15  7  1  0  0  0  0
 17  9  2  0  0  0  0
 17 21  1  0  0  0  0
 18  5  1  0  0  0  0
 18 10  1  0  0  0  0
 19 14  1  0  0  0  0
 21  6  2  0  0  0  0
 22 24  1  0  0  0  0
 23 22  1  0  0  0  0
 24 26  1  0  0  0  0
 24 30  1  0  0  0  0
 26 25  1  0  0  0  0
 27 22  1  0  0  0  0
 27 29  1  0  0  0  0
 28 27  1  0  0  0  0
 29 15  1  0  0  0  0
 29 25  1  0  0  0  0
 30 32  1  0  0  0  0
 31 32  1  0  0  0  0
M  END
>  <MODEL>
2

>  <REMARK>
 VINA RESULT:      -7.7      4.854      6.500
  Name = 
  3 active torsions:
  status: ('A' for Active; 'I' for Inactive)
    1  A    between atoms: C_15  and  C_19
    2  A    between atoms: C_19  and  C_26
    3  A    between atoms: C_24  and  N_27
                            x       y       z     vdW  Elec       q    Type
                         _______ _______ _______ _____ _____    ______ ____

>  <TORSDO>
F 3

$$$$
=
 OpenBabel10272402063D

 32 38  0  0  1  0  0  0  0  0999 V2000
  188.4900  175.8690  136.2850 C   0  0  1  0  0  3  0  0  0  0  0  0
  190.0710  177.4670  137.0290 C   0  0  2  0  0  3  0  0  0  0  0  0
  187.3920  175.3580  134.9240 S   0  0  0  0  0  0  0  0  0  0  0  0
  189.6110  176.7820  135.7770 C   0  0  1  0  0  3  0  0  0  0  0  0
  191.1580  176.5570  137.5560 C   0  0  2  0  0  0  0  0  0  0  0  0
  188.8790  177.7540  141.8290 C   0  0  0  0  0  3  0  0  0  0  0  0
  188.9160  177.5370  138.0140 C   0  0  1  0  0  3  0  0  0  0  0  0
  191.1530  177.2790  141.1460 C   0  0  0  0  0  3  0  0  0  0  0  0
  190.7470  177.2240  139.8100 C   0  0  0  0  0  0  0  0  0  0  0  0
  190.9610  175.0310  137.5180 C   0  0  2  0  0  3  0  0  0  0  0  0
  190.5860  174.9480  134.3470 C   0  0  0  0  0  2  0  0  0  0  0  0
  191.6910  176.9170  138.8150 O   0  0  0  0  0  0  0  0  0  0  0  0
  190.8140  176.0570  135.2890 N   0  0  2  0  0  0  0  0  0  0  0  0
  189.7820  173.7920  134.9360 C   0  0  0  0  0  2  0  0  0  0  0  0
  187.8740  176.4950  137.5610 C   0  0  1  0  0  3  0  0  0  0  0  0
  191.8800  174.3720  138.3380 O   0  0  0  0  0  1  0  0  0  0  0  0
  189.3770  177.4520  139.4720 C   0  0  0  0  0  0  0  0  0  0  0  0
  191.7230  175.7500  136.4170 C   0  0  1  0  0  3  0  0  0  0  0  0
  188.3200  173.8330  134.4850 C   0  0  0  0  0  2  0  0  0  0  0  0
  190.2210  177.5410  142.1520 C   0  0  0  0  0  3  0  0  0  0  0  0
  188.4620  177.7170  140.4960 C   0  0  0  0  0  3  0  0  0  0  0  0
  184.9980  178.5670  138.6050 C   0  0  1  0  0  3  0  0  0  0  0  0
  184.7170  179.9150  138.8380 O   0  0  0  0  0  1  0  0  0  0  0  0
  183.9080  177.9160  137.7430 C   0  0  1  0  0  3  0  0  0  0  0  0
  185.6220  176.2160  137.7710 O   0  0  0  0  0  0  0  0  0  0  0  0
  184.4030  176.5830  137.1730 C   0  0  0  0  0  2  0  0  0  0  0  0
  186.3970  178.3930  137.9780 C   0  0  2  0  0  3  0  0  0  0  0  0
  186.6470  179.4240  137.0680 O   0  0  0  0  0  1  0  0  0  0  0  0
  186.5520  177.0920  137.2860 N   0  0  1  0  0  0  0  0  0  0  0  0
  182.6540  177.6630  138.5680 C   0  0  0  0  0  2  0  0  0  0  0  0
  182.3700  178.1150  141.0060 C   0  0  0  0  0  1  0  0  0  0  0  0
  182.9940  177.1940  139.9740 C   0  0  0  0  0  2  0  0  0  0  0  0
  1  3  1  6  0  0  0
  1 15  1  0  0  0  0
  2  5  1  0  0  0  0
  2  7  1  0  0  0  0
  4  1  1  0  0  0  0
  4  2  1  0  0  0  0
  5 12  1  0  0  0  0
  6 20  1  0  0  0  0
  7 17  1  0  0  0  0
  8 20  2  0  0  0  0
  9  8  1  0  0  0  0
 10  5  1  0  0  0  0
 10 16  1  0  0  0  0
 11 14  1  0  0  0  0
 11 13  1  0  0  0  0
 12  9  1  0  0  0  0
 13  4  1  0  0  0  0
 13 18  1  0  0  0  0
 15  7  1  0  0  0  0
 17  9  2  0  0  0  0
 17 21  1  0  0  0  0
 18 10  1  0  0  0  0
 18  5  1  0  0  0  0
 19  3  1  0  0  0  0
 19 14  1  0  0  0  0
 21  6  2  0  0  0  0
 22 23  1  0  0  0  0
 24 30  1  0  0  0  0
 24 22  1  0  0  0  0
 26 24  1  0  0  0  0
 26 25  1  0  0  0  0
 27 22  1  0  0  0  0
 28 27  1  0  0  0  0
 29 15  1  0  0  0  0
 29 25  1  0  0  0  0
 29 27  1  0  0  0  0
 30 32  1  0  0  0  0
 32 31  1  0  0  0  0
M  END
>  <MODEL>
3

>  <REMARK>
 VINA RESULT:      -7.6      1.908      2.635
  Name = 
  3 active torsions:
  status: ('A' for Active; 'I' for Inactive)
    1  A    between atoms: C_15  and  C_19
    2  A    between atoms: C_19  and  C_26
    3  A    between atoms: C_24  and  N_27
                            x       y       z     vdW  Elec       q    Type
                         _______ _______ _______ _____ _____    ______ ____

>  <TORSDO>
F 3

$$$$
=
 OpenBabel10272402063D

 32 38  0  0  1  0  0  0  0  0999 V2000
  187.5090  175.3510  136.9820 C   0  0  1  0  0  3  0  0  0  0  0  0
  186.4000  177.3660  136.4190 C   0  0  2  0  0  3  0  0  0  0  0  0
  188.4980  173.9530  136.3600 S   0  0  0  0  0  0  0  0  0  0  0  0
  187.6030  176.5560  136.0390 C   0  0  1  0  0  3  0  0  0  0  0  0
  186.9140  178.2790  137.5100 C   0  0  2  0  0  0  0  0  0  0  0  0
  182.4530  177.0900  139.4020 C   0  0  0  0  0  3  0  0  0  0  0  0
  185.3260  176.4400  136.9670 C   0  0  1  0  0  3  0  0  0  0  0  0
  183.8880  179.0420  139.4260 C   0  0  0  0  0  3  0  0  0  0  0  0
  184.7620  178.4180  138.5320 C   0  0  0  0  0  0  0  0  0  0  0  0
  187.8640  177.7240  138.5860 C   0  0  2  0  0  3  0  0  0  0  0  0
  190.0750  176.8180  136.4650 C   0  0  0  0  0  2  0  0  0  0  0  0
  185.9350  179.0840  138.1370 O   0  0  0  0  0  0  0  0  0  0  0  0
  188.7550  177.4550  136.3120 N   0  0  2  0  0  0  0  0  0  0  0  0
  190.1680  175.8730  137.6600 C   0  0  0  0  0  2  0  0  0  0  0  0
  186.0240  175.1210  137.3550 C   0  0  1  0  0  3  0  0  0  0  0  0
  187.9600  178.5840  139.6820 O   0  0  0  0  0  1  0  0  0  0  0  0
  184.4710  177.1040  138.0490 C   0  0  0  0  0  0  0  0  0  0  0  0
  188.4040  178.4400  137.3590 C   0  0  1  0  0  3  0  0  0  0  0  0
  190.0510  174.4080  137.2330 C   0  0  0  0  0  2  0  0  0  0  0  0
  182.7380  178.3790  139.8610 C   0  0  0  0  0  3  0  0  0  0  0  0
  183.3110  176.4610  138.4960 C   0  0  0  0  0  3  0  0  0  0  0  0
  183.2430  173.4640  135.5740 C   0  0  1  0  0  3  0  0  0  0  0  0
  182.5840  173.5680  134.3460 O   0  0  0  0  0  1  0  0  0  0  0  0
  183.5890  172.0030  135.8920 C   0  0  1  0  0  3  0  0  0  0  0  0
  184.8150  173.2040  137.5910 O   0  0  0  0  0  0  0  0  0  0  0  0
  184.6320  171.9350  137.0130 C   0  0  0  0  0  2  0  0  0  0  0  0
  184.4930  174.3660  135.6090 C   0  0  2  0  0  3  0  0  0  0  0  0
  185.1290  174.3550  134.3640 O   0  0  0  0  0  1  0  0  0  0  0  0
  185.4640  173.9510  136.6490 N   0  0  1  0  0  0  0  0  0  0  0  0
  182.3460  171.2410  136.3300 C   0  0  0  0  0  2  0  0  0  0  0  0
  180.0840  171.6090  137.3150 C   0  0  0  0  0  1  0  0  0  0  0  0
  181.5430  172.0230  137.3570 C   0  0  0  0  0  2  0  0  0  0  0  0
  1  3  1  6  0  0  0
  1 15  1  0  0  0  0
  2  7  1  0  0  0  0
  2  5  1  0  0  0  0
  3 19  1  0  0  0  0
  4 13  1  0  0  0  0
  4  2  1  0  0  0  0
  4  1  1  0  0  0  0
  5 12  1  0  0  0  0
  5 10  1  0  0  0  0
  6 20  1  0  0  0  0
  7 15  1  0  0  0  0
  7 17  1  0  0  0  0
  8 20  2  0  0  0  0
  9  8  1  0  0  0  0
 10 16  1  0  0  0  0
 11 14  1  0  0  0  0
 12  9  1  0  0  0  0
 13 11  1  0  0  0  0
 13 18  1  0  0  0  0
 17 21  1  0  0  0  0
 17  9  2  0  0  0  0
 18  5  1  0  0  0  0
 18 10  1  0  0  0  0
 19 14  1  0  0  0  0
 21  6  2  0  0  0  0
 22 27  1  0  0  0  0
 22 24  1  0  0  0  0
 23 22  1  0  0  0  0
 24 30  1  0  0  0  0
 24 26  1  0  0  0  0
 26 25  1  0  0  0  0
 27 29  1  0  0  0  0
 28 27  1  0  0  0  0
 29 15  1  0  0  0  0
 29 25  1  0  0  0  0
 30 32  1  0  0  0  0
 31 32  1  0  0  0  0
M  END
>  <MODEL>
4

>  <REMARK>
 VINA RESULT:      -7.5      3.817      6.029
  Name = 
  3 active torsions:
  status: ('A' for Active; 'I' for Inactive)
    1  A    between atoms: C_15  and  C_19
    2  A    between atoms: C_19  and  C_26
    3  A    between atoms: C_24  and  N_27
                            x       y       z     vdW  Elec       q    Type
                         _______ _______ _______ _____ _____    ______ ____

>  <TORSDO>
F 3

$$$$
=
 OpenBabel10272402063D

 32 38  0  0  1  0  0  0  0  0999 V2000
  188.8950  177.6850  141.9450 C   0  0  1  0  0  3  0  0  0  0  0  0
  190.1230  178.6660  143.7160 C   0  0  2  0  0  3  0  0  0  0  0  0
  188.2620  177.9040  140.2500 S   0  0  0  0  0  0  0  0  0  0  0  0
  190.0760  178.6240  142.2180 C   0  0  1  0  0  3  0  0  0  0  0  0
  191.0470  177.5250  144.0780 C   0  0  2  0  0  0  0  0  0  0  0  0
  187.5770  176.9880  147.6210 C   0  0  0  0  0  3  0  0  0  0  0  0
  188.7290  178.4130  144.2680 C   0  0  1  0  0  3  0  0  0  0  0  0
  189.9700  176.6470  147.4660 C   0  0  0  0  0  3  0  0  0  0  0  0
  189.9720  177.2030  146.1830 C   0  0  0  0  0  0  0  0  0  0  0  0
  190.9350  176.1850  143.3290 C   0  0  2  0  0  3  0  0  0  0  0  0
  191.5010  177.4940  140.4710 C   0  0  0  0  0  2  0  0  0  0  0  0
  191.1750  177.2650  145.4620 O   0  0  0  0  0  0  0  0  0  0  0  0
  191.3970  178.0700  141.8220 N   0  0  2  0  0  0  0  0  0  0  0  0
  190.6090  176.2750  140.2500 C   0  0  0  0  0  2  0  0  0  0  0  0
  187.9090  177.7610  143.1370 C   0  0  1  0  0  3  0  0  0  0  0  0
  191.6020  175.1600  144.0040 O   0  0  0  0  0  1  0  0  0  0  0  0
  188.7500  177.6750  145.6090 C   0  0  0  0  0  0  0  0  0  0  0  0
  191.9520  177.2330  142.9100 C   0  0  1  0  0  3  0  0  0  0  0  0
  189.3410  176.6340  139.4730 C   0  0  0  0  0  2  0  0  0  0  0  0
  188.7750  176.5390  148.1810 C   0  0  0  0  0  3  0  0  0  0  0  0
  187.5670  177.5600  146.3460 C   0  0  0  0  0  3  0  0  0  0  0  0
  184.2470  178.2380  143.2640 C   0  0  1  0  0  3  0  0  0  0  0  0
  183.2730  178.5770  144.2060 O   0  0  0  0  0  1  0  0  0  0  0  0
  184.0640  179.0390  141.9680 C   0  0  1  0  0  3  0  0  0  0  0  0
  186.2180  178.0010  141.6290 O   0  0  0  0  0  0  0  0  0  0  0  0
  185.3300  178.9600  141.1080 C   0  0  0  0  0  2  0  0  0  0  0  0
  185.6650  178.4130  143.8450 C   0  0  2  0  0  3  0  0  0  0  0  0
  185.7130  179.5450  144.6620 O   0  0  0  0  0  1  0  0  0  0  0  0
  186.7000  178.5340  142.7910 N   0  0  1  0  0  0  0  0  0  0  0  0
  182.8890  178.4980  141.1640 C   0  0  0  0  0  2  0  0  0  0  0  0
  182.7220  176.5370  139.6300 C   0  0  0  0  0  1  0  0  0  0  0  0
  183.3440  177.9050  139.8400 C   0  0  0  0  0  2  0  0  0  0  0  0
  1  3  1  6  0  0  0
  1  4  1  0  0  0  0
  1 15  1  0  0  0  0
  2  5  1  0  0  0  0
  2  7  1  0  0  0  0
  4  2  1  0  0  0  0
  5 12  1  0  0  0  0
  6 20  1  0  0  0  0
  7 17  1  0  0  0  0
  8 20  2  0  0  0  0
  9  8  1  0  0  0  0
 10 16  1  0  0  0  0
 10  5  1  0  0  0  0
 11 13  1  0  0  0  0
 12  9  1  0  0  0  0
 13  4  1  0  0  0  0
 13 18  1  0  0  0  0
 14 11  1  0  0  0  0
 15  7  1  0  0  0  0
 17  9  2  0  0  0  0
 17 21  1  0  0  0  0
 18 10  1  0  0  0  0
 18  5  1  0  0  0  0
 19  3  1  0  0  0  0
 19 14  1  0  0  0  0
 21  6  2  0  0  0  0
 22 27  1  0  0  0  0
 22 23  1  0  0  0  0
 24 22  1  0  0  0  0
 25 29  1  0  0  0  0
 26 25  1  0  0  0  0
 26 24  1  0  0  0  0
 27 28  1  0  0  0  0
 29 15  1  0  0  0  0
 29 27  1  0  0  0  0
 30 24  1  0  0  0  0
 31 32  1  0  0  0  0
 32 30  1  0  0  0  0
M  END
>  <MODEL>
5

>  <REMARK>
 VINA RESULT:      -7.4      2.806      4.306
  Name = 
  3 active torsions:
  status: ('A' for Active; 'I' for Inactive)
    1  A    between atoms: C_15  and  C_19
    2  A    between atoms: C_19  and  C_26
    3  A    between atoms: C_24  and  N_27
                            x       y       z     vdW  Elec       q    Type
                         _______ _______ _______ _____ _____    ______ ____

>  <TORSDO>
F 3

$$$$
=
 OpenBabel10272402063D

 32 38  0  0  1  0  0  0  0  0999 V2000
  191.2670  173.9040  135.8350 C   0  0  1  0  0  3  0  0  0  0  0  0
  192.5980  175.8460  136.0910 C   0  0  2  0  0  3  0  0  0  0  0  0
  190.3420  172.8560  134.6670 S   0  0  0  0  0  0  0  0  0  0  0  0
  192.3170  174.7510  135.1060 C   0  0  1  0  0  3  0  0  0  0  0  0
  193.7350  175.2950  136.9230 C   0  0  2  0  0  0  0  0  0  0  0  0
  191.0110  177.4580  140.4990 C   0  0  0  0  0  3  0  0  0  0  0  0
  191.3690  176.0690  136.9570 C   0  0  1  0  0  3  0  0  0  0  0  0
  193.3710  177.0930  140.0920 C   0  0  0  0  0  3  0  0  0  0  0  0
  193.0790  176.5720  138.8290 C   0  0  0  0  0  0  0  0  0  0  0  0
  193.7130  173.8210  137.3650 C   0  0  2  0  0  3  0  0  0  0  0  0
  193.5980  172.7060  134.3740 C   0  0  0  0  0  2  0  0  0  0  0  0
  194.1250  176.0960  138.0210 O   0  0  0  0  0  0  0  0  0  0  0  0
  193.6270  174.0730  134.9230 N   0  0  2  0  0  0  0  0  0  0  0  0
  192.8830  171.6970  135.2700 C   0  0  0  0  0  2  0  0  0  0  0  0
  190.4880  174.8110  136.8200 C   0  0  1  0  0  3  0  0  0  0  0  0
  194.6320  173.5760  138.3880 O   0  0  0  0  0  1  0  0  0  0  0  0
  191.7220  176.5020  138.3820 C   0  0  0  0  0  0  0  0  0  0  0  0
  194.4740  174.2540  136.1230 C   0  0  1  0  0  3  0  0  0  0  0  0
  191.4660  171.4040  134.7730 C   0  0  0  0  0  2  0  0  0  0  0  0
  192.3390  177.5320  140.9250 C   0  0  0  0  0  3  0  0  0  0  0  0
  190.7060  176.9530  139.2320 C   0  0  0  0  0  3  0  0  0  0  0  0
  187.7690  177.2220  136.1550 C   0  0  1  0  0  3  0  0  0  0  0  0
  187.5080  178.2830  135.2850 O   0  0  0  0  0  1  0  0  0  0  0  0
  186.5730  176.2630  136.2300 C   0  0  1  0  0  3  0  0  0  0  0  0
  188.2940  175.0300  137.3920 O   0  0  0  0  0  0  0  0  0  0  0  0
  186.9970  174.9300  136.8560 C   0  0  0  0  0  2  0  0  0  0  0  0
  189.0640  176.4860  135.7580 C   0  0  2  0  0  3  0  0  0  0  0  0
  189.1700  176.4140  134.3660 O   0  0  0  0  0  1  0  0  0  0  0  0
  189.1340  175.1150  136.3180 N   0  0  1  0  0  0  0  0  0  0  0  0
  185.4540  176.8660  137.0670 C   0  0  0  0  0  2  0  0  0  0  0  0
  184.8490  178.4830  138.8690 C   0  0  0  0  0  1  0  0  0  0  0  0
  185.9890  177.8690  138.0770 C   0  0  0  0  0  2  0  0  0  0  0  0
  1  3  1  6  0  0  0
  1 15  1  0  0  0  0
  2  5  1  0  0  0  0
  2  7  1  0  0  0  0
  3 19  1  0  0  0  0
  4  1  1  0  0  0  0
  4  2  1  0  0  0  0
  5 10  1  0  0  0  0
  5 12  1  0  0  0  0
  6 20  1  0  0  0  0
  7 17  1  0  0  0  0
  8 20  2  0  0  0  0
  9  8  1  0  0  0  0
 10 16  1  0  0  0  0
 11 13  1  0  0  0  0
 11 14  1  0  0  0  0
 12  9  1  0  0  0  0
 13  4  1  0  0  0  0
 13 18  1  0  0  0  0
 15  7  1  0  0  0  0
 17  9  2  0  0  0  0
 17 21  1  0  0  0  0
 18  5  1  0  0  0  0
 18 10  1  0  0  0  0
 19 14  1  0  0  0  0
 21  6  2  0  0  0  0
 22 24  1  0  0  0  0
 23 22  1  0  0  0  0
 24 26  1  0  0  0  0
 24 30  1  0  0  0  0
 26 25  1  0  0  0  0
 27 22  1  0  0  0  0
 27 29  1  0  0  0  0
 28 27  1  0  0  0  0
 29 15  1  0  0  0  0
 29 25  1  0  0  0  0
 30 32  1  0  0  0  0
 32 31  1  0  0  0  0
M  END
>  <MODEL>
6

>  <REMARK>
 VINA RESULT:      -7.2      3.672      5.614
  Name = 
  3 active torsions:
  status: ('A' for Active; 'I' for Inactive)
    1  A    between atoms: C_15  and  C_19
    2  A    between atoms: C_19  and  C_26
    3  A    between atoms: C_24  and  N_27
                            x       y       z     vdW  Elec       q    Type
                         _______ _______ _______ _____ _____    ______ ____

>  <TORSDO>
F 3

$$$$
=
 OpenBabel10272402063D

 32 38  0  0  1  0  0  0  0  0999 V2000
  184.1030  176.0720  136.9870 C   0  0  1  0  0  3  0  0  0  0  0  0
  185.6650  177.8300  136.7070 C   0  0  2  0  0  3  0  0  0  0  0  0
  182.5620  175.3160  136.3770 S   0  0  0  0  0  0  0  0  0  0  0  0
  184.7550  176.9450  135.9090 C   0  0  1  0  0  3  0  0  0  0  0  0
  186.9640  177.0570  136.7560 C   0  0  2  0  0  0  0  0  0  0  0  0
  186.8080  178.7890  141.4310 C   0  0  0  0  0  3  0  0  0  0  0  0
  185.0980  177.9990  138.1070 C   0  0  1  0  0  3  0  0  0  0  0  0
  188.5450  178.3120  139.8110 C   0  0  0  0  0  3  0  0  0  0  0  0
  187.5750  178.0380  138.8430 C   0  0  0  0  0  0  0  0  0  0  0  0
  186.9390  175.5360  136.9880 C   0  0  2  0  0  3  0  0  0  0  0  0
  185.1500  174.9590  134.4060 C   0  0  0  0  0  2  0  0  0  0  0  0
  187.9770  177.6250  137.5620 O   0  0  0  0  0  0  0  0  0  0  0  0
  185.6660  176.2050  134.9960 N   0  0  2  0  0  0  0  0  0  0  0  0
  184.8400  173.8720  135.4320 C   0  0  0  0  0  2  0  0  0  0  0  0
  184.0840  176.8580  138.3230 C   0  0  1  0  0  3  0  0  0  0  0  0
  188.1980  175.0470  137.3440 O   0  0  0  0  0  1  0  0  0  0  0  0
  186.1880  178.1550  139.1710 C   0  0  0  0  0  0  0  0  0  0  0  0
  187.0210  176.1110  135.5840 C   0  0  1  0  0  3  0  0  0  0  0  0
  183.3410  173.7830  135.7260 C   0  0  0  0  0  2  0  0  0  0  0  0
  188.1620  178.6840  141.1020 C   0  0  0  0  0  3  0  0  0  0  0  0
  185.8290  178.5330  140.4680 C   0  0  0  0  0  3  0  0  0  0  0  0
  181.8130  179.5750  139.3750 C   0  0  1  0  0  3  0  0  0  0  0  0
  181.3010  180.7650  138.8520 O   0  0  0  0  0  1  0  0  0  0  0  0
  180.7010  178.7270  140.0080 C   0  0  1  0  0  3  0  0  0  0  0  0
  182.5670  177.1950  139.9880 O   0  0  0  0  0  0  0  0  0  0  0  0
  181.1830  177.2880  140.2190 C   0  0  0  0  0  2  0  0  0  0  0  0
  182.5870  178.7850  138.3000 C   0  0  2  0  0  3  0  0  0  0  0  0
  181.9420  178.8960  137.0640 O   0  0  0  0  0  1  0  0  0  0  0  0
  182.7300  177.3500  138.6410 N   0  0  1  0  0  0  0  0  0  0  0  0
  180.2840  179.3080  141.3520 C   0  0  0  0  0  2  0  0  0  0  0  0
  180.7970  178.7880  143.7380 C   0  0  0  0  0  1  0  0  0  0  0  0
  181.3850  179.1630  142.3910 C   0  0  0  0  0  2  0  0  0  0  0  0
  1  3  1  6  0  0  0
  1 15  1  0  0  0  0
  2  5  1  0  0  0  0
  2  7  1  0  0  0  0
  4  2  1  0  0  0  0
  4  1  1  0  0  0  0
  5 10  1  0  0  0  0
  5 12  1  0  0  0  0
  7 15  1  0  0  0  0
  7 17  1  0  0  0  0
  8 20  2  0  0  0  0
  9 17  2  0  0  0  0
  9  8  1  0  0  0  0
 10 16  1  0  0  0  0
 11 13  1  0  0  0  0
 11 14  1  0  0  0  0
 12  9  1  0  0  0  0
 13 18  1  0  0  0  0
 13  4  1  0  0  0  0
 14 19  1  0  0  0  0
 15 29  1  0  0  0  0
 17 21  1  0  0  0  0
 18  5  1  0  0  0  0
 18 10  1  0  0  0  0
 19  3  1  0  0  0  0
 20  6  1  0  0  0  0
 21  6  2  0  0  0  0
 22 24  1  0  0  0  0
 23 22  1  0  0  0  0
 24 26  1  0  0  0  0
 24 30  1  0  0  0  0
 25 26  1  0  0  0  0
 27 29  1  0  0  0  0
 27 22  1  0  0  0  0
 28 27  1  0  0  0  0
 29 25  1  0  0  0  0
 30 32  1  0  0  0  0
 32 31  1  0  0  0  0
M  END
>  <MODEL>
7

>  <REMARK>
 VINA RESULT:      -7.2      2.593      3.768
  Name = 
  3 active torsions:
  status: ('A' for Active; 'I' for Inactive)
    1  A    between atoms: C_15  and  C_19
    2  A    between atoms: C_19  and  C_26
    3  A    between atoms: C_24  and  N_27
                            x       y       z     vdW  Elec       q    Type
                         _______ _______ _______ _____ _____    ______ ____

>  <TORSDO>
F 3

$$$$
=
 OpenBabel10272402063D

 32 38  0  0  1  0  0  0  0  0999 V2000
  190.5170  176.5810  144.6330 C   0  0  1  0  0  3  0  0  0  0  0  0
  189.6710  178.4320  145.8450 C   0  0  2  0  0  3  0  0  0  0  0  0
  191.9400  175.9050  143.7190 S   0  0  0  0  0  0  0  0  0  0  0  0
  190.9540  177.7010  145.5850 C   0  0  1  0  0  3  0  0  0  0  0  0
  189.1000  177.7310  147.0580 C   0  0  2  0  0  0  0  0  0  0  0  0
  184.9350  178.3770  144.3900 C   0  0  0  0  0  3  0  0  0  0  0  0
  188.7450  178.2600  144.6520 C   0  0  1  0  0  3  0  0  0  0  0  0
  185.5060  178.3550  146.7440 C   0  0  0  0  0  3  0  0  0  0  0  0
  186.8610  178.2560  146.4210 C   0  0  0  0  0  0  0  0  0  0  0  0
  189.1700  176.1970  147.1560 C   0  0  2  0  0  3  0  0  0  0  0  0
  192.3570  176.1180  146.9580 C   0  0  0  0  0  2  0  0  0  0  0  0
  187.8100  178.1550  147.4520 O   0  0  0  0  0  0  0  0  0  0  0  0
  191.3880  177.2270  146.9250 N   0  0  2  0  0  0  0  0  0  0  0  0
  191.8260  174.8180  146.3590 C   0  0  0  0  0  2  0  0  0  0  0  0
  189.2660  177.0500  143.8490 C   0  0  1  0  0  3  0  0  0  0  0  0
  188.3120  175.7040  148.1420 O   0  0  0  0  0  1  0  0  0  0  0  0
  187.2680  178.2290  145.0500 C   0  0  0  0  0  0  0  0  0  0  0  0
  190.2200  177.0710  147.8210 C   0  0  1  0  0  3  0  0  0  0  0  0
  192.3510  174.5930  144.9400 C   0  0  0  0  0  2  0  0  0  0  0  0
  184.5460  178.4140  145.7310 C   0  0  0  0  0  3  0  0  0  0  0  0
  186.2880  178.2930  144.0530 C   0  0  0  0  0  3  0  0  0  0  0  0
  188.2440  177.6640  140.3520 C   0  0  1  0  0  3  0  0  0  0  0  0
  187.5470  178.6320  139.6250 O   0  0  0  0  0  1  0  0  0  0  0  0
  189.5540  177.2830  139.6480 C   0  0  1  0  0  3  0  0  0  0  0  0
  189.7970  176.2110  141.7990 O   0  0  0  0  0  0  0  0  0  0  0  0
  190.4820  176.5380  140.6150 C   0  0  0  0  0  2  0  0  0  0  0  0
  188.4920  178.1300  141.8010 C   0  0  2  0  0  3  0  0  0  0  0  0
  188.7790  179.4970  141.8240 O   0  0  0  0  0  1  0  0  0  0  0  0
  189.6010  177.3940  142.4530 N   0  0  1  0  0  0  0  0  0  0  0  0
  189.2780  176.3910  138.4460 C   0  0  0  0  0  2  0  0  0  0  0  0
  189.1310  178.0460  136.5840 C   0  0  0  0  0  1  0  0  0  0  0  0
  189.9510  176.9220  137.1900 C   0  0  0  0  0  2  0  0  0  0  0  0
  1  3  1  6  0  0  0
  1  4  1  0  0  0  0
  2  5  1  0  0  0  0
  3 19  1  0  0  0  0
  4  2  1  0  0  0  0
  4 13  1  0  0  0  0
  5 10  1  0  0  0  0
  5 12  1  0  0  0  0
  5 18  1  0  0  0  0
  6 20  1  0  0  0  0
  7 17  1  0  0  0  0
  7  2  1  0  0  0  0
  9  8  1  0  0  0  0
  9 12  1  0  0  0  0
 10 18  1  0  0  0  0
 10 16  1  0  0  0  0
 13 11  1  0  0  0  0
 13 18  1  0  0  0  0
 14 11  1  0  0  0  0
 15  1  1  0  0  0  0
 15  7  1  0  0  0  0
 17  9  2  0  0  0  0
 19 14  1  0  0  0  0
 20  8  2  0  0  0  0
 21  6  2  0  0  0  0
 21 17  1  0  0  0  0
 22 27  1  0  0  0  0
 23 22  1  0  0  0  0
 24 22  1  0  0  0  0
 24 26  1  0  0  0  0
 25 29  1  0  0  0  0
 26 25  1  0  0  0  0
 27 28  1  0  0  0  0
 27 29  1  0  0  0  0
 29 15  1  0  0  0  0
 30 24  1  0  0  0  0
 31 32  1  0  0  0  0
 32 30  1  0  0  0  0
M  END
>  <MODEL>
8

>  <REMARK>
 VINA RESULT:      -7.1      4.067      7.727
  Name = 
  3 active torsions:
  status: ('A' for Active; 'I' for Inactive)
    1  A    between atoms: C_15  and  C_19
    2  A    between atoms: C_19  and  C_26
    3  A    between atoms: C_24  and  N_27
                            x       y       z     vdW  Elec       q    Type
                         _______ _______ _______ _____ _____    ______ ____

>  <TORSDO>
F 3

$$$$
=
 OpenBabel10272402063D

 32 38  0  0  1  0  0  0  0  0999 V2000
  182.8710  178.0400  137.3420 C   0  0  1  0  0  3  0  0  0  0  0  0
  182.7180  176.8170  139.3650 C   0  0  2  0  0  3  0  0  0  0  0  0
  182.8920  177.9430  135.5230 S   0  0  0  0  0  0  0  0  0  0  0  0
  182.2120  176.7980  137.9540 C   0  0  1  0  0  3  0  0  0  0  0  0
  181.6830  177.6350  140.1050 C   0  0  2  0  0  0  0  0  0  0  0  0
  185.8480  179.3910  142.2170 C   0  0  0  0  0  3  0  0  0  0  0  0
  184.0690  177.5150  139.4030 C   0  0  1  0  0  3  0  0  0  0  0  0
  183.5750  178.9700  142.9420 C   0  0  0  0  0  3  0  0  0  0  0  0
  183.2850  178.3770  141.7100 C   0  0  0  0  0  0  0  0  0  0  0  0
  181.1060  178.9050  139.4550 C   0  0  2  0  0  3  0  0  0  0  0  0
  179.9860  177.3450  136.9030 C   0  0  0  0  0  2  0  0  0  0  0  0
  181.9840  177.9110  141.4580 O   0  0  0  0  0  0  0  0  0  0  0  0
  180.7350  176.8970  138.0890 N   0  0  2  0  0  0  0  0  0  0  0  0
  180.3220  178.7670  136.4620 C   0  0  0  0  0  2  0  0  0  0  0  0
  184.1900  178.3310  138.1000 C   0  0  1  0  0  3  0  0  0  0  0  0
  180.4450  179.7070  140.3890 O   0  0  0  0  0  1  0  0  0  0  0  0
  184.3030  178.2770  140.7100 C   0  0  0  0  0  0  0  0  0  0  0  0
  180.3780  177.5750  139.3550 C   0  0  1  0  0  3  0  0  0  0  0  0
  181.2740  178.7780  135.2640 C   0  0  0  0  0  2  0  0  0  0  0  0
  184.8520  179.4770  143.1930 C   0  0  0  0  0  3  0  0  0  0  0  0
  185.5750  178.7880  140.9860 C   0  0  0  0  0  3  0  0  0  0  0  0
  187.3550  176.4630  137.7140 C   0  0  1  0  0  3  0  0  0  0  0  0
  187.7700  175.1380  137.5630 O   0  0  0  0  0  1  0  0  0  0  0  0
  188.0530  177.3790  136.7000 C   0  0  1  0  0  3  0  0  0  0  0  0
  186.3610  178.8330  137.6260 O   0  0  0  0  0  0  0  0  0  0  0  0
  187.3230  178.7240  136.6050 C   0  0  0  0  0  2  0  0  0  0  0  0
  185.8200  176.5770  137.6210 C   0  0  2  0  0  3  0  0  0  0  0  0
  185.3300  175.6990  136.6500 O   0  0  0  0  0  1  0  0  0  0  0  0
  185.3700  177.9520  137.2980 N   0  0  1  0  0  0  0  0  0  0  0  0
  189.4970  177.6320  137.1100 C   0  0  0  0  0  2  0  0  0  0  0  0
  190.6210  176.9890  139.2430 C   0  0  0  0  0  1  0  0  0  0  0  0
  189.6130  177.9220  138.5980 C   0  0  0  0  0  2  0  0  0  0  0  0
  1  3  1  6  0  0  0
  1  4  1  0  0  0  0
  1 15  1  0  0  0  0
  2  7  1  0  0  0  0
  2  5  1  0  0  0  0
  4 13  1  0  0  0  0
  4  2  1  0  0  0  0
  5 12  1  0  0  0  0
  6 20  1  0  0  0  0
  7 17  1  0  0  0  0
  8 20  2  0  0  0  0
  9  8  1  0  0  0  0
 10  5  1  0  0  0  0
 10 16  1  0  0  0  0
 11 13  1  0  0  0  0
 12  9  1  0  0  0  0
 13 18  1  0  0  0  0
 14 11  1  0  0  0  0
 15  7  1  0  0  0  0
 17 21  1  0  0  0  0
 17  9  2  0  0  0  0
 18 10  1  0  0  0  0
 18  5  1  0  0  0  0
 19  3  1  0  0  0  0
 19 14  1  0  0  0  0
 21  6  2  0  0  0  0
 23 22  1  0  0  0  0
 24 30  1  0  0  0  0
 24 22  1  0  0  0  0
 26 24  1  0  0  0  0
 26 25  1  0  0  0  0
 27 22  1  0  0  0  0
 28 27  1  0  0  0  0
 29 27  1  0  0  0  0
 29 25  1  0  0  0  0
 29 15  1  0  0  0  0
 30 32  1  0  0  0  0
 32 31  1  0  0  0  0
M  END
>  <MODEL>
9

>  <REMARK>
 VINA RESULT:      -7.0      2.489      7.031
  Name = 
  3 active torsions:
  status: ('A' for Active; 'I' for Inactive)
    1  A    between atoms: C_15  and  C_19
    2  A    between atoms: C_19  and  C_26
    3  A    between atoms: C_24  and  N_27
                            x       y       z     vdW  Elec       q    Type
                         _______ _______ _______ _____ _____    ______ ____

>  <TORSDO>
F 3

$$$$
