=
 OpenBabel10272415293D

 34 38  0  0  1  0  0  0  0  0999 V2000
  189.9270  176.2570  143.9810 C   0  0  1  0  0  3  0  0  0  0  0  0
  187.1830  178.0810  146.0470 C   0  0  0  0  0  2  0  0  0  0  0  0
  184.8850  179.3000  143.7990 C   0  0  0  0  0  0  0  0  0  0  0  0
  189.4350  177.3610  146.5710 N   0  0  0  0  0  2  0  0  0  0  0  0
  190.7780  177.4440  141.9890 N   0  0  0  0  0  0  0  0  0  0  0  0
  190.3010  176.1550  142.4950 C   0  0  0  0  0  2  0  0  0  0  0  0
  191.7540  178.0460  144.1590 C   0  0  2  0  0  3  0  0  0  0  0  0
  190.9240  179.1600  144.3240 O   0  0  0  0  0  1  0  0  0  0  0  0
  184.1050  179.8700  144.8470 N   0  0  0  0  0  1  0  0  0  0  0  0
  192.0190  177.8170  142.6730 C   0  0  0  0  0  2  0  0  0  0  0  0
  190.7710  176.9980  146.2220 C   0  0  0  0  0  0  0  0  0  0  0  0
  191.1300  176.7840  144.7830 C   0  0  1  0  0  3  0  0  0  0  0  0
  191.7080  177.0940  147.1040 N   0  0  0  0  0  2  0  0  0  0  0  0
  185.8570  177.6740  145.4260 C   0  0  0  0  0  2  0  0  0  0  0  0
  184.7970  179.7800  142.6380 O   0  0  0  0  0  0  0  0  0  0  0  0
  185.7580  178.1920  144.0630 N   0  0  0  0  0  0  0  0  0  0  0  0
  186.5530  177.6370  142.9600 C   0  0  0  0  0  2  0  0  0  0  0  0
  188.2860  177.0830  145.7130 C   0  0  2  0  0  3  0  0  0  0  0  0
  187.5070  176.5310  143.3950 C   0  0  0  0  0  2  0  0  0  0  0  0
  188.6610  177.1010  144.2170 C   0  0  2  0  0  3  0  0  0  0  0  0
  190.9980  177.3690  140.5370 C   0  0  0  0  0  2  0  0  0  0  0  0
  187.6030  178.3940  139.1930 N   0  0  0  0  0  0  0  0  0  0  0  0
  189.5900  176.3980  138.6020 C   0  0  0  0  0  2  0  0  0  0  0  0
  186.0780  175.9410  135.8630 C   0  0  0  0  0  2  0  0  0  0  0  0
  186.4700  178.1620  137.0780 C   0  0  0  0  0  2  0  0  0  0  0  0
  187.2410  177.4260  138.1630 C   0  0  1  0  0  3  0  0  0  0  0  0
  185.4710  177.2530  136.3710 C   0  0  0  0  0  2  0  0  0  0  0  0
  188.5390  176.0670  136.4550 C   0  0  0  0  0  3  0  0  0  0  0  0
  188.4740  176.7030  137.6420 C   0  0  0  0  0  0  0  0  0  0  0  0
  187.5160  176.0650  135.3500 C   0  0  2  0  0  3  0  0  0  0  0  0
  189.7380  177.4000  139.7120 C   0  0  2  0  0  3  0  0  0  0  0  0
  188.8040  178.3160  139.9640 C   0  0  0  0  0  3  0  0  0  0  0  0
  187.7330  177.2150  134.3730 C   0  0  0  0  0  2  0  0  0  0  0  0
  189.0820  177.5720  134.3490 O   0  0  0  0  0  1  0  0  0  0  0  0
  1  6  1  6  0  0  0
  1 20  1  0  0  0  0
  1 12  1  0  0  0  0
  3 16  1  0  0  0  0
  3  9  1  0  0  0  0
  5  6  1  0  0  0  0
  5 10  1  0  0  0  0
  7  8  1  6  0  0  0
  7 12  1  0  0  0  0
 10  7  1  0  0  0  0
 11  4  1  0  0  0  0
 11 13  2  0  0  0  0
 12 11  1  1  0  0  0
 14  2  1  0  0  0  0
 15  3  2  0  0  0  0
 16 14  1  0  0  0  0
 17 19  1  0  0  0  0
 17 16  1  0  0  0  0
 18  2  1  6  0  0  0
 18  4  1  0  0  0  0
 20 19  1  6  0  0  0
 20 18  1  0  0  0  0
 21  5  1  0  0  0  0
 22 32  2  0  0  0  0
 23 31  1  0  0  0  0
 24 27  1  0  0  0  0
 26 25  1  6  0  0  0
 26 22  1  0  0  0  0
 27 25  1  0  0  0  0
 28 29  2  0  0  0  0
 29 26  1  0  0  0  0
 29 23  1  0  0  0  0
 30 33  1  1  0  0  0
 30 24  1  0  0  0  0
 30 28  1  0  0  0  0
 31 32  1  0  0  0  0
 31 21  1  6  0  0  0
 34 33  1  0  0  0  0
M  END
>  <MODEL>
1

>  <REMARK>
 VINA RESULT:     -10.0      0.000      0.000
  Name = 
  3 active torsions:
  status: ('A' for Active; 'I' for Inactive)
    1  A    between atoms: C_7  and  C_29
    2  A    between atoms: N_8  and  C_18
    3  A    between atoms: C_18  and  C_30
                            x       y       z     vdW  Elec       q    Type
                         _______ _______ _______ _____ _____    ______ ____

>  <TORSDO>
F 3

$$$$
=
 OpenBabel10272415293D

 34 38  0  0  1  0  0  0  0  0999 V2000
  189.9760  176.1580  143.8650 C   0  0  1  0  0  3  0  0  0  0  0  0
  187.5010  177.8170  146.3650 C   0  0  0  0  0  2  0  0  0  0  0  0
  184.9050  179.0900  144.5040 C   0  0  0  0  0  0  0  0  0  0  0  0
  189.8130  177.1240  146.5510 N   0  0  0  0  0  2  0  0  0  0  0  0
  190.5350  177.4590  141.8420 N   0  0  0  0  0  0  0  0  0  0  0  0
  190.1510  176.1360  142.3410 C   0  0  0  0  0  2  0  0  0  0  0  0
  191.7810  177.9780  143.8920 C   0  0  2  0  0  3  0  0  0  0  0  0
  190.9620  179.0620  144.2210 O   0  0  0  0  0  1  0  0  0  0  0  0
  184.2620  179.5910  145.6730 N   0  0  0  0  0  1  0  0  0  0  0  0
  191.8500  177.8260  142.3750 C   0  0  0  0  0  2  0  0  0  0  0  0
  191.0970  176.8090  146.0100 C   0  0  0  0  0  0  0  0  0  0  0  0
  191.2650  176.6730  144.5280 C   0  0  1  0  0  3  0  0  0  0  0  0
  192.1410  176.8830  146.7660 N   0  0  0  0  0  2  0  0  0  0  0  0
  186.1110  177.4110  145.9040 C   0  0  0  0  0  2  0  0  0  0  0  0
  184.6560  179.6240  143.3900 O   0  0  0  0  0  0  0  0  0  0  0  0
  185.8240  177.9900  144.5940 N   0  0  0  0  0  0  0  0  0  0  0  0
  186.4740  177.5080  143.3690 C   0  0  0  0  0  2  0  0  0  0  0  0
  188.5650  176.8610  145.8380 C   0  0  2  0  0  3  0  0  0  0  0  0
  187.4950  176.4040  143.6180 C   0  0  0  0  0  2  0  0  0  0  0  0
  188.7380  176.9610  144.3090 C   0  0  2  0  0  3  0  0  0  0  0  0
  190.5620  177.4580  140.3710 C   0  0  0  0  0  2  0  0  0  0  0  0
  187.6510  177.0320  137.9780 N   0  0  0  0  0  0  0  0  0  0  0  0
  188.2120  178.5300  140.3710 C   0  0  0  0  0  2  0  0  0  0  0  0
  184.0880  179.4590  138.8970 C   0  0  0  0  0  2  0  0  0  0  0  0
  185.2630  177.3120  138.1390 C   0  0  0  0  0  2  0  0  0  0  0  0
  186.6120  177.9640  138.3990 C   0  0  1  0  0  3  0  0  0  0  0  0
  184.1760  178.3420  137.8510 C   0  0  0  0  0  2  0  0  0  0  0  0
  185.8410  178.8880  140.6370 C   0  0  0  0  0  3  0  0  0  0  0  0
  186.8110  178.3790  139.8500 C   0  0  0  0  0  0  0  0  0  0  0  0
  184.3710  179.0050  140.3340 C   0  0  2  0  0  3  0  0  0  0  0  0
  189.2120  177.6140  139.7230 C   0  0  2  0  0  3  0  0  0  0  0  0
  188.9270  176.9290  138.6160 C   0  0  0  0  0  3  0  0  0  0  0  0
  183.6020  177.7580  140.7570 C   0  0  0  0  0  2  0  0  0  0  0  0
  182.2490  178.0620  140.9120 O   0  0  0  0  0  1  0  0  0  0  0  0
  1  6  1  6  0  0  0
  1 20  1  0  0  0  0
  1 12  1  0  0  0  0
  3 16  1  0  0  0  0
  3  9  1  0  0  0  0
  5  6  1  0  0  0  0
  5 10  1  0  0  0  0
  7  8  1  6  0  0  0
  7 12  1  0  0  0  0
 10  7  1  0  0  0  0
 11  4  1  0  0  0  0
 11 13  2  0  0  0  0
 12 11  1  1  0  0  0
 14  2  1  0  0  0  0
 15  3  2  0  0  0  0
 16 14  1  0  0  0  0
 17 19  1  0  0  0  0
 17 16  1  0  0  0  0
 18  2  1  1  0  0  0
 18  4  1  0  0  0  0
 20 19  1  6  0  0  0
 20 18  1  0  0  0  0
 21  5  1  0  0  0  0
 22 26  1  0  0  0  0
 22 32  2  0  0  0  0
 24 30  1  0  0  0  0
 26 25  1  1  0  0  0
 26 29  1  0  0  0  0
 27 25  1  0  0  0  0
 27 24  1  0  0  0  0
 29 23  1  0  0  0  0
 29 28  2  0  0  0  0
 30 28  1  0  0  0  0
 30 33  1  6  0  0  0
 31 23  1  0  0  0  0
 31 21  1  1  0  0  0
 32 31  1  0  0  0  0
 33 34  1  0  0  0  0
M  END
>  <MODEL>
2

>  <REMARK>
 VINA RESULT:      -9.7      2.110      2.926
  Name = 
  3 active torsions:
  status: ('A' for Active; 'I' for Inactive)
    1  A    between atoms: C_7  and  C_29
    2  A    between atoms: N_8  and  C_18
    3  A    between atoms: C_18  and  C_30
                            x       y       z     vdW  Elec       q    Type
                         _______ _______ _______ _____ _____    ______ ____

>  <TORSDO>
F 3

$$$$
=
 OpenBabel10272415293D

 34 38  0  0  1  0  0  0  0  0999 V2000
  189.8530  176.2920  143.2910 C   0  0  1  0  0  3  0  0  0  0  0  0
  187.5200  177.7000  146.0670 C   0  0  0  0  0  2  0  0  0  0  0  0
  184.8300  179.1350  144.4780 C   0  0  0  0  0  0  0  0  0  0  0  0
  189.8380  176.9990  146.0610 N   0  0  0  0  0  2  0  0  0  0  0  0
  190.3050  177.7800  141.3720 N   0  0  0  0  0  0  0  0  0  0  0  0
  189.9450  176.4150  141.7640 C   0  0  0  0  0  2  0  0  0  0  0  0
  191.6600  178.1060  143.3920 C   0  0  2  0  0  3  0  0  0  0  0  0
  190.8630  179.1530  143.8670 O   0  0  0  0  0  1  0  0  0  0  0  0
  184.2520  179.5220  145.7220 N   0  0  0  0  0  1  0  0  0  0  0  0
  191.6470  178.0990  141.8660 C   0  0  0  0  0  2  0  0  0  0  0  0
  191.0900  176.7410  145.4240 C   0  0  0  0  0  0  0  0  0  0  0  0
  191.1780  176.7460  143.9290 C   0  0  1  0  0  3  0  0  0  0  0  0
  192.1730  176.7460  146.1260 N   0  0  0  0  0  2  0  0  0  0  0  0
  186.1060  177.3340  145.6450 C   0  0  0  0  0  2  0  0  0  0  0  0
  184.5230  179.7710  143.4340 O   0  0  0  0  0  0  0  0  0  0  0  0
  185.7500  178.0350  144.4130 N   0  0  0  0  0  0  0  0  0  0  0  0
  186.3320  177.6720  143.1150 C   0  0  0  0  0  2  0  0  0  0  0  0
  188.5520  176.8010  145.3950 C   0  0  2  0  0  3  0  0  0  0  0  0
  187.3630  176.5530  143.2030 C   0  0  0  0  0  2  0  0  0  0  0  0
  188.6430  177.0450  143.8750 C   0  0  2  0  0  3  0  0  0  0  0  0
  190.2520  177.9190  139.9090 C   0  0  0  0  0  2  0  0  0  0  0  0
  190.5700  174.8560  137.6970 N   0  0  0  0  0  0  0  0  0  0  0  0
  192.3330  176.5710  139.1920 C   0  0  0  0  0  2  0  0  0  0  0  0
  194.6670  173.3020  137.2140 C   0  0  0  0  0  2  0  0  0  0  0  0
  192.3310  173.9050  136.3530 C   0  0  0  0  0  2  0  0  0  0  0  0
  191.9720  174.4520  137.7250 C   0  0  1  0  0  3  0  0  0  0  0  0
  193.4310  172.8520  136.4270 C   0  0  0  0  0  2  0  0  0  0  0  0
  194.1830  175.6880  137.9180 C   0  0  0  0  0  3  0  0  0  0  0  0
  192.8600  175.6070  138.1650 C   0  0  0  0  0  0  0  0  0  0  0  0
  195.0180  174.7850  137.0490 C   0  0  2  0  0  3  0  0  0  0  0  0
  190.8430  176.7620  139.1500 C   0  0  2  0  0  3  0  0  0  0  0  0
  190.0480  175.9550  138.4480 C   0  0  0  0  0  3  0  0  0  0  0  0
  195.0520  175.2610  135.6020 C   0  0  0  0  0  2  0  0  0  0  0  0
  195.3060  176.6320  135.5570 O   0  0  0  0  0  1  0  0  0  0  0  0
  1  6  1  6  0  0  0
  1 20  1  0  0  0  0
  1 12  1  0  0  0  0
  3  9  1  0  0  0  0
  5  6  1  0  0  0  0
  5 10  1  0  0  0  0
  7  8  1  1  0  0  0
  7 12  1  0  0  0  0
 10  7  1  0  0  0  0
 11  4  1  0  0  0  0
 11 13  2  0  0  0  0
 12 11  1  1  0  0  0
 14  2  1  0  0  0  0
 15  3  2  0  0  0  0
 16  3  1  0  0  0  0
 16 14  1  0  0  0  0
 17 19  1  0  0  0  0
 17 16  1  0  0  0  0
 18  4  1  0  0  0  0
 18  2  1  1  0  0  0
 20 19  1  6  0  0  0
 20 18  1  0  0  0  0
 21  5  1  0  0  0  0
 22 26  1  0  0  0  0
 22 32  2  0  0  0  0
 25 27  1  0  0  0  0
 26 25  1  6  0  0  0
 26 29  1  0  0  0  0
 27 24  1  0  0  0  0
 28 29  2  0  0  0  0
 29 23  1  0  0  0  0
 30 33  1  6  0  0  0
 30 24  1  0  0  0  0
 30 28  1  0  0  0  0
 31 23  1  0  0  0  0
 31 21  1  6  0  0  0
 32 31  1  0  0  0  0
 34 33  1  0  0  0  0
M  END
>  <MODEL>
3

>  <REMARK>
 VINA RESULT:      -7.9      2.900      3.910
  Name = 
  3 active torsions:
  status: ('A' for Active; 'I' for Inactive)
    1  A    between atoms: C_7  and  C_29
    2  A    between atoms: N_8  and  C_18
    3  A    between atoms: C_18  and  C_30
                            x       y       z     vdW  Elec       q    Type
                         _______ _______ _______ _____ _____    ______ ____

>  <TORSDO>
F 3

$$$$
=
 OpenBabel10272415293D

 34 38  0  0  1  0  0  0  0  0999 V2000
  188.2290  177.5470  136.7940 C   0  0  1  0  0  3  0  0  0  0  0  0
  184.4850  176.5190  137.0200 C   0  0  0  0  0  2  0  0  0  0  0  0
  183.3560  177.5310  140.1060 C   0  0  0  0  0  0  0  0  0  0  0  0
  186.2950  175.8410  135.5620 N   0  0  0  0  0  2  0  0  0  0  0  0
  189.6330  177.0350  138.7620 N   0  0  0  0  0  0  0  0  0  0  0  0
  189.2900  178.0630  137.7760 C   0  0  0  0  0  2  0  0  0  0  0  0
  189.2560  175.2250  137.1480 C   0  0  2  0  0  3  0  0  0  0  0  0
  188.2150  174.6590  137.8900 O   0  0  0  0  0  1  0  0  0  0  0  0
  182.0550  177.0090  139.8450 N   0  0  0  0  0  1  0  0  0  0  0  0
  190.2560  175.8930  138.0890 C   0  0  0  0  0  2  0  0  0  0  0  0
  187.6750  175.6580  135.2430 C   0  0  0  0  0  0  0  0  0  0  0  0
  188.7260  176.2510  136.1290 C   0  0  1  0  0  3  0  0  0  0  0  0
  188.0110  174.7920  134.3460 N   0  0  0  0  0  2  0  0  0  0  0  0
  183.7670  177.7020  137.6490 C   0  0  0  0  0  2  0  0  0  0  0  0
  183.7340  177.6670  141.3010 O   0  0  0  0  0  0  0  0  0  0  0  0
  184.2250  177.8970  139.0240 N   0  0  0  0  0  0  0  0  0  0  0  0
  185.5600  178.4220  139.3330 C   0  0  0  0  0  2  0  0  0  0  0  0
  185.8110  176.9380  136.3960 C   0  0  2  0  0  3  0  0  0  0  0  0
  186.4130  178.6790  138.0960 C   0  0  0  0  0  2  0  0  0  0  0  0
  186.8490  177.3640  137.4540 C   0  0  2  0  0  3  0  0  0  0  0  0
  190.5410  177.5890  139.7770 C   0  0  0  0  0  2  0  0  0  0  0  0
  190.4220  177.5760  143.5670 N   0  0  0  0  0  2  0  0  0  0  0  0
  188.5520  177.2950  141.3970 C   0  0  0  0  0  2  0  0  0  0  0  0
  186.4370  176.8890  145.3220 C   0  0  0  0  0  2  0  0  0  0  0  0
  188.7250  178.0370  145.2170 C   0  0  0  0  0  2  0  0  0  0  0  0
  189.0510  177.2590  143.9510 C   0  0  1  0  0  3  0  0  0  0  0  0
  187.6980  177.3150  146.0820 C   0  0  0  0  0  2  0  0  0  0  0  0
  186.7630  177.7350  142.9550 C   0  0  0  0  0  3  0  0  0  0  0  0
  188.0890  177.5410  142.8060 C   0  0  0  0  0  0  0  0  0  0  0  0
  185.9870  177.8750  144.2380 C   0  0  2  0  0  3  0  0  0  0  0  0
  190.0260  177.5030  141.1890 C   0  0  0  0  0  0  0  0  0  0  0  0
  190.8710  177.6320  142.2120 C   0  0  0  0  0  3  0  0  0  0  0  0
  185.9170  179.3250  144.7040 C   0  0  0  0  0  2  0  0  0  0  0  0
  185.0010  179.4460  145.7490 O   0  0  0  0  0  1  0  0  0  0  0  0
  1 20  1  0  0  0  0
  1  6  1  1  0  0  0
  2 14  1  0  0  0  0
  3 15  2  0  0  0  0
  4 18  1  0  0  0  0
  5 21  1  0  0  0  0
  6  5  1  0  0  0  0
  7  8  1  1  0  0  0
  7 10  1  0  0  0  0
  9  3  1  0  0  0  0
 10  5  1  0  0  0  0
 11  4  1  0  0  0  0
 12 11  1  1  0  0  0
 12  1  1  0  0  0  0
 12  7  1  0  0  0  0
 13 11  2  0  0  0  0
 14 16  1  0  0  0  0
 16 17  1  0  0  0  0
 16  3  1  0  0  0  0
 18  2  1  1  0  0  0
 18 20  1  0  0  0  0
 19 17  1  0  0  0  0
 20 19  1  6  0  0  0
 21 31  1  0  0  0  0
 22 26  1  0  0  0  0
 23 29  1  0  0  0  0
 24 27  1  0  0  0  0
 25 27  1  0  0  0  0
 26 25  1  1  0  0  0
 28 30  1  0  0  0  0
 29 28  2  0  0  0  0
 29 26  1  0  0  0  0
 30 33  1  1  0  0  0
 30 24  1  0  0  0  0
 31 23  1  0  0  0  0
 31 32  2  0  0  0  0
 32 22  1  0  0  0  0
 33 34  1  0  0  0  0
M  END
>  <MODEL>
4

>  <REMARK>
 VINA RESULT:      -7.6      2.455      7.660
  Name = 
  3 active torsions:
  status: ('A' for Active; 'I' for Inactive)
    1  A    between atoms: C_7  and  C_29
    2  A    between atoms: N_8  and  C_18
    3  A    between atoms: C_18  and  C_30
                            x       y       z     vdW  Elec       q    Type
                         _______ _______ _______ _____ _____    ______ ____

>  <TORSDO>
F 3

$$$$
=
 OpenBabel10272415293D

 34 38  0  0  1  0  0  0  0  0999 V2000
  188.8270  178.6070  141.9050 C   0  0  1  0  0  3  0  0  0  0  0  0
  190.6890  176.2390  139.4450 C   0  0  0  0  0  2  0  0  0  0  0  0
  188.5210  175.5790  136.8600 C   0  0  0  0  0  0  0  0  0  0  0  0
  191.0840  176.8600  141.7520 N   0  0  0  0  0  2  0  0  0  0  0  0
  186.5020  177.9970  142.4750 N   0  0  0  0  0  0  0  0  0  0  0  0
  187.3830  179.0980  142.0790 C   0  0  0  0  0  2  0  0  0  0  0  0
  188.2970  176.8820  143.7250 C   0  0  2  0  0  3  0  0  0  0  0  0
  188.2740  175.7420  142.9160 O   0  0  0  0  0  1  0  0  0  0  0  0
  189.4770  174.7370  136.2210 N   0  0  0  0  0  1  0  0  0  0  0  0
  186.9000  177.4940  143.7920 C   0  0  0  0  0  2  0  0  0  0  0  0
  190.6700  177.3360  143.0330 C   0  0  0  0  0  0  0  0  0  0  0  0
  189.3020  177.9240  143.1990 C   0  0  1  0  0  3  0  0  0  0  0  0
  191.3680  177.0420  144.0770 N   0  0  0  0  0  2  0  0  0  0  0  0
  190.3730  176.7560  138.0520 C   0  0  0  0  0  2  0  0  0  0  0  0
  187.2960  175.4120  136.6150 O   0  0  0  0  0  0  0  0  0  0  0  0
  188.9470  176.6050  137.7690 N   0  0  0  0  0  0  0  0  0  0  0  0
  187.9310  177.4460  138.4140 C   0  0  0  0  0  2  0  0  0  0  0  0
  190.4840  177.3190  140.5010 C   0  0  2  0  0  3  0  0  0  0  0  0
  188.5110  178.4280  139.4270 C   0  0  0  0  0  2  0  0  0  0  0  0
  188.9990  177.6970  140.6750 C   0  0  2  0  0  3  0  0  0  0  0  0
  185.1040  178.4500  142.5000 C   0  0  0  0  0  2  0  0  0  0  0  0
  184.1200  179.1100  138.8980 N   0  0  0  0  0  0  0  0  0  0  0  0
  183.3090  177.3370  141.0150 C   0  0  0  0  0  2  0  0  0  0  0  0
  180.8040  176.6410  137.3700 C   0  0  0  0  0  2  0  0  0  0  0  0
  183.0710  177.8150  137.1570 C   0  0  0  0  0  2  0  0  0  0  0  0
  182.9700  178.2630  138.6070 C   0  0  1  0  0  3  0  0  0  0  0  0
  181.6990  177.5660  136.5380 C   0  0  0  0  0  2  0  0  0  0  0  0
  182.2100  175.9600  139.3660 C   0  0  0  0  0  3  0  0  0  0  0  0
  182.8870  177.1050  139.5910 C   0  0  0  0  0  0  0  0  0  0  0  0
  181.5510  175.5120  138.0880 C   0  0  2  0  0  3  0  0  0  0  0  0
  184.3950  178.3640  141.1750 C   0  0  2  0  0  3  0  0  0  0  0  0
  184.7540  179.1720  140.1780 C   0  0  0  0  0  3  0  0  0  0  0  0
  182.5110  174.7340  137.1960 C   0  0  0  0  0  2  0  0  0  0  0  0
  183.6630  174.4010  137.9100 O   0  0  0  0  0  1  0  0  0  0  0  0
  1  6  1  1  0  0  0
  1 12  1  0  0  0  0
  3 16  1  0  0  0  0
  4 11  1  0  0  0  0
  5 21  1  0  0  0  0
  5 10  1  0  0  0  0
  6  5  1  0  0  0  0
  7  8  1  6  0  0  0
  7 10  1  0  0  0  0
  9  3  1  0  0  0  0
 11 13  2  0  0  0  0
 12 11  1  6  0  0  0
 12  7  1  0  0  0  0
 14  2  1  0  0  0  0
 15  3  2  0  0  0  0
 16 14  1  0  0  0  0
 16 17  1  0  0  0  0
 17 19  1  0  0  0  0
 18  2  1  6  0  0  0
 18 20  1  0  0  0  0
 18  4  1  0  0  0  0
 20 19  1  6  0  0  0
 20  1  1  0  0  0  0
 22 32  2  0  0  0  0
 23 31  1  0  0  0  0
 24 30  1  0  0  0  0
 26 25  1  6  0  0  0
 26 22  1  0  0  0  0
 26 29  1  0  0  0  0
 27 25  1  0  0  0  0
 27 24  1  0  0  0  0
 28 29  2  0  0  0  0
 29 23  1  0  0  0  0
 30 33  1  6  0  0  0
 30 28  1  0  0  0  0
 31 21  1  6  0  0  0
 32 31  1  0  0  0  0
 33 34  1  0  0  0  0
M  END
>  <MODEL>
5

>  <REMARK>
 VINA RESULT:      -7.5      3.104      5.809
  Name = 
  3 active torsions:
  status: ('A' for Active; 'I' for Inactive)
    1  A    between atoms: C_7  and  C_29
    2  A    between atoms: N_8  and  C_18
    3  A    between atoms: C_18  and  C_30
                            x       y       z     vdW  Elec       q    Type
                         _______ _______ _______ _____ _____    ______ ____

>  <TORSDO>
F 3

$$$$
=
 OpenBabel10272415293D

 34 38  0  0  1  0  0  0  0  0999 V2000
  189.0500  177.3380  136.8820 C   0  0  1  0  0  3  0  0  0  0  0  0
  188.3900  173.7860  135.4390 C   0  0  0  0  0  2  0  0  0  0  0  0
  185.3650  172.7430  136.6980 C   0  0  0  0  0  0  0  0  0  0  0  0
  190.3830  175.1490  135.6140 N   0  0  0  0  0  2  0  0  0  0  0  0
  188.6400  177.6390  139.2990 N   0  0  0  0  0  0  0  0  0  0  0  0
  188.4220  178.2170  137.9710 C   0  0  0  0  0  2  0  0  0  0  0  0
  190.8040  176.6880  138.6350 C   0  0  2  0  0  3  0  0  0  0  0  0
  190.3910  175.3690  138.8480 O   0  0  0  0  0  1  0  0  0  0  0  0
  185.4650  171.4980  136.0130 N   0  0  0  0  0  1  0  0  0  0  0  0
  190.0740  177.6190  139.6000 C   0  0  0  0  0  2  0  0  0  0  0  0
  191.1710  176.1880  136.1990 C   0  0  0  0  0  0  0  0  0  0  0  0
  190.5450  177.1290  137.1820 C   0  0  1  0  0  3  0  0  0  0  0  0
  192.4540  176.1630  136.0690 N   0  0  0  0  0  2  0  0  0  0  0  0
  186.9240  173.7670  135.0380 C   0  0  0  0  0  2  0  0  0  0  0  0
  184.6440  172.8210  137.7290 O   0  0  0  0  0  0  0  0  0  0  0  0
  186.0750  173.8960  136.2210 N   0  0  0  0  0  0  0  0  0  0  0  0
  185.9540  175.1590  136.9600 C   0  0  0  0  0  2  0  0  0  0  0  0
  188.9270  175.2110  135.5260 C   0  0  2  0  0  3  0  0  0  0  0  0
  186.8330  176.2740  136.4040 C   0  0  0  0  0  2  0  0  0  0  0  0
  188.3070  176.0010  136.6960 C   0  0  2  0  0  3  0  0  0  0  0  0
  187.9150  178.4140  140.3160 C   0  0  0  0  0  2  0  0  0  0  0  0
  190.0010  178.0080  143.4570 N   0  0  0  0  0  2  0  0  0  0  0  0
  187.2480  177.6600  142.6940 C   0  0  0  0  0  2  0  0  0  0  0  0
  187.8130  176.5470  146.9940 C   0  0  0  0  0  2  0  0  0  0  0  0
  189.5370  178.0370  145.8220 C   0  0  0  0  0  2  0  0  0  0  0  0
  189.1270  177.4480  144.4810 C   0  0  1  0  0  3  0  0  0  0  0  0
  189.2490  177.0840  146.9770 C   0  0  0  0  0  2  0  0  0  0  0  0
  186.6570  177.6630  145.0330 C   0  0  0  0  0  3  0  0  0  0  0  0
  187.6640  177.6910  144.1380 C   0  0  0  0  0  0  0  0  0  0  0  0
  186.7540  177.5540  146.5320 C   0  0  2  0  0  3  0  0  0  0  0  0
  188.3140  178.1100  141.7360 C   0  0  0  0  0  0  0  0  0  0  0  0
  189.5820  178.2670  142.1140 C   0  0  0  0  0  3  0  0  0  0  0  0
  186.8650  178.9230  147.1940 C   0  0  0  0  0  2  0  0  0  0  0  0
  185.6070  179.5240  147.2600 O   0  0  0  0  0  1  0  0  0  0  0  0
  1 12  1  0  0  0  0
  1  6  1  1  0  0  0
  3 15  2  0  0  0  0
  4 11  1  0  0  0  0
  5 10  1  0  0  0  0
  5 21  1  0  0  0  0
  6  5  1  0  0  0  0
  7  8  1  6  0  0  0
  7 10  1  0  0  0  0
  9  3  1  0  0  0  0
 12 11  1  6  0  0  0
 12  7  1  0  0  0  0
 13 11  2  0  0  0  0
 14  2  1  0  0  0  0
 14 16  1  0  0  0  0
 16  3  1  0  0  0  0
 16 17  1  0  0  0  0
 18  2  1  1  0  0  0
 18  4  1  0  0  0  0
 18 20  1  0  0  0  0
 19 17  1  0  0  0  0
 20 19  1  6  0  0  0
 20  1  1  0  0  0  0
 21 31  1  0  0  0  0
 22 26  1  0  0  0  0
 23 29  1  0  0  0  0
 25 27  1  0  0  0  0
 26 25  1  1  0  0  0
 27 24  1  0  0  0  0
 28 30  1  0  0  0  0
 29 26  1  0  0  0  0
 29 28  2  0  0  0  0
 30 24  1  0  0  0  0
 30 33  1  1  0  0  0
 31 32  2  0  0  0  0
 31 23  1  0  0  0  0
 32 22  1  0  0  0  0
 33 34  1  0  0  0  0
M  END
>  <MODEL>
6

>  <REMARK>
 VINA RESULT:      -7.4      3.145      8.674
  Name = 
  3 active torsions:
  status: ('A' for Active; 'I' for Inactive)
    1  A    between atoms: C_7  and  C_29
    2  A    between atoms: N_8  and  C_18
    3  A    between atoms: C_18  and  C_30
                            x       y       z     vdW  Elec       q    Type
                         _______ _______ _______ _____ _____    ______ ____

>  <TORSDO>
F 3

$$$$
=
 OpenBabel10272415293D

 34 38  0  0  1  0  0  0  0  0999 V2000
  185.6310  177.3230  136.3170 C   0  0  1  0  0  3  0  0  0  0  0  0
  182.2570  177.2820  138.2510 C   0  0  0  0  0  2  0  0  0  0  0  0
  182.8800  178.5750  141.3750 C   0  0  0  0  0  0  0  0  0  0  0  0
  183.0230  176.1540  136.2510 N   0  0  0  0  0  2  0  0  0  0  0  0
  187.6100  176.4900  137.5370 N   0  0  0  0  0  0  0  0  0  0  0  0
  187.1030  177.5620  136.6780 C   0  0  0  0  0  2  0  0  0  0  0  0
  186.1600  174.8200  136.4730 C   0  0  2  0  0  3  0  0  0  0  0  0
  185.4620  174.5440  137.6530 O   0  0  0  0  0  1  0  0  0  0  0  0
  181.5200  178.3980  141.7620 N   0  0  0  0  0  1  0  0  0  0  0  0
  187.5950  175.2210  136.8060 C   0  0  0  0  0  2  0  0  0  0  0  0
  184.0360  175.6230  135.3950 C   0  0  0  0  0  0  0  0  0  0  0  0
  185.4750  175.9380  135.6650 C   0  0  1  0  0  3  0  0  0  0  0  0
  183.7340  174.6920  134.5530 N   0  0  0  0  0  2  0  0  0  0  0  0
  182.1790  178.6130  138.9790 C   0  0  0  0  0  2  0  0  0  0  0  0
  183.7710  178.6220  142.2650 O   0  0  0  0  0  0  0  0  0  0  0  0
  183.2320  178.6990  139.9890 N   0  0  0  0  0  0  0  0  0  0  0  0
  184.6450  178.8700  139.6290 C   0  0  0  0  0  2  0  0  0  0  0  0
  183.2210  177.3450  137.0720 C   0  0  2  0  0  3  0  0  0  0  0  0
  184.8900  178.8910  138.1240 C   0  0  0  0  0  2  0  0  0  0  0  0
  184.6880  177.5020  137.5220 C   0  0  2  0  0  3  0  0  0  0  0  0
  188.9740  176.8040  137.9890 C   0  0  0  0  0  2  0  0  0  0  0  0
  188.0090  177.9340  141.4770 N   0  0  0  0  0  2  0  0  0  0  0  0
  190.4320  177.2930  140.0630 C   0  0  0  0  0  2  0  0  0  0  0  0
  191.3780  178.5610  144.2510 C   0  0  0  0  0  2  0  0  0  0  0  0
  189.0170  177.7600  143.6610 C   0  0  0  0  0  2  0  0  0  0  0  0
  189.2490  178.1600  142.2120 C   0  0  1  0  0  3  0  0  0  0  0  0
  189.8910  178.5600  144.6210 C   0  0  0  0  0  2  0  0  0  0  0  0
  191.5570  177.0990  142.1880 C   0  0  0  0  0  3  0  0  0  0  0  0
  190.4080  177.4180  141.5600 C   0  0  0  0  0  0  0  0  0  0  0  0
  191.8830  177.2440  143.6520 C   0  0  2  0  0  3  0  0  0  0  0  0
  189.0710  177.2370  139.4270 C   0  0  0  0  0  0  0  0  0  0  0  0
  187.9640  177.5370  140.1050 C   0  0  0  0  0  3  0  0  0  0  0  0
  191.4880  176.0050  144.4470 C   0  0  0  0  0  2  0  0  0  0  0  0
  191.9860  176.0950  145.7480 O   0  0  0  0  0  1  0  0  0  0  0  0
  1  6  1  1  0  0  0
  1 20  1  0  0  0  0
  2 14  1  0  0  0  0
  3  9  1  0  0  0  0
  3 15  2  0  0  0  0
  4 18  1  0  0  0  0
  5 21  1  0  0  0  0
  6  5  1  0  0  0  0
  7 10  1  0  0  0  0
  7  8  1  1  0  0  0
 10  5  1  0  0  0  0
 11  4  1  0  0  0  0
 12 11  1  1  0  0  0
 12  1  1  0  0  0  0
 12  7  1  0  0  0  0
 13 11  2  0  0  0  0
 14 16  1  0  0  0  0
 16  3  1  0  0  0  0
 17 16  1  0  0  0  0
 18 20  1  0  0  0  0
 18  2  1  1  0  0  0
 19 17  1  0  0  0  0
 20 19  1  6  0  0  0
 21 31  1  0  0  0  0
 22 26  1  0  0  0  0
 23 29  1  0  0  0  0
 24 27  1  0  0  0  0
 25 27  1  0  0  0  0
 26 25  1  1  0  0  0
 28 30  1  0  0  0  0
 29 28  2  0  0  0  0
 29 26  1  0  0  0  0
 30 24  1  0  0  0  0
 30 33  1  1  0  0  0
 31 23  1  0  0  0  0
 31 32  2  0  0  0  0
 32 22  1  0  0  0  0
 33 34  1  0  0  0  0
M  END
>  <MODEL>
7

>  <REMARK>
 VINA RESULT:      -7.3      2.847      8.007
  Name = 
  3 active torsions:
  status: ('A' for Active; 'I' for Inactive)
    1  A    between atoms: C_7  and  C_29
    2  A    between atoms: N_8  and  C_18
    3  A    between atoms: C_18  and  C_30
                            x       y       z     vdW  Elec       q    Type
                         _______ _______ _______ _____ _____    ______ ____

>  <TORSDO>
F 3

$$$$
=
 OpenBabel10272415293D

 34 38  0  0  1  0  0  0  0  0999 V2000
  190.1780  174.7020  137.4190 C   0  0  1  0  0  3  0  0  0  0  0  0
  193.2690  173.8810  135.2060 C   0  0  0  0  0  2  0  0  0  0  0  0
  195.3710  176.5960  135.3780 C   0  0  0  0  0  0  0  0  0  0  0  0
  191.0490  172.9270  135.3550 N   0  0  0  0  0  2  0  0  0  0  0  0
  189.1880  176.9480  137.1390 N   0  0  0  0  0  0  0  0  0  0  0  0
  189.6270  175.9520  138.1200 C   0  0  0  0  0  2  0  0  0  0  0  0
  188.5180  175.2150  135.5350 C   0  0  2  0  0  3  0  0  0  0  0  0
  189.4400  175.6290  134.5680 O   0  0  0  0  0  1  0  0  0  0  0  0
  196.3070  175.9770  134.5000 N   0  0  0  0  0  1  0  0  0  0  0  0
  188.0660  176.4160  136.3620 C   0  0  0  0  0  2  0  0  0  0  0  0
  189.6580  172.9790  135.6750 C   0  0  0  0  0  0  0  0  0  0  0  0
  189.1180  174.1370  136.4570 C   0  0  1  0  0  3  0  0  0  0  0  0
  188.8400  172.1680  135.0920 N   0  0  0  0  0  2  0  0  0  0  0  0
  194.4810  174.3470  135.9960 C   0  0  0  0  0  2  0  0  0  0  0  0
  195.3560  177.8530  135.4720 O   0  0  0  0  0  0  0  0  0  0  0  0
  194.4560  175.8000  136.1470 N   0  0  0  0  0  0  0  0  0  0  0  0
  193.5010  176.4760  137.0340 C   0  0  0  0  0  2  0  0  0  0  0  0
  192.0660  173.6500  136.1140 C   0  0  2  0  0  3  0  0  0  0  0  0
  192.5260  175.5220  137.7160 C   0  0  0  0  0  2  0  0  0  0  0  0
  191.5210  174.9630  136.7110 C   0  0  2  0  0  3  0  0  0  0  0  0
  188.7950  178.1910  137.8190 C   0  0  0  0  0  2  0  0  0  0  0  0
  187.7230  178.0390  141.4540 N   0  0  0  0  0  2  0  0  0  0  0  0
  190.1970  178.0380  139.9830 C   0  0  0  0  0  2  0  0  0  0  0  0
  191.0150  177.8860  144.3820 C   0  0  0  0  0  2  0  0  0  0  0  0
  188.7140  177.2020  143.4850 C   0  0  0  0  0  2  0  0  0  0  0  0
  188.9380  178.0740  142.2600 C   0  0  1  0  0  3  0  0  0  0  0  0
  189.5260  177.6810  144.6840 C   0  0  0  0  0  2  0  0  0  0  0  0
  191.3070  177.2080  141.9570 C   0  0  0  0  0  3  0  0  0  0  0  0
  190.1470  177.6560  141.4360 C   0  0  0  0  0  0  0  0  0  0  0  0
  191.6060  176.8740  143.3950 C   0  0  2  0  0  3  0  0  0  0  0  0
  188.8490  178.1240  139.3230 C   0  0  0  0  0  0  0  0  0  0  0  0
  187.7180  178.1200  140.0270 C   0  0  0  0  0  3  0  0  0  0  0  0
  191.2800  175.4210  143.7210 C   0  0  0  0  0  2  0  0  0  0  0  0
  192.3150  174.8560  144.4670 O   0  0  0  0  0  1  0  0  0  0  0  0
  1  6  1  6  0  0  0
  2 14  1  0  0  0  0
  3 15  2  0  0  0  0
  3 16  1  0  0  0  0
  4 11  1  0  0  0  0
  4 18  1  0  0  0  0
  5 21  1  0  0  0  0
  5  6  1  0  0  0  0
  7  8  1  6  0  0  0
  7 10  1  0  0  0  0
  7 12  1  0  0  0  0
  9  3  1  0  0  0  0
 10  5  1  0  0  0  0
 12 11  1  6  0  0  0
 12  1  1  0  0  0  0
 13 11  2  0  0  0  0
 14 16  1  0  0  0  0
 16 17  1  0  0  0  0
 17 19  1  0  0  0  0
 18  2  1  6  0  0  0
 18 20  1  0  0  0  0
 20  1  1  0  0  0  0
 20 19  1  1  0  0  0
 21 31  1  0  0  0  0
 22 26  1  0  0  0  0
 23 29  1  0  0  0  0
 24 27  1  0  0  0  0
 25 27  1  0  0  0  0
 26 25  1  1  0  0  0
 28 30  1  0  0  0  0
 29 28  2  0  0  0  0
 29 26  1  0  0  0  0
 30 33  1  1  0  0  0
 30 24  1  0  0  0  0
 31 23  1  0  0  0  0
 31 32  2  0  0  0  0
 32 22  1  0  0  0  0
 33 34  1  0  0  0  0
M  END
>  <MODEL>
8

>  <REMARK>
 VINA RESULT:      -7.2      3.973      9.353
  Name = 
  3 active torsions:
  status: ('A' for Active; 'I' for Inactive)
    1  A    between atoms: C_7  and  C_29
    2  A    between atoms: N_8  and  C_18
    3  A    between atoms: C_18  and  C_30
                            x       y       z     vdW  Elec       q    Type
                         _______ _______ _______ _____ _____    ______ ____

>  <TORSDO>
F 3

$$$$
=
 OpenBabel10272415293D

 34 38  0  0  1  0  0  0  0  0999 V2000
  183.6510  179.4140  139.9960 C   0  0  1  0  0  3  0  0  0  0  0  0
  183.8840  178.4010  143.7440 C   0  0  0  0  0  2  0  0  0  0  0  0
  187.0940  177.2950  144.2820 C   0  0  0  0  0  0  0  0  0  0  0  0
  182.0150  178.7880  142.2550 N   0  0  0  0  0  2  0  0  0  0  0  0
  184.6140  177.8300  138.3640 N   0  0  0  0  0  0  0  0  0  0  0  0
  184.5320  179.2400  138.7520 C   0  0  0  0  0  2  0  0  0  0  0  0
  182.3360  177.3790  139.1600 C   0  0  2  0  0  3  0  0  0  0  0  0
  182.7590  176.4610  140.1260 O   0  0  0  0  0  1  0  0  0  0  0  0
  186.8120  177.0210  145.6520 N   0  0  0  0  0  1  0  0  0  0  0  0
  183.2880  177.3480  137.9670 C   0  0  0  0  0  2  0  0  0  0  0  0
  181.4060  178.8610  140.9650 C   0  0  0  0  0  0  0  0  0  0  0  0
  182.2610  178.8050  139.7360 C   0  0  1  0  0  3  0  0  0  0  0  0
  180.1260  178.7300  140.8570 N   0  0  0  0  0  2  0  0  0  0  0  0
  185.2170  178.9400  144.2370 C   0  0  0  0  0  2  0  0  0  0  0  0
  188.0350  176.6780  143.7140 O   0  0  0  0  0  0  0  0  0  0  0  0
  186.3180  178.2610  143.5570 N   0  0  0  0  0  0  0  0  0  0  0  0
  186.6330  178.5090  142.1450 C   0  0  0  0  0  2  0  0  0  0  0  0
  183.4120  179.1370  142.4950 C   0  0  2  0  0  3  0  0  0  0  0  0
  185.6740  179.4840  141.4710 C   0  0  0  0  0  2  0  0  0  0  0  0
  184.3020  178.8430  141.2700 C   0  0  2  0  0  3  0  0  0  0  0  0
  185.5710  177.6610  137.2610 C   0  0  0  0  0  2  0  0  0  0  0  0
  188.6820  177.5660  139.4280 N   0  0  0  0  0  2  0  0  0  0  0  0
  188.0190  177.0910  136.6680 C   0  0  0  0  0  2  0  0  0  0  0  0
  192.4140  176.5380  137.3180 C   0  0  0  0  0  2  0  0  0  0  0  0
  190.8040  176.4280  139.3080 C   0  0  0  0  0  2  0  0  0  0  0  0
  189.8100  177.2890  138.5450 C   0  0  1  0  0  3  0  0  0  0  0  0
  192.2360  176.6540  138.8360 C   0  0  0  0  0  2  0  0  0  0  0  0
  190.1220  175.9360  136.4180 C   0  0  0  0  0  3  0  0  0  0  0  0
  189.3370  176.6560  137.2440 C   0  0  0  0  0  0  0  0  0  0  0  0
  191.5350  175.4720  136.6560 C   0  0  2  0  0  3  0  0  0  0  0  0
  187.0040  177.5080  137.6960 C   0  0  0  0  0  0  0  0  0  0  0  0
  187.3370  177.7190  138.9690 C   0  0  0  0  0  3  0  0  0  0  0  0
  191.5780  174.1130  137.3460 C   0  0  0  0  0  2  0  0  0  0  0  0
  190.3060  173.5390  137.3470 O   0  0  0  0  0  1  0  0  0  0  0  0
  1  6  1  6  0  0  0
  1 20  1  0  0  0  0
  2 14  1  0  0  0  0
  3  9  1  0  0  0  0
  4 18  1  0  0  0  0
  5  6  1  0  0  0  0
  7 12  1  0  0  0  0
  7  8  1  1  0  0  0
 10  5  1  0  0  0  0
 10  7  1  0  0  0  0
 11  4  1  0  0  0  0
 12  1  1  0  0  0  0
 12 11  1  1  0  0  0
 13 11  2  0  0  0  0
 15  3  2  0  0  0  0
 16 14  1  0  0  0  0
 16  3  1  0  0  0  0
 17 16  1  0  0  0  0
 18  2  1  1  0  0  0
 19 17  1  0  0  0  0
 20 19  1  1  0  0  0
 20 18  1  0  0  0  0
 21 31  1  0  0  0  0
 21  5  1  0  0  0  0
 23 29  1  0  0  0  0
 23 31  1  0  0  0  0
 24 27  1  0  0  0  0
 26 25  1  1  0  0  0
 26 22  1  0  0  0  0
 27 25  1  0  0  0  0
 28 30  1  0  0  0  0
 28 29  2  0  0  0  0
 29 26  1  0  0  0  0
 30 24  1  0  0  0  0
 30 33  1  1  0  0  0
 31 32  2  0  0  0  0
 32 22  1  0  0  0  0
 33 34  1  0  0  0  0
M  END
>  <MODEL>
9

>  <REMARK>
 VINA RESULT:      -7.0      2.890      6.378
  Name = 
  3 active torsions:
  status: ('A' for Active; 'I' for Inactive)
    1  A    between atoms: C_7  and  C_29
    2  A    between atoms: N_8  and  C_18
    3  A    between atoms: C_18  and  C_30
                            x       y       z     vdW  Elec       q    Type
                         _______ _______ _______ _____ _____    ______ ____

>  <TORSDO>
F 3

$$$$
