=
 OpenBabel10272414413D

 43 47  0  0  1  0  0  0  0  0999 V2000
  184.9970  177.3560  137.0830 N   0  0  0  0  0  0  0  0  0  0  0  0
  184.3350  177.9750  138.2020 C   0  0  0  0  0  0  0  0  0  0  0  0
  184.6820  179.1270  138.5790 O   0  0  0  0  0  0  0  0  0  0  0  0
  184.1100  172.1510  136.2370 C   0  0  0  0  0  0  0  0  0  0  0  0
  183.9620  174.3350  135.2570 C   0  0  0  0  0  0  0  0  0  0  0  0
  184.5710  172.8090  137.4890 C   0  0  0  0  0  3  0  0  0  0  0  0
  183.9100  170.6790  136.2120 C   0  0  0  0  0  1  0  0  0  0  0  0
  184.9400  174.9030  136.2270 C   0  0  2  0  0  3  0  0  0  0  0  0
  183.7580  172.8860  135.1750 C   0  0  0  0  0  3  0  0  0  0  0  0
  184.9010  174.1110  137.5080 C   0  0  0  0  0  3  0  0  0  0  0  0
  184.3970  176.2860  136.3310 C   0  0  0  0  0  0  0  0  0  0  0  0
  183.4020  176.4370  135.4620 C   0  0  0  0  0  3  0  0  0  0  0  0
  183.1050  175.1980  134.8250 N   0  0  0  0  0  0  0  0  0  0  0  0
  183.3120  177.2330  139.0040 C   0  0  0  0  0  2  0  0  0  0  0  0
  182.7170  178.6870  142.5020 C   0  0  0  0  0  0  0  0  0  0  0  0
  181.2360  178.9990  142.4240 C   0  0  2  0  0  3  0  0  0  0  0  0
  180.5270  178.6000  143.7060 C   0  0  0  0  0  1  0  0  0  0  0  0
  181.2420  177.9110  140.1770 C   0  0  0  0  0  3  0  0  0  0  0  0
  183.3780  177.8580  141.4390 C   0  0  0  0  0  2  0  0  0  0  0  0
  182.7240  178.1310  140.0820 C   0  0  1  0  0  3  0  0  0  0  0  0
  183.4820  179.2830  143.4160 C   0  0  0  0  0  2  0  0  0  0  0  0
  180.5620  178.3140  141.2590 C   0  0  0  0  0  3  0  0  0  0  0  0
  186.3510  177.7770  136.7430 C   0  0  0  0  0  2  0  0  0  0  0  0
  187.3480  177.2130  137.7630 C   0  0  0  0  0  2  0  0  0  0  0  0
  188.1210  178.2470  138.4580 N   0  0  0  0  0  0  0  0  0  0  0  0
  189.3140  178.5710  137.6900 C   0  0  0  0  0  1  0  0  0  0  0  0
  188.5420  177.7420  139.7600 C   0  0  0  0  0  2  0  0  0  0  0  0
  188.3350  178.3970  142.2090 N   0  0  0  0  0  2  0  0  0  0  0  0
  187.8440  178.4670  140.8690 C   0  0  0  0  0  0  0  0  0  0  0  0
  186.7900  179.1130  140.6340 O   0  0  0  0  0  0  0  0  0  0  0  0
  189.4270  177.5160  142.6010 C   0  0  1  0  0  3  0  0  0  0  0  0
  190.3750  177.2250  144.8750 C   0  0  0  0  0  3  0  0  0  0  0  0
  190.7680  178.2100  142.3210 C   0  0  0  0  0  2  0  0  0  0  0  0
  191.8080  177.5290  142.9790 O   0  0  0  0  0  0  0  0  0  0  0  0
  189.3070  177.1430  144.0670 C   0  0  0  0  0  0  0  0  0  0  0  0
  191.6570  177.8190  144.3500 C   0  0  0  0  0  2  0  0  0  0  0  0
  188.0400  176.5410  144.5900 C   0  0  0  0  0  2  0  0  0  0  0  0
  187.3890  177.4280  145.5980 C   0  0  0  0  0  0  0  0  0  0  0  0
  186.1450  179.0230  147.4970 C   0  0  0  0  0  3  0  0  0  0  0  0
  187.2390  178.2240  147.8320 C   0  0  0  0  0  3  0  0  0  0  0  0
  185.6740  179.0150  146.1820 C   0  0  0  0  0  3  0  0  0  0  0  0
  187.8340  177.4490  146.8840 N   0  0  0  0  0  0  0  0  0  0  0  0
  186.2970  178.2130  145.2240 C   0  0  0  0  0  3  0  0  0  0  0  0
  1  2  1  0  0  0  0
  2  3  2  0  0  0  0
  2 14  1  0  0  0  0
  4  6  1  0  0  0  0
  5  8  1  0  0  0  0
  6 10  2  0  0  0  0
  7  4  1  0  0  0  0
  8 11  1  0  0  0  0
  8 10  1  1  0  0  0
  9  5  1  0  0  0  0
  9  4  2  0  0  0  0
 11  1  1  0  0  0  0
 12 11  2  0  0  0  0
 13  5  2  0  0  0  0
 13 12  1  0  0  0  0
 15 21  2  0  0  0  0
 16 15  1  0  0  0  0
 16 17  1  1  0  0  0
 18 22  2  0  0  0  0
 19 15  1  0  0  0  0
 20 14  1  6  0  0  0
 20 18  1  0  0  0  0
 20 19  1  0  0  0  0
 22 16  1  0  0  0  0
 23  1  1  0  0  0  0
 23 24  1  0  0  0  0
 24 25  1  0  0  0  0
 25 27  1  0  0  0  0
 26 25  1  0  0  0  0
 27 29  1  0  0  0  0
 29 28  1  0  0  0  0
 30 29  2  0  0  0  0
 31 28  1  1  0  0  0
 31 35  1  0  0  0  0
 33 31  1  0  0  0  0
 33 34  1  0  0  0  0
 34 36  1  0  0  0  0
 35 37  1  0  0  0  0
 35 32  2  0  0  0  0
 36 32  1  0  0  0  0
 37 38  1  0  0  0  0
 38 42  1  0  0  0  0
 39 40  1  0  0  0  0
 41 39  2  0  0  0  0
 42 40  2  0  0  0  0
 43 38  2  0  0  0  0
 43 41  1  0  0  0  0
M  END
>  <MODEL>
1

>  <REMARK>
 VINA RESULT:      -8.4      0.000      0.000
  Name = 
  11 active torsions:
  status: ('A' for Active; 'I' for Inactive)
    1  A    between atoms: C_1  and  C_34
    2  A    between atoms: C_1  and  C_35
    3  A    between atoms: N_2  and  C_6
    4  A    between atoms: N_2  and  C_13
    5  A    between atoms: N_3  and  C_4
    6  A    between atoms: C_6  and  C_12
    7  A    between atoms: N_8  and  C_27
    8  A    between atoms: N_8  and  C_30
    9  A    between atoms: C_11  and  C_14
   10  A    between atoms: C_13  and  C_27
   11  A    between atoms: C_14  and  C_41
                            x       y       z     vdW  Elec       q    Type
                         _______ _______ _______ _____ _____    ______ ____

>  <TORSDO>
F 11

$$$$
=
 OpenBabel10272414413D

 43 47  0  0  1  0  0  0  0  0999 V2000
  187.6500  175.8570  136.3380 N   0  0  0  0  0  0  0  0  0  0  0  0
  187.0260  177.1540  136.3410 C   0  0  0  0  0  0  0  0  0  0  0  0
  187.7340  178.1930  136.4350 O   0  0  0  0  0  0  0  0  0  0  0  0
  184.1380  171.8490  136.7750 C   0  0  0  0  0  0  0  0  0  0  0  0
  186.0120  172.6660  135.5210 C   0  0  0  0  0  0  0  0  0  0  0  0
  184.1850  173.1130  137.5570 C   0  0  0  0  0  3  0  0  0  0  0  0
  183.0620  170.8600  137.0430 C   0  0  0  0  0  1  0  0  0  0  0  0
  186.4240  173.5830  136.6200 C   0  0  2  0  0  3  0  0  0  0  0  0
  184.9780  171.6520  135.7510 C   0  0  0  0  0  3  0  0  0  0  0  0
  185.2210  173.9610  137.4440 C   0  0  0  0  0  3  0  0  0  0  0  0
  186.9960  174.6900  135.8060 C   0  0  0  0  0  0  0  0  0  0  0  0
  187.0010  174.3390  134.5230 C   0  0  0  0  0  3  0  0  0  0  0  0
  186.3410  173.0890  134.3470 N   0  0  0  0  0  0  0  0  0  0  0  0
  185.5350  177.2960  136.3480 C   0  0  0  0  0  2  0  0  0  0  0  0
  182.9700  176.8550  139.1620 C   0  0  0  0  0  0  0  0  0  0  0  0
  183.5270  177.8120  140.1980 C   0  0  2  0  0  3  0  0  0  0  0  0
  182.4170  178.6180  140.8480 C   0  0  0  0  0  1  0  0  0  0  0  0
  185.2230  178.4850  138.4940 C   0  0  0  0  0  3  0  0  0  0  0  0
  183.5010  176.8580  137.7580 C   0  0  0  0  0  2  0  0  0  0  0  0
  184.9940  177.1920  137.7650 C   0  0  1  0  0  3  0  0  0  0  0  0
  182.1290  175.8890  139.5260 C   0  0  0  0  0  2  0  0  0  0  0  0
  184.5440  178.7640  139.6150 C   0  0  0  0  0  3  0  0  0  0  0  0
  188.9610  175.7020  136.9590 C   0  0  0  0  0  2  0  0  0  0  0  0
  188.9010  176.1420  138.4260 C   0  0  0  0  0  2  0  0  0  0  0  0
  190.0060  177.0220  138.8200 N   0  0  0  0  0  0  0  0  0  0  0  0
  191.2590  176.5080  138.2870 C   0  0  0  0  0  1  0  0  0  0  0  0
  190.1080  177.0510  140.2740 C   0  0  0  0  0  2  0  0  0  0  0  0
  189.1780  178.3330  142.2650 N   0  0  0  0  0  2  0  0  0  0  0  0
  189.2190  178.1080  140.8550 C   0  0  0  0  0  0  0  0  0  0  0  0
  188.4670  178.7810  140.1030 O   0  0  0  0  0  0  0  0  0  0  0  0
  189.8630  177.4700  143.2180 C   0  0  1  0  0  3  0  0  0  0  0  0
  189.3650  177.2160  145.6360 C   0  0  0  0  0  3  0  0  0  0  0  0
  191.1250  178.1780  143.7310 C   0  0  0  0  0  2  0  0  0  0  0  0
  191.6160  177.5170  144.8730 O   0  0  0  0  0  0  0  0  0  0  0  0
  188.9390  177.1120  144.3670 C   0  0  0  0  0  0  0  0  0  0  0  0
  190.7180  177.8200  145.9150 C   0  0  0  0  0  2  0  0  0  0  0  0
  187.6000  176.5000  144.0950 C   0  0  0  0  0  2  0  0  0  0  0  0
  186.4950  177.4710  144.3430 C   0  0  0  0  0  0  0  0  0  0  0  0
  184.4840  179.3290  144.7940 C   0  0  0  0  0  3  0  0  0  0  0  0
  184.8960  179.0130  143.4980 C   0  0  0  0  0  3  0  0  0  0  0  0
  185.0970  178.6940  145.8760 C   0  0  0  0  0  3  0  0  0  0  0  0
  185.8850  178.0990  143.3010 N   0  0  0  0  0  0  0  0  0  0  0  0
  186.1100  177.7600  145.6530 C   0  0  0  0  0  3  0  0  0  0  0  0
  1  2  1  0  0  0  0
  1 23  1  0  0  0  0
  2 14  1  0  0  0  0
  2  3  2  0  0  0  0
  4  7  1  0  0  0  0
  4  6  1  0  0  0  0
  5  9  1  0  0  0  0
  5  8  1  0  0  0  0
  8 10  1  6  0  0  0
  9  4  2  0  0  0  0
 10  6  2  0  0  0  0
 11  1  1  0  0  0  0
 11  8  1  0  0  0  0
 12 11  2  0  0  0  0
 13 12  1  0  0  0  0
 13  5  2  0  0  0  0
 15 21  2  0  0  0  0
 15 16  1  0  0  0  0
 16 17  1  6  0  0  0
 18 22  2  0  0  0  0
 19 20  1  0  0  0  0
 19 15  1  0  0  0  0
 20 14  1  6  0  0  0
 20 18  1  0  0  0  0
 22 16  1  0  0  0  0
 23 24  1  0  0  0  0
 24 25  1  0  0  0  0
 25 27  1  0  0  0  0
 26 25  1  0  0  0  0
 27 29  1  0  0  0  0
 29 28  1  0  0  0  0
 30 29  2  0  0  0  0
 31 28  1  6  0  0  0
 31 33  1  0  0  0  0
 31 35  1  0  0  0  0
 32 36  1  0  0  0  0
 33 34  1  0  0  0  0
 34 36  1  0  0  0  0
 35 32  2  0  0  0  0
 37 38  1  0  0  0  0
 37 35  1  0  0  0  0
 38 43  1  0  0  0  0
 39 41  1  0  0  0  0
 40 39  2  0  0  0  0
 42 40  1  0  0  0  0
 42 38  2  0  0  0  0
 43 41  2  0  0  0  0
M  END
>  <MODEL>
2

>  <REMARK>
 VINA RESULT:      -8.3      1.894      2.825
  Name = 
  11 active torsions:
  status: ('A' for Active; 'I' for Inactive)
    1  A    between atoms: C_1  and  C_34
    2  A    between atoms: C_1  and  C_35
    3  A    between atoms: N_2  and  C_6
    4  A    between atoms: N_2  and  C_13
    5  A    between atoms: N_3  and  C_4
    6  A    between atoms: C_6  and  C_12
    7  A    between atoms: N_8  and  C_27
    8  A    between atoms: N_8  and  C_30
    9  A    between atoms: C_11  and  C_14
   10  A    between atoms: C_13  and  C_27
   11  A    between atoms: C_14  and  C_41
                            x       y       z     vdW  Elec       q    Type
                         _______ _______ _______ _____ _____    ______ ____

>  <TORSDO>
F 11

$$$$
=
 OpenBabel10272414413D

 43 47  0  0  1  0  0  0  0  0999 V2000
  189.2970  177.3230  138.0630 N   0  0  0  0  0  0  0  0  0  0  0  0
  189.0190  177.6300  139.4410 C   0  0  0  0  0  0  0  0  0  0  0  0
  188.1810  178.5270  139.7290 O   0  0  0  0  0  0  0  0  0  0  0  0
  193.5340  174.2220  137.0520 C   0  0  0  0  0  0  0  0  0  0  0  0
  191.1650  174.4400  136.7480 C   0  0  0  0  0  0  0  0  0  0  0  0
  193.4850  175.4670  137.8630 C   0  0  0  0  0  3  0  0  0  0  0  0
  194.8200  173.4930  136.9020 C   0  0  0  0  0  1  0  0  0  0  0  0
  191.2050  175.9050  137.0120 C   0  0  2  0  0  3  0  0  0  0  0  0
  192.4090  173.6870  136.5600 C   0  0  0  0  0  3  0  0  0  0  0  0
  192.3780  176.2280  137.9000 C   0  0  0  0  0  3  0  0  0  0  0  0
  189.8720  176.0680  137.6560 C   0  0  0  0  0  0  0  0  0  0  0  0
  189.2110  174.9140  137.6020 C   0  0  0  0  0  3  0  0  0  0  0  0
  190.0440  173.8880  137.0730 N   0  0  0  0  0  0  0  0  0  0  0  0
  189.7870  176.9810  140.5500 C   0  0  0  0  0  2  0  0  0  0  0  0
  190.4470  178.5020  144.0070 C   0  0  0  0  0  0  0  0  0  0  0  0
  189.1830  178.0910  144.7370 C   0  0  2  0  0  3  0  0  0  0  0  0
  189.4980  177.6060  146.1410 C   0  0  0  0  0  1  0  0  0  0  0  0
  188.5580  176.8070  142.6890 C   0  0  0  0  0  3  0  0  0  0  0  0
  190.7760  177.9180  142.6630 C   0  0  0  0  0  2  0  0  0  0  0  0
  189.4880  177.6610  141.8770 C   0  0  1  0  0  3  0  0  0  0  0  0
  191.1900  179.5070  144.4670 C   0  0  0  0  0  2  0  0  0  0  0  0
  188.4210  177.0100  144.0070 C   0  0  0  0  0  3  0  0  0  0  0  0
  189.0550  178.3430  137.0490 C   0  0  0  0  0  2  0  0  0  0  0  0
  187.5760  178.3440  136.6460 C   0  0  0  0  0  2  0  0  0  0  0  0
  187.1970  177.1990  135.8120 N   0  0  0  0  0  0  0  0  0  0  0  0
  187.7110  177.3800  134.4620 C   0  0  0  0  0  1  0  0  0  0  0  0
  185.7430  177.1160  135.7370 C   0  0  0  0  0  2  0  0  0  0  0  0
  184.0920  176.8040  137.6460 N   0  0  0  0  0  2  0  0  0  0  0  0
  185.1900  176.3150  136.8750 C   0  0  0  0  0  0  0  0  0  0  0  0
  185.7210  175.2170  137.1890 O   0  0  0  0  0  0  0  0  0  0  0  0
  183.5500  178.1460  137.4790 C   0  0  1  0  0  3  0  0  0  0  0  0
  182.4610  179.5490  139.2110 C   0  0  0  0  0  3  0  0  0  0  0  0
  182.1270  178.0540  136.9090 C   0  0  0  0  0  2  0  0  0  0  0  0
  181.4750  179.2930  137.0430 O   0  0  0  0  0  0  0  0  0  0  0  0
  183.5560  178.8880  138.8020 C   0  0  0  0  0  0  0  0  0  0  0  0
  181.1870  179.4350  138.4150 C   0  0  0  0  0  2  0  0  0  0  0  0
  184.8220  179.0150  139.5900 C   0  0  0  0  0  2  0  0  0  0  0  0
  184.5670  178.9070  141.0560 C   0  0  0  0  0  0  0  0  0  0  0  0
  184.0640  178.7670  143.7810 C   0  0  0  0  0  3  0  0  0  0  0  0
  183.0610  178.4980  142.8480 C   0  0  0  0  0  3  0  0  0  0  0  0
  185.3390  179.1110  143.3280 C   0  0  0  0  0  3  0  0  0  0  0  0
  183.3310  178.5730  141.5160 N   0  0  0  0  0  0  0  0  0  0  0  0
  185.5960  179.1830  141.9590 C   0  0  0  0  0  3  0  0  0  0  0  0
  1  2  1  0  0  0  0
  2  3  2  0  0  0  0
  2 14  1  0  0  0  0
  4  6  1  0  0  0  0
  5  8  1  0  0  0  0
  5 13  2  0  0  0  0
  6 10  2  0  0  0  0
  7  4  1  0  0  0  0
  8 11  1  0  0  0  0
  8 10  1  1  0  0  0
  9  5  1  0  0  0  0
  9  4  2  0  0  0  0
 11  1  1  0  0  0  0
 12 11  2  0  0  0  0
 13 12  1  0  0  0  0
 15 21  2  0  0  0  0
 15 16  1  0  0  0  0
 16 17  1  1  0  0  0
 18 22  2  0  0  0  0
 19 15  1  0  0  0  0
 20 14  1  6  0  0  0
 20 19  1  0  0  0  0
 20 18  1  0  0  0  0
 22 16  1  0  0  0  0
 23  1  1  0  0  0  0
 24 23  1  0  0  0  0
 25 24  1  0  0  0  0
 26 25  1  0  0  0  0
 27 25  1  0  0  0  0
 27 29  1  0  0  0  0
 29 30  2  0  0  0  0
 29 28  1  0  0  0  0
 31 28  1  1  0  0  0
 31 35  1  0  0  0  0
 33 34  1  0  0  0  0
 33 31  1  0  0  0  0
 34 36  1  0  0  0  0
 35 32  2  0  0  0  0
 35 37  1  0  0  0  0
 36 32  1  0  0  0  0
 37 38  1  0  0  0  0
 38 42  2  0  0  0  0
 38 43  1  0  0  0  0
 40 39  2  0  0  0  0
 41 39  1  0  0  0  0
 42 40  1  0  0  0  0
 43 41  2  0  0  0  0
M  END
>  <MODEL>
3

>  <REMARK>
 VINA RESULT:      -8.0      2.945      7.261
  Name = 
  11 active torsions:
  status: ('A' for Active; 'I' for Inactive)
    1  A    between atoms: C_1  and  C_34
    2  A    between atoms: C_1  and  C_35
    3  A    between atoms: N_2  and  C_6
    4  A    between atoms: N_2  and  C_13
    5  A    between atoms: N_3  and  C_4
    6  A    between atoms: C_6  and  C_12
    7  A    between atoms: N_8  and  C_27
    8  A    between atoms: N_8  and  C_30
    9  A    between atoms: C_11  and  C_14
   10  A    between atoms: C_13  and  C_27
   11  A    between atoms: C_14  and  C_41
                            x       y       z     vdW  Elec       q    Type
                         _______ _______ _______ _____ _____    ______ ____

>  <TORSDO>
F 11

$$$$
=
 OpenBabel10272414413D

 43 47  0  0  1  0  0  0  0  0999 V2000
  184.1980  178.8720  140.3760 N   0  0  0  0  0  0  0  0  0  0  0  0
  184.9730  178.9990  141.5830 C   0  0  0  0  0  0  0  0  0  0  0  0
  185.9140  179.8360  141.6420 O   0  0  0  0  0  0  0  0  0  0  0  0
  180.7620  175.0800  138.8260 C   0  0  0  0  0  0  0  0  0  0  0  0
  180.9400  177.2690  139.7900 C   0  0  0  0  0  0  0  0  0  0  0  0
  182.2480  175.0170  138.8410 C   0  0  0  0  0  3  0  0  0  0  0  0
  179.9820  173.9020  138.3670 C   0  0  0  0  0  1  0  0  0  0  0  0
  182.3240  177.4510  139.2710 C   0  0  2  0  0  3  0  0  0  0  0  0
  180.1220  176.1400  139.3380 C   0  0  0  0  0  3  0  0  0  0  0  0
  182.9860  176.1070  139.1090 C   0  0  0  0  0  3  0  0  0  0  0  0
  182.8810  178.2930  140.3650 C   0  0  0  0  0  0  0  0  0  0  0  0
  181.9110  178.6030  141.2220 C   0  0  0  0  0  3  0  0  0  0  0  0
  180.7090  177.9210  140.8800 N   0  0  0  0  0  0  0  0  0  0  0  0
  184.7580  178.0760  142.7420 C   0  0  0  0  0  2  0  0  0  0  0  0
  187.6140  177.5770  145.2510 C   0  0  0  0  0  0  0  0  0  0  0  0
  187.0610  178.3200  146.4510 C   0  0  2  0  0  3  0  0  0  0  0  0
  187.3130  177.5470  147.7340 C   0  0  0  0  0  1  0  0  0  0  0  0
  184.9570  178.6320  145.1440 C   0  0  0  0  0  3  0  0  0  0  0  0
  186.7350  177.2740  144.0720 C   0  0  0  0  0  2  0  0  0  0  0  0
  185.7220  178.4030  143.8720 C   0  0  1  0  0  3  0  0  0  0  0  0
  188.9200  177.3360  145.1540 C   0  0  0  0  0  2  0  0  0  0  0  0
  185.5800  178.5930  146.3290 C   0  0  0  0  0  3  0  0  0  0  0  0
  184.7950  179.2770  139.1080 C   0  0  0  0  0  2  0  0  0  0  0  0
  185.9210  178.3100  138.7260 C   0  0  0  0  0  2  0  0  0  0  0  0
  186.3750  178.4580  137.3390 N   0  0  0  0  0  0  0  0  0  0  0  0
  185.6460  177.5360  136.4800 C   0  0  0  0  0  1  0  0  0  0  0  0
  187.7940  178.1310  137.2570 C   0  0  0  0  0  2  0  0  0  0  0  0
  188.7700  176.3730  138.8140 N   0  0  0  0  0  2  0  0  0  0  0  0
  188.0380  176.7020  137.6320 C   0  0  0  0  0  0  0  0  0  0  0  0
  187.6330  175.7750  136.8830 O   0  0  0  0  0  0  0  0  0  0  0  0
  189.4420  177.3780  139.6280 C   0  0  1  0  0  3  0  0  0  0  0  0
  191.7080  177.2270  140.6270 C   0  0  0  0  0  3  0  0  0  0  0  0
  188.9800  177.2440  141.0860 C   0  0  0  0  0  2  0  0  0  0  0  0
  189.8400  177.9710  141.9300 O   0  0  0  0  0  0  0  0  0  0  0  0
  190.9480  177.2260  139.5210 C   0  0  0  0  0  0  0  0  0  0  0  0
  191.0450  177.2420  141.9810 C   0  0  0  0  0  2  0  0  0  0  0  0
  191.6120  177.2240  138.1790 C   0  0  0  0  0  2  0  0  0  0  0  0
  192.4080  175.9810  137.9650 C   0  0  0  0  0  0  0  0  0  0  0  0
  193.9110  173.6940  137.5080 C   0  0  0  0  0  3  0  0  0  0  0  0
  194.5100  174.8710  137.9590 C   0  0  0  0  0  3  0  0  0  0  0  0
  192.5320  173.6740  137.2860 C   0  0  0  0  0  3  0  0  0  0  0  0
  193.7530  175.9810  138.1770 N   0  0  0  0  0  0  0  0  0  0  0  0
  191.7740  174.8230  137.5140 C   0  0  0  0  0  3  0  0  0  0  0  0
  1  2  1  0  0  0  0
  2  3  2  0  0  0  0
  2 14  1  0  0  0  0
  4  6  1  0  0  0  0
  4  9  2  0  0  0  0
  5 13  2  0  0  0  0
  6 10  2  0  0  0  0
  7  4  1  0  0  0  0
  8 10  1  1  0  0  0
  8  5  1  0  0  0  0
  8 11  1  0  0  0  0
  9  5  1  0  0  0  0
 11  1  1  0  0  0  0
 11 12  2  0  0  0  0
 13 12  1  0  0  0  0
 15 16  1  0  0  0  0
 16 17  1  1  0  0  0
 18 22  2  0  0  0  0
 19 15  1  0  0  0  0
 20 14  1  6  0  0  0
 20 19  1  0  0  0  0
 20 18  1  0  0  0  0
 21 15  2  0  0  0  0
 22 16  1  0  0  0  0
 23  1  1  0  0  0  0
 24 23  1  0  0  0  0
 25 24  1  0  0  0  0
 26 25  1  0  0  0  0
 27 25  1  0  0  0  0
 27 29  1  0  0  0  0
 29 28  1  0  0  0  0
 30 29  2  0  0  0  0
 31 28  1  6  0  0  0
 31 33  1  0  0  0  0
 32 36  1  0  0  0  0
 33 34  1  0  0  0  0
 34 36  1  0  0  0  0
 35 31  1  0  0  0  0
 35 32  2  0  0  0  0
 37 35  1  0  0  0  0
 38 42  1  0  0  0  0
 38 37  1  0  0  0  0
 39 40  1  0  0  0  0
 40 42  2  0  0  0  0
 41 39  2  0  0  0  0
 41 43  1  0  0  0  0
 43 38  2  0  0  0  0
M  END
>  <MODEL>
4

>  <REMARK>
 VINA RESULT:      -8.0      2.948      6.267
  Name = 
  11 active torsions:
  status: ('A' for Active; 'I' for Inactive)
    1  A    between atoms: C_1  and  C_34
    2  A    between atoms: C_1  and  C_35
    3  A    between atoms: N_2  and  C_6
    4  A    between atoms: N_2  and  C_13
    5  A    between atoms: N_3  and  C_4
    6  A    between atoms: C_6  and  C_12
    7  A    between atoms: N_8  and  C_27
    8  A    between atoms: N_8  and  C_30
    9  A    between atoms: C_11  and  C_14
   10  A    between atoms: C_13  and  C_27
   11  A    between atoms: C_14  and  C_41
                            x       y       z     vdW  Elec       q    Type
                         _______ _______ _______ _____ _____    ______ ____

>  <TORSDO>
F 11

$$$$
=
 OpenBabel10272414413D

 43 47  0  0  1  0  0  0  0  0999 V2000
  184.0210  178.6990  139.9990 N   0  0  0  0  0  0  0  0  0  0  0  0
  184.7410  178.9300  141.2230 C   0  0  0  0  0  0  0  0  0  0  0  0
  185.6620  179.7900  141.2590 O   0  0  0  0  0  0  0  0  0  0  0  0
  180.7220  174.7410  138.5680 C   0  0  0  0  0  0  0  0  0  0  0  0
  180.8200  176.9890  139.3970 C   0  0  0  0  0  0  0  0  0  0  0  0
  182.2070  174.7130  138.6410 C   0  0  0  0  0  3  0  0  0  0  0  0
  179.9840  173.5190  138.1560 C   0  0  0  0  0  1  0  0  0  0  0  0
  182.2180  177.1690  138.9180 C   0  0  2  0  0  3  0  0  0  0  0  0
  180.0420  175.8160  138.9880 C   0  0  0  0  0  3  0  0  0  0  0  0
  182.9130  175.8330  138.8660 C   0  0  0  0  0  3  0  0  0  0  0  0
  182.7160  178.0910  139.9770 C   0  0  0  0  0  0  0  0  0  0  0  0
  181.7090  178.4310  140.7760 C   0  0  0  0  0  3  0  0  0  0  0  0
  180.5340  177.7020  140.4340 N   0  0  0  0  0  0  0  0  0  0  0  0
  184.4950  178.0890  142.4380 C   0  0  0  0  0  2  0  0  0  0  0  0
  187.4080  177.6400  144.8900 C   0  0  0  0  0  0  0  0  0  0  0  0
  186.8810  178.4050  146.0880 C   0  0  2  0  0  3  0  0  0  0  0  0
  187.1640  177.6570  147.3790 C   0  0  0  0  0  1  0  0  0  0  0  0
  184.7480  178.6900  144.8230 C   0  0  0  0  0  3  0  0  0  0  0  0
  186.5030  177.3150  143.7360 C   0  0  0  0  0  2  0  0  0  0  0  0
  185.4840  178.4390  143.5390 C   0  0  1  0  0  3  0  0  0  0  0  0
  188.7120  177.3990  144.7680 C   0  0  0  0  0  2  0  0  0  0  0  0
  185.3980  178.6740  145.9950 C   0  0  0  0  0  3  0  0  0  0  0  0
  184.6620  179.0240  138.7300 C   0  0  0  0  0  2  0  0  0  0  0  0
  185.7610  178.0000  138.4200 C   0  0  0  0  0  2  0  0  0  0  0  0
  185.9590  177.7690  136.9850 N   0  0  0  0  0  0  0  0  0  0  0  0
  184.6960  177.3900  136.3680 C   0  0  0  0  0  1  0  0  0  0  0  0
  186.9030  176.6750  136.7970 C   0  0  0  0  0  2  0  0  0  0  0  0
  188.9550  176.1410  135.3900 N   0  0  0  0  0  2  0  0  0  0  0  0
  187.7730  176.9150  135.6010 C   0  0  0  0  0  0  0  0  0  0  0  0
  187.4870  177.8340  134.7890 O   0  0  0  0  0  0  0  0  0  0  0  0
  189.4620  175.1980  136.3780 C   0  0  1  0  0  3  0  0  0  0  0  0
  191.8380  174.6900  136.8820 C   0  0  0  0  0  3  0  0  0  0  0  0
  189.4700  173.7850  135.7760 C   0  0  0  0  0  2  0  0  0  0  0  0
  190.2450  172.9260  136.5770 O   0  0  0  0  0  0  0  0  0  0  0  0
  190.8530  175.6010  136.8290 C   0  0  0  0  0  0  0  0  0  0  0  0
  191.5870  173.2980  136.3610 C   0  0  0  0  0  2  0  0  0  0  0  0
  191.1040  176.9790  137.3600 C   0  0  0  0  0  2  0  0  0  0  0  0
  190.4030  177.2010  138.6570 C   0  0  0  0  0  0  0  0  0  0  0  0
  189.0560  177.5610  141.0560 C   0  0  0  0  0  3  0  0  0  0  0  0
  190.0360  176.5760  140.9210 C   0  0  0  0  0  3  0  0  0  0  0  0
  188.7540  178.3750  139.9630 C   0  0  0  0  0  3  0  0  0  0  0  0
  190.6830  176.4170  139.7340 N   0  0  0  0  0  0  0  0  0  0  0  0
  189.4290  178.1960  138.7550 C   0  0  0  0  0  3  0  0  0  0  0  0
  1  2  1  0  0  0  0
  2  3  2  0  0  0  0
  2 14  1  0  0  0  0
  4  6  1  0  0  0  0
  4  9  2  0  0  0  0
  5 13  2  0  0  0  0
  6 10  2  0  0  0  0
  7  4  1  0  0  0  0
  8 10  1  1  0  0  0
  8  5  1  0  0  0  0
  8 11  1  0  0  0  0
  9  5  1  0  0  0  0
 11  1  1  0  0  0  0
 11 12  2  0  0  0  0
 13 12  1  0  0  0  0
 15 16  1  0  0  0  0
 16 17  1  1  0  0  0
 18 22  2  0  0  0  0
 19 15  1  0  0  0  0
 20 14  1  6  0  0  0
 20 19  1  0  0  0  0
 20 18  1  0  0  0  0
 21 15  2  0  0  0  0
 22 16  1  0  0  0  0
 23  1  1  0  0  0  0
 24 23  1  0  0  0  0
 25 24  1  0  0  0  0
 26 25  1  0  0  0  0
 27 25  1  0  0  0  0
 28 29  1  0  0  0  0
 29 27  1  0  0  0  0
 30 29  2  0  0  0  0
 31 28  1  6  0  0  0
 31 35  1  0  0  0  0
 33 31  1  0  0  0  0
 33 34  1  0  0  0  0
 35 32  2  0  0  0  0
 35 37  1  0  0  0  0
 36 34  1  0  0  0  0
 36 32  1  0  0  0  0
 37 38  1  0  0  0  0
 38 43  2  0  0  0  0
 38 42  1  0  0  0  0
 40 39  1  0  0  0  0
 41 39  2  0  0  0  0
 42 40  2  0  0  0  0
 43 41  1  0  0  0  0
M  END
>  <MODEL>
5

>  <REMARK>
 VINA RESULT:      -7.9      2.900      5.977
  Name = 
  11 active torsions:
  status: ('A' for Active; 'I' for Inactive)
    1  A    between atoms: C_1  and  C_34
    2  A    between atoms: C_1  and  C_35
    3  A    between atoms: N_2  and  C_6
    4  A    between atoms: N_2  and  C_13
    5  A    between atoms: N_3  and  C_4
    6  A    between atoms: C_6  and  C_12
    7  A    between atoms: N_8  and  C_27
    8  A    between atoms: N_8  and  C_30
    9  A    between atoms: C_11  and  C_14
   10  A    between atoms: C_13  and  C_27
   11  A    between atoms: C_14  and  C_41
                            x       y       z     vdW  Elec       q    Type
                         _______ _______ _______ _____ _____    ______ ____

>  <TORSDO>
F 11

$$$$
=
 OpenBabel10272414413D

 43 47  0  0  1  0  0  0  0  0999 V2000
  189.7800  177.4860  140.3830 N   0  0  0  0  0  0  0  0  0  0  0  0
  189.4260  177.1290  141.7310 C   0  0  0  0  0  0  0  0  0  0  0  0
  188.2120  177.0250  142.0570 O   0  0  0  0  0  0  0  0  0  0  0  0
  192.8820  175.7220  136.4000 C   0  0  0  0  0  0  0  0  0  0  0  0
  192.8390  176.2840  138.7310 C   0  0  0  0  0  0  0  0  0  0  0  0
  191.4680  176.1760  136.3260 C   0  0  0  0  0  3  0  0  0  0  0  0
  193.5760  175.2780  135.1640 C   0  0  0  0  0  1  0  0  0  0  0  0
  191.3560  176.1630  138.7960 C   0  0  2  0  0  3  0  0  0  0  0  0
  193.5690  175.8270  137.5450 C   0  0  0  0  0  3  0  0  0  0  0  0
  190.7650  176.4450  137.4390 C   0  0  0  0  0  3  0  0  0  0  0  0
  191.0770  177.2000  139.8270 C   0  0  0  0  0  0  0  0  0  0  0  0
  192.2250  177.6700  140.3050 C   0  0  0  0  0  3  0  0  0  0  0  0
  193.3250  177.1250  139.5820 N   0  0  0  0  0  0  0  0  0  0  0  0
  190.4710  176.9830  142.7940 C   0  0  0  0  0  2  0  0  0  0  0  0
  188.2270  177.6450  145.8320 C   0  0  0  0  0  0  0  0  0  0  0  0
  189.1050  177.1100  146.9460 C   0  0  2  0  0  3  0  0  0  0  0  0
  189.0810  178.0350  148.1500 C   0  0  0  0  0  1  0  0  0  0  0  0
  190.8750  176.7510  145.2230 C   0  0  0  0  0  3  0  0  0  0  0  0
  188.7820  177.8360  144.4500 C   0  0  0  0  0  2  0  0  0  0  0  0
  189.8240  176.7550  144.1510 C   0  0  1  0  0  3  0  0  0  0  0  0
  186.9170  177.7900  146.0200 C   0  0  0  0  0  2  0  0  0  0  0  0
  190.5370  176.9150  146.5100 C   0  0  0  0  0  3  0  0  0  0  0  0
  188.8200  178.2270  139.5730 C   0  0  0  0  0  2  0  0  0  0  0  0
  187.7630  177.2720  139.0070 C   0  0  0  0  0  2  0  0  0  0  0  0
  187.2010  177.7120  137.7260 N   0  0  0  0  0  0  0  0  0  0  0  0
  188.0290  178.7690  137.1620 C   0  0  0  0  0  1  0  0  0  0  0  0
  185.8630  178.2500  137.9430 C   0  0  0  0  0  2  0  0  0  0  0  0
  183.4270  177.5530  137.7170 N   0  0  0  0  0  2  0  0  0  0  0  0
  184.8140  177.2660  137.5280 C   0  0  0  0  0  0  0  0  0  0  0  0
  185.1500  176.1530  137.0440 O   0  0  0  0  0  0  0  0  0  0  0  0
  182.9600  178.7240  138.4470 C   0  0  1  0  0  3  0  0  0  0  0  0
  181.1040  178.8240  140.0900 C   0  0  0  0  0  3  0  0  0  0  0  0
  181.9890  179.5210  137.5650 C   0  0  0  0  0  2  0  0  0  0  0  0
  181.2870  180.4570  138.3470 O   0  0  0  0  0  0  0  0  0  0  0  0
  182.2940  178.3090  139.7460 C   0  0  0  0  0  0  0  0  0  0  0  0
  180.3720  179.7120  139.1170 C   0  0  0  0  0  2  0  0  0  0  0  0
  183.0230  177.4370  140.7210 C   0  0  0  0  0  2  0  0  0  0  0  0
  183.7170  178.2470  141.7650 C   0  0  0  0  0  0  0  0  0  0  0  0
  185.0460  179.6980  143.7200 C   0  0  0  0  0  3  0  0  0  0  0  0
  185.6160  179.4950  142.4620 C   0  0  0  0  0  3  0  0  0  0  0  0
  183.7860  179.1610  143.9920 C   0  0  0  0  0  3  0  0  0  0  0  0
  184.9450  178.7790  141.5180 N   0  0  0  0  0  0  0  0  0  0  0  0
  183.1150  178.4290  143.0110 C   0  0  0  0  0  3  0  0  0  0  0  0
  1  2  1  0  0  0  0
  2  3  2  0  0  0  0
  2 14  1  0  0  0  0
  4  9  2  0  0  0  0
  5  8  1  0  0  0  0
  5 13  2  0  0  0  0
  6  4  1  0  0  0  0
  6 10  2  0  0  0  0
  7  4  1  0  0  0  0
  8 10  1  6  0  0  0
  8 11  1  0  0  0  0
  9  5  1  0  0  0  0
 11 12  2  0  0  0  0
 11  1  1  0  0  0  0
 13 12  1  0  0  0  0
 15 21  2  0  0  0  0
 15 16  1  0  0  0  0
 16 17  1  1  0  0  0
 18 22  2  0  0  0  0
 19 15  1  0  0  0  0
 20 14  1  6  0  0  0
 20 19  1  0  0  0  0
 20 18  1  0  0  0  0
 22 16  1  0  0  0  0
 23  1  1  0  0  0  0
 24 23  1  0  0  0  0
 25 27  1  0  0  0  0
 25 24  1  0  0  0  0
 26 25  1  0  0  0  0
 29 28  1  0  0  0  0
 29 27  1  0  0  0  0
 30 29  2  0  0  0  0
 31 28  1  6  0  0  0
 31 35  1  0  0  0  0
 33 34  1  0  0  0  0
 33 31  1  0  0  0  0
 34 36  1  0  0  0  0
 35 32  2  0  0  0  0
 35 37  1  0  0  0  0
 36 32  1  0  0  0  0
 37 38  1  0  0  0  0
 38 43  1  0  0  0  0
 39 41  1  0  0  0  0
 40 39  2  0  0  0  0
 42 38  2  0  0  0  0
 42 40  1  0  0  0  0
 43 41  2  0  0  0  0
M  END
>  <MODEL>
6

>  <REMARK>
 VINA RESULT:      -7.9      2.678      7.718
  Name = 
  11 active torsions:
  status: ('A' for Active; 'I' for Inactive)
    1  A    between atoms: C_1  and  C_34
    2  A    between atoms: C_1  and  C_35
    3  A    between atoms: N_2  and  C_6
    4  A    between atoms: N_2  and  C_13
    5  A    between atoms: N_3  and  C_4
    6  A    between atoms: C_6  and  C_12
    7  A    between atoms: N_8  and  C_27
    8  A    between atoms: N_8  and  C_30
    9  A    between atoms: C_11  and  C_14
   10  A    between atoms: C_13  and  C_27
   11  A    between atoms: C_14  and  C_41
                            x       y       z     vdW  Elec       q    Type
                         _______ _______ _______ _____ _____    ______ ____

>  <TORSDO>
F 11

$$$$
=
 OpenBabel10272414413D

 43 47  0  0  1  0  0  0  0  0999 V2000
  189.6500  177.4610  138.2200 N   0  0  0  0  0  0  0  0  0  0  0  0
  189.1230  178.4110  137.2750 C   0  0  0  0  0  0  0  0  0  0  0  0
  188.9960  179.6220  137.6040 O   0  0  0  0  0  0  0  0  0  0  0  0
  193.8910  174.3440  137.2800 C   0  0  0  0  0  0  0  0  0  0  0  0
  191.5340  174.5850  136.9140 C   0  0  0  0  0  0  0  0  0  0  0  0
  193.8290  175.5780  138.1080 C   0  0  0  0  0  3  0  0  0  0  0  0
  195.1760  173.6080  137.1550 C   0  0  0  0  0  1  0  0  0  0  0  0
  191.5770  176.0450  137.2010 C   0  0  2  0  0  3  0  0  0  0  0  0
  192.7770  173.8250  136.7490 C   0  0  0  0  0  3  0  0  0  0  0  0
  192.7270  176.3460  138.1260 C   0  0  0  0  0  3  0  0  0  0  0  0
  190.2270  176.2080  137.8100 C   0  0  0  0  0  0  0  0  0  0  0  0
  189.5600  175.0610  137.7200 C   0  0  0  0  0  3  0  0  0  0  0  0
  190.4010  174.0360  137.1990 N   0  0  0  0  0  0  0  0  0  0  0  0
  188.6140  177.9720  135.9370 C   0  0  0  0  0  2  0  0  0  0  0  0
  184.9780  177.2450  136.9100 C   0  0  0  0  0  0  0  0  0  0  0  0
  184.3170  177.2660  135.5460 C   0  0  2  0  0  3  0  0  0  0  0  0
  183.3180  176.1310  135.4090 C   0  0  0  0  0  1  0  0  0  0  0  0
  186.5990  177.5330  134.5720 C   0  0  0  0  0  3  0  0  0  0  0  0
  186.4740  177.2350  137.0310 C   0  0  0  0  0  2  0  0  0  0  0  0
  187.0960  178.0470  135.8920 C   0  0  1  0  0  3  0  0  0  0  0  0
  184.2480  177.4080  138.0120 C   0  0  0  0  0  2  0  0  0  0  0  0
  185.3170  177.1750  134.4180 C   0  0  0  0  0  3  0  0  0  0  0  0
  189.5310  177.7430  139.6460 C   0  0  0  0  0  2  0  0  0  0  0  0
  188.1870  178.4200  139.9370 C   0  0  0  0  0  2  0  0  0  0  0  0
  187.5030  177.8810  141.1170 N   0  0  0  0  0  0  0  0  0  0  0  0
  186.4240  178.7750  141.5130 C   0  0  0  0  0  1  0  0  0  0  0  0
  188.4480  177.7920  142.2240 C   0  0  0  0  0  2  0  0  0  0  0  0
  187.6670  176.5890  144.3260 N   0  0  0  0  0  2  0  0  0  0  0  0
  188.2320  176.5380  143.0150 C   0  0  0  0  0  0  0  0  0  0  0  0
  188.5880  175.4270  142.5420 O   0  0  0  0  0  0  0  0  0  0  0  0
  187.4120  177.8430  145.0230 C   0  0  1  0  0  3  0  0  0  0  0  0
  187.0530  178.1570  147.4570 C   0  0  0  0  0  3  0  0  0  0  0  0
  185.9170  178.1790  144.9360 C   0  0  0  0  0  2  0  0  0  0  0  0
  185.5980  179.1920  145.8600 O   0  0  0  0  0  0  0  0  0  0  0  0
  187.8620  177.7460  146.4690 C   0  0  0  0  0  0  0  0  0  0  0  0
  185.6460  178.5880  147.1320 C   0  0  0  0  0  2  0  0  0  0  0  0
  189.2630  177.3310  146.7960 C   0  0  0  0  0  2  0  0  0  0  0  0
  190.1940  177.6100  145.6650 C   0  0  0  0  0  0  0  0  0  0  0  0
  191.8730  178.1290  143.5180 C   0  0  0  0  0  3  0  0  0  0  0  0
  191.1100  179.1440  144.0970 C   0  0  0  0  0  3  0  0  0  0  0  0
  191.7860  176.8340  144.0340 C   0  0  0  0  0  3  0  0  0  0  0  0
  190.2930  178.8660  145.1500 N   0  0  0  0  0  0  0  0  0  0  0  0
  190.9420  176.5690  145.1130 C   0  0  0  0  0  3  0  0  0  0  0  0
  1 23  1  0  0  0  0
  2  3  2  0  0  0  0
  2  1  1  0  0  0  0
  4  6  1  0  0  0  0
  5 13  2  0  0  0  0
  5  8  1  0  0  0  0
  6 10  2  0  0  0  0
  7  4  1  0  0  0  0
  8 11  1  0  0  0  0
  8 10  1  1  0  0  0
  9  5  1  0  0  0  0
  9  4  2  0  0  0  0
 11  1  1  0  0  0  0
 12 11  2  0  0  0  0
 13 12  1  0  0  0  0
 14  2  1  0  0  0  0
 15 19  1  0  0  0  0
 15 21  2  0  0  0  0
 16 17  1  1  0  0  0
 16 15  1  0  0  0  0
 18 20  1  0  0  0  0
 20 14  1  6  0  0  0
 20 19  1  0  0  0  0
 22 18  2  0  0  0  0
 22 16  1  0  0  0  0
 23 24  1  0  0  0  0
 24 25  1  0  0  0  0
 25 26  1  0  0  0  0
 25 27  1  0  0  0  0
 27 29  1  0  0  0  0
 29 28  1  0  0  0  0
 30 29  2  0  0  0  0
 31 28  1  1  0  0  0
 31 35  1  0  0  0  0
 33 31  1  0  0  0  0
 33 34  1  0  0  0  0
 34 36  1  0  0  0  0
 35 37  1  0  0  0  0
 35 32  2  0  0  0  0
 36 32  1  0  0  0  0
 38 37  1  0  0  0  0
 39 41  2  0  0  0  0
 39 40  1  0  0  0  0
 40 42  2  0  0  0  0
 41 43  1  0  0  0  0
 42 38  1  0  0  0  0
 43 38  2  0  0  0  0
M  END
>  <MODEL>
7

>  <REMARK>
 VINA RESULT:      -7.8      3.040      6.257
  Name = 
  11 active torsions:
  status: ('A' for Active; 'I' for Inactive)
    1  A    between atoms: C_1  and  C_34
    2  A    between atoms: C_1  and  C_35
    3  A    between atoms: N_2  and  C_6
    4  A    between atoms: N_2  and  C_13
    5  A    between atoms: N_3  and  C_4
    6  A    between atoms: C_6  and  C_12
    7  A    between atoms: N_8  and  C_27
    8  A    between atoms: N_8  and  C_30
    9  A    between atoms: C_11  and  C_14
   10  A    between atoms: C_13  and  C_27
   11  A    between atoms: C_14  and  C_41
                            x       y       z     vdW  Elec       q    Type
                         _______ _______ _______ _____ _____    ______ ____

>  <TORSDO>
F 11

$$$$
=
 OpenBabel10272414413D

 43 47  0  0  1  0  0  0  0  0999 V2000
  189.2090  177.5480  141.5260 N   0  0  0  0  0  0  0  0  0  0  0  0
  190.4060  177.9690  142.2060 C   0  0  0  0  0  0  0  0  0  0  0  0
  191.5360  177.6860  141.7250 O   0  0  0  0  0  0  0  0  0  0  0  0
  184.9300  178.5200  144.5800 C   0  0  0  0  0  0  0  0  0  0  0  0
  185.8050  178.6690  142.3520 C   0  0  0  0  0  0  0  0  0  0  0  0
  186.2630  178.0180  145.0070 C   0  0  0  0  0  3  0  0  0  0  0  0
  183.8680  178.7390  145.5960 C   0  0  0  0  0  1  0  0  0  0  0  0
  186.8620  177.6590  142.6350 C   0  0  2  0  0  3  0  0  0  0  0  0
  184.7190  178.8930  143.3110 C   0  0  0  0  0  3  0  0  0  0  0  0
  187.1960  177.6720  144.1040 C   0  0  0  0  0  3  0  0  0  0  0  0
  187.9360  178.1820  141.7460 C   0  0  0  0  0  0  0  0  0  0  0  0
  187.4620  179.1980  141.0310 C   0  0  0  0  0  3  0  0  0  0  0  0
  186.1410  179.5260  141.4480 N   0  0  0  0  0  0  0  0  0  0  0  0
  190.3410  178.6460  143.5410 C   0  0  0  0  0  2  0  0  0  0  0  0
  190.1630  177.2670  147.1130 C   0  0  0  0  0  0  0  0  0  0  0  0
  191.1090  176.0870  147.0030 C   0  0  2  0  0  3  0  0  0  0  0  0
  192.0090  175.9950  148.2220 C   0  0  0  0  0  1  0  0  0  0  0  0
  191.6120  176.8570  144.6810 C   0  0  0  0  0  3  0  0  0  0  0  0
  190.0880  178.2890  146.0160 C   0  0  0  0  0  2  0  0  0  0  0  0
  190.3170  177.6170  144.6600 C   0  0  1  0  0  3  0  0  0  0  0  0
  189.2690  177.3190  148.0990 C   0  0  0  0  0  2  0  0  0  0  0  0
  191.9710  176.1530  145.7640 C   0  0  0  0  0  3  0  0  0  0  0  0
  189.2720  176.3940  140.6360 C   0  0  0  0  0  2  0  0  0  0  0  0
  189.6430  176.8450  139.2180 C   0  0  0  0  0  2  0  0  0  0  0  0
  190.4450  175.8610  138.4820 N   0  0  0  0  0  0  0  0  0  0  0  0
  191.8410  176.2720  138.4710 C   0  0  0  0  0  1  0  0  0  0  0  0
  189.9800  175.7940  137.1020 C   0  0  0  0  0  2  0  0  0  0  0  0
  188.0970  174.1670  136.5760 N   0  0  0  0  0  2  0  0  0  0  0  0
  189.4900  174.4190  136.7650 C   0  0  0  0  0  0  0  0  0  0  0  0
  190.3040  173.4620  136.6870 O   0  0  0  0  0  0  0  0  0  0  0  0
  187.0740  175.1690  136.8420 C   0  0  1  0  0  3  0  0  0  0  0  0
  184.7080  175.1310  136.0950 C   0  0  0  0  0  3  0  0  0  0  0  0
  187.1960  176.3070  135.8180 C   0  0  0  0  0  2  0  0  0  0  0  0
  186.0400  177.1070  135.8490 O   0  0  0  0  0  0  0  0  0  0  0  0
  185.6930  174.5430  136.7930 C   0  0  0  0  0  0  0  0  0  0  0  0
  185.0190  176.3410  135.2520 C   0  0  0  0  0  2  0  0  0  0  0  0
  185.3760  173.3480  137.6380 C   0  0  0  0  0  2  0  0  0  0  0  0
  184.9370  172.1910  136.8050 C   0  0  0  0  0  0  0  0  0  0  0  0
  184.1070  170.0810  135.2060 C   0  0  0  0  0  3  0  0  0  0  0  0
  185.3840  170.6300  135.0700 C   0  0  0  0  0  3  0  0  0  0  0  0
  183.2390  170.6070  136.1650 C   0  0  0  0  0  3  0  0  0  0  0  0
  185.7690  171.6650  135.8650 N   0  0  0  0  0  0  0  0  0  0  0  0
  183.6530  171.6680  136.9710 C   0  0  0  0  0  3  0  0  0  0  0  0
  1 11  1  0  0  0  0
  1  2  1  0  0  0  0
  2 14  1  0  0  0  0
  3  2  2  0  0  0  0
  4  6  1  0  0  0  0
  4  7  1  0  0  0  0
  5  8  1  0  0  0  0
  5  9  1  0  0  0  0
  8 10  1  1  0  0  0
  9  4  2  0  0  0  0
 10  6  2  0  0  0  0
 11  8  1  0  0  0  0
 12 13  1  0  0  0  0
 12 11  2  0  0  0  0
 13  5  2  0  0  0  0
 15 21  2  0  0  0  0
 16 15  1  0  0  0  0
 16 17  1  1  0  0  0
 18 22  2  0  0  0  0
 19 15  1  0  0  0  0
 20 14  1  6  0  0  0
 20 18  1  0  0  0  0
 20 19  1  0  0  0  0
 22 16  1  0  0  0  0
 23  1  1  0  0  0  0
 24 23  1  0  0  0  0
 25 24  1  0  0  0  0
 26 25  1  0  0  0  0
 27 25  1  0  0  0  0
 28 29  1  0  0  0  0
 29 27  1  0  0  0  0
 30 29  2  0  0  0  0
 31 28  1  6  0  0  0
 32 35  2  0  0  0  0
 33 34  1  0  0  0  0
 33 31  1  0  0  0  0
 35 31  1  0  0  0  0
 35 37  1  0  0  0  0
 36 34  1  0  0  0  0
 36 32  1  0  0  0  0
 38 43  1  0  0  0  0
 38 37  1  0  0  0  0
 39 41  1  0  0  0  0
 40 39  2  0  0  0  0
 40 42  1  0  0  0  0
 41 43  2  0  0  0  0
 42 38  2  0  0  0  0
M  END
>  <MODEL>
8

>  <REMARK>
 VINA RESULT:      -7.8      2.669      9.268
  Name = 
  11 active torsions:
  status: ('A' for Active; 'I' for Inactive)
    1  A    between atoms: C_1  and  C_34
    2  A    between atoms: C_1  and  C_35
    3  A    between atoms: N_2  and  C_6
    4  A    between atoms: N_2  and  C_13
    5  A    between atoms: N_3  and  C_4
    6  A    between atoms: C_6  and  C_12
    7  A    between atoms: N_8  and  C_27
    8  A    between atoms: N_8  and  C_30
    9  A    between atoms: C_11  and  C_14
   10  A    between atoms: C_13  and  C_27
   11  A    between atoms: C_14  and  C_41
                            x       y       z     vdW  Elec       q    Type
                         _______ _______ _______ _____ _____    ______ ____

>  <TORSDO>
F 11

$$$$
=
 OpenBabel10272414413D

 43 47  0  0  1  0  0  0  0  0999 V2000
  186.8380  176.9250  137.1390 N   0  0  0  0  0  0  0  0  0  0  0  0
  185.8740  175.8600  137.0410 C   0  0  0  0  0  0  0  0  0  0  0  0
  184.6680  176.1250  136.7870 O   0  0  0  0  0  0  0  0  0  0  0  0
  191.8200  176.9280  139.0800 C   0  0  0  0  0  0  0  0  0  0  0  0
  190.5140  176.8270  137.0710 C   0  0  0  0  0  0  0  0  0  0  0  0
  190.5430  176.9200  139.8400 C   0  0  0  0  0  3  0  0  0  0  0  0
  193.1120  176.9140  139.8140 C   0  0  0  0  0  1  0  0  0  0  0  0
  189.3190  177.4030  137.7470 C   0  0  2  0  0  3  0  0  0  0  0  0
  191.8160  176.8230  137.7450 C   0  0  0  0  0  3  0  0  0  0  0  0
  189.3630  177.0790  139.2170 C   0  0  0  0  0  3  0  0  0  0  0  0
  188.2510  176.7000  136.9840 C   0  0  0  0  0  0  0  0  0  0  0  0
  188.8020  175.9950  135.9990 C   0  0  0  0  0  3  0  0  0  0  0  0
  190.2230  176.0440  136.0880 N   0  0  0  0  0  0  0  0  0  0  0  0
  186.2510  174.4430  137.3440 C   0  0  0  0  0  2  0  0  0  0  0  0
  183.7330  171.6310  136.6760 C   0  0  0  0  0  0  0  0  0  0  0  0
  184.3420  171.0030  135.4370 C   0  0  2  0  0  3  0  0  0  0  0  0
  184.2960  169.4880  135.5160 C   0  0  0  0  0  1  0  0  0  0  0  0
  186.2580  172.5770  135.7220 C   0  0  0  0  0  3  0  0  0  0  0  0
  184.5050  172.6390  137.4760 C   0  0  0  0  0  2  0  0  0  0  0  0
  185.3870  173.4780  136.5480 C   0  0  1  0  0  3  0  0  0  0  0  0
  182.4510  171.4260  136.9710 C   0  0  0  0  0  2  0  0  0  0  0  0
  185.7700  171.4370  135.2120 C   0  0  0  0  0  3  0  0  0  0  0  0
  186.3760  178.2660  137.4780 C   0  0  0  0  0  2  0  0  0  0  0  0
  186.3150  178.4300  139.0010 C   0  0  0  0  0  2  0  0  0  0  0  0
  184.9660  178.7050  139.5070 N   0  0  0  0  0  0  0  0  0  0  0  0
  184.4190  179.8790  138.8410 C   0  0  0  0  0  1  0  0  0  0  0  0
  185.0330  178.9840  140.9360 C   0  0  0  0  0  2  0  0  0  0  0  0
  184.2110  177.9970  143.1320 N   0  0  0  0  0  2  0  0  0  0  0  0
  184.1440  178.0560  141.7070 C   0  0  0  0  0  0  0  0  0  0  0  0
  183.3550  177.2880  141.0960 O   0  0  0  0  0  0  0  0  0  0  0  0
  185.2280  178.7020  143.9010 C   0  0  1  0  0  3  0  0  0  0  0  0
  186.9490  177.7020  145.3820 C   0  0  0  0  0  3  0  0  0  0  0  0
  184.6210  179.1870  145.2250 C   0  0  0  0  0  2  0  0  0  0  0  0
  185.6450  179.5750  146.1090 O   0  0  0  0  0  0  0  0  0  0  0  0
  186.4230  177.8010  144.1510 C   0  0  0  0  0  0  0  0  0  0  0  0
  186.2630  178.3840  146.5370 C   0  0  0  0  0  2  0  0  0  0  0  0
  187.1160  177.1310  143.0050 C   0  0  0  0  0  2  0  0  0  0  0  0
  188.5980  177.1630  143.1680 C   0  0  0  0  0  0  0  0  0  0  0  0
  191.3610  177.2360  143.4050 C   0  0  0  0  0  3  0  0  0  0  0  0
  190.6130  178.4120  143.3470 C   0  0  0  0  0  3  0  0  0  0  0  0
  190.7030  176.0060  143.3440 C   0  0  0  0  0  3  0  0  0  0  0  0
  189.2580  178.3520  143.2300 N   0  0  0  0  0  0  0  0  0  0  0  0
  189.3130  175.9650  143.2240 C   0  0  0  0  0  3  0  0  0  0  0  0
  1 23  1  0  0  0  0
  2  1  1  0  0  0  0
  2 14  1  0  0  0  0
  3  2  2  0  0  0  0
  4  7  1  0  0  0  0
  4  6  1  0  0  0  0
  5  9  1  0  0  0  0
  5  8  1  0  0  0  0
  8 10  1  1  0  0  0
  9  4  2  0  0  0  0
 10  6  2  0  0  0  0
 11  1  1  0  0  0  0
 11  8  1  0  0  0  0
 12 13  1  0  0  0  0
 12 11  2  0  0  0  0
 13  5  2  0  0  0  0
 15 21  2  0  0  0  0
 15 19  1  0  0  0  0
 16 17  1  1  0  0  0
 16 15  1  0  0  0  0
 18 20  1  0  0  0  0
 20 14  1  1  0  0  0
 20 19  1  0  0  0  0
 22 16  1  0  0  0  0
 22 18  2  0  0  0  0
 23 24  1  0  0  0  0
 24 25  1  0  0  0  0
 25 27  1  0  0  0  0
 26 25  1  0  0  0  0
 27 29  1  0  0  0  0
 29 28  1  0  0  0  0
 30 29  2  0  0  0  0
 31 28  1  1  0  0  0
 31 35  1  0  0  0  0
 31 33  1  0  0  0  0
 32 36  1  0  0  0  0
 33 34  1  0  0  0  0
 34 36  1  0  0  0  0
 35 32  2  0  0  0  0
 37 38  1  0  0  0  0
 37 35  1  0  0  0  0
 38 43  2  0  0  0  0
 38 42  1  0  0  0  0
 40 39  1  0  0  0  0
 41 39  2  0  0  0  0
 42 40  2  0  0  0  0
 43 41  1  0  0  0  0
M  END
>  <MODEL>
9

>  <REMARK>
 VINA RESULT:      -7.8      2.442      6.503
  Name = 
  11 active torsions:
  status: ('A' for Active; 'I' for Inactive)
    1  A    between atoms: C_1  and  C_34
    2  A    between atoms: C_1  and  C_35
    3  A    between atoms: N_2  and  C_6
    4  A    between atoms: N_2  and  C_13
    5  A    between atoms: N_3  and  C_4
    6  A    between atoms: C_6  and  C_12
    7  A    between atoms: N_8  and  C_27
    8  A    between atoms: N_8  and  C_30
    9  A    between atoms: C_11  and  C_14
   10  A    between atoms: C_13  and  C_27
   11  A    between atoms: C_14  and  C_41
                            x       y       z     vdW  Elec       q    Type
                         _______ _______ _______ _____ _____    ______ ____

>  <TORSDO>
F 11

$$$$
