=
 OpenBabel10272400443D

 25 28  0  0  1  0  0  0  0  0999 V2000
  189.0360  176.7660  145.4640 C   0  0  2  0  0  3  0  0  0  0  0  0
  187.6860  177.3770  145.2330 C   0  0  0  0  0  0  0  0  0  0  0  0
  187.6720  178.4210  148.5730 O   0  0  0  0  0  0  0  0  0  0  0  0
  187.9960  177.9250  147.4620 C   0  0  0  0  0  0  0  0  0  0  0  0
  185.8160  178.5780  146.1950 C   0  0  0  0  0  0  0  0  0  0  0  0
  185.2780  179.1210  147.1960 O   0  0  0  0  0  0  0  0  0  0  0  0
  186.9450  177.2260  143.9300 C   0  0  0  0  0  2  0  0  0  0  0  0
  189.5530  177.1020  147.1960 S   0  0  0  0  0  0  0  0  0  0  0  0
  185.1360  178.5650  144.9370 N   0  0  0  0  0  0  0  0  0  0  0  0
  185.6420  177.9970  143.8770 C   0  0  0  0  0  0  0  0  0  0  0  0
  187.1470  177.9650  146.2880 C   0  0  0  0  0  0  0  0  0  0  0  0
  190.0640  177.2370  144.4720 C   0  0  0  0  0  0  0  0  0  0  0  0
  191.9960  178.2370  142.6990 C   0  0  0  0  0  3  0  0  0  0  0  0
  190.4570  176.4790  143.3470 C   0  0  0  0  0  0  0  0  0  0  0  0
  191.4190  176.9860  142.4680 C   0  0  0  0  0  3  0  0  0  0  0  0
  191.6120  178.9880  143.8120 C   0  0  0  0  0  3  0  0  0  0  0  0
  189.8990  175.1930  143.0890 N   0  0  0  0  0  1  0  0  0  0  0  0
  190.6500  178.4890  144.6940 C   0  0  0  0  0  3  0  0  0  0  0  0
  184.8580  177.9850  142.5880 C   0  0  2  0  0  3  0  0  0  0  0  0
  185.6440  178.3420  141.3700 N   0  0  0  0  0  0  0  0  0  0  0  0
  184.7360  179.3150  141.9910 C   0  0  0  0  0  2  0  0  0  0  0  0
  186.9440  178.7750  141.6880 N   0  0  0  0  0  2  0  0  0  0  0  0
  189.1580  179.0890  141.0620 O   0  0  0  0  0  0  0  0  0  0  0  0
  187.8350  177.9320  139.4650 C   0  0  0  0  0  1  0  0  0  0  0  0
  188.0260  178.6270  140.7680 C   0  0  0  0  0  0  0  0  0  0  0  0
  1 12  1  6  0  0  0
  1  8  1  0  0  0  0
  2  1  1  0  0  0  0
  2 11  2  0  0  0  0
  4  3  2  0  0  0  0
  5 11  1  0  0  0  0
  5  6  2  0  0  0  0
  7  2  1  0  0  0  0
  8  4  1  0  0  0  0
  9  5  1  0  0  0  0
 10  7  1  0  0  0  0
 10  9  2  0  0  0  0
 11  4  1  0  0  0  0
 12 18  1  0  0  0  0
 13 16  1  0  0  0  0
 14 12  2  0  0  0  0
 15 13  2  0  0  0  0
 15 14  1  0  0  0  0
 16 18  2  0  0  0  0
 17 14  1  0  0  0  0
 19 10  1  1  0  0  0
 20 22  1  0  0  0  0
 20 21  1  0  0  0  0
 20 19  1  0  0  0  0
 21 19  1  0  0  0  0
 24 25  1  0  0  0  0
 25 23  2  0  0  0  0
 25 22  1  0  0  0  0
M  END
>  <MODEL>
1

>  <REMARK>
 VINA RESULT:      -8.3      0.000      0.000
  Name = 
  3 active torsions:
  status: ('A' for Active; 'I' for Inactive)
    1  A    between atoms: C_1  and  C_5
    2  A    between atoms: N_2  and  N_15
    3  A    between atoms: C_6  and  C_23
                            x       y       z     vdW  Elec       q    Type
                         _______ _______ _______ _____ _____    ______ ____

>  <TORSDO>
F 3

$$$$
=
 OpenBabel10272400443D

 25 28  0  0  1  0  0  0  0  0999 V2000
  186.3070  177.2890  145.0550 C   0  0  2  0  0  3  0  0  0  0  0  0
  187.0280  177.4180  143.7460 C   0  0  0  0  0  0  0  0  0  0  0  0
  184.4850  179.5560  142.6450 O   0  0  0  0  0  0  0  0  0  0  0  0
  185.2070  178.7910  143.3360 C   0  0  0  0  0  0  0  0  0  0  0  0
  187.0300  178.3780  141.5210 C   0  0  0  0  0  0  0  0  0  0  0  0
  186.4670  179.0920  140.6510 O   0  0  0  0  0  0  0  0  0  0  0  0
  188.2710  176.6290  143.4270 C   0  0  0  0  0  2  0  0  0  0  0  0
  184.8020  178.3440  145.0120 S   0  0  0  0  0  0  0  0  0  0  0  0
  188.2780  177.7440  141.2280 N   0  0  0  0  0  0  0  0  0  0  0  0
  188.8900  176.9780  142.0890 C   0  0  0  0  0  0  0  0  0  0  0  0
  186.4350  178.1920  142.8510 C   0  0  0  0  0  0  0  0  0  0  0  0
  187.1830  177.6120  146.2340 C   0  0  0  0  0  0  0  0  0  0  0  0
  188.9190  178.1320  148.3770 C   0  0  0  0  0  3  0  0  0  0  0  0
  186.7800  178.4660  147.2850 C   0  0  0  0  0  0  0  0  0  0  0  0
  187.6510  178.7170  148.3500 C   0  0  0  0  0  3  0  0  0  0  0  0
  189.3220  177.2910  147.3390 C   0  0  0  0  0  3  0  0  0  0  0  0
  185.4980  179.0900  147.2820 N   0  0  0  0  0  1  0  0  0  0  0  0
  188.4570  177.0330  146.2720 C   0  0  0  0  0  3  0  0  0  0  0  0
  190.1860  176.3080  141.7060 C   0  0  2  0  0  3  0  0  0  0  0  0
  191.4180  177.0730  142.0590 N   0  0  0  0  0  0  0  0  0  0  0  0
  190.9190  177.0470  140.6780 C   0  0  0  0  0  2  0  0  0  0  0  0
  191.1210  178.3580  142.5490 N   0  0  0  0  0  2  0  0  0  0  0  0
  191.1060  179.8760  144.3050 O   0  0  0  0  0  0  0  0  0  0  0  0
  191.7720  177.6780  144.9070 C   0  0  0  0  0  1  0  0  0  0  0  0
  191.3190  178.6980  143.9210 C   0  0  0  0  0  0  0  0  0  0  0  0
  1 12  1  1  0  0  0
  2  1  1  0  0  0  0
  3  4  2  0  0  0  0
  4  8  1  0  0  0  0
  5 11  1  0  0  0  0
  6  5  2  0  0  0  0
  7  2  1  0  0  0  0
  8  1  1  0  0  0  0
  9  5  1  0  0  0  0
  9 10  2  0  0  0  0
 10  7  1  0  0  0  0
 11  4  1  0  0  0  0
 11  2  2  0  0  0  0
 12 18  2  0  0  0  0
 12 14  1  0  0  0  0
 14 15  2  0  0  0  0
 15 13  1  0  0  0  0
 16 13  2  0  0  0  0
 17 14  1  0  0  0  0
 18 16  1  0  0  0  0
 19 20  1  0  0  0  0
 19 10  1  1  0  0  0
 20 22  1  0  0  0  0
 21 19  1  0  0  0  0
 21 20  1  0  0  0  0
 22 25  1  0  0  0  0
 25 23  2  0  0  0  0
 25 24  1  0  0  0  0
M  END
>  <MODEL>
2

>  <REMARK>
 VINA RESULT:      -8.0      2.391      5.157
  Name = 
  3 active torsions:
  status: ('A' for Active; 'I' for Inactive)
    1  A    between atoms: C_1  and  C_5
    2  A    between atoms: N_2  and  N_15
    3  A    between atoms: C_6  and  C_23
                            x       y       z     vdW  Elec       q    Type
                         _______ _______ _______ _____ _____    ______ ____

>  <TORSDO>
F 3

$$$$
=
 OpenBabel10272400443D

 25 28  0  0  1  0  0  0  0  0999 V2000
  188.5610  176.8570  144.9550 C   0  0  2  0  0  3  0  0  0  0  0  0
  187.3240  177.6320  144.6090 C   0  0  0  0  0  0  0  0  0  0  0  0
  186.8360  178.2260  148.0240 O   0  0  0  0  0  0  0  0  0  0  0  0
  187.2990  177.8480  146.9160 C   0  0  0  0  0  0  0  0  0  0  0  0
  185.4250  178.8880  145.4360 C   0  0  0  0  0  0  0  0  0  0  0  0
  184.7740  179.3490  146.4100 O   0  0  0  0  0  0  0  0  0  0  0  0
  186.8020  177.7330  143.2000 C   0  0  0  0  0  2  0  0  0  0  0  0
  188.8050  176.9070  146.7760 S   0  0  0  0  0  0  0  0  0  0  0  0
  184.9670  179.1120  144.0990 N   0  0  0  0  0  0  0  0  0  0  0  0
  185.5960  178.6380  143.0590 C   0  0  0  0  0  0  0  0  0  0  0  0
  186.6660  178.1310  145.6430 C   0  0  0  0  0  0  0  0  0  0  0  0
  189.7760  177.3430  144.2140 C   0  0  0  0  0  0  0  0  0  0  0  0
  192.0370  178.3720  142.9090 C   0  0  0  0  0  3  0  0  0  0  0  0
  190.4330  176.5810  143.2230 C   0  0  0  0  0  0  0  0  0  0  0  0
  191.5580  177.1030  142.5760 C   0  0  0  0  0  3  0  0  0  0  0  0
  191.3930  179.1270  143.8900 C   0  0  0  0  0  3  0  0  0  0  0  0
  189.9790  175.2770  142.8690 N   0  0  0  0  0  1  0  0  0  0  0  0
  190.2660  178.6140  144.5390 C   0  0  0  0  0  3  0  0  0  0  0  0
  185.0410  178.8780  141.6770 C   0  0  2  0  0  3  0  0  0  0  0  0
  183.5590  179.0430  141.6140 N   0  0  0  0  0  0  0  0  0  0  0  0
  184.1930  177.7800  141.2120 C   0  0  0  0  0  2  0  0  0  0  0  0
  182.9450  178.7860  142.8530 N   0  0  0  0  0  2  0  0  0  0  0  0
  181.0140  178.6040  144.1300 O   0  0  0  0  0  0  0  0  0  0  0  0
  180.6640  179.3950  141.9190 C   0  0  0  0  0  1  0  0  0  0  0  0
  181.5330  178.9090  143.0250 C   0  0  0  0  0  0  0  0  0  0  0  0
  1 12  1  6  0  0  0
  1  8  1  0  0  0  0
  2  1  1  0  0  0  0
  2 11  2  0  0  0  0
  4  3  2  0  0  0  0
  5 11  1  0  0  0  0
  5  6  2  0  0  0  0
  7  2  1  0  0  0  0
  8  4  1  0  0  0  0
  9  5  1  0  0  0  0
 10  7  1  0  0  0  0
 10  9  2  0  0  0  0
 11  4  1  0  0  0  0
 12 18  1  0  0  0  0
 13 16  1  0  0  0  0
 14 12  2  0  0  0  0
 15 13  2  0  0  0  0
 15 14  1  0  0  0  0
 16 18  2  0  0  0  0
 17 14  1  0  0  0  0
 19 10  1  1  0  0  0
 20 19  1  0  0  0  0
 20 22  1  0  0  0  0
 21 20  1  0  0  0  0
 21 19  1  0  0  0  0
 22 25  1  0  0  0  0
 24 25  1  0  0  0  0
 25 23  2  0  0  0  0
M  END
>  <MODEL>
3

>  <REMARK>
 VINA RESULT:      -7.8      1.953      2.965
  Name = 
  3 active torsions:
  status: ('A' for Active; 'I' for Inactive)
    1  A    between atoms: C_1  and  C_5
    2  A    between atoms: N_2  and  N_15
    3  A    between atoms: C_6  and  C_23
                            x       y       z     vdW  Elec       q    Type
                         _______ _______ _______ _____ _____    ______ ____

>  <TORSDO>
F 3

$$$$
=
 OpenBabel10272400443D

 25 28  0  0  1  0  0  0  0  0999 V2000
  187.8820  176.6570  143.5750 C   0  0  2  0  0  3  0  0  0  0  0  0
  187.7450  177.3980  142.2780 C   0  0  0  0  0  0  0  0  0  0  0  0
  184.7520  178.7680  143.4650 O   0  0  0  0  0  0  0  0  0  0  0  0
  185.8300  178.1270  143.3580 C   0  0  0  0  0  0  0  0  0  0  0  0
  186.4020  178.9040  140.9380 C   0  0  0  0  0  0  0  0  0  0  0  0
  185.3640  179.6040  140.8110 O   0  0  0  0  0  0  0  0  0  0  0  0
  188.7070  177.2050  141.1340 C   0  0  0  0  0  2  0  0  0  0  0  0
  186.4710  177.1030  144.6660 S   0  0  0  0  0  0  0  0  0  0  0  0
  187.3600  178.8450  139.8770 N   0  0  0  0  0  0  0  0  0  0  0  0
  188.4400  178.1160  139.9530 C   0  0  0  0  0  0  0  0  0  0  0  0
  186.6620  178.1490  142.1710 C   0  0  0  0  0  0  0  0  0  0  0  0
  189.2060  176.9010  144.2460 C   0  0  0  0  0  0  0  0  0  0  0  0
  191.6140  177.4590  145.5740 C   0  0  0  0  0  3  0  0  0  0  0  0
  190.3740  176.1670  143.9390 C   0  0  0  0  0  0  0  0  0  0  0  0
  191.5700  176.4540  144.6050 C   0  0  0  0  0  3  0  0  0  0  0  0
  190.4610  178.1840  145.8820 C   0  0  0  0  0  3  0  0  0  0  0  0
  190.3610  175.1270  142.9660 N   0  0  0  0  0  1  0  0  0  0  0  0
  189.2630  177.9050  145.2190 C   0  0  0  0  0  3  0  0  0  0  0  0
  189.3930  178.0680  138.7850 C   0  0  2  0  0  3  0  0  0  0  0  0
  188.9110  177.2770  137.6140 N   0  0  0  0  0  0  0  0  0  0  0  0
  189.9100  176.7220  138.5370 C   0  0  0  0  0  2  0  0  0  0  0  0
  187.7130  176.5950  137.8920 N   0  0  0  0  0  2  0  0  0  0  0  0
  185.5460  176.0260  137.2810 O   0  0  0  0  0  0  0  0  0  0  0  0
  186.5890  177.6130  135.8550 C   0  0  0  0  0  1  0  0  0  0  0  0
  186.5760  176.7050  137.0350 C   0  0  0  0  0  0  0  0  0  0  0  0
  1 12  1  1  0  0  0
  1  8  1  0  0  0  0
  2  1  1  0  0  0  0
  4  3  2  0  0  0  0
  4  8  1  0  0  0  0
  5 11  1  0  0  0  0
  6  5  2  0  0  0  0
  7  2  1  0  0  0  0
  9 10  2  0  0  0  0
  9  5  1  0  0  0  0
 10  7  1  0  0  0  0
 11  2  2  0  0  0  0
 11  4  1  0  0  0  0
 12 18  1  0  0  0  0
 13 16  1  0  0  0  0
 14 12  2  0  0  0  0
 14 15  1  0  0  0  0
 15 13  2  0  0  0  0
 17 14  1  0  0  0  0
 18 16  2  0  0  0  0
 19 10  1  1  0  0  0
 20 22  1  0  0  0  0
 20 21  1  0  0  0  0
 20 19  1  0  0  0  0
 21 19  1  0  0  0  0
 24 25  1  0  0  0  0
 25 23  2  0  0  0  0
 25 22  1  0  0  0  0
M  END
>  <MODEL>
4

>  <REMARK>
 VINA RESULT:      -7.3      2.721      4.283
  Name = 
  3 active torsions:
  status: ('A' for Active; 'I' for Inactive)
    1  A    between atoms: C_1  and  C_5
    2  A    between atoms: N_2  and  N_15
    3  A    between atoms: C_6  and  C_23
                            x       y       z     vdW  Elec       q    Type
                         _______ _______ _______ _____ _____    ______ ____

>  <TORSDO>
F 3

$$$$
=
 OpenBabel10272400443D

 25 28  0  0  1  0  0  0  0  0999 V2000
  184.9180  179.3470  142.7190 C   0  0  2  0  0  3  0  0  0  0  0  0
  185.9760  178.4410  143.2730 C   0  0  0  0  0  0  0  0  0  0  0  0
  184.6580  178.9820  146.4700 O   0  0  0  0  0  0  0  0  0  0  0  0
  184.8640  178.9970  145.2280 C   0  0  0  0  0  0  0  0  0  0  0  0
  186.9480  177.4340  145.2510 C   0  0  0  0  0  0  0  0  0  0  0  0
  186.9490  177.2880  146.5010 O   0  0  0  0  0  0  0  0  0  0  0  0
  187.0670  177.8550  142.4150 C   0  0  0  0  0  2  0  0  0  0  0  0
  183.8380  179.9130  144.0960 S   0  0  0  0  0  0  0  0  0  0  0  0
  187.9240  176.7600  144.4510 N   0  0  0  0  0  0  0  0  0  0  0  0
  187.9770  176.8960  143.1540 C   0  0  0  0  0  0  0  0  0  0  0  0
  185.9480  178.2790  144.5860 C   0  0  0  0  0  0  0  0  0  0  0  0
  184.1240  178.7060  141.6140 C   0  0  0  0  0  0  0  0  0  0  0  0
  182.5410  177.4800  139.6480 C   0  0  0  0  0  3  0  0  0  0  0  0
  184.5840  178.6230  140.2810 C   0  0  0  0  0  0  0  0  0  0  0  0
  183.7890  178.0080  139.3080 C   0  0  0  0  0  3  0  0  0  0  0  0
  182.0820  177.5620  140.9640 C   0  0  0  0  0  3  0  0  0  0  0  0
  185.8450  179.1640  139.8970 N   0  0  0  0  0  1  0  0  0  0  0  0
  182.8720  178.1730  141.9420 C   0  0  0  0  0  3  0  0  0  0  0  0
  189.0530  176.1870  142.3710 C   0  0  2  0  0  3  0  0  0  0  0  0
  190.3510  176.9190  142.2810 N   0  0  0  0  0  0  0  0  0  0  0  0
  189.4190  176.8970  141.1460 C   0  0  0  0  0  2  0  0  0  0  0  0
  190.2660  178.2150  142.8210 N   0  0  0  0  0  2  0  0  0  0  0  0
  190.8570  179.7390  144.4710 O   0  0  0  0  0  0  0  0  0  0  0  0
  191.6070  177.5200  144.8620 C   0  0  0  0  0  1  0  0  0  0  0  0
  190.8990  178.5520  144.0560 C   0  0  0  0  0  0  0  0  0  0  0  0
  1 12  1  6  0  0  0
  1  2  1  0  0  0  0
  1  8  1  0  0  0  0
  2 11  2  0  0  0  0
  4  3  2  0  0  0  0
  5  6  2  0  0  0  0
  7 10  1  0  0  0  0
  7  2  1  0  0  0  0
  8  4  1  0  0  0  0
  9  5  1  0  0  0  0
 10  9  2  0  0  0  0
 11  4  1  0  0  0  0
 11  5  1  0  0  0  0
 12 18  1  0  0  0  0
 13 16  1  0  0  0  0
 14 12  2  0  0  0  0
 15 13  2  0  0  0  0
 15 14  1  0  0  0  0
 16 18  2  0  0  0  0
 17 14  1  0  0  0  0
 19 10  1  1  0  0  0
 20 19  1  0  0  0  0
 20 22  1  0  0  0  0
 21 20  1  0  0  0  0
 21 19  1  0  0  0  0
 22 25  1  0  0  0  0
 25 23  2  0  0  0  0
 25 24  1  0  0  0  0
M  END
>  <MODEL>
5

>  <REMARK>
 VINA RESULT:      -7.2      2.518      5.633
  Name = 
  3 active torsions:
  status: ('A' for Active; 'I' for Inactive)
    1  A    between atoms: C_1  and  C_5
    2  A    between atoms: N_2  and  N_15
    3  A    between atoms: C_6  and  C_23
                            x       y       z     vdW  Elec       q    Type
                         _______ _______ _______ _____ _____    ______ ____

>  <TORSDO>
F 3

$$$$
=
 OpenBabel10272400443D

 25 28  0  0  1  0  0  0  0  0999 V2000
  188.6420  177.0410  141.8940 C   0  0  2  0  0  3  0  0  0  0  0  0
  188.9710  177.2890  140.4520 C   0  0  0  0  0  0  0  0  0  0  0  0
  186.0380  179.1790  140.1860 O   0  0  0  0  0  0  0  0  0  0  0  0
  186.9870  178.4720  140.6180 C   0  0  0  0  0  0  0  0  0  0  0  0
  188.2890  178.3160  138.3670 C   0  0  0  0  0  0  0  0  0  0  0  0
  187.4500  178.9940  137.7190 O   0  0  0  0  0  0  0  0  0  0  0  0
  190.1530  176.6470  139.7720 C   0  0  0  0  0  2  0  0  0  0  0  0
  187.0870  177.9300  142.3110 S   0  0  0  0  0  0  0  0  0  0  0  0
  189.4680  177.8280  137.7190 N   0  0  0  0  0  0  0  0  0  0  0  0
  190.3570  177.1040  138.3420 C   0  0  0  0  0  0  0  0  0  0  0  0
  188.0910  178.0240  139.7920 C   0  0  0  0  0  0  0  0  0  0  0  0
  189.7660  177.4170  142.8190 C   0  0  0  0  0  0  0  0  0  0  0  0
  191.8250  178.2560  144.5310 C   0  0  0  0  0  3  0  0  0  0  0  0
  190.6400  176.4690  143.3990 C   0  0  0  0  0  0  0  0  0  0  0  0
  191.6640  176.8970  144.2480 C   0  0  0  0  0  3  0  0  0  0  0  0
  190.9620  179.1950  143.9630 C   0  0  0  0  0  3  0  0  0  0  0  0
  190.4950  175.0750  143.1430 N   0  0  0  0  0  1  0  0  0  0  0  0
  189.9370  178.7750  143.1110 C   0  0  0  0  0  3  0  0  0  0  0  0
  191.5600  176.5880  137.5930 C   0  0  2  0  0  3  0  0  0  0  0  0
  191.4060  175.2170  137.0230 N   0  0  0  0  0  0  0  0  0  0  0  0
  192.1820  175.4390  138.2510 C   0  0  0  0  0  2  0  0  0  0  0  0
  190.2080  174.6050  137.4330 N   0  0  0  0  0  2  0  0  0  0  0  0
  188.6270  172.9240  137.1710 O   0  0  0  0  0  0  0  0  0  0  0  0
  190.3030  172.9750  135.4900 C   0  0  0  0  0  1  0  0  0  0  0  0
  189.6640  173.4860  136.7330 C   0  0  0  0  0  0  0  0  0  0  0  0
  1  8  1  0  0  0  0
  1 12  1  1  0  0  0
  2  1  1  0  0  0  0
  3  4  2  0  0  0  0
  4  8  1  0  0  0  0
  5 11  1  0  0  0  0
  6  5  2  0  0  0  0
  7  2  1  0  0  0  0
  9 10  2  0  0  0  0
  9  5  1  0  0  0  0
 10  7  1  0  0  0  0
 11  2  2  0  0  0  0
 11  4  1  0  0  0  0
 12 18  2  0  0  0  0
 12 14  1  0  0  0  0
 14 15  2  0  0  0  0
 15 13  1  0  0  0  0
 16 13  2  0  0  0  0
 17 14  1  0  0  0  0
 18 16  1  0  0  0  0
 19 21  1  0  0  0  0
 19 10  1  1  0  0  0
 20 22  1  0  0  0  0
 20 19  1  0  0  0  0
 20 21  1  0  0  0  0
 24 25  1  0  0  0  0
 25 23  2  0  0  0  0
 25 22  1  0  0  0  0
M  END
>  <MODEL>
6

>  <REMARK>
 VINA RESULT:      -7.2      3.956      6.232
  Name = 
  3 active torsions:
  status: ('A' for Active; 'I' for Inactive)
    1  A    between atoms: C_1  and  C_5
    2  A    between atoms: N_2  and  N_15
    3  A    between atoms: C_6  and  C_23
                            x       y       z     vdW  Elec       q    Type
                         _______ _______ _______ _____ _____    ______ ____

>  <TORSDO>
F 3

$$$$
=
 OpenBabel10272400443D

 25 28  0  0  1  0  0  0  0  0999 V2000
  190.4900  177.4530  138.1040 C   0  0  2  0  0  3  0  0  0  0  0  0
  190.1700  177.5190  139.5680 C   0  0  0  0  0  0  0  0  0  0  0  0
  186.9230  178.5230  138.7360 O   0  0  0  0  0  0  0  0  0  0  0  0
  188.1240  178.1490  138.6840 C   0  0  0  0  0  0  0  0  0  0  0  0
  188.5100  178.0260  141.2580 C   0  0  0  0  0  0  0  0  0  0  0  0
  187.3480  178.4090  141.5510 O   0  0  0  0  0  0  0  0  0  0  0  0
  191.2120  177.2880  140.6330 C   0  0  0  0  0  2  0  0  0  0  0  0
  188.9800  177.8790  137.1460 S   0  0  0  0  0  0  0  0  0  0  0  0
  189.4360  177.6920  142.2950 N   0  0  0  0  0  0  0  0  0  0  0  0
  190.6580  177.3110  142.0430 C   0  0  0  0  0  0  0  0  0  0  0  0
  188.9370  177.8990  139.8580 C   0  0  0  0  0  0  0  0  0  0  0  0
  191.0560  176.1220  137.6930 C   0  0  0  0  0  0  0  0  0  0  0  0
  191.9780  173.5900  136.9100 C   0  0  0  0  0  3  0  0  0  0  0  0
  192.4430  175.8590  137.6270 C   0  0  0  0  0  0  0  0  0  0  0  0
  192.8930  174.5940  137.2380 C   0  0  0  0  0  3  0  0  0  0  0  0
  190.6080  173.8470  136.9710 C   0  0  0  0  0  3  0  0  0  0  0  0
  193.4030  176.8640  137.9410 N   0  0  0  0  0  1  0  0  0  0  0  0
  190.1500  175.1080  137.3620 C   0  0  0  0  0  3  0  0  0  0  0  0
  191.5980  177.0080  143.1830 C   0  0  2  0  0  3  0  0  0  0  0  0
  190.9360  176.7890  144.5030 N   0  0  0  0  0  0  0  0  0  0  0  0
  191.6070  178.0600  144.1990 C   0  0  0  0  0  2  0  0  0  0  0  0
  189.5570  177.0630  144.4550 N   0  0  0  0  0  2  0  0  0  0  0  0
  187.5830  177.5970  145.5550 O   0  0  0  0  0  0  0  0  0  0  0  0
  189.4250  177.1580  146.9880 C   0  0  0  0  0  1  0  0  0  0  0  0
  188.7990  177.2880  145.6440 C   0  0  0  0  0  0  0  0  0  0  0  0
  1 12  1  6  0  0  0
  1  2  1  0  0  0  0
  2 11  2  0  0  0  0
  2  7  1  0  0  0  0
  4  3  2  0  0  0  0
  4 11  1  0  0  0  0
  5  6  2  0  0  0  0
  5  9  1  0  0  0  0
  7 10  1  0  0  0  0
  8  1  1  0  0  0  0
  8  4  1  0  0  0  0
 10  9  2  0  0  0  0
 11  5  1  0  0  0  0
 13 16  2  0  0  0  0
 13 15  1  0  0  0  0
 14 12  1  0  0  0  0
 14 17  1  0  0  0  0
 15 14  2  0  0  0  0
 16 18  1  0  0  0  0
 18 12  2  0  0  0  0
 19 10  1  6  0  0  0
 19 21  1  0  0  0  0
 19 20  1  0  0  0  0
 21 20  1  0  0  0  0
 22 20  1  0  0  0  0
 22 25  1  0  0  0  0
 23 25  2  0  0  0  0
 25 24  1  0  0  0  0
M  END
>  <MODEL>
7

>  <REMARK>
 VINA RESULT:      -6.8      3.907      6.912
  Name = 
  3 active torsions:
  status: ('A' for Active; 'I' for Inactive)
    1  A    between atoms: C_1  and  C_5
    2  A    between atoms: N_2  and  N_15
    3  A    between atoms: C_6  and  C_23
                            x       y       z     vdW  Elec       q    Type
                         _______ _______ _______ _____ _____    ______ ____

>  <TORSDO>
F 3

$$$$
=
 OpenBabel10272400443D

 25 28  0  0  1  0  0  0  0  0999 V2000
  184.8880  179.0700  141.5130 C   0  0  2  0  0  3  0  0  0  0  0  0
  186.2930  178.5470  141.4670 C   0  0  0  0  0  0  0  0  0  0  0  0
  185.9820  177.6320  144.8300 O   0  0  0  0  0  0  0  0  0  0  0  0
  185.7590  178.0630  143.6680 C   0  0  0  0  0  0  0  0  0  0  0  0
  188.1120  177.5170  142.6910 C   0  0  0  0  0  0  0  0  0  0  0  0
  188.5620  177.0510  143.7700 O   0  0  0  0  0  0  0  0  0  0  0  0
  187.1720  178.7000  140.2520 C   0  0  0  0  0  2  0  0  0  0  0  0
  184.1940  178.7630  143.1870 S   0  0  0  0  0  0  0  0  0  0  0  0
  188.9330  177.5300  141.5200 N   0  0  0  0  0  0  0  0  0  0  0  0
  188.5190  178.0210  140.3840 C   0  0  0  0  0  0  0  0  0  0  0  0
  186.7420  178.0380  142.6020 C   0  0  0  0  0  0  0  0  0  0  0  0
  184.0170  178.4910  140.4320 C   0  0  0  0  0  0  0  0  0  0  0  0
  182.3620  177.3010  138.5040 C   0  0  0  0  0  3  0  0  0  0  0  0
  183.8410  179.1030  139.1710 C   0  0  0  0  0  0  0  0  0  0  0  0
  183.0160  178.5010  138.2160 C   0  0  0  0  0  3  0  0  0  0  0  0
  182.5320  176.6940  139.7500 C   0  0  0  0  0  3  0  0  0  0  0  0
  184.4820  180.3340  138.8490 N   0  0  0  0  0  1  0  0  0  0  0  0
  183.3570  177.2880  140.7090 C   0  0  0  0  0  3  0  0  0  0  0  0
  189.4470  178.0400  139.1950 C   0  0  2  0  0  3  0  0  0  0  0  0
  188.9090  177.3830  137.9670 N   0  0  0  0  0  0  0  0  0  0  0  0
  189.8990  176.7020  138.8130 C   0  0  0  0  0  2  0  0  0  0  0  0
  187.6870  176.7300  138.2090 N   0  0  0  0  0  2  0  0  0  0  0  0
  185.5440  176.1700  137.5100 O   0  0  0  0  0  0  0  0  0  0  0  0
  186.6850  177.6860  136.0810 C   0  0  0  0  0  1  0  0  0  0  0  0
  186.5970  176.8240  137.2920 C   0  0  0  0  0  0  0  0  0  0  0  0
  1 12  1  6  0  0  0
  1  8  1  0  0  0  0
  2  1  1  0  0  0  0
  2 11  2  0  0  0  0
  4  3  2  0  0  0  0
  5  6  2  0  0  0  0
  7 10  1  0  0  0  0
  7  2  1  0  0  0  0
  8  4  1  0  0  0  0
  9  5  1  0  0  0  0
 10  9  2  0  0  0  0
 11  5  1  0  0  0  0
 11  4  1  0  0  0  0
 12 18  1  0  0  0  0
 13 16  1  0  0  0  0
 14 12  2  0  0  0  0
 15 13  2  0  0  0  0
 15 14  1  0  0  0  0
 16 18  2  0  0  0  0
 17 14  1  0  0  0  0
 19 10  1  1  0  0  0
 20 22  1  0  0  0  0
 20 21  1  0  0  0  0
 20 19  1  0  0  0  0
 21 19  1  0  0  0  0
 24 25  1  0  0  0  0
 25 23  2  0  0  0  0
 25 22  1  0  0  0  0
M  END
>  <MODEL>
8

>  <REMARK>
 VINA RESULT:      -6.7      3.281      6.377
  Name = 
  3 active torsions:
  status: ('A' for Active; 'I' for Inactive)
    1  A    between atoms: C_1  and  C_5
    2  A    between atoms: N_2  and  N_15
    3  A    between atoms: C_6  and  C_23
                            x       y       z     vdW  Elec       q    Type
                         _______ _______ _______ _____ _____    ______ ____

>  <TORSDO>
F 3

$$$$
=
 OpenBabel10272400443D

 25 28  0  0  1  0  0  0  0  0999 V2000
  190.1710  175.4720  137.5960 C   0  0  2  0  0  3  0  0  0  0  0  0
  190.6310  176.2520  138.7920 C   0  0  0  0  0  0  0  0  0  0  0  0
  193.8680  176.2350  137.4620 O   0  0  0  0  0  0  0  0  0  0  0  0
  192.6330  176.0680  137.6410 C   0  0  0  0  0  0  0  0  0  0  0  0
  192.4980  177.2810  139.9420 C   0  0  0  0  0  0  0  0  0  0  0  0
  193.7270  177.5450  139.9880 O   0  0  0  0  0  0  0  0  0  0  0  0
  189.7170  176.5740  139.9460 C   0  0  0  0  0  2  0  0  0  0  0  0
  191.5990  175.2180  136.4660 S   0  0  0  0  0  0  0  0  0  0  0  0
  191.6340  177.7140  140.9970 N   0  0  0  0  0  0  0  0  0  0  0  0
  190.3560  177.4470  141.0060 C   0  0  0  0  0  0  0  0  0  0  0  0
  191.9210  176.5430  138.8120 C   0  0  0  0  0  0  0  0  0  0  0  0
  189.0100  176.1190  136.8930 C   0  0  0  0  0  0  0  0  0  0  0  0
  186.9200  177.4480  135.5730 C   0  0  0  0  0  3  0  0  0  0  0  0
  187.8030  175.4420  136.6100 C   0  0  0  0  0  0  0  0  0  0  0  0
  186.7660  176.1130  135.9540 C   0  0  0  0  0  3  0  0  0  0  0  0
  188.1120  178.1200  135.8480 C   0  0  0  0  0  3  0  0  0  0  0  0
  187.6170  174.0760  136.9720 N   0  0  0  0  0  1  0  0  0  0  0  0
  189.1520  177.4570  136.5060 C   0  0  0  0  0  3  0  0  0  0  0  0
  189.5050  177.9000  142.1650 C   0  0  2  0  0  3  0  0  0  0  0  0
  189.8030  177.2280  143.4640 N   0  0  0  0  0  0  0  0  0  0  0  0
  188.6300  176.8420  142.6680 C   0  0  0  0  0  2  0  0  0  0  0  0
  190.7270  176.1770  143.3170 N   0  0  0  0  0  2  0  0  0  0  0  0
  192.3570  174.8020  144.2350 O   0  0  0  0  0  0  0  0  0  0  0  0
  191.6070  176.5390  145.6710 C   0  0  0  0  0  1  0  0  0  0  0  0
  191.5920  175.7900  144.3840 C   0  0  0  0  0  0  0  0  0  0  0  0
  1 12  1  6  0  0  0
  1  2  1  0  0  0  0
  2 11  2  0  0  0  0
  2  7  1  0  0  0  0
  3  4  2  0  0  0  0
  4 11  1  0  0  0  0
  5  6  2  0  0  0  0
  5  9  1  0  0  0  0
  7 10  1  0  0  0  0
  8  1  1  0  0  0  0
  8  4  1  0  0  0  0
  9 10  2  0  0  0  0
 11  5  1  0  0  0  0
 13 16  2  0  0  0  0
 13 15  1  0  0  0  0
 14 12  1  0  0  0  0
 14 17  1  0  0  0  0
 15 14  2  0  0  0  0
 16 18  1  0  0  0  0
 18 12  2  0  0  0  0
 19 10  1  6  0  0  0
 19 21  1  0  0  0  0
 19 20  1  0  0  0  0
 21 20  1  0  0  0  0
 22 20  1  0  0  0  0
 22 25  1  0  0  0  0
 23 25  2  0  0  0  0
 25 24  1  0  0  0  0
M  END
>  <MODEL>
9

>  <REMARK>
 VINA RESULT:      -6.6      4.516      7.989
  Name = 
  3 active torsions:
  status: ('A' for Active; 'I' for Inactive)
    1  A    between atoms: C_1  and  C_5
    2  A    between atoms: N_2  and  N_15
    3  A    between atoms: C_6  and  C_23
                            x       y       z     vdW  Elec       q    Type
                         _______ _______ _______ _____ _____    ______ ____

>  <TORSDO>
F 3

$$$$
