=
 OpenBabel10272414523D

 37 44  0  0  1  0  0  0  0  0999 V2000
  186.5840  177.6590  139.4300 C   0  0  1  0  0  3  0  0  0  0  0  0
  187.3150  176.0130  136.2180 C   0  0  0  0  0  2  0  0  0  0  0  0
  185.4170  178.3380  139.9920 C   0  0  2  0  0  3  0  0  0  0  0  0
  186.5420  177.5560  138.1120 C   0  0  2  0  0  3  0  0  0  0  0  0
  184.9080  179.1230  138.7870 C   0  0  1  0  0  3  0  0  0  0  0  0
  187.6490  177.0490  137.2630 C   0  0  0  0  0  0  0  0  0  0  0  0
  186.0230  179.1830  141.0940 C   0  0  0  0  0  2  0  0  0  0  0  0
  188.8370  178.6210  139.6530 C   0  0  0  0  0  3  0  0  0  0  0  0
  187.2860  178.4290  141.5190 C   0  0  0  0  0  2  0  0  0  0  0  0
  185.9830  176.2260  135.5010 C   0  0  0  0  0  2  0  0  0  0  0  0
  187.8050  177.7250  140.2700 C   0  0  1  0  0  3  0  0  0  0  0  0
  185.3320  178.2540  137.5680 C   0  0  2  0  0  3  0  0  0  0  0  0
  188.9410  177.4370  137.4400 C   0  0  0  0  0  0  0  0  0  0  0  0
  184.7620  175.9900  136.4020 C   0  0  2  0  0  3  0  0  0  0  0  0
  184.2420  177.2550  137.1040 C   0  0  2  0  0  3  0  0  0  0  0  0
  189.3430  178.4660  138.4280 C   0  0  0  0  0  3  0  0  0  0  0  0
  189.9070  176.9940  135.1650 C   0  0  0  0  0  3  0  0  0  0  0  0
  190.0300  176.9440  136.5630 C   0  0  0  0  0  0  0  0  0  0  0  0
  191.1760  176.3630  137.1270 C   0  0  0  0  0  3  0  0  0  0  0  0
  193.3550  175.2870  136.8890 N   0  0  0  0  0  1  0  0  0  0  0  0
  192.0690  175.9330  134.9180 C   0  0  0  0  0  3  0  0  0  0  0  0
  192.1940  175.8640  136.3080 C   0  0  0  0  0  0  0  0  0  0  0  0
  190.9250  176.4950  134.3460 C   0  0  0  0  0  3  0  0  0  0  0  0
  184.0460  173.6930  136.9300 C   0  0  1  0  0  3  0  0  0  0  0  0
  183.6600  174.5580  137.9690 O   0  0  0  0  0  0  0  0  0  0  0  0
  184.9030  174.8160  137.3660 C   0  0  2  0  0  3  0  0  0  0  0  0
  184.5610  172.4010  137.5240 C   0  0  0  0  0  1  0  0  0  0  0  0
  183.4210  179.5050  138.8650 C   0  0  2  0  0  3  0  0  0  0  0  0
  183.2820  180.8950  138.8480 O   0  0  0  0  0  1  0  0  0  0  0  0
  182.7160  178.9370  140.0980 C   0  0  0  0  0  2  0  0  0  0  0  0
  181.2300  179.2580  140.1030 C   0  0  1  0  0  3  0  0  0  0  0  0
  180.4950  178.2090  140.8440 C   0  0  0  0  0  2  0  0  0  0  0  0
  180.8110  179.4450  141.4340 O   0  0  0  0  0  0  0  0  0  0  0  0
  183.2630  177.9520  136.1680 C   0  0  0  0  0  2  0  0  0  0  0  0
  181.8660  177.3810  136.3280 C   0  0  0  0  0  3  0  0  0  0  0  0
  181.0620  177.6840  135.0800 C   0  0  0  0  0  2  0  0  0  0  0  0
  180.8560  178.5110  136.3320 C   0  0  0  0  0  2  0  0  0  0  0  0
  1  3  1  0  0  0  0
  1 11  1  0  0  0  0
  2  6  1  0  0  0  0
  3  7  1  0  0  0  0
  4  1  1  0  0  0  0
  5 28  1  0  0  0  0
  5  3  1  0  0  0  0
  6 13  2  0  0  0  0
  6  4  1  0  0  0  0
  7  9  1  0  0  0  0
  8 11  1  0  0  0  0
 10  2  1  0  0  0  0
 10 14  1  0  0  0  0
 11  9  1  0  0  0  0
 12  4  1  0  0  0  0
 12  5  1  0  0  0  0
 13 16  1  0  0  0  0
 14 15  1  0  0  0  0
 14 26  1  0  0  0  0
 15 12  1  0  0  0  0
 16  8  2  0  0  0  0
 17 18  1  0  0  0  0
 18 19  2  0  0  0  0
 18 13  1  0  0  0  0
 21 22  2  0  0  0  0
 22 20  1  0  0  0  0
 22 19  1  0  0  0  0
 23 21  1  0  0  0  0
 23 17  2  0  0  0  0
 24 26  1  0  0  0  0
 24 27  1  0  0  0  0
 24 25  1  0  0  0  0
 26 25  1  0  0  0  0
 28 30  1  0  0  0  0
 29 28  1  0  0  0  0
 30 31  1  0  0  0  0
 31 32  1  0  0  0  0
 31 33  1  0  0  0  0
 32 33  1  0  0  0  0
 34 35  1  0  0  0  0
 34 15  1  0  0  0  0
 35 37  1  0  0  0  0
 36 35  1  0  0  0  0
 36 37  1  0  0  0  0
M  END
>  <MODEL>
1

>  <REMARK>
 VINA RESULT:      -4.9      0.000      0.000
  Name = 
  7 active torsions:
  status: ('A' for Active; 'I' for Inactive)
    1  A    between atoms: C_1  and  C_5
    2  A    between atoms: C_1  and  C_36
    3  A    between atoms: C_3  and  C_30
    4  A    between atoms: C_6  and  C_31
    5  A    between atoms: C_13  and  C_20
    6  A    between atoms: C_20  and  C_30
    7  A    between atoms: C_26  and  C_33
                            x       y       z     vdW  Elec       q    Type
                         _______ _______ _______ _____ _____    ______ ____

>  <TORSDO>
F 7

$$$$
=
 OpenBabel10272414523D

 37 44  0  0  1  0  0  0  0  0999 V2000
  185.2130  176.9420  137.0570 C   0  0  1  0  0  3  0  0  0  0  0  0
  181.8240  176.4690  138.4180 C   0  0  0  0  0  2  0  0  0  0  0  0
  186.1830  176.0700  136.3970 C   0  0  2  0  0  3  0  0  0  0  0  0
  184.2820  176.2770  137.7210 C   0  0  2  0  0  3  0  0  0  0  0  0
  186.0350  174.7810  137.2000 C   0  0  1  0  0  3  0  0  0  0  0  0
  183.2590  176.8950  138.6020 C   0  0  0  0  0  0  0  0  0  0  0  0
  187.4900  176.8060  136.6090 C   0  0  0  0  0  2  0  0  0  0  0  0
  185.9070  178.4860  138.8420 C   0  0  0  0  0  3  0  0  0  0  0  0
  187.0960  178.2810  136.7280 C   0  0  0  0  0  2  0  0  0  0  0  0
  181.6250  174.9830  138.1260 C   0  0  0  0  0  2  0  0  0  0  0  0
  185.7110  178.3040  137.3660 C   0  0  1  0  0  3  0  0  0  0  0  0
  184.5520  174.8030  137.6710 C   0  0  2  0  0  3  0  0  0  0  0  0
  183.5660  177.8630  139.5070 C   0  0  0  0  0  0  0  0  0  0  0  0
  182.1270  174.5640  136.7360 C   0  0  2  0  0  3  0  0  0  0  0  0
  183.5810  174.0640  136.7160 C   0  0  2  0  0  3  0  0  0  0  0  0
  184.9540  178.3170  139.7610 C   0  0  0  0  0  3  0  0  0  0  0  0
  181.4530  179.1700  139.8750 C   0  0  0  0  0  3  0  0  0  0  0  0
  182.5370  178.4490  140.4010 C   0  0  0  0  0  0  0  0  0  0  0  0
  182.6720  178.3370  141.7930 C   0  0  0  0  0  3  0  0  0  0  0  0
  181.8660  178.7880  144.0540 N   0  0  0  0  0  1  0  0  0  0  0  0
  180.6420  179.6170  142.1120 C   0  0  0  0  0  3  0  0  0  0  0  0
  181.7260  178.9150  142.6450 C   0  0  0  0  0  0  0  0  0  0  0  0
  180.5070  179.7480  140.7280 C   0  0  0  0  0  3  0  0  0  0  0  0
  180.5300  175.3280  135.0250 C   0  0  1  0  0  3  0  0  0  0  0  0
  181.7180  174.9050  134.4050 O   0  0  0  0  0  0  0  0  0  0  0  0
  181.8550  175.5780  135.6310 C   0  0  2  0  0  3  0  0  0  0  0  0
  180.0350  176.5860  134.3460 C   0  0  0  0  0  1  0  0  0  0  0  0
  186.4910  173.5160  136.4540 C   0  0  2  0  0  3  0  0  0  0  0  0
  187.0770  172.6180  137.3490 O   0  0  0  0  0  1  0  0  0  0  0  0
  187.4680  173.8090  135.3130 C   0  0  0  0  0  2  0  0  0  0  0  0
  188.8620  173.2750  135.6060 C   0  0  1  0  0  3  0  0  0  0  0  0
  189.8710  174.1160  134.9270 C   0  0  0  0  0  2  0  0  0  0  0  0
  189.5900  174.2620  136.2960 O   0  0  0  0  0  0  0  0  0  0  0  0
  183.5790  172.5740  137.0300 C   0  0  0  0  0  2  0  0  0  0  0  0
  183.3060  171.7600  135.7770 C   0  0  0  0  0  3  0  0  0  0  0  0
  182.0730  170.9090  135.9990 C   0  0  0  0  0  2  0  0  0  0  0  0
  183.4490  170.2850  136.0930 C   0  0  0  0  0  2  0  0  0  0  0  0
  1 11  1  0  0  0  0
  1  4  1  0  0  0  0
  2  6  1  0  0  0  0
  3  7  1  0  0  0  0
  3  1  1  0  0  0  0
  3  5  1  0  0  0  0
  4  6  1  0  0  0  0
  5 12  1  0  0  0  0
  6 13  2  0  0  0  0
  7  9  1  0  0  0  0
  8 16  2  0  0  0  0
  9 11  1  0  0  0  0
 10  2  1  0  0  0  0
 11  8  1  0  0  0  0
 12  4  1  0  0  0  0
 13 16  1  0  0  0  0
 13 18  1  0  0  0  0
 14 10  1  0  0  0  0
 15 14  1  0  0  0  0
 15 34  1  0  0  0  0
 15 12  1  0  0  0  0
 17 18  2  0  0  0  0
 17 23  1  0  0  0  0
 18 19  1  0  0  0  0
 19 22  2  0  0  0  0
 21 22  1  0  0  0  0
 22 20  1  0  0  0  0
 23 21  2  0  0  0  0
 24 26  1  0  0  0  0
 25 24  1  0  0  0  0
 25 26  1  0  0  0  0
 26 14  1  0  0  0  0
 27 24  1  0  0  0  0
 28  5  1  0  0  0  0
 28 29  1  0  0  0  0
 30 31  1  0  0  0  0
 30 28  1  0  0  0  0
 31 33  1  0  0  0  0
 32 31  1  0  0  0  0
 32 33  1  0  0  0  0
 35 36  1  0  0  0  0
 35 37  1  0  0  0  0
 35 34  1  0  0  0  0
 36 37  1  0  0  0  0
M  END
>  <MODEL>
2

>  <REMARK>
 VINA RESULT:      -4.7      3.560      7.631
  Name = 
  7 active torsions:
  status: ('A' for Active; 'I' for Inactive)
    1  A    between atoms: C_1  and  C_5
    2  A    between atoms: C_1  and  C_36
    3  A    between atoms: C_3  and  C_30
    4  A    between atoms: C_6  and  C_31
    5  A    between atoms: C_13  and  C_20
    6  A    between atoms: C_20  and  C_30
    7  A    between atoms: C_26  and  C_33
                            x       y       z     vdW  Elec       q    Type
                         _______ _______ _______ _____ _____    ______ ____

>  <TORSDO>
F 7

$$$$
=
 OpenBabel10272414523D

 37 44  0  0  1  0  0  0  0  0999 V2000
  181.9820  176.8800  138.1260 C   0  0  1  0  0  3  0  0  0  0  0  0
  183.1920  180.2800  138.8620 C   0  0  0  0  0  2  0  0  0  0  0  0
  182.6300  175.5970  137.8600 C   0  0  2  0  0  3  0  0  0  0  0  0
  182.7880  177.9150  137.9600 C   0  0  2  0  0  3  0  0  0  0  0  0
  183.7990  176.0200  136.9770 C   0  0  1  0  0  3  0  0  0  0  0  0
  182.3690  179.3390  138.0170 C   0  0  0  0  0  0  0  0  0  0  0  0
  181.5430  174.8170  137.1480 C   0  0  0  0  0  2  0  0  0  0  0  0
  180.0970  177.6570  136.7480 C   0  0  0  0  0  3  0  0  0  0  0  0
  180.2290  175.4070  137.6690 C   0  0  0  0  0  2  0  0  0  0  0  0
  184.7000  180.0430  138.8100 C   0  0  0  0  0  2  0  0  0  0  0  0
  180.5070  176.8770  137.9630 C   0  0  1  0  0  3  0  0  0  0  0  0
  184.1260  177.4640  137.4560 C   0  0  2  0  0  3  0  0  0  0  0  0
  181.2490  179.7940  137.3930 C   0  0  0  0  0  0  0  0  0  0  0  0
  185.1340  178.7400  139.4980 C   0  0  2  0  0  3  0  0  0  0  0  0
  185.2150  177.5260  138.5570 C   0  0  2  0  0  3  0  0  0  0  0  0
  180.4050  178.9360  136.5280 C   0  0  0  0  0  3  0  0  0  0  0  0
  180.3780  181.8060  138.6180 C   0  0  0  0  0  3  0  0  0  0  0  0
  180.8620  181.2250  137.4340 C   0  0  0  0  0  0  0  0  0  0  0  0
  180.9180  182.0000  136.2670 C   0  0  0  0  0  3  0  0  0  0  0  0
  180.5930  184.1220  135.1010 N   0  0  0  0  0  1  0  0  0  0  0  0
  180.0580  183.9150  137.4730 C   0  0  0  0  0  3  0  0  0  0  0  0
  180.5230  183.3420  136.2870 C   0  0  0  0  0  0  0  0  0  0  0  0
  179.9830  183.1480  138.6380 C   0  0  0  0  0  3  0  0  0  0  0  0
  185.0440  179.0570  141.9380 C   0  0  1  0  0  3  0  0  0  0  0  0
  185.2170  177.6930  141.6470 O   0  0  0  0  0  0  0  0  0  0  0  0
  184.3790  178.4190  140.7830 C   0  0  2  0  0  3  0  0  0  0  0  0
  184.0590  179.2010  143.0770 C   0  0  0  0  0  1  0  0  0  0  0  0
  184.9730  175.0270  136.9660 C   0  0  2  0  0  3  0  0  0  0  0  0
  185.5820  175.0200  135.7090 O   0  0  0  0  0  1  0  0  0  0  0  0
  184.5610  173.6020  137.3400 C   0  0  0  0  0  2  0  0  0  0  0  0
  184.6710  172.6490  136.1590 C   0  0  1  0  0  3  0  0  0  0  0  0
  184.0530  171.3510  136.5070 C   0  0  0  0  0  2  0  0  0  0  0  0
  183.3740  172.3060  135.7320 O   0  0  0  0  0  0  0  0  0  0  0  0
  186.5980  177.5080  137.9190 C   0  0  0  0  0  2  0  0  0  0  0  0
  187.6790  177.6840  138.9720 C   0  0  0  0  0  3  0  0  0  0  0  0
  188.7300  178.6390  138.4470 C   0  0  0  0  0  2  0  0  0  0  0  0
  188.9930  177.1480  138.4400 C   0  0  0  0  0  2  0  0  0  0  0  0
  3  1  1  0  0  0  0
  4  6  1  0  0  0  0
  4  1  1  0  0  0  0
  5 12  1  0  0  0  0
  5  3  1  0  0  0  0
  6  2  1  0  0  0  0
  7  9  1  0  0  0  0
  7  3  1  0  0  0  0
  8 11  1  0  0  0  0
  9 11  1  0  0  0  0
 10  2  1  0  0  0  0
 10 14  1  0  0  0  0
 11  1  1  0  0  0  0
 12  4  1  0  0  0  0
 12 15  1  0  0  0  0
 13 18  1  0  0  0  0
 13  6  2  0  0  0  0
 14 26  1  0  0  0  0
 15 14  1  0  0  0  0
 16  8  2  0  0  0  0
 16 13  1  0  0  0  0
 17 23  1  0  0  0  0
 18 17  2  0  0  0  0
 19 22  2  0  0  0  0
 19 18  1  0  0  0  0
 20 22  1  0  0  0  0
 21 23  2  0  0  0  0
 22 21  1  0  0  0  0
 24 27  1  0  0  0  0
 25 24  1  0  0  0  0
 26 25  1  0  0  0  0
 26 24  1  0  0  0  0
 28  5  1  0  0  0  0
 28 30  1  0  0  0  0
 29 28  1  0  0  0  0
 31 32  1  0  0  0  0
 31 30  1  0  0  0  0
 33 31  1  0  0  0  0
 33 32  1  0  0  0  0
 34 15  1  0  0  0  0
 34 35  1  0  0  0  0
 36 35  1  0  0  0  0
 37 36  1  0  0  0  0
 37 35  1  0  0  0  0
M  END
>  <MODEL>
3

>  <REMARK>
 VINA RESULT:      -4.5      3.493      8.311
  Name = 
  7 active torsions:
  status: ('A' for Active; 'I' for Inactive)
    1  A    between atoms: C_1  and  C_5
    2  A    between atoms: C_1  and  C_36
    3  A    between atoms: C_3  and  C_30
    4  A    between atoms: C_6  and  C_31
    5  A    between atoms: C_13  and  C_20
    6  A    between atoms: C_20  and  C_30
    7  A    between atoms: C_26  and  C_33
                            x       y       z     vdW  Elec       q    Type
                         _______ _______ _______ _____ _____    ______ ____

>  <TORSDO>
F 7

$$$$
=
 OpenBabel10272414523D

 37 44  0  0  1  0  0  0  0  0999 V2000
  181.5890  178.6280  136.4600 C   0  0  1  0  0  3  0  0  0  0  0  0
  182.8320  175.9430  138.6520 C   0  0  0  0  0  2  0  0  0  0  0  0
  181.2950  180.0480  136.6440 C   0  0  2  0  0  3  0  0  0  0  0  0
  181.6480  177.9560  137.5980 C   0  0  2  0  0  3  0  0  0  0  0  0
  180.6420  180.0510  138.0230 C   0  0  1  0  0  3  0  0  0  0  0  0
  181.7850  176.4820  137.7090 C   0  0  0  0  0  0  0  0  0  0  0  0
  180.3550  180.3460  135.4930 C   0  0  0  0  0  2  0  0  0  0  0  0
  180.0310  177.1600  135.2470 C   0  0  0  0  0  3  0  0  0  0  0  0
  180.7320  179.3340  134.4070 C   0  0  0  0  0  2  0  0  0  0  0  0
  182.9800  176.7160  139.9620 C   0  0  0  0  0  2  0  0  0  0  0  0
  181.2090  178.0820  135.1340 C   0  0  1  0  0  3  0  0  0  0  0  0
  181.3060  178.8480  138.7530 C   0  0  2  0  0  3  0  0  0  0  0  0
  181.0500  175.6230  136.9530 C   0  0  0  0  0  0  0  0  0  0  0  0
  183.5910  178.1130  139.7770 C   0  0  2  0  0  3  0  0  0  0  0  0
  182.5560  179.2330  139.5830 C   0  0  2  0  0  3  0  0  0  0  0  0
  179.9880  176.0760  136.0230 C   0  0  0  0  0  3  0  0  0  0  0  0
  180.0840  173.3730  137.5160 C   0  0  0  0  0  3  0  0  0  0  0  0
  181.1760  174.1520  137.0990 C   0  0  0  0  0  0  0  0  0  0  0  0
  182.4130  173.5300  136.8780 C   0  0  0  0  0  3  0  0  0  0  0  0
  183.8080  171.5260  136.8110 N   0  0  0  0  0  1  0  0  0  0  0  0
  181.4560  171.3800  137.4470 C   0  0  0  0  0  3  0  0  0  0  0  0
  182.5520  172.1480  137.0460 C   0  0  0  0  0  0  0  0  0  0  0  0
  180.2230  171.9920  137.6840 C   0  0  0  0  0  3  0  0  0  0  0  0
  185.9650  178.6360  139.3840 C   0  0  1  0  0  3  0  0  0  0  0  0
  185.1600  179.5110  138.6340 O   0  0  0  0  0  0  0  0  0  0  0  0
  184.7120  178.1830  138.7450 C   0  0  2  0  0  3  0  0  0  0  0  0
  187.1480  178.2070  138.5430 C   0  0  0  0  0  1  0  0  0  0  0  0
  180.7060  181.4050  138.7490 C   0  0  2  0  0  3  0  0  0  0  0  0
  179.9820  181.3420  139.9420 O   0  0  0  0  0  1  0  0  0  0  0  0
  180.1900  182.5680  137.9010 C   0  0  0  0  0  2  0  0  0  0  0  0
  181.3180  183.4760  137.4340 C   0  0  1  0  0  3  0  0  0  0  0  0
  180.9440  184.1200  136.1560 C   0  0  0  0  0  2  0  0  0  0  0  0
  180.8420  184.8000  137.3830 O   0  0  0  0  0  0  0  0  0  0  0  0
  182.1320  179.7340  140.9580 C   0  0  0  0  0  2  0  0  0  0  0  0
  182.0000  178.5780  141.9340 C   0  0  0  0  0  3  0  0  0  0  0  0
  180.6260  178.6240  142.5710 C   0  0  0  0  0  2  0  0  0  0  0  0
  181.8330  179.1220  143.3390 C   0  0  0  0  0  2  0  0  0  0  0  0
  1  3  1  0  0  0  0
  1  4  1  0  0  0  0
  2 10  1  0  0  0  0
  3  5  1  0  0  0  0
  4  6  1  0  0  0  0
  4 12  1  0  0  0  0
  5 28  1  0  0  0  0
  5 12  1  0  0  0  0
  6  2  1  0  0  0  0
  7  3  1  0  0  0  0
  8 16  2  0  0  0  0
  9 11  1  0  0  0  0
  9  7  1  0  0  0  0
 11  8  1  0  0  0  0
 11  1  1  0  0  0  0
 12 15  1  0  0  0  0
 13 18  1  0  0  0  0
 13  6  2  0  0  0  0
 14 10  1  0  0  0  0
 15 14  1  0  0  0  0
 15 34  1  0  0  0  0
 16 13  1  0  0  0  0
 17 23  1  0  0  0  0
 18 17  2  0  0  0  0
 19 22  2  0  0  0  0
 19 18  1  0  0  0  0
 20 22  1  0  0  0  0
 21 23  2  0  0  0  0
 22 21  1  0  0  0  0
 25 26  1  0  0  0  0
 25 24  1  0  0  0  0
 26 24  1  0  0  0  0
 26 14  1  0  0  0  0
 27 24  1  0  0  0  0
 28 29  1  0  0  0  0
 30 28  1  0  0  0  0
 31 30  1  0  0  0  0
 32 33  1  0  0  0  0
 32 31  1  0  0  0  0
 33 31  1  0  0  0  0
 34 35  1  0  0  0  0
 35 36  1  0  0  0  0
 35 37  1  0  0  0  0
 36 37  1  0  0  0  0
M  END
>  <MODEL>
4

>  <REMARK>
 VINA RESULT:      -4.4      3.346      7.324
  Name = 
  7 active torsions:
  status: ('A' for Active; 'I' for Inactive)
    1  A    between atoms: C_1  and  C_5
    2  A    between atoms: C_1  and  C_36
    3  A    between atoms: C_3  and  C_30
    4  A    between atoms: C_6  and  C_31
    5  A    between atoms: C_13  and  C_20
    6  A    between atoms: C_20  and  C_30
    7  A    between atoms: C_26  and  C_33
                            x       y       z     vdW  Elec       q    Type
                         _______ _______ _______ _____ _____    ______ ____

>  <TORSDO>
F 7

$$$$
=
 OpenBabel10272414523D

 37 44  0  0  1  0  0  0  0  0999 V2000
  182.1360  177.8320  136.1360 C   0  0  1  0  0  3  0  0  0  0  0  0
  184.9800  175.6760  137.0460 C   0  0  0  0  0  2  0  0  0  0  0  0
  181.5970  179.0900  136.6510 C   0  0  2  0  0  3  0  0  0  0  0  0
  182.9320  177.2160  136.9940 C   0  0  2  0  0  3  0  0  0  0  0  0
  181.7420  178.8930  138.1570 C   0  0  1  0  0  3  0  0  0  0  0  0
  183.5020  175.8590  136.8030 C   0  0  0  0  0  0  0  0  0  0  0  0
  180.1710  179.0750  136.1400 C   0  0  0  0  0  2  0  0  0  0  0  0
  180.6500  175.9470  135.5950 C   0  0  0  0  0  3  0  0  0  0  0  0
  180.2190  178.2290  134.8650 C   0  0  0  0  0  2  0  0  0  0  0  0
  185.5410  176.4620  138.2300 C   0  0  0  0  0  2  0  0  0  0  0  0
  181.3140  177.1900  135.0810 C   0  0  1  0  0  3  0  0  0  0  0  0
  182.9800  177.9610  138.2950 C   0  0  2  0  0  3  0  0  0  0  0  0
  182.7550  174.8100  136.3620 C   0  0  0  0  0  0  0  0  0  0  0  0
  185.5720  177.9790  137.9930 C   0  0  2  0  0  3  0  0  0  0  0  0
  184.3170  178.7200  138.4840 C   0  0  2  0  0  3  0  0  0  0  0  0
  181.2950  174.9060  136.1250 C   0  0  0  0  0  3  0  0  0  0  0  0
  182.8370  172.3700  136.9490 C   0  0  0  0  0  3  0  0  0  0  0  0
  183.3330  173.4530  136.2060 C   0  0  0  0  0  0  0  0  0  0  0  0
  184.4270  173.2510  135.3530 C   0  0  0  0  0  3  0  0  0  0  0  0
  186.1040  171.7870  134.3480 N   0  0  0  0  0  1  0  0  0  0  0  0
  184.4910  170.9070  135.9560 C   0  0  0  0  0  3  0  0  0  0  0  0
  185.0010  171.9830  135.2240 C   0  0  0  0  0  0  0  0  0  0  0  0
  183.4110  171.1010  136.8200 C   0  0  0  0  0  3  0  0  0  0  0  0
  187.3740  178.0310  136.3160 C   0  0  1  0  0  3  0  0  0  0  0  0
  186.9950  179.3460  136.6410 O   0  0  0  0  0  0  0  0  0  0  0  0
  185.9650  178.3920  136.5790 C   0  0  2  0  0  3  0  0  0  0  0  0
  187.6040  177.9370  134.8230 C   0  0  0  0  0  1  0  0  0  0  0  0
  181.7860  180.2020  138.9630 C   0  0  2  0  0  3  0  0  0  0  0  0
  180.6790  180.2780  139.8120 O   0  0  0  0  0  1  0  0  0  0  0  0
  181.8390  181.4510  138.0820 C   0  0  0  0  0  2  0  0  0  0  0  0
  180.5780  182.2930  138.2100 C   0  0  1  0  0  3  0  0  0  0  0  0
  180.7150  183.5230  137.4010 C   0  0  0  0  0  2  0  0  0  0  0  0
  179.9840  182.4150  136.9400 O   0  0  0  0  0  0  0  0  0  0  0  0
  184.5130  179.0680  139.9540 C   0  0  0  0  0  2  0  0  0  0  0  0
  183.9110  177.9960  140.8460 C   0  0  0  0  0  3  0  0  0  0  0  0
  183.1590  178.6610  141.9800 C   0  0  0  0  0  2  0  0  0  0  0  0
  184.5350  178.0770  142.2240 C   0  0  0  0  0  2  0  0  0  0  0  0
  1  3  1  0  0  0  0
  1  4  1  0  0  0  0
  2 10  1  0  0  0  0
  3  5  1  0  0  0  0
  4 12  1  0  0  0  0
  5 12  1  0  0  0  0
  5 28  1  0  0  0  0
  6  4  1  0  0  0  0
  6  2  1  0  0  0  0
  7  3  1  0  0  0  0
  8 16  2  0  0  0  0
  9 11  1  0  0  0  0
  9  7  1  0  0  0  0
 11  8  1  0  0  0  0
 11  1  1  0  0  0  0
 12 15  1  0  0  0  0
 13  6  2  0  0  0  0
 14 10  1  0  0  0  0
 14 15  1  0  0  0  0
 15 34  1  0  0  0  0
 16 13  1  0  0  0  0
 18 13  1  0  0  0  0
 18 17  2  0  0  0  0
 19 18  1  0  0  0  0
 20 22  1  0  0  0  0
 21 23  2  0  0  0  0
 22 19  2  0  0  0  0
 22 21  1  0  0  0  0
 23 17  1  0  0  0  0
 24 26  1  0  0  0  0
 24 25  1  0  0  0  0
 26 25  1  0  0  0  0
 26 14  1  0  0  0  0
 27 24  1  0  0  0  0
 28 29  1  0  0  0  0
 30 31  1  0  0  0  0
 30 28  1  0  0  0  0
 32 31  1  0  0  0  0
 33 32  1  0  0  0  0
 33 31  1  0  0  0  0
 34 35  1  0  0  0  0
 35 36  1  0  0  0  0
 35 37  1  0  0  0  0
 36 37  1  0  0  0  0
M  END
>  <MODEL>
5

>  <REMARK>
 VINA RESULT:      -4.3      2.877      6.272
  Name = 
  7 active torsions:
  status: ('A' for Active; 'I' for Inactive)
    1  A    between atoms: C_1  and  C_5
    2  A    between atoms: C_1  and  C_36
    3  A    between atoms: C_3  and  C_30
    4  A    between atoms: C_6  and  C_31
    5  A    between atoms: C_13  and  C_20
    6  A    between atoms: C_20  and  C_30
    7  A    between atoms: C_26  and  C_33
                            x       y       z     vdW  Elec       q    Type
                         _______ _______ _______ _____ _____    ______ ____

>  <TORSDO>
F 7

$$$$
=
 OpenBabel10272414523D

 37 44  0  0  1  0  0  0  0  0999 V2000
  191.4270  176.9110  138.5730 C   0  0  1  0  0  3  0  0  0  0  0  0
  187.7670  177.0420  138.9640 C   0  0  0  0  0  2  0  0  0  0  0  0
  192.3360  176.2090  137.6690 C   0  0  2  0  0  3  0  0  0  0  0  0
  190.2170  176.3780  138.6130 C   0  0  2  0  0  3  0  0  0  0  0  0
  191.6740  174.8380  137.5710 C   0  0  1  0  0  3  0  0  0  0  0  0
  189.1360  176.7880  139.5450 C   0  0  0  0  0  0  0  0  0  0  0  0
  193.6460  176.2310  138.4310 C   0  0  0  0  0  2  0  0  0  0  0  0
  191.8680  177.0060  140.9910 C   0  0  0  0  0  3  0  0  0  0  0  0
  193.5660  177.4810  139.3130 C   0  0  0  0  0  2  0  0  0  0  0  0
  187.3460  176.0780  137.8570 C   0  0  0  0  0  2  0  0  0  0  0  0
  192.0930  177.6650  139.6630 C   0  0  1  0  0  3  0  0  0  0  0  0
  190.1610  175.1380  137.7710 C   0  0  2  0  0  3  0  0  0  0  0  0
  189.3580  176.9980  140.8710 C   0  0  0  0  0  0  0  0  0  0  0  0
  188.1420  176.2610  136.5560 C   0  0  2  0  0  3  0  0  0  0  0  0
  189.3880  175.3670  136.4480 C   0  0  2  0  0  3  0  0  0  0  0  0
  190.6680  176.7480  141.5160 C   0  0  0  0  0  3  0  0  0  0  0  0
  188.1620  176.8000  143.0700 C   0  0  0  0  0  3  0  0  0  0  0  0
  188.2610  177.3780  141.7940 C   0  0  0  0  0  0  0  0  0  0  0  0
  187.2720  178.2780  141.3730 C   0  0  0  0  0  3  0  0  0  0  0  0
  185.2220  179.5380  141.7910 N   0  0  0  0  0  1  0  0  0  0  0  0
  186.1330  178.0490  143.4970 C   0  0  0  0  0  3  0  0  0  0  0  0
  186.2140  178.6170  142.2230 C   0  0  0  0  0  0  0  0  0  0  0  0
  187.1040  177.1390  143.9200 C   0  0  0  0  0  3  0  0  0  0  0  0
  187.2000  178.4150  135.8250 C   0  0  1  0  0  3  0  0  0  0  0  0
  188.1000  177.9420  134.8550 O   0  0  0  0  0  0  0  0  0  0  0  0
  188.4450  177.7120  136.1980 C   0  0  2  0  0  3  0  0  0  0  0  0
  187.3890  179.9080  135.9910 C   0  0  0  0  0  1  0  0  0  0  0  0
  192.0470  174.0460  136.3060 C   0  0  2  0  0  3  0  0  0  0  0  0
  192.7870  172.9130  136.6530 O   0  0  0  0  0  1  0  0  0  0  0  0
  192.8310  174.8740  135.2860 C   0  0  0  0  0  2  0  0  0  0  0  0
  194.1630  174.2300  134.9330 C   0  0  1  0  0  3  0  0  0  0  0  0
  195.0680  175.2430  134.3480 C   0  0  0  0  0  2  0  0  0  0  0  0
  195.1780  174.8430  135.6910 O   0  0  0  0  0  0  0  0  0  0  0  0
  188.9650  174.0280  135.8560 C   0  0  0  0  0  2  0  0  0  0  0  0
  188.5930  173.0480  136.9550 C   0  0  0  0  0  3  0  0  0  0  0  0
  188.1940  171.7290  136.3270 C   0  0  0  0  0  2  0  0  0  0  0  0
  187.1290  172.6800  136.8290 C   0  0  0  0  0  2  0  0  0  0  0  0
  1  4  1  0  0  0  0
  1 11  1  0  0  0  0
  2  6  1  0  0  0  0
  3  7  1  0  0  0  0
  3  1  1  0  0  0  0
  4  6  1  0  0  0  0
  5  3  1  0  0  0  0
  5 12  1  0  0  0  0
  6 13  2  0  0  0  0
  7  9  1  0  0  0  0
  8 16  2  0  0  0  0
  9 11  1  0  0  0  0
 10  2  1  0  0  0  0
 11  8  1  0  0  0  0
 12  4  1  0  0  0  0
 13 16  1  0  0  0  0
 13 18  1  0  0  0  0
 14 10  1  0  0  0  0
 15 14  1  0  0  0  0
 15 12  1  0  0  0  0
 17 23  1  0  0  0  0
 18 17  2  0  0  0  0
 19 18  1  0  0  0  0
 19 22  2  0  0  0  0
 20 22  1  0  0  0  0
 21 23  2  0  0  0  0
 22 21  1  0  0  0  0
 24 27  1  0  0  0  0
 24 26  1  0  0  0  0
 25 24  1  0  0  0  0
 25 26  1  0  0  0  0
 26 14  1  0  0  0  0
 28 29  1  0  0  0  0
 28  5  1  0  0  0  0
 30 28  1  0  0  0  0
 31 30  1  0  0  0  0
 31 33  1  0  0  0  0
 32 31  1  0  0  0  0
 32 33  1  0  0  0  0
 34 15  1  0  0  0  0
 34 35  1  0  0  0  0
 36 37  1  0  0  0  0
 36 35  1  0  0  0  0
 37 35  1  0  0  0  0
M  END
>  <MODEL>
6

>  <REMARK>
 VINA RESULT:      -4.2      4.149      8.337
  Name = 
  7 active torsions:
  status: ('A' for Active; 'I' for Inactive)
    1  A    between atoms: C_1  and  C_5
    2  A    between atoms: C_1  and  C_36
    3  A    between atoms: C_3  and  C_30
    4  A    between atoms: C_6  and  C_31
    5  A    between atoms: C_13  and  C_20
    6  A    between atoms: C_20  and  C_30
    7  A    between atoms: C_26  and  C_33
                            x       y       z     vdW  Elec       q    Type
                         _______ _______ _______ _____ _____    ______ ____

>  <TORSDO>
F 7

$$$$
=
 OpenBabel10272414523D

 37 44  0  0  1  0  0  0  0  0999 V2000
  185.3330  174.5690  137.4480 C   0  0  1  0  0  3  0  0  0  0  0  0
  185.2420  178.2500  137.4130 C   0  0  0  0  0  2  0  0  0  0  0  0
  186.3550  173.5660  137.1510 C   0  0  2  0  0  3  0  0  0  0  0  0
  185.6080  175.7590  136.9390 C   0  0  2  0  0  3  0  0  0  0  0  0
  187.0310  174.1700  135.9240 C   0  0  1  0  0  3  0  0  0  0  0  0
  184.6880  176.9240  136.9560 C   0  0  0  0  0  0  0  0  0  0  0  0
  185.5310  172.3230  136.8790 C   0  0  0  0  0  2  0  0  0  0  0  0
  183.0370  174.3260  136.6010 C   0  0  0  0  0  3  0  0  0  0  0  0
  184.2470  172.5170  137.6900 C   0  0  0  0  0  2  0  0  0  0  0  0
  186.6680  178.5470  136.9510 C   0  0  0  0  0  2  0  0  0  0  0  0
  183.9830  174.0180  137.7230 C   0  0  1  0  0  3  0  0  0  0  0  0
  186.8630  175.7040  136.1220 C   0  0  2  0  0  3  0  0  0  0  0  0
  183.3690  176.8160  136.6370 C   0  0  0  0  0  0  0  0  0  0  0  0
  187.7230  177.6570  137.6240 C   0  0  2  0  0  3  0  0  0  0  0  0
  188.0580  176.3760  136.8430 C   0  0  2  0  0  3  0  0  0  0  0  0
  182.7580  175.5540  136.1580 C   0  0  0  0  0  3  0  0  0  0  0  0
  181.9000  178.4580  135.4310 C   0  0  0  0  0  3  0  0  0  0  0  0
  182.4710  177.9960  136.6280 C   0  0  0  0  0  0  0  0  0  0  0  0
  182.2310  178.7030  137.8160 C   0  0  0  0  0  3  0  0  0  0  0  0
  181.1670  180.5400  139.0230 N   0  0  0  0  0  1  0  0  0  0  0  0
  180.8360  180.2790  136.6190 C   0  0  0  0  0  3  0  0  0  0  0  0
  181.4120  179.8370  137.8130 C   0  0  0  0  0  0  0  0  0  0  0  0
  181.0810  179.5920  135.4280 C   0  0  0  0  0  3  0  0  0  0  0  0
  188.2330  178.3240  139.9390 C   0  0  1  0  0  3  0  0  0  0  0  0
  188.6730  177.0060  139.7210 O   0  0  0  0  0  0  0  0  0  0  0  0
  187.4670  177.3770  139.1010 C   0  0  2  0  0  3  0  0  0  0  0  0
  187.6010  178.4150  141.3110 C   0  0  0  0  0  1  0  0  0  0  0  0
  188.4650  173.6690  135.6840 C   0  0  2  0  0  3  0  0  0  0  0  0
  188.8210  173.8640  134.3470 O   0  0  0  0  0  1  0  0  0  0  0  0
  188.6600  172.1980  136.0540 C   0  0  0  0  0  2  0  0  0  0  0  0
  188.7910  171.3140  134.8230 C   0  0  1  0  0  3  0  0  0  0  0  0
  188.2940  169.9550  135.1300 C   0  0  0  0  0  2  0  0  0  0  0  0
  187.5080  170.8880  134.4330 O   0  0  0  0  0  0  0  0  0  0  0  0
  189.1540  176.7040  135.8370 C   0  0  0  0  0  2  0  0  0  0  0  0
  190.4850  176.9120  136.5390 C   0  0  0  0  0  3  0  0  0  0  0  0
  191.5730  176.2090  135.7530 C   0  0  0  0  0  2  0  0  0  0  0  0
  191.0190  175.5760  137.0120 C   0  0  0  0  0  2  0  0  0  0  0  0
  1 11  1  0  0  0  0
  3  1  1  0  0  0  0
  4  6  1  0  0  0  0
  4  1  1  0  0  0  0
  5 12  1  0  0  0  0
  5  3  1  0  0  0  0
  6  2  1  0  0  0  0
  7  3  1  0  0  0  0
  7  9  1  0  0  0  0
  8 11  1  0  0  0  0
  9 11  1  0  0  0  0
 10  2  1  0  0  0  0
 10 14  1  0  0  0  0
 12 15  1  0  0  0  0
 12  4  1  0  0  0  0
 13  6  2  0  0  0  0
 14 26  1  0  0  0  0
 15 14  1  0  0  0  0
 16  8  2  0  0  0  0
 16 13  1  0  0  0  0
 17 18  1  0  0  0  0
 18 13  1  0  0  0  0
 18 19  2  0  0  0  0
 21 22  2  0  0  0  0
 22 19  1  0  0  0  0
 22 20  1  0  0  0  0
 23 17  2  0  0  0  0
 23 21  1  0  0  0  0
 24 27  1  0  0  0  0
 25 24  1  0  0  0  0
 26 25  1  0  0  0  0
 26 24  1  0  0  0  0
 28  5  1  0  0  0  0
 28 30  1  0  0  0  0
 29 28  1  0  0  0  0
 31 32  1  0  0  0  0
 31 30  1  0  0  0  0
 33 31  1  0  0  0  0
 33 32  1  0  0  0  0
 34 35  1  0  0  0  0
 34 15  1  0  0  0  0
 35 37  1  0  0  0  0
 36 35  1  0  0  0  0
 36 37  1  0  0  0  0
M  END
>  <MODEL>
7

>  <REMARK>
 VINA RESULT:      -4.2      3.339      8.196
  Name = 
  7 active torsions:
  status: ('A' for Active; 'I' for Inactive)
    1  A    between atoms: C_1  and  C_5
    2  A    between atoms: C_1  and  C_36
    3  A    between atoms: C_3  and  C_30
    4  A    between atoms: C_6  and  C_31
    5  A    between atoms: C_13  and  C_20
    6  A    between atoms: C_20  and  C_30
    7  A    between atoms: C_26  and  C_33
                            x       y       z     vdW  Elec       q    Type
                         _______ _______ _______ _____ _____    ______ ____

>  <TORSDO>
F 7

$$$$
=
 OpenBabel10272414523D

 37 44  0  0  1  0  0  0  0  0999 V2000
  185.0610  177.9240  137.6210 C   0  0  1  0  0  3  0  0  0  0  0  0
  181.7790  177.7890  139.2870 C   0  0  0  0  0  2  0  0  0  0  0  0
  185.6660  177.2220  136.4910 C   0  0  2  0  0  3  0  0  0  0  0  0
  184.0070  177.2990  138.1190 C   0  0  2  0  0  3  0  0  0  0  0  0
  185.1630  175.7990  136.7070 C   0  0  1  0  0  3  0  0  0  0  0  0
  183.2840  177.6990  139.3520 C   0  0  0  0  0  0  0  0  0  0  0  0
  187.1490  177.4180  136.7330 C   0  0  0  0  0  2  0  0  0  0  0  0
  186.3080  178.2650  139.7140 C   0  0  0  0  0  3  0  0  0  0  0  0
  187.2500  178.7290  137.5180 C   0  0  0  0  0  2  0  0  0  0  0  0
  181.1030  176.7010  138.4550 C   0  0  0  0  0  2  0  0  0  0  0  0
  185.9820  178.8220  138.3600 C   0  0  1  0  0  3  0  0  0  0  0  0
  183.7920  175.9910  137.4190 C   0  0  2  0  0  3  0  0  0  0  0  0
  183.9320  178.0420  140.4990 C   0  0  0  0  0  0  0  0  0  0  0  0
  181.3680  176.8350  136.9480 C   0  0  2  0  0  3  0  0  0  0  0  0
  182.5850  176.0390  136.4490 C   0  0  2  0  0  3  0  0  0  0  0  0
  185.4040  177.9560  140.6460 C   0  0  0  0  0  3  0  0  0  0  0  0
  181.8110  178.6510  141.6980 C   0  0  0  0  0  3  0  0  0  0  0  0
  183.1940  178.4090  141.7310 C   0  0  0  0  0  0  0  0  0  0  0  0
  183.8870  178.5780  142.9390 C   0  0  0  0  0  3  0  0  0  0  0  0
  183.9160  179.1170  145.3210 N   0  0  0  0  0  1  0  0  0  0  0  0
  181.8270  179.1810  144.0590 C   0  0  0  0  0  3  0  0  0  0  0  0
  183.2060  178.9580  144.1000 C   0  0  0  0  0  0  0  0  0  0  0  0
  181.1300  179.0300  142.8590 C   0  0  0  0  0  3  0  0  0  0  0  0
  180.5100  178.3780  135.2320 C   0  0  1  0  0  3  0  0  0  0  0  0
  181.9100  178.2950  135.1320 O   0  0  0  0  0  0  0  0  0  0  0  0
  181.3690  178.2690  136.4300 C   0  0  2  0  0  3  0  0  0  0  0  0
  180.0830  179.8170  135.0410 C   0  0  0  0  0  1  0  0  0  0  0  0
  185.1520  174.9330  135.4360 C   0  0  2  0  0  3  0  0  0  0  0  0
  185.1470  173.5790  135.7800 O   0  0  0  0  0  1  0  0  0  0  0  0
  186.3300  175.2180  134.5030 C   0  0  0  0  0  2  0  0  0  0  0  0
  187.3560  174.0950  134.5220 C   0  0  1  0  0  3  0  0  0  0  0  0
  188.7160  174.6580  134.3810 C   0  0  0  0  0  2  0  0  0  0  0  0
  188.2030  174.2740  135.6320 O   0  0  0  0  0  0  0  0  0  0  0  0
  182.1280  174.6240  136.1190 C   0  0  0  0  0  2  0  0  0  0  0  0
  182.0790  173.7690  137.3720 C   0  0  0  0  0  3  0  0  0  0  0  0
  181.9590  172.3130  136.9720 C   0  0  0  0  0  2  0  0  0  0  0  0
  180.7380  173.0680  137.4530 C   0  0  0  0  0  2  0  0  0  0  0  0
  1  4  1  0  0  0  0
  1 11  1  0  0  0  0
  2  6  1  0  0  0  0
  3  5  1  0  0  0  0
  3  7  1  0  0  0  0
  3  1  1  0  0  0  0
  4  6  1  0  0  0  0
  5 12  1  0  0  0  0
  6 13  2  0  0  0  0
  7  9  1  0  0  0  0
  8 16  2  0  0  0  0
  9 11  1  0  0  0  0
 10  2  1  0  0  0  0
 11  8  1  0  0  0  0
 12  4  1  0  0  0  0
 13 16  1  0  0  0  0
 13 18  1  0  0  0  0
 14 10  1  0  0  0  0
 15 14  1  0  0  0  0
 15 12  1  0  0  0  0
 17 18  2  0  0  0  0
 17 23  1  0  0  0  0
 18 19  1  0  0  0  0
 19 22  2  0  0  0  0
 21 22  1  0  0  0  0
 22 20  1  0  0  0  0
 23 21  2  0  0  0  0
 24 26  1  0  0  0  0
 25 24  1  0  0  0  0
 25 26  1  0  0  0  0
 26 14  1  0  0  0  0
 27 24  1  0  0  0  0
 28 29  1  0  0  0  0
 28  5  1  0  0  0  0
 30 31  1  0  0  0  0
 30 28  1  0  0  0  0
 31 33  1  0  0  0  0
 32 31  1  0  0  0  0
 32 33  1  0  0  0  0
 34 15  1  0  0  0  0
 34 35  1  0  0  0  0
 35 37  1  0  0  0  0
 36 35  1  0  0  0  0
 36 37  1  0  0  0  0
M  END
>  <MODEL>
8

>  <REMARK>
 VINA RESULT:      -4.0      3.224      7.363
  Name = 
  7 active torsions:
  status: ('A' for Active; 'I' for Inactive)
    1  A    between atoms: C_1  and  C_5
    2  A    between atoms: C_1  and  C_36
    3  A    between atoms: C_3  and  C_30
    4  A    between atoms: C_6  and  C_31
    5  A    between atoms: C_13  and  C_20
    6  A    between atoms: C_20  and  C_30
    7  A    between atoms: C_26  and  C_33
                            x       y       z     vdW  Elec       q    Type
                         _______ _______ _______ _____ _____    ______ ____

>  <TORSDO>
F 7

$$$$
=
 OpenBabel10272414523D

 37 44  0  0  1  0  0  0  0  0999 V2000
  189.1610  176.6580  139.8580 C   0  0  1  0  0  3  0  0  0  0  0  0
  190.4930  175.4330  136.6510 C   0  0  0  0  0  2  0  0  0  0  0  0
  187.9260  177.3240  140.2680 C   0  0  2  0  0  3  0  0  0  0  0  0
  189.3930  176.7430  138.5590 C   0  0  2  0  0  3  0  0  0  0  0  0
  187.7070  178.3000  139.1170 C   0  0  1  0  0  3  0  0  0  0  0  0
  190.6360  176.2900  137.8850 C   0  0  0  0  0  0  0  0  0  0  0  0
  188.3150  177.9670  141.5840 C   0  0  0  0  0  2  0  0  0  0  0  0
  191.3490  177.4350  140.6730 C   0  0  0  0  0  3  0  0  0  0  0  0
  189.4360  177.0820  142.1370 C   0  0  0  0  0  2  0  0  0  0  0  0
  189.3490  175.8280  135.7190 C   0  0  0  0  0  2  0  0  0  0  0  0
  190.1810  176.5280  140.9280 C   0  0  1  0  0  3  0  0  0  0  0  0
  188.3470  177.5840  137.8920 C   0  0  2  0  0  3  0  0  0  0  0  0
  191.8740  176.5670  138.3750 C   0  0  0  0  0  0  0  0  0  0  0  0
  187.9590  175.5460  136.3090 C   0  0  2  0  0  3  0  0  0  0  0  0
  187.3460  176.7310  137.0730 C   0  0  2  0  0  3  0  0  0  0  0  0
  192.0940  177.4200  139.5670 C   0  0  0  0  0  3  0  0  0  0  0  0
  193.4440  176.6650  136.4170 C   0  0  0  0  0  3  0  0  0  0  0  0
  193.1060  176.1330  137.6720 C   0  0  0  0  0  0  0  0  0  0  0  0
  193.9180  175.1360  138.2320 C   0  0  0  0  0  3  0  0  0  0  0  0
  195.8860  173.6920  138.1430 N   0  0  0  0  0  1  0  0  0  0  0  0
  195.4000  175.2420  136.3210 C   0  0  0  0  0  3  0  0  0  0  0  0
  195.0640  174.6960  137.5620 C   0  0  0  0  0  0  0  0  0  0  0  0
  194.5900  176.2250  135.7470 C   0  0  0  0  0  3  0  0  0  0  0  0
  187.2070  173.2010  136.2710 C   0  0  1  0  0  3  0  0  0  0  0  0
  186.5030  173.9060  137.2630 O   0  0  0  0  0  0  0  0  0  0  0  0
  187.8570  174.2430  137.0950 C   0  0  2  0  0  3  0  0  0  0  0  0
  187.5750  171.8320  136.8010 C   0  0  0  0  0  1  0  0  0  0  0  0
  186.2490  178.7600  138.9480 C   0  0  2  0  0  3  0  0  0  0  0  0
  185.8680  179.5520  140.0340 O   0  0  0  0  0  1  0  0  0  0  0  0
  185.2650  177.5990  138.7940 C   0  0  0  0  0  2  0  0  0  0  0  0
  183.8290  178.0310  139.0520 C   0  0  1  0  0  3  0  0  0  0  0  0
  182.9240  176.8730  138.8950 C   0  0  0  0  0  2  0  0  0  0  0  0
  183.3350  177.3210  140.1620 O   0  0  0  0  0  0  0  0  0  0  0  0
  186.6080  177.6120  136.0740 C   0  0  0  0  0  2  0  0  0  0  0  0
  185.9150  176.7680  135.0200 C   0  0  0  0  0  3  0  0  0  0  0  0
  184.8310  177.5940  134.3590 C   0  0  0  0  0  2  0  0  0  0  0  0
  184.4640  176.5660  135.4090 C   0  0  0  0  0  2  0  0  0  0  0  0
  1  3  1  0  0  0  0
  1 11  1  0  0  0  0
  2  6  1  0  0  0  0
  3  7  1  0  0  0  0
  4  1  1  0  0  0  0
  5  3  1  0  0  0  0
  6 13  2  0  0  0  0
  6  4  1  0  0  0  0
  7  9  1  0  0  0  0
  8 11  1  0  0  0  0
 10 14  1  0  0  0  0
 10  2  1  0  0  0  0
 11  9  1  0  0  0  0
 12  4  1  0  0  0  0
 12  5  1  0  0  0  0
 13 16  1  0  0  0  0
 14 15  1  0  0  0  0
 14 26  1  0  0  0  0
 15 12  1  0  0  0  0
 16  8  2  0  0  0  0
 17 18  1  0  0  0  0
 18 19  2  0  0  0  0
 18 13  1  0  0  0  0
 21 22  2  0  0  0  0
 22 20  1  0  0  0  0
 22 19  1  0  0  0  0
 23 21  1  0  0  0  0
 23 17  2  0  0  0  0
 24 27  1  0  0  0  0
 24 26  1  0  0  0  0
 24 25  1  0  0  0  0
 26 25  1  0  0  0  0
 28  5  1  0  0  0  0
 28 29  1  0  0  0  0
 30 28  1  0  0  0  0
 30 31  1  0  0  0  0
 31 33  1  0  0  0  0
 32 31  1  0  0  0  0
 32 33  1  0  0  0  0
 34 15  1  0  0  0  0
 35 37  1  0  0  0  0
 35 34  1  0  0  0  0
 36 35  1  0  0  0  0
 36 37  1  0  0  0  0
M  END
>  <MODEL>
9

>  <REMARK>
 VINA RESULT:      -3.9      2.187      3.264
  Name = 
  7 active torsions:
  status: ('A' for Active; 'I' for Inactive)
    1  A    between atoms: C_1  and  C_5
    2  A    between atoms: C_1  and  C_36
    3  A    between atoms: C_3  and  C_30
    4  A    between atoms: C_6  and  C_31
    5  A    between atoms: C_13  and  C_20
    6  A    between atoms: C_20  and  C_30
    7  A    between atoms: C_26  and  C_33
                            x       y       z     vdW  Elec       q    Type
                         _______ _______ _______ _____ _____    ______ ____

>  <TORSDO>
F 7

$$$$
