=
 OpenBabel10262423563D

 34 38  0  0  1  0  0  0  0  0999 V2000
  185.3580  178.3730  144.8110 C   0  0  0  0  0  0  0  0  0  0  0  0
  184.2180  178.8500  142.5940 C   0  0  0  0  0  2  0  0  0  0  0  0
  186.7210  178.3830  142.7830 C   0  0  0  0  0  0  0  0  0  0  0  0
  188.3690  178.4220  140.8150 C   0  0  2  0  0  3  0  0  0  0  0  0
  182.9500  178.7930  144.8500 C   0  0  0  0  0  3  0  0  0  0  0  0
  181.8730  179.2260  142.8030 O   0  0  0  0  0  0  0  0  0  0  0  0
  186.0260  178.9190  140.5430 O   0  0  0  0  0  0  0  0  0  0  0  0
  185.4540  178.5280  143.4080 C   0  0  0  0  0  0  0  0  0  0  0  0
  184.0720  178.5160  145.5080 C   0  0  0  0  0  3  0  0  0  0  0  0
  187.8500  178.0530  143.5630 C   0  0  0  0  0  0  0  0  0  0  0  0
  186.4920  178.0870  145.5700 C   0  0  0  0  0  3  0  0  0  0  0  0
  182.9540  178.9680  143.3940 C   0  0  0  0  0  0  0  0  0  0  0  0
  189.0440  177.4400  141.5660 O   0  0  0  0  0  0  0  0  0  0  0  0
  189.2000  177.9400  142.8750 C   0  0  2  0  0  3  0  0  0  0  0  0
  186.9520  178.5700  141.3240 C   0  0  0  0  0  0  0  0  0  0  0  0
  187.7300  177.9350  144.9530 C   0  0  0  0  0  3  0  0  0  0  0  0
  191.5020  176.6530  145.5840 C   0  0  0  0  0  0  0  0  0  0  0  0
  191.9400  175.4560  145.0140 C   0  0  0  0  0  3  0  0  0  0  0  0
  190.1680  177.0750  143.6230 C   0  0  0  0  0  0  0  0  0  0  0  0
  191.4740  175.0940  143.7480 C   0  0  0  0  0  3  0  0  0  0  0  0
  190.6100  177.4700  144.8890 C   0  0  0  0  0  3  0  0  0  0  0  0
  190.6050  175.9030  143.0840 N   0  0  0  0  0  0  0  0  0  0  0  0
  191.9530  177.0280  146.8420 O   0  0  0  0  0  1  0  0  0  0  0  0
  188.4150  178.0330  139.3440 C   0  0  0  0  0  2  0  0  0  0  0  0
  188.9520  179.1300  138.5570 N   0  0  0  0  0  2  0  0  0  0  0  0
  189.1200  178.6280  137.2070 C   0  0  0  0  0  2  0  0  0  0  0  0
  189.1490  177.1050  137.2330 C   0  0  0  0  0  2  0  0  0  0  0  0
  191.5290  176.5200  138.9710 O   0  0  0  0  0  0  0  0  0  0  0  0
  190.5040  176.5400  136.8050 C   0  0  1  0  0  3  0  0  0  0  0  0
  191.2180  175.8620  137.9430 C   0  0  0  0  0  0  0  0  0  0  0  0
  191.3180  173.7840  136.7910 C   0  0  0  0  0  3  0  0  0  0  0  0
  190.7320  174.3920  135.6330 N   0  0  0  0  0  0  0  0  0  0  0  0
  190.3630  175.6380  135.6080 C   0  0  0  0  0  3  0  0  0  0  0  0
  191.5480  174.4730  137.8660 N   0  0  0  0  0  0  0  0  0  0  0  0
  1  9  1  0  0  0  0
  1 11  1  0  0  0  0
  2 12  1  0  0  0  0
  2  8  1  0  0  0  0
  3  8  1  0  0  0  0
  3 10  2  0  0  0  0
  4 24  1  6  0  0  0
  4 15  1  0  0  0  0
  4 13  1  0  0  0  0
  5  9  2  0  0  0  0
  6 12  2  0  0  0  0
  7 15  2  0  0  0  0
  8  1  2  0  0  0  0
 10 16  1  0  0  0  0
 12  5  1  0  0  0  0
 13 14  1  0  0  0  0
 14 10  1  0  0  0  0
 14 19  1  1  0  0  0
 15  3  1  0  0  0  0
 16 11  2  0  0  0  0
 17 23  1  0  0  0  0
 18 17  1  0  0  0  0
 19 21  1  0  0  0  0
 20 18  2  0  0  0  0
 21 17  2  0  0  0  0
 22 19  2  0  0  0  0
 22 20  1  0  0  0  0
 25 24  1  0  0  0  0
 26 27  1  0  0  0  0
 26 25  1  0  0  0  0
 29 27  1  1  0  0  0
 29 30  1  0  0  0  0
 30 28  2  0  0  0  0
 31 34  2  0  0  0  0
 32 31  1  0  0  0  0
 33 32  2  0  0  0  0
 33 29  1  0  0  0  0
 34 30  1  0  0  0  0
M  END
>  <MODEL>
1

>  <REMARK>
 VINA RESULT:     -10.0      0.000      0.000
  Name = 
  6 active torsions:
  status: ('A' for Active; 'I' for Inactive)
    1  A    between atoms: C_3  and  C_13
    2  A    between atoms: C_3  and  C_17
    3  A    between atoms: C_5  and  C_18
    4  A    between atoms: C_12  and  C_28
    5  A    between atoms: C_17  and  N_29
    6  A    between atoms: C_18  and  N_29
                            x       y       z     vdW  Elec       q    Type
                         _______ _______ _______ _____ _____    ______ ____

>  <TORSDO>
F 6

$$$$
=
 OpenBabel10262423563D

 34 38  0  0  1  0  0  0  0  0999 V2000
  185.7540  178.3270  145.2360 C   0  0  0  0  0  0  0  0  0  0  0  0
  184.6190  178.6160  142.9840 C   0  0  0  0  0  2  0  0  0  0  0  0
  187.1100  178.1080  143.2150 C   0  0  0  0  0  0  0  0  0  0  0  0
  188.7530  177.9150  141.2520 C   0  0  2  0  0  3  0  0  0  0  0  0
  183.3570  178.8090  145.2360 C   0  0  0  0  0  3  0  0  0  0  0  0
  182.2850  179.0690  143.1580 O   0  0  0  0  0  0  0  0  0  0  0  0
  186.4220  178.4410  140.9340 O   0  0  0  0  0  0  0  0  0  0  0  0
  185.8500  178.3440  143.8240 C   0  0  0  0  0  0  0  0  0  0  0  0
  184.4740  178.5690  145.9170 C   0  0  0  0  0  3  0  0  0  0  0  0
  188.2340  177.8270  144.0230 C   0  0  0  0  0  0  0  0  0  0  0  0
  186.8830  178.0880  146.0180 C   0  0  0  0  0  3  0  0  0  0  0  0
  183.3610  178.8430  143.7700 C   0  0  0  0  0  0  0  0  0  0  0  0
  189.4060  176.9950  142.0930 O   0  0  0  0  0  0  0  0  0  0  0  0
  189.5780  177.6140  143.3480 C   0  0  2  0  0  3  0  0  0  0  0  0
  187.3420  178.1470  141.7450 C   0  0  0  0  0  0  0  0  0  0  0  0
  188.1150  177.8470  145.4180 C   0  0  0  0  0  3  0  0  0  0  0  0
  191.6880  176.4290  146.2530 C   0  0  0  0  0  0  0  0  0  0  0  0
  192.2640  175.2780  145.7110 C   0  0  0  0  0  3  0  0  0  0  0  0
  190.5270  176.8020  144.1750 C   0  0  0  0  0  0  0  0  0  0  0  0
  191.9520  174.9140  144.3980 C   0  0  0  0  0  3  0  0  0  0  0  0
  190.8120  177.1980  145.4850 C   0  0  0  0  0  3  0  0  0  0  0  0
  191.0970  175.6760  143.6640 N   0  0  0  0  0  0  0  0  0  0  0  0
  191.9850  176.8060  147.5550 O   0  0  0  0  0  1  0  0  0  0  0  0
  188.7840  177.3850  139.8250 C   0  0  0  0  0  2  0  0  0  0  0  0
  190.0630  177.6930  139.2090 N   0  0  0  0  0  2  0  0  0  0  0  0
  189.8180  177.8110  137.7840 C   0  0  0  0  0  2  0  0  0  0  0  0
  190.7790  176.9030  137.0280 C   0  0  0  0  0  2  0  0  0  0  0  0
  190.4920  173.9840  137.6770 O   0  0  0  0  0  0  0  0  0  0  0  0
  191.6480  176.0630  137.9650 C   0  0  1  0  0  3  0  0  0  0  0  0
  191.5900  174.5980  137.6260 C   0  0  0  0  0  0  0  0  0  0  0  0
  193.9370  174.4740  137.2630 C   0  0  0  0  0  3  0  0  0  0  0  0
  194.0770  175.8400  137.6730 N   0  0  0  0  0  0  0  0  0  0  0  0
  193.0610  176.5790  138.0050 C   0  0  0  0  0  3  0  0  0  0  0  0
  192.7760  173.8950  137.2470 N   0  0  0  0  0  0  0  0  0  0  0  0
  1  9  1  0  0  0  0
  1 11  1  0  0  0  0
  2 12  1  0  0  0  0
  2  8  1  0  0  0  0
  3  8  1  0  0  0  0
  3 10  2  0  0  0  0
  4 24  1  6  0  0  0
  4 15  1  0  0  0  0
  4 13  1  0  0  0  0
  5  9  2  0  0  0  0
  6 12  2  0  0  0  0
  7 15  2  0  0  0  0
  8  1  2  0  0  0  0
 10 16  1  0  0  0  0
 12  5  1  0  0  0  0
 13 14  1  0  0  0  0
 14 10  1  0  0  0  0
 14 19  1  1  0  0  0
 15  3  1  0  0  0  0
 16 11  2  0  0  0  0
 17 23  1  0  0  0  0
 18 17  1  0  0  0  0
 19 21  1  0  0  0  0
 20 18  2  0  0  0  0
 21 17  2  0  0  0  0
 22 19  2  0  0  0  0
 22 20  1  0  0  0  0
 25 24  1  0  0  0  0
 26 25  1  0  0  0  0
 27 26  1  0  0  0  0
 29 27  1  6  0  0  0
 29 33  1  0  0  0  0
 30 28  2  0  0  0  0
 30 29  1  0  0  0  0
 31 32  1  0  0  0  0
 32 33  2  0  0  0  0
 34 31  2  0  0  0  0
 34 30  1  0  0  0  0
M  END
>  <MODEL>
2

>  <REMARK>
 VINA RESULT:      -9.9      1.206      1.479
  Name = 
  6 active torsions:
  status: ('A' for Active; 'I' for Inactive)
    1  A    between atoms: C_3  and  C_13
    2  A    between atoms: C_3  and  C_17
    3  A    between atoms: C_5  and  C_18
    4  A    between atoms: C_12  and  C_28
    5  A    between atoms: C_17  and  N_29
    6  A    between atoms: C_18  and  N_29
                            x       y       z     vdW  Elec       q    Type
                         _______ _______ _______ _____ _____    ______ ____

>  <TORSDO>
F 6

$$$$
=
 OpenBabel10262423563D

 34 38  0  0  1  0  0  0  0  0999 V2000
  185.9210  178.2270  145.3180 C   0  0  0  0  0  0  0  0  0  0  0  0
  184.8940  178.5980  143.0260 C   0  0  0  0  0  2  0  0  0  0  0  0
  187.3700  178.0690  143.3560 C   0  0  0  0  0  0  0  0  0  0  0  0
  189.1010  177.9360  141.4660 C   0  0  2  0  0  3  0  0  0  0  0  0
  183.5280  178.7210  145.2230 C   0  0  0  0  0  3  0  0  0  0  0  0
  182.5560  179.0570  143.1070 O   0  0  0  0  0  0  0  0  0  0  0  0
  186.7900  178.4850  141.0580 O   0  0  0  0  0  0  0  0  0  0  0  0
  186.0820  178.2910  143.9140 C   0  0  0  0  0  0  0  0  0  0  0  0
  184.6110  178.4520  145.9460 C   0  0  0  0  0  3  0  0  0  0  0  0
  188.4520  177.7550  144.2050 C   0  0  0  0  0  0  0  0  0  0  0  0
  187.0110  177.9540  146.1430 C   0  0  0  0  0  3  0  0  0  0  0  0
  183.6010  178.8040  143.7600 C   0  0  0  0  0  0  0  0  0  0  0  0
  189.7110  176.9830  142.3050 O   0  0  0  0  0  0  0  0  0  0  0  0
  189.8260  177.5590  143.5870 C   0  0  2  0  0  3  0  0  0  0  0  0
  187.6700  178.1580  141.9000 C   0  0  0  0  0  0  0  0  0  0  0  0
  188.2690  177.7280  145.5930 C   0  0  0  0  0  3  0  0  0  0  0  0
  191.8320  176.2900  146.5310 C   0  0  0  0  0  0  0  0  0  0  0  0
  192.3900  175.1290  145.9920 C   0  0  0  0  0  3  0  0  0  0  0  0
  190.7320  176.7140  144.4290 C   0  0  0  0  0  0  0  0  0  0  0  0
  192.1010  174.7860  144.6690 C   0  0  0  0  0  3  0  0  0  0  0  0
  190.9960  177.0890  145.7490 C   0  0  0  0  0  3  0  0  0  0  0  0
  191.2850  175.5770  143.9220 N   0  0  0  0  0  0  0  0  0  0  0  0
  192.1060  176.6470  147.8440 O   0  0  0  0  0  1  0  0  0  0  0  0
  189.1980  177.4550  140.0250 C   0  0  0  0  0  2  0  0  0  0  0  0
  190.4720  176.7920  139.8070 N   0  0  0  0  0  2  0  0  0  0  0  0
  190.7050  176.8050  138.3750 C   0  0  0  0  0  2  0  0  0  0  0  0
  189.9030  175.6880  137.7220 C   0  0  0  0  0  2  0  0  0  0  0  0
  187.0980  174.7300  137.2310 O   0  0  0  0  0  0  0  0  0  0  0  0
  188.9020  176.2130  136.6920 C   0  0  1  0  0  3  0  0  0  0  0  0
  187.4800  175.9220  137.0890 C   0  0  0  0  0  0  0  0  0  0  0  0
  186.8880  178.2250  137.0860 C   0  0  0  0  0  3  0  0  0  0  0  0
  188.1970  178.5650  136.6110 N   0  0  0  0  0  0  0  0  0  0  0  0
  189.1240  177.6750  136.4150 C   0  0  0  0  0  3  0  0  0  0  0  0
  186.5550  176.9910  137.3040 N   0  0  0  0  0  0  0  0  0  0  0  0
  1  9  1  0  0  0  0
  1 11  1  0  0  0  0
  2 12  1  0  0  0  0
  2  8  1  0  0  0  0
  3  8  1  0  0  0  0
  3 10  2  0  0  0  0
  4 24  1  6  0  0  0
  4 15  1  0  0  0  0
  4 13  1  0  0  0  0
  5  9  2  0  0  0  0
  6 12  2  0  0  0  0
  7 15  2  0  0  0  0
  8  1  2  0  0  0  0
 10 16  1  0  0  0  0
 12  5  1  0  0  0  0
 13 14  1  0  0  0  0
 14 10  1  0  0  0  0
 14 19  1  1  0  0  0
 15  3  1  0  0  0  0
 16 11  2  0  0  0  0
 17 23  1  0  0  0  0
 18 17  1  0  0  0  0
 19 21  1  0  0  0  0
 20 18  2  0  0  0  0
 21 17  2  0  0  0  0
 22 19  2  0  0  0  0
 22 20  1  0  0  0  0
 25 24  1  0  0  0  0
 26 25  1  0  0  0  0
 27 26  1  0  0  0  0
 29 30  1  0  0  0  0
 29 27  1  1  0  0  0
 30 28  2  0  0  0  0
 30 34  1  0  0  0  0
 31 34  2  0  0  0  0
 32 31  1  0  0  0  0
 33 32  2  0  0  0  0
 33 29  1  0  0  0  0
M  END
>  <MODEL>
3

>  <REMARK>
 VINA RESULT:      -9.7      1.607      2.346
  Name = 
  6 active torsions:
  status: ('A' for Active; 'I' for Inactive)
    1  A    between atoms: C_3  and  C_13
    2  A    between atoms: C_3  and  C_17
    3  A    between atoms: C_5  and  C_18
    4  A    between atoms: C_12  and  C_28
    5  A    between atoms: C_17  and  N_29
    6  A    between atoms: C_18  and  N_29
                            x       y       z     vdW  Elec       q    Type
                         _______ _______ _______ _____ _____    ______ ____

>  <TORSDO>
F 6

$$$$
=
 OpenBabel10262423563D

 34 38  0  0  1  0  0  0  0  0999 V2000
  188.1740  177.6440  146.6320 C   0  0  0  0  0  0  0  0  0  0  0  0
  190.6450  177.2350  146.2160 C   0  0  0  0  0  2  0  0  0  0  0  0
  188.9220  177.2860  144.3330 C   0  0  0  0  0  0  0  0  0  0  0  0
  189.4460  176.8570  141.8570 C   0  0  2  0  0  3  0  0  0  0  0  0
  189.6570  177.6350  148.5760 C   0  0  0  0  0  3  0  0  0  0  0  0
  191.9520  177.2690  148.2090 O   0  0  0  0  0  0  0  0  0  0  0  0
  191.1380  176.7440  143.5710 O   0  0  0  0  0  0  0  0  0  0  0  0
  189.2230  177.3920  145.7170 C   0  0  0  0  0  0  0  0  0  0  0  0
  188.4310  177.7590  148.0750 C   0  0  0  0  0  3  0  0  0  0  0  0
  187.5920  177.4680  143.8930 C   0  0  0  0  0  0  0  0  0  0  0  0
  186.8620  177.7800  146.1830 C   0  0  0  0  0  3  0  0  0  0  0  0
  190.8060  177.3770  147.7020 C   0  0  0  0  0  0  0  0  0  0  0  0
  188.3840  177.7540  141.6390 O   0  0  0  0  0  0  0  0  0  0  0  0
  187.2900  177.3130  142.4120 C   0  0  2  0  0  3  0  0  0  0  0  0
  189.9330  176.9780  143.2850 C   0  0  0  0  0  0  0  0  0  0  0  0
  186.5700  177.6860  144.8250 C   0  0  0  0  0  3  0  0  0  0  0  0
  184.8450  179.3050  140.3270 C   0  0  0  0  0  0  0  0  0  0  0  0
  183.7540  179.3790  141.1950 C   0  0  0  0  0  3  0  0  0  0  0  0
  186.0550  178.0460  141.9870 C   0  0  0  0  0  0  0  0  0  0  0  0
  183.8420  178.7770  142.4520 C   0  0  0  0  0  3  0  0  0  0  0  0
  186.0040  178.6350  140.7200 C   0  0  0  0  0  3  0  0  0  0  0  0
  184.9800  178.1280  142.8190 N   0  0  0  0  0  0  0  0  0  0  0  0
  184.7760  179.8970  139.0730 O   0  0  0  0  0  1  0  0  0  0  0  0
  190.5480  177.1460  140.8480 C   0  0  0  0  0  2  0  0  0  0  0  0
  190.5540  176.1260  139.8130 N   0  0  0  0  0  2  0  0  0  0  0  0
  191.2850  176.6790  138.6890 C   0  0  0  0  0  2  0  0  0  0  0  0
  190.3410  176.8500  137.5060 C   0  0  0  0  0  2  0  0  0  0  0  0
  188.9810  179.2750  138.6430 O   0  0  0  0  0  0  0  0  0  0  0  0
  188.8810  176.9870  137.9380 C   0  0  1  0  0  3  0  0  0  0  0  0
  188.4170  178.4180  137.9130 C   0  0  0  0  0  0  0  0  0  0  0  0
  186.6780  177.9450  136.3610 C   0  0  0  0  0  3  0  0  0  0  0  0
  187.0030  176.5500  136.4160 N   0  0  0  0  0  0  0  0  0  0  0  0
  187.9870  176.0880  137.1270 C   0  0  0  0  0  3  0  0  0  0  0  0
  187.3360  178.8130  137.0640 N   0  0  0  0  0  0  0  0  0  0  0  0
  1  9  1  0  0  0  0
  2 12  1  0  0  0  0
  3  8  1  0  0  0  0
  4 24  1  6  0  0  0
  4 15  1  0  0  0  0
  8  2  1  0  0  0  0
  8  1  2  0  0  0  0
  9  5  2  0  0  0  0
 10  3  2  0  0  0  0
 10 16  1  0  0  0  0
 11  1  1  0  0  0  0
 12  6  2  0  0  0  0
 12  5  1  0  0  0  0
 13  4  1  0  0  0  0
 13 14  1  0  0  0  0
 14 19  1  6  0  0  0
 14 10  1  0  0  0  0
 15  7  2  0  0  0  0
 15  3  1  0  0  0  0
 16 11  2  0  0  0  0
 17 21  2  0  0  0  0
 17 18  1  0  0  0  0
 18 20  2  0  0  0  0
 19 22  2  0  0  0  0
 20 22  1  0  0  0  0
 21 19  1  0  0  0  0
 23 17  1  0  0  0  0
 25 24  1  0  0  0  0
 26 25  1  0  0  0  0
 27 26  1  0  0  0  0
 29 27  1  6  0  0  0
 30 29  1  0  0  0  0
 30 28  2  0  0  0  0
 31 32  1  0  0  0  0
 31 34  2  0  0  0  0
 32 33  2  0  0  0  0
 33 29  1  0  0  0  0
 34 30  1  0  0  0  0
M  END
>  <MODEL>
4

>  <REMARK>
 VINA RESULT:      -9.6      2.201      5.701
  Name = 
  6 active torsions:
  status: ('A' for Active; 'I' for Inactive)
    1  A    between atoms: C_3  and  C_13
    2  A    between atoms: C_3  and  C_17
    3  A    between atoms: C_5  and  C_18
    4  A    between atoms: C_12  and  C_28
    5  A    between atoms: C_17  and  N_29
    6  A    between atoms: C_18  and  N_29
                            x       y       z     vdW  Elec       q    Type
                         _______ _______ _______ _____ _____    ______ ____

>  <TORSDO>
F 6

$$$$
=
 OpenBabel10262423563D

 34 38  0  0  1  0  0  0  0  0999 V2000
  183.6270  178.7190  144.2690 C   0  0  0  0  0  0  0  0  0  0  0  0
  183.3990  178.6690  141.7410 C   0  0  0  0  0  2  0  0  0  0  0  0
  185.6580  178.5300  142.9230 C   0  0  0  0  0  0  0  0  0  0  0  0
  187.9280  178.4110  141.7310 C   0  0  2  0  0  3  0  0  0  0  0  0
  181.3710  178.8630  143.3390 C   0  0  0  0  0  3  0  0  0  0  0  0
  181.1380  178.8070  140.9980 O   0  0  0  0  0  0  0  0  0  0  0  0
  185.8470  178.5830  140.5250 O   0  0  0  0  0  0  0  0  0  0  0  0
  184.2440  178.6370  142.9980 C   0  0  0  0  0  0  0  0  0  0  0  0
  182.1680  178.8350  144.4030 C   0  0  0  0  0  3  0  0  0  0  0  0
  186.4170  178.4720  144.1110 C   0  0  0  0  0  0  0  0  0  0  0  0
  184.3970  178.7010  145.4300 C   0  0  0  0  0  3  0  0  0  0  0  0
  181.9220  178.7810  141.9820 C   0  0  0  0  0  0  0  0  0  0  0  0
  188.3040  177.6590  142.8590 O   0  0  0  0  0  0  0  0  0  0  0  0
  187.9300  178.3940  144.0030 C   0  0  2  0  0  3  0  0  0  0  0  0
  186.4190  178.4840  141.6440 C   0  0  0  0  0  0  0  0  0  0  0  0
  185.7820  178.5850  145.3540 C   0  0  0  0  0  3  0  0  0  0  0  0
  190.5510  177.0380  146.3680 C   0  0  0  0  0  0  0  0  0  0  0  0
  189.7630  176.6930  147.4670 C   0  0  0  0  0  3  0  0  0  0  0  0
  188.5740  177.7890  145.2130 C   0  0  0  0  0  0  0  0  0  0  0  0
  188.3840  176.9070  147.4110 C   0  0  0  0  0  3  0  0  0  0  0  0
  189.9580  177.5920  145.2320 C   0  0  0  0  0  3  0  0  0  0  0  0
  187.8230  177.4470  146.2950 N   0  0  0  0  0  0  0  0  0  0  0  0
  191.9230  176.8340  146.4050 O   0  0  0  0  0  1  0  0  0  0  0  0
  188.5450  177.7800  140.4910 C   0  0  0  0  0  2  0  0  0  0  0  0
  188.9160  178.8130  139.5390 N   0  0  0  0  0  2  0  0  0  0  0  0
  189.2790  178.1330  138.3100 C   0  0  0  0  0  2  0  0  0  0  0  0
  188.8550  178.9810  137.1190 C   0  0  0  0  0  2  0  0  0  0  0  0
  189.1930  177.1220  134.7830 O   0  0  0  0  0  0  0  0  0  0  0  0
  187.7590  178.3150  136.2880 C   0  0  1  0  0  3  0  0  0  0  0  0
  188.2460  177.0620  135.6110 C   0  0  0  0  0  0  0  0  0  0  0  0
  186.6090  175.7110  136.6840 C   0  0  0  0  0  3  0  0  0  0  0  0
  186.0310  176.8780  137.2830 N   0  0  0  0  0  0  0  0  0  0  0  0
  186.5240  178.0690  137.1130 C   0  0  0  0  0  3  0  0  0  0  0  0
  187.6390  175.8000  135.9010 N   0  0  0  0  0  0  0  0  0  0  0  0
  1  9  1  0  0  0  0
  1 11  1  0  0  0  0
  2 12  1  0  0  0  0
  2  8  1  0  0  0  0
  3  8  1  0  0  0  0
  3 10  2  0  0  0  0
  4 24  1  6  0  0  0
  4 13  1  0  0  0  0
  5  9  2  0  0  0  0
  6 12  2  0  0  0  0
  7 15  2  0  0  0  0
  8  1  2  0  0  0  0
 10 16  1  0  0  0  0
 12  5  1  0  0  0  0
 13 14  1  0  0  0  0
 14 10  1  0  0  0  0
 14 19  1  1  0  0  0
 15  4  1  0  0  0  0
 15  3  1  0  0  0  0
 16 11  2  0  0  0  0
 17 23  1  0  0  0  0
 17 18  1  0  0  0  0
 19 21  1  0  0  0  0
 19 22  2  0  0  0  0
 20 18  2  0  0  0  0
 21 17  2  0  0  0  0
 22 20  1  0  0  0  0
 25 24  1  0  0  0  0
 26 25  1  0  0  0  0
 27 26  1  0  0  0  0
 28 30  2  0  0  0  0
 29 33  1  0  0  0  0
 29 27  1  1  0  0  0
 30 34  1  0  0  0  0
 30 29  1  0  0  0  0
 31 32  1  0  0  0  0
 33 32  2  0  0  0  0
 34 31  2  0  0  0  0
M  END
>  <MODEL>
5

>  <REMARK>
 VINA RESULT:      -9.2      2.195      2.810
  Name = 
  6 active torsions:
  status: ('A' for Active; 'I' for Inactive)
    1  A    between atoms: C_3  and  C_13
    2  A    between atoms: C_3  and  C_17
    3  A    between atoms: C_5  and  C_18
    4  A    between atoms: C_12  and  C_28
    5  A    between atoms: C_17  and  N_29
    6  A    between atoms: C_18  and  N_29
                            x       y       z     vdW  Elec       q    Type
                         _______ _______ _______ _____ _____    ______ ____

>  <TORSDO>
F 6

$$$$
=
 OpenBabel10262423563D

 34 38  0  0  1  0  0  0  0  0999 V2000
  183.5880  178.7430  144.0790 C   0  0  0  0  0  0  0  0  0  0  0  0
  183.4330  178.6710  141.5470 C   0  0  0  0  0  2  0  0  0  0  0  0
  185.6560  178.5360  142.7940 C   0  0  0  0  0  0  0  0  0  0  0  0
  187.9600  178.4020  141.6700 C   0  0  2  0  0  3  0  0  0  0  0  0
  181.3600  178.8850  143.0830 C   0  0  0  0  0  3  0  0  0  0  0  0
  181.1950  178.8080  140.7370 O   0  0  0  0  0  0  0  0  0  0  0  0
  185.9150  178.5680  140.4030 O   0  0  0  0  0  0  0  0  0  0  0  0
  184.2410  178.6480  142.8280 C   0  0  0  0  0  0  0  0  0  0  0  0
  182.1260  178.8640  144.1700 C   0  0  0  0  0  3  0  0  0  0  0  0
  186.3810  178.4870  144.0050 C   0  0  0  0  0  0  0  0  0  0  0  0
  184.3240  178.7330  145.2630 C   0  0  0  0  0  3  0  0  0  0  0  0
  181.9500  178.7890  141.7440 C   0  0  0  0  0  0  0  0  0  0  0  0
  188.3010  177.6590  142.8150 O   0  0  0  0  0  0  0  0  0  0  0  0
  187.8970  178.4050  143.9410 C   0  0  2  0  0  3  0  0  0  0  0  0
  186.4550  178.4780  141.5390 C   0  0  0  0  0  0  0  0  0  0  0  0
  185.7100  178.6130  145.2280 C   0  0  0  0  0  3  0  0  0  0  0  0
  190.4230  176.9410  146.3440 C   0  0  0  0  0  0  0  0  0  0  0  0
  189.6260  176.7300  147.4710 C   0  0  0  0  0  3  0  0  0  0  0  0
  188.5030  177.8090  145.1740 C   0  0  0  0  0  0  0  0  0  0  0  0
  188.2720  177.0680  147.4200 C   0  0  0  0  0  3  0  0  0  0  0  0
  189.8630  177.4850  145.1870 C   0  0  0  0  0  3  0  0  0  0  0  0
  187.7430  177.5960  146.2840 N   0  0  0  0  0  0  0  0  0  0  0  0
  191.7710  176.6130  146.3760 O   0  0  0  0  0  1  0  0  0  0  0  0
  188.6110  177.7570  140.4540 C   0  0  0  0  0  2  0  0  0  0  0  0
  189.7150  176.9110  140.8720 N   0  0  0  0  0  2  0  0  0  0  0  0
  190.8600  177.2970  140.0690 C   0  0  0  0  0  2  0  0  0  0  0  0
  190.7590  176.6450  138.6960 C   0  0  0  0  0  2  0  0  0  0  0  0
  190.7110  173.9130  137.4480 O   0  0  0  0  0  0  0  0  0  0  0  0
  191.9490  175.7350  138.3930 C   0  0  1  0  0  3  0  0  0  0  0  0
  191.6410  174.7490  137.2980 C   0  0  0  0  0  0  0  0  0  0  0  0
  193.4150  175.5440  135.9290 C   0  0  0  0  0  3  0  0  0  0  0  0
  193.8260  176.4380  136.9710 N   0  0  0  0  0  0  0  0  0  0  0  0
  193.1870  176.5380  138.0990 C   0  0  0  0  0  3  0  0  0  0  0  0
  192.3990  174.7540  136.0850 N   0  0  0  0  0  0  0  0  0  0  0  0
  1  9  1  0  0  0  0
  1 11  1  0  0  0  0
  2 12  1  0  0  0  0
  2  8  1  0  0  0  0
  3  8  1  0  0  0  0
  3 10  2  0  0  0  0
  4 24  1  6  0  0  0
  4 13  1  0  0  0  0
  5  9  2  0  0  0  0
  6 12  2  0  0  0  0
  7 15  2  0  0  0  0
  8  1  2  0  0  0  0
 10 16  1  0  0  0  0
 12  5  1  0  0  0  0
 13 14  1  0  0  0  0
 14 10  1  0  0  0  0
 14 19  1  1  0  0  0
 15  4  1  0  0  0  0
 15  3  1  0  0  0  0
 16 11  2  0  0  0  0
 17 23  1  0  0  0  0
 17 18  1  0  0  0  0
 19 21  1  0  0  0  0
 19 22  2  0  0  0  0
 20 18  2  0  0  0  0
 21 17  2  0  0  0  0
 22 20  1  0  0  0  0
 24 25  1  0  0  0  0
 26 25  1  0  0  0  0
 27 26  1  0  0  0  0
 29 27  1  6  0  0  0
 30 28  2  0  0  0  0
 30 29  1  0  0  0  0
 31 34  2  0  0  0  0
 31 32  1  0  0  0  0
 32 33  2  0  0  0  0
 33 29  1  0  0  0  0
 34 30  1  0  0  0  0
M  END
>  <MODEL>
6

>  <REMARK>
 VINA RESULT:      -9.2      1.824      2.472
  Name = 
  6 active torsions:
  status: ('A' for Active; 'I' for Inactive)
    1  A    between atoms: C_3  and  C_13
    2  A    between atoms: C_3  and  C_17
    3  A    between atoms: C_5  and  C_18
    4  A    between atoms: C_12  and  C_28
    5  A    between atoms: C_17  and  N_29
    6  A    between atoms: C_18  and  N_29
                            x       y       z     vdW  Elec       q    Type
                         _______ _______ _______ _____ _____    ______ ____

>  <TORSDO>
F 6

$$$$
=
 OpenBabel10262423563D

 34 38  0  0  1  0  0  0  0  0999 V2000
  188.2610  177.1870  146.4180 C   0  0  0  0  0  0  0  0  0  0  0  0
  190.4980  177.2070  145.2190 C   0  0  0  0  0  2  0  0  0  0  0  0
  188.2770  177.4890  143.9940 C   0  0  0  0  0  0  0  0  0  0  0  0
  188.0300  177.7360  141.4510 C   0  0  2  0  0  3  0  0  0  0  0  0
  190.2710  176.9010  147.7810 C   0  0  0  0  0  3  0  0  0  0  0  0
  192.3550  176.9280  146.6880 O   0  0  0  0  0  0  0  0  0  0  0  0
  190.1730  177.4320  142.5130 O   0  0  0  0  0  0  0  0  0  0  0  0
  188.9860  177.2980  145.2090 C   0  0  0  0  0  0  0  0  0  0  0  0
  188.9460  176.9850  147.7030 C   0  0  0  0  0  3  0  0  0  0  0  0
  186.8700  177.6000  144.0180 C   0  0  0  0  0  0  0  0  0  0  0  0
  186.8690  177.2590  146.4170 C   0  0  0  0  0  3  0  0  0  0  0  0
  191.1040  177.0080  146.5780 C   0  0  0  0  0  0  0  0  0  0  0  0
  186.9100  178.5170  141.7930 O   0  0  0  0  0  0  0  0  0  0  0  0
  186.1320  177.7680  142.7000 C   0  0  2  0  0  3  0  0  0  0  0  0
  188.9280  177.5720  142.6570 C   0  0  0  0  0  0  0  0  0  0  0  0
  186.1770  177.4570  145.2260 C   0  0  0  0  0  3  0  0  0  0  0  0
  182.5480  178.7890  142.0640 C   0  0  0  0  0  0  0  0  0  0  0  0
  182.3040  179.6050  143.1700 C   0  0  0  0  0  3  0  0  0  0  0  0
  184.7920  178.4180  142.8580 C   0  0  0  0  0  0  0  0  0  0  0  0
  183.3230  179.8100  144.1030 C   0  0  0  0  0  3  0  0  0  0  0  0
  183.7970  178.1880  141.9030 C   0  0  0  0  0  3  0  0  0  0  0  0
  184.5350  179.2170  143.9300 N   0  0  0  0  0  0  0  0  0  0  0  0
  181.5470  178.5730  141.1270 O   0  0  0  0  0  1  0  0  0  0  0  0
  188.7500  178.3960  140.2830 C   0  0  0  0  0  2  0  0  0  0  0  0
  187.8890  178.4120  139.1130 N   0  0  0  0  0  2  0  0  0  0  0  0
  188.3490  177.3450  138.2450 C   0  0  0  0  0  2  0  0  0  0  0  0
  189.3640  177.9000  137.2550 C   0  0  0  0  0  2  0  0  0  0  0  0
  191.7880  176.7350  138.5940 O   0  0  0  0  0  0  0  0  0  0  0  0
  190.3030  176.8210  136.7150 C   0  0  1  0  0  3  0  0  0  0  0  0
  191.0270  176.0980  137.8190 C   0  0  0  0  0  0  0  0  0  0  0  0
  190.1470  173.9870  137.1660 C   0  0  0  0  0  3  0  0  0  0  0  0
  189.5120  174.5970  136.0340 N   0  0  0  0  0  0  0  0  0  0  0  0
  189.5740  175.8730  135.8010 C   0  0  0  0  0  3  0  0  0  0  0  0
  190.8560  174.6890  137.9940 N   0  0  0  0  0  0  0  0  0  0  0  0
  1  9  1  0  0  0  0
  2 12  1  0  0  0  0
  3 10  2  0  0  0  0
  3  8  1  0  0  0  0
  4 24  1  6  0  0  0
  4 13  1  0  0  0  0
  4 15  1  0  0  0  0
  7 15  2  0  0  0  0
  8  2  1  0  0  0  0
  8  1  2  0  0  0  0
  9  5  2  0  0  0  0
 10 16  1  0  0  0  0
 11  1  1  0  0  0  0
 12  6  2  0  0  0  0
 12  5  1  0  0  0  0
 13 14  1  0  0  0  0
 14 19  1  1  0  0  0
 14 10  1  0  0  0  0
 15  3  1  0  0  0  0
 16 11  2  0  0  0  0
 17 18  1  0  0  0  0
 18 20  2  0  0  0  0
 19 22  2  0  0  0  0
 21 17  2  0  0  0  0
 21 19  1  0  0  0  0
 22 20  1  0  0  0  0
 23 17  1  0  0  0  0
 25 24  1  0  0  0  0
 26 25  1  0  0  0  0
 27 26  1  0  0  0  0
 29 27  1  1  0  0  0
 29 30  1  0  0  0  0
 30 34  1  0  0  0  0
 30 28  2  0  0  0  0
 31 34  2  0  0  0  0
 32 31  1  0  0  0  0
 33 32  2  0  0  0  0
 33 29  1  0  0  0  0
M  END
>  <MODEL>
7

>  <REMARK>
 VINA RESULT:      -9.1      1.725      5.512
  Name = 
  6 active torsions:
  status: ('A' for Active; 'I' for Inactive)
    1  A    between atoms: C_3  and  C_13
    2  A    between atoms: C_3  and  C_17
    3  A    between atoms: C_5  and  C_18
    4  A    between atoms: C_12  and  C_28
    5  A    between atoms: C_17  and  N_29
    6  A    between atoms: C_18  and  N_29
                            x       y       z     vdW  Elec       q    Type
                         _______ _______ _______ _____ _____    ______ ____

>  <TORSDO>
F 6

$$$$
=
 OpenBabel10262423563D

 34 38  0  0  1  0  0  0  0  0999 V2000
  190.3480  177.3570  144.6930 C   0  0  0  0  0  0  0  0  0  0  0  0
  188.2200  177.2870  146.0740 C   0  0  0  0  0  2  0  0  0  0  0  0
  188.2280  177.8580  143.5870 C   0  0  0  0  0  0  0  0  0  0  0  0
  186.1480  178.5010  142.2260 C   0  0  2  0  0  3  0  0  0  0  0  0
  190.5610  176.7860  147.0610 C   0  0  0  0  0  3  0  0  0  0  0  0
  188.5980  176.7060  148.3560 O   0  0  0  0  0  0  0  0  0  0  0  0
  186.0450  178.0190  144.5860 O   0  0  0  0  0  0  0  0  0  0  0  0
  188.9430  177.5030  144.7610 C   0  0  0  0  0  0  0  0  0  0  0  0
  191.1360  176.9940  145.8800 C   0  0  0  0  0  3  0  0  0  0  0  0
  188.9240  178.0240  142.3700 C   0  0  0  0  0  0  0  0  0  0  0  0
  191.0230  177.5630  143.4910 C   0  0  0  0  0  3  0  0  0  0  0  0
  189.1090  176.9130  147.2250 C   0  0  0  0  0  0  0  0  0  0  0  0
  186.8440  177.8870  141.1680 O   0  0  0  0  0  0  0  0  0  0  0  0
  188.1410  178.4400  141.1360 C   0  0  2  0  0  3  0  0  0  0  0  0
  186.7570  178.0870  143.5470 C   0  0  0  0  0  0  0  0  0  0  0  0
  190.3190  177.9010  142.3390 C   0  0  0  0  0  3  0  0  0  0  0  0
  190.0980  176.4630  138.5740 C   0  0  0  0  0  0  0  0  0  0  0  0
  190.0360  177.3200  137.4740 C   0  0  0  0  0  3  0  0  0  0  0  0
  188.8140  178.0490  139.8560 C   0  0  0  0  0  0  0  0  0  0  0  0
  189.3560  178.5350  137.5940 C   0  0  0  0  0  3  0  0  0  0  0  0
  189.4840  176.8250  139.7740 C   0  0  0  0  0  3  0  0  0  0  0  0
  188.7640  178.8710  138.7710 N   0  0  0  0  0  0  0  0  0  0  0  0
  190.7690  175.2520  138.4740 O   0  0  0  0  0  1  0  0  0  0  0  0
  184.6760  178.1270  142.1290 C   0  0  0  0  0  2  0  0  0  0  0  0
  183.9600  179.1270  141.3550 N   0  0  0  0  0  2  0  0  0  0  0  0
  182.8440  178.4440  140.7280 C   0  0  0  0  0  2  0  0  0  0  0  0
  183.3680  177.3110  139.8570 C   0  0  0  0  0  2  0  0  0  0  0  0
  185.4890  178.9910  138.5510 O   0  0  0  0  0  0  0  0  0  0  0  0
  183.4720  177.7070  138.3840 C   0  0  1  0  0  3  0  0  0  0  0  0
  184.8850  178.0400  137.9880 C   0  0  0  0  0  0  0  0  0  0  0  0
  184.9330  176.3530  136.3120 C   0  0  0  0  0  3  0  0  0  0  0  0
  183.5550  176.0520  136.5700 N   0  0  0  0  0  0  0  0  0  0  0  0
  182.8680  176.6550  137.4930 C   0  0  0  0  0  3  0  0  0  0  0  0
  185.5500  177.2840  136.9720 N   0  0  0  0  0  0  0  0  0  0  0  0
  1  8  1  0  0  0  0
  1  9  1  0  0  0  0
  2 12  1  0  0  0  0
  3  8  2  0  0  0  0
  4 24  1  1  0  0  0
  4 15  1  0  0  0  0
  5 12  1  0  0  0  0
  8  2  1  0  0  0  0
  9  5  2  0  0  0  0
 10  3  1  0  0  0  0
 11  1  2  0  0  0  0
 12  6  2  0  0  0  0
 13  4  1  0  0  0  0
 14 19  1  6  0  0  0
 14 13  1  0  0  0  0
 14 10  1  0  0  0  0
 15  3  1  0  0  0  0
 15  7  2  0  0  0  0
 16 10  2  0  0  0  0
 16 11  1  0  0  0  0
 17 21  1  0  0  0  0
 18 20  1  0  0  0  0
 18 17  2  0  0  0  0
 20 22  2  0  0  0  0
 21 19  2  0  0  0  0
 22 19  1  0  0  0  0
 23 17  1  0  0  0  0
 25 24  1  0  0  0  0
 26 25  1  0  0  0  0
 27 26  1  0  0  0  0
 29 27  1  1  0  0  0
 30 29  1  0  0  0  0
 30 28  2  0  0  0  0
 31 32  1  0  0  0  0
 31 34  2  0  0  0  0
 32 33  2  0  0  0  0
 33 29  1  0  0  0  0
 34 30  1  0  0  0  0
M  END
>  <MODEL>
8

>  <REMARK>
 VINA RESULT:      -9.1      2.773      6.011
  Name = 
  6 active torsions:
  status: ('A' for Active; 'I' for Inactive)
    1  A    between atoms: C_3  and  C_13
    2  A    between atoms: C_3  and  C_17
    3  A    between atoms: C_5  and  C_18
    4  A    between atoms: C_12  and  C_28
    5  A    between atoms: C_17  and  N_29
    6  A    between atoms: C_18  and  N_29
                            x       y       z     vdW  Elec       q    Type
                         _______ _______ _______ _____ _____    ______ ____

>  <TORSDO>
F 6

$$$$
=
 OpenBabel10262423563D

 34 38  0  0  1  0  0  0  0  0999 V2000
  189.3310  177.2730  137.4680 C   0  0  0  0  0  0  0  0  0  0  0  0
  187.1040  178.3580  136.9140 C   0  0  0  0  0  2  0  0  0  0  0  0
  187.8410  177.8740  139.3090 C   0  0  0  0  0  0  0  0  0  0  0  0
  186.4220  178.3340  141.3980 C   0  0  2  0  0  3  0  0  0  0  0  0
  188.8180  177.6500  135.1070 C   0  0  0  0  0  3  0  0  0  0  0  0
  186.7630  178.6650  134.5740 O   0  0  0  0  0  0  0  0  0  0  0  0
  185.6200  178.7880  139.1700 O   0  0  0  0  0  0  0  0  0  0  0  0
  188.1090  177.8280  137.9150 C   0  0  0  0  0  0  0  0  0  0  0  0
  189.6560  177.1980  136.0360 C   0  0  0  0  0  3  0  0  0  0  0  0
  188.8090  177.4000  140.2210 C   0  0  0  0  0  0  0  0  0  0  0  0
  190.2570  176.7740  138.3810 C   0  0  0  0  0  3  0  0  0  0  0  0
  187.5300  178.2440  135.4790 C   0  0  0  0  0  0  0  0  0  0  0  0
  187.6730  178.5400  142.0100 O   0  0  0  0  0  0  0  0  0  0  0  0
  188.4830  177.4270  141.7050 C   0  0  2  0  0  3  0  0  0  0  0  0
  186.5730  178.3900  139.8940 C   0  0  0  0  0  0  0  0  0  0  0  0
  189.9970  176.8290  139.7470 C   0  0  0  0  0  3  0  0  0  0  0  0
  191.4380  176.2770  143.7650 C   0  0  0  0  0  0  0  0  0  0  0  0
  191.9810  177.5020  144.1570 C   0  0  0  0  0  3  0  0  0  0  0  0
  189.7040  177.4510  142.5720 C   0  0  0  0  0  0  0  0  0  0  0  0
  191.3660  178.6850  143.7400 C   0  0  0  0  0  3  0  0  0  0  0  0
  190.2930  176.2460  142.9670 C   0  0  0  0  0  3  0  0  0  0  0  0
  190.2500  178.6350  142.9630 N   0  0  0  0  0  0  0  0  0  0  0  0
  192.0360  175.0920  144.1690 O   0  0  0  0  0  1  0  0  0  0  0  0
  185.4430  179.3780  141.9180 C   0  0  0  0  0  2  0  0  0  0  0  0
  184.4240  178.7400  142.7330 N   0  0  0  0  0  2  0  0  0  0  0  0
  184.6330  179.2020  144.0920 C   0  0  0  0  0  2  0  0  0  0  0  0
  185.3030  178.1010  144.9040 C   0  0  0  0  0  2  0  0  0  0  0  0
  185.6070  179.6490  147.4610 O   0  0  0  0  0  0  0  0  0  0  0  0
  186.5990  178.5700  145.5650 C   0  0  1  0  0  3  0  0  0  0  0  0
  186.4310  178.7930  147.0440 C   0  0  0  0  0  0  0  0  0  0  0  0
  188.1170  177.2070  147.5890 C   0  0  0  0  0  3  0  0  0  0  0  0
  188.3990  177.0210  146.1960 N   0  0  0  0  0  0  0  0  0  0  0  0
  187.7350  177.6310  145.2600 C   0  0  0  0  0  3  0  0  0  0  0  0
  187.2020  178.0370  147.9820 N   0  0  0  0  0  0  0  0  0  0  0  0
  1  8  2  0  0  0  0
  1 11  1  0  0  0  0
  2  8  1  0  0  0  0
  3 15  1  0  0  0  0
  3 10  2  0  0  0  0
  4 24  1  1  0  0  0
  4 13  1  0  0  0  0
  5 12  1  0  0  0  0
  5  9  2  0  0  0  0
  6 12  2  0  0  0  0
  7 15  2  0  0  0  0
  8  3  1  0  0  0  0
  9  1  1  0  0  0  0
 10 14  1  0  0  0  0
 11 16  2  0  0  0  0
 12  2  1  0  0  0  0
 14 13  1  0  0  0  0
 14 19  1  1  0  0  0
 15  4  1  0  0  0  0
 16 10  1  0  0  0  0
 17 18  1  0  0  0  0
 17 23  1  0  0  0  0
 19 22  2  0  0  0  0
 19 21  1  0  0  0  0
 20 18  2  0  0  0  0
 21 17  2  0  0  0  0
 22 20  1  0  0  0  0
 24 25  1  0  0  0  0
 25 26  1  0  0  0  0
 26 27  1  0  0  0  0
 29 27  1  1  0  0  0
 29 30  1  0  0  0  0
 30 28  2  0  0  0  0
 30 34  1  0  0  0  0
 31 34  2  0  0  0  0
 32 31  1  0  0  0  0
 33 29  1  0  0  0  0
 33 32  2  0  0  0  0
M  END
>  <MODEL>
9

>  <REMARK>
 VINA RESULT:      -9.1      2.823      7.260
  Name = 
  6 active torsions:
  status: ('A' for Active; 'I' for Inactive)
    1  A    between atoms: C_3  and  C_13
    2  A    between atoms: C_3  and  C_17
    3  A    between atoms: C_5  and  C_18
    4  A    between atoms: C_12  and  C_28
    5  A    between atoms: C_17  and  N_29
    6  A    between atoms: C_18  and  N_29
                            x       y       z     vdW  Elec       q    Type
                         _______ _______ _______ _____ _____    ______ ____

>  <TORSDO>
F 6

$$$$
