=
 OpenBabel10272400253D

 31 35  0  0  1  0  0  0  0  0999 V2000
  192.4890  176.1630  136.7520 C   0  0  1  0  0  3  0  0  0  0  0  0
  188.3150  176.5460  137.7230 C   0  0  1  0  0  3  0  0  0  0  0  0
  190.4820  175.9480  142.4890 O   0  0  0  0  0  0  0  0  0  0  0  0
  189.5150  176.7450  142.6320 C   0  0  0  0  0  0  0  0  0  0  0  0
  189.7700  176.3420  137.3050 C   0  0  2  0  0  3  0  0  0  0  0  0
  193.9890  176.0410  136.6010 C   0  0  0  0  0  1  0  0  0  0  0  0
  189.2420  177.1060  140.1140 C   0  0  0  0  0  0  0  0  0  0  0  0
  191.6610  174.8020  135.8510 S   0  0  0  0  0  0  0  0  0  0  0  0
  190.2210  176.3020  139.8120 N   0  0  0  0  0  0  0  0  0  0  0  0
  188.2910  177.9600  138.8550 S   0  0  0  0  0  0  0  0  0  0  0  0
  188.8860  177.3320  141.4840 N   0  0  0  0  0  2  0  0  0  0  0  0
  189.9270  175.3600  136.1380 C   0  0  0  0  0  2  0  0  0  0  0  0
  190.6400  175.8680  138.4760 C   0  0  2  0  0  3  0  0  0  0  0  0
  192.1190  176.1690  138.2390 C   0  0  0  0  0  2  0  0  0  0  0  0
  188.0040  177.7090  146.5310 C   0  0  0  0  0  0  0  0  0  0  0  0
  187.6370  177.0900  144.2240 C   0  0  0  0  0  3  0  0  0  0  0  0
  191.2410  177.4020  144.8760 F   0  0  0  0  0  0  0  0  0  0  0  0
  187.5140  178.0130  147.7580 F   0  0  0  0  0  0  0  0  0  0  0  0
  187.1310  177.4010  145.4880 C   0  0  0  0  0  3  0  0  0  0  0  0
  189.8960  177.3950  145.0480 C   0  0  0  0  0  0  0  0  0  0  0  0
  189.0200  177.0820  143.9860 C   0  0  0  0  0  0  0  0  0  0  0  0
  189.3830  177.7070  146.3110 C   0  0  0  0  0  3  0  0  0  0  0  0
  187.3940  176.8090  136.5590 C   0  0  0  0  0  0  0  0  0  0  0  0
  186.7440  178.2060  134.6760 C   0  0  0  0  0  3  0  0  0  0  0  0
  187.5710  177.9610  135.7740 C   0  0  0  0  0  3  0  0  0  0  0  0
  185.7360  177.3000  134.3470 C   0  0  0  0  0  3  0  0  0  0  0  0
  185.5480  176.1530  135.1210 C   0  0  0  0  0  3  0  0  0  0  0  0
  186.3560  175.9040  136.2410 C   0  0  0  0  0  0  0  0  0  0  0  0
  186.7760  173.4400  136.3110 C   0  0  0  0  0  2  0  0  0  0  0  0
  185.2850  173.6650  136.2440 C   0  0  0  0  0  2  0  0  0  0  0  0
  186.1590  174.6330  137.0260 C   0  0  0  0  0  3  0  0  0  0  0  0
  1  6  1  1  0  0  0
  1 14  1  0  0  0  0
  2 23  1  6  0  0  0
  2 10  1  0  0  0  0
  3  4  2  0  0  0  0
  4 21  1  0  0  0  0
  5 12  1  6  0  0  0
  5  2  1  0  0  0  0
  5 13  1  0  0  0  0
  7 11  1  0  0  0  0
  8 12  1  0  0  0  0
  8  1  1  0  0  0  0
  9  7  2  0  0  0  0
 10  7  1  0  0  0  0
 11  4  1  0  0  0  0
 13 14  1  6  0  0  0
 13  9  1  0  0  0  0
 15 18  1  0  0  0  0
 16 19  1  0  0  0  0
 17 20  1  0  0  0  0
 19 15  2  0  0  0  0
 20 22  2  0  0  0  0
 21 16  2  0  0  0  0
 21 20  1  0  0  0  0
 22 15  1  0  0  0  0
 24 25  1  0  0  0  0
 25 23  2  0  0  0  0
 26 24  2  0  0  0  0
 26 27  1  0  0  0  0
 27 28  2  0  0  0  0
 28 23  1  0  0  0  0
 28 31  1  0  0  0  0
 29 31  1  0  0  0  0
 30 29  1  0  0  0  0
 30 31  1  0  0  0  0
M  END
>  <MODEL>
1

>  <REMARK>
 VINA RESULT:      -8.6      0.000      0.000
  Name = 
  3 active torsions:
  status: ('A' for Active; 'I' for Inactive)
    1  A    between atoms: C_4  and  C_5
    2  A    between atoms: C_9  and  C_22
    3  A    between atoms: C_30  and  C_31
                            x       y       z     vdW  Elec       q    Type
                         _______ _______ _______ _____ _____    ______ ____

>  <TORSDO>
F 3

$$$$
=
 OpenBabel10272400253D

 31 35  0  0  1  0  0  0  0  0999 V2000
  191.4050  176.6520  139.7320 C   0  0  1  0  0  3  0  0  0  0  0  0
  189.8580  177.0820  143.7230 C   0  0  1  0  0  3  0  0  0  0  0  0
  185.9610  179.1320  140.8280 O   0  0  0  0  0  0  0  0  0  0  0  0
  185.4140  178.5460  141.8010 C   0  0  0  0  0  0  0  0  0  0  0  0
  190.4960  176.9690  142.3400 C   0  0  2  0  0  3  0  0  0  0  0  0
  191.7730  176.5540  138.2670 C   0  0  0  0  0  1  0  0  0  0  0  0
  187.5630  177.3300  142.4720 C   0  0  0  0  0  0  0  0  0  0  0  0
  192.6400  177.6740  140.6160 S   0  0  0  0  0  0  0  0  0  0  0  0
  188.2600  177.8650  141.5110 N   0  0  0  0  0  0  0  0  0  0  0  0
  188.2870  176.1830  143.6470 S   0  0  0  0  0  0  0  0  0  0  0  0
  186.1750  177.6520  142.6270 N   0  0  0  0  0  2  0  0  0  0  0  0
  191.9550  177.4410  142.3120 C   0  0  0  0  0  2  0  0  0  0  0  0
  189.7020  177.7410  141.2790 C   0  0  2  0  0  3  0  0  0  0  0  0
  189.9900  177.2220  139.8700 C   0  0  0  0  0  2  0  0  0  0  0  0
  181.2830  179.2200  142.7480 C   0  0  0  0  0  0  0  0  0  0  0  0
  183.5940  179.0220  143.4260 C   0  0  0  0  0  3  0  0  0  0  0  0
  183.3100  178.5190  139.7960 F   0  0  0  0  0  0  0  0  0  0  0  0
  179.9820  179.4340  143.0600 F   0  0  0  0  0  0  0  0  0  0  0  0
  182.2540  179.2430  143.7490 C   0  0  0  0  0  3  0  0  0  0  0  0
  182.9930  178.7530  141.0930 C   0  0  0  0  0  0  0  0  0  0  0  0
  183.9820  178.7750  142.1000 C   0  0  0  0  0  0  0  0  0  0  0  0
  181.6520  178.9750  141.4230 C   0  0  0  0  0  3  0  0  0  0  0  0
  190.7180  176.5140  144.8230 C   0  0  0  0  0  0  0  0  0  0  0  0
  192.4990  175.0130  145.5250 C   0  0  0  0  0  3  0  0  0  0  0  0
  191.6760  175.5310  144.5240 C   0  0  0  0  0  3  0  0  0  0  0  0
  192.3780  175.4770  146.8350 C   0  0  0  0  0  3  0  0  0  0  0  0
  191.4270  176.4510  147.1460 C   0  0  0  0  0  3  0  0  0  0  0  0
  190.5770  176.9650  146.1550 C   0  0  0  0  0  0  0  0  0  0  0  0
  189.2720  178.0340  148.0000 C   0  0  0  0  0  2  0  0  0  0  0  0
  188.2970  177.4370  147.0150 C   0  0  0  0  0  2  0  0  0  0  0  0
  189.5950  178.0500  146.5130 C   0  0  0  0  0  3  0  0  0  0  0  0
  1  6  1  6  0  0  0
  1 14  1  0  0  0  0
  1  8  1  0  0  0  0
  2 23  1  1  0  0  0
  3  4  2  0  0  0  0
  4 21  1  0  0  0  0
  4 11  1  0  0  0  0
  5 12  1  1  0  0  0
  5  2  1  0  0  0  0
  7 11  1  0  0  0  0
  7 10  1  0  0  0  0
  8 12  1  0  0  0  0
  9  7  2  0  0  0  0
 10  2  1  0  0  0  0
 13 14  1  6  0  0  0
 13  9  1  0  0  0  0
 13  5  1  0  0  0  0
 15 18  1  0  0  0  0
 15 19  1  0  0  0  0
 16 19  2  0  0  0  0
 17 20  1  0  0  0  0
 20 22  1  0  0  0  0
 20 21  2  0  0  0  0
 21 16  1  0  0  0  0
 22 15  2  0  0  0  0
 23 28  1  0  0  0  0
 24 26  2  0  0  0  0
 25 23  2  0  0  0  0
 25 24  1  0  0  0  0
 26 27  1  0  0  0  0
 28 31  1  0  0  0  0
 28 27  2  0  0  0  0
 30 29  1  0  0  0  0
 31 30  1  0  0  0  0
 31 29  1  0  0  0  0
M  END
>  <MODEL>
2

>  <REMARK>
 VINA RESULT:      -8.2      4.504      8.054
  Name = 
  3 active torsions:
  status: ('A' for Active; 'I' for Inactive)
    1  A    between atoms: C_4  and  C_5
    2  A    between atoms: C_9  and  C_22
    3  A    between atoms: C_30  and  C_31
                            x       y       z     vdW  Elec       q    Type
                         _______ _______ _______ _____ _____    ______ ____

>  <TORSDO>
F 3

$$$$
=
 OpenBabel10272400253D

 31 35  0  0  1  0  0  0  0  0999 V2000
  191.3120  176.1780  146.9680 C   0  0  1  0  0  3  0  0  0  0  0  0
  188.1900  177.7430  144.4570 C   0  0  1  0  0  3  0  0  0  0  0  0
  192.1290  177.1100  141.0150 O   0  0  0  0  0  0  0  0  0  0  0  0
  191.0640  176.8490  140.3930 C   0  0  0  0  0  0  0  0  0  0  0  0
  189.2780  177.2630  145.4160 C   0  0  2  0  0  3  0  0  0  0  0  0
  192.5090  175.5950  147.6880 C   0  0  0  0  0  1  0  0  0  0  0  0
  189.6630  176.7380  142.5300 C   0  0  0  0  0  0  0  0  0  0  0  0
  190.8750  177.7960  147.7030 S   0  0  0  0  0  0  0  0  0  0  0  0
  190.6770  177.0070  143.3030 N   0  0  0  0  0  0  0  0  0  0  0  0
  188.0150  176.4650  143.1850 S   0  0  0  0  0  0  0  0  0  0  0  0
  189.8360  176.6580  141.1100 N   0  0  0  0  0  2  0  0  0  0  0  0
  189.3570  178.0980  146.7000 C   0  0  0  0  0  2  0  0  0  0  0  0
  190.6590  177.2400  144.7500 C   0  0  2  0  0  3  0  0  0  0  0  0
  191.6180  176.2950  145.4720 C   0  0  0  0  0  2  0  0  0  0  0  0
  191.1540  176.4730  136.1180 C   0  0  0  0  0  0  0  0  0  0  0  0
  192.1100  176.0260  138.2920 C   0  0  0  0  0  3  0  0  0  0  0  0
  189.0390  178.0120  138.6630 F   0  0  0  0  0  0  0  0  0  0  0  0
  191.1940  176.3480  134.7690 F   0  0  0  0  0  0  0  0  0  0  0  0
  192.1520  175.8950  136.9030 C   0  0  0  0  0  3  0  0  0  0  0  0
  190.0660  177.3170  138.1140 C   0  0  0  0  0  0  0  0  0  0  0  0
  191.0720  176.7350  138.9160 C   0  0  0  0  0  0  0  0  0  0  0  0
  190.1150  177.1830  136.7230 C   0  0  0  0  0  3  0  0  0  0  0  0
  186.8620  177.9760  145.1320 C   0  0  0  0  0  0  0  0  0  0  0  0
  185.5770  178.2910  147.1730 C   0  0  0  0  0  3  0  0  0  0  0  0
  186.7940  178.0490  146.5330 C   0  0  0  0  0  3  0  0  0  0  0  0
  184.4170  178.4690  146.4190 C   0  0  0  0  0  3  0  0  0  0  0  0
  184.4710  178.3960  145.0260 C   0  0  0  0  0  3  0  0  0  0  0  0
  185.6830  178.1310  144.3680 C   0  0  0  0  0  0  0  0  0  0  0  0
  185.3230  179.4560  142.2800 C   0  0  0  0  0  2  0  0  0  0  0  0
  184.3200  178.3290  142.3040 C   0  0  0  0  0  2  0  0  0  0  0  0
  185.7170  178.1070  142.8630 C   0  0  0  0  0  3  0  0  0  0  0  0
  1  6  1  1  0  0  0
  1  8  1  0  0  0  0
  2 23  1  1  0  0  0
  2  5  1  0  0  0  0
  4  3  2  0  0  0  0
  4 11  1  0  0  0  0
  5 12  1  1  0  0  0
  7 10  1  0  0  0  0
  7  9  2  0  0  0  0
  9 13  1  0  0  0  0
 10  2  1  0  0  0  0
 11  7  1  0  0  0  0
 12  8  1  0  0  0  0
 13  5  1  0  0  0  0
 13 14  1  1  0  0  0
 14  1  1  0  0  0  0
 15 22  2  0  0  0  0
 15 19  1  0  0  0  0
 16 21  1  0  0  0  0
 18 15  1  0  0  0  0
 19 16  2  0  0  0  0
 20 17  1  0  0  0  0
 20 21  2  0  0  0  0
 21  4  1  0  0  0  0
 22 20  1  0  0  0  0
 23 25  1  0  0  0  0
 25 24  2  0  0  0  0
 26 24  1  0  0  0  0
 27 26  2  0  0  0  0
 28 27  1  0  0  0  0
 28 23  2  0  0  0  0
 29 30  1  0  0  0  0
 29 31  1  0  0  0  0
 30 31  1  0  0  0  0
 31 28  1  0  0  0  0
M  END
>  <MODEL>
3

>  <REMARK>
 VINA RESULT:      -8.1      3.731      8.602
  Name = 
  3 active torsions:
  status: ('A' for Active; 'I' for Inactive)
    1  A    between atoms: C_4  and  C_5
    2  A    between atoms: C_9  and  C_22
    3  A    between atoms: C_30  and  C_31
                            x       y       z     vdW  Elec       q    Type
                         _______ _______ _______ _____ _____    ______ ____

>  <TORSDO>
F 3

$$$$
=
 OpenBabel10272400253D

 31 35  0  0  1  0  0  0  0  0999 V2000
  188.0370  178.5770  137.1780 C   0  0  1  0  0  3  0  0  0  0  0  0
  184.6760  178.2640  139.8460 C   0  0  1  0  0  3  0  0  0  0  0  0
  188.6910  176.9890  143.0110 O   0  0  0  0  0  0  0  0  0  0  0  0
  187.8630  177.6220  143.7210 C   0  0  0  0  0  0  0  0  0  0  0  0
  185.8160  178.3200  138.8290 C   0  0  2  0  0  3  0  0  0  0  0  0
  189.3300  178.6650  136.3960 C   0  0  0  0  0  1  0  0  0  0  0  0
  186.5280  178.4420  141.6980 C   0  0  0  0  0  0  0  0  0  0  0  0
  186.9320  177.3350  136.4120 S   0  0  0  0  0  0  0  0  0  0  0  0
  187.2990  177.8350  140.8430 N   0  0  0  0  0  0  0  0  0  0  0  0
  185.1100  179.4120  141.1790 S   0  0  0  0  0  0  0  0  0  0  0  0
  186.7890  178.3480  143.1040 N   0  0  0  0  0  2  0  0  0  0  0  0
  185.4780  177.6150  137.5100 C   0  0  0  0  0  2  0  0  0  0  0  0
  187.1130  177.7280  139.3920 C   0  0  2  0  0  3  0  0  0  0  0  0
  188.3410  178.2430  138.6410 C   0  0  0  0  0  2  0  0  0  0  0  0
  188.1540  177.6500  148.0020 C   0  0  0  0  0  0  0  0  0  0  0  0
  186.9140  178.0770  145.9730 C   0  0  0  0  0  3  0  0  0  0  0  0
  190.2310  176.7260  145.1480 F   0  0  0  0  0  0  0  0  0  0  0  0
  188.2340  177.6650  149.3550 F   0  0  0  0  0  0  0  0  0  0  0  0
  186.9940  178.0920  147.3670 C   0  0  0  0  0  3  0  0  0  0  0  0
  189.1600  177.1770  145.8480 C   0  0  0  0  0  0  0  0  0  0  0  0
  187.9900  177.6220  145.1960 C   0  0  0  0  0  0  0  0  0  0  0  0
  189.2350  177.1950  147.2440 C   0  0  0  0  0  3  0  0  0  0  0  0
  183.3390  178.6430  139.2610 C   0  0  0  0  0  0  0  0  0  0  0  0
  181.8990  180.3140  138.2380 C   0  0  0  0  0  3  0  0  0  0  0  0
  183.1220  179.9540  138.8060 C   0  0  0  0  0  3  0  0  0  0  0  0
  180.8830  179.3680  138.1120 C   0  0  0  0  0  3  0  0  0  0  0  0
  181.0850  178.0620  138.5640 C   0  0  0  0  0  3  0  0  0  0  0  0
  182.3010  177.6890  139.1580 C   0  0  0  0  0  0  0  0  0  0  0  0
  182.7670  175.3550  138.3960 C   0  0  0  0  0  2  0  0  0  0  0  0
  181.3980  175.3810  139.0300 C   0  0  0  0  0  2  0  0  0  0  0  0
  182.5050  176.2610  139.5900 C   0  0  0  0  0  3  0  0  0  0  0  0
  1  6  1  6  0  0  0
  1 14  1  0  0  0  0
  2 23  1  6  0  0  0
  2 10  1  0  0  0  0
  3  4  2  0  0  0  0
  4 21  1  0  0  0  0
  5 12  1  6  0  0  0
  5 13  1  0  0  0  0
  5  2  1  0  0  0  0
  7 11  1  0  0  0  0
  8  1  1  0  0  0  0
  8 12  1  0  0  0  0
  9  7  2  0  0  0  0
 10  7  1  0  0  0  0
 11  4  1  0  0  0  0
 13 14  1  6  0  0  0
 13  9  1  0  0  0  0
 15 18  1  0  0  0  0
 16 19  2  0  0  0  0
 17 20  1  0  0  0  0
 19 15  1  0  0  0  0
 20 22  1  0  0  0  0
 21 20  2  0  0  0  0
 21 16  1  0  0  0  0
 22 15  2  0  0  0  0
 24 25  1  0  0  0  0
 25 23  2  0  0  0  0
 26 24  2  0  0  0  0
 26 27  1  0  0  0  0
 27 28  2  0  0  0  0
 28 23  1  0  0  0  0
 28 31  1  0  0  0  0
 29 30  1  0  0  0  0
 29 31  1  0  0  0  0
 30 31  1  0  0  0  0
M  END
>  <MODEL>
4

>  <REMARK>
 VINA RESULT:      -7.5      3.498      4.198
  Name = 
  3 active torsions:
  status: ('A' for Active; 'I' for Inactive)
    1  A    between atoms: C_4  and  C_5
    2  A    between atoms: C_9  and  C_22
    3  A    between atoms: C_30  and  C_31
                            x       y       z     vdW  Elec       q    Type
                         _______ _______ _______ _____ _____    ______ ____

>  <TORSDO>
F 3

$$$$
=
 OpenBabel10272400253D

 31 35  0  0  1  0  0  0  0  0999 V2000
  181.1290  180.0880  140.1690 C   0  0  1  0  0  3  0  0  0  0  0  0
  184.6320  178.2770  141.8870 C   0  0  1  0  0  3  0  0  0  0  0  0
  185.4030  177.4510  136.7400 O   0  0  0  0  0  0  0  0  0  0  0  0
  186.5400  177.6570  137.2440 C   0  0  0  0  0  0  0  0  0  0  0  0
  183.3320  178.8700  141.3470 C   0  0  2  0  0  3  0  0  0  0  0  0
  179.9820  180.6990  139.3930 C   0  0  0  0  0  1  0  0  0  0  0  0
  185.5740  178.5230  139.4490 C   0  0  0  0  0  0  0  0  0  0  0  0
  180.4930  178.8020  141.3050 S   0  0  0  0  0  0  0  0  0  0  0  0
  184.3410  178.3590  139.0640 N   0  0  0  0  0  0  0  0  0  0  0  0
  185.9860  179.1640  141.0730 S   0  0  0  0  0  0  0  0  0  0  0  0
  186.6570  178.1850  138.5730 N   0  0  0  0  0  2  0  0  0  0  0  0
  182.0950  178.4200  142.1350 C   0  0  0  0  0  2  0  0  0  0  0  0
  183.1250  178.5400  139.8640 C   0  0  2  0  0  3  0  0  0  0  0  0
  182.1670  179.5250  139.1950 C   0  0  0  0  0  2  0  0  0  0  0  0
  190.1230  176.7440  135.0650 C   0  0  0  0  0  0  0  0  0  0  0  0
  188.8260  176.6900  137.1030 C   0  0  0  0  0  3  0  0  0  0  0  0
  186.9080  178.3570  134.4470 F   0  0  0  0  0  0  0  0  0  0  0  0
  191.2600  176.4510  134.3880 F   0  0  0  0  0  0  0  0  0  0  0  0
  189.9980  176.3860  136.4070 C   0  0  0  0  0  3  0  0  0  0  0  0
  187.9010  177.7130  135.1110 C   0  0  0  0  0  0  0  0  0  0  0  0
  187.7650  177.3550  136.4690 C   0  0  0  0  0  0  0  0  0  0  0  0
  189.0770  177.4070  134.4190 C   0  0  0  0  0  3  0  0  0  0  0  0
  184.7670  178.4020  143.3830 C   0  0  0  0  0  0  0  0  0  0  0  0
  183.7580  178.8830  145.5430 C   0  0  0  0  0  3  0  0  0  0  0  0
  183.6580  178.7890  144.1550 C   0  0  0  0  0  3  0  0  0  0  0  0
  184.9650  178.5860  146.1770 C   0  0  0  0  0  3  0  0  0  0  0  0
  186.0750  178.2030  145.4210 C   0  0  0  0  0  3  0  0  0  0  0  0
  185.9970  178.1250  144.0220 C   0  0  0  0  0  0  0  0  0  0  0  0
  187.6800  176.3020  143.7220 C   0  0  0  0  0  2  0  0  0  0  0  0
  188.4070  177.5500  144.1550 C   0  0  0  0  0  2  0  0  0  0  0  0
  187.1980  177.6620  143.2400 C   0  0  0  0  0  3  0  0  0  0  0  0
  1  6  1  6  0  0  0
  1  8  1  0  0  0  0
  2 23  1  1  0  0  0
  3  4  2  0  0  0  0
  4 11  1  0  0  0  0
  5  2  1  0  0  0  0
  5 12  1  1  0  0  0
  7 10  1  0  0  0  0
  8 12  1  0  0  0  0
  9  7  2  0  0  0  0
  9 13  1  0  0  0  0
 10  2  1  0  0  0  0
 11  7  1  0  0  0  0
 13 14  1  6  0  0  0
 13  5  1  0  0  0  0
 14  1  1  0  0  0  0
 15 19  1  0  0  0  0
 17 20  1  0  0  0  0
 18 15  1  0  0  0  0
 19 16  2  0  0  0  0
 20 21  2  0  0  0  0
 21 16  1  0  0  0  0
 21  4  1  0  0  0  0
 22 15  2  0  0  0  0
 22 20  1  0  0  0  0
 23 28  2  0  0  0  0
 23 25  1  0  0  0  0
 24 26  1  0  0  0  0
 25 24  2  0  0  0  0
 27 26  2  0  0  0  0
 28 27  1  0  0  0  0
 29 30  1  0  0  0  0
 31 29  1  0  0  0  0
 31 28  1  0  0  0  0
 31 30  1  0  0  0  0
M  END
>  <MODEL>
5

>  <REMARK>
 VINA RESULT:      -6.7      5.035      9.521
  Name = 
  3 active torsions:
  status: ('A' for Active; 'I' for Inactive)
    1  A    between atoms: C_4  and  C_5
    2  A    between atoms: C_9  and  C_22
    3  A    between atoms: C_30  and  C_31
                            x       y       z     vdW  Elec       q    Type
                         _______ _______ _______ _____ _____    ______ ____

>  <TORSDO>
F 3

$$$$
=
 OpenBabel10272400253D

 31 35  0  0  1  0  0  0  0  0999 V2000
  183.1830  179.9070  139.5540 C   0  0  1  0  0  3  0  0  0  0  0  0
  186.0470  178.1420  142.2350 C   0  0  1  0  0  3  0  0  0  0  0  0
  188.1390  177.0220  137.5300 O   0  0  0  0  0  0  0  0  0  0  0  0
  189.1060  177.2380  138.3090 C   0  0  0  0  0  0  0  0  0  0  0  0
  184.9560  178.7230  141.3380 C   0  0  2  0  0  3  0  0  0  0  0  0
  182.3030  180.4910  138.4700 C   0  0  0  0  0  1  0  0  0  0  0  0
  187.6120  178.2390  140.1290 C   0  0  0  0  0  0  0  0  0  0  0  0
  182.2300  178.6950  140.5410 S   0  0  0  0  0  0  0  0  0  0  0  0
  186.5220  178.0730  139.4370 N   0  0  0  0  0  0  0  0  0  0  0  0
  187.5940  178.9630  141.7710 S   0  0  0  0  0  0  0  0  0  0  0  0
  188.8790  177.8370  139.5940 N   0  0  0  0  0  2  0  0  0  0  0  0
  183.5410  178.3360  141.7870 C   0  0  0  0  0  2  0  0  0  0  0  0
  185.1420  178.3150  139.8720 C   0  0  2  0  0  3  0  0  0  0  0  0
  184.4270  179.2760  138.9230 C   0  0  0  0  0  2  0  0  0  0  0  0
  193.0740  176.1780  137.0650 C   0  0  0  0  0  0  0  0  0  0  0  0
  190.7310  176.5110  136.5740 C   0  0  0  0  0  3  0  0  0  0  0  0
  191.3800  177.2330  140.1200 F   0  0  0  0  0  0  0  0  0  0  0  0
  194.3220  175.8400  136.6590 F   0  0  0  0  0  0  0  0  0  0  0  0
  192.0160  176.1630  136.1550 C   0  0  0  0  0  3  0  0  0  0  0  0
  191.5600  176.8880  138.8200 C   0  0  0  0  0  0  0  0  0  0  0  0
  190.4840  176.8760  137.9070 C   0  0  0  0  0  0  0  0  0  0  0  0
  192.8450  176.5380  138.3940 C   0  0  0  0  0  3  0  0  0  0  0  0
  185.7810  178.3470  143.7050 C   0  0  0  0  0  0  0  0  0  0  0  0
  184.3270  179.1630  145.4760 C   0  0  0  0  0  3  0  0  0  0  0  0
  184.6020  178.9880  144.1180 C   0  0  0  0  0  3  0  0  0  0  0  0
  185.2250  178.6930  146.4340 C   0  0  0  0  0  3  0  0  0  0  0  0
  186.4030  178.0570  146.0360 C   0  0  0  0  0  3  0  0  0  0  0  0
  186.7040  177.8940  144.6750 C   0  0  0  0  0  0  0  0  0  0  0  0
  188.8570  176.9130  145.4810 C   0  0  0  0  0  2  0  0  0  0  0  0
  189.1770  178.0370  144.5250 C   0  0  0  0  0  2  0  0  0  0  0  0
  187.9590  177.1610  144.2780 C   0  0  0  0  0  3  0  0  0  0  0  0
  1  6  1  6  0  0  0
  1  8  1  0  0  0  0
  2 23  1  1  0  0  0
  3  4  2  0  0  0  0
  4 11  1  0  0  0  0
  5 12  1  1  0  0  0
  5  2  1  0  0  0  0
  7 10  1  0  0  0  0
  8 12  1  0  0  0  0
  9 13  1  0  0  0  0
  9  7  2  0  0  0  0
 10  2  1  0  0  0  0
 11  7  1  0  0  0  0
 13 14  1  6  0  0  0
 13  5  1  0  0  0  0
 14  1  1  0  0  0  0
 15 22  1  0  0  0  0
 16 21  2  0  0  0  0
 18 15  1  0  0  0  0
 19 16  1  0  0  0  0
 19 15  2  0  0  0  0
 20 17  1  0  0  0  0
 21  4  1  0  0  0  0
 21 20  1  0  0  0  0
 22 20  2  0  0  0  0
 23 25  2  0  0  0  0
 23 28  1  0  0  0  0
 24 26  2  0  0  0  0
 25 24  1  0  0  0  0
 27 26  1  0  0  0  0
 28 27  2  0  0  0  0
 30 29  1  0  0  0  0
 31 30  1  0  0  0  0
 31 28  1  0  0  0  0
 31 29  1  0  0  0  0
M  END
>  <MODEL>
6

>  <REMARK>
 VINA RESULT:      -6.7      3.643      8.549
  Name = 
  3 active torsions:
  status: ('A' for Active; 'I' for Inactive)
    1  A    between atoms: C_4  and  C_5
    2  A    between atoms: C_9  and  C_22
    3  A    between atoms: C_30  and  C_31
                            x       y       z     vdW  Elec       q    Type
                         _______ _______ _______ _____ _____    ______ ____

>  <TORSDO>
F 3

$$$$
=
 OpenBabel10272400253D

 31 35  0  0  1  0  0  0  0  0999 V2000
  191.1370  176.9830  145.7160 C   0  0  1  0  0  3  0  0  0  0  0  0
  189.7660  176.9940  141.6390 C   0  0  1  0  0  3  0  0  0  0  0  0
  185.2340  177.3520  144.3040 O   0  0  0  0  0  0  0  0  0  0  0  0
  185.0890  178.0390  143.2560 C   0  0  0  0  0  0  0  0  0  0  0  0
  190.3130  176.9090  143.0630 C   0  0  2  0  0  3  0  0  0  0  0  0
  191.4370  177.0220  147.1990 C   0  0  0  0  0  1  0  0  0  0  0  0
  187.5860  177.9990  142.7020 C   0  0  0  0  0  0  0  0  0  0  0  0
  191.7560  175.4160  144.9990 S   0  0  0  0  0  0  0  0  0  0  0  0
  187.8880  177.2840  143.7470 N   0  0  0  0  0  0  0  0  0  0  0  0
  188.8320  178.5430  141.5300 S   0  0  0  0  0  0  0  0  0  0  0  0
  186.2260  178.3750  142.4480 N   0  0  0  0  0  2  0  0  0  0  0  0
  191.3520  175.7960  143.2400 C   0  0  0  0  0  2  0  0  0  0  0  0
  189.1950  176.7170  144.0940 C   0  0  2  0  0  3  0  0  0  0  0  0
  189.6330  177.1570  145.4900 C   0  0  0  0  0  2  0  0  0  0  0  0
  181.2050  179.3650  142.0000 C   0  0  0  0  0  0  0  0  0  0  0  0
  183.3680  178.4100  141.5000 C   0  0  0  0  0  3  0  0  0  0  0  0
  183.1310  179.1530  145.0930 F   0  0  0  0  0  0  0  0  0  0  0  0
  179.9820  179.7800  141.5910 F   0  0  0  0  0  0  0  0  0  0  0  0
  182.1080  178.8370  141.0770 C   0  0  0  0  0  3  0  0  0  0  0  0
  182.8230  179.0390  143.7770 C   0  0  0  0  0  0  0  0  0  0  0  0
  183.7430  178.5040  142.8500 C   0  0  0  0  0  0  0  0  0  0  0  0
  181.5620  179.4660  143.3460 C   0  0  0  0  0  3  0  0  0  0  0  0
  190.8440  176.9740  140.5850 C   0  0  0  0  0  0  0  0  0  0  0  0
  193.1760  177.2880  139.9700 C   0  0  0  0  0  3  0  0  0  0  0  0
  192.1610  177.3270  140.9260 C   0  0  0  0  0  3  0  0  0  0  0  0
  192.8890  176.8900  138.6640 C   0  0  0  0  0  3  0  0  0  0  0  0
  191.5840  176.5390  138.3120 C   0  0  0  0  0  3  0  0  0  0  0  0
  190.5470  176.5950  139.2560 C   0  0  0  0  0  0  0  0  0  0  0  0
  189.0470  175.9950  137.3490 C   0  0  0  0  0  2  0  0  0  0  0  0
  188.5020  177.2390  138.0080 C   0  0  0  0  0  2  0  0  0  0  0  0
  189.1600  176.1640  138.8570 C   0  0  0  0  0  3  0  0  0  0  0  0
  1  6  1  1  0  0  0
  2 23  1  6  0  0  0
  2  5  1  0  0  0  0
  4  3  2  0  0  0  0
  5 12  1  6  0  0  0
  5 13  1  0  0  0  0
  7  9  2  0  0  0  0
  8  1  1  0  0  0  0
  9 13  1  0  0  0  0
 10  2  1  0  0  0  0
 10  7  1  0  0  0  0
 11  7  1  0  0  0  0
 11  4  1  0  0  0  0
 12  8  1  0  0  0  0
 13 14  1  1  0  0  0
 14  1  1  0  0  0  0
 15 22  1  0  0  0  0
 16 21  2  0  0  0  0
 18 15  1  0  0  0  0
 19 16  1  0  0  0  0
 19 15  2  0  0  0  0
 20 17  1  0  0  0  0
 21  4  1  0  0  0  0
 21 20  1  0  0  0  0
 22 20  2  0  0  0  0
 23 25  1  0  0  0  0
 24 25  2  0  0  0  0
 26 24  1  0  0  0  0
 27 26  2  0  0  0  0
 27 28  1  0  0  0  0
 28 23  2  0  0  0  0
 29 30  1  0  0  0  0
 29 31  1  0  0  0  0
 30 31  1  0  0  0  0
 31 28  1  0  0  0  0
M  END
>  <MODEL>
7

>  <REMARK>
 VINA RESULT:      -6.6      3.983      6.723
  Name = 
  3 active torsions:
  status: ('A' for Active; 'I' for Inactive)
    1  A    between atoms: C_4  and  C_5
    2  A    between atoms: C_9  and  C_22
    3  A    between atoms: C_30  and  C_31
                            x       y       z     vdW  Elec       q    Type
                         _______ _______ _______ _____ _____    ______ ____

>  <TORSDO>
F 3

$$$$
=
 OpenBabel10272400253D

 31 35  0  0  1  0  0  0  0  0999 V2000
  189.9510  177.5500  144.8770 C   0  0  1  0  0  3  0  0  0  0  0  0
  189.4500  177.2150  140.6180 C   0  0  1  0  0  3  0  0  0  0  0  0
  184.4960  178.0100  142.2280 O   0  0  0  0  0  0  0  0  0  0  0  0
  184.6100  178.5950  141.1180 C   0  0  0  0  0  0  0  0  0  0  0  0
  189.6870  177.2500  142.1270 C   0  0  2  0  0  3  0  0  0  0  0  0
  189.9410  177.7230  146.3810 C   0  0  0  0  0  1  0  0  0  0  0  0
  187.1610  178.4040  141.1070 C   0  0  0  0  0  0  0  0  0  0  0  0
  190.6110  175.8980  144.4470 S   0  0  0  0  0  0  0  0  0  0  0  0
  187.1990  177.7840  142.2510 N   0  0  0  0  0  0  0  0  0  0  0  0
  188.6510  178.7810  140.1800 S   0  0  0  0  0  0  0  0  0  0  0  0
  185.9070  178.8060  140.5410 N   0  0  0  0  0  2  0  0  0  0  0  0
  190.6000  176.1190  142.6160 C   0  0  0  0  0  2  0  0  0  0  0  0
  188.3710  177.2020  142.9130 C   0  0  2  0  0  3  0  0  0  0  0  0
  188.5380  177.7600  144.3260 C   0  0  0  0  0  2  0  0  0  0  0  0
  181.1690  179.9950  138.9680 C   0  0  0  0  0  0  0  0  0  0  0  0
  183.5550  179.6430  139.1250 C   0  0  0  0  0  3  0  0  0  0  0  0
  181.9090  178.4220  142.1770 F   0  0  0  0  0  0  0  0  0  0  0  0
  180.0910  180.4420  138.2800 F   0  0  0  0  0  0  0  0  0  0  0  0
  182.4450  180.1030  138.4140 C   0  0  0  0  0  3  0  0  0  0  0  0
  182.1120  178.9660  140.9510 C   0  0  0  0  0  0  0  0  0  0  0  0
  183.4070  179.0710  140.3980 C   0  0  0  0  0  0  0  0  0  0  0  0
  181.0040  179.4290  140.2340 C   0  0  0  0  0  3  0  0  0  0  0  0
  190.7190  177.0500  139.8210 C   0  0  0  0  0  0  0  0  0  0  0  0
  193.1380  177.2580  139.6670 C   0  0  0  0  0  3  0  0  0  0  0  0
  191.9510  177.4290  140.3810 C   0  0  0  0  0  3  0  0  0  0  0  0
  193.1080  176.7010  138.3890 C   0  0  0  0  0  3  0  0  0  0  0  0
  191.8900  176.3240  137.8190 C   0  0  0  0  0  3  0  0  0  0  0  0
  190.6860  176.5100  138.5150 C   0  0  0  0  0  0  0  0  0  0  0  0
  189.5370  174.6570  137.2920 C   0  0  0  0  0  2  0  0  0  0  0  0
  189.5700  175.8690  136.3930 C   0  0  0  0  0  2  0  0  0  0  0  0
  189.3940  176.0470  137.8930 C   0  0  0  0  0  3  0  0  0  0  0  0
  1  6  1  1  0  0  0
  2 23  1  6  0  0  0
  2  5  1  0  0  0  0
  4  3  2  0  0  0  0
  5 12  1  1  0  0  0
  5 13  1  0  0  0  0
  7  9  2  0  0  0  0
  8  1  1  0  0  0  0
  9 13  1  0  0  0  0
 10  2  1  0  0  0  0
 10  7  1  0  0  0  0
 11  7  1  0  0  0  0
 11  4  1  0  0  0  0
 12  8  1  0  0  0  0
 13 14  1  1  0  0  0
 14  1  1  0  0  0  0
 15 22  1  0  0  0  0
 16 21  2  0  0  0  0
 18 15  1  0  0  0  0
 19 15  2  0  0  0  0
 19 16  1  0  0  0  0
 20 17  1  0  0  0  0
 21 20  1  0  0  0  0
 21  4  1  0  0  0  0
 22 20  2  0  0  0  0
 23 25  1  0  0  0  0
 24 25  2  0  0  0  0
 26 24  1  0  0  0  0
 27 26  2  0  0  0  0
 27 28  1  0  0  0  0
 28 23  2  0  0  0  0
 29 31  1  0  0  0  0
 30 29  1  0  0  0  0
 30 31  1  0  0  0  0
 31 28  1  0  0  0  0
M  END
>  <MODEL>
8

>  <REMARK>
 VINA RESULT:      -6.4      4.452      7.119
  Name = 
  3 active torsions:
  status: ('A' for Active; 'I' for Inactive)
    1  A    between atoms: C_4  and  C_5
    2  A    between atoms: C_9  and  C_22
    3  A    between atoms: C_30  and  C_31
                            x       y       z     vdW  Elec       q    Type
                         _______ _______ _______ _____ _____    ______ ____

>  <TORSDO>
F 3

$$$$
=
 OpenBabel10272400253D

 31 35  0  0  1  0  0  0  0  0999 V2000
  190.3670  178.2500  143.1610 C   0  0  1  0  0  3  0  0  0  0  0  0
  189.5490  176.8750  139.1690 C   0  0  1  0  0  3  0  0  0  0  0  0
  184.7750  178.4170  140.7790 O   0  0  0  0  0  0  0  0  0  0  0  0
  184.8440  178.6890  139.5490 C   0  0  0  0  0  0  0  0  0  0  0  0
  189.8930  177.2760  140.6020 C   0  0  2  0  0  3  0  0  0  0  0  0
  190.4740  178.8020  144.5660 C   0  0  0  0  0  1  0  0  0  0  0  0
  187.3730  178.3140  139.4530 C   0  0  0  0  0  0  0  0  0  0  0  0
  190.9000  176.4990  143.1410 S   0  0  0  0  0  0  0  0  0  0  0  0
  187.4550  178.0060  140.7150 N   0  0  0  0  0  0  0  0  0  0  0  0
  188.8120  178.3310  138.3820 S   0  0  0  0  0  0  0  0  0  0  0  0
  186.1070  178.6490  138.8700 N   0  0  0  0  0  2  0  0  0  0  0  0
  190.7730  176.2450  141.3190 C   0  0  0  0  0  2  0  0  0  0  0  0
  188.6360  177.5290  141.4420 C   0  0  2  0  0  3  0  0  0  0  0  0
  188.9330  178.4150  142.6510 C   0  0  0  0  0  2  0  0  0  0  0  0
  181.3030  179.8160  137.4020 C   0  0  0  0  0  0  0  0  0  0  0  0
  183.0470  180.3160  138.9980 C   0  0  0  0  0  3  0  0  0  0  0  0
  183.5270  176.9330  137.6440 F   0  0  0  0  0  0  0  0  0  0  0  0
  180.1840  180.1830  136.7310 F   0  0  0  0  0  0  0  0  0  0  0  0
  181.8950  180.6970  138.3070 C   0  0  0  0  0  3  0  0  0  0  0  0
  183.0150  178.1670  137.8790 C   0  0  0  0  0  0  0  0  0  0  0  0
  183.6220  179.0520  138.7960 C   0  0  0  0  0  0  0  0  0  0  0  0
  181.8610  178.5540  137.1900 C   0  0  0  0  0  3  0  0  0  0  0  0
  190.7470  176.4180  138.3750 C   0  0  0  0  0  0  0  0  0  0  0  0
  193.1490  176.4710  137.9910 C   0  0  0  0  0  3  0  0  0  0  0  0
  192.0260  176.9040  138.6980 C   0  0  0  0  0  3  0  0  0  0  0  0
  193.0080  175.5430  136.9590 C   0  0  0  0  0  3  0  0  0  0  0  0
  191.7430  175.0560  136.6260 C   0  0  0  0  0  3  0  0  0  0  0  0
  190.6010  175.4980  137.3120 C   0  0  0  0  0  0  0  0  0  0  0  0
  189.2770  173.3960  137.0320 C   0  0  0  0  0  2  0  0  0  0  0  0
  189.3600  174.0850  135.6920 C   0  0  0  0  0  2  0  0  0  0  0  0
  189.2560  174.9160  136.9620 C   0  0  0  0  0  3  0  0  0  0  0  0
  1  6  1  1  0  0  0
  2 23  1  6  0  0  0
  2  5  1  0  0  0  0
  4  3  2  0  0  0  0
  5 12  1  1  0  0  0
  5 13  1  0  0  0  0
  7  9  2  0  0  0  0
  8  1  1  0  0  0  0
  9 13  1  0  0  0  0
 10  2  1  0  0  0  0
 10  7  1  0  0  0  0
 11  7  1  0  0  0  0
 11  4  1  0  0  0  0
 12  8  1  0  0  0  0
 13 14  1  1  0  0  0
 14  1  1  0  0  0  0
 15 19  1  0  0  0  0
 17 20  1  0  0  0  0
 18 15  1  0  0  0  0
 19 16  2  0  0  0  0
 20 21  2  0  0  0  0
 21 16  1  0  0  0  0
 21  4  1  0  0  0  0
 22 15  2  0  0  0  0
 22 20  1  0  0  0  0
 23 25  1  0  0  0  0
 24 25  2  0  0  0  0
 26 24  1  0  0  0  0
 27 26  2  0  0  0  0
 27 28  1  0  0  0  0
 28 23  2  0  0  0  0
 30 31  1  0  0  0  0
 30 29  1  0  0  0  0
 31 29  1  0  0  0  0
 31 28  1  0  0  0  0
M  END
>  <MODEL>
9

>  <REMARK>
 VINA RESULT:      -6.2      4.458      7.012
  Name = 
  3 active torsions:
  status: ('A' for Active; 'I' for Inactive)
    1  A    between atoms: C_4  and  C_5
    2  A    between atoms: C_9  and  C_22
    3  A    between atoms: C_30  and  C_31
                            x       y       z     vdW  Elec       q    Type
                         _______ _______ _______ _____ _____    ______ ____

>  <TORSDO>
F 3

$$$$
