=
 OpenBabel10272400553D

 25 27  0  0  1  0  0  0  0  0999 V2000
  188.6390  177.1530  144.6510 C   0  0  0  0  0  0  0  0  0  0  0  0
  187.4280  177.8020  144.3370 C   0  0  0  0  0  0  0  0  0  0  0  0
  188.1850  177.4210  147.0150 C   0  0  0  0  0  3  0  0  0  0  0  0
  189.5570  176.7310  143.5420 C   0  0  0  0  0  2  0  0  0  0  0  0
  186.2060  178.9600  142.4750 C   0  0  2  0  0  3  0  0  0  0  0  0
  191.4070  179.9910  144.0990 N   0  0  0  0  0  1  0  0  0  0  0  0
  186.9730  178.0340  146.7150 C   0  0  0  0  0  3  0  0  0  0  0  0
  191.5420  176.5720  145.5780 C   0  0  0  0  0  2  0  0  0  0  0  0
  191.6760  177.9970  145.3010 N   0  0  0  0  0  0  0  0  0  0  0  0
  185.2200  178.8660  145.1130 C   0  0  2  0  0  3  0  0  0  0  0  0
  184.4140  178.9830  146.3200 N   0  0  0  0  0  1  0  0  0  0  0  0
  187.1280  177.9950  142.9760 O   0  0  0  0  0  0  0  0  0  0  0  0
  191.1970  178.5920  144.2470 C   0  0  0  0  0  0  0  0  0  0  0  0
  189.0300  176.9810  145.9990 C   0  0  0  0  0  0  0  0  0  0  0  0
  190.2980  176.2790  146.4230 C   0  0  0  0  0  2  0  0  0  0  0  0
  184.4490  178.0580  144.0810 C   0  0  0  0  0  2  0  0  0  0  0  0
  190.5050  177.8600  143.1190 C   0  0  0  0  0  2  0  0  0  0  0  0
  184.7520  178.5280  142.6630 C   0  0  0  0  0  2  0  0  0  0  0  0
  186.5640  178.2220  145.3870 C   0  0  0  0  0  0  0  0  0  0  0  0
  186.4940  179.3100  141.0100 C   0  0  0  0  0  2  0  0  0  0  0  0
  185.9070  178.0790  138.8680 C   0  0  0  0  0  1  0  0  0  0  0  0
  186.8280  178.1380  140.0740 C   0  0  1  0  0  3  0  0  0  0  0  0
  188.2720  178.0590  139.6900 C   0  0  0  0  0  0  0  0  0  0  0  0
  188.8590  179.0590  138.9230 O   0  0  0  0  0  0  0  0  0  0  0  0
  188.9710  177.0940  140.0940 O   0  0  0  0  0  1  0  0  0  0  0  0
  1 14  1  0  0  0  0
  2  1  2  0  0  0  0
  2 19  1  0  0  0  0
  4  1  1  0  0  0  0
  5 20  1  6  0  0  0
  5 18  1  0  0  0  0
  5 12  1  0  0  0  0
  6 13  1  0  0  0  0
  7  3  1  0  0  0  0
  8 15  1  0  0  0  0
  9  8  1  0  0  0  0
 10 19  1  0  0  0  0
 10 11  1  1  0  0  0
 12  2  1  0  0  0  0
 13  9  2  0  0  0  0
 14 15  1  0  0  0  0
 14  3  2  0  0  0  0
 16 10  1  0  0  0  0
 17  4  1  0  0  0  0
 17 13  1  0  0  0  0
 18 16  1  0  0  0  0
 19  7  2  0  0  0  0
 22 21  1  6  0  0  0
 22 20  1  0  0  0  0
 23 22  1  0  0  0  0
 23 25  1  0  0  0  0
 24 23  2  0  0  0  0
M  END
>  <MODEL>
1

>  <REMARK>
 VINA RESULT:      -8.0      0.000      0.000
  Name = 
  3 active torsions:
  status: ('A' for Active; 'I' for Inactive)
    1  A    between atoms: C_2  and  C_25
    2  A    between atoms: C_6  and  C_15
    3  A    between atoms: C_15  and  C_25
                            x       y       z     vdW  Elec       q    Type
                         _______ _______ _______ _____ _____    ______ ____

>  <TORSDO>
F 3

$$$$
=
 OpenBabel10272400553D

 25 27  0  0  1  0  0  0  0  0999 V2000
  188.3330  177.1610  144.5930 C   0  0  0  0  0  0  0  0  0  0  0  0
  187.1400  177.7810  144.1690 C   0  0  0  0  0  0  0  0  0  0  0  0
  187.7960  177.6740  146.8990 C   0  0  0  0  0  3  0  0  0  0  0  0
  189.2860  176.6220  143.5680 C   0  0  0  0  0  2  0  0  0  0  0  0
  185.9960  178.7450  142.1540 C   0  0  2  0  0  3  0  0  0  0  0  0
  191.1440  179.9120  143.8540 N   0  0  0  0  0  1  0  0  0  0  0  0
  186.6010  178.2590  146.4920 C   0  0  0  0  0  3  0  0  0  0  0  0
  191.1950  176.6640  145.6820 C   0  0  0  0  0  2  0  0  0  0  0  0
  191.3510  178.0520  145.2650 N   0  0  0  0  0  0  0  0  0  0  0  0
  184.9150  178.9300  144.7500 C   0  0  2  0  0  3  0  0  0  0  0  0
  184.0670  179.1750  145.9080 N   0  0  0  0  0  1  0  0  0  0  0  0
  186.8900  177.8330  142.7850 O   0  0  0  0  0  0  0  0  0  0  0  0
  190.9160  178.5370  144.1380 C   0  0  0  0  0  0  0  0  0  0  0  0
  188.6730  177.1270  145.9650 C   0  0  0  0  0  0  0  0  0  0  0  0
  189.9180  176.4660  146.5060 C   0  0  0  0  0  2  0  0  0  0  0  0
  184.1740  178.0240  143.7780 C   0  0  0  0  0  2  0  0  0  0  0  0
  190.2590  177.6960  143.0670 C   0  0  0  0  0  2  0  0  0  0  0  0
  184.5320  178.3430  142.3320 C   0  0  0  0  0  2  0  0  0  0  0  0
  186.2420  178.3110  145.1370 C   0  0  0  0  0  0  0  0  0  0  0  0
  186.3400  178.9410  140.6730 C   0  0  0  0  0  2  0  0  0  0  0  0
  184.1800  179.5340  139.4770 C   0  0  0  0  0  1  0  0  0  0  0  0
  185.2780  178.5000  139.6540 C   0  0  1  0  0  3  0  0  0  0  0  0
  185.8420  178.0400  138.3470 C   0  0  0  0  0  0  0  0  0  0  0  0
  187.0920  178.4730  137.9210 O   0  0  0  0  0  1  0  0  0  0  0  0
  185.1920  177.2260  137.6410 O   0  0  0  0  0  0  0  0  0  0  0  0
  1 14  1  0  0  0  0
  2  1  2  0  0  0  0
  2 19  1  0  0  0  0
  4  1  1  0  0  0  0
  5 20  1  6  0  0  0
  5 18  1  0  0  0  0
  5 12  1  0  0  0  0
  6 13  1  0  0  0  0
  7  3  1  0  0  0  0
  8 15  1  0  0  0  0
  9  8  1  0  0  0  0
 10 19  1  0  0  0  0
 10 11  1  1  0  0  0
 12  2  1  0  0  0  0
 13  9  2  0  0  0  0
 14 15  1  0  0  0  0
 14  3  2  0  0  0  0
 16 10  1  0  0  0  0
 17  4  1  0  0  0  0
 17 13  1  0  0  0  0
 18 16  1  0  0  0  0
 19  7  2  0  0  0  0
 22 21  1  6  0  0  0
 22 20  1  0  0  0  0
 23 22  1  0  0  0  0
 24 23  1  0  0  0  0
 25 23  2  0  0  0  0
M  END
>  <MODEL>
2

>  <REMARK>
 VINA RESULT:      -7.9      1.152      1.327
  Name = 
  3 active torsions:
  status: ('A' for Active; 'I' for Inactive)
    1  A    between atoms: C_2  and  C_25
    2  A    between atoms: C_6  and  C_15
    3  A    between atoms: C_15  and  C_25
                            x       y       z     vdW  Elec       q    Type
                         _______ _______ _______ _____ _____    ______ ____

>  <TORSDO>
F 3

$$$$
=
 OpenBabel10272400553D

 25 27  0  0  1  0  0  0  0  0999 V2000
  188.5840  177.0640  144.7640 C   0  0  0  0  0  0  0  0  0  0  0  0
  187.4990  177.6900  144.1170 C   0  0  0  0  0  0  0  0  0  0  0  0
  187.7990  177.8810  146.9040 C   0  0  0  0  0  3  0  0  0  0  0  0
  189.6200  176.3550  143.9420 C   0  0  0  0  0  2  0  0  0  0  0  0
  186.6850  178.4610  141.8720 C   0  0  2  0  0  3  0  0  0  0  0  0
  191.6470  179.5520  144.0950 N   0  0  0  0  0  1  0  0  0  0  0  0
  186.7070  178.4750  146.2790 C   0  0  0  0  0  3  0  0  0  0  0  0
  191.2470  176.5530  146.2710 C   0  0  0  0  0  2  0  0  0  0  0  0
  191.5490  177.8700  145.7230 N   0  0  0  0  0  0  0  0  0  0  0  0
  185.3020  179.0170  144.2640 C   0  0  2  0  0  3  0  0  0  0  0  0
  184.3340  179.4460  145.2640 N   0  0  0  0  0  1  0  0  0  0  0  0
  187.4290  177.5870  142.7160 O   0  0  0  0  0  0  0  0  0  0  0  0
  191.2920  178.2360  144.5010 C   0  0  0  0  0  0  0  0  0  0  0  0
  188.7470  177.1790  146.1640 C   0  0  0  0  0  0  0  0  0  0  0  0
  189.8670  176.5240  146.9360 C   0  0  0  0  0  2  0  0  0  0  0  0
  184.6290  178.0400  143.3120 C   0  0  0  0  0  2  0  0  0  0  0  0
  190.7190  177.3070  143.4550 C   0  0  0  0  0  2  0  0  0  0  0  0
  185.1870  178.1610  141.8990 C   0  0  0  0  0  2  0  0  0  0  0  0
  186.5250  178.3800  144.8920 C   0  0  0  0  0  0  0  0  0  0  0  0
  187.2250  178.4570  140.4370 C   0  0  0  0  0  2  0  0  0  0  0  0
  189.0330  176.6860  140.6440 C   0  0  0  0  0  1  0  0  0  0  0  0
  188.7140  178.1210  140.2620 C   0  0  1  0  0  3  0  0  0  0  0  0
  189.2670  178.4880  138.9210 C   0  0  0  0  0  0  0  0  0  0  0  0
  190.1380  177.6340  138.2540 O   0  0  0  0  0  0  0  0  0  0  0  0
  188.9130  179.5660  138.3760 O   0  0  0  0  0  1  0  0  0  0  0  0
  1 14  1  0  0  0  0
  2  1  2  0  0  0  0
  2 19  1  0  0  0  0
  4  1  1  0  0  0  0
  5 20  1  6  0  0  0
  5 18  1  0  0  0  0
  5 12  1  0  0  0  0
  6 13  1  0  0  0  0
  7  3  1  0  0  0  0
  8 15  1  0  0  0  0
  9  8  1  0  0  0  0
 10 19  1  0  0  0  0
 10 11  1  1  0  0  0
 12  2  1  0  0  0  0
 13  9  2  0  0  0  0
 14  3  2  0  0  0  0
 14 15  1  0  0  0  0
 16 10  1  0  0  0  0
 17  4  1  0  0  0  0
 17 13  1  0  0  0  0
 18 16  1  0  0  0  0
 19  7  2  0  0  0  0
 22 20  1  0  0  0  0
 22 21  1  6  0  0  0
 23 22  1  0  0  0  0
 24 23  2  0  0  0  0
 25 23  1  0  0  0  0
M  END
>  <MODEL>
3

>  <REMARK>
 VINA RESULT:      -7.8      0.911      1.321
  Name = 
  3 active torsions:
  status: ('A' for Active; 'I' for Inactive)
    1  A    between atoms: C_2  and  C_25
    2  A    between atoms: C_6  and  C_15
    3  A    between atoms: C_15  and  C_25
                            x       y       z     vdW  Elec       q    Type
                         _______ _______ _______ _____ _____    ______ ____

>  <TORSDO>
F 3

$$$$
=
 OpenBabel10272400553D

 25 27  0  0  1  0  0  0  0  0999 V2000
  188.0080  177.2440  142.8060 C   0  0  0  0  0  0  0  0  0  0  0  0
  187.6870  177.7350  141.5250 C   0  0  0  0  0  0  0  0  0  0  0  0
  186.0770  178.3700  143.7380 C   0  0  0  0  0  3  0  0  0  0  0  0
  189.2600  176.4370  142.9920 C   0  0  0  0  0  2  0  0  0  0  0  0
  188.6420  178.1250  139.2370 C   0  0  2  0  0  3  0  0  0  0  0  0
  190.9470  179.6640  144.0400 N   0  0  0  0  0  1  0  0  0  0  0  0
  185.7340  178.8320  142.4720 C   0  0  0  0  0  3  0  0  0  0  0  0
  188.9400  177.0360  145.7580 C   0  0  0  0  0  2  0  0  0  0  0  0
  189.6450  178.2570  145.3860 N   0  0  0  0  0  0  0  0  0  0  0  0
  186.0770  179.0190  139.9860 C   0  0  2  0  0  3  0  0  0  0  0  0
  184.7320  179.5780  140.0140 N   0  0  0  0  0  1  0  0  0  0  0  0
  188.5560  177.4110  140.4670 O   0  0  0  0  0  0  0  0  0  0  0  0
  190.2980  178.4200  144.2720 C   0  0  0  0  0  0  0  0  0  0  0  0
  187.2110  177.5810  143.9240 C   0  0  0  0  0  0  0  0  0  0  0  0
  187.4700  177.0810  145.3250 C   0  0  0  0  0  2  0  0  0  0  0  0
  186.1210  177.8900  138.9690 C   0  0  0  0  0  2  0  0  0  0  0  0
  190.4840  177.3260  143.2460 C   0  0  0  0  0  2  0  0  0  0  0  0
  187.4840  177.8000  138.2930 C   0  0  0  0  0  2  0  0  0  0  0  0
  186.5110  178.5170  141.3480 C   0  0  0  0  0  0  0  0  0  0  0  0
  189.9950  177.9080  138.5490 C   0  0  0  0  0  2  0  0  0  0  0  0
  190.8200  175.5590  138.0450 C   0  0  0  0  0  1  0  0  0  0  0  0
  190.8300  176.7120  139.0340 C   0  0  1  0  0  3  0  0  0  0  0  0
  192.2140  177.0740  139.4710 C   0  0  0  0  0  0  0  0  0  0  0  0
  193.3120  176.7670  138.6750 O   0  0  0  0  0  0  0  0  0  0  0  0
  192.3830  177.6920  140.5530 O   0  0  0  0  0  1  0  0  0  0  0  0
  1  4  1  0  0  0  0
  1 14  1  0  0  0  0
  2  1  2  0  0  0  0
  3 14  2  0  0  0  0
  4 17  1  0  0  0  0
  5 20  1  6  0  0  0
  5 12  1  0  0  0  0
  6 13  1  0  0  0  0
  7  3  1  0  0  0  0
  9  8  1  0  0  0  0
 10 11  1  1  0  0  0
 10 19  1  0  0  0  0
 12  2  1  0  0  0  0
 13  9  2  0  0  0  0
 14 15  1  0  0  0  0
 15  8  1  0  0  0  0
 16 10  1  0  0  0  0
 17 13  1  0  0  0  0
 18 16  1  0  0  0  0
 18  5  1  0  0  0  0
 19  2  1  0  0  0  0
 19  7  2  0  0  0  0
 20 22  1  0  0  0  0
 22 21  1  6  0  0  0
 22 23  1  0  0  0  0
 23 25  1  0  0  0  0
 24 23  2  0  0  0  0
M  END
>  <MODEL>
4

>  <REMARK>
 VINA RESULT:      -7.7      2.368      3.842
  Name = 
  3 active torsions:
  status: ('A' for Active; 'I' for Inactive)
    1  A    between atoms: C_2  and  C_25
    2  A    between atoms: C_6  and  C_15
    3  A    between atoms: C_15  and  C_25
                            x       y       z     vdW  Elec       q    Type
                         _______ _______ _______ _____ _____    ______ ____

>  <TORSDO>
F 3

$$$$
=
 OpenBabel10272400553D

 25 27  0  0  1  0  0  0  0  0999 V2000
  189.4350  176.7530  142.1840 C   0  0  0  0  0  0  0  0  0  0  0  0
  189.6630  177.0470  140.8250 C   0  0  0  0  0  0  0  0  0  0  0  0
  187.4380  178.1230  142.1600 C   0  0  0  0  0  3  0  0  0  0  0  0
  190.4310  175.9180  142.9330 C   0  0  0  0  0  2  0  0  0  0  0  0
  191.4260  177.0050  139.0390 C   0  0  2  0  0  3  0  0  0  0  0  0
  191.9730  179.1710  144.1150 N   0  0  0  0  0  1  0  0  0  0  0  0
  187.6370  178.3920  140.8100 C   0  0  0  0  0  3  0  0  0  0  0  0
  189.1920  176.9750  145.2690 C   0  0  0  0  0  2  0  0  0  0  0  0
  190.1170  178.0780  145.0370 N   0  0  0  0  0  0  0  0  0  0  0  0
  188.8840  178.1530  138.6380 C   0  0  2  0  0  3  0  0  0  0  0  0
  187.6960  178.7840  138.0810 N   0  0  0  0  0  1  0  0  0  0  0  0
  190.8160  176.5070  140.2260 O   0  0  0  0  0  0  0  0  0  0  0  0
  191.1470  178.0210  144.2430 C   0  0  0  0  0  0  0  0  0  0  0  0
  188.3270  177.3130  142.8620 C   0  0  0  0  0  0  0  0  0  0  0  0
  187.9980  177.0330  144.3090 C   0  0  0  0  0  2  0  0  0  0  0  0
  189.1690  176.8720  137.8690 C   0  0  0  0  0  2  0  0  0  0  0  0
  191.5700  176.7650  143.5140 C   0  0  0  0  0  2  0  0  0  0  0  0
  190.6660  176.5960  137.7780 C   0  0  0  0  0  2  0  0  0  0  0  0
  188.7300  177.8550  140.1160 C   0  0  0  0  0  0  0  0  0  0  0  0
  192.9030  176.6020  138.9500 C   0  0  0  0  0  2  0  0  0  0  0  0
  193.7120  176.5350  136.5440 C   0  0  0  0  0  1  0  0  0  0  0  0
  193.3050  175.7190  137.7590 C   0  0  1  0  0  3  0  0  0  0  0  0
  194.3100  174.6630  138.0950 C   0  0  0  0  0  0  0  0  0  0  0  0
  195.4160  174.9610  138.8840 O   0  0  0  0  0  1  0  0  0  0  0  0
  194.1350  173.4850  137.6890 O   0  0  0  0  0  0  0  0  0  0  0  0
  1 14  1  0  0  0  0
  1  4  1  0  0  0  0
  2  1  2  0  0  0  0
  3 14  2  0  0  0  0
  4 17  1  0  0  0  0
  5 20  1  6  0  0  0
  5 12  1  0  0  0  0
  6 13  1  0  0  0  0
  7  3  1  0  0  0  0
  9  8  1  0  0  0  0
 10 11  1  6  0  0  0
 10 19  1  0  0  0  0
 12  2  1  0  0  0  0
 13  9  2  0  0  0  0
 14 15  1  0  0  0  0
 15  8  1  0  0  0  0
 16 10  1  0  0  0  0
 17 13  1  0  0  0  0
 18 16  1  0  0  0  0
 18  5  1  0  0  0  0
 19  7  2  0  0  0  0
 19  2  1  0  0  0  0
 22 21  1  6  0  0  0
 22 23  1  0  0  0  0
 22 20  1  0  0  0  0
 23 24  1  0  0  0  0
 25 23  2  0  0  0  0
M  END
>  <MODEL>
5

>  <REMARK>
 VINA RESULT:      -7.6      3.743      5.685
  Name = 
  3 active torsions:
  status: ('A' for Active; 'I' for Inactive)
    1  A    between atoms: C_2  and  C_25
    2  A    between atoms: C_6  and  C_15
    3  A    between atoms: C_15  and  C_25
                            x       y       z     vdW  Elec       q    Type
                         _______ _______ _______ _____ _____    ______ ____

>  <TORSDO>
F 3

$$$$
=
 OpenBabel10272400553D

 25 27  0  0  1  0  0  0  0  0999 V2000
  188.9320  176.9480  145.7490 C   0  0  0  0  0  0  0  0  0  0  0  0
  187.6960  177.6180  145.6450 C   0  0  0  0  0  0  0  0  0  0  0  0
  189.3590  178.0350  147.8710 C   0  0  0  0  0  3  0  0  0  0  0  0
  189.3860  176.0660  144.6240 C   0  0  0  0  0  2  0  0  0  0  0  0
  185.9000  178.2580  144.0130 C   0  0  2  0  0  3  0  0  0  0  0  0
  191.3490  179.0420  143.3420 N   0  0  0  0  0  1  0  0  0  0  0  0
  188.1260  178.6750  147.7930 C   0  0  0  0  0  3  0  0  0  0  0  0
  191.9670  176.3110  145.8020 C   0  0  0  0  0  2  0  0  0  0  0  0
  192.0090  177.5350  145.0100 N   0  0  0  0  0  0  0  0  0  0  0  0
  185.9250  179.1690  146.6800 C   0  0  2  0  0  3  0  0  0  0  0  0
  185.6070  179.7830  147.9610 N   0  0  0  0  0  1  0  0  0  0  0  0
  186.9290  177.3940  144.4870 O   0  0  0  0  0  0  0  0  0  0  0  0
  191.1900  177.8120  144.0370 C   0  0  0  0  0  0  0  0  0  0  0  0
  189.7790  177.1750  146.8580 C   0  0  0  0  0  0  0  0  0  0  0  0
  191.1060  176.4840  147.0580 C   0  0  0  0  0  2  0  0  0  0  0  0
  184.8260  178.1810  146.3200 C   0  0  0  0  0  2  0  0  0  0  0  0
  190.1320  176.8530  143.5400 C   0  0  0  0  0  2  0  0  0  0  0  0
  184.6050  178.1150  144.8130 C   0  0  0  0  0  2  0  0  0  0  0  0
  187.2700  178.4720  146.7010 C   0  0  0  0  0  0  0  0  0  0  0  0
  185.6480  178.0670  142.5120 C   0  0  0  0  0  2  0  0  0  0  0  0
  188.0010  178.4360  141.6310 C   0  0  0  0  0  1  0  0  0  0  0  0
  186.5460  178.8670  141.5560 C   0  0  1  0  0  3  0  0  0  0  0  0
  186.0420  178.9190  140.1480 C   0  0  0  0  0  0  0  0  0  0  0  0
  184.8390  179.5490  139.8470 O   0  0  0  0  0  1  0  0  0  0  0  0
  186.7300  178.4170  139.2220 O   0  0  0  0  0  0  0  0  0  0  0  0
  1 14  1  0  0  0  0
  2  1  2  0  0  0  0
  2 19  1  0  0  0  0
  4  1  1  0  0  0  0
  5 20  1  6  0  0  0
  5 12  1  0  0  0  0
  5 18  1  0  0  0  0
  6 13  1  0  0  0  0
  7  3  1  0  0  0  0
  8 15  1  0  0  0  0
  9  8  1  0  0  0  0
 10 19  1  0  0  0  0
 10 11  1  1  0  0  0
 12  2  1  0  0  0  0
 13  9  2  0  0  0  0
 14 15  1  0  0  0  0
 14  3  2  0  0  0  0
 16 10  1  0  0  0  0
 17 13  1  0  0  0  0
 17  4  1  0  0  0  0
 18 16  1  0  0  0  0
 19  7  2  0  0  0  0
 22 21  1  6  0  0  0
 22 20  1  0  0  0  0
 23 22  1  0  0  0  0
 24 23  1  0  0  0  0
 25 23  2  0  0  0  0
M  END
>  <MODEL>
6

>  <REMARK>
 VINA RESULT:      -7.4      1.507      1.925
  Name = 
  3 active torsions:
  status: ('A' for Active; 'I' for Inactive)
    1  A    between atoms: C_2  and  C_25
    2  A    between atoms: C_6  and  C_15
    3  A    between atoms: C_15  and  C_25
                            x       y       z     vdW  Elec       q    Type
                         _______ _______ _______ _____ _____    ______ ____

>  <TORSDO>
F 3

$$$$
=
 OpenBabel10272400553D

 25 27  0  0  1  0  0  0  0  0999 V2000
  186.6500  178.5770  142.5400 C   0  0  0  0  0  0  0  0  0  0  0  0
  187.7550  177.9620  141.9170 C   0  0  0  0  0  0  0  0  0  0  0  0
  186.8060  177.0200  144.3880 C   0  0  0  0  0  3  0  0  0  0  0  0
  185.9390  179.6950  141.8370 C   0  0  0  0  0  2  0  0  0  0  0  0
  188.9410  177.7390  139.7170 C   0  0  2  0  0  3  0  0  0  0  0  0
  183.5010  177.0830  140.5720 N   0  0  0  0  0  1  0  0  0  0  0  0
  187.9180  176.4270  143.7970 C   0  0  0  0  0  3  0  0  0  0  0  0
  183.8140  179.1550  143.6550 C   0  0  0  0  0  2  0  0  0  0  0  0
  183.4620  178.1510  142.6580 N   0  0  0  0  0  0  0  0  0  0  0  0
  189.6530  176.2290  141.9860 C   0  0  2  0  0  3  0  0  0  0  0  0
  190.2980  175.3340  142.9370 N   0  0  0  0  0  1  0  0  0  0  0  0
  188.1550  178.4580  140.6630 O   0  0  0  0  0  0  0  0  0  0  0  0
  183.9360  178.1180  141.4460 C   0  0  0  0  0  0  0  0  0  0  0  0
  186.1590  178.0890  143.7730 C   0  0  0  0  0  0  0  0  0  0  0  0
  184.9970  178.7010  144.5170 C   0  0  0  0  0  2  0  0  0  0  0  0
  190.6550  177.2830  141.5430 C   0  0  0  0  0  2  0  0  0  0  0  0
  184.8560  179.1770  140.8810 C   0  0  0  0  0  2  0  0  0  0  0  0
  190.4210  177.7030  140.0960 C   0  0  0  0  0  2  0  0  0  0  0  0
  188.4210  176.8880  142.5720 C   0  0  0  0  0  0  0  0  0  0  0  0
  188.7470  178.2790  138.2940 C   0  0  0  0  0  2  0  0  0  0  0  0
  188.1680  175.9660  137.4210 C   0  0  0  0  0  1  0  0  0  0  0  0
  187.8530  177.4510  137.3590 C   0  0  1  0  0  3  0  0  0  0  0  0
  186.3910  177.7270  137.5130 C   0  0  0  0  0  0  0  0  0  0  0  0
  185.4540  176.7160  137.3300 O   0  0  0  0  0  0  0  0  0  0  0  0
  186.0070  178.8790  137.8450 O   0  0  0  0  0  1  0  0  0  0  0  0
  1 14  1  0  0  0  0
  2  1  2  0  0  0  0
  2 19  1  0  0  0  0
  4  1  1  0  0  0  0
  5 20  1  6  0  0  0
  5 18  1  0  0  0  0
  5 12  1  0  0  0  0
  6 13  1  0  0  0  0
  7  3  1  0  0  0  0
  8 15  1  0  0  0  0
  9  8  1  0  0  0  0
 10 19  1  0  0  0  0
 10 11  1  1  0  0  0
 12  2  1  0  0  0  0
 13  9  2  0  0  0  0
 14  3  2  0  0  0  0
 14 15  1  0  0  0  0
 16 10  1  0  0  0  0
 17 13  1  0  0  0  0
 17  4  1  0  0  0  0
 18 16  1  0  0  0  0
 19  7  2  0  0  0  0
 22 21  1  1  0  0  0
 22 23  1  0  0  0  0
 22 20  1  0  0  0  0
 23 25  1  0  0  0  0
 24 23  2  0  0  0  0
M  END
>  <MODEL>
7

>  <REMARK>
 VINA RESULT:      -7.2      2.448      5.432
  Name = 
  3 active torsions:
  status: ('A' for Active; 'I' for Inactive)
    1  A    between atoms: C_2  and  C_25
    2  A    between atoms: C_6  and  C_15
    3  A    between atoms: C_15  and  C_25
                            x       y       z     vdW  Elec       q    Type
                         _______ _______ _______ _____ _____    ______ ____

>  <TORSDO>
F 3

$$$$
=
 OpenBabel10272400553D

 25 27  0  0  1  0  0  0  0  0999 V2000
  187.7820  177.2590  144.0340 C   0  0  0  0  0  0  0  0  0  0  0  0
  186.8880  177.8490  143.1180 C   0  0  0  0  0  0  0  0  0  0  0  0
  186.4940  178.1420  145.8840 C   0  0  0  0  0  3  0  0  0  0  0  0
  188.9890  176.5330  143.5180 C   0  0  0  0  0  2  0  0  0  0  0  0
  186.6490  178.5310  140.7150 C   0  0  2  0  0  3  0  0  0  0  0  0
  190.9090  179.7560  144.0460 N   0  0  0  0  0  1  0  0  0  0  0  0
  185.5870  178.7000  144.9880 C   0  0  0  0  0  3  0  0  0  0  0  0
  189.9940  176.8310  146.1660 C   0  0  0  0  0  2  0  0  0  0  0  0
  190.4180  178.1310  145.6610 N   0  0  0  0  0  0  0  0  0  0  0  0
  184.7190  179.1560  142.6710 C   0  0  2  0  0  3  0  0  0  0  0  0
  183.5340  179.6080  143.3870 N   0  0  0  0  0  1  0  0  0  0  0  0
  187.1640  177.6960  141.7470 O   0  0  0  0  0  0  0  0  0  0  0  0
  190.4690  178.4510  144.4000 C   0  0  0  0  0  0  0  0  0  0  0  0
  187.5960  177.4250  145.4250 C   0  0  0  0  0  0  0  0  0  0  0  0
  188.4930  176.8100  146.4730 C   0  0  0  0  0  2  0  0  0  0  0  0
  184.3030  178.1380  141.6210 C   0  0  0  0  0  2  0  0  0  0  0  0
  190.1720  177.4790  143.2800 C   0  0  0  0  0  2  0  0  0  0  0  0
  185.1900  178.2150  140.3840 C   0  0  0  0  0  2  0  0  0  0  0  0
  185.7520  178.5550  143.6030 C   0  0  0  0  0  0  0  0  0  0  0  0
  187.5240  178.4820  139.4570 C   0  0  0  0  0  2  0  0  0  0  0  0
  186.6750  178.4960  137.0640 C   0  0  0  0  0  1  0  0  0  0  0  0
  186.9950  177.6470  138.2810 C   0  0  1  0  0  3  0  0  0  0  0  0
  187.8490  176.4660  137.9400 C   0  0  0  0  0  0  0  0  0  0  0  0
  187.2960  175.3370  137.3470 O   0  0  0  0  0  0  0  0  0  0  0  0
  189.0870  176.5100  138.1620 O   0  0  0  0  0  1  0  0  0  0  0  0
  1 14  1  0  0  0  0
  2 19  1  0  0  0  0
  2  1  2  0  0  0  0
  4  1  1  0  0  0  0
  5 20  1  6  0  0  0
  5 12  1  0  0  0  0
  6 13  1  0  0  0  0
  7  3  1  0  0  0  0
  8 15  1  0  0  0  0
  9  8  1  0  0  0  0
 10 11  1  1  0  0  0
 10 19  1  0  0  0  0
 12  2  1  0  0  0  0
 13  9  2  0  0  0  0
 14  3  2  0  0  0  0
 14 15  1  0  0  0  0
 16 10  1  0  0  0  0
 17  4  1  0  0  0  0
 17 13  1  0  0  0  0
 18  5  1  0  0  0  0
 18 16  1  0  0  0  0
 19  7  2  0  0  0  0
 22 21  1  6  0  0  0
 22 20  1  0  0  0  0
 23 25  1  0  0  0  0
 23 22  1  0  0  0  0
 24 23  2  0  0  0  0
M  END
>  <MODEL>
8

>  <REMARK>
 VINA RESULT:      -6.9      1.502      2.021
  Name = 
  3 active torsions:
  status: ('A' for Active; 'I' for Inactive)
    1  A    between atoms: C_2  and  C_25
    2  A    between atoms: C_6  and  C_15
    3  A    between atoms: C_15  and  C_25
                            x       y       z     vdW  Elec       q    Type
                         _______ _______ _______ _____ _____    ______ ____

>  <TORSDO>
F 3

$$$$
=
 OpenBabel10272400553D

 25 27  0  0  1  0  0  0  0  0999 V2000
  188.6260  178.3600  143.0490 C   0  0  0  0  0  0  0  0  0  0  0  0
  187.5800  178.2820  143.9900 C   0  0  0  0  0  0  0  0  0  0  0  0
  187.0230  178.2430  141.2370 C   0  0  0  0  0  3  0  0  0  0  0  0
  190.0470  178.3900  143.5290 C   0  0  0  0  0  2  0  0  0  0  0  0
  187.0950  177.7890  146.4030 C   0  0  2  0  0  3  0  0  0  0  0  0
  190.1080  174.6430  142.9710 N   0  0  0  0  0  1  0  0  0  0  0  0
  185.9820  178.2000  142.1590 C   0  0  0  0  0  3  0  0  0  0  0  0
  190.7060  177.6550  140.8580 C   0  0  0  0  0  2  0  0  0  0  0  0
  190.4440  176.3110  141.3600 N   0  0  0  0  0  0  0  0  0  0  0  0
  185.0610  178.2150  144.5000 C   0  0  2  0  0  3  0  0  0  0  0  0
  183.7900  178.4130  143.8180 N   0  0  0  0  0  1  0  0  0  0  0  0
  187.9300  178.2680  145.3530 O   0  0  0  0  0  0  0  0  0  0  0  0
  190.3610  175.9980  142.6200 C   0  0  0  0  0  0  0  0  0  0  0  0
  188.3470  178.3180  141.6630 C   0  0  0  0  0  0  0  0  0  0  0  0
  189.4040  178.4170  140.5890 C   0  0  0  0  0  2  0  0  0  0  0  0
  185.2280  179.2980  145.5550 C   0  0  0  0  0  2  0  0  0  0  0  0
  190.6120  176.9810  143.7420 C   0  0  0  0  0  2  0  0  0  0  0  0
  185.9920  178.7820  146.7690 C   0  0  0  0  0  2  0  0  0  0  0  0
  186.2310  178.2340  143.5380 C   0  0  0  0  0  0  0  0  0  0  0  0
  187.9110  177.3890  147.6380 C   0  0  0  0  0  2  0  0  0  0  0  0
  189.5810  178.7360  148.9970 C   0  0  0  0  0  1  0  0  0  0  0  0
  189.3430  177.9400  147.7250 C   0  0  1  0  0  3  0  0  0  0  0  0
  190.4060  176.9130  147.4910 C   0  0  0  0  0  0  0  0  0  0  0  0
  191.7390  177.1960  147.7660 O   0  0  0  0  0  1  0  0  0  0  0  0
  190.0850  175.7700  147.0740 O   0  0  0  0  0  0  0  0  0  0  0  0
  1  4  1  0  0  0  0
  1  2  1  0  0  0  0
  2 12  1  0  0  0  0
  3 14  1  0  0  0  0
  3  7  2  0  0  0  0
  4 17  1  0  0  0  0
  5 18  1  0  0  0  0
  5 20  1  1  0  0  0
  7 19  1  0  0  0  0
  8  9  1  0  0  0  0
  9 13  2  0  0  0  0
 10 11  1  6  0  0  0
 10 16  1  0  0  0  0
 12  5  1  0  0  0  0
 13  6  1  0  0  0  0
 13 17  1  0  0  0  0
 14  1  2  0  0  0  0
 15  8  1  0  0  0  0
 15 14  1  0  0  0  0
 16 18  1  0  0  0  0
 19  2  2  0  0  0  0
 19 10  1  0  0  0  0
 20 22  1  0  0  0  0
 22 21  1  1  0  0  0
 23 22  1  0  0  0  0
 23 24  1  0  0  0  0
 25 23  2  0  0  0  0
M  END
>  <MODEL>
9

>  <REMARK>
 VINA RESULT:      -6.9      2.569      5.327
  Name = 
  3 active torsions:
  status: ('A' for Active; 'I' for Inactive)
    1  A    between atoms: C_2  and  C_25
    2  A    between atoms: C_6  and  C_15
    3  A    between atoms: C_15  and  C_25
                            x       y       z     vdW  Elec       q    Type
                         _______ _______ _______ _____ _____    ______ ____

>  <TORSDO>
F 3

$$$$
