=
 OpenBabel10262423503D

 34 39  0  0  1  0  0  0  0  0999 V2000
  185.0100  178.9730  144.7300 C   0  0  0  0  0  0  0  0  0  0  0  0
  186.9100  177.3950  144.4740 C   0  0  0  0  0  0  0  0  0  0  0  0
  185.7930  178.4480  142.3900 C   0  0  0  0  0  0  0  0  0  0  0  0
  186.3290  178.3740  140.0680 N   0  0  0  0  0  0  0  0  0  0  0  0
  186.1880  178.1920  146.6880 C   0  0  0  0  0  3  0  0  0  0  0  0
  186.9740  177.2960  145.8090 C   0  0  0  0  0  3  0  0  0  0  0  0
  188.1080  178.5010  141.5740 N   0  0  0  0  0  2  0  0  0  0  0  0
  186.1750  178.5730  143.8490 C   0  0  1  0  0  3  0  0  0  0  0  0
  187.5050  178.4250  139.2290 C   0  0  0  0  0  2  0  0  0  0  0  0
  185.2340  178.9800  146.1810 C   0  0  0  0  0  3  0  0  0  0  0  0
  184.3720  178.5840  141.9710 C   0  0  0  0  0  0  0  0  0  0  0  0
  183.8110  179.1420  144.2620 N   0  0  0  0  0  0  0  0  0  0  0  0
  187.7020  176.4260  143.6640 C   0  0  0  0  0  1  0  0  0  0  0  0
  184.9910  178.3810  139.6440 N   0  0  0  0  0  0  0  0  0  0  0  0
  184.0200  178.4590  140.5130 C   0  0  0  0  0  0  0  0  0  0  0  0
  188.6880  178.4960  140.2280 C   0  0  2  0  0  3  0  0  0  0  0  0
  186.7060  178.4150  141.4160 C   0  0  0  0  0  0  0  0  0  0  0  0
  183.4680  178.9590  142.8800 C   0  0  0  0  0  3  0  0  0  0  0  0
  180.7010  179.5020  138.9950 C   0  0  0  0  0  0  0  0  0  0  0  0
  179.9840  178.3560  139.1420 N   0  0  0  0  0  0  0  0  0  0  0  0
  182.6200  178.4310  140.0120 C   0  0  0  0  0  0  0  0  0  0  0  0
  180.5270  177.2470  139.7110 C   0  0  0  0  0  3  0  0  0  0  0  0
  182.0250  179.5600  139.4310 C   0  0  0  0  0  3  0  0  0  0  0  0
  181.8500  177.2670  140.1580 C   0  0  0  0  0  3  0  0  0  0  0  0
  180.1270  180.5900  138.4280 F   0  0  0  0  0  0  0  0  0  0  0  0
  189.5850  177.2780  140.0690 C   0  0  0  0  0  2  0  0  0  0  0  0
  190.7790  177.4170  140.8890 N   0  0  0  0  0  2  0  0  0  0  0  0
  190.5000  176.8040  142.1800 C   0  0  0  0  0  2  0  0  0  0  0  0
  190.6750  179.2390  143.7170 C   0  0  0  0  0  1  0  0  0  0  0  0
  191.6280  178.1140  144.0970 C   0  0  2  0  0  3  0  0  0  0  0  0
  191.3200  176.1710  145.3280 C   0  0  0  0  0  2  0  0  0  0  0  0
  191.7810  175.7030  143.9910 C   0  0  0  0  0  2  0  0  0  0  0  0
  191.7100  176.9390  143.1040 C   0  0  1  0  0  3  0  0  0  0  0  0
  191.2290  177.4900  145.3840 C   0  0  0  0  0  2  0  0  0  0  0  0
  1 10  1  0  0  0  0
  2  6  2  0  0  0  0
  4 17  1  0  0  0  0
  6  5  1  0  0  0  0
  8  3  1  6  0  0  0
  8  2  1  0  0  0  0
  8  1  1  0  0  0  0
  9  4  1  0  0  0  0
  9 16  1  0  0  0  0
 10  5  2  0  0  0  0
 11  3  1  0  0  0  0
 11 18  2  0  0  0  0
 12  1  2  0  0  0  0
 13  2  1  0  0  0  0
 14  4  1  0  0  0  0
 14 15  2  0  0  0  0
 15 11  1  0  0  0  0
 16 26  1  1  0  0  0
 16  7  1  0  0  0  0
 17  7  1  0  0  0  0
 17  3  2  0  0  0  0
 18 12  1  0  0  0  0
 19 20  2  0  0  0  0
 19 23  1  0  0  0  0
 20 22  1  0  0  0  0
 21 24  1  0  0  0  0
 21 15  1  0  0  0  0
 22 24  2  0  0  0  0
 23 21  2  0  0  0  0
 25 19  1  0  0  0  0
 26 27  1  0  0  0  0
 27 28  1  0  0  0  0
 30 29  1  6  0  0  0
 30 34  1  0  0  0  0
 31 34  1  0  0  0  0
 32 31  1  0  0  0  0
 33 28  1  6  0  0  0
 33 32  1  0  0  0  0
 33 30  1  0  0  0  0
M  END
>  <MODEL>
1

>  <REMARK>
 VINA RESULT:      -9.7      0.000      0.000
  Name = 
  5 active torsions:
  status: ('A' for Active; 'I' for Inactive)
    1  A    between atoms: N_3  and  C_13
    2  A    between atoms: N_3  and  C_17
    3  A    between atoms: C_12  and  C_28
    4  A    between atoms: C_13  and  C_33
    5  A    between atoms: C_17  and  C_29
                            x       y       z     vdW  Elec       q    Type
                         _______ _______ _______ _____ _____    ______ ____

>  <TORSDO>
F 5

$$$$
=
 OpenBabel10262423503D

 34 39  0  0  1  0  0  0  0  0999 V2000
  186.1770  178.7580  140.3040 C   0  0  0  0  0  0  0  0  0  0  0  0
  186.5020  177.7970  142.5700 C   0  0  0  0  0  0  0  0  0  0  0  0
  188.4500  177.8210  140.8650 C   0  0  0  0  0  0  0  0  0  0  0  0
  190.7520  177.2280  141.0460 N   0  0  0  0  0  0  0  0  0  0  0  0
  184.4240  178.9630  141.9530 C   0  0  0  0  0  3  0  0  0  0  0  0
  185.2330  178.1170  142.8600 C   0  0  0  0  0  3  0  0  0  0  0  0
  189.7760  178.3010  142.8750 N   0  0  0  0  0  2  0  0  0  0  0  0
  187.1910  178.4740  141.3920 C   0  0  0  0  0  0  0  0  0  0  0  0
  191.8330  177.3690  141.9970 C   0  0  0  0  0  2  0  0  0  0  0  0
  184.8600  179.2550  140.7230 C   0  0  0  0  0  2  0  0  0  0  0  0
  188.5440  177.4090  139.4390 C   0  0  0  0  0  0  0  0  0  0  0  0
  186.3760  178.4260  139.0650 N   0  0  0  0  0  0  0  0  0  0  0  0
  187.2310  176.9070  143.5180 C   0  0  0  0  0  1  0  0  0  0  0  0
  190.8410  176.7210  139.7410 N   0  0  0  0  0  0  0  0  0  0  0  0
  189.8090  176.7660  138.9410 C   0  0  0  0  0  0  0  0  0  0  0  0
  191.1820  178.0700  143.2170 C   0  0  2  0  0  3  0  0  0  0  0  0
  189.5770  177.7700  141.5810 C   0  0  0  0  0  0  0  0  0  0  0  0
  187.5580  177.7560  138.6060 C   0  0  0  0  0  3  0  0  0  0  0  0
  190.0310  174.2970  136.0650 C   0  0  0  0  0  0  0  0  0  0  0  0
  190.2670  175.1410  135.0260 N   0  0  0  0  0  0  0  0  0  0  0  0
  189.9470  176.1870  137.5780 C   0  0  0  0  0  0  0  0  0  0  0  0
  190.3570  176.4850  135.2080 C   0  0  0  0  0  3  0  0  0  0  0  0
  189.8720  174.8040  137.3560 C   0  0  0  0  0  3  0  0  0  0  0  0
  190.2020  177.0290  136.4860 C   0  0  0  0  0  3  0  0  0  0  0  0
  189.9520  172.9630  135.8490 F   0  0  0  0  0  0  0  0  0  0  0  0
  191.2640  177.1740  144.4440 C   0  0  0  0  0  2  0  0  0  0  0  0
  189.9430  176.9920  145.0260 N   0  0  0  0  0  2  0  0  0  0  0  0
  190.0070  177.4370  146.4100 C   0  0  0  0  0  2  0  0  0  0  0  0
  189.6820  178.4580  149.0890 C   0  0  0  0  0  1  0  0  0  0  0  0
  188.5060  177.6950  148.4950 C   0  0  2  0  0  3  0  0  0  0  0  0
  186.8620  178.3170  146.9790 C   0  0  0  0  0  2  0  0  0  0  0  0
  187.5470  177.1580  146.3410 C   0  0  0  0  0  2  0  0  0  0  0  0
  188.7920  176.9310  147.1880 C   0  0  1  0  0  3  0  0  0  0  0  0
  187.3920  178.6170  148.1540 C   0  0  0  0  0  2  0  0  0  0  0  0
  1 10  1  0  0  0  0
  1  8  1  0  0  0  0
  2  6  1  0  0  0  0
  2 13  1  0  0  0  0
  3  8  1  0  0  0  0
  3 17  2  0  0  0  0
  4 17  1  0  0  0  0
  4  9  1  0  0  0  0
  5  6  2  0  0  0  0
  7 16  1  0  0  0  0
  8  2  2  0  0  0  0
  9 16  1  0  0  0  0
 10  5  1  0  0  0  0
 11  3  1  0  0  0  0
 12  1  2  0  0  0  0
 14  4  1  0  0  0  0
 15 11  1  0  0  0  0
 15 14  2  0  0  0  0
 16 26  1  1  0  0  0
 17  7  1  0  0  0  0
 18 12  1  0  0  0  0
 18 11  2  0  0  0  0
 19 23  1  0  0  0  0
 20 22  1  0  0  0  0
 20 19  2  0  0  0  0
 21 15  1  0  0  0  0
 22 24  2  0  0  0  0
 23 21  2  0  0  0  0
 24 21  1  0  0  0  0
 25 19  1  0  0  0  0
 26 27  1  0  0  0  0
 27 28  1  0  0  0  0
 30 29  1  6  0  0  0
 31 34  1  0  0  0  0
 32 31  1  0  0  0  0
 32 33  1  0  0  0  0
 33 28  1  6  0  0  0
 33 30  1  0  0  0  0
 34 30  1  0  0  0  0
M  END
>  <MODEL>
2

>  <REMARK>
 VINA RESULT:      -8.9      3.277      6.304
  Name = 
  5 active torsions:
  status: ('A' for Active; 'I' for Inactive)
    1  A    between atoms: N_3  and  C_13
    2  A    between atoms: N_3  and  C_17
    3  A    between atoms: C_12  and  C_28
    4  A    between atoms: C_13  and  C_33
    5  A    between atoms: C_17  and  C_29
                            x       y       z     vdW  Elec       q    Type
                         _______ _______ _______ _____ _____    ______ ____

>  <TORSDO>
F 5

$$$$
=
 OpenBabel10262423503D

 34 39  0  0  1  0  0  0  0  0999 V2000
  185.1630  178.9750  144.4060 C   0  0  0  0  0  0  0  0  0  0  0  0
  186.9900  177.2950  144.4060 C   0  0  0  0  0  0  0  0  0  0  0  0
  186.2850  178.4630  142.2060 C   0  0  0  0  0  0  0  0  0  0  0  0
  187.1870  178.4150  140.0000 N   0  0  0  0  0  0  0  0  0  0  0  0
  185.9620  178.0780  146.5010 C   0  0  0  0  0  3  0  0  0  0  0  0
  186.8310  177.1590  145.7300 C   0  0  0  0  0  3  0  0  0  0  0  0
  188.7020  178.3990  141.7760 N   0  0  0  0  0  2  0  0  0  0  0  0
  186.4320  178.5300  143.7110 C   0  0  1  0  0  3  0  0  0  0  0  0
  188.4860  178.4160  139.3630 C   0  0  0  0  0  2  0  0  0  0  0  0
  185.1470  178.9330  145.8730 C   0  0  0  0  0  3  0  0  0  0  0  0
  184.9610  178.6930  141.5690 C   0  0  0  0  0  0  0  0  0  0  0  0
  184.0660  179.2260  143.7570 N   0  0  0  0  0  0  0  0  0  0  0  0
  187.8490  176.3010  143.7020 C   0  0  0  0  0  1  0  0  0  0  0  0
  185.9390  178.5110  139.3660 N   0  0  0  0  0  0  0  0  0  0  0  0
  184.8450  178.6250  140.0700 C   0  0  0  0  0  0  0  0  0  0  0  0
  189.4920  178.3930  140.5420 C   0  0  2  0  0  3  0  0  0  0  0  0
  187.3420  178.4010  141.3910 C   0  0  0  0  0  0  0  0  0  0  0  0
  183.9430  179.0990  142.3330 C   0  0  0  0  0  3  0  0  0  0  0  0
  181.8100  179.9300  138.1990 C   0  0  0  0  0  0  0  0  0  0  0  0
  181.0880  178.7860  138.0610 N   0  0  0  0  0  0  0  0  0  0  0  0
  183.5450  178.6920  139.3500 C   0  0  0  0  0  0  0  0  0  0  0  0
  181.5380  177.5990  138.5450 C   0  0  0  0  0  3  0  0  0  0  0  0
  183.0460  179.9020  138.8480 C   0  0  0  0  0  3  0  0  0  0  0  0
  182.7710  177.5330  139.1990 C   0  0  0  0  0  3  0  0  0  0  0  0
  181.3300  181.0970  137.7090 F   0  0  0  0  0  0  0  0  0  0  0  0
  190.3350  177.1280  140.4880 C   0  0  0  0  0  2  0  0  0  0  0  0
  190.2350  176.5090  139.1740 N   0  0  0  0  0  2  0  0  0  0  0  0
  191.5840  176.3820  138.6430 C   0  0  0  0  0  2  0  0  0  0  0  0
  193.8950  175.0000  137.6070 C   0  0  0  0  0  1  0  0  0  0  0  0
  192.6570  175.0340  136.7210 C   0  0  2  0  0  3  0  0  0  0  0  0
  190.6880  173.8060  136.7600 C   0  0  0  0  0  2  0  0  0  0  0  0
  190.2530  175.2230  136.9050 C   0  0  0  0  0  2  0  0  0  0  0  0
  191.5390  175.9970  137.1650 C   0  0  1  0  0  3  0  0  0  0  0  0
  192.0040  173.7010  136.6670 C   0  0  0  0  0  2  0  0  0  0  0  0
  1 10  1  0  0  0  0
  2  6  2  0  0  0  0
  4 17  1  0  0  0  0
  6  5  1  0  0  0  0
  8  3  1  6  0  0  0
  8  1  1  0  0  0  0
  8  2  1  0  0  0  0
  9  4  1  0  0  0  0
  9 16  1  0  0  0  0
 10  5  2  0  0  0  0
 11  3  1  0  0  0  0
 11 18  2  0  0  0  0
 12  1  2  0  0  0  0
 13  2  1  0  0  0  0
 14  4  1  0  0  0  0
 14 15  2  0  0  0  0
 15 11  1  0  0  0  0
 16 26  1  6  0  0  0
 16  7  1  0  0  0  0
 17  7  1  0  0  0  0
 17  3  2  0  0  0  0
 18 12  1  0  0  0  0
 19 23  1  0  0  0  0
 20 19  2  0  0  0  0
 20 22  1  0  0  0  0
 21 15  1  0  0  0  0
 22 24  2  0  0  0  0
 23 21  2  0  0  0  0
 24 21  1  0  0  0  0
 25 19  1  0  0  0  0
 27 26  1  0  0  0  0
 28 27  1  0  0  0  0
 30 33  1  0  0  0  0
 30 29  1  1  0  0  0
 31 32  1  0  0  0  0
 32 33  1  0  0  0  0
 33 28  1  1  0  0  0
 34 30  1  0  0  0  0
 34 31  1  0  0  0  0
M  END
>  <MODEL>
3

>  <REMARK>
 VINA RESULT:      -8.6      2.238      3.556
  Name = 
  5 active torsions:
  status: ('A' for Active; 'I' for Inactive)
    1  A    between atoms: N_3  and  C_13
    2  A    between atoms: N_3  and  C_17
    3  A    between atoms: C_12  and  C_28
    4  A    between atoms: C_13  and  C_33
    5  A    between atoms: C_17  and  C_29
                            x       y       z     vdW  Elec       q    Type
                         _______ _______ _______ _____ _____    ______ ____

>  <TORSDO>
F 5

$$$$
=
 OpenBabel10262423503D

 34 39  0  0  1  0  0  0  0  0999 V2000
  190.2320  177.3280  146.3810 C   0  0  0  0  0  0  0  0  0  0  0  0
  191.2270  175.7010  144.7910 C   0  0  0  0  0  0  0  0  0  0  0  0
  189.4350  177.3880  143.9890 C   0  0  0  0  0  0  0  0  0  0  0  0
  188.5610  177.8990  141.8310 N   0  0  0  0  0  0  0  0  0  0  0  0
  192.0670  175.9290  147.0940 C   0  0  0  0  0  3  0  0  0  0  0  0
  191.9930  175.2340  145.7880 C   0  0  0  0  0  3  0  0  0  0  0  0
  190.8430  177.4330  141.9770 N   0  0  0  0  0  2  0  0  0  0  0  0
  190.5780  177.0710  144.9290 C   0  0  1  0  0  3  0  0  0  0  0  0
  189.0470  178.0600  140.4780 C   0  0  0  0  0  2  0  0  0  0  0  0
  191.2150  176.9160  147.3910 C   0  0  0  0  0  3  0  0  0  0  0  0
  188.1030  177.7720  144.5260 C   0  0  0  0  0  0  0  0  0  0  0  0
  189.0570  177.7350  146.7540 N   0  0  0  0  0  0  0  0  0  0  0  0
  191.1770  174.9170  143.5250 C   0  0  0  0  0  1  0  0  0  0  0  0
  187.2600  178.1530  142.2930 N   0  0  0  0  0  0  0  0  0  0  0  0
  186.9850  178.0860  143.5680 C   0  0  0  0  0  0  0  0  0  0  0  0
  190.5600  177.7390  140.5730 C   0  0  2  0  0  3  0  0  0  0  0  0
  189.6170  177.5330  142.6730 C   0  0  0  0  0  0  0  0  0  0  0  0
  187.9750  177.9720  145.8410 C   0  0  0  0  0  3  0  0  0  0  0  0
  183.2370  178.6800  143.5230 C   0  0  0  0  0  0  0  0  0  0  0  0
  182.9920  178.8550  144.8490 N   0  0  0  0  0  0  0  0  0  0  0  0
  185.5850  178.3340  144.0030 C   0  0  0  0  0  0  0  0  0  0  0  0
  183.9900  178.7880  145.7700 C   0  0  0  0  0  3  0  0  0  0  0  0
  184.5340  178.4210  143.0790 C   0  0  0  0  0  3  0  0  0  0  0  0
  185.3010  178.5300  145.3620 C   0  0  0  0  0  3  0  0  0  0  0  0
  182.2200  178.7580  142.6320 F   0  0  0  0  0  0  0  0  0  0  0  0
  190.8950  176.5280  139.7140 C   0  0  0  0  0  2  0  0  0  0  0  0
  190.8630  176.8840  138.3040 N   0  0  0  0  0  2  0  0  0  0  0  0
  189.9580  175.9600  137.6370 C   0  0  0  0  0  2  0  0  0  0  0  0
  187.2920  175.0750  136.9760 C   0  0  0  0  0  1  0  0  0  0  0  0
  187.7910  176.3370  136.2850 C   0  0  2  0  0  3  0  0  0  0  0  0
  187.9680  178.5350  137.0100 C   0  0  0  0  0  2  0  0  0  0  0  0
  189.3570  178.1460  136.6390 C   0  0  0  0  0  2  0  0  0  0  0  0
  189.2940  176.6370  136.4380 C   0  0  1  0  0  3  0  0  0  0  0  0
  187.1110  177.5430  136.8240 C   0  0  0  0  0  2  0  0  0  0  0  0
  1 12  2  0  0  0  0
  1 10  1  0  0  0  0
  2  8  1  0  0  0  0
  2  6  2  0  0  0  0
  3 11  1  0  0  0  0
  4 14  1  0  0  0  0
  4 17  1  0  0  0  0
  5 10  2  0  0  0  0
  6  5  1  0  0  0  0
  7 17  1  0  0  0  0
  8  3  1  6  0  0  0
  8  1  1  0  0  0  0
  9 16  1  0  0  0  0
  9  4  1  0  0  0  0
 11 18  2  0  0  0  0
 13  2  1  0  0  0  0
 14 15  2  0  0  0  0
 15 21  1  0  0  0  0
 15 11  1  0  0  0  0
 16 26  1  6  0  0  0
 16  7  1  0  0  0  0
 17  3  2  0  0  0  0
 18 12  1  0  0  0  0
 19 20  1  0  0  0  0
 20 22  2  0  0  0  0
 21 24  2  0  0  0  0
 23 19  2  0  0  0  0
 23 21  1  0  0  0  0
 24 22  1  0  0  0  0
 25 19  1  0  0  0  0
 27 26  1  0  0  0  0
 28 27  1  0  0  0  0
 30 33  1  0  0  0  0
 30 34  1  0  0  0  0
 30 29  1  1  0  0  0
 32 31  1  0  0  0  0
 33 32  1  0  0  0  0
 33 28  1  1  0  0  0
 34 31  1  0  0  0  0
M  END
>  <MODEL>
4

>  <REMARK>
 VINA RESULT:      -8.6      2.625      5.640
  Name = 
  5 active torsions:
  status: ('A' for Active; 'I' for Inactive)
    1  A    between atoms: N_3  and  C_13
    2  A    between atoms: N_3  and  C_17
    3  A    between atoms: C_12  and  C_28
    4  A    between atoms: C_13  and  C_33
    5  A    between atoms: C_17  and  C_29
                            x       y       z     vdW  Elec       q    Type
                         _______ _______ _______ _____ _____    ______ ____

>  <TORSDO>
F 5

$$$$
=
 OpenBabel10262423503D

 34 39  0  0  1  0  0  0  0  0999 V2000
  189.9430  177.5540  146.0740 C   0  0  0  0  0  0  0  0  0  0  0  0
  191.0370  175.9220  144.5560 C   0  0  0  0  0  0  0  0  0  0  0  0
  189.2200  177.5320  143.6580 C   0  0  0  0  0  0  0  0  0  0  0  0
  188.3980  177.9640  141.4630 N   0  0  0  0  0  0  0  0  0  0  0  0
  191.7980  176.2320  146.8770 C   0  0  0  0  0  3  0  0  0  0  0  0
  191.7860  175.5040  145.5870 C   0  0  0  0  0  3  0  0  0  0  0  0
  190.6880  177.5740  141.6900 N   0  0  0  0  0  2  0  0  0  0  0  0
  190.3420  177.2750  144.6410 C   0  0  1  0  0  3  0  0  0  0  0  0
  188.9200  178.1090  140.1220 C   0  0  0  0  0  2  0  0  0  0  0  0
  190.9070  177.1980  147.1230 C   0  0  0  0  0  3  0  0  0  0  0  0
  187.8600  177.8870  144.1460 C   0  0  0  0  0  0  0  0  0  0  0  0
  188.7450  177.9330  146.4020 N   0  0  0  0  0  0  0  0  0  0  0  0
  191.0520  175.1070  143.3090 C   0  0  0  0  0  1  0  0  0  0  0  0
  187.0760  178.1870  141.8790 N   0  0  0  0  0  0  0  0  0  0  0  0
  186.7640  178.1420  143.1470 C   0  0  0  0  0  0  0  0  0  0  0  0
  190.4390  177.8370  140.2700 C   0  0  2  0  0  3  0  0  0  0  0  0
  189.4380  177.6520  142.3450 C   0  0  0  0  0  0  0  0  0  0  0  0
  187.6860  178.1140  145.4510 C   0  0  0  0  0  3  0  0  0  0  0  0
  182.9930  178.5470  142.9800 C   0  0  0  0  0  0  0  0  0  0  0  0
  182.7100  178.8170  144.2820 N   0  0  0  0  0  0  0  0  0  0  0  0
  185.3440  178.3560  143.5320 C   0  0  0  0  0  0  0  0  0  0  0  0
  183.6880  178.8730  145.2250 C   0  0  0  0  0  3  0  0  0  0  0  0
  184.3110  178.3170  142.5840 C   0  0  0  0  0  3  0  0  0  0  0  0
  185.0190  178.6470  144.8650 C   0  0  0  0  0  3  0  0  0  0  0  0
  181.9950  178.5040  142.0660 F   0  0  0  0  0  0  0  0  0  0  0  0
  190.8380  176.6180  139.4530 C   0  0  0  0  0  2  0  0  0  0  0  0
  190.0580  176.5550  138.2260 N   0  0  0  0  0  2  0  0  0  0  0  0
  190.9890  176.3830  137.1200 C   0  0  0  0  0  2  0  0  0  0  0  0
  190.9290  173.5470  136.5970 C   0  0  0  0  0  1  0  0  0  0  0  0
  192.2600  174.1380  137.0410 C   0  0  2  0  0  3  0  0  0  0  0  0
  193.8850  175.3350  135.8930 C   0  0  0  0  0  2  0  0  0  0  0  0
  193.4590  176.2380  136.9990 C   0  0  0  0  0  2  0  0  0  0  0  0
  192.2100  175.5820  137.5740 C   0  0  1  0  0  3  0  0  0  0  0  0
  193.2230  174.1880  135.9110 C   0  0  0  0  0  2  0  0  0  0  0  0
  1 12  2  0  0  0  0
  1 10  1  0  0  0  0
  2  8  1  0  0  0  0
  2  6  2  0  0  0  0
  3 11  1  0  0  0  0
  4 14  1  0  0  0  0
  4 17  1  0  0  0  0
  5 10  2  0  0  0  0
  6  5  1  0  0  0  0
  7 17  1  0  0  0  0
  8  3  1  6  0  0  0
  8  1  1  0  0  0  0
  9 16  1  0  0  0  0
  9  4  1  0  0  0  0
 11 18  2  0  0  0  0
 13  2  1  0  0  0  0
 14 15  2  0  0  0  0
 15 21  1  0  0  0  0
 15 11  1  0  0  0  0
 16 26  1  6  0  0  0
 16  7  1  0  0  0  0
 17  3  2  0  0  0  0
 18 12  1  0  0  0  0
 19 20  1  0  0  0  0
 20 22  2  0  0  0  0
 21 24  2  0  0  0  0
 23 19  2  0  0  0  0
 23 21  1  0  0  0  0
 24 22  1  0  0  0  0
 25 19  1  0  0  0  0
 27 26  1  0  0  0  0
 28 27  1  0  0  0  0
 30 29  1  6  0  0  0
 30 33  1  0  0  0  0
 31 34  1  0  0  0  0
 31 32  1  0  0  0  0
 32 33  1  0  0  0  0
 33 28  1  6  0  0  0
 34 30  1  0  0  0  0
M  END
>  <MODEL>
5

>  <REMARK>
 VINA RESULT:      -8.3      2.831      5.371
  Name = 
  5 active torsions:
  status: ('A' for Active; 'I' for Inactive)
    1  A    between atoms: N_3  and  C_13
    2  A    between atoms: N_3  and  C_17
    3  A    between atoms: C_12  and  C_28
    4  A    between atoms: C_13  and  C_33
    5  A    between atoms: C_17  and  C_29
                            x       y       z     vdW  Elec       q    Type
                         _______ _______ _______ _____ _____    ______ ____

>  <TORSDO>
F 5

$$$$
=
 OpenBabel10262423503D

 34 39  0  0  1  0  0  0  0  0999 V2000
  191.7190  177.5300  140.3530 C   0  0  0  0  0  0  0  0  0  0  0  0
  190.4210  176.3780  138.5780 C   0  0  0  0  0  0  0  0  0  0  0  0
  189.2020  177.6620  140.4670 C   0  0  0  0  0  0  0  0  0  0  0  0
  186.9060  178.1830  140.8340 N   0  0  0  0  0  0  0  0  0  0  0  0
  192.8750  176.5450  138.4750 C   0  0  0  0  0  3  0  0  0  0  0  0
  191.5770  176.0020  138.0120 C   0  0  0  0  0  3  0  0  0  0  0  0
  187.6840  178.2680  138.6350 N   0  0  0  0  0  2  0  0  0  0  0  0
  190.4190  177.5280  139.5760 C   0  0  1  0  0  3  0  0  0  0  0  0
  185.7570  178.6060  140.0630 C   0  0  0  0  0  2  0  0  0  0  0  0
  192.9520  177.2580  139.6040 C   0  0  0  0  0  3  0  0  0  0  0  0
  189.3490  177.6520  141.9470 C   0  0  0  0  0  0  0  0  0  0  0  0
  191.7540  177.5990  141.6490 N   0  0  0  0  0  0  0  0  0  0  0  0
  189.1640  175.7510  138.0780 C   0  0  0  0  0  1  0  0  0  0  0  0
  186.9840  178.0630  142.2300 N   0  0  0  0  0  0  0  0  0  0  0  0
  188.1230  177.7910  142.8080 C   0  0  0  0  0  0  0  0  0  0  0  0
  186.2700  178.6500  138.6010 C   0  0  2  0  0  3  0  0  0  0  0  0
  188.0010  177.9910  139.9840 C   0  0  0  0  0  0  0  0  0  0  0  0
  190.5780  177.6680  142.4700 C   0  0  0  0  0  3  0  0  0  0  0  0
  189.2910  177.1310  146.3590 C   0  0  0  0  0  0  0  0  0  0  0  0
  188.1340  177.3240  147.0460 N   0  0  0  0  0  0  0  0  0  0  0  0
  188.1460  177.6440  144.2880 C   0  0  0  0  0  0  0  0  0  0  0  0
  186.9810  177.6650  146.4130 C   0  0  0  0  0  3  0  0  0  0  0  0
  189.3150  177.2830  144.9720 C   0  0  0  0  0  3  0  0  0  0  0  0
  186.9670  177.8270  145.0250 C   0  0  0  0  0  3  0  0  0  0  0  0
  190.4210  176.7870  147.0210 F   0  0  0  0  0  0  0  0  0  0  0  0
  185.4980  177.6590  137.7430 C   0  0  0  0  0  2  0  0  0  0  0  0
  186.4090  176.9180  136.8840 N   0  0  0  0  0  2  0  0  0  0  0  0
  185.6890  175.7590  136.3750 C   0  0  0  0  0  2  0  0  0  0  0  0
  183.2350  174.7620  137.5180 C   0  0  0  0  0  1  0  0  0  0  0  0
  184.4840  173.9140  137.7190 C   0  0  2  0  0  3  0  0  0  0  0  0
  185.6050  172.4460  136.3130 C   0  0  0  0  0  2  0  0  0  0  0  0
  186.6170  173.4810  136.6650 C   0  0  0  0  0  2  0  0  0  0  0  0
  185.8190  174.5850  137.3460 C   0  0  1  0  0  3  0  0  0  0  0  0
  184.4340  172.6870  136.8830 C   0  0  0  0  0  2  0  0  0  0  0  0
  1 12  2  0  0  0  0
  3 11  1  0  0  0  0
  4 14  1  0  0  0  0
  5 10  2  0  0  0  0
  6  5  1  0  0  0  0
  6  2  2  0  0  0  0
  7 17  1  0  0  0  0
  8  2  1  1  0  0  0
  8  1  1  0  0  0  0
  8  3  1  0  0  0  0
  9  4  1  0  0  0  0
 10  1  1  0  0  0  0
 11 18  2  0  0  0  0
 11 15  1  0  0  0  0
 12 18  1  0  0  0  0
 13  2  1  0  0  0  0
 14 15  2  0  0  0  0
 15 21  1  0  0  0  0
 16 26  1  6  0  0  0
 16  7  1  0  0  0  0
 16  9  1  0  0  0  0
 17  3  2  0  0  0  0
 17  4  1  0  0  0  0
 19 25  1  0  0  0  0
 19 20  1  0  0  0  0
 21 23  1  0  0  0  0
 21 24  2  0  0  0  0
 22 20  2  0  0  0  0
 23 19  2  0  0  0  0
 24 22  1  0  0  0  0
 27 26  1  0  0  0  0
 28 27  1  0  0  0  0
 30 29  1  6  0  0  0
 31 32  1  0  0  0  0
 31 34  1  0  0  0  0
 32 33  1  0  0  0  0
 33 28  1  6  0  0  0
 33 30  1  0  0  0  0
 34 30  1  0  0  0  0
M  END
>  <MODEL>
6

>  <REMARK>
 VINA RESULT:      -8.1      3.919      8.072
  Name = 
  5 active torsions:
  status: ('A' for Active; 'I' for Inactive)
    1  A    between atoms: N_3  and  C_13
    2  A    between atoms: N_3  and  C_17
    3  A    between atoms: C_12  and  C_28
    4  A    between atoms: C_13  and  C_33
    5  A    between atoms: C_17  and  C_29
                            x       y       z     vdW  Elec       q    Type
                         _______ _______ _______ _____ _____    ______ ____

>  <TORSDO>
F 5

$$$$
=
 OpenBabel10262423503D

 34 39  0  0  1  0  0  0  0  0999 V2000
  186.7260  178.4710  145.5290 C   0  0  0  0  0  0  0  0  0  0  0  0
  188.3160  176.9220  144.4190 C   0  0  0  0  0  0  0  0  0  0  0  0
  186.5760  178.2340  143.0220 C   0  0  0  0  0  0  0  0  0  0  0  0
  186.2270  178.4440  140.6740 N   0  0  0  0  0  0  0  0  0  0  0  0
  188.4910  177.4440  146.8180 C   0  0  0  0  0  3  0  0  0  0  0  0
  188.8560  176.6580  145.6170 C   0  0  0  0  0  3  0  0  0  0  0  0
  188.4360  178.3680  141.4250 N   0  0  0  0  0  2  0  0  0  0  0  0
  187.4680  178.1750  144.2430 C   0  0  1  0  0  3  0  0  0  0  0  0
  187.0190  178.5880  139.4720 C   0  0  0  0  0  2  0  0  0  0  0  0
  187.4610  178.2970  146.7880 C   0  0  0  0  0  3  0  0  0  0  0  0
  185.1090  178.4320  143.1720 C   0  0  0  0  0  0  0  0  0  0  0  0
  185.4490  178.7060  145.5560 N   0  0  0  0  0  0  0  0  0  0  0  0
  188.7070  176.0540  143.2720 C   0  0  0  0  0  1  0  0  0  0  0  0
  184.8290  178.5140  140.7730 N   0  0  0  0  0  0  0  0  0  0  0  0
  184.2450  178.4910  141.9410 C   0  0  0  0  0  0  0  0  0  0  0  0
  188.4860  178.5250  139.9690 C   0  0  2  0  0  3  0  0  0  0  0  0
  187.0700  178.3150  141.7840 C   0  0  0  0  0  0  0  0  0  0  0  0
  184.6190  178.7000  144.3860 C   0  0  0  0  0  3  0  0  0  0  0  0
  180.6750  178.7750  143.1990 C   0  0  0  0  0  0  0  0  0  0  0  0
  179.9840  178.5580  142.0490 N   0  0  0  0  0  0  0  0  0  0  0  0
  182.7600  178.5370  141.9900 C   0  0  0  0  0  0  0  0  0  0  0  0
  180.6210  178.3240  140.8710 C   0  0  0  0  0  3  0  0  0  0  0  0
  182.0710  178.7640  143.1900 C   0  0  0  0  0  3  0  0  0  0  0  0
  182.0170  178.3070  140.8220 C   0  0  0  0  0  3  0  0  0  0  0  0
  180.0090  179.0000  144.3560 F   0  0  0  0  0  0  0  0  0  0  0  0
  189.1980  177.3290  139.3560 C   0  0  0  0  0  2  0  0  0  0  0  0
  189.7530  177.6810  138.0580 N   0  0  0  0  0  2  0  0  0  0  0  0
  190.0040  176.4430  137.3350 C   0  0  0  0  0  2  0  0  0  0  0  0
  190.1670  173.6210  136.7620 C   0  0  0  0  0  1  0  0  0  0  0  0
  191.3790  174.2600  137.4250 C   0  0  2  0  0  3  0  0  0  0  0  0
  193.1070  175.5570  136.5760 C   0  0  0  0  0  2  0  0  0  0  0  0
  192.4650  176.4130  137.6140 C   0  0  0  0  0  2  0  0  0  0  0  0
  191.1740  175.6880  137.9670 C   0  0  1  0  0  3  0  0  0  0  0  0
  192.5080  174.3820  136.4670 C   0  0  0  0  0  2  0  0  0  0  0  0
  1 12  2  0  0  0  0
  1 10  1  0  0  0  0
  2  6  2  0  0  0  0
  3 11  1  0  0  0  0
  4 14  1  0  0  0  0
  4 17  1  0  0  0  0
  6  5  1  0  0  0  0
  7 17  1  0  0  0  0
  8  3  1  6  0  0  0
  8  2  1  0  0  0  0
  8  1  1  0  0  0  0
  9 16  1  0  0  0  0
  9  4  1  0  0  0  0
 10  5  2  0  0  0  0
 11 18  2  0  0  0  0
 13  2  1  0  0  0  0
 14 15  2  0  0  0  0
 15 21  1  0  0  0  0
 15 11  1  0  0  0  0
 16 26  1  6  0  0  0
 16  7  1  0  0  0  0
 17  3  2  0  0  0  0
 18 12  1  0  0  0  0
 19 25  1  0  0  0  0
 20 19  2  0  0  0  0
 21 23  2  0  0  0  0
 22 20  1  0  0  0  0
 23 19  1  0  0  0  0
 24 22  2  0  0  0  0
 24 21  1  0  0  0  0
 27 26  1  0  0  0  0
 28 27  1  0  0  0  0
 30 29  1  6  0  0  0
 30 33  1  0  0  0  0
 31 32  1  0  0  0  0
 32 33  1  0  0  0  0
 33 28  1  6  0  0  0
 34 31  1  0  0  0  0
 34 30  1  0  0  0  0
M  END
>  <MODEL>
7

>  <REMARK>
 VINA RESULT:      -8.0      2.594      3.993
  Name = 
  5 active torsions:
  status: ('A' for Active; 'I' for Inactive)
    1  A    between atoms: N_3  and  C_13
    2  A    between atoms: N_3  and  C_17
    3  A    between atoms: C_12  and  C_28
    4  A    between atoms: C_13  and  C_33
    5  A    between atoms: C_17  and  C_29
                            x       y       z     vdW  Elec       q    Type
                         _______ _______ _______ _____ _____    ______ ____

>  <TORSDO>
F 5

$$$$
=
 OpenBabel10262423503D

 34 39  0  0  1  0  0  0  0  0999 V2000
  182.8380  178.1100  137.2990 C   0  0  0  0  0  0  0  0  0  0  0  0
  184.0610  178.9260  139.2990 C   0  0  0  0  0  0  0  0  0  0  0  0
  185.1800  177.2510  137.6740 C   0  0  0  0  0  0  0  0  0  0  0  0
  187.3860  176.3570  137.5550 N   0  0  0  0  0  0  0  0  0  0  0  0
  181.8680  179.8490  138.6650 C   0  0  0  0  0  3  0  0  0  0  0  0
  182.9980  179.6820  139.6090 C   0  0  0  0  0  3  0  0  0  0  0  0
  187.1720  178.5990  138.1680 N   0  0  0  0  0  2  0  0  0  0  0  0
  184.2070  178.3920  137.8810 C   0  0  0  0  0  0  0  0  0  0  0  0
  188.7490  176.8150  137.7210 C   0  0  0  0  0  2  0  0  0  0  0  0
  181.7760  179.0860  137.5700 C   0  0  0  0  0  2  0  0  0  0  0  0
  184.7190  175.9690  137.0760 C   0  0  0  0  0  0  0  0  0  0  0  0
  182.5450  176.9820  136.7260 N   0  0  0  0  0  0  0  0  0  0  0  0
  185.1330  178.7790  140.3240 C   0  0  0  0  0  1  0  0  0  0  0  0
  186.9720  175.0950  137.1030 N   0  0  0  0  0  0  0  0  0  0  0  0
  185.7090  174.8530  136.8780 C   0  0  0  0  0  0  0  0  0  0  0  0
  188.6060  178.3000  138.1400 C   0  0  2  0  0  3  0  0  0  0  0  0
  186.4990  177.4050  137.8230 C   0  0  0  0  0  0  0  0  0  0  0  0
  183.4750  175.8960  136.5960 C   0  0  0  0  0  3  0  0  0  0  0  0
  184.0080  171.4660  136.6570 C   0  0  0  0  0  0  0  0  0  0  0  0
  184.6620  170.9240  135.5950 N   0  0  0  0  0  0  0  0  0  0  0  0
  185.3200  173.4890  136.4290 C   0  0  0  0  0  0  0  0  0  0  0  0
  185.6350  171.6070  134.9360 C   0  0  0  0  0  3  0  0  0  0  0  0
  184.3280  172.7520  137.0930 C   0  0  0  0  0  3  0  0  0  0  0  0
  185.9810  172.8980  135.3430 C   0  0  0  0  0  3  0  0  0  0  0  0
  183.0480  170.7560  137.2940 F   0  0  0  0  0  0  0  0  0  0  0  0
  189.1940  178.5130  139.5270 C   0  0  0  0  0  2  0  0  0  0  0  0
  188.6100  177.5750  140.4740 N   0  0  0  0  0  2  0  0  0  0  0  0
  188.7030  178.1700  141.7990 C   0  0  0  0  0  2  0  0  0  0  0  0
  190.7040  178.7640  143.7910 C   0  0  0  0  0  1  0  0  0  0  0  0
  189.8240  177.5470  144.0390 C   0  0  2  0  0  3  0  0  0  0  0  0
  187.6520  177.3400  144.8300 C   0  0  0  0  0  2  0  0  0  0  0  0
  187.6260  176.7070  143.4820 C   0  0  0  0  0  2  0  0  0  0  0  0
  188.9570  177.0900  142.8500 C   0  0  1  0  0  3  0  0  0  0  0  0
  188.8530  177.8060  145.1330 C   0  0  0  0  0  2  0  0  0  0  0  0
  1 10  1  0  0  0  0
  1  8  1  0  0  0  0
  2  6  1  0  0  0  0
  2 13  1  0  0  0  0
  3 17  2  0  0  0  0
  3  8  1  0  0  0  0
  4  9  1  0  0  0  0
  4 17  1  0  0  0  0
  5  6  2  0  0  0  0
  8  2  2  0  0  0  0
  9 16  1  0  0  0  0
 10  5  1  0  0  0  0
 11  3  1  0  0  0  0
 12  1  2  0  0  0  0
 14  4  1  0  0  0  0
 15 11  1  0  0  0  0
 15 14  2  0  0  0  0
 16  7  1  0  0  0  0
 16 26  1  1  0  0  0
 17  7  1  0  0  0  0
 18 12  1  0  0  0  0
 18 11  2  0  0  0  0
 19 23  1  0  0  0  0
 19 25  1  0  0  0  0
 20 19  2  0  0  0  0
 21 15  1  0  0  0  0
 21 23  2  0  0  0  0
 22 24  2  0  0  0  0
 22 20  1  0  0  0  0
 24 21  1  0  0  0  0
 26 27  1  0  0  0  0
 27 28  1  0  0  0  0
 30 29  1  6  0  0  0
 30 34  1  0  0  0  0
 31 34  1  0  0  0  0
 32 31  1  0  0  0  0
 33 28  1  6  0  0  0
 33 32  1  0  0  0  0
 33 30  1  0  0  0  0
M  END
>  <MODEL>
8

>  <REMARK>
 VINA RESULT:      -7.9      4.156      6.040
  Name = 
  5 active torsions:
  status: ('A' for Active; 'I' for Inactive)
    1  A    between atoms: N_3  and  C_13
    2  A    between atoms: N_3  and  C_17
    3  A    between atoms: C_12  and  C_28
    4  A    between atoms: C_13  and  C_33
    5  A    between atoms: C_17  and  C_29
                            x       y       z     vdW  Elec       q    Type
                         _______ _______ _______ _____ _____    ______ ____

>  <TORSDO>
F 5

$$$$
=
 OpenBabel10262423503D

 34 39  0  0  1  0  0  0  0  0999 V2000
  191.7080  177.3150  140.1620 C   0  0  0  0  0  0  0  0  0  0  0  0
  190.0290  176.3510  138.6080 C   0  0  0  0  0  0  0  0  0  0  0  0
  189.2710  177.6050  140.7410 C   0  0  0  0  0  0  0  0  0  0  0  0
  187.1230  178.2550  141.5460 N   0  0  0  0  0  0  0  0  0  0  0  0
  192.4300  176.3620  138.0630 C   0  0  0  0  0  3  0  0  0  0  0  0
  191.0320  175.9320  137.8240 C   0  0  0  0  0  3  0  0  0  0  0  0
  187.4960  178.4110  139.2480 N   0  0  0  0  0  2  0  0  0  0  0  0
  190.2930  177.4410  139.6380 C   0  0  0  0  0  0  0  0  0  0  0  0
  185.8890  178.7960  141.0190 C   0  0  0  0  0  2  0  0  0  0  0  0
  192.7620  177.0040  139.1880 C   0  0  0  0  0  2  0  0  0  0  0  0
  189.6800  177.5030  142.1680 C   0  0  0  0  0  0  0  0  0  0  0  0
  191.9810  177.3090  141.4310 N   0  0  0  0  0  0  0  0  0  0  0  0
  188.6590  175.8370  138.3220 C   0  0  0  0  0  1  0  0  0  0  0  0
  187.4430  178.0530  142.8970 N   0  0  0  0  0  0  0  0  0  0  0  0
  188.6440  177.6750  143.2450 C   0  0  0  0  0  0  0  0  0  0  0  0
  186.1320  178.8870  139.4910 C   0  0  2  0  0  3  0  0  0  0  0  0
  188.0300  178.0400  140.5020 C   0  0  0  0  0  0  0  0  0  0  0  0
  190.9820  177.4090  142.4560 C   0  0  0  0  0  3  0  0  0  0  0  0
  190.4200  176.8680  146.5020 C   0  0  0  0  0  0  0  0  0  0  0  0
  189.3890  176.9670  147.3830 N   0  0  0  0  0  0  0  0  0  0  0  0
  188.9220  177.4450  144.6870 C   0  0  0  0  0  0  0  0  0  0  0  0
  188.1340  177.2890  146.9730 C   0  0  0  0  0  3  0  0  0  0  0  0
  190.2030  177.1010  145.1430 C   0  0  0  0  0  3  0  0  0  0  0  0
  187.8790  177.5290  145.6210 C   0  0  0  0  0  3  0  0  0  0  0  0
  191.6580  176.5410  146.9430 F   0  0  0  0  0  0  0  0  0  0  0  0
  185.1460  177.9980  138.7480 C   0  0  0  0  0  2  0  0  0  0  0  0
  183.9650  178.7590  138.3680 N   0  0  0  0  0  2  0  0  0  0  0  0
  182.8370  177.8410  138.3480 C   0  0  0  0  0  2  0  0  0  0  0  0
  180.9680  179.2550  140.0300 C   0  0  0  0  0  1  0  0  0  0  0  0
  181.4100  177.8760  140.4990 C   0  0  2  0  0  3  0  0  0  0  0  0
  180.7660  175.7400  139.8590 C   0  0  0  0  0  2  0  0  0  0  0  0
  182.2310  175.7880  139.5960 C   0  0  0  0  0  2  0  0  0  0  0  0
  182.6010  177.2580  139.7420 C   0  0  1  0  0  3  0  0  0  0  0  0
  180.3140  176.8850  140.3470 C   0  0  0  0  0  2  0  0  0  0  0  0
  1 12  2  0  0  0  0
  2  8  2  0  0  0  0
  3 11  1  0  0  0  0
  4 14  1  0  0  0  0
  5 10  1  0  0  0  0
  6  5  2  0  0  0  0
  6  2  1  0  0  0  0
  7 16  1  0  0  0  0
  7 17  1  0  0  0  0
  8  1  1  0  0  0  0
  8  3  1  0  0  0  0
  9  4  1  0  0  0  0
 10  1  1  0  0  0  0
 11 18  2  0  0  0  0
 11 15  1  0  0  0  0
 12 18  1  0  0  0  0
 13  2  1  0  0  0  0
 14 15  2  0  0  0  0
 15 21  1  0  0  0  0
 16 26  1  6  0  0  0
 16  9  1  0  0  0  0
 17  3  2  0  0  0  0
 17  4  1  0  0  0  0
 19 25  1  0  0  0  0
 19 20  1  0  0  0  0
 21 23  1  0  0  0  0
 21 24  2  0  0  0  0
 22 20  2  0  0  0  0
 23 19  2  0  0  0  0
 24 22  1  0  0  0  0
 27 26  1  0  0  0  0
 28 27  1  0  0  0  0
 30 29  1  6  0  0  0
 31 34  1  0  0  0  0
 32 33  1  0  0  0  0
 32 31  1  0  0  0  0
 33 28  1  6  0  0  0
 33 30  1  0  0  0  0
 34 30  1  0  0  0  0
M  END
>  <MODEL>
9

>  <REMARK>
 VINA RESULT:      -7.9      3.220      8.559
  Name = 
  5 active torsions:
  status: ('A' for Active; 'I' for Inactive)
    1  A    between atoms: N_3  and  C_13
    2  A    between atoms: N_3  and  C_17
    3  A    between atoms: C_12  and  C_28
    4  A    between atoms: C_13  and  C_33
    5  A    between atoms: C_17  and  C_29
                            x       y       z     vdW  Elec       q    Type
                         _______ _______ _______ _____ _____    ______ ____

>  <TORSDO>
F 5

$$$$
