=
 OpenBabel10272400143D

 31 35  0  0  0  0  0  0  0  0999 V2000
  184.7430  178.4990  143.8110 C   0  0  0  0  0  0  0  0  0  0  0  0
  188.4420  177.8370  143.4960 C   0  0  0  0  0  0  0  0  0  0  0  0
  188.9160  177.5750  144.8250 C   0  0  0  0  0  0  0  0  0  0  0  0
  188.5260  177.1060  147.3030 C   0  0  0  0  0  3  0  0  0  0  0  0
  187.0800  178.1500  143.1780 C   0  0  0  0  0  0  0  0  0  0  0  0
  184.4070  178.7650  142.4860 C   0  0  0  0  0  3  0  0  0  0  0  0
  188.0410  177.7800  146.0490 C   0  0  0  0  0  2  0  0  0  0  0  0
  188.9820  178.0500  141.0950 C   0  0  0  0  0  0  0  0  0  0  0  0
  183.5130  178.5460  145.0540 Cl  0  0  0  0  0  0  0  0  0  0  0  0
  191.1590  177.1850  143.9570 C   0  0  0  0  0  3  0  0  0  0  0  0
  189.7940  176.7420  147.4710 C   0  0  0  0  0  3  0  0  0  0  0  0
  187.6580  178.3670  140.8200 C   0  0  0  0  0  3  0  0  0  0  0  0
  189.3820  177.7800  142.4200 C   0  0  0  0  0  0  0  0  0  0  0  0
  186.0630  178.1930  144.1490 C   0  0  0  0  0  3  0  0  0  0  0  0
  190.7590  176.8990  146.3820 C   0  0  0  0  0  0  0  0  0  0  0  0
  186.7120  178.4140  141.8330 C   0  0  0  0  0  0  0  0  0  0  0  0
  185.3900  178.7210  141.5000 C   0  0  0  0  0  3  0  0  0  0  0  0
  190.7180  177.4550  142.6730 C   0  0  0  0  0  3  0  0  0  0  0  0
  190.2770  177.2430  145.0300 C   0  0  0  0  0  0  0  0  0  0  0  0
  191.9820  176.6860  146.6010 O   0  0  0  0  0  0  0  0  0  0  0  0
  189.9510  178.0380  139.9500 C   0  0  0  0  0  2  0  0  0  0  0  0
  187.1620  177.7870  135.6970 C   0  0  0  0  0  0  0  0  0  0  0  0
  188.5530  178.4530  137.4990 N   0  0  0  0  0  0  0  0  0  0  0  0
  188.3590  174.9540  137.4580 O   0  0  0  0  0  0  0  0  0  0  0  0
  190.1070  175.7880  139.2070 O   0  0  0  0  0  0  0  0  0  0  0  0
  186.3570  178.1060  134.6130 O   0  0  0  0  0  1  0  0  0  0  0  0
  189.6230  176.9330  138.9940 C   0  0  0  0  0  0  0  0  0  0  0  0
  187.7680  178.7880  136.4430 C   0  0  0  0  0  3  0  0  0  0  0  0
  188.1870  176.1620  137.1410 C   0  0  0  0  0  0  0  0  0  0  0  0
  188.7710  177.1810  137.8540 N   0  0  0  0  0  0  0  0  0  0  0  0
  187.3730  176.4590  136.0490 C   0  0  0  0  0  3  0  0  0  0  0  0
  1 14  1  0  0  0  0
  1  9  1  0  0  0  0
  2  3  1  0  0  0  0
  3 19  2  0  0  0  0
  3  7  1  0  0  0  0
  4 11  2  0  0  0  0
  5  2  1  0  0  0  0
  5 14  2  0  0  0  0
  6  1  2  0  0  0  0
  7  4  1  0  0  0  0
  8 13  1  0  0  0  0
 10 19  1  0  0  0  0
 12  8  2  0  0  0  0
 12 16  1  0  0  0  0
 13 18  1  0  0  0  0
 13  2  2  0  0  0  0
 15 20  2  0  0  0  0
 15 11  1  0  0  0  0
 16  5  1  0  0  0  0
 17 16  2  0  0  0  0
 17  6  1  0  0  0  0
 18 10  2  0  0  0  0
 19 15  1  0  0  0  0
 21  8  1  0  0  0  0
 22 31  2  0  0  0  0
 22 28  1  0  0  0  0
 23 30  1  0  0  0  0
 26 22  1  0  0  0  0
 27 25  2  0  0  0  0
 27 21  1  0  0  0  0
 28 23  2  0  0  0  0
 29 24  2  0  0  0  0
 29 30  1  0  0  0  0
 30 27  1  0  0  0  0
 31 29  1  0  0  0  0
M  END
>  <MODEL>
1

>  <REMARK>
 VINA RESULT:     -11.1      0.000      0.000
  Name = 
  2 active torsions:
  status: ('A' for Active; 'I' for Inactive)
    1  A    between atoms: C_9  and  C_23
    2  A    between atoms: C_15  and  C_23
                            x       y       z     vdW  Elec       q    Type
                         _______ _______ _______ _____ _____    ______ ____

>  <TORSDO>
F 2

$$$$
=
 OpenBabel10272400143D

 31 35  0  0  0  0  0  0  0  0999 V2000
  190.3140  176.9210  145.7510 C   0  0  0  0  0  0  0  0  0  0  0  0
  187.6840  177.9380  143.2470 C   0  0  0  0  0  0  0  0  0  0  0  0
  186.4720  178.1240  143.9930 C   0  0  0  0  0  0  0  0  0  0  0  0
  185.1910  178.3360  146.1910 C   0  0  0  0  0  3  0  0  0  0  0  0
  188.9290  177.5330  143.8290 C   0  0  0  0  0  0  0  0  0  0  0  0
  191.4170  176.7430  144.9190 C   0  0  0  0  0  3  0  0  0  0  0  0
  186.3570  177.7350  145.4570 C   0  0  0  0  0  2  0  0  0  0  0  0
  188.8030  177.9860  141.0460 C   0  0  0  0  0  0  0  0  0  0  0  0
  190.4630  176.6540  147.4730 Cl  0  0  0  0  0  0  0  0  0  0  0  0
  185.3110  178.7890  141.9570 C   0  0  0  0  0  3  0  0  0  0  0  0
  184.1140  178.7970  145.5600 C   0  0  0  0  0  3  0  0  0  0  0  0
  189.9920  177.5770  141.6360 C   0  0  0  0  0  3  0  0  0  0  0  0
  187.6510  178.1730  141.8370 C   0  0  0  0  0  0  0  0  0  0  0  0
  189.0880  177.3140  145.2100 C   0  0  0  0  0  3  0  0  0  0  0  0
  184.0680  178.8240  144.0980 C   0  0  0  0  0  0  0  0  0  0  0  0
  190.0690  177.3560  143.0030 C   0  0  0  0  0  0  0  0  0  0  0  0
  191.2940  176.9610  143.5480 C   0  0  0  0  0  3  0  0  0  0  0  0
  186.4680  178.5940  141.2230 C   0  0  0  0  0  3  0  0  0  0  0  0
  185.3000  178.5580  143.3290 C   0  0  0  0  0  0  0  0  0  0  0  0
  182.9920  179.1260  143.5160 O   0  0  0  0  0  0  0  0  0  0  0  0
  188.7920  178.1860  139.5600 C   0  0  0  0  0  2  0  0  0  0  0  0
  188.1110  174.1410  136.5410 C   0  0  0  0  0  0  0  0  0  0  0  0
  187.9370  176.2080  137.6900 N   0  0  0  0  0  0  0  0  0  0  0  0
  191.1890  174.9670  138.0900 O   0  0  0  0  0  0  0  0  0  0  0  0
  190.9690  177.3840  139.0520 O   0  0  0  0  0  0  0  0  0  0  0  0
  187.5440  173.1410  135.7630 O   0  0  0  0  0  1  0  0  0  0  0  0
  189.7280  177.2250  138.8920 C   0  0  0  0  0  0  0  0  0  0  0  0
  187.3600  175.2420  136.9300 C   0  0  0  0  0  3  0  0  0  0  0  0
  189.9880  175.0670  137.7230 C   0  0  0  0  0  0  0  0  0  0  0  0
  189.2140  176.1440  138.0850 N   0  0  0  0  0  0  0  0  0  0  0  0
  189.4390  174.0520  136.9420 C   0  0  0  0  0  3  0  0  0  0  0  0
  1  9  1  0  0  0  0
  2  5  1  0  0  0  0
  2  3  1  0  0  0  0
  3  7  1  0  0  0  0
  5 14  2  0  0  0  0
  6  1  2  0  0  0  0
  7  4  1  0  0  0  0
  8 12  2  0  0  0  0
  8 13  1  0  0  0  0
 10 19  1  0  0  0  0
 11  4  2  0  0  0  0
 12 16  1  0  0  0  0
 13  2  2  0  0  0  0
 14  1  1  0  0  0  0
 15 11  1  0  0  0  0
 16 17  2  0  0  0  0
 16  5  1  0  0  0  0
 17  6  1  0  0  0  0
 18 13  1  0  0  0  0
 18 10  2  0  0  0  0
 19  3  2  0  0  0  0
 19 15  1  0  0  0  0
 20 15  2  0  0  0  0
 21  8  1  0  0  0  0
 22 28  1  0  0  0  0
 22 31  2  0  0  0  0
 23 30  1  0  0  0  0
 26 22  1  0  0  0  0
 27 25  2  0  0  0  0
 27 21  1  0  0  0  0
 28 23  2  0  0  0  0
 29 30  1  0  0  0  0
 29 24  2  0  0  0  0
 30 27  1  0  0  0  0
 31 29  1  0  0  0  0
M  END
>  <MODEL>
2

>  <REMARK>
 VINA RESULT:     -10.9      2.557      4.519
  Name = 
  2 active torsions:
  status: ('A' for Active; 'I' for Inactive)
    1  A    between atoms: C_9  and  C_23
    2  A    between atoms: C_15  and  C_23
                            x       y       z     vdW  Elec       q    Type
                         _______ _______ _______ _____ _____    ______ ____

>  <TORSDO>
F 2

$$$$
=
 OpenBabel10272400143D

 31 35  0  0  0  0  0  0  0  0999 V2000
  184.5750  178.5410  143.5350 C   0  0  0  0  0  0  0  0  0  0  0  0
  188.2680  177.9150  143.1040 C   0  0  0  0  0  0  0  0  0  0  0  0
  188.7890  177.6720  144.4190 C   0  0  0  0  0  0  0  0  0  0  0  0
  188.4860  177.2260  146.9140 C   0  0  0  0  0  3  0  0  0  0  0  0
  186.8930  178.2100  142.8290 C   0  0  0  0  0  0  0  0  0  0  0  0
  184.1920  178.7890  142.2200 C   0  0  0  0  0  3  0  0  0  0  0  0
  187.9530  177.8810  145.6700 C   0  0  0  0  0  2  0  0  0  0  0  0
  188.7270  178.1080  140.6840 C   0  0  0  0  0  0  0  0  0  0  0  0
  183.3860  178.5890  144.8180 Cl  0  0  0  0  0  0  0  0  0  0  0  0
  191.0060  177.2970  143.4810 C   0  0  0  0  0  3  0  0  0  0  0  0
  189.7640  176.8770  147.0430 C   0  0  0  0  0  3  0  0  0  0  0  0
  187.3910  178.4080  140.4500 C   0  0  0  0  0  3  0  0  0  0  0  0
  189.1730  177.8570  141.9980 C   0  0  0  0  0  0  0  0  0  0  0  0
  185.9080  178.2530  143.8320 C   0  0  0  0  0  3  0  0  0  0  0  0
  190.6900  177.0330  145.9210 C   0  0  0  0  0  0  0  0  0  0  0  0
  186.4780  178.4560  141.4940 C   0  0  0  0  0  0  0  0  0  0  0  0
  185.1430  178.7460  141.2020 C   0  0  0  0  0  3  0  0  0  0  0  0
  190.5200  177.5490  142.2100 C   0  0  0  0  0  3  0  0  0  0  0  0
  190.1600  177.3570  144.5830 C   0  0  0  0  0  0  0  0  0  0  0  0
  191.9220  176.8350  146.1010 O   0  0  0  0  0  0  0  0  0  0  0  0
  189.6570  178.0940  139.5080 C   0  0  0  0  0  2  0  0  0  0  0  0
  193.7160  175.4530  137.9340 C   0  0  0  0  0  0  0  0  0  0  0  0
  192.2200  176.9470  139.0080 N   0  0  0  0  0  0  0  0  0  0  0  0
  190.3620  174.4120  137.4580 O   0  0  0  0  0  0  0  0  0  0  0  0
  188.8420  175.9410  138.9290 O   0  0  0  0  0  0  0  0  0  0  0  0
  195.0080  175.0710  137.6000 O   0  0  0  0  0  1  0  0  0  0  0  0
  189.8480  176.6970  139.0040 C   0  0  0  0  0  0  0  0  0  0  0  0
  193.4930  176.5930  138.6930 C   0  0  0  0  0  3  0  0  0  0  0  0
  191.3400  175.0990  137.8590 C   0  0  0  0  0  0  0  0  0  0  0  0
  191.1590  176.2330  138.6140 N   0  0  0  0  0  0  0  0  0  0  0  0
  192.6290  174.6970  137.5110 C   0  0  0  0  0  3  0  0  0  0  0  0
  1 14  1  0  0  0  0
  1  9  1  0  0  0  0
  2  3  1  0  0  0  0
  3 19  2  0  0  0  0
  3  7  1  0  0  0  0
  4 11  2  0  0  0  0
  5  2  1  0  0  0  0
  5 14  2  0  0  0  0
  6  1  2  0  0  0  0
  7  4  1  0  0  0  0
  8 13  1  0  0  0  0
 10 19  1  0  0  0  0
 12  8  2  0  0  0  0
 12 16  1  0  0  0  0
 13 18  1  0  0  0  0
 13  2  2  0  0  0  0
 15 20  2  0  0  0  0
 15 11  1  0  0  0  0
 16  5  1  0  0  0  0
 17 16  2  0  0  0  0
 17  6  1  0  0  0  0
 18 10  2  0  0  0  0
 19 15  1  0  0  0  0
 21  8  1  0  0  0  0
 22 28  1  0  0  0  0
 24 29  2  0  0  0  0
 25 27  2  0  0  0  0
 26 22  1  0  0  0  0
 27 21  1  0  0  0  0
 28 23  2  0  0  0  0
 29 30  1  0  0  0  0
 30 27  1  0  0  0  0
 30 23  1  0  0  0  0
 31 29  1  0  0  0  0
 31 22  2  0  0  0  0
M  END
>  <MODEL>
3

>  <REMARK>
 VINA RESULT:     -10.8      1.941      2.945
  Name = 
  2 active torsions:
  status: ('A' for Active; 'I' for Inactive)
    1  A    between atoms: C_9  and  C_23
    2  A    between atoms: C_15  and  C_23
                            x       y       z     vdW  Elec       q    Type
                         _______ _______ _______ _____ _____    ______ ____

>  <TORSDO>
F 2

$$$$
=
 OpenBabel10272400143D

 31 35  0  0  0  0  0  0  0  0999 V2000
  190.2930  176.9240  145.7280 C   0  0  0  0  0  0  0  0  0  0  0  0
  187.7920  177.9490  143.0990 C   0  0  0  0  0  0  0  0  0  0  0  0
  186.5400  178.1160  143.7810 C   0  0  0  0  0  0  0  0  0  0  0  0
  185.1410  178.2920  145.9080 C   0  0  0  0  0  3  0  0  0  0  0  0
  189.0070  177.5470  143.7420 C   0  0  0  0  0  0  0  0  0  0  0  0
  191.4400  176.7650  144.9550 C   0  0  0  0  0  3  0  0  0  0  0  0
  186.3500  177.7090  145.2310 C   0  0  0  0  0  2  0  0  0  0  0  0
  189.0270  178.0320  140.9610 C   0  0  0  0  0  0  0  0  0  0  0  0
  190.3510  176.6380  147.4530 Cl  0  0  0  0  0  0  0  0  0  0  0  0
  185.4830  178.7950  141.6930 C   0  0  0  0  0  3  0  0  0  0  0  0
  184.0960  178.7510  145.2260 C   0  0  0  0  0  3  0  0  0  0  0  0
  190.1860  177.6260  141.6090 C   0  0  0  0  0  3  0  0  0  0  0  0
  187.8320  178.2010  141.6910 C   0  0  0  0  0  0  0  0  0  0  0  0
  189.0940  177.3130  145.1260 C   0  0  0  0  0  3  0  0  0  0  0  0
  184.1280  178.7950  143.7640 C   0  0  0  0  0  0  0  0  0  0  0  0
  190.1920  177.3900  142.9760 C   0  0  0  0  0  0  0  0  0  0  0  0
  191.3890  176.9980  143.5820 C   0  0  0  0  0  3  0  0  0  0  0  0
  186.6790  178.6190  141.0200 C   0  0  0  0  0  3  0  0  0  0  0  0
  185.4010  178.5480  143.0590 C   0  0  0  0  0  0  0  0  0  0  0  0
  183.0820  179.0950  143.1280 O   0  0  0  0  0  0  0  0  0  0  0  0
  189.0930  178.2490  139.4780 C   0  0  0  0  0  2  0  0  0  0  0  0
  192.7690  175.3750  137.4380 C   0  0  0  0  0  0  0  0  0  0  0  0
  191.4820  176.8630  138.7610 N   0  0  0  0  0  0  0  0  0  0  0  0
  189.3090  174.8830  136.8540 O   0  0  0  0  0  0  0  0  0  0  0  0
  187.9990  176.3460  138.5740 O   0  0  0  0  0  0  0  0  0  0  0  0
  194.0000  174.8820  137.0280 O   0  0  0  0  0  1  0  0  0  0  0  0
  189.0980  176.9380  138.7540 C   0  0  0  0  0  0  0  0  0  0  0  0
  192.6970  176.3980  138.3740 C   0  0  0  0  0  3  0  0  0  0  0  0
  190.3680  175.3600  137.3440 C   0  0  0  0  0  0  0  0  0  0  0  0
  190.3360  176.3710  138.2740 N   0  0  0  0  0  0  0  0  0  0  0  0
  191.5930  174.8500  136.9170 C   0  0  0  0  0  3  0  0  0  0  0  0
  1  9  1  0  0  0  0
  2  5  1  0  0  0  0
  2  3  1  0  0  0  0
  3  7  1  0  0  0  0
  5 14  2  0  0  0  0
  6  1  2  0  0  0  0
  7  4  1  0  0  0  0
  8 12  2  0  0  0  0
  8 13  1  0  0  0  0
 10 19  1  0  0  0  0
 11  4  2  0  0  0  0
 12 16  1  0  0  0  0
 13  2  2  0  0  0  0
 14  1  1  0  0  0  0
 15 11  1  0  0  0  0
 16 17  2  0  0  0  0
 16  5  1  0  0  0  0
 17  6  1  0  0  0  0
 18 13  1  0  0  0  0
 18 10  2  0  0  0  0
 19 15  1  0  0  0  0
 19  3  2  0  0  0  0
 20 15  2  0  0  0  0
 21  8  1  0  0  0  0
 22 28  1  0  0  0  0
 24 29  2  0  0  0  0
 25 27  2  0  0  0  0
 26 22  1  0  0  0  0
 27 21  1  0  0  0  0
 28 23  2  0  0  0  0
 29 30  1  0  0  0  0
 30 27  1  0  0  0  0
 30 23  1  0  0  0  0
 31 29  1  0  0  0  0
 31 22  2  0  0  0  0
M  END
>  <MODEL>
4

>  <REMARK>
 VINA RESULT:     -10.8      2.751      4.899
  Name = 
  2 active torsions:
  status: ('A' for Active; 'I' for Inactive)
    1  A    between atoms: C_9  and  C_23
    2  A    between atoms: C_15  and  C_23
                            x       y       z     vdW  Elec       q    Type
                         _______ _______ _______ _____ _____    ______ ____

>  <TORSDO>
F 2

$$$$
=
 OpenBabel10272400143D

 31 35  0  0  0  0  0  0  0  0999 V2000
  190.3290  176.8830  145.3930 C   0  0  0  0  0  0  0  0  0  0  0  0
  187.6380  178.0040  143.0010 C   0  0  0  0  0  0  0  0  0  0  0  0
  186.4420  178.1460  143.7810 C   0  0  0  0  0  0  0  0  0  0  0  0
  185.2090  178.2420  146.0140 C   0  0  0  0  0  3  0  0  0  0  0  0
  188.8970  177.5790  143.5350 C   0  0  0  0  0  0  0  0  0  0  0  0
  191.4140  176.7530  144.5300 C   0  0  0  0  0  3  0  0  0  0  0  0
  186.3620  177.6840  145.2260 C   0  0  0  0  0  2  0  0  0  0  0  0
  188.7070  178.1670  140.7800 C   0  0  0  0  0  0  0  0  0  0  0  0
  190.5170  176.5340  147.0970 Cl  0  0  0  0  0  0  0  0  0  0  0  0
  185.2310  178.9010  141.8070 C   0  0  0  0  0  3  0  0  0  0  0  0
  184.1150  178.7250  145.4300 C   0  0  0  0  0  3  0  0  0  0  0  0
  189.9110  177.7380  141.3230 C   0  0  0  0  0  3  0  0  0  0  0  0
  187.5720  178.3080  141.6050 C   0  0  0  0  0  0  0  0  0  0  0  0
  189.0890  177.2940  144.8990 C   0  0  0  0  0  3  0  0  0  0  0  0
  184.0370  178.8230  143.9730 C   0  0  0  0  0  0  0  0  0  0  0  0
  190.0200  177.4510  142.6760 C   0  0  0  0  0  0  0  0  0  0  0  0
  191.2590  177.0380  143.1740 C   0  0  0  0  0  3  0  0  0  0  0  0
  186.3730  178.7500  141.0390 C   0  0  0  0  0  3  0  0  0  0  0  0
  185.2520  178.6030  143.1650 C   0  0  0  0  0  0  0  0  0  0  0  0
  182.9460  179.1470  143.4300 O   0  0  0  0  0  0  0  0  0  0  0  0
  188.6620  178.4390  139.3060 C   0  0  0  0  0  2  0  0  0  0  0  0
  185.3520  176.0160  136.2880 C   0  0  0  0  0  0  0  0  0  0  0  0
  186.6210  177.6200  137.4890 N   0  0  0  0  0  0  0  0  0  0  0  0
  188.3260  174.5590  137.5480 O   0  0  0  0  0  0  0  0  0  0  0  0
  189.7740  176.4720  138.5740 O   0  0  0  0  0  0  0  0  0  0  0  0
  184.2280  175.6750  135.5490 O   0  0  0  0  0  1  0  0  0  0  0  0
  188.7160  177.1580  138.5320 C   0  0  0  0  0  0  0  0  0  0  0  0
  185.5130  177.3080  136.7690 C   0  0  0  0  0  3  0  0  0  0  0  0
  187.4520  175.4320  137.3010 C   0  0  0  0  0  0  0  0  0  0  0  0
  187.5780  176.7220  137.7580 N   0  0  0  0  0  0  0  0  0  0  0  0
  186.3310  175.0670  136.5570 C   0  0  0  0  0  3  0  0  0  0  0  0
  1  9  1  0  0  0  0
  2  5  1  0  0  0  0
  2  3  1  0  0  0  0
  3  7  1  0  0  0  0
  5 14  2  0  0  0  0
  6  1  2  0  0  0  0
  7  4  1  0  0  0  0
  8 12  2  0  0  0  0
  8 13  1  0  0  0  0
 10 19  1  0  0  0  0
 11  4  2  0  0  0  0
 12 16  1  0  0  0  0
 13  2  2  0  0  0  0
 14  1  1  0  0  0  0
 15 11  1  0  0  0  0
 16 17  2  0  0  0  0
 16  5  1  0  0  0  0
 17  6  1  0  0  0  0
 18 13  1  0  0  0  0
 18 10  2  0  0  0  0
 19  3  2  0  0  0  0
 19 15  1  0  0  0  0
 20 15  2  0  0  0  0
 21  8  1  0  0  0  0
 22 31  2  0  0  0  0
 22 28  1  0  0  0  0
 23 30  1  0  0  0  0
 26 22  1  0  0  0  0
 27 25  2  0  0  0  0
 27 21  1  0  0  0  0
 28 23  2  0  0  0  0
 29 24  2  0  0  0  0
 29 30  1  0  0  0  0
 30 27  1  0  0  0  0
 31 29  1  0  0  0  0
M  END
>  <MODEL>
5

>  <REMARK>
 VINA RESULT:     -10.5      2.464      4.339
  Name = 
  2 active torsions:
  status: ('A' for Active; 'I' for Inactive)
    1  A    between atoms: C_9  and  C_23
    2  A    between atoms: C_15  and  C_23
                            x       y       z     vdW  Elec       q    Type
                         _______ _______ _______ _____ _____    ______ ____

>  <TORSDO>
F 2

$$$$
=
 OpenBabel10272400143D

 31 35  0  0  0  0  0  0  0  0999 V2000
  186.8980  177.9860  147.0840 C   0  0  0  0  0  0  0  0  0  0  0  0
  187.5360  178.0720  143.3680 C   0  0  0  0  0  0  0  0  0  0  0  0
  188.9290  177.7720  143.1940 C   0  0  0  0  0  0  0  0  0  0  0  0
  191.1920  176.9910  144.0800 C   0  0  0  0  0  3  0  0  0  0  0  0
  186.8870  178.1510  144.6430 C   0  0  0  0  0  0  0  0  0  0  0  0
  185.5460  178.3160  147.1290 C   0  0  0  0  0  3  0  0  0  0  0  0
  189.8880  177.6840  144.3680 C   0  0  0  0  0  2  0  0  0  0  0  0
  185.3750  178.6230  142.3060 C   0  0  0  0  0  0  0  0  0  0  0  0
  187.7740  177.6750  148.5650 Cl  0  0  0  0  0  0  0  0  0  0  0  0
  188.6640  177.9040  140.7760 C   0  0  0  0  0  3  0  0  0  0  0  0
  191.6700  176.8600  142.8450 C   0  0  0  0  0  3  0  0  0  0  0  0
  184.7770  178.7100  143.5560 C   0  0  0  0  0  3  0  0  0  0  0  0
  186.7440  178.3030  142.2000 C   0  0  0  0  0  0  0  0  0  0  0  0
  187.5560  177.9030  145.8550 C   0  0  0  0  0  3  0  0  0  0  0  0
  190.8820  177.3050  141.6950 C   0  0  0  0  0  0  0  0  0  0  0  0
  185.5060  178.4750  144.7120 C   0  0  0  0  0  0  0  0  0  0  0  0
  184.8520  178.5580  145.9450 C   0  0  0  0  0  3  0  0  0  0  0  0
  187.3240  178.2130  140.9310 C   0  0  0  0  0  3  0  0  0  0  0  0
  189.4690  177.6850  141.8890 C   0  0  0  0  0  0  0  0  0  0  0  0
  191.4040  177.3060  140.5490 O   0  0  0  0  0  0  0  0  0  0  0  0
  184.5270  178.9100  141.1030 C   0  0  0  0  0  2  0  0  0  0  0  0
  181.4080  175.6560  138.7330 C   0  0  0  0  0  0  0  0  0  0  0  0
  183.2720  176.8010  139.6490 N   0  0  0  0  0  0  0  0  0  0  0  0
  180.3530  177.9990  141.1740 O   0  0  0  0  0  0  0  0  0  0  0  0
  182.4880  178.9660  142.3200 O   0  0  0  0  0  0  0  0  0  0  0  0
  180.8800  174.7150  137.8610 O   0  0  0  0  0  1  0  0  0  0  0  0
  183.1130  178.4760  141.3400 C   0  0  0  0  0  0  0  0  0  0  0  0
  182.7770  175.8770  138.7870 C   0  0  0  0  0  3  0  0  0  0  0  0
  181.1240  177.3300  140.4340 C   0  0  0  0  0  0  0  0  0  0  0  0
  182.4850  177.5180  140.4610 N   0  0  0  0  0  0  0  0  0  0  0  0
  180.5710  176.3910  139.5650 C   0  0  0  0  0  3  0  0  0  0  0  0
  1  6  1  0  0  0  0
  1  9  1  0  0  0  0
  2  5  1  0  0  0  0
  3  2  1  0  0  0  0
  3  7  1  0  0  0  0
  4  7  1  0  0  0  0
  5 16  2  0  0  0  0
  5 14  1  0  0  0  0
  8 12  2  0  0  0  0
 10 18  2  0  0  0  0
 10 19  1  0  0  0  0
 11  4  2  0  0  0  0
 12 16  1  0  0  0  0
 13  8  1  0  0  0  0
 13  2  2  0  0  0  0
 14  1  2  0  0  0  0
 15 19  1  0  0  0  0
 15 11  1  0  0  0  0
 16 17  1  0  0  0  0
 17  6  2  0  0  0  0
 18 13  1  0  0  0  0
 19  3  2  0  0  0  0
 20 15  2  0  0  0  0
 21 27  1  0  0  0  0
 21  8  1  0  0  0  0
 22 28  1  0  0  0  0
 22 31  2  0  0  0  0
 23 30  1  0  0  0  0
 26 22  1  0  0  0  0
 27 25  2  0  0  0  0
 28 23  2  0  0  0  0
 29 30  1  0  0  0  0
 29 24  2  0  0  0  0
 30 27  1  0  0  0  0
 31 29  1  0  0  0  0
M  END
>  <MODEL>
6

>  <REMARK>
 VINA RESULT:     -10.1      3.807      5.348
  Name = 
  2 active torsions:
  status: ('A' for Active; 'I' for Inactive)
    1  A    between atoms: C_9  and  C_23
    2  A    between atoms: C_15  and  C_23
                            x       y       z     vdW  Elec       q    Type
                         _______ _______ _______ _____ _____    ______ ____

>  <TORSDO>
F 2

$$$$
=
 OpenBabel10272400143D

 31 35  0  0  0  0  0  0  0  0999 V2000
  186.6270  178.0180  146.7230 C   0  0  0  0  0  0  0  0  0  0  0  0
  187.5460  178.1580  143.0680 C   0  0  0  0  0  0  0  0  0  0  0  0
  188.9330  177.7970  142.9900 C   0  0  0  0  0  0  0  0  0  0  0  0
  191.0840  176.8890  144.0200 C   0  0  0  0  0  3  0  0  0  0  0  0
  186.8070  178.2390  144.2930 C   0  0  0  0  0  0  0  0  0  0  0  0
  185.2920  178.4100  146.6760 C   0  0  0  0  0  3  0  0  0  0  0  0
  189.7960  177.6360  144.2290 C   0  0  0  0  0  2  0  0  0  0  0  0
  185.4990  178.8370  141.8640 C   0  0  0  0  0  0  0  0  0  0  0  0
  187.3740  177.6300  148.2570 Cl  0  0  0  0  0  0  0  0  0  0  0  0
  188.8570  177.9970  140.5630 C   0  0  0  0  0  3  0  0  0  0  0  0
  191.6470  176.7630  142.8210 C   0  0  0  0  0  3  0  0  0  0  0  0
  184.8130  178.9220  143.0680 C   0  0  0  0  0  3  0  0  0  0  0  0
  186.8560  178.4540  141.8510 C   0  0  0  0  0  0  0  0  0  0  0  0
  187.3710  177.9320  145.5450 C   0  0  0  0  0  3  0  0  0  0  0  0
  190.9700  177.2720  141.6280 C   0  0  0  0  0  0  0  0  0  0  0  0
  185.4420  178.6260  144.2690 C   0  0  0  0  0  0  0  0  0  0  0  0
  184.7010  178.7130  145.4510 C   0  0  0  0  0  3  0  0  0  0  0  0
  187.5250  178.3660  140.6260 C   0  0  0  0  0  3  0  0  0  0  0  0
  189.5650  177.7150  141.7260 C   0  0  0  0  0  0  0  0  0  0  0  0
  191.5760  177.2750  140.5240 O   0  0  0  0  0  0  0  0  0  0  0  0
  184.7570  179.1920  140.6100 C   0  0  0  0  0  2  0  0  0  0  0  0
  184.6950  176.6310  136.2080 C   0  0  0  0  0  0  0  0  0  0  0  0
  185.2860  177.9040  138.1200 N   0  0  0  0  0  0  0  0  0  0  0  0
  182.2350  176.2950  138.7370 O   0  0  0  0  0  0  0  0  0  0  0  0
  183.1360  177.4780  140.8810 O   0  0  0  0  0  0  0  0  0  0  0  0
  184.9670  176.1920  134.9200 O   0  0  0  0  0  1  0  0  0  0  0  0
  183.9760  178.0160  140.1090 C   0  0  0  0  0  0  0  0  0  0  0  0
  185.5710  177.4890  136.8590 C   0  0  0  0  0  3  0  0  0  0  0  0
  183.2910  176.6680  138.1580 C   0  0  0  0  0  0  0  0  0  0  0  0
  184.1830  177.5150  138.7710 N   0  0  0  0  0  0  0  0  0  0  0  0
  183.5430  176.2160  136.8640 C   0  0  0  0  0  3  0  0  0  0  0  0
  1  9  1  0  0  0  0
  2  5  1  0  0  0  0
  3  2  1  0  0  0  0
  3  7  1  0  0  0  0
  4  7  1  0  0  0  0
  5 14  1  0  0  0  0
  6  1  1  0  0  0  0
  8 12  2  0  0  0  0
 10 18  2  0  0  0  0
 10 19  1  0  0  0  0
 11  4  2  0  0  0  0
 12 16  1  0  0  0  0
 13  8  1  0  0  0  0
 13  2  2  0  0  0  0
 14  1  2  0  0  0  0
 15 19  1  0  0  0  0
 15 11  1  0  0  0  0
 16  5  2  0  0  0  0
 16 17  1  0  0  0  0
 17  6  2  0  0  0  0
 18 13  1  0  0  0  0
 19  3  2  0  0  0  0
 20 15  2  0  0  0  0
 21  8  1  0  0  0  0
 22 28  1  0  0  0  0
 22 31  2  0  0  0  0
 23 30  1  0  0  0  0
 26 22  1  0  0  0  0
 27 21  1  0  0  0  0
 27 25  2  0  0  0  0
 28 23  2  0  0  0  0
 29 24  2  0  0  0  0
 29 30  1  0  0  0  0
 30 27  1  0  0  0  0
 31 29  1  0  0  0  0
M  END
>  <MODEL>
7

>  <REMARK>
 VINA RESULT:     -10.0      2.699      4.133
  Name = 
  2 active torsions:
  status: ('A' for Active; 'I' for Inactive)
    1  A    between atoms: C_9  and  C_23
    2  A    between atoms: C_15  and  C_23
                            x       y       z     vdW  Elec       q    Type
                         _______ _______ _______ _____ _____    ______ ____

>  <TORSDO>
F 2

$$$$
=
 OpenBabel10272400143D

 31 35  0  0  0  0  0  0  0  0999 V2000
  190.5110  177.1490  142.0790 C   0  0  0  0  0  0  0  0  0  0  0  0
  187.0460  178.1400  143.1870 C   0  0  0  0  0  0  0  0  0  0  0  0
  187.0300  178.0090  144.6170 C   0  0  0  0  0  0  0  0  0  0  0  0
  188.1980  177.6550  146.8580 C   0  0  0  0  0  3  0  0  0  0  0  0
  188.1840  177.8440  142.3680 C   0  0  0  0  0  0  0  0  0  0  0  0
  190.3980  177.2850  140.6980 C   0  0  0  0  0  3  0  0  0  0  0  0
  188.1760  177.3710  145.3810 C   0  0  0  0  0  2  0  0  0  0  0  0
  185.8010  178.7230  141.1350 C   0  0  0  0  0  0  0  0  0  0  0  0
  192.0240  176.6300  142.7880 Cl  0  0  0  0  0  0  0  0  0  0  0  0
  184.7290  178.8090  144.6730 C   0  0  0  0  0  3  0  0  0  0  0  0
  187.1120  178.0380  147.5250 C   0  0  0  0  0  3  0  0  0  0  0  0
  186.9160  178.4130  140.3650 C   0  0  0  0  0  3  0  0  0  0  0  0
  185.8550  178.5950  142.5380 C   0  0  0  0  0  0  0  0  0  0  0  0
  189.4180  177.4290  142.9010 C   0  0  0  0  0  3  0  0  0  0  0  0
  185.8600  178.2970  146.8140 C   0  0  0  0  0  0  0  0  0  0  0  0
  188.0940  177.9860  140.9590 C   0  0  0  0  0  0  0  0  0  0  0  0
  189.1910  177.7030  140.1400 C   0  0  0  0  0  3  0  0  0  0  0  0
  184.7250  178.9200  143.2930 C   0  0  0  0  0  3  0  0  0  0  0  0
  185.8630  178.3570  145.3390 C   0  0  0  0  0  0  0  0  0  0  0  0
  184.8080  178.5190  147.4700 O   0  0  0  0  0  0  0  0  0  0  0  0
  184.5570  179.1590  140.4200 C   0  0  0  0  0  2  0  0  0  0  0  0
  182.4950  175.1730  138.0130 C   0  0  0  0  0  0  0  0  0  0  0  0
  182.9820  176.9780  139.4730 N   0  0  0  0  0  0  0  0  0  0  0  0
  184.9770  177.2760  136.6070 O   0  0  0  0  0  0  0  0  0  0  0  0
  185.2040  179.3720  138.1450 O   0  0  0  0  0  0  0  0  0  0  0  0
  181.7880  174.0150  137.7210 O   0  0  0  0  0  1  0  0  0  0  0  0
  184.5740  178.6890  138.9980 C   0  0  0  0  0  0  0  0  0  0  0  0
  182.2800  175.8460  139.2080 C   0  0  0  0  0  3  0  0  0  0  0  0
  184.1250  176.8400  137.4270 C   0  0  0  0  0  0  0  0  0  0  0  0
  183.8830  177.4800  138.6190 N   0  0  0  0  0  0  0  0  0  0  0  0
  183.4270  175.6740  137.1130 C   0  0  0  0  0  3  0  0  0  0  0  0
  1  9  1  0  0  0  0
  1 14  1  0  0  0  0
  2  3  1  0  0  0  0
  3 19  2  0  0  0  0
  3  7  1  0  0  0  0
  4 11  2  0  0  0  0
  5 14  2  0  0  0  0
  5  2  1  0  0  0  0
  6  1  2  0  0  0  0
  7  4  1  0  0  0  0
  8 13  1  0  0  0  0
 10 19  1  0  0  0  0
 12 16  1  0  0  0  0
 12  8  2  0  0  0  0
 13  2  2  0  0  0  0
 13 18  1  0  0  0  0
 15 20  2  0  0  0  0
 15 11  1  0  0  0  0
 16  5  1  0  0  0  0
 17  6  1  0  0  0  0
 17 16  2  0  0  0  0
 18 10  2  0  0  0  0
 19 15  1  0  0  0  0
 21  8  1  0  0  0  0
 22 28  1  0  0  0  0
 24 29  2  0  0  0  0
 25 27  2  0  0  0  0
 26 22  1  0  0  0  0
 27 21  1  0  0  0  0
 28 23  2  0  0  0  0
 29 30  1  0  0  0  0
 30 27  1  0  0  0  0
 30 23  1  0  0  0  0
 31 29  1  0  0  0  0
 31 22  2  0  0  0  0
M  END
>  <MODEL>
8

>  <REMARK>
 VINA RESULT:     -10.0      3.479      4.953
  Name = 
  2 active torsions:
  status: ('A' for Active; 'I' for Inactive)
    1  A    between atoms: C_9  and  C_23
    2  A    between atoms: C_15  and  C_23
                            x       y       z     vdW  Elec       q    Type
                         _______ _______ _______ _____ _____    ______ ____

>  <TORSDO>
F 2

$$$$
=
 OpenBabel10272400143D

 31 35  0  0  0  0  0  0  0  0999 V2000
  190.5050  177.1820  142.0490 C   0  0  0  0  0  0  0  0  0  0  0  0
  186.9710  178.1410  142.9510 C   0  0  0  0  0  0  0  0  0  0  0  0
  186.8730  178.0090  144.3770 C   0  0  0  0  0  0  0  0  0  0  0  0
  187.9110  177.6650  146.6830 C   0  0  0  0  0  3  0  0  0  0  0  0
  188.1580  177.8560  142.2010 C   0  0  0  0  0  0  0  0  0  0  0  0
  190.4710  177.3170  140.6630 C   0  0  0  0  0  3  0  0  0  0  0  0
  187.9780  177.3820  145.2080 C   0  0  0  0  0  2  0  0  0  0  0  0
  185.8440  178.7130  140.8290 C   0  0  0  0  0  0  0  0  0  0  0  0
  191.9780  176.6760  142.8440 Cl  0  0  0  0  0  0  0  0  0  0  0  0
  184.5660  178.7880  144.2980 C   0  0  0  0  0  3  0  0  0  0  0  0
  186.7850  178.0390  147.2850 C   0  0  0  0  0  3  0  0  0  0  0  0
  187.0040  178.4140  140.1260 C   0  0  0  0  0  3  0  0  0  0  0  0
  185.8170  178.5850  142.2330 C   0  0  0  0  0  0  0  0  0  0  0  0
  189.3620  177.4510  142.8050 C   0  0  0  0  0  3  0  0  0  0  0  0
  185.5740  178.2870  146.5020 C   0  0  0  0  0  0  0  0  0  0  0  0
  188.1500  177.9970  140.7880 C   0  0  0  0  0  0  0  0  0  0  0  0
  189.2950  177.7240  140.0350 C   0  0  0  0  0  3  0  0  0  0  0  0
  184.6420  178.9000  142.9210 C   0  0  0  0  0  3  0  0  0  0  0  0
  185.6630  178.3470  145.0300 C   0  0  0  0  0  0  0  0  0  0  0  0
  184.4830  178.4990  147.0950 O   0  0  0  0  0  0  0  0  0  0  0  0
  184.6400  179.1380  140.0430 C   0  0  0  0  0  2  0  0  0  0  0  0
  184.4930  176.4050  135.7480 C   0  0  0  0  0  0  0  0  0  0  0  0
  185.1210  177.7530  137.5960 N   0  0  0  0  0  0  0  0  0  0  0  0
  182.0820  176.1720  138.3340 O   0  0  0  0  0  0  0  0  0  0  0  0
  183.0240  177.4380  140.4130 O   0  0  0  0  0  0  0  0  0  0  0  0
  184.7400  175.9160  134.4730 O   0  0  0  0  0  1  0  0  0  0  0  0
  183.8490  177.9440  139.6040 C   0  0  0  0  0  0  0  0  0  0  0  0
  185.3820  177.2880  136.3470 C   0  0  0  0  0  3  0  0  0  0  0  0
  183.1270  176.5210  137.7210 C   0  0  0  0  0  0  0  0  0  0  0  0
  184.0310  177.3910  138.2830 N   0  0  0  0  0  0  0  0  0  0  0  0
  183.3530  176.0180  136.4410 C   0  0  0  0  0  3  0  0  0  0  0  0
  1 14  1  0  0  0  0
  1  9  1  0  0  0  0
  2  3  1  0  0  0  0
  3 19  2  0  0  0  0
  3  7  1  0  0  0  0
  4 11  2  0  0  0  0
  5 14  2  0  0  0  0
  5  2  1  0  0  0  0
  6  1  2  0  0  0  0
  7  4  1  0  0  0  0
  8 13  1  0  0  0  0
 10 19  1  0  0  0  0
 12 16  1  0  0  0  0
 12  8  2  0  0  0  0
 13 18  1  0  0  0  0
 13  2  2  0  0  0  0
 15 20  2  0  0  0  0
 15 11  1  0  0  0  0
 16  5  1  0  0  0  0
 17  6  1  0  0  0  0
 17 16  2  0  0  0  0
 18 10  2  0  0  0  0
 19 15  1  0  0  0  0
 21  8  1  0  0  0  0
 22 28  1  0  0  0  0
 22 31  2  0  0  0  0
 23 30  1  0  0  0  0
 26 22  1  0  0  0  0
 27 21  1  0  0  0  0
 27 25  2  0  0  0  0
 28 23  2  0  0  0  0
 29 30  1  0  0  0  0
 29 24  2  0  0  0  0
 30 27  1  0  0  0  0
 31 29  1  0  0  0  0
M  END
>  <MODEL>
9

>  <REMARK>
 VINA RESULT:      -9.9      3.309      4.753
  Name = 
  2 active torsions:
  status: ('A' for Active; 'I' for Inactive)
    1  A    between atoms: C_9  and  C_23
    2  A    between atoms: C_15  and  C_23
                            x       y       z     vdW  Elec       q    Type
                         _______ _______ _______ _____ _____    ______ ____

>  <TORSDO>
F 2

$$$$
