=
 OpenBabel10262423553D

 34 38  0  0  1  0  0  0  0  0999 V2000
  189.9320  176.3540  137.3830 C   0  0  1  0  0  3  0  0  0  0  0  0
  187.4390  176.4850  136.8880 C   0  0  0  0  0  2  0  0  0  0  0  0
  188.3330  177.5680  139.0000 C   0  0  0  0  0  0  0  0  0  0  0  0
  186.8920  178.5330  140.6580 N   0  0  0  0  0  0  0  0  0  0  0  0
  189.6630  177.1040  134.9300 C   0  0  0  0  0  2  0  0  0  0  0  0
  188.4810  176.2060  134.5560 C   0  0  0  0  0  2  0  0  0  0  0  0
  186.2470  178.4430  138.4780 O   0  0  0  0  0  0  0  0  0  0  0  0
  188.6410  177.1910  137.5560 C   0  0  1  0  0  3  0  0  0  0  0  0
  190.5850  176.5030  135.9990 C   0  0  0  0  0  2  0  0  0  0  0  0
  189.3230  177.4200  139.9890 C   0  0  0  0  0  0  0  0  0  0  0  0
  190.9620  176.5760  138.4440 C   0  0  0  0  0  3  0  0  0  0  0  0
  187.7950  175.5270  135.7440 C   0  0  0  0  0  2  0  0  0  0  0  0
  187.8180  178.3320  141.5930 N   0  0  0  0  0  0  0  0  0  0  0  0
  189.0340  177.7890  141.3190 C   0  0  0  0  0  0  0  0  0  0  0  0
  187.1190  178.1890  139.3560 C   0  0  0  0  0  0  0  0  0  0  0  0
  190.6490  177.0190  139.6200 N   0  0  0  0  0  0  0  0  0  0  0  0
  191.4450  176.2640  143.8410 C   0  0  0  0  0  0  0  0  0  0  0  0
  191.7730  177.3840  144.6070 C   0  0  0  0  0  3  0  0  0  0  0  0
  190.0000  177.6330  142.4390 C   0  0  0  0  0  0  0  0  0  0  0  0
  191.2140  178.6270  144.3010 C   0  0  0  0  0  3  0  0  0  0  0  0
  190.5600  176.3880  142.7660 C   0  0  0  0  0  3  0  0  0  0  0  0
  190.3300  178.7490  143.2260 C   0  0  0  0  0  3  0  0  0  0  0  0
  191.9970  175.0280  144.1450 O   0  0  0  0  0  1  0  0  0  0  0  0
  185.6400  179.1670  141.0510 C   0  0  0  0  0  2  0  0  0  0  0  0
  184.9940  178.3780  142.1740 C   0  0  0  0  0  2  0  0  0  0  0  0
  185.0930  179.1620  143.4680 C   0  0  0  0  0  2  0  0  0  0  0  0
  184.7950  178.2620  144.6580 C   0  0  0  0  0  2  0  0  0  0  0  0
  185.1550  179.1720  147.2530 O   0  0  0  0  0  0  0  0  0  0  0  0
  185.9990  178.0430  145.4560 N   0  0  0  0  0  0  0  0  0  0  0  0
  186.1000  178.5200  146.7340 C   0  0  0  0  0  0  0  0  0  0  0  0
  188.2670  177.5950  146.9310 C   0  0  0  0  0  3  0  0  0  0  0  0
  188.1880  177.1010  145.6310 C   0  0  0  0  0  3  0  0  0  0  0  0
  187.0250  177.3420  144.9020 C   0  0  0  0  0  3  0  0  0  0  0  0
  187.2280  178.2910  147.4570 N   0  0  0  0  0  0  0  0  0  0  0  0
  1  9  1  6  0  0  0
  1  8  1  0  0  0  0
  1 11  1  0  0  0  0
  3 15  1  0  0  0  0
  3 10  2  0  0  0  0
  4 24  1  0  0  0  0
  4 13  1  0  0  0  0
  5  9  1  0  0  0  0
  6  5  1  0  0  0  0
  6 12  1  0  0  0  0
  7 15  2  0  0  0  0
  8  2  1  1  0  0  0
  8  3  1  0  0  0  0
 10 14  1  0  0  0  0
 11 16  2  0  0  0  0
 12  2  1  0  0  0  0
 14 13  2  0  0  0  0
 14 19  1  0  0  0  0
 15  4  1  0  0  0  0
 16 10  1  0  0  0  0
 17 23  1  0  0  0  0
 17 18  1  0  0  0  0
 19 21  1  0  0  0  0
 19 22  2  0  0  0  0
 20 18  2  0  0  0  0
 21 17  2  0  0  0  0
 22 20  1  0  0  0  0
 24 25  1  0  0  0  0
 25 26  1  0  0  0  0
 26 27  1  0  0  0  0
 27 29  1  0  0  0  0
 29 30  1  0  0  0  0
 30 28  2  0  0  0  0
 30 34  1  0  0  0  0
 31 34  2  0  0  0  0
 32 31  1  0  0  0  0
 33 29  1  0  0  0  0
 33 32  2  0  0  0  0
M  END
>  <MODEL>
1

>  <REMARK>
 VINA RESULT:      -9.2      0.000      0.000
  Name = 
  6 active torsions:
  status: ('A' for Active; 'I' for Inactive)
    1  A    between atoms: C_3  and  N_13
    2  A    between atoms: C_3  and  C_17
    3  A    between atoms: N_5  and  C_18
    4  A    between atoms: C_12  and  C_28
    5  A    between atoms: C_17  and  C_29
    6  A    between atoms: C_18  and  C_29
                            x       y       z     vdW  Elec       q    Type
                         _______ _______ _______ _____ _____    ______ ____

>  <TORSDO>
F 6

$$$$
=
 OpenBabel10262423553D

 34 38  0  0  1  0  0  0  0  0999 V2000
  182.3580  179.0720  140.9820 C   0  0  1  0  0  3  0  0  0  0  0  0
  183.4540  179.9410  138.8550 C   0  0  0  0  0  2  0  0  0  0  0  0
  184.8700  178.6900  140.5460 C   0  0  0  0  0  0  0  0  0  0  0  0
  187.2490  178.4740  140.3210 N   0  0  0  0  0  0  0  0  0  0  0  0
  180.8650  178.3800  138.9970 C   0  0  0  0  0  2  0  0  0  0  0  0
  180.9930  179.6620  138.1680 C   0  0  0  0  0  2  0  0  0  0  0  0
  185.9310  178.7130  138.4830 O   0  0  0  0  0  0  0  0  0  0  0  0
  183.4800  178.8400  139.9400 C   0  0  1  0  0  3  0  0  0  0  0  0
  180.9710  178.6050  140.5100 C   0  0  0  0  0  2  0  0  0  0  0  0
  185.0110  178.4710  141.9300 C   0  0  0  0  0  0  0  0  0  0  0  0
  182.6400  178.5030  142.3350 C   0  0  0  0  0  3  0  0  0  0  0  0
  182.0940  180.6160  138.6390 C   0  0  0  0  0  2  0  0  0  0  0  0
  187.3700  178.3260  141.6390 N   0  0  0  0  0  0  0  0  0  0  0  0
  186.3010  178.3160  142.4790 C   0  0  0  0  0  0  0  0  0  0  0  0
  186.0240  178.6340  139.7390 C   0  0  0  0  0  0  0  0  0  0  0  0
  183.8480  178.2820  142.7470 N   0  0  0  0  0  0  0  0  0  0  0  0
  186.0450  178.5710  146.2690 C   0  0  0  0  0  0  0  0  0  0  0  0
  187.1130  177.7640  146.6640 C   0  0  0  0  0  3  0  0  0  0  0  0
  186.5530  178.1190  143.9310 C   0  0  0  0  0  0  0  0  0  0  0  0
  187.9090  177.1400  145.7000 C   0  0  0  0  0  3  0  0  0  0  0  0
  185.7700  178.7510  144.9110 C   0  0  0  0  0  3  0  0  0  0  0  0
  187.6310  177.3200  144.3430 C   0  0  0  0  0  3  0  0  0  0  0  0
  185.2550  179.1950  147.2250 O   0  0  0  0  0  1  0  0  0  0  0  0
  188.4570  178.4220  139.5080 C   0  0  0  0  0  2  0  0  0  0  0  0
  189.1540  177.0910  139.7050 C   0  0  0  0  0  2  0  0  0  0  0  0
  190.4950  177.3130  140.3770 C   0  0  0  0  0  2  0  0  0  0  0  0
  190.6860  176.3260  141.5190 C   0  0  0  0  0  2  0  0  0  0  0  0
  191.6350  175.1310  143.8360 O   0  0  0  0  0  0  0  0  0  0  0  0
  190.9370  177.0300  142.7750 N   0  0  0  0  0  0  0  0  0  0  0  0
  191.4110  176.3700  143.8760 C   0  0  0  0  0  0  0  0  0  0  0  0
  191.4140  178.3880  145.1090 C   0  0  0  0  0  3  0  0  0  0  0  0
  190.9300  179.0800  144.0030 C   0  0  0  0  0  3  0  0  0  0  0  0
  190.6960  178.3680  142.8280 C   0  0  0  0  0  3  0  0  0  0  0  0
  191.6450  177.0530  145.0280 N   0  0  0  0  0  0  0  0  0  0  0  0
  1  9  1  6  0  0  0
  1 11  1  0  0  0  0
  3 10  2  0  0  0  0
  4 13  1  0  0  0  0
  5  9  1  0  0  0  0
  6 12  1  0  0  0  0
  6  5  1  0  0  0  0
  7 15  2  0  0  0  0
  8  2  1  6  0  0  0
  8  3  1  0  0  0  0
  8  1  1  0  0  0  0
 10 14  1  0  0  0  0
 10 16  1  0  0  0  0
 11 16  2  0  0  0  0
 12  2  1  0  0  0  0
 13 14  2  0  0  0  0
 14 19  1  0  0  0  0
 15  4  1  0  0  0  0
 15  3  1  0  0  0  0
 17 18  1  0  0  0  0
 17 23  1  0  0  0  0
 19 22  2  0  0  0  0
 19 21  1  0  0  0  0
 20 18  2  0  0  0  0
 21 17  2  0  0  0  0
 22 20  1  0  0  0  0
 24 25  1  0  0  0  0
 24  4  1  0  0  0  0
 25 26  1  0  0  0  0
 26 27  1  0  0  0  0
 27 29  1  0  0  0  0
 28 30  2  0  0  0  0
 29 33  1  0  0  0  0
 29 30  1  0  0  0  0
 30 34  1  0  0  0  0
 32 31  1  0  0  0  0
 33 32  2  0  0  0  0
 34 31  2  0  0  0  0
M  END
>  <MODEL>
2

>  <REMARK>
 VINA RESULT:      -8.8      2.383      6.080
  Name = 
  6 active torsions:
  status: ('A' for Active; 'I' for Inactive)
    1  A    between atoms: C_3  and  N_13
    2  A    between atoms: C_3  and  C_17
    3  A    between atoms: N_5  and  C_18
    4  A    between atoms: C_12  and  C_28
    5  A    between atoms: C_17  and  C_29
    6  A    between atoms: C_18  and  C_29
                            x       y       z     vdW  Elec       q    Type
                         _______ _______ _______ _____ _____    ______ ____

>  <TORSDO>
F 6

$$$$
=
 OpenBabel10262423553D

 34 38  0  0  1  0  0  0  0  0999 V2000
  184.5870  178.3080  144.2780 C   0  0  1  0  0  3  0  0  0  0  0  0
  187.0140  177.5410  144.2740 C   0  0  0  0  0  2  0  0  0  0  0  0
  186.0300  178.5200  142.1520 C   0  0  0  0  0  0  0  0  0  0  0  0
  187.2340  178.5610  140.0770 N   0  0  0  0  0  0  0  0  0  0  0  0
  185.7180  179.2890  146.3770 C   0  0  0  0  0  2  0  0  0  0  0  0
  186.5790  178.0780  146.7490 C   0  0  0  0  0  2  0  0  0  0  0  0
  188.3480  178.5910  142.0600 O   0  0  0  0  0  0  0  0  0  0  0  0
  185.9960  178.5370  143.6750 C   0  0  1  0  0  3  0  0  0  0  0  0
  184.4050  178.9260  145.6740 C   0  0  0  0  0  2  0  0  0  0  0  0
  184.8290  178.6060  141.4220 C   0  0  0  0  0  0  0  0  0  0  0  0
  183.4580  178.7320  143.3950 C   0  0  0  0  0  3  0  0  0  0  0  0
  186.6630  177.0000  145.6650 C   0  0  0  0  0  2  0  0  0  0  0  0
  186.0870  178.5830  139.4010 N   0  0  0  0  0  0  0  0  0  0  0  0
  184.8730  178.6080  140.0130 C   0  0  0  0  0  0  0  0  0  0  0  0
  187.2470  178.5530  141.4420 C   0  0  0  0  0  0  0  0  0  0  0  0
  183.5890  178.8170  142.1100 N   0  0  0  0  0  0  0  0  0  0  0  0
  181.8800  179.8850  138.0350 C   0  0  0  0  0  0  0  0  0  0  0  0
  181.3240  178.6850  137.5900 C   0  0  0  0  0  3  0  0  0  0  0  0
  183.6580  178.6560  139.1580 C   0  0  0  0  0  0  0  0  0  0  0  0
  181.9220  177.4690  137.9300 C   0  0  0  0  0  3  0  0  0  0  0  0
  183.0380  179.8690  138.8180 C   0  0  0  0  0  3  0  0  0  0  0  0
  183.0800  177.4560  138.7120 C   0  0  0  0  0  3  0  0  0  0  0  0
  181.2850  181.0930  137.7020 O   0  0  0  0  0  1  0  0  0  0  0  0
  188.4800  178.5850  139.3220 C   0  0  0  0  0  2  0  0  0  0  0  0
  189.2290  177.2820  139.5230 C   0  0  0  0  0  2  0  0  0  0  0  0
  190.6620  177.5770  139.9250 C   0  0  0  0  0  2  0  0  0  0  0  0
  191.1860  176.4900  140.8530 C   0  0  0  0  0  2  0  0  0  0  0  0
  190.1020  175.0000  142.9260 O   0  0  0  0  0  0  0  0  0  0  0  0
  191.1260  176.9250  142.2460 N   0  0  0  0  0  0  0  0  0  0  0  0
  190.5790  176.1300  143.2150 C   0  0  0  0  0  0  0  0  0  0  0  0
  191.0490  177.7680  144.8550 C   0  0  0  0  0  3  0  0  0  0  0  0
  191.6100  178.5960  143.8860 C   0  0  0  0  0  3  0  0  0  0  0  0
  191.6370  178.1450  142.5670 C   0  0  0  0  0  3  0  0  0  0  0  0
  190.5470  176.5560  144.5060 N   0  0  0  0  0  0  0  0  0  0  0  0
  1 11  1  6  0  0  0
  1  9  1  0  0  0  0
  2 12  1  0  0  0  0
  3  8  1  0  0  0  0
  4 15  1  0  0  0  0
  5  6  1  0  0  0  0
  8  2  1  1  0  0  0
  8  1  1  0  0  0  0
  9  5  1  0  0  0  0
 10 16  1  0  0  0  0
 10  3  2  0  0  0  0
 12  6  1  0  0  0  0
 13 14  2  0  0  0  0
 13  4  1  0  0  0  0
 14 10  1  0  0  0  0
 15  7  2  0  0  0  0
 15  3  1  0  0  0  0
 16 11  2  0  0  0  0
 17 21  1  0  0  0  0
 18 20  1  0  0  0  0
 18 17  2  0  0  0  0
 19 14  1  0  0  0  0
 20 22  2  0  0  0  0
 21 19  2  0  0  0  0
 22 19  1  0  0  0  0
 23 17  1  0  0  0  0
 24 25  1  0  0  0  0
 24  4  1  0  0  0  0
 25 26  1  0  0  0  0
 26 27  1  0  0  0  0
 27 29  1  0  0  0  0
 28 30  2  0  0  0  0
 29 33  1  0  0  0  0
 29 30  1  0  0  0  0
 30 34  1  0  0  0  0
 32 31  1  0  0  0  0
 33 32  2  0  0  0  0
 34 31  2  0  0  0  0
M  END
>  <MODEL>
3

>  <REMARK>
 VINA RESULT:      -8.7      2.661      7.955
  Name = 
  6 active torsions:
  status: ('A' for Active; 'I' for Inactive)
    1  A    between atoms: C_3  and  N_13
    2  A    between atoms: C_3  and  C_17
    3  A    between atoms: N_5  and  C_18
    4  A    between atoms: C_12  and  C_28
    5  A    between atoms: C_17  and  C_29
    6  A    between atoms: C_18  and  C_29
                            x       y       z     vdW  Elec       q    Type
                         _______ _______ _______ _____ _____    ______ ____

>  <TORSDO>
F 6

$$$$
=
 OpenBabel10262423553D

 34 38  0  0  1  0  0  0  0  0999 V2000
  184.7900  178.3010  144.2200 C   0  0  1  0  0  3  0  0  0  0  0  0
  187.1780  177.4230  144.2730 C   0  0  0  0  0  2  0  0  0  0  0  0
  186.3000  178.4670  142.1360 C   0  0  0  0  0  0  0  0  0  0  0  0
  187.5610  178.4720  140.0960 N   0  0  0  0  0  0  0  0  0  0  0  0
  185.9070  179.2090  146.3600 C   0  0  0  0  0  2  0  0  0  0  0  0
  186.7000  177.9550  146.7410 C   0  0  0  0  0  2  0  0  0  0  0  0
  188.6200  178.4310  142.1080 O   0  0  0  0  0  0  0  0  0  0  0  0
  186.2240  178.4710  143.6580 C   0  0  1  0  0  3  0  0  0  0  0  0
  184.5980  178.9130  145.6180 C   0  0  0  0  0  2  0  0  0  0  0  0
  185.1240  178.6160  141.3760 C   0  0  0  0  0  0  0  0  0  0  0  0
  183.7070  178.7870  143.3120 C   0  0  0  0  0  3  0  0  0  0  0  0
  186.7640  176.8850  145.6480 C   0  0  0  0  0  2  0  0  0  0  0  0
  186.4350  178.5550  139.3890 N   0  0  0  0  0  0  0  0  0  0  0  0
  185.2070  178.6300  139.9680 C   0  0  0  0  0  0  0  0  0  0  0  0
  187.5360  178.4500  141.4600 C   0  0  0  0  0  0  0  0  0  0  0  0
  183.8760  178.8780  142.0310 N   0  0  0  0  0  0  0  0  0  0  0  0
  182.1430  179.9990  138.1690 C   0  0  0  0  0  0  0  0  0  0  0  0
  181.7430  178.8820  137.4350 C   0  0  0  0  0  3  0  0  0  0  0  0
  184.0200  178.7430  139.0810 C   0  0  0  0  0  0  0  0  0  0  0  0
  182.4700  177.6910  137.5250 C   0  0  0  0  0  3  0  0  0  0  0  0
  183.2720  179.9280  138.9900 C   0  0  0  0  0  3  0  0  0  0  0  0
  183.5980  177.6230  138.3450 C   0  0  0  0  0  3  0  0  0  0  0  0
  181.4210  181.1810  138.0840 O   0  0  0  0  0  1  0  0  0  0  0  0
  188.8270  178.4460  139.3750 C   0  0  0  0  0  2  0  0  0  0  0  0
  188.5780  178.6260  137.8900 C   0  0  0  0  0  2  0  0  0  0  0  0
  189.4550  177.6680  137.1080 C   0  0  0  0  0  2  0  0  0  0  0  0
  189.5520  176.3300  137.8270 C   0  0  0  0  0  2  0  0  0  0  0  0
  190.0980  173.6450  137.3960 O   0  0  0  0  0  0  0  0  0  0  0  0
  190.8930  175.7650  137.6930 N   0  0  0  0  0  0  0  0  0  0  0  0
  191.0820  174.4280  137.4760 C   0  0  0  0  0  0  0  0  0  0  0  0
  193.4250  174.7460  137.4270 C   0  0  0  0  0  3  0  0  0  0  0  0
  193.2570  176.1100  137.6490 C   0  0  0  0  0  3  0  0  0  0  0  0
  191.9610  176.6040  137.7810 C   0  0  0  0  0  3  0  0  0  0  0  0
  192.3410  173.9330  137.3450 N   0  0  0  0  0  0  0  0  0  0  0  0
  1 11  1  6  0  0  0
  1  9  1  0  0  0  0
  2 12  1  0  0  0  0
  3  8  1  0  0  0  0
  4 15  1  0  0  0  0
  5  6  1  0  0  0  0
  8  1  1  0  0  0  0
  8  2  1  1  0  0  0
  9  5  1  0  0  0  0
 10 16  1  0  0  0  0
 10  3  2  0  0  0  0
 12  6  1  0  0  0  0
 13 14  2  0  0  0  0
 13  4  1  0  0  0  0
 14 10  1  0  0  0  0
 15  7  2  0  0  0  0
 15  3  1  0  0  0  0
 16 11  2  0  0  0  0
 17 21  1  0  0  0  0
 18 20  1  0  0  0  0
 18 17  2  0  0  0  0
 19 14  1  0  0  0  0
 20 22  2  0  0  0  0
 21 19  2  0  0  0  0
 22 19  1  0  0  0  0
 23 17  1  0  0  0  0
 24  4  1  0  0  0  0
 25 24  1  0  0  0  0
 26 27  1  0  0  0  0
 26 25  1  0  0  0  0
 28 30  2  0  0  0  0
 29 33  1  0  0  0  0
 29 27  1  0  0  0  0
 30 29  1  0  0  0  0
 31 32  1  0  0  0  0
 32 33  2  0  0  0  0
 34 31  2  0  0  0  0
 34 30  1  0  0  0  0
M  END
>  <MODEL>
4

>  <REMARK>
 VINA RESULT:      -8.6      2.949      8.942
  Name = 
  6 active torsions:
  status: ('A' for Active; 'I' for Inactive)
    1  A    between atoms: C_3  and  N_13
    2  A    between atoms: C_3  and  C_17
    3  A    between atoms: N_5  and  C_18
    4  A    between atoms: C_12  and  C_28
    5  A    between atoms: C_17  and  C_29
    6  A    between atoms: C_18  and  C_29
                            x       y       z     vdW  Elec       q    Type
                         _______ _______ _______ _____ _____    ______ ____

>  <TORSDO>
F 6

$$$$
=
 OpenBabel10262423553D

 34 38  0  0  1  0  0  0  0  0999 V2000
  187.6710  177.5770  146.7070 C   0  0  1  0  0  3  0  0  0  0  0  0
  189.7610  176.8550  145.4470 C   0  0  0  0  0  2  0  0  0  0  0  0
  187.9100  178.0390  144.1830 C   0  0  0  0  0  0  0  0  0  0  0  0
  187.9580  178.3200  141.8010 N   0  0  0  0  0  0  0  0  0  0  0  0
  189.7140  178.3470  148.0810 C   0  0  0  0  0  2  0  0  0  0  0  0
  190.6010  177.1180  147.8620 C   0  0  0  0  0  2  0  0  0  0  0  0
  189.8930  178.1570  142.9840 O   0  0  0  0  0  0  0  0  0  0  0  0
  188.6190  177.8920  145.5240 C   0  0  1  0  0  3  0  0  0  0  0  0
  188.2120  178.0390  148.0710 C   0  0  0  0  0  2  0  0  0  0  0  0
  186.5100  178.1830  144.1420 C   0  0  0  0  0  0  0  0  0  0  0  0
  186.2730  178.0750  146.5330 C   0  0  0  0  0  3  0  0  0  0  0  0
  190.1080  176.1630  146.7710 C   0  0  0  0  0  2  0  0  0  0  0  0
  186.6290  178.3960  141.7740 N   0  0  0  0  0  0  0  0  0  0  0  0
  185.8660  178.3350  142.8970 C   0  0  0  0  0  0  0  0  0  0  0  0
  188.6310  178.1670  142.9780 C   0  0  0  0  0  0  0  0  0  0  0  0
  185.7670  178.2990  145.3620 N   0  0  0  0  0  0  0  0  0  0  0  0
  182.3670  178.4130  141.3960 C   0  0  0  0  0  0  0  0  0  0  0  0
  181.6040  178.7550  142.5140 C   0  0  0  0  0  3  0  0  0  0  0  0
  184.3910  178.4550  142.7500 C   0  0  0  0  0  0  0  0  0  0  0  0
  182.2280  178.9560  143.7490 C   0  0  0  0  0  3  0  0  0  0  0  0
  183.7520  178.2690  141.5130 C   0  0  0  0  0  3  0  0  0  0  0  0
  183.6130  178.8100  143.8630 C   0  0  0  0  0  3  0  0  0  0  0  0
  181.7500  178.2170  140.1690 O   0  0  0  0  0  1  0  0  0  0  0  0
  188.6820  178.4450  140.5420 C   0  0  0  0  0  2  0  0  0  0  0  0
  189.0560  177.0710  140.0250 C   0  0  0  0  0  2  0  0  0  0  0  0
  189.0800  177.0870  138.5090 C   0  0  0  0  0  2  0  0  0  0  0  0
  188.0840  178.1060  137.9730 C   0  0  0  0  0  2  0  0  0  0  0  0
  185.6070  179.1270  138.6910 O   0  0  0  0  0  0  0  0  0  0  0  0
  186.8040  177.4710  137.6700 N   0  0  0  0  0  0  0  0  0  0  0  0
  185.6210  178.0390  138.0530 C   0  0  0  0  0  0  0  0  0  0  0  0
  184.4200  176.2580  137.0640 C   0  0  0  0  0  3  0  0  0  0  0  0
  185.6120  175.6600  136.6650 C   0  0  0  0  0  3  0  0  0  0  0  0
  186.8100  176.2950  136.9850 C   0  0  0  0  0  3  0  0  0  0  0  0
  184.4440  177.4310  137.7480 N   0  0  0  0  0  0  0  0  0  0  0  0
  1 11  1  6  0  0  0
  1  9  1  0  0  0  0
  2 12  1  0  0  0  0
  3  8  1  0  0  0  0
  4 15  1  0  0  0  0
  6  5  1  0  0  0  0
  8  2  1  6  0  0  0
  8  1  1  0  0  0  0
  9  5  1  0  0  0  0
 10  3  2  0  0  0  0
 10 16  1  0  0  0  0
 12  6  1  0  0  0  0
 13  4  1  0  0  0  0
 13 14  2  0  0  0  0
 14 10  1  0  0  0  0
 15  7  2  0  0  0  0
 15  3  1  0  0  0  0
 16 11  2  0  0  0  0
 17 21  2  0  0  0  0
 17 18  1  0  0  0  0
 18 20  2  0  0  0  0
 19 14  1  0  0  0  0
 19 22  2  0  0  0  0
 20 22  1  0  0  0  0
 21 19  1  0  0  0  0
 23 17  1  0  0  0  0
 24  4  1  0  0  0  0
 25 24  1  0  0  0  0
 26 25  1  0  0  0  0
 27 26  1  0  0  0  0
 29 27  1  0  0  0  0
 29 30  1  0  0  0  0
 30 28  2  0  0  0  0
 31 34  2  0  0  0  0
 32 33  2  0  0  0  0
 32 31  1  0  0  0  0
 33 29  1  0  0  0  0
 34 30  1  0  0  0  0
M  END
>  <MODEL>
5

>  <REMARK>
 VINA RESULT:      -8.5      2.225      8.400
  Name = 
  6 active torsions:
  status: ('A' for Active; 'I' for Inactive)
    1  A    between atoms: C_3  and  N_13
    2  A    between atoms: C_3  and  C_17
    3  A    between atoms: N_5  and  C_18
    4  A    between atoms: C_12  and  C_28
    5  A    between atoms: C_17  and  C_29
    6  A    between atoms: C_18  and  C_29
                            x       y       z     vdW  Elec       q    Type
                         _______ _______ _______ _____ _____    ______ ____

>  <TORSDO>
F 6

$$$$
=
 OpenBabel10262423553D

 34 38  0  0  1  0  0  0  0  0999 V2000
  189.5350  176.9130  146.4810 C   0  0  1  0  0  3  0  0  0  0  0  0
  191.5170  175.7670  145.3700 C   0  0  0  0  0  2  0  0  0  0  0  0
  189.9860  177.2170  143.9610 C   0  0  0  0  0  0  0  0  0  0  0  0
  190.2090  177.3840  141.5780 N   0  0  0  0  0  0  0  0  0  0  0  0
  191.6110  177.3520  147.9470 C   0  0  0  0  0  2  0  0  0  0  0  0
  192.2640  175.9730  147.8200 C   0  0  0  0  0  2  0  0  0  0  0  0
  192.0160  176.9170  142.8780 O   0  0  0  0  0  0  0  0  0  0  0  0
  190.5840  176.9990  145.3450 C   0  0  1  0  0  3  0  0  0  0  0  0
  190.0800  177.3260  147.8590 C   0  0  0  0  0  2  0  0  0  0  0  0
  188.6410  177.6140  143.8330 C   0  0  0  0  0  0  0  0  0  0  0  0
  188.2640  177.6520  146.2090 C   0  0  0  0  0  3  0  0  0  0  0  0
  191.6590  175.0800  146.7330 C   0  0  0  0  0  2  0  0  0  0  0  0
  188.9200  177.7020  141.4710 N   0  0  0  0  0  0  0  0  0  0  0  0
  188.1020  177.8300  142.5480 C   0  0  0  0  0  0  0  0  0  0  0  0
  190.7800  177.1590  142.7980 C   0  0  0  0  0  0  0  0  0  0  0  0
  187.8700  177.9160  145.0040 N   0  0  0  0  0  0  0  0  0  0  0  0
  184.9320  179.1630  140.9130 C   0  0  0  0  0  0  0  0  0  0  0  0
  184.0040  178.9750  141.9380 C   0  0  0  0  0  3  0  0  0  0  0  0
  186.6850  178.2120  142.3110 C   0  0  0  0  0  0  0  0  0  0  0  0
  184.4090  178.4130  143.1520 C   0  0  0  0  0  3  0  0  0  0  0  0
  186.2650  178.7890  141.1010 C   0  0  0  0  0  3  0  0  0  0  0  0
  185.7420  178.0380  143.3370 C   0  0  0  0  0  3  0  0  0  0  0  0
  184.5320  179.7240  139.7090 O   0  0  0  0  0  1  0  0  0  0  0  0
  191.0080  177.3210  140.3610 C   0  0  0  0  0  2  0  0  0  0  0  0
  190.1620  177.7200  139.1680 C   0  0  0  0  0  2  0  0  0  0  0  0
  190.0980  176.5700  138.1820 C   0  0  0  0  0  2  0  0  0  0  0  0
  189.4420  177.0200  136.8840 C   0  0  0  0  0  2  0  0  0  0  0  0
  187.7070  179.1640  137.1850 O   0  0  0  0  0  0  0  0  0  0  0  0
  187.9880  176.9070  136.9720 N   0  0  0  0  0  0  0  0  0  0  0  0
  187.1970  178.0130  137.1160 C   0  0  0  0  0  0  0  0  0  0  0  0
  185.2600  176.6560  137.1140 C   0  0  0  0  0  3  0  0  0  0  0  0
  186.0450  175.5150  136.9700 C   0  0  0  0  0  3  0  0  0  0  0  0
  187.4280  175.6680  136.9010 C   0  0  0  0  0  3  0  0  0  0  0  0
  185.8460  177.8780  137.1840 N   0  0  0  0  0  0  0  0  0  0  0  0
  1 11  1  6  0  0  0
  1  9  1  0  0  0  0
  2 12  1  0  0  0  0
  3  8  1  0  0  0  0
  4 15  1  0  0  0  0
  6  5  1  0  0  0  0
  8  2  1  6  0  0  0
  8  1  1  0  0  0  0
  9  5  1  0  0  0  0
 10  3  2  0  0  0  0
 10 16  1  0  0  0  0
 12  6  1  0  0  0  0
 13  4  1  0  0  0  0
 13 14  2  0  0  0  0
 14 10  1  0  0  0  0
 15  7  2  0  0  0  0
 15  3  1  0  0  0  0
 16 11  2  0  0  0  0
 17 21  2  0  0  0  0
 17 18  1  0  0  0  0
 18 20  2  0  0  0  0
 19 14  1  0  0  0  0
 19 22  2  0  0  0  0
 20 22  1  0  0  0  0
 21 19  1  0  0  0  0
 23 17  1  0  0  0  0
 24  4  1  0  0  0  0
 25 24  1  0  0  0  0
 26 25  1  0  0  0  0
 27 29  1  0  0  0  0
 27 26  1  0  0  0  0
 29 30  1  0  0  0  0
 30 34  1  0  0  0  0
 30 28  2  0  0  0  0
 31 34  2  0  0  0  0
 32 31  1  0  0  0  0
 33 32  2  0  0  0  0
 33 29  1  0  0  0  0
M  END
>  <MODEL>
6

>  <REMARK>
 VINA RESULT:      -8.5      2.073      8.250
  Name = 
  6 active torsions:
  status: ('A' for Active; 'I' for Inactive)
    1  A    between atoms: C_3  and  N_13
    2  A    between atoms: C_3  and  C_17
    3  A    between atoms: N_5  and  C_18
    4  A    between atoms: C_12  and  C_28
    5  A    between atoms: C_17  and  C_29
    6  A    between atoms: C_18  and  C_29
                            x       y       z     vdW  Elec       q    Type
                         _______ _______ _______ _____ _____    ______ ____

>  <TORSDO>
F 6

$$$$
=
 OpenBabel10262423553D

 34 38  0  0  1  0  0  0  0  0999 V2000
  187.4590  177.6200  146.7280 C   0  0  1  0  0  3  0  0  0  0  0  0
  189.6200  176.9180  145.5820 C   0  0  0  0  0  2  0  0  0  0  0  0
  187.8260  178.0820  144.2190 C   0  0  0  0  0  0  0  0  0  0  0  0
  187.9970  178.3610  141.8420 N   0  0  0  0  0  0  0  0  0  0  0  0
  189.4180  178.4120  148.2060 C   0  0  0  0  0  2  0  0  0  0  0  0
  190.3280  177.1920  148.0370 C   0  0  0  0  0  2  0  0  0  0  0  0
  189.8690  178.2190  143.1260 O   0  0  0  0  0  0  0  0  0  0  0  0
  188.4640  177.9440  145.5960 C   0  0  1  0  0  3  0  0  0  0  0  0
  187.9220  178.0890  148.1180 C   0  0  0  0  0  2  0  0  0  0  0  0
  186.4290  178.2110  144.1040 C   0  0  0  0  0  0  0  0  0  0  0  0
  186.0670  178.1030  146.4790 C   0  0  0  0  0  3  0  0  0  0  0  0
  189.9030  176.2310  146.9230 C   0  0  0  0  0  2  0  0  0  0  0  0
  186.6710  178.4240  141.7450 N   0  0  0  0  0  0  0  0  0  0  0  0
  185.8500  178.3560  142.8260 C   0  0  0  0  0  0  0  0  0  0  0  0
  188.6090  178.2160  143.0540 C   0  0  0  0  0  0  0  0  0  0  0  0
  185.6210  178.3210  145.2830 N   0  0  0  0  0  0  0  0  0  0  0  0
  182.4330  178.3760  141.1460 C   0  0  0  0  0  0  0  0  0  0  0  0
  181.6110  178.7330  142.2160 C   0  0  0  0  0  3  0  0  0  0  0  0
  184.3840  178.4600  142.6010 C   0  0  0  0  0  0  0  0  0  0  0  0
  182.1680  178.9620  143.4770 C   0  0  0  0  0  3  0  0  0  0  0  0
  183.8110  178.2450  141.3370 C   0  0  0  0  0  3  0  0  0  0  0  0
  183.5470  178.8300  143.6660 C   0  0  0  0  0  3  0  0  0  0  0  0
  181.8820  178.1520  139.8920 O   0  0  0  0  0  1  0  0  0  0  0  0
  188.7850  178.4920  140.6230 C   0  0  0  0  0  2  0  0  0  0  0  0
  187.9690  178.0370  139.4300 C   0  0  0  0  0  2  0  0  0  0  0  0
  188.8060  177.1180  138.5620 C   0  0  0  0  0  2  0  0  0  0  0  0
  189.9630  176.5390  139.3640 C   0  0  0  0  0  2  0  0  0  0  0  0
  192.4860  177.3880  140.1450 O   0  0  0  0  0  0  0  0  0  0  0  0
  191.1660  176.4400  138.5400 N   0  0  0  0  0  0  0  0  0  0  0  0
  192.3780  176.8770  138.9980 C   0  0  0  0  0  0  0  0  0  0  0  0
  193.4050  176.2190  136.9720 C   0  0  0  0  0  3  0  0  0  0  0  0
  192.1820  175.7680  136.4830 C   0  0  0  0  0  3  0  0  0  0  0  0
  191.0580  175.8920  137.2990 C   0  0  0  0  0  3  0  0  0  0  0  0
  193.4820  176.7620  138.2130 N   0  0  0  0  0  0  0  0  0  0  0  0
  1 11  1  6  0  0  0
  1  9  1  0  0  0  0
  2 12  1  0  0  0  0
  3  8  1  0  0  0  0
  4 15  1  0  0  0  0
  6  5  1  0  0  0  0
  8  2  1  6  0  0  0
  8  1  1  0  0  0  0
  9  5  1  0  0  0  0
 10  3  2  0  0  0  0
 10 16  1  0  0  0  0
 12  6  1  0  0  0  0
 13  4  1  0  0  0  0
 13 14  2  0  0  0  0
 14 10  1  0  0  0  0
 15  7  2  0  0  0  0
 15  3  1  0  0  0  0
 16 11  2  0  0  0  0
 17 21  2  0  0  0  0
 17 18  1  0  0  0  0
 18 20  2  0  0  0  0
 19 14  1  0  0  0  0
 19 22  2  0  0  0  0
 20 22  1  0  0  0  0
 21 19  1  0  0  0  0
 23 17  1  0  0  0  0
 24  4  1  0  0  0  0
 25 24  1  0  0  0  0
 26 27  1  0  0  0  0
 26 25  1  0  0  0  0
 29 30  1  0  0  0  0
 29 27  1  0  0  0  0
 30 28  2  0  0  0  0
 31 34  2  0  0  0  0
 32 31  1  0  0  0  0
 32 33  2  0  0  0  0
 33 29  1  0  0  0  0
 34 30  1  0  0  0  0
M  END
>  <MODEL>
7

>  <REMARK>
 VINA RESULT:      -8.5      2.322      8.666
  Name = 
  6 active torsions:
  status: ('A' for Active; 'I' for Inactive)
    1  A    between atoms: C_3  and  N_13
    2  A    between atoms: C_3  and  C_17
    3  A    between atoms: N_5  and  C_18
    4  A    between atoms: C_12  and  C_28
    5  A    between atoms: C_17  and  C_29
    6  A    between atoms: C_18  and  C_29
                            x       y       z     vdW  Elec       q    Type
                         _______ _______ _______ _____ _____    ______ ____

>  <TORSDO>
F 6

$$$$
=
 OpenBabel10262423553D

 34 38  0  0  1  0  0  0  0  0999 V2000
  189.5400  176.8990  146.4700 C   0  0  1  0  0  3  0  0  0  0  0  0
  191.5280  175.8800  145.2520 C   0  0  0  0  0  2  0  0  0  0  0  0
  189.9000  177.3240  143.9530 C   0  0  0  0  0  0  0  0  0  0  0  0
  190.0410  177.5990  141.5740 N   0  0  0  0  0  0  0  0  0  0  0  0
  191.6430  177.3590  147.8900 C   0  0  0  0  0  2  0  0  0  0  0  0
  192.3440  176.0130  147.6860 C   0  0  0  0  0  2  0  0  0  0  0  0
  191.9050  177.1510  142.7980 O   0  0  0  0  0  0  0  0  0  0  0  0
  190.5490  177.0740  145.3080 C   0  0  1  0  0  3  0  0  0  0  0  0
  190.1120  177.2750  147.8470 C   0  0  0  0  0  2  0  0  0  0  0  0
  188.5370  177.6730  143.8830 C   0  0  0  0  0  0  0  0  0  0  0  0
  188.2340  177.5980  146.2680 C   0  0  0  0  0  3  0  0  0  0  0  0
  191.7400  175.1430  146.5800 C   0  0  0  0  0  2  0  0  0  0  0  0
  188.7380  177.8700  141.5190 N   0  0  0  0  0  0  0  0  0  0  0  0
  187.9500  177.9200  142.6250 C   0  0  0  0  0  0  0  0  0  0  0  0
  190.6580  177.3470  142.7650 C   0  0  0  0  0  0  0  0  0  0  0  0
  187.7930  177.8950  145.0870 N   0  0  0  0  0  0  0  0  0  0  0  0
  184.6680  179.1210  141.1120 C   0  0  0  0  0  0  0  0  0  0  0  0
  183.7950  178.9310  142.1840 C   0  0  0  0  0  3  0  0  0  0  0  0
  186.5120  178.2550  142.4460 C   0  0  0  0  0  0  0  0  0  0  0  0
  184.2730  178.4120  143.3900 C   0  0  0  0  0  3  0  0  0  0  0  0
  186.0190  178.7890  141.2450 C   0  0  0  0  0  3  0  0  0  0  0  0
  185.6240  178.0800  143.5200 C   0  0  0  0  0  3  0  0  0  0  0  0
  184.1950  179.6390  139.9150 O   0  0  0  0  0  1  0  0  0  0  0  0
  190.8030  177.6180  140.3320 C   0  0  0  0  0  2  0  0  0  0  0  0
  189.8870  177.9510  139.1710 C   0  0  0  0  0  2  0  0  0  0  0  0
  190.0000  176.8750  138.1090 C   0  0  0  0  0  2  0  0  0  0  0  0
  191.1710  175.9510  138.4120 C   0  0  0  0  0  2  0  0  0  0  0  0
  193.8530  176.5490  138.7910 O   0  0  0  0  0  0  0  0  0  0  0  0
  192.1680  176.0100  137.3460 N   0  0  0  0  0  0  0  0  0  0  0  0
  193.4760  176.3080  137.6120 C   0  0  0  0  0  0  0  0  0  0  0  0
  194.0140  176.0940  135.3200 C   0  0  0  0  0  3  0  0  0  0  0  0
  192.6880  175.7910  135.0230 C   0  0  0  0  0  3  0  0  0  0  0  0
  191.7690  175.7540  136.0700 C   0  0  0  0  0  3  0  0  0  0  0  0
  194.3830  176.3460  136.6010 N   0  0  0  0  0  0  0  0  0  0  0  0
  1 11  1  6  0  0  0
  1  9  1  0  0  0  0
  2 12  1  0  0  0  0
  3  8  1  0  0  0  0
  4 15  1  0  0  0  0
  6  5  1  0  0  0  0
  8  2  1  6  0  0  0
  8  1  1  0  0  0  0
  9  5  1  0  0  0  0
 10  3  2  0  0  0  0
 10 16  1  0  0  0  0
 12  6  1  0  0  0  0
 13  4  1  0  0  0  0
 13 14  2  0  0  0  0
 14 10  1  0  0  0  0
 15  7  2  0  0  0  0
 15  3  1  0  0  0  0
 16 11  2  0  0  0  0
 17 21  2  0  0  0  0
 17 18  1  0  0  0  0
 18 20  2  0  0  0  0
 19 14  1  0  0  0  0
 19 22  2  0  0  0  0
 20 22  1  0  0  0  0
 21 19  1  0  0  0  0
 23 17  1  0  0  0  0
 24  4  1  0  0  0  0
 25 24  1  0  0  0  0
 26 27  1  0  0  0  0
 26 25  1  0  0  0  0
 29 30  1  0  0  0  0
 29 27  1  0  0  0  0
 30 28  2  0  0  0  0
 31 34  2  0  0  0  0
 32 31  1  0  0  0  0
 32 33  2  0  0  0  0
 33 29  1  0  0  0  0
 34 30  1  0  0  0  0
M  END
>  <MODEL>
8

>  <REMARK>
 VINA RESULT:      -8.4      2.312      8.827
  Name = 
  6 active torsions:
  status: ('A' for Active; 'I' for Inactive)
    1  A    between atoms: C_3  and  N_13
    2  A    between atoms: C_3  and  C_17
    3  A    between atoms: N_5  and  C_18
    4  A    between atoms: C_12  and  C_28
    5  A    between atoms: C_17  and  C_29
    6  A    between atoms: C_18  and  C_29
                            x       y       z     vdW  Elec       q    Type
                         _______ _______ _______ _____ _____    ______ ____

>  <TORSDO>
F 6

$$$$
=
 OpenBabel10262423553D

 34 38  0  0  1  0  0  0  0  0999 V2000
  186.5790  178.4680  138.0120 C   0  0  1  0  0  3  0  0  0  0  0  0
  189.1230  178.4120  138.0430 C   0  0  0  0  0  2  0  0  0  0  0  0
  187.8530  177.8170  140.1560 C   0  0  0  0  0  0  0  0  0  0  0  0
  188.9570  177.4050  142.2460 N   0  0  0  0  0  0  0  0  0  0  0  0
  187.3550  177.1590  135.9290 C   0  0  0  0  0  2  0  0  0  0  0  0
  188.5640  178.0260  135.5650 C   0  0  0  0  0  2  0  0  0  0  0  0
  190.0230  177.0040  140.2770 O   0  0  0  0  0  0  0  0  0  0  0  0
  187.8310  177.8010  138.6320 C   0  0  1  0  0  3  0  0  0  0  0  0
  186.2220  177.9320  136.6150 C   0  0  0  0  0  2  0  0  0  0  0  0
  186.6800  178.1280  140.8700 C   0  0  0  0  0  0  0  0  0  0  0  0
  185.3630  178.4360  138.8810 C   0  0  0  0  0  3  0  0  0  0  0  0
  188.9790  179.0270  136.6460 C   0  0  0  0  0  2  0  0  0  0  0  0
  187.8570  177.7580  142.9070 N   0  0  0  0  0  0  0  0  0  0  0  0
  186.7070  178.1220  142.2800 C   0  0  0  0  0  0  0  0  0  0  0  0
  188.9870  177.3990  140.8810 C   0  0  0  0  0  0  0  0  0  0  0  0
  185.4460  178.3230  140.1690 N   0  0  0  0  0  0  0  0  0  0  0  0
  184.4700  178.7830  145.2900 C   0  0  0  0  0  0  0  0  0  0  0  0
  183.2610  179.0860  144.6630 C   0  0  0  0  0  3  0  0  0  0  0  0
  185.5320  178.4740  143.1210 C   0  0  0  0  0  0  0  0  0  0  0  0
  183.1770  179.0770  143.2680 C   0  0  0  0  0  3  0  0  0  0  0  0
  185.5970  178.4740  144.5230 C   0  0  0  0  0  3  0  0  0  0  0  0
  184.3050  178.7690  142.5030 C   0  0  0  0  0  3  0  0  0  0  0  0
  184.5540  178.7880  146.6750 O   0  0  0  0  0  1  0  0  0  0  0  0
  190.1210  176.9860  143.0170 C   0  0  0  0  0  2  0  0  0  0  0  0
  190.7890  178.1960  143.6380 C   0  0  0  0  0  2  0  0  0  0  0  0
  191.6140  177.7630  144.8350 C   0  0  0  0  0  2  0  0  0  0  0  0
  190.9280  176.6170  145.5650 C   0  0  0  0  0  2  0  0  0  0  0  0
  191.7240  177.2920  148.1350 O   0  0  0  0  0  0  0  0  0  0  0  0
  190.0360  177.1250  146.6050 N   0  0  0  0  0  0  0  0  0  0  0  0
  190.5050  177.4420  147.8500 C   0  0  0  0  0  0  0  0  0  0  0  0
  188.3350  178.0950  148.5250 C   0  0  0  0  0  3  0  0  0  0  0  0
  187.8340  177.7790  147.2650 C   0  0  0  0  0  3  0  0  0  0  0  0
  188.7190  177.2870  146.3060 C   0  0  0  0  0  3  0  0  0  0  0  0
  189.6540  177.9230  148.7940 N   0  0  0  0  0  0  0  0  0  0  0  0
  1  9  1  6  0  0  0
  1  8  1  0  0  0  0
  1 11  1  0  0  0  0
  3 10  2  0  0  0  0
  3 15  1  0  0  0  0
  4 13  1  0  0  0  0
  4 24  1  0  0  0  0
  5  9  1  0  0  0  0
  6  5  1  0  0  0  0
  6 12  1  0  0  0  0
  7 15  2  0  0  0  0
  8  2  1  6  0  0  0
  8  3  1  0  0  0  0
 10 14  1  0  0  0  0
 11 16  2  0  0  0  0
 12  2  1  0  0  0  0
 14 13  2  0  0  0  0
 14 19  1  0  0  0  0
 15  4  1  0  0  0  0
 16 10  1  0  0  0  0
 17 23  1  0  0  0  0
 18 17  1  0  0  0  0
 19 21  1  0  0  0  0
 20 18  2  0  0  0  0
 21 17  2  0  0  0  0
 22 19  2  0  0  0  0
 22 20  1  0  0  0  0
 24 25  1  0  0  0  0
 25 26  1  0  0  0  0
 26 27  1  0  0  0  0
 27 29  1  0  0  0  0
 29 30  1  0  0  0  0
 30 28  2  0  0  0  0
 30 34  1  0  0  0  0
 31 34  2  0  0  0  0
 32 31  1  0  0  0  0
 33 29  1  0  0  0  0
 33 32  2  0  0  0  0
M  END
>  <MODEL>
9

>  <REMARK>
 VINA RESULT:      -8.3      1.933      4.887
  Name = 
  6 active torsions:
  status: ('A' for Active; 'I' for Inactive)
    1  A    between atoms: C_3  and  N_13
    2  A    between atoms: C_3  and  C_17
    3  A    between atoms: N_5  and  C_18
    4  A    between atoms: C_12  and  C_28
    5  A    between atoms: C_17  and  C_29
    6  A    between atoms: C_18  and  C_29
                            x       y       z     vdW  Elec       q    Type
                         _______ _______ _______ _____ _____    ______ ____

>  <TORSDO>
F 6

$$$$
