=
 OpenBabel10272400083D

 34 39  0  0  1  0  0  0  0  0999 V2000
  185.0930  175.9250  137.3010 C   0  0  0  0  0  0  0  0  0  0  0  0
  186.4700  177.9190  137.0870 C   0  0  0  0  0  0  0  0  0  0  0  0
  184.1900  178.1210  138.1840 C   0  0  1  0  0  3  0  0  0  0  0  0
  183.3480  178.5320  140.5430 C   0  0  0  0  0  0  0  0  0  0  0  0
  187.2930  175.7790  136.3000 C   0  0  0  0  0  3  0  0  0  0  0  0
  187.4750  177.1510  136.4910 C   0  0  0  0  0  3  0  0  0  0  0  0
  185.7420  178.4690  140.1720 C   0  0  0  0  0  3  0  0  0  0  0  0
  185.2750  177.3080  137.5080 C   0  0  0  0  0  0  0  0  0  0  0  0
  185.9590  178.7310  141.5260 C   0  0  0  0  0  3  0  0  0  0  0  0
  183.5710  178.7880  141.8980 C   0  0  0  0  0  3  0  0  0  0  0  0
  186.1010  175.1690  136.6970 C   0  0  0  0  0  3  0  0  0  0  0  0
  182.7990  177.5050  137.9110 C   0  0  2  0  0  3  0  0  0  0  0  0
  183.8460  175.3040  137.6300 N   0  0  0  0  0  2  0  0  0  0  0  0
  186.6660  179.2840  137.2540 O   0  0  0  0  0  1  0  0  0  0  0  0
  182.0040  178.4350  140.0610 N   0  0  0  0  0  2  0  0  0  0  0  0
  181.6900  178.2670  138.6430 C   0  0  1  0  0  3  0  0  0  0  0  0
  184.8730  178.8860  142.3970 C   0  0  0  0  0  0  0  0  0  0  0  0
  184.4380  178.3440  139.6670 C   0  0  0  0  0  0  0  0  0  0  0  0
  182.7840  176.0300  138.3190 C   0  0  0  0  0  2  0  0  0  0  0  0
  180.7340  180.9140  136.0790 C   0  0  0  0  0  0  0  0  0  0  0  0
  180.8160  182.0600  136.8720 C   0  0  0  0  0  3  0  0  0  0  0  0
  181.3930  179.5840  137.9910 C   0  0  0  0  0  0  0  0  0  0  0  0
  181.1720  181.9590  138.1810 N   0  0  0  0  0  0  0  0  0  0  0  0
  181.0220  179.6720  136.6430 C   0  0  0  0  0  3  0  0  0  0  0  0
  181.4570  180.7550  138.7510 C   0  0  0  0  0  3  0  0  0  0  0  0
  180.3420  181.0170  134.6500 C   0  0  0  0  0  1  0  0  0  0  0  0
  185.0680  179.1510  143.7870 N   0  0  0  0  0  2  0  0  0  0  0  0
  185.3960  178.1110  144.7520 C   0  0  0  0  0  2  0  0  0  0  0  0
  188.9160  177.9460  145.0040 C   0  0  0  0  0  1  0  0  0  0  0  0
  187.6300  177.4430  145.6310 C   0  0  2  0  0  3  0  0  0  0  0  0
  187.2260  178.2200  147.8700 N   0  0  0  0  0  2  0  0  0  0  0  0
  186.1590  178.7290  147.0240 C   0  0  0  0  0  2  0  0  0  0  0  0
  186.5890  178.5370  145.5880 C   0  0  2  0  0  3  0  0  0  0  0  0
  187.8590  177.1600  147.1020 C   0  0  0  0  0  2  0  0  0  0  0  0
  1  8  1  0  0  0  0
  1 13  1  0  0  0  0
  2 14  1  0  0  0  0
  2  8  2  0  0  0  0
  3  8  1  1  0  0  0
  3 18  1  0  0  0  0
  4 10  1  0  0  0  0
  5  6  2  0  0  0  0
  5 11  1  0  0  0  0
  6  2  1  0  0  0  0
  7  9  2  0  0  0  0
  9 17  1  0  0  0  0
 10 17  2  0  0  0  0
 11  1  2  0  0  0  0
 12  3  1  0  0  0  0
 12 19  1  1  0  0  0
 12 16  1  0  0  0  0
 13 19  1  0  0  0  0
 15  4  1  0  0  0  0
 16 22  1  6  0  0  0
 16 15  1  0  0  0  0
 17 27  1  0  0  0  0
 18  7  1  0  0  0  0
 18  4  2  0  0  0  0
 20 24  2  0  0  0  0
 20 21  1  0  0  0  0
 21 23  2  0  0  0  0
 22 25  2  0  0  0  0
 23 25  1  0  0  0  0
 24 22  1  0  0  0  0
 26 20  1  0  0  0  0
 27 28  1  0  0  0  0
 30 29  1  1  0  0  0
 30 34  1  0  0  0  0
 32 31  1  0  0  0  0
 33 28  1  6  0  0  0
 33 30  1  0  0  0  0
 33 32  1  0  0  0  0
 34 31  1  0  0  0  0
M  END
>  <MODEL>
1

>  <REMARK>
 VINA RESULT:      -7.9      0.000      0.000
  Name = 
  4 active torsions:
  status: ('A' for Active; 'I' for Inactive)
    1  A    between atoms: N_3  and  C_13
    2  A    between atoms: N_3  and  C_29
    3  A    between atoms: C_12  and  C_28
    4  A    between atoms: C_13  and  C_33
                            x       y       z     vdW  Elec       q    Type
                         _______ _______ _______ _____ _____    ______ ____

>  <TORSDO>
F 4

$$$$
=
 OpenBabel10272400083D

 34 39  0  0  1  0  0  0  0  0999 V2000
  189.4940  175.6120  135.4400 C   0  0  0  0  0  0  0  0  0  0  0  0
  188.3460  173.7390  136.4840 C   0  0  0  0  0  0  0  0  0  0  0  0
  188.3220  175.9920  137.6530 C   0  0  1  0  0  3  0  0  0  0  0  0
  186.5730  177.7720  138.1130 C   0  0  0  0  0  0  0  0  0  0  0  0
  189.4510  173.4520  134.3460 C   0  0  0  0  0  3  0  0  0  0  0  0
  188.7030  172.9270  135.4030 C   0  0  0  0  0  3  0  0  0  0  0  0
  185.8960  175.7800  136.9100 C   0  0  0  0  0  3  0  0  0  0  0  0
  188.7280  175.0920  136.5040 C   0  0  0  0  0  0  0  0  0  0  0  0
  184.5880  176.2630  136.8460 C   0  0  0  0  0  3  0  0  0  0  0  0
  185.2630  178.2530  138.0410 C   0  0  0  0  0  3  0  0  0  0  0  0
  189.8520  174.7890  134.3690 C   0  0  0  0  0  3  0  0  0  0  0  0
  189.3630  177.1150  137.8580 C   0  0  2  0  0  3  0  0  0  0  0  0
  189.9790  176.9570  135.4890 N   0  0  0  0  0  2  0  0  0  0  0  0
  187.6140  173.1930  137.5320 O   0  0  0  0  0  1  0  0  0  0  0  0
  187.5730  178.5610  138.7670 N   0  0  0  0  0  2  0  0  0  0  0  0
  188.9400  178.0820  138.9690 C   0  0  1  0  0  3  0  0  0  0  0  0
  184.2670  177.5060  137.4070 C   0  0  0  0  0  0  0  0  0  0  0  0
  186.9090  176.5360  137.5230 C   0  0  0  0  0  0  0  0  0  0  0  0
  189.5840  177.8780  136.5500 C   0  0  0  0  0  2  0  0  0  0  0  0
  188.3260  177.0360  142.5780 C   0  0  0  0  0  0  0  0  0  0  0  0
  189.4830  176.2920  142.8140 C   0  0  0  0  0  3  0  0  0  0  0  0
  189.1100  177.4790  140.3310 C   0  0  0  0  0  0  0  0  0  0  0  0
  190.4150  176.1510  141.8330 N   0  0  0  0  0  0  0  0  0  0  0  0
  188.1390  177.6300  141.3300 C   0  0  0  0  0  3  0  0  0  0  0  0
  190.2510  176.7220  140.6080 C   0  0  0  0  0  3  0  0  0  0  0  0
  187.3020  177.1910  143.6430 C   0  0  0  0  0  1  0  0  0  0  0  0
  182.9360  178.0240  137.3510 N   0  0  0  0  0  2  0  0  0  0  0  0
  182.3560  178.8290  138.4160 C   0  0  0  0  0  2  0  0  0  0  0  0
  181.4050  175.6240  139.5590 C   0  0  0  0  0  1  0  0  0  0  0  0
  180.9540  177.0700  139.4890 C   0  0  2  0  0  3  0  0  0  0  0  0
  180.7940  178.1820  141.6140 N   0  0  0  0  0  2  0  0  0  0  0  0
  181.8100  178.8660  140.8300 C   0  0  0  0  0  2  0  0  0  0  0  0
  182.1490  177.9770  139.6560 C   0  0  2  0  0  3  0  0  0  0  0  0
  180.0460  177.3760  140.6630 C   0  0  0  0  0  2  0  0  0  0  0  0
  1 13  1  0  0  0  0
  1  8  1  0  0  0  0
  2  8  2  0  0  0  0
  2 14  1  0  0  0  0
  3  8  1  6  0  0  0
  3 12  1  0  0  0  0
  4 15  1  0  0  0  0
  5 11  1  0  0  0  0
  5  6  2  0  0  0  0
  6  2  1  0  0  0  0
  7 18  1  0  0  0  0
  9  7  2  0  0  0  0
  9 17  1  0  0  0  0
 10  4  1  0  0  0  0
 11  1  2  0  0  0  0
 12 19  1  6  0  0  0
 12 16  1  0  0  0  0
 13 19  1  0  0  0  0
 15 16  1  0  0  0  0
 16 22  1  1  0  0  0
 17 10  2  0  0  0  0
 18  3  1  0  0  0  0
 18  4  2  0  0  0  0
 20 21  1  0  0  0  0
 20 26  1  0  0  0  0
 22 25  2  0  0  0  0
 22 24  1  0  0  0  0
 23 21  2  0  0  0  0
 24 20  2  0  0  0  0
 25 23  1  0  0  0  0
 27 17  1  0  0  0  0
 27 28  1  0  0  0  0
 30 29  1  1  0  0  0
 30 33  1  0  0  0  0
 30 34  1  0  0  0  0
 32 31  1  0  0  0  0
 33 28  1  6  0  0  0
 33 32  1  0  0  0  0
 34 31  1  0  0  0  0
M  END
>  <MODEL>
2

>  <REMARK>
 VINA RESULT:      -7.2      3.064      7.419
  Name = 
  4 active torsions:
  status: ('A' for Active; 'I' for Inactive)
    1  A    between atoms: N_3  and  C_13
    2  A    between atoms: N_3  and  C_29
    3  A    between atoms: C_12  and  C_28
    4  A    between atoms: C_13  and  C_33
                            x       y       z     vdW  Elec       q    Type
                         _______ _______ _______ _____ _____    ______ ____

>  <TORSDO>
F 4

$$$$
=
 OpenBabel10272400083D

 34 39  0  0  1  0  0  0  0  0999 V2000
  183.7480  174.8590  136.3540 C   0  0  0  0  0  0  0  0  0  0  0  0
  185.3590  176.4100  135.3960 C   0  0  0  0  0  0  0  0  0  0  0  0
  183.4140  177.3410  136.7340 C   0  0  1  0  0  3  0  0  0  0  0  0
  183.1450  178.4680  138.9910 C   0  0  0  0  0  0  0  0  0  0  0  0
  185.6460  174.0210  135.1050 C   0  0  0  0  0  3  0  0  0  0  0  0
  186.0850  175.3290  134.8850 C   0  0  0  0  0  3  0  0  0  0  0  0
  185.3720  177.8190  138.2890 C   0  0  0  0  0  3  0  0  0  0  0  0
  184.1920  176.1820  136.1460 C   0  0  0  0  0  0  0  0  0  0  0  0
  185.8980  178.3430  139.4700 C   0  0  0  0  0  3  0  0  0  0  0  0
  183.6770  178.9870  140.1750 C   0  0  0  0  0  3  0  0  0  0  0  0
  184.4760  173.7870  135.8310 C   0  0  0  0  0  3  0  0  0  0  0  0
  181.9150  176.9840  136.8560 C   0  0  2  0  0  3  0  0  0  0  0  0
  182.5110  174.6100  137.0270 N   0  0  0  0  0  2  0  0  0  0  0  0
  185.8050  177.7040  135.1530 O   0  0  0  0  0  1  0  0  0  0  0  0
  181.7340  178.5440  138.7670 N   0  0  0  0  0  2  0  0  0  0  0  0
  181.1160  178.1140  137.5130 C   0  0  1  0  0  3  0  0  0  0  0  0
  185.0510  178.9260  140.4230 C   0  0  0  0  0  0  0  0  0  0  0  0
  183.9900  177.8530  138.0440 C   0  0  0  0  0  0  0  0  0  0  0  0
  181.7420  175.6850  137.6470 C   0  0  0  0  0  2  0  0  0  0  0  0
  180.6920  181.6410  136.1450 C   0  0  0  0  0  0  0  0  0  0  0  0
  180.5730  181.3600  134.7830 C   0  0  0  0  0  3  0  0  0  0  0  0
  180.9110  179.2700  136.5820 C   0  0  0  0  0  0  0  0  0  0  0  0
  180.6260  180.0720  134.3460 N   0  0  0  0  0  0  0  0  0  0  0  0
  180.8630  180.5910  137.0470 C   0  0  0  0  0  3  0  0  0  0  0  0
  180.7940  179.0330  135.2100 C   0  0  0  0  0  3  0  0  0  0  0  0
  180.6390  183.0440  136.6300 C   0  0  0  0  0  1  0  0  0  0  0  0
  185.5650  179.4660  141.6410 N   0  0  0  0  0  2  0  0  0  0  0  0
  186.4340  178.7150  142.5350 C   0  0  0  0  0  2  0  0  0  0  0  0
  183.4640  179.0980  144.4100 C   0  0  0  0  0  1  0  0  0  0  0  0
  184.9720  179.2490  144.4810 C   0  0  2  0  0  3  0  0  0  0  0  0
  186.0680  177.7420  146.0000 N   0  0  0  0  0  2  0  0  0  0  0  0
  186.5480  177.4490  144.6590 C   0  0  0  0  0  2  0  0  0  0  0  0
  185.6250  178.1440  143.6850 C   0  0  2  0  0  3  0  0  0  0  0  0
  185.4350  179.0490  145.9090 C   0  0  0  0  0  2  0  0  0  0  0  0
  1 13  1  0  0  0  0
  2  8  2  0  0  0  0
  3  8  1  1  0  0  0
  3 12  1  0  0  0  0
  3 18  1  0  0  0  0
  4 10  1  0  0  0  0
  5 11  1  0  0  0  0
  6  5  2  0  0  0  0
  6  2  1  0  0  0  0
  7  9  2  0  0  0  0
  8  1  1  0  0  0  0
  9 17  1  0  0  0  0
 10 17  2  0  0  0  0
 11  1  2  0  0  0  0
 12 16  1  0  0  0  0
 12 19  1  1  0  0  0
 13 19  1  0  0  0  0
 14  2  1  0  0  0  0
 15  4  1  0  0  0  0
 16 22  1  6  0  0  0
 16 15  1  0  0  0  0
 17 27  1  0  0  0  0
 18  7  1  0  0  0  0
 18  4  2  0  0  0  0
 20 26  1  0  0  0  0
 20 24  1  0  0  0  0
 21 20  2  0  0  0  0
 22 24  2  0  0  0  0
 23 21  1  0  0  0  0
 23 25  2  0  0  0  0
 25 22  1  0  0  0  0
 27 28  1  0  0  0  0
 30 29  1  1  0  0  0
 30 34  1  0  0  0  0
 32 31  1  0  0  0  0
 33 28  1  6  0  0  0
 33 30  1  0  0  0  0
 33 32  1  0  0  0  0
 34 31  1  0  0  0  0
M  END
>  <MODEL>
3

>  <REMARK>
 VINA RESULT:      -7.1      1.672      2.488
  Name = 
  4 active torsions:
  status: ('A' for Active; 'I' for Inactive)
    1  A    between atoms: N_3  and  C_13
    2  A    between atoms: N_3  and  C_29
    3  A    between atoms: C_12  and  C_28
    4  A    between atoms: C_13  and  C_33
                            x       y       z     vdW  Elec       q    Type
                         _______ _______ _______ _____ _____    ______ ____

>  <TORSDO>
F 4

$$$$
=
 OpenBabel10272400083D

 34 39  0  0  1  0  0  0  0  0999 V2000
  189.9020  175.8000  135.0440 C   0  0  0  0  0  0  0  0  0  0  0  0
  189.0350  174.0790  136.5280 C   0  0  0  0  0  0  0  0  0  0  0  0
  191.3830  174.9580  136.9190 C   0  0  1  0  0  3  0  0  0  0  0  0
  192.5050  176.4020  138.6790 C   0  0  0  0  0  0  0  0  0  0  0  0
  187.6530  174.9560  134.7410 C   0  0  0  0  0  3  0  0  0  0  0  0
  187.8250  174.0950  135.8280 C   0  0  0  0  0  3  0  0  0  0  0  0
  190.1430  175.9150  138.9260 C   0  0  0  0  0  3  0  0  0  0  0  0
  190.0790  174.9410  136.1500 C   0  0  0  0  0  0  0  0  0  0  0  0
  190.1170  176.6460  140.1150 C   0  0  0  0  0  3  0  0  0  0  0  0
  192.4710  177.1370  139.8670 C   0  0  0  0  0  3  0  0  0  0  0  0
  188.6920  175.8010  134.3460 C   0  0  0  0  0  3  0  0  0  0  0  0
  192.5540  175.3650  135.9960 C   0  0  2  0  0  3  0  0  0  0  0  0
  190.9850  176.6110  134.5810 N   0  0  0  0  0  2  0  0  0  0  0  0
  189.1900  173.2030  137.5960 O   0  0  0  0  0  1  0  0  0  0  0  0
  193.7380  176.2900  137.9610 N   0  0  0  0  0  2  0  0  0  0  0  0
  193.8750  175.4590  136.7660 C   0  0  1  0  0  3  0  0  0  0  0  0
  191.2810  177.2660  140.5890 C   0  0  0  0  0  0  0  0  0  0  0  0
  191.3290  175.8030  138.1820 C   0  0  0  0  0  0  0  0  0  0  0  0
  192.2480  176.6970  135.3070 C   0  0  0  0  0  2  0  0  0  0  0  0
  195.0090  171.8340  136.5040 C   0  0  0  0  0  0  0  0  0  0  0  0
  195.4960  171.6380  137.7980 C   0  0  0  0  0  3  0  0  0  0  0  0
  194.4240  174.1050  137.1040 C   0  0  0  0  0  0  0  0  0  0  0  0
  195.4450  172.6510  138.7060 N   0  0  0  0  0  0  0  0  0  0  0  0
  194.4730  173.0730  136.1570 C   0  0  0  0  0  3  0  0  0  0  0  0
  194.9260  173.8680  138.3860 C   0  0  0  0  0  3  0  0  0  0  0  0
  195.0650  170.7340  135.5070 C   0  0  0  0  0  1  0  0  0  0  0  0
  191.2780  178.0210  141.8010 N   0  0  0  0  0  2  0  0  0  0  0  0
  191.9470  177.5730  143.0130 C   0  0  0  0  0  2  0  0  0  0  0  0
  188.5600  176.6350  143.3690 C   0  0  0  0  0  1  0  0  0  0  0  0
  189.6180  177.5840  143.8980 C   0  0  2  0  0  3  0  0  0  0  0  0
  190.2500  177.2150  146.1880 N   0  0  0  0  0  2  0  0  0  0  0  0
  191.4240  176.9860  145.3600 C   0  0  0  0  0  2  0  0  0  0  0  0
  190.9540  176.8800  143.9280 C   0  0  2  0  0  3  0  0  0  0  0  0
  189.3110  177.9320  145.3400 C   0  0  0  0  0  2  0  0  0  0  0  0
  1  8  1  0  0  0  0
  2 14  1  0  0  0  0
  3  8  1  6  0  0  0
  3 18  1  0  0  0  0
  4 10  1  0  0  0  0
  5  6  2  0  0  0  0
  6  2  1  0  0  0  0
  7  9  2  0  0  0  0
  8  2  2  0  0  0  0
  9 17  1  0  0  0  0
 10 17  2  0  0  0  0
 11  5  1  0  0  0  0
 11  1  2  0  0  0  0
 12 19  1  1  0  0  0
 12 16  1  0  0  0  0
 12  3  1  0  0  0  0
 13  1  1  0  0  0  0
 13 19  1  0  0  0  0
 15  4  1  0  0  0  0
 16 22  1  1  0  0  0
 16 15  1  0  0  0  0
 17 27  1  0  0  0  0
 18  4  2  0  0  0  0
 18  7  1  0  0  0  0
 20 21  1  0  0  0  0
 21 23  2  0  0  0  0
 22 25  2  0  0  0  0
 24 20  2  0  0  0  0
 24 22  1  0  0  0  0
 25 23  1  0  0  0  0
 26 20  1  0  0  0  0
 27 28  1  0  0  0  0
 30 29  1  1  0  0  0
 30 33  1  0  0  0  0
 30 34  1  0  0  0  0
 32 31  1  0  0  0  0
 33 28  1  6  0  0  0
 33 32  1  0  0  0  0
 34 31  1  0  0  0  0
M  END
>  <MODEL>
4

>  <REMARK>
 VINA RESULT:      -6.7      6.230      9.662
  Name = 
  4 active torsions:
  status: ('A' for Active; 'I' for Inactive)
    1  A    between atoms: N_3  and  C_13
    2  A    between atoms: N_3  and  C_29
    3  A    between atoms: C_12  and  C_28
    4  A    between atoms: C_13  and  C_33
                            x       y       z     vdW  Elec       q    Type
                         _______ _______ _______ _____ _____    ______ ____

>  <TORSDO>
F 4

$$$$
=
 OpenBabel10272400083D

 34 39  0  0  1  0  0  0  0  0999 V2000
  180.7870  175.5990  137.8850 C   0  0  0  0  0  0  0  0  0  0  0  0
  181.8240  175.9450  135.7120 C   0  0  0  0  0  0  0  0  0  0  0  0
  181.8750  177.8350  137.4050 C   0  0  1  0  0  3  0  0  0  0  0  0
  183.6620  178.9450  138.8240 C   0  0  0  0  0  0  0  0  0  0  0  0
  180.8030  173.8140  136.2490 C   0  0  0  0  0  3  0  0  0  0  0  0
  181.4870  174.6370  135.3510 C   0  0  0  0  0  3  0  0  0  0  0  0
  184.3220  177.1350  137.3540 C   0  0  0  0  0  3  0  0  0  0  0  0
  181.4880  176.4320  136.9880 C   0  0  0  0  0  0  0  0  0  0  0  0
  185.6470  177.2830  137.7660 C   0  0  0  0  0  3  0  0  0  0  0  0
  184.9900  179.0850  139.2380 C   0  0  0  0  0  3  0  0  0  0  0  0
  180.4480  174.2960  137.5100 C   0  0  0  0  0  3  0  0  0  0  0  0
  180.8650  178.3950  138.4330 C   0  0  2  0  0  3  0  0  0  0  0  0
  180.3480  176.1070  139.1480 N   0  0  0  0  0  2  0  0  0  0  0  0
  182.4910  176.7530  134.7980 O   0  0  0  0  0  1  0  0  0  0  0  0
  182.6630  179.8070  139.3790 N   0  0  0  0  0  2  0  0  0  0  0  0
  181.2730  179.7880  138.9250 C   0  0  1  0  0  3  0  0  0  0  0  0
  185.9870  178.2560  138.7150 C   0  0  0  0  0  0  0  0  0  0  0  0
  183.3110  177.9460  137.8930 C   0  0  0  0  0  0  0  0  0  0  0  0
  180.7270  177.4360  139.6170 C   0  0  0  0  0  2  0  0  0  0  0  0
  181.1300  183.1330  137.1140 C   0  0  0  0  0  0  0  0  0  0  0  0
  180.5670  182.7290  135.9020 C   0  0  0  0  0  3  0  0  0  0  0  0
  181.0230  180.8430  137.8900 C   0  0  0  0  0  0  0  0  0  0  0  0
  180.2500  181.4210  135.7010 N   0  0  0  0  0  0  0  0  0  0  0  0
  181.3600  182.1850  138.1100 C   0  0  0  0  0  3  0  0  0  0  0  0
  180.4670  180.4800  136.6610 C   0  0  0  0  0  3  0  0  0  0  0  0
  181.4830  184.5590  137.3400 C   0  0  0  0  0  1  0  0  0  0  0  0
  187.3350  178.4250  139.1550 N   0  0  0  0  0  2  0  0  0  0  0  0
  187.7160  178.4140  140.5600 C   0  0  0  0  0  2  0  0  0  0  0  0
  188.9960  176.1660  142.9670 C   0  0  0  0  0  1  0  0  0  0  0  0
  189.3120  177.4410  142.2090 C   0  0  2  0  0  3  0  0  0  0  0  0
  191.1460  177.2680  140.6630 N   0  0  0  0  0  2  0  0  0  0  0  0
  189.9460  177.5700  139.8980 C   0  0  0  0  0  2  0  0  0  0  0  0
  188.7610  177.3400  140.8060 C   0  0  2  0  0  3  0  0  0  0  0  0
  190.8120  177.5750  142.0450 C   0  0  0  0  0  2  0  0  0  0  0  0
  1 13  1  0  0  0  0
  2  8  1  0  0  0  0
  3  8  1  1  0  0  0
  3 18  1  0  0  0  0
  3 12  1  0  0  0  0
  4 10  1  0  0  0  0
  4 15  1  0  0  0  0
  5 11  2  0  0  0  0
  6  2  2  0  0  0  0
  6  5  1  0  0  0  0
  7  9  2  0  0  0  0
  7 18  1  0  0  0  0
  8  1  2  0  0  0  0
  9 17  1  0  0  0  0
 11  1  1  0  0  0  0
 12 16  1  0  0  0  0
 12 19  1  1  0  0  0
 13 19  1  0  0  0  0
 14  2  1  0  0  0  0
 16 22  1  6  0  0  0
 16 15  1  0  0  0  0
 17 27  1  0  0  0  0
 17 10  2  0  0  0  0
 18  4  2  0  0  0  0
 20 26  1  0  0  0  0
 20 24  1  0  0  0  0
 21 20  2  0  0  0  0
 22 24  2  0  0  0  0
 23 21  1  0  0  0  0
 23 25  2  0  0  0  0
 25 22  1  0  0  0  0
 27 28  1  0  0  0  0
 30 29  1  1  0  0  0
 31 34  1  0  0  0  0
 32 31  1  0  0  0  0
 32 33  1  0  0  0  0
 33 28  1  1  0  0  0
 33 30  1  0  0  0  0
 34 30  1  0  0  0  0
M  END
>  <MODEL>
5

>  <REMARK>
 VINA RESULT:      -6.5      3.075      4.325
  Name = 
  4 active torsions:
  status: ('A' for Active; 'I' for Inactive)
    1  A    between atoms: N_3  and  C_13
    2  A    between atoms: N_3  and  C_29
    3  A    between atoms: C_12  and  C_28
    4  A    between atoms: C_13  and  C_33
                            x       y       z     vdW  Elec       q    Type
                         _______ _______ _______ _____ _____    ______ ____

>  <TORSDO>
F 4

$$$$
=
 OpenBabel10272400083D

 34 39  0  0  1  0  0  0  0  0999 V2000
  187.4710  177.1630  135.0540 C   0  0  0  0  0  0  0  0  0  0  0  0
  186.6310  175.3830  136.4830 C   0  0  0  0  0  0  0  0  0  0  0  0
  189.1390  175.6320  136.1890 C   0  0  1  0  0  3  0  0  0  0  0  0
  191.0690  176.3780  137.6590 C   0  0  0  0  0  0  0  0  0  0  0  0
  185.0880  176.9080  135.4030 C   0  0  0  0  0  3  0  0  0  0  0  0
  185.3230  175.8120  136.2360 C   0  0  0  0  0  3  0  0  0  0  0  0
  188.8390  176.3650  138.6080 C   0  0  0  0  0  3  0  0  0  0  0  0
  187.7170  176.0640  135.9040 C   0  0  0  0  0  0  0  0  0  0  0  0
  189.3550  176.8030  139.8280 C   0  0  0  0  0  3  0  0  0  0  0  0
  191.5790  176.8220  138.8820 C   0  0  0  0  0  3  0  0  0  0  0  0
  186.1600  177.5770  134.8070 C   0  0  0  0  0  3  0  0  0  0  0  0
  190.0600  175.9720  134.9950 C   0  0  2  0  0  3  0  0  0  0  0  0
  188.5540  177.8060  134.3750 N   0  0  0  0  0  2  0  0  0  0  0  0
  186.8420  174.2810  137.3030 O   0  0  0  0  0  1  0  0  0  0  0  0
  191.9640  176.1650  136.5630 N   0  0  0  0  0  2  0  0  0  0  0  0
  191.5210  175.6090  135.2860 C   0  0  1  0  0  3  0  0  0  0  0  0
  190.7290  177.0390  139.9690 C   0  0  0  0  0  0  0  0  0  0  0  0
  189.6830  176.1680  137.5030 C   0  0  0  0  0  0  0  0  0  0  0  0
  189.9450  177.4570  134.6430 C   0  0  0  0  0  2  0  0  0  0  0  0
  192.9790  172.1380  135.8510 C   0  0  0  0  0  0  0  0  0  0  0  0
  192.0830  171.3740  135.1000 C   0  0  0  0  0  3  0  0  0  0  0  0
  191.7520  174.1290  135.2260 C   0  0  0  0  0  0  0  0  0  0  0  0
  191.0580  171.9780  134.4420 N   0  0  0  0  0  0  0  0  0  0  0  0
  192.8100  173.5210  135.9140 C   0  0  0  0  0  3  0  0  0  0  0  0
  190.8750  173.3270  134.4920 C   0  0  0  0  0  3  0  0  0  0  0  0
  194.0990  171.4850  136.5750 C   0  0  0  0  0  1  0  0  0  0  0  0
  191.2810  177.4920  141.2070 N   0  0  0  0  0  2  0  0  0  0  0  0
  190.4690  178.0470  142.2790 C   0  0  0  0  0  2  0  0  0  0  0  0
  188.6830  177.2930  145.2320 C   0  0  0  0  0  1  0  0  0  0  0  0
  190.0450  177.7080  144.7110 C   0  0  2  0  0  3  0  0  0  0  0  0
  191.7830  176.0740  145.0110 N   0  0  0  0  0  2  0  0  0  0  0  0
  191.6040  176.2760  143.5820 C   0  0  0  0  0  2  0  0  0  0  0  0
  190.3060  177.0250  143.3900 C   0  0  2  0  0  3  0  0  0  0  0  0
  191.1230  177.2020  145.6480 C   0  0  0  0  0  2  0  0  0  0  0  0
  1  8  1  0  0  0  0
  2 14  1  0  0  0  0
  3  8  1  6  0  0  0
  3 18  1  0  0  0  0
  4 10  1  0  0  0  0
  5  6  2  0  0  0  0
  6  2  1  0  0  0  0
  7  9  2  0  0  0  0
  8  2  2  0  0  0  0
  9 17  1  0  0  0  0
 10 17  2  0  0  0  0
 11  1  2  0  0  0  0
 11  5  1  0  0  0  0
 12 19  1  1  0  0  0
 12 16  1  0  0  0  0
 12  3  1  0  0  0  0
 13 19  1  0  0  0  0
 13  1  1  0  0  0  0
 15  4  1  0  0  0  0
 16 22  1  1  0  0  0
 16 15  1  0  0  0  0
 17 27  1  0  0  0  0
 18  4  2  0  0  0  0
 18  7  1  0  0  0  0
 20 24  1  0  0  0  0
 20 26  1  0  0  0  0
 21 20  2  0  0  0  0
 22 24  2  0  0  0  0
 23 25  2  0  0  0  0
 23 21  1  0  0  0  0
 25 22  1  0  0  0  0
 27 28  1  0  0  0  0
 30 29  1  1  0  0  0
 30 34  1  0  0  0  0
 31 34  1  0  0  0  0
 32 31  1  0  0  0  0
 33 28  1  6  0  0  0
 33 32  1  0  0  0  0
 33 30  1  0  0  0  0
M  END
>  <MODEL>
6

>  <REMARK>
 VINA RESULT:      -6.3      4.773      8.454
  Name = 
  4 active torsions:
  status: ('A' for Active; 'I' for Inactive)
    1  A    between atoms: N_3  and  C_13
    2  A    between atoms: N_3  and  C_29
    3  A    between atoms: C_12  and  C_28
    4  A    between atoms: C_13  and  C_33
                            x       y       z     vdW  Elec       q    Type
                         _______ _______ _______ _____ _____    ______ ____

>  <TORSDO>
F 4

$$$$
=
 OpenBabel10272400083D

 34 39  0  0  1  0  0  0  0  0999 V2000
  187.6640  177.1100  135.0200 C   0  0  0  0  0  0  0  0  0  0  0  0
  186.7300  175.3840  136.4570 C   0  0  0  0  0  0  0  0  0  0  0  0
  189.2530  175.6030  136.2920 C   0  0  1  0  0  3  0  0  0  0  0  0
  191.1070  176.3800  137.8410 C   0  0  0  0  0  0  0  0  0  0  0  0
  185.2640  176.8860  135.2450 C   0  0  0  0  0  3  0  0  0  0  0  0
  185.4420  175.8150  136.1250 C   0  0  0  0  0  3  0  0  0  0  0  0
  188.8290  176.4160  138.6670 C   0  0  0  0  0  3  0  0  0  0  0  0
  187.8520  176.0380  135.9160 C   0  0  0  0  0  0  0  0  0  0  0  0
  189.2830  176.8900  139.8990 C   0  0  0  0  0  3  0  0  0  0  0  0
  191.5550  176.8590  139.0750 C   0  0  0  0  0  3  0  0  0  0  0  0
  186.3720  177.5270  134.6880 C   0  0  0  0  0  3  0  0  0  0  0  0
  190.2410  175.8970  135.1400 C   0  0  2  0  0  3  0  0  0  0  0  0
  188.7890  177.7220  134.3810 N   0  0  0  0  0  2  0  0  0  0  0  0
  186.8850  174.3070  137.3220 O   0  0  0  0  0  1  0  0  0  0  0  0
  192.0590  176.1250  136.8030 N   0  0  0  0  0  2  0  0  0  0  0  0
  191.6800  175.5310  135.5210 C   0  0  1  0  0  3  0  0  0  0  0  0
  190.6490  177.1190  140.1070 C   0  0  0  0  0  0  0  0  0  0  0  0
  189.7300  176.1770  137.6160 C   0  0  0  0  0  0  0  0  0  0  0  0
  190.1600  177.3700  134.7360 C   0  0  0  0  0  2  0  0  0  0  0  0
  191.2230  171.7950  134.9510 C   0  0  0  0  0  0  0  0  0  0  0  0
  192.4010  171.3160  135.5260 C   0  0  0  0  0  3  0  0  0  0  0  0
  191.8990  174.0480  135.5220 C   0  0  0  0  0  0  0  0  0  0  0  0
  193.2930  172.1850  136.0760 N   0  0  0  0  0  0  0  0  0  0  0  0
  190.9730  173.1670  134.9480 C   0  0  0  0  0  3  0  0  0  0  0  0
  193.0680  173.5280  136.0820 C   0  0  0  0  0  3  0  0  0  0  0  0
  190.2460  170.8530  134.3460 C   0  0  0  0  0  1  0  0  0  0  0  0
  191.1380  177.6060  141.3580 N   0  0  0  0  0  2  0  0  0  0  0  0
  190.2600  178.0530  142.4290 C   0  0  0  0  0  2  0  0  0  0  0  0
  188.7620  177.2200  145.5190 C   0  0  0  0  0  1  0  0  0  0  0  0
  190.0650  177.6650  144.8830 C   0  0  2  0  0  3  0  0  0  0  0  0
  191.8440  176.0520  144.9920 N   0  0  0  0  0  2  0  0  0  0  0  0
  191.5330  176.2760  143.5900 C   0  0  0  0  0  2  0  0  0  0  0  0
  190.2130  177.0090  143.5310 C   0  0  2  0  0  3  0  0  0  0  0  0
  191.2310  177.1590  145.7090 C   0  0  0  0  0  2  0  0  0  0  0  0
  1  8  1  0  0  0  0
  2 14  1  0  0  0  0
  3  8  1  6  0  0  0
  3 18  1  0  0  0  0
  4 10  1  0  0  0  0
  5  6  2  0  0  0  0
  6  2  1  0  0  0  0
  7  9  2  0  0  0  0
  8  2  2  0  0  0  0
  9 17  1  0  0  0  0
 10 17  2  0  0  0  0
 11  1  2  0  0  0  0
 11  5  1  0  0  0  0
 12 19  1  1  0  0  0
 12 16  1  0  0  0  0
 12  3  1  0  0  0  0
 13 19  1  0  0  0  0
 13  1  1  0  0  0  0
 15  4  1  0  0  0  0
 16 22  1  1  0  0  0
 16 15  1  0  0  0  0
 17 27  1  0  0  0  0
 18  4  2  0  0  0  0
 18  7  1  0  0  0  0
 20 21  1  0  0  0  0
 21 23  2  0  0  0  0
 22 25  2  0  0  0  0
 23 25  1  0  0  0  0
 24 20  2  0  0  0  0
 24 22  1  0  0  0  0
 26 20  1  0  0  0  0
 27 28  1  0  0  0  0
 30 29  1  1  0  0  0
 30 34  1  0  0  0  0
 31 34  1  0  0  0  0
 32 31  1  0  0  0  0
 33 28  1  6  0  0  0
 33 32  1  0  0  0  0
 33 30  1  0  0  0  0
M  END
>  <MODEL>
7

>  <REMARK>
 VINA RESULT:      -6.3      4.868      8.327
  Name = 
  4 active torsions:
  status: ('A' for Active; 'I' for Inactive)
    1  A    between atoms: N_3  and  C_13
    2  A    between atoms: N_3  and  C_29
    3  A    between atoms: C_12  and  C_28
    4  A    between atoms: C_13  and  C_33
                            x       y       z     vdW  Elec       q    Type
                         _______ _______ _______ _____ _____    ______ ____

>  <TORSDO>
F 4

$$$$
=
 OpenBabel10272400083D

 34 39  0  0  1  0  0  0  0  0999 V2000
  181.2030  178.8870  137.7900 C   0  0  0  0  0  0  0  0  0  0  0  0
  182.2390  178.0100  139.8080 C   0  0  0  0  0  0  0  0  0  0  0  0
  182.8050  176.9360  137.5790 C   0  0  1  0  0  3  0  0  0  0  0  0
  184.8480  176.8560  136.0760 C   0  0  0  0  0  0  0  0  0  0  0  0
  180.7300  179.9010  139.9370 C   0  0  0  0  0  3  0  0  0  0  0  0
  181.5760  178.9820  140.5620 C   0  0  0  0  0  3  0  0  0  0  0  0
  184.9960  178.0990  138.1510 C   0  0  0  0  0  3  0  0  0  0  0  0
  182.0680  177.9630  138.4130 C   0  0  0  0  0  0  0  0  0  0  0  0
  186.3260  178.4140  137.8680 C   0  0  0  0  0  3  0  0  0  0  0  0
  186.1780  177.1800  135.7950 C   0  0  0  0  0  3  0  0  0  0  0  0
  180.5380  179.8480  138.5550 C   0  0  0  0  0  3  0  0  0  0  0  0
  181.9940  176.5800  136.3120 C   0  0  2  0  0  3  0  0  0  0  0  0
  180.9360  178.7920  136.3870 N   0  0  0  0  0  2  0  0  0  0  0  0
  183.0640  177.0950  140.4520 O   0  0  0  0  0  1  0  0  0  0  0  0
  184.1110  176.0570  135.1450 N   0  0  0  0  0  2  0  0  0  0  0  0
  182.7500  175.5950  135.4140 C   0  0  1  0  0  3  0  0  0  0  0  0
  186.9220  177.9600  136.6850 C   0  0  0  0  0  0  0  0  0  0  0  0
  184.2340  177.3370  137.2510 C   0  0  0  0  0  0  0  0  0  0  0  0
  181.6490  177.8500  135.5310 C   0  0  0  0  0  2  0  0  0  0  0  0
  181.6110  172.3120  136.9690 C   0  0  0  0  0  0  0  0  0  0  0  0
  182.8190  171.6130  136.9710 C   0  0  0  0  0  3  0  0  0  0  0  0
  182.7470  174.2070  135.9800 C   0  0  0  0  0  0  0  0  0  0  0  0
  183.9470  172.2010  136.4880 N   0  0  0  0  0  0  0  0  0  0  0  0
  181.5760  173.6140  136.4700 C   0  0  0  0  0  3  0  0  0  0  0  0
  183.9340  173.4700  135.9950 C   0  0  0  0  0  3  0  0  0  0  0  0
  180.3740  171.6760  137.4920 C   0  0  0  0  0  1  0  0  0  0  0  0
  188.2800  178.2720  136.3710 N   0  0  0  0  0  2  0  0  0  0  0  0
  189.3150  177.2570  136.2400 C   0  0  0  0  0  2  0  0  0  0  0  0
  189.4160  177.6320  139.7520 C   0  0  0  0  0  1  0  0  0  0  0  0
  190.2740  177.3280  138.5390 C   0  0  2  0  0  3  0  0  0  0  0  0
  191.1730  175.0990  138.4710 N   0  0  0  0  0  2  0  0  0  0  0  0
  190.2920  175.2580  137.3250 C   0  0  0  0  0  2  0  0  0  0  0  0
  189.4760  176.5100  137.5520 C   0  0  2  0  0  3  0  0  0  0  0  0
  191.4370  176.4470  138.9490 C   0  0  0  0  0  2  0  0  0  0  0  0
  1  8  2  0  0  0  0
  1 11  1  0  0  0  0
  2 14  1  0  0  0  0
  2  6  2  0  0  0  0
  3 18  1  6  0  0  0
  3  8  1  0  0  0  0
  4 18  1  0  0  0  0
  5  6  1  0  0  0  0
  8  2  1  0  0  0  0
  9  7  1  0  0  0  0
 10  4  2  0  0  0  0
 10 17  1  0  0  0  0
 11  5  2  0  0  0  0
 12 19  1  6  0  0  0
 12  3  1  0  0  0  0
 13  1  1  0  0  0  0
 15 16  1  0  0  0  0
 15  4  1  0  0  0  0
 16 22  1  1  0  0  0
 16 12  1  0  0  0  0
 17  9  2  0  0  0  0
 18  7  2  0  0  0  0
 19 13  1  0  0  0  0
 20 21  1  0  0  0  0
 20 26  1  0  0  0  0
 22 25  2  0  0  0  0
 22 24  1  0  0  0  0
 23 21  2  0  0  0  0
 24 20  2  0  0  0  0
 25 23  1  0  0  0  0
 27 17  1  0  0  0  0
 28 27  1  0  0  0  0
 30 34  1  0  0  0  0
 30 29  1  1  0  0  0
 31 34  1  0  0  0  0
 32 33  1  0  0  0  0
 32 31  1  0  0  0  0
 33 28  1  6  0  0  0
 33 30  1  0  0  0  0
M  END
>  <MODEL>
8

>  <REMARK>
 VINA RESULT:      -6.2      4.178      6.998
  Name = 
  4 active torsions:
  status: ('A' for Active; 'I' for Inactive)
    1  A    between atoms: N_3  and  C_13
    2  A    between atoms: N_3  and  C_29
    3  A    between atoms: C_12  and  C_28
    4  A    between atoms: C_13  and  C_33
                            x       y       z     vdW  Elec       q    Type
                         _______ _______ _______ _____ _____    ______ ____

>  <TORSDO>
F 4

$$$$
=
 OpenBabel10272400083D

 34 39  0  0  1  0  0  0  0  0999 V2000
  180.7460  179.7920  137.5280 C   0  0  0  0  0  0  0  0  0  0  0  0
  181.3120  178.8320  139.6900 C   0  0  0  0  0  0  0  0  0  0  0  0
  181.9630  177.5710  137.5870 C   0  0  1  0  0  3  0  0  0  0  0  0
  184.1400  177.0460  136.3920 C   0  0  0  0  0  0  0  0  0  0  0  0
  180.1850  180.9740  139.5650 C   0  0  0  0  0  3  0  0  0  0  0  0
  180.7490  179.9450  140.3230 C   0  0  0  0  0  3  0  0  0  0  0  0
  184.2360  178.3350  138.4420 C   0  0  0  0  0  3  0  0  0  0  0  0
  181.3270  178.7540  138.2860 C   0  0  0  0  0  0  0  0  0  0  0  0
  185.6270  178.3860  138.3450 C   0  0  0  0  0  3  0  0  0  0  0  0
  185.5330  177.1060  136.2970 C   0  0  0  0  0  3  0  0  0  0  0  0
  180.1770  180.8940  138.1710 C   0  0  0  0  0  3  0  0  0  0  0  0
  181.2800  177.3130  136.2240 C   0  0  2  0  0  3  0  0  0  0  0  0
  180.6600  179.6830  136.1040 N   0  0  0  0  0  2  0  0  0  0  0  0
  181.8540  177.8120  140.4630 O   0  0  0  0  0  1  0  0  0  0  0  0
  183.3990  176.3550  135.3820 N   0  0  0  0  0  2  0  0  0  0  0  0
  181.9520  176.1650  135.4630 C   0  0  1  0  0  3  0  0  0  0  0  0
  186.2830  177.7750  137.2680 C   0  0  0  0  0  0  0  0  0  0  0  0
  183.4740  177.6860  137.4580 C   0  0  0  0  0  0  0  0  0  0  0  0
  181.2910  178.5870  135.3760 C   0  0  0  0  0  2  0  0  0  0  0  0
  182.2140  172.5930  136.7530 C   0  0  0  0  0  0  0  0  0  0  0  0
  180.9020  172.3960  137.1880 C   0  0  0  0  0  3  0  0  0  0  0  0
  181.6090  174.8290  136.0500 C   0  0  0  0  0  0  0  0  0  0  0  0
  179.9840  173.3900  137.0560 N   0  0  0  0  0  0  0  0  0  0  0  0
  182.5680  173.8160  136.1830 C   0  0  0  0  0  3  0  0  0  0  0  0
  180.3090  174.5920  136.5030 C   0  0  0  0  0  3  0  0  0  0  0  0
  183.2240  171.5130  136.8980 C   0  0  0  0  0  1  0  0  0  0  0  0
  187.7050  177.8170  137.1450 N   0  0  0  0  0  2  0  0  0  0  0  0
  188.5740  178.3470  138.1860 C   0  0  0  0  0  2  0  0  0  0  0  0
  188.6150  177.4800  141.6100 C   0  0  0  0  0  1  0  0  0  0  0  0
  189.5090  177.8340  140.4380 C   0  0  2  0  0  3  0  0  0  0  0  0
  190.9380  176.0540  139.6830 N   0  0  0  0  0  2  0  0  0  0  0  0
  190.0330  176.3900  138.5950 C   0  0  0  0  0  2  0  0  0  0  0  0
  188.9320  177.2490  139.1710 C   0  0  2  0  0  3  0  0  0  0  0  0
  190.8600  177.1710  140.6120 C   0  0  0  0  0  2  0  0  0  0  0  0
  1 11  2  0  0  0  0
  1  8  1  0  0  0  0
  2  6  1  0  0  0  0
  2 14  1  0  0  0  0
  3 18  1  6  0  0  0
  3  8  1  0  0  0  0
  4 18  1  0  0  0  0
  5  6  2  0  0  0  0
  8  2  2  0  0  0  0
  9  7  1  0  0  0  0
 10  4  2  0  0  0  0
 10 17  1  0  0  0  0
 11  5  1  0  0  0  0
 12 19  1  6  0  0  0
 12  3  1  0  0  0  0
 13  1  1  0  0  0  0
 15 16  1  0  0  0  0
 15  4  1  0  0  0  0
 16 22  1  1  0  0  0
 16 12  1  0  0  0  0
 17  9  2  0  0  0  0
 18  7  2  0  0  0  0
 19 13  1  0  0  0  0
 20 26  1  0  0  0  0
 20 21  1  0  0  0  0
 22 24  1  0  0  0  0
 22 25  2  0  0  0  0
 23 21  2  0  0  0  0
 24 20  2  0  0  0  0
 25 23  1  0  0  0  0
 27 17  1  0  0  0  0
 27 28  1  0  0  0  0
 30 34  1  0  0  0  0
 30 29  1  1  0  0  0
 31 34  1  0  0  0  0
 32 33  1  0  0  0  0
 32 31  1  0  0  0  0
 33 28  1  6  0  0  0
 33 30  1  0  0  0  0
M  END
>  <MODEL>
9

>  <REMARK>
 VINA RESULT:      -6.1      3.558      6.504
  Name = 
  4 active torsions:
  status: ('A' for Active; 'I' for Inactive)
    1  A    between atoms: N_3  and  C_13
    2  A    between atoms: N_3  and  C_29
    3  A    between atoms: C_12  and  C_28
    4  A    between atoms: C_13  and  C_33
                            x       y       z     vdW  Elec       q    Type
                         _______ _______ _______ _____ _____    ______ ____

>  <TORSDO>
F 4

$$$$
