=
 OpenBabel10272400413D

 25 27  0  0  1  0  0  0  0  0999 V2000
  187.1900  177.8970  145.8570 C   0  0  0  0  0  0  0  0  0  0  0  0
  188.4770  177.4500  145.4700 C   0  0  0  0  0  0  0  0  0  0  0  0
  187.8420  177.8380  148.1510 C   0  0  0  0  0  3  0  0  0  0  0  0
  189.1170  177.3920  147.8130 C   0  0  0  0  0  3  0  0  0  0  0  0
  190.7370  176.7560  146.0990 C   0  0  0  0  0  0  0  0  0  0  0  0
  191.7940  176.4710  147.1150 C   0  0  0  0  0  1  0  0  0  0  0  0
  188.8240  177.2800  144.1210 C   0  0  0  0  0  3  0  0  0  0  0  0
  186.9230  178.0780  147.1810 N   0  0  0  0  0  0  0  0  0  0  0  0
  191.0530  176.5880  144.7500 C   0  0  0  0  0  3  0  0  0  0  0  0
  190.1010  176.8440  143.7620 C   0  0  0  0  0  0  0  0  0  0  0  0
  189.4490  177.1940  146.4700 C   0  0  0  0  0  0  0  0  0  0  0  0
  186.1080  178.1660  144.8760 C   0  0  0  0  0  0  0  0  0  0  0  0
  184.0640  178.5930  143.0320 C   0  0  0  0  0  3  0  0  0  0  0  0
  184.8190  178.5700  145.2870 C   0  0  0  0  0  0  0  0  0  0  0  0
  183.8440  178.7750  144.3600 N   0  0  0  0  0  0  0  0  0  0  0  0
  185.3180  178.1860  142.5800 C   0  0  0  0  0  3  0  0  0  0  0  0
  184.5270  178.8010  146.6620 N   0  0  0  0  0  1  0  0  0  0  0  0
  186.3360  177.9710  143.5070 C   0  0  0  0  0  3  0  0  0  0  0  0
  190.4550  176.6830  142.3250 C   0  0  0  0  0  2  0  0  0  0  0  0
  189.5370  177.5330  141.4630 C   0  0  0  0  0  2  0  0  0  0  0  0
  189.5860  177.0720  140.0450 C   0  0  0  0  0  0  0  0  0  0  0  0
  190.4090  176.2360  139.7010 O   0  0  0  0  0  0  0  0  0  0  0  0
  188.6120  177.6290  139.0570 C   0  0  2  0  0  3  0  0  0  0  0  0
  189.3390  178.3590  137.9430 C   0  0  0  0  0  1  0  0  0  0  0  0
  187.7320  178.5030  139.6950 O   0  0  0  0  0  1  0  0  0  0  0  0
  1  8  1  0  0  0  0
  2  1  2  0  0  0  0
  2 11  1  0  0  0  0
  4  3  1  0  0  0  0
  5 11  1  0  0  0  0
  5  6  1  0  0  0  0
  7  2  1  0  0  0  0
  8  3  2  0  0  0  0
  9  5  2  0  0  0  0
 10  7  2  0  0  0  0
 10  9  1  0  0  0  0
 11  4  2  0  0  0  0
 12 14  1  0  0  0  0
 12  1  1  0  0  0  0
 13 15  1  0  0  0  0
 14 17  1  0  0  0  0
 15 14  2  0  0  0  0
 16 13  2  0  0  0  0
 16 18  1  0  0  0  0
 18 12  2  0  0  0  0
 19 10  1  0  0  0  0
 20 19  1  0  0  0  0
 21 20  1  0  0  0  0
 22 21  2  0  0  0  0
 23 24  1  6  0  0  0
 23 25  1  0  0  0  0
 23 21  1  0  0  0  0
M  END
>  <MODEL>
1

>  <REMARK>
 VINA RESULT:      -9.9      0.000      0.000
  Name = 
  5 active torsions:
  status: ('A' for Active; 'I' for Inactive)
    1  A    between atoms: C_1  and  C_5
    2  A    between atoms: C_2  and  C_21
    3  A    between atoms: C_6  and  C_15
    4  A    between atoms: C_6  and  C_23
    5  A    between atoms: C_15  and  C_21
                            x       y       z     vdW  Elec       q    Type
                         _______ _______ _______ _____ _____    ______ ____

>  <TORSDO>
F 5

$$$$
=
 OpenBabel10272400413D

 25 27  0  0  1  0  0  0  0  0999 V2000
  189.6340  177.2830  144.5350 C   0  0  0  0  0  0  0  0  0  0  0  0
  188.5720  177.6260  145.4060 C   0  0  0  0  0  0  0  0  0  0  0  0
  191.0720  176.9190  146.4040 C   0  0  0  0  0  3  0  0  0  0  0  0
  190.0560  177.2550  147.2950 C   0  0  0  0  0  3  0  0  0  0  0  0
  187.7440  177.9420  147.6870 C   0  0  0  0  0  0  0  0  0  0  0  0
  187.9300  177.9430  149.1690 C   0  0  0  0  0  1  0  0  0  0  0  0
  187.2970  177.9530  144.9220 C   0  0  0  0  0  3  0  0  0  0  0  0
  190.8420  176.9390  145.0670 N   0  0  0  0  0  0  0  0  0  0  0  0
  186.4870  178.2720  147.1760 C   0  0  0  0  0  3  0  0  0  0  0  0
  186.2630  178.2820  145.7990 C   0  0  0  0  0  0  0  0  0  0  0  0
  188.7950  177.6110  146.8070 C   0  0  0  0  0  0  0  0  0  0  0  0
  189.4940  177.2950  143.0570 C   0  0  0  0  0  0  0  0  0  0  0  0
  189.2910  177.3670  140.2800 C   0  0  0  0  0  3  0  0  0  0  0  0
  189.9980  176.2490  142.2550 C   0  0  0  0  0  0  0  0  0  0  0  0
  189.8780  176.3120  140.9010 N   0  0  0  0  0  0  0  0  0  0  0  0
  188.7860  178.4280  141.0290 C   0  0  0  0  0  3  0  0  0  0  0  0
  190.6050  175.1010  142.8430 N   0  0  0  0  0  1  0  0  0  0  0  0
  188.8920  178.3890  142.4180 C   0  0  0  0  0  3  0  0  0  0  0  0
  184.9120  178.6130  145.2660 C   0  0  0  0  0  2  0  0  0  0  0  0
  185.0190  179.0650  143.8200 C   0  0  0  0  0  2  0  0  0  0  0  0
  183.7620  178.7390  143.0830 C   0  0  0  0  0  0  0  0  0  0  0  0
  182.6840  178.8050  143.6540 O   0  0  0  0  0  0  0  0  0  0  0  0
  183.8370  178.3480  141.6420 C   0  0  2  0  0  3  0  0  0  0  0  0
  185.0830  178.9230  140.9950 C   0  0  0  0  0  1  0  0  0  0  0  0
  182.7050  178.8020  140.9650 O   0  0  0  0  0  1  0  0  0  0  0  0
  1  8  2  0  0  0  0
  1  2  1  0  0  0  0
  2 11  1  0  0  0  0
  3  4  2  0  0  0  0
  5  6  1  0  0  0  0
  7  2  2  0  0  0  0
  7 10  1  0  0  0  0
  8  3  1  0  0  0  0
  9  5  1  0  0  0  0
 10  9  2  0  0  0  0
 11  4  1  0  0  0  0
 11  5  2  0  0  0  0
 12  1  1  0  0  0  0
 13 15  2  0  0  0  0
 13 16  1  0  0  0  0
 14 17  1  0  0  0  0
 14 12  2  0  0  0  0
 15 14  1  0  0  0  0
 16 18  2  0  0  0  0
 18 12  1  0  0  0  0
 19 10  1  0  0  0  0
 20 19  1  0  0  0  0
 21 22  2  0  0  0  0
 21 20  1  0  0  0  0
 23 24  1  6  0  0  0
 23 21  1  0  0  0  0
 25 23  1  0  0  0  0
M  END
>  <MODEL>
2

>  <REMARK>
 VINA RESULT:      -9.9      3.100      5.111
  Name = 
  5 active torsions:
  status: ('A' for Active; 'I' for Inactive)
    1  A    between atoms: C_1  and  C_5
    2  A    between atoms: C_2  and  C_21
    3  A    between atoms: C_6  and  C_15
    4  A    between atoms: C_6  and  C_23
    5  A    between atoms: C_15  and  C_21
                            x       y       z     vdW  Elec       q    Type
                         _______ _______ _______ _____ _____    ______ ____

>  <TORSDO>
F 5

$$$$
=
 OpenBabel10272400413D

 25 27  0  0  1  0  0  0  0  0999 V2000
  190.4720  177.0370  144.7680 C   0  0  0  0  0  0  0  0  0  0  0  0
  189.2920  177.4240  145.4490 C   0  0  0  0  0  0  0  0  0  0  0  0
  191.5640  176.6360  146.8510 C   0  0  0  0  0  3  0  0  0  0  0  0
  190.4270  177.0140  147.5590 C   0  0  0  0  0  3  0  0  0  0  0  0
  188.1080  177.7850  147.5600 C   0  0  0  0  0  0  0  0  0  0  0  0
  188.0450  177.7900  149.0520 C   0  0  0  0  0  1  0  0  0  0  0  0
  188.1280  177.7920  144.7590 C   0  0  0  0  0  3  0  0  0  0  0  0
  191.5610  176.6550  145.4930 N   0  0  0  0  0  0  0  0  0  0  0  0
  186.9670  178.1550  146.8470 C   0  0  0  0  0  3  0  0  0  0  0  0
  186.9750  178.1630  145.4520 C   0  0  0  0  0  0  0  0  0  0  0  0
  189.2780  177.4110  146.8670 C   0  0  0  0  0  0  0  0  0  0  0  0
  190.5790  177.0440  143.2870 C   0  0  0  0  0  0  0  0  0  0  0  0
  190.8440  177.0090  140.5140 C   0  0  0  0  0  3  0  0  0  0  0  0
  189.7620  176.2230  142.4800 C   0  0  0  0  0  0  0  0  0  0  0  0
  189.9130  176.2330  141.1280 N   0  0  0  0  0  0  0  0  0  0  0  0
  191.6800  177.8300  141.2690 C   0  0  0  0  0  3  0  0  0  0  0  0
  188.7500  175.4020  143.0580 N   0  0  0  0  0  1  0  0  0  0  0  0
  191.5450  177.8410  142.6570 C   0  0  0  0  0  3  0  0  0  0  0  0
  185.7440  178.5380  144.7010 C   0  0  0  0  0  2  0  0  0  0  0  0
  185.6470  177.7250  143.4210 C   0  0  0  0  0  2  0  0  0  0  0  0
  184.9940  178.5290  142.3470 C   0  0  0  0  0  0  0  0  0  0  0  0
  183.9580  179.1350  142.5800 O   0  0  0  0  0  0  0  0  0  0  0  0
  185.6250  178.5960  140.9930 C   0  0  2  0  0  3  0  0  0  0  0  0
  187.1320  178.7270  141.1120 C   0  0  0  0  0  1  0  0  0  0  0  0
  185.1130  179.6800  140.2810 O   0  0  0  0  0  1  0  0  0  0  0  0
  1  2  2  0  0  0  0
  1  8  1  0  0  0  0
  2 11  1  0  0  0  0
  3  4  1  0  0  0  0
  5  6  1  0  0  0  0
  7  2  1  0  0  0  0
  7 10  2  0  0  0  0
  8  3  2  0  0  0  0
  9  5  2  0  0  0  0
 10  9  1  0  0  0  0
 11  4  2  0  0  0  0
 11  5  1  0  0  0  0
 12  1  1  0  0  0  0
 13 15  2  0  0  0  0
 13 16  1  0  0  0  0
 14 17  1  0  0  0  0
 14 12  2  0  0  0  0
 15 14  1  0  0  0  0
 16 18  2  0  0  0  0
 18 12  1  0  0  0  0
 19 10  1  0  0  0  0
 20 19  1  0  0  0  0
 21 22  2  0  0  0  0
 21 20  1  0  0  0  0
 23 24  1  1  0  0  0
 23 21  1  0  0  0  0
 25 23  1  0  0  0  0
M  END
>  <MODEL>
3

>  <REMARK>
 VINA RESULT:      -9.9      2.743      4.836
  Name = 
  5 active torsions:
  status: ('A' for Active; 'I' for Inactive)
    1  A    between atoms: C_1  and  C_5
    2  A    between atoms: C_2  and  C_21
    3  A    between atoms: C_6  and  C_15
    4  A    between atoms: C_6  and  C_23
    5  A    between atoms: C_15  and  C_21
                            x       y       z     vdW  Elec       q    Type
                         _______ _______ _______ _____ _____    ______ ____

>  <TORSDO>
F 5

$$$$
=
 OpenBabel10272400413D

 25 27  0  0  1  0  0  0  0  0999 V2000
  187.6620  178.0140  142.8800 C   0  0  0  0  0  0  0  0  0  0  0  0
  186.9020  178.1480  144.0670 C   0  0  0  0  0  0  0  0  0  0  0  0
  185.7590  178.6150  141.5740 C   0  0  0  0  0  3  0  0  0  0  0  0
  184.9750  178.7510  142.7160 C   0  0  0  0  0  3  0  0  0  0  0  0
  184.7690  178.6660  145.1490 C   0  0  0  0  0  0  0  0  0  0  0  0
  183.3280  179.0550  145.1030 C   0  0  0  0  0  1  0  0  0  0  0  0
  187.4700  177.9480  145.3340 C   0  0  0  0  0  3  0  0  0  0  0  0
  187.0640  178.2570  141.6800 N   0  0  0  0  0  0  0  0  0  0  0  0
  185.3590  178.4530  146.3960 C   0  0  0  0  0  3  0  0  0  0  0  0
  186.7040  178.0920  146.4910 C   0  0  0  0  0  0  0  0  0  0  0  0
  185.5370  178.5210  143.9750 C   0  0  0  0  0  0  0  0  0  0  0  0
  189.0900  177.6060  142.8860 C   0  0  0  0  0  0  0  0  0  0  0  0
  191.7730  176.8610  142.9720 C   0  0  0  0  0  3  0  0  0  0  0  0
  189.4740  176.2540  143.0130 C   0  0  0  0  0  0  0  0  0  0  0  0
  190.7930  175.9230  143.0470 N   0  0  0  0  0  0  0  0  0  0  0  0
  191.4420  178.2090  142.8540 C   0  0  0  0  0  3  0  0  0  0  0  0
  188.4980  175.2170  143.0730 N   0  0  0  0  0  1  0  0  0  0  0  0
  190.0980  178.5770  142.8150 C   0  0  0  0  0  3  0  0  0  0  0  0
  187.3280  177.8890  147.8280 C   0  0  0  0  0  2  0  0  0  0  0  0
  188.3460  176.7630  147.7620 C   0  0  0  0  0  2  0  0  0  0  0  0
  189.7310  177.3170  147.7550 C   0  0  0  0  0  0  0  0  0  0  0  0
  190.0310  178.2260  148.5150 O   0  0  0  0  0  0  0  0  0  0  0  0
  190.7480  176.7420  146.8210 C   0  0  2  0  0  3  0  0  0  0  0  0
  191.7160  175.8460  147.5720 C   0  0  0  0  0  1  0  0  0  0  0  0
  191.4500  177.7680  146.1900 O   0  0  0  0  0  1  0  0  0  0  0  0
  1 12  1  0  0  0  0
  1  2  1  0  0  0  0
  2  7  1  0  0  0  0
  3  8  1  0  0  0  0
  3  4  2  0  0  0  0
  4 11  1  0  0  0  0
  5  9  2  0  0  0  0
  6  5  1  0  0  0  0
  7 10  2  0  0  0  0
  8  1  2  0  0  0  0
  9 10  1  0  0  0  0
 10 19  1  0  0  0  0
 11  2  2  0  0  0  0
 11  5  1  0  0  0  0
 12 14  1  0  0  0  0
 13 15  1  0  0  0  0
 14 15  2  0  0  0  0
 14 17  1  0  0  0  0
 16 13  2  0  0  0  0
 18 16  1  0  0  0  0
 18 12  2  0  0  0  0
 20 19  1  0  0  0  0
 21 20  1  0  0  0  0
 21 22  2  0  0  0  0
 23 24  1  1  0  0  0
 23 21  1  0  0  0  0
 25 23  1  0  0  0  0
M  END
>  <MODEL>
4

>  <REMARK>
 VINA RESULT:      -9.7      3.137      6.505
  Name = 
  5 active torsions:
  status: ('A' for Active; 'I' for Inactive)
    1  A    between atoms: C_1  and  C_5
    2  A    between atoms: C_2  and  C_21
    3  A    between atoms: C_6  and  C_15
    4  A    between atoms: C_6  and  C_23
    5  A    between atoms: C_15  and  C_21
                            x       y       z     vdW  Elec       q    Type
                         _______ _______ _______ _____ _____    ______ ____

>  <TORSDO>
F 5

$$$$
=
 OpenBabel10272400413D

 25 27  0  0  1  0  0  0  0  0999 V2000
  186.9820  178.3100  141.3350 C   0  0  0  0  0  0  0  0  0  0  0  0
  186.4960  178.2560  142.6640 C   0  0  0  0  0  0  0  0  0  0  0  0
  184.8440  179.0350  140.5650 C   0  0  0  0  0  3  0  0  0  0  0  0
  184.3250  178.9900  141.8560 C   0  0  0  0  0  3  0  0  0  0  0  0
  184.6490  178.5600  144.2390 C   0  0  0  0  0  0  0  0  0  0  0  0
  183.2330  178.9110  144.5580 C   0  0  0  0  0  1  0  0  0  0  0  0
  187.3240  177.8960  143.7380 C   0  0  0  0  0  3  0  0  0  0  0  0
  186.1400  178.7010  140.3370 N   0  0  0  0  0  0  0  0  0  0  0  0
  185.4930  178.1900  145.2880 C   0  0  0  0  0  3  0  0  0  0  0  0
  186.8250  177.8560  145.0410 C   0  0  0  0  0  0  0  0  0  0  0  0
  185.1450  178.6010  142.9190 C   0  0  0  0  0  0  0  0  0  0  0  0
  188.3760  177.9430  140.9770 C   0  0  0  0  0  0  0  0  0  0  0  0
  190.9680  177.1800  140.2980 C   0  0  0  0  0  3  0  0  0  0  0  0
  188.8810  178.1330  139.6720 C   0  0  0  0  0  0  0  0  0  0  0  0
  190.1530  177.7540  139.3750 N   0  0  0  0  0  0  0  0  0  0  0  0
  190.5110  176.9650  141.5960 C   0  0  0  0  0  3  0  0  0  0  0  0
  188.0880  178.7510  138.6620 N   0  0  0  0  0  1  0  0  0  0  0  0
  189.2120  177.3450  141.9300 C   0  0  0  0  0  3  0  0  0  0  0  0
  187.7220  177.4850  146.1700 C   0  0  0  0  0  2  0  0  0  0  0  0
  189.1350  177.2580  145.6600 C   0  0  0  0  0  2  0  0  0  0  0  0
  190.0900  177.1720  146.8040 C   0  0  0  0  0  0  0  0  0  0  0  0
  189.7200  177.4600  147.9320 O   0  0  0  0  0  0  0  0  0  0  0  0
  191.4930  176.7170  146.5570 C   0  0  2  0  0  3  0  0  0  0  0  0
  191.6850  176.3410  145.1000 C   0  0  0  0  0  1  0  0  0  0  0  0
  191.7880  175.6210  147.3680 O   0  0  0  0  0  1  0  0  0  0  0  0
  1  2  1  0  0  0  0
  2 11  2  0  0  0  0
  2  7  1  0  0  0  0
  3  4  2  0  0  0  0
  4 11  1  0  0  0  0
  5  6  1  0  0  0  0
  5  9  2  0  0  0  0
  7 10  2  0  0  0  0
  8  3  1  0  0  0  0
  8  1  2  0  0  0  0
 10  9  1  0  0  0  0
 10 19  1  0  0  0  0
 11  5  1  0  0  0  0
 12  1  1  0  0  0  0
 12 18  1  0  0  0  0
 13 16  1  0  0  0  0
 14 12  2  0  0  0  0
 15 14  1  0  0  0  0
 15 13  2  0  0  0  0
 16 18  2  0  0  0  0
 17 14  1  0  0  0  0
 20 19  1  0  0  0  0
 20 21  1  0  0  0  0
 21 22  2  0  0  0  0
 23 24  1  6  0  0  0
 23 21  1  0  0  0  0
 23 25  1  0  0  0  0
M  END
>  <MODEL>
5

>  <REMARK>
 VINA RESULT:      -9.7      3.435      6.626
  Name = 
  5 active torsions:
  status: ('A' for Active; 'I' for Inactive)
    1  A    between atoms: C_1  and  C_5
    2  A    between atoms: C_2  and  C_21
    3  A    between atoms: C_6  and  C_15
    4  A    between atoms: C_6  and  C_23
    5  A    between atoms: C_15  and  C_21
                            x       y       z     vdW  Elec       q    Type
                         _______ _______ _______ _____ _____    ______ ____

>  <TORSDO>
F 5

$$$$
=
 OpenBabel10272400413D

 25 27  0  0  1  0  0  0  0  0999 V2000
  188.0290  177.7990  144.8070 C   0  0  0  0  0  0  0  0  0  0  0  0
  186.8240  178.1610  144.1570 C   0  0  0  0  0  0  0  0  0  0  0  0
  186.9030  177.7590  146.9090 C   0  0  0  0  0  3  0  0  0  0  0  0
  185.6990  178.1200  146.3110 C   0  0  0  0  0  3  0  0  0  0  0  0
  184.4350  178.6750  144.2950 C   0  0  0  0  0  0  0  0  0  0  0  0
  183.1690  178.8600  145.0650 C   0  0  0  0  0  1  0  0  0  0  0  0
  186.7580  178.3350  142.7670 C   0  0  0  0  0  3  0  0  0  0  0  0
  188.0220  177.6080  146.1560 N   0  0  0  0  0  0  0  0  0  0  0  0
  184.4010  178.8500  142.9110 C   0  0  0  0  0  3  0  0  0  0  0  0
  185.5580  178.6860  142.1470 C   0  0  0  0  0  0  0  0  0  0  0  0
  185.6450  178.3230  144.9290 C   0  0  0  0  0  0  0  0  0  0  0  0
  189.3120  177.6310  144.0780 C   0  0  0  0  0  0  0  0  0  0  0  0
  191.7530  177.2940  142.7780 C   0  0  0  0  0  3  0  0  0  0  0  0
  189.5820  176.4800  143.3080 C   0  0  0  0  0  0  0  0  0  0  0  0
  190.7820  176.3480  142.6810 N   0  0  0  0  0  0  0  0  0  0  0  0
  191.5350  178.4440  143.5350 C   0  0  0  0  0  3  0  0  0  0  0  0
  188.6000  175.4590  143.1440 N   0  0  0  0  0  1  0  0  0  0  0  0
  190.3130  178.6060  144.1860 C   0  0  0  0  0  3  0  0  0  0  0  0
  185.5050  178.8530  140.6690 C   0  0  0  0  0  2  0  0  0  0  0  0
  184.1050  178.5560  140.1600 C   0  0  0  0  0  2  0  0  0  0  0  0
  183.6530  179.6320  139.2300 C   0  0  0  0  0  0  0  0  0  0  0  0
  184.4130  180.5420  138.9320 O   0  0  0  0  0  0  0  0  0  0  0  0
  182.2720  179.5790  138.6600 C   0  0  2  0  0  3  0  0  0  0  0  0
  181.7420  180.9790  138.4110 C   0  0  0  0  0  1  0  0  0  0  0  0
  181.4210  178.9030  139.5330 O   0  0  0  0  0  1  0  0  0  0  0  0
  1  8  1  0  0  0  0
  2  1  2  0  0  0  0
  2 11  1  0  0  0  0
  4  3  1  0  0  0  0
  5 11  1  0  0  0  0
  5  6  1  0  0  0  0
  7  2  1  0  0  0  0
  8  3  2  0  0  0  0
  9  5  2  0  0  0  0
 10  7  2  0  0  0  0
 10  9  1  0  0  0  0
 11  4  2  0  0  0  0
 12 18  1  0  0  0  0
 12  1  1  0  0  0  0
 13 16  1  0  0  0  0
 14 12  2  0  0  0  0
 15 13  2  0  0  0  0
 15 14  1  0  0  0  0
 16 18  2  0  0  0  0
 17 14  1  0  0  0  0
 19 10  1  0  0  0  0
 20 19  1  0  0  0  0
 21 20  1  0  0  0  0
 22 21  2  0  0  0  0
 23 24  1  1  0  0  0
 23 21  1  0  0  0  0
 23 25  1  0  0  0  0
M  END
>  <MODEL>
6

>  <REMARK>
 VINA RESULT:      -9.7      3.014      5.758
  Name = 
  5 active torsions:
  status: ('A' for Active; 'I' for Inactive)
    1  A    between atoms: C_1  and  C_5
    2  A    between atoms: C_2  and  C_21
    3  A    between atoms: C_6  and  C_15
    4  A    between atoms: C_6  and  C_23
    5  A    between atoms: C_15  and  C_21
                            x       y       z     vdW  Elec       q    Type
                         _______ _______ _______ _____ _____    ______ ____

>  <TORSDO>
F 5

$$$$
=
 OpenBabel10272400413D

 25 27  0  0  1  0  0  0  0  0999 V2000
  187.9620  177.8240  144.8410 C   0  0  0  0  0  0  0  0  0  0  0  0
  186.7950  178.1670  144.1170 C   0  0  0  0  0  0  0  0  0  0  0  0
  186.7240  177.8450  146.8800 C   0  0  0  0  0  3  0  0  0  0  0  0
  185.5550  178.1890  146.2070 C   0  0  0  0  0  3  0  0  0  0  0  0
  184.4040  178.6870  144.1100 C   0  0  0  0  0  0  0  0  0  0  0  0
  183.0980  178.8950  144.8040 C   0  0  0  0  0  1  0  0  0  0  0  0
  186.8060  178.3020  142.7210 C   0  0  0  0  0  3  0  0  0  0  0  0
  187.8820  177.6720  146.1940 N   0  0  0  0  0  0  0  0  0  0  0  0
  184.4460  178.8230  142.7220 C   0  0  0  0  0  3  0  0  0  0  0  0
  185.6420  178.6350  142.0270 C   0  0  0  0  0  0  0  0  0  0  0  0
  185.5770  178.3530  144.8190 C   0  0  0  0  0  0  0  0  0  0  0  0
  189.2830  177.6340  144.1890 C   0  0  0  0  0  0  0  0  0  0  0  0
  191.7880  177.2520  143.0330 C   0  0  0  0  0  3  0  0  0  0  0  0
  189.5650  176.4940  143.4050 C   0  0  0  0  0  0  0  0  0  0  0  0
  190.7980  176.3400  142.8500 N   0  0  0  0  0  0  0  0  0  0  0  0
  191.5590  178.3880  143.8060 C   0  0  0  0  0  3  0  0  0  0  0  0
  188.5650  175.5100  143.1540 N   0  0  0  0  0  1  0  0  0  0  0  0
  190.3040  178.5730  144.3850 C   0  0  0  0  0  3  0  0  0  0  0  0
  185.6700  178.7600  140.5440 C   0  0  0  0  0  2  0  0  0  0  0  0
  187.0350  178.3560  140.0120 C   0  0  0  0  0  2  0  0  0  0  0  0
  187.0350  178.3770  138.5200 C   0  0  0  0  0  0  0  0  0  0  0  0
  185.9880  178.5390  137.9100 O   0  0  0  0  0  0  0  0  0  0  0  0
  188.3260  178.2120  137.7830 C   0  0  2  0  0  3  0  0  0  0  0  0
  189.2050  177.1820  138.4690 C   0  0  0  0  0  1  0  0  0  0  0  0
  188.9960  179.4330  137.7160 O   0  0  0  0  0  1  0  0  0  0  0  0
  1  8  1  0  0  0  0
  2 11  1  0  0  0  0
  2  1  2  0  0  0  0
  4  3  1  0  0  0  0
  5  6  1  0  0  0  0
  5 11  1  0  0  0  0
  7  2  1  0  0  0  0
  8  3  2  0  0  0  0
  9  5  2  0  0  0  0
 10  7  2  0  0  0  0
 10  9  1  0  0  0  0
 11  4  2  0  0  0  0
 12 18  1  0  0  0  0
 12  1  1  0  0  0  0
 13 16  1  0  0  0  0
 14 12  2  0  0  0  0
 15 13  2  0  0  0  0
 15 14  1  0  0  0  0
 16 18  2  0  0  0  0
 17 14  1  0  0  0  0
 19 10  1  0  0  0  0
 20 19  1  0  0  0  0
 21 20  1  0  0  0  0
 22 21  2  0  0  0  0
 23 24  1  1  0  0  0
 23 21  1  0  0  0  0
 25 23  1  0  0  0  0
M  END
>  <MODEL>
7

>  <REMARK>
 VINA RESULT:      -9.6      2.141      4.945
  Name = 
  5 active torsions:
  status: ('A' for Active; 'I' for Inactive)
    1  A    between atoms: C_1  and  C_5
    2  A    between atoms: C_2  and  C_21
    3  A    between atoms: C_6  and  C_15
    4  A    between atoms: C_6  and  C_23
    5  A    between atoms: C_15  and  C_21
                            x       y       z     vdW  Elec       q    Type
                         _______ _______ _______ _____ _____    ______ ____

>  <TORSDO>
F 5

$$$$
=
 OpenBabel10272400413D

 25 27  0  0  1  0  0  0  0  0999 V2000
  184.4600  178.4560  143.0720 C   0  0  0  0  0  0  0  0  0  0  0  0
  185.6350  178.0420  143.7450 C   0  0  0  0  0  0  0  0  0  0  0  0
  183.5050  179.1650  145.1400 C   0  0  0  0  0  3  0  0  0  0  0  0
  184.6400  178.7650  145.8410 C   0  0  0  0  0  3  0  0  0  0  0  0
  186.8840  177.8000  145.8340 C   0  0  0  0  0  0  0  0  0  0  0  0
  187.0180  177.9440  147.3150 C   0  0  0  0  0  1  0  0  0  0  0  0
  186.7310  177.5040  143.0530 C   0  0  0  0  0  3  0  0  0  0  0  0
  183.4420  179.0050  143.7930 N   0  0  0  0  0  0  0  0  0  0  0  0
  187.9560  177.2600  145.1210 C   0  0  0  0  0  3  0  0  0  0  0  0
  187.8810  177.1080  143.7360 C   0  0  0  0  0  0  0  0  0  0  0  0
  185.7170  178.2010  145.1510 C   0  0  0  0  0  0  0  0  0  0  0  0
  184.2820  178.3050  141.6050 C   0  0  0  0  0  0  0  0  0  0  0  0
  183.8840  178.0700  138.8580 C   0  0  0  0  0  3  0  0  0  0  0  0
  185.0570  179.0420  140.6840 C   0  0  0  0  0  0  0  0  0  0  0  0
  184.8410  178.9000  139.3480 N   0  0  0  0  0  0  0  0  0  0  0  0
  183.0880  177.3290  139.7290 C   0  0  0  0  0  3  0  0  0  0  0  0
  186.0930  179.9130  141.1290 N   0  0  0  0  0  1  0  0  0  0  0  0
  183.2890  177.4520  141.1030 C   0  0  0  0  0  3  0  0  0  0  0  0
  189.0390  176.5520  142.9830 C   0  0  0  0  0  2  0  0  0  0  0  0
  189.7540  177.6620  142.2320 C   0  0  0  0  0  2  0  0  0  0  0  0
  191.1970  177.6970  142.6120 C   0  0  0  0  0  0  0  0  0  0  0  0
  192.0300  177.1550  141.9010 O   0  0  0  0  0  0  0  0  0  0  0  0
  191.6110  178.4130  143.8580 C   0  0  2  0  0  3  0  0  0  0  0  0
  191.6030  177.4670  145.0450 C   0  0  0  0  0  1  0  0  0  0  0  0
  190.7500  179.4820  144.1030 O   0  0  0  0  0  1  0  0  0  0  0  0
  1  2  2  0  0  0  0
  1  8  1  0  0  0  0
  2 11  1  0  0  0  0
  3  4  1  0  0  0  0
  5  6  1  0  0  0  0
  7 10  2  0  0  0  0
  7  2  1  0  0  0  0
  8  3  2  0  0  0  0
  9  5  2  0  0  0  0
 10  9  1  0  0  0  0
 11  5  1  0  0  0  0
 11  4  2  0  0  0  0
 12  1  1  0  0  0  0
 13 15  2  0  0  0  0
 13 16  1  0  0  0  0
 14 17  1  0  0  0  0
 14 12  2  0  0  0  0
 15 14  1  0  0  0  0
 16 18  2  0  0  0  0
 18 12  1  0  0  0  0
 19 10  1  0  0  0  0
 20 21  1  0  0  0  0
 20 19  1  0  0  0  0
 21 23  1  0  0  0  0
 22 21  2  0  0  0  0
 23 25  1  0  0  0  0
 23 24  1  1  0  0  0
M  END
>  <MODEL>
8

>  <REMARK>
 VINA RESULT:      -9.5      2.362      4.325
  Name = 
  5 active torsions:
  status: ('A' for Active; 'I' for Inactive)
    1  A    between atoms: C_1  and  C_5
    2  A    between atoms: C_2  and  C_21
    3  A    between atoms: C_6  and  C_15
    4  A    between atoms: C_6  and  C_23
    5  A    between atoms: C_15  and  C_21
                            x       y       z     vdW  Elec       q    Type
                         _______ _______ _______ _____ _____    ______ ____

>  <TORSDO>
F 5

$$$$
=
 OpenBabel10272400413D

 25 27  0  0  1  0  0  0  0  0999 V2000
  188.3960  177.6000  143.5300 C   0  0  0  0  0  0  0  0  0  0  0  0
  187.0810  177.9470  143.9210 C   0  0  0  0  0  0  0  0  0  0  0  0
  189.0390  177.3850  145.8170 C   0  0  0  0  0  3  0  0  0  0  0  0
  187.7600  177.7290  146.2450 C   0  0  0  0  0  3  0  0  0  0  0  0
  185.4580  178.3490  145.7080 C   0  0  0  0  0  0  0  0  0  0  0  0
  185.0780  178.4340  147.1500 C   0  0  0  0  0  1  0  0  0  0  0  0
  186.0730  178.2020  142.9790 C   0  0  0  0  0  3  0  0  0  0  0  0
  189.3240  177.3280  144.4910 N   0  0  0  0  0  0  0  0  0  0  0  0
  184.4770  178.6060  144.7480 C   0  0  0  0  0  3  0  0  0  0  0  0
  184.7820  178.5370  143.3880 C   0  0  0  0  0  0  0  0  0  0  0  0
  186.7660  178.0120  145.3020 C   0  0  0  0  0  0  0  0  0  0  0  0
  188.8160  177.5310  142.1070 C   0  0  0  0  0  0  0  0  0  0  0  0
  189.6480  177.4650  139.4490 C   0  0  0  0  0  3  0  0  0  0  0  0
  189.8210  176.6400  141.6730 C   0  0  0  0  0  0  0  0  0  0  0  0
  190.2010  176.6300  140.3660 N   0  0  0  0  0  0  0  0  0  0  0  0
  188.6580  178.3680  139.8330 C   0  0  0  0  0  3  0  0  0  0  0  0
  190.4270  175.7200  142.5770 N   0  0  0  0  0  1  0  0  0  0  0  0
  188.2480  178.3990  141.1650 C   0  0  0  0  0  3  0  0  0  0  0  0
  183.7220  178.7890  142.3730 C   0  0  0  0  0  2  0  0  0  0  0  0
  183.9340  177.8940  141.1640 C   0  0  0  0  0  2  0  0  0  0  0  0
  183.1990  178.4370  139.9840 C   0  0  0  0  0  0  0  0  0  0  0  0
  181.9770  178.4240  139.9650 O   0  0  0  0  0  0  0  0  0  0  0  0
  183.9710  179.0090  138.8380 C   0  0  2  0  0  3  0  0  0  0  0  0
  185.1210  178.0940  138.4590 C   0  0  0  0  0  1  0  0  0  0  0  0
  184.4640  180.2690  139.1750 O   0  0  0  0  0  1  0  0  0  0  0  0
  1  2  2  0  0  0  0
  1  8  1  0  0  0  0
  2 11  1  0  0  0  0
  3  4  1  0  0  0  0
  5  6  1  0  0  0  0
  7 10  2  0  0  0  0
  7  2  1  0  0  0  0
  8  3  2  0  0  0  0
  9  5  2  0  0  0  0
 10  9  1  0  0  0  0
 11  5  1  0  0  0  0
 11  4  2  0  0  0  0
 12  1  1  0  0  0  0
 13 16  2  0  0  0  0
 13 15  1  0  0  0  0
 14 12  1  0  0  0  0
 14 17  1  0  0  0  0
 15 14  2  0  0  0  0
 16 18  1  0  0  0  0
 18 12  2  0  0  0  0
 19 10  1  0  0  0  0
 20 19  1  0  0  0  0
 21 20  1  0  0  0  0
 22 21  2  0  0  0  0
 23 24  1  1  0  0  0
 23 25  1  0  0  0  0
 23 21  1  0  0  0  0
M  END
>  <MODEL>
9

>  <REMARK>
 VINA RESULT:      -9.4      2.949      5.374
  Name = 
  5 active torsions:
  status: ('A' for Active; 'I' for Inactive)
    1  A    between atoms: C_1  and  C_5
    2  A    between atoms: C_2  and  C_21
    3  A    between atoms: C_6  and  C_15
    4  A    between atoms: C_6  and  C_23
    5  A    between atoms: C_15  and  C_21
                            x       y       z     vdW  Elec       q    Type
                         _______ _______ _______ _____ _____    ______ ____

>  <TORSDO>
F 5

$$$$
