=
 OpenBabel10272400423D

 25 28  0  0  1  0  0  0  0  0999 V2000
  185.7980  178.2230  144.4980 N   0  0  0  0  0  0  0  0  0  0  0  0
  186.8620  177.4200  145.0970 C   0  0  1  0  0  3  0  0  0  0  0  0
  184.9760  178.9250  146.6330 C   0  0  0  0  0  3  0  0  0  0  0  0
  185.1730  177.9650  143.2090 C   0  0  1  0  0  3  0  0  0  0  0  0
  183.6210  178.3440  140.9140 C   0  0  0  0  0  2  0  0  0  0  0  0
  186.2370  178.5310  147.2030 N   0  0  0  0  0  0  0  0  0  0  0  0
  183.8040  178.5690  143.3650 C   0  0  0  0  0  0  0  0  0  0  0  0
  182.9070  178.7910  142.1930 C   0  0  0  0  0  2  0  0  0  0  0  0
  188.4590  177.5840  147.0960 C   0  0  0  0  0  0  0  0  0  0  0  0
  188.6650  177.6400  148.5030 N   0  0  0  0  0  1  0  0  0  0  0  0
  188.1120  177.4230  144.2580 C   0  0  0  0  0  3  0  0  0  0  0  0
  185.0390  178.9340  140.8260 C   0  0  0  0  0  2  0  0  0  0  0  0
  184.7880  178.7770  145.3250 C   0  0  0  0  0  0  0  0  0  0  0  0
  183.5700  179.0410  144.5860 C   0  0  0  0  0  3  0  0  0  0  0  0
  189.4840  177.3130  146.2840 C   0  0  0  0  0  3  0  0  0  0  0  0
  185.9120  178.6840  142.0760 C   0  0  0  0  0  2  0  0  0  0  0  0
  189.3310  177.3120  144.8040 C   0  0  0  0  0  0  0  0  0  0  0  0
  187.1420  177.8890  146.5150 C   0  0  0  0  0  0  0  0  0  0  0  0
  190.4330  177.2380  143.9400 O   0  0  0  0  0  0  0  0  0  0  0  0
  190.5150  176.4660  142.7710 C   0  0  0  0  0  0  0  0  0  0  0  0
  190.4610  175.2070  142.8100 O   0  0  0  0  0  0  0  0  0  0  0  0
  191.8270  177.7610  141.3020 F   0  0  0  0  0  0  0  0  0  0  0  0
  190.5930  177.1540  141.4470 C   0  0  0  0  0  0  0  0  0  0  0  0
  189.6030  178.1150  141.3710 F   0  0  0  0  0  0  0  0  0  0  0  0
  190.4200  176.2380  140.4250 F   0  0  0  0  0  0  0  0  0  0  0  0
  1  2  1  0  0  0  0
  1 13  1  0  0  0  0
  2 11  1  6  0  0  0
  2 18  1  0  0  0  0
  3  6  1  0  0  0  0
  4 16  1  6  0  0  0
  4  7  1  0  0  0  0
  4  1  1  0  0  0  0
  5  8  1  0  0  0  0
  7 14  2  0  0  0  0
  8  7  1  0  0  0  0
  9 10  1  0  0  0  0
 11 17  2  0  0  0  0
 12  5  1  0  0  0  0
 12 16  1  0  0  0  0
 13  3  2  0  0  0  0
 14 13  1  0  0  0  0
 15  9  2  0  0  0  0
 17 15  1  0  0  0  0
 18  9  1  0  0  0  0
 18  6  2  0  0  0  0
 19 17  1  0  0  0  0
 20 21  2  0  0  0  0
 20 19  1  0  0  0  0
 22 23  1  0  0  0  0
 23 20  1  0  0  0  0
 24 23  1  0  0  0  0
 25 23  1  0  0  0  0
M  END
>  <MODEL>
1

>  <REMARK>
 VINA RESULT:      -9.5      0.000      0.000
  Name = 
  3 active torsions:
  status: ('A' for Active; 'I' for Inactive)
    1  A    between atoms: O_6  and  C_15
    2  A    between atoms: O_6  and  C_23
    3  A    between atoms: C_7  and  C_15
                            x       y       z     vdW  Elec       q    Type
                         _______ _______ _______ _____ _____    ______ ____

>  <TORSDO>
F 3

$$$$
=
 OpenBabel10272400423D

 25 28  0  0  1  0  0  0  0  0999 V2000
  187.2390  177.9980  145.3720 N   0  0  0  0  0  0  0  0  0  0  0  0
  188.4110  177.2160  144.9840 C   0  0  1  0  0  3  0  0  0  0  0  0
  187.8670  177.9960  147.6810 C   0  0  0  0  0  3  0  0  0  0  0  0
  185.9640  178.0060  144.6710 C   0  0  1  0  0  3  0  0  0  0  0  0
  183.3800  178.7630  143.9190 C   0  0  0  0  0  2  0  0  0  0  0  0
  189.2010  177.6400  147.2770 N   0  0  0  0  0  0  0  0  0  0  0  0
  184.9800  178.3580  145.7530 C   0  0  0  0  0  0  0  0  0  0  0  0
  183.5770  178.7580  145.4370 C   0  0  0  0  0  2  0  0  0  0  0  0
  190.8850  177.0610  145.6410 C   0  0  0  0  0  0  0  0  0  0  0  0
  191.8820  176.7710  146.6150 N   0  0  0  0  0  1  0  0  0  0  0  0
  188.9270  177.6070  143.6240 C   0  0  0  0  0  3  0  0  0  0  0  0
  184.5000  179.5410  143.2080 C   0  0  0  0  0  2  0  0  0  0  0  0
  186.9380  178.1740  146.7460 C   0  0  0  0  0  0  0  0  0  0  0  0
  185.5330  178.4570  146.9580 C   0  0  0  0  0  3  0  0  0  0  0  0
  191.2210  177.1520  144.3520 C   0  0  0  0  0  3  0  0  0  0  0  0
  185.9290  179.0900  143.5890 C   0  0  0  0  0  2  0  0  0  0  0  0
  190.2260  177.5200  143.3090 C   0  0  0  0  0  0  0  0  0  0  0  0
  189.4950  177.3280  146.0430 C   0  0  0  0  0  0  0  0  0  0  0  0
  190.6030  177.8240  141.9920 O   0  0  0  0  0  0  0  0  0  0  0  0
  190.0980  177.2250  140.8290 C   0  0  0  0  0  0  0  0  0  0  0  0
  190.4040  176.0440  140.5120 O   0  0  0  0  0  0  0  0  0  0  0  0
  188.4330  178.8930  140.7670 F   0  0  0  0  0  0  0  0  0  0  0  0
  189.1160  177.9760  139.9890 C   0  0  0  0  0  0  0  0  0  0  0  0
  188.2140  177.0890  139.4350 F   0  0  0  0  0  0  0  0  0  0  0  0
  189.7760  178.6500  138.9770 F   0  0  0  0  0  0  0  0  0  0  0  0
  1 13  1  0  0  0  0
  2 11  1  6  0  0  0
  2  1  1  0  0  0  0
  2 18  1  0  0  0  0
  4 16  1  6  0  0  0
  4  1  1  0  0  0  0
  4  7  1  0  0  0  0
  5  8  1  0  0  0  0
  6  3  1  0  0  0  0
  7 14  2  0  0  0  0
  8  7  1  0  0  0  0
  9 18  1  0  0  0  0
  9 10  1  0  0  0  0
 12 16  1  0  0  0  0
 12  5  1  0  0  0  0
 13 14  1  0  0  0  0
 13  3  2  0  0  0  0
 15  9  2  0  0  0  0
 17 11  2  0  0  0  0
 17 15  1  0  0  0  0
 18  6  2  0  0  0  0
 19 17  1  0  0  0  0
 20 19  1  0  0  0  0
 21 20  2  0  0  0  0
 23 22  1  0  0  0  0
 23 20  1  0  0  0  0
 24 23  1  0  0  0  0
 25 23  1  0  0  0  0
M  END
>  <MODEL>
2

>  <REMARK>
 VINA RESULT:      -9.4      1.654      2.598
  Name = 
  3 active torsions:
  status: ('A' for Active; 'I' for Inactive)
    1  A    between atoms: O_6  and  C_15
    2  A    between atoms: O_6  and  C_23
    3  A    between atoms: C_7  and  C_15
                            x       y       z     vdW  Elec       q    Type
                         _______ _______ _______ _____ _____    ______ ____

>  <TORSDO>
F 3

$$$$
=
 OpenBabel10272400423D

 25 28  0  0  1  0  0  0  0  0999 V2000
  185.5100  178.3030  144.3400 N   0  0  0  0  0  0  0  0  0  0  0  0
  186.5260  177.6070  145.1270 C   0  0  1  0  0  3  0  0  0  0  0  0
  184.2260  178.8530  146.2840 C   0  0  0  0  0  3  0  0  0  0  0  0
  185.1720  178.0110  142.9550 C   0  0  1  0  0  3  0  0  0  0  0  0
  184.0490  178.2760  140.4090 C   0  0  0  0  0  2  0  0  0  0  0  0
  185.3940  178.5860  147.0810 N   0  0  0  0  0  0  0  0  0  0  0  0
  183.7390  178.4550  142.8510 C   0  0  0  0  0  0  0  0  0  0  0  0
  183.0600  178.6070  141.5300 C   0  0  0  0  0  2  0  0  0  0  0  0
  187.6890  177.8940  147.3940 C   0  0  0  0  0  0  0  0  0  0  0  0
  187.6180  177.9350  148.8160 N   0  0  0  0  0  1  0  0  0  0  0  0
  187.9040  177.7710  144.5410 C   0  0  0  0  0  3  0  0  0  0  0  0
  185.3810  179.0220  140.5940 C   0  0  0  0  0  2  0  0  0  0  0  0
  184.3060  178.7190  144.9630 C   0  0  0  0  0  0  0  0  0  0  0  0
  183.2270  178.8660  144.0070 C   0  0  0  0  0  3  0  0  0  0  0  0
  188.8730  177.7590  146.7900 C   0  0  0  0  0  3  0  0  0  0  0  0
  186.0250  178.8370  141.9870 C   0  0  0  0  0  2  0  0  0  0  0  0
  189.0020  177.7810  145.3090 C   0  0  0  0  0  0  0  0  0  0  0  0
  186.4790  178.0670  146.5740 C   0  0  0  0  0  0  0  0  0  0  0  0
  190.2480  177.8520  144.6690 O   0  0  0  0  0  0  0  0  0  0  0  0
  191.2910  176.9210  144.7860 C   0  0  0  0  0  0  0  0  0  0  0  0
  191.9670  176.8210  145.8460 O   0  0  0  0  0  0  0  0  0  0  0  0
  190.3630  175.4730  143.1740 F   0  0  0  0  0  0  0  0  0  0  0  0
  191.5560  175.9770  143.6580 C   0  0  0  0  0  0  0  0  0  0  0  0
  192.3400  174.9330  144.1090 F   0  0  0  0  0  0  0  0  0  0  0  0
  192.2140  176.6350  142.6340 F   0  0  0  0  0  0  0  0  0  0  0  0
  1 13  1  0  0  0  0
  1  2  1  0  0  0  0
  2 11  1  6  0  0  0
  2 18  1  0  0  0  0
  3  6  1  0  0  0  0
  4 16  1  6  0  0  0
  4  1  1  0  0  0  0
  5 12  1  0  0  0  0
  5  8  1  0  0  0  0
  7  4  1  0  0  0  0
  7 14  2  0  0  0  0
  8  7  1  0  0  0  0
  9 10  1  0  0  0  0
 11 17  2  0  0  0  0
 12 16  1  0  0  0  0
 13  3  2  0  0  0  0
 14 13  1  0  0  0  0
 15  9  2  0  0  0  0
 17 15  1  0  0  0  0
 18  6  2  0  0  0  0
 18  9  1  0  0  0  0
 19 20  1  0  0  0  0
 19 17  1  0  0  0  0
 20 21  2  0  0  0  0
 22 23  1  0  0  0  0
 23 24  1  0  0  0  0
 23 20  1  0  0  0  0
 25 23  1  0  0  0  0
M  END
>  <MODEL>
3

>  <REMARK>
 VINA RESULT:      -9.4      1.421      1.784
  Name = 
  3 active torsions:
  status: ('A' for Active; 'I' for Inactive)
    1  A    between atoms: O_6  and  C_15
    2  A    between atoms: O_6  and  C_23
    3  A    between atoms: C_7  and  C_15
                            x       y       z     vdW  Elec       q    Type
                         _______ _______ _______ _____ _____    ______ ____

>  <TORSDO>
F 3

$$$$
=
 OpenBabel10272400423D

 25 28  0  0  1  0  0  0  0  0999 V2000
  187.3310  177.6780  144.6560 N   0  0  0  0  0  0  0  0  0  0  0  0
  188.3660  176.6750  144.4100 C   0  0  1  0  0  3  0  0  0  0  0  0
  188.2130  178.2150  146.8150 C   0  0  0  0  0  3  0  0  0  0  0  0
  185.9920  177.6630  144.0860 C   0  0  1  0  0  3  0  0  0  0  0  0
  183.4310  178.5190  143.3630 C   0  0  0  0  0  2  0  0  0  0  0  0
  189.4490  177.5930  146.4210 N   0  0  0  0  0  0  0  0  0  0  0  0
  185.1790  178.4170  145.1020 C   0  0  0  0  0  0  0  0  0  0  0  0
  183.7970  178.8960  144.8010 C   0  0  0  0  0  2  0  0  0  0  0  0
  190.8690  176.3830  144.8820 C   0  0  0  0  0  0  0  0  0  0  0  0
  191.9350  176.2390  145.8150 N   0  0  0  0  0  1  0  0  0  0  0  0
  188.7610  176.6170  142.9580 C   0  0  0  0  0  3  0  0  0  0  0  0
  184.5370  178.9250  142.3750 C   0  0  0  0  0  2  0  0  0  0  0  0
  187.2070  178.2540  145.9460 C   0  0  0  0  0  0  0  0  0  0  0  0
  185.8720  178.7630  146.1830 C   0  0  0  0  0  3  0  0  0  0  0  0
  191.0640  176.0800  143.5960 C   0  0  0  0  0  3  0  0  0  0  0  0
  185.9460  178.4120  142.7500 C   0  0  0  0  0  2  0  0  0  0  0  0
  190.0010  176.2810  142.5760 C   0  0  0  0  0  0  0  0  0  0  0  0
  189.5680  176.9260  145.3040 C   0  0  0  0  0  0  0  0  0  0  0  0
  190.2550  176.1690  141.2010 O   0  0  0  0  0  0  0  0  0  0  0  0
  190.4900  177.2310  140.3150 C   0  0  0  0  0  0  0  0  0  0  0  0
  191.6590  177.6240  140.0550 O   0  0  0  0  0  0  0  0  0  0  0  0
  188.6850  178.7410  140.4530 F   0  0  0  0  0  0  0  0  0  0  0  0
  189.3330  177.8590  139.6070 C   0  0  0  0  0  0  0  0  0  0  0  0
  188.4480  176.8740  139.2120 F   0  0  0  0  0  0  0  0  0  0  0  0
  189.7770  178.5490  138.4930 F   0  0  0  0  0  0  0  0  0  0  0  0
  1 13  1  0  0  0  0
  2 11  1  6  0  0  0
  2  1  1  0  0  0  0
  2 18  1  0  0  0  0
  4 16  1  6  0  0  0
  4  1  1  0  0  0  0
  4  7  1  0  0  0  0
  5  8  1  0  0  0  0
  6  3  1  0  0  0  0
  7 14  2  0  0  0  0
  8  7  1  0  0  0  0
  9 18  1  0  0  0  0
  9 10  1  0  0  0  0
 12 16  1  0  0  0  0
 12  5  1  0  0  0  0
 13 14  1  0  0  0  0
 13  3  2  0  0  0  0
 15  9  2  0  0  0  0
 17 11  2  0  0  0  0
 17 15  1  0  0  0  0
 18  6  2  0  0  0  0
 19 17  1  0  0  0  0
 20 19  1  0  0  0  0
 21 20  2  0  0  0  0
 23 20  1  0  0  0  0
 23 22  1  0  0  0  0
 24 23  1  0  0  0  0
 25 23  1  0  0  0  0
M  END
>  <MODEL>
4

>  <REMARK>
 VINA RESULT:      -9.2      1.832      2.768
  Name = 
  3 active torsions:
  status: ('A' for Active; 'I' for Inactive)
    1  A    between atoms: O_6  and  C_15
    2  A    between atoms: O_6  and  C_23
    3  A    between atoms: C_7  and  C_15
                            x       y       z     vdW  Elec       q    Type
                         _______ _______ _______ _____ _____    ______ ____

>  <TORSDO>
F 3

$$$$
=
 OpenBabel10272400423D

 25 28  0  0  1  0  0  0  0  0999 V2000
  186.1660  178.4220  142.3550 N   0  0  0  0  0  0  0  0  0  0  0  0
  187.2700  178.7310  141.4480 C   0  0  1  0  0  3  0  0  0  0  0  0
  184.5280  178.7090  140.6330 C   0  0  0  0  0  3  0  0  0  0  0  0
  186.1700  178.6440  143.7930 C   0  0  1  0  0  3  0  0  0  0  0  0
  185.3850  178.5390  146.4740 C   0  0  0  0  0  2  0  0  0  0  0  0
  185.5830  178.5700  139.6640 N   0  0  0  0  0  0  0  0  0  0  0  0
  184.7120  178.8220  144.1170 C   0  0  0  0  0  0  0  0  0  0  0  0
  184.2120  178.7950  145.5230 C   0  0  0  0  0  2  0  0  0  0  0  0
  187.8910  178.2860  139.0010 C   0  0  0  0  0  0  0  0  0  0  0  0
  187.6240  178.4630  137.6140 N   0  0  0  0  0  1  0  0  0  0  0  0
  188.5080  177.9380  141.7760 C   0  0  0  0  0  3  0  0  0  0  0  0
  186.2320  177.3400  146.0150 C   0  0  0  0  0  2  0  0  0  0  0  0
  184.8300  178.6250  141.9260 C   0  0  0  0  0  0  0  0  0  0  0  0
  183.9280  178.8140  143.0440 C   0  0  0  0  0  3  0  0  0  0  0  0
  189.0850  177.8400  139.3970 C   0  0  0  0  0  3  0  0  0  0  0  0
  186.7050  177.4210  144.5450 C   0  0  0  0  0  2  0  0  0  0  0  0
  189.3850  177.5740  140.8300 C   0  0  0  0  0  0  0  0  0  0  0  0
  186.8420  178.5240  140.0060 C   0  0  0  0  0  0  0  0  0  0  0  0
  190.5520  176.9120  141.2380 O   0  0  0  0  0  0  0  0  0  0  0  0
  191.1610  177.0120  142.4980 C   0  0  0  0  0  0  0  0  0  0  0  0
  191.8630  178.0120  142.8110 O   0  0  0  0  0  0  0  0  0  0  0  0
  190.2880  176.4900  144.6240 F   0  0  0  0  0  0  0  0  0  0  0  0
  190.9100  175.9470  143.5150 C   0  0  0  0  0  0  0  0  0  0  0  0
  192.1130  175.3870  143.8990 F   0  0  0  0  0  0  0  0  0  0  0  0
  190.0970  174.9630  142.9810 F   0  0  0  0  0  0  0  0  0  0  0  0
  1  4  1  0  0  0  0
  2 11  1  1  0  0  0
  2  1  1  0  0  0  0
  3 13  2  0  0  0  0
  4  7  1  0  0  0  0
  4 16  1  1  0  0  0
  6 18  2  0  0  0  0
  6  3  1  0  0  0  0
  7  8  1  0  0  0  0
  8  5  1  0  0  0  0
  9 15  2  0  0  0  0
  9 18  1  0  0  0  0
 10  9  1  0  0  0  0
 12  5  1  0  0  0  0
 13  1  1  0  0  0  0
 13 14  1  0  0  0  0
 14  7  2  0  0  0  0
 15 17  1  0  0  0  0
 16 12  1  0  0  0  0
 17 19  1  0  0  0  0
 17 11  2  0  0  0  0
 18  2  1  0  0  0  0
 19 20  1  0  0  0  0
 20 21  2  0  0  0  0
 20 23  1  0  0  0  0
 23 24  1  0  0  0  0
 23 22  1  0  0  0  0
 25 23  1  0  0  0  0
M  END
>  <MODEL>
5

>  <REMARK>
 VINA RESULT:      -9.1      2.562      4.834
  Name = 
  3 active torsions:
  status: ('A' for Active; 'I' for Inactive)
    1  A    between atoms: O_6  and  C_15
    2  A    between atoms: O_6  and  C_23
    3  A    between atoms: C_7  and  C_15
                            x       y       z     vdW  Elec       q    Type
                         _______ _______ _______ _____ _____    ______ ____

>  <TORSDO>
F 3

$$$$
=
 OpenBabel10272400423D

 25 28  0  0  1  0  0  0  0  0999 V2000
  189.3740  177.4840  143.8700 N   0  0  0  0  0  0  0  0  0  0  0  0
  188.6920  177.2850  142.5930 C   0  0  1  0  0  3  0  0  0  0  0  0
  191.5380  177.4100  142.8480 C   0  0  0  0  0  3  0  0  0  0  0  0
  188.8570  177.0900  145.1710 C   0  0  1  0  0  3  0  0  0  0  0  0
  188.6070  176.8720  147.9470 C   0  0  0  0  0  2  0  0  0  0  0  0
  190.9040  177.6630  141.5820 N   0  0  0  0  0  0  0  0  0  0  0  0
  190.1040  176.8760  145.9850 C   0  0  0  0  0  0  0  0  0  0  0  0
  190.0560  176.7350  147.4710 C   0  0  0  0  0  2  0  0  0  0  0  0
  188.9850  178.0200  140.1550 C   0  0  0  0  0  0  0  0  0  0  0  0
  189.7460  178.0130  138.9510 N   0  0  0  0  0  1  0  0  0  0  0  0
  187.3840  178.0300  142.5290 C   0  0  0  0  0  3  0  0  0  0  0  0
  187.9310  178.1160  147.3460 C   0  0  0  0  0  2  0  0  0  0  0  0
  190.7830  177.3370  143.9410 C   0  0  0  0  0  0  0  0  0  0  0  0
  191.2240  177.0160  145.2830 C   0  0  0  0  0  3  0  0  0  0  0  0
  187.7090  178.4130  140.1320 C   0  0  0  0  0  3  0  0  0  0  0  0
  188.0290  178.2120  145.8060 C   0  0  0  0  0  2  0  0  0  0  0  0
  186.8960  178.5030  141.3740 C   0  0  0  0  0  0  0  0  0  0  0  0
  189.6060  177.6650  141.4410 C   0  0  0  0  0  0  0  0  0  0  0  0
  185.6310  179.1090  141.3970 O   0  0  0  0  0  0  0  0  0  0  0  0
  184.4850  178.6060  142.0310 C   0  0  0  0  0  0  0  0  0  0  0  0
  183.7420  177.7580  141.4680 O   0  0  0  0  0  0  0  0  0  0  0  0
  184.8500  180.2030  143.7260 F   0  0  0  0  0  0  0  0  0  0  0  0
  184.1830  179.0280  143.4320 C   0  0  0  0  0  0  0  0  0  0  0  0
  184.5950  178.0410  144.3070 F   0  0  0  0  0  0  0  0  0  0  0  0
  182.8230  179.2340  143.5820 F   0  0  0  0  0  0  0  0  0  0  0  0
  1 13  1  0  0  0  0
  1  4  1  0  0  0  0
  2 11  1  1  0  0  0
  2  1  1  0  0  0  0
  3 13  2  0  0  0  0
  4 16  1  1  0  0  0
  4  7  1  0  0  0  0
  6  3  1  0  0  0  0
  7  8  1  0  0  0  0
  8  5  1  0  0  0  0
  9 18  1  0  0  0  0
 10  9  1  0  0  0  0
 12  5  1  0  0  0  0
 13 14  1  0  0  0  0
 14  7  2  0  0  0  0
 15  9  2  0  0  0  0
 15 17  1  0  0  0  0
 16 12  1  0  0  0  0
 17 19  1  0  0  0  0
 17 11  2  0  0  0  0
 18  6  2  0  0  0  0
 18  2  1  0  0  0  0
 19 20  1  0  0  0  0
 20 23  1  0  0  0  0
 21 20  2  0  0  0  0
 23 25  1  0  0  0  0
 23 22  1  0  0  0  0
 23 24  1  0  0  0  0
M  END
>  <MODEL>
6

>  <REMARK>
 VINA RESULT:      -9.0      3.660      6.703
  Name = 
  3 active torsions:
  status: ('A' for Active; 'I' for Inactive)
    1  A    between atoms: O_6  and  C_15
    2  A    between atoms: O_6  and  C_23
    3  A    between atoms: C_7  and  C_15
                            x       y       z     vdW  Elec       q    Type
                         _______ _______ _______ _____ _____    ______ ____

>  <TORSDO>
F 3

$$$$
=
 OpenBabel10272400423D

 25 28  0  0  1  0  0  0  0  0999 V2000
  187.5080  177.9510  142.6980 N   0  0  0  0  0  0  0  0  0  0  0  0
  186.6910  177.5000  143.8230 C   0  0  1  0  0  3  0  0  0  0  0  0
  185.7390  179.3010  141.8140 C   0  0  0  0  0  3  0  0  0  0  0  0
  188.6040  177.2040  142.1010 C   0  0  1  0  0  3  0  0  0  0  0  0
  190.8420  176.6180  140.5310 C   0  0  0  0  0  2  0  0  0  0  0  0
  185.1010  179.2350  143.1020 N   0  0  0  0  0  0  0  0  0  0  0  0
  188.6370  177.7140  140.6860 C   0  0  0  0  0  0  0  0  0  0  0  0
  189.7880  177.4340  139.7780 C   0  0  0  0  0  2  0  0  0  0  0  0
  184.9230  178.4890  145.3940 C   0  0  0  0  0  0  0  0  0  0  0  0
  183.6320  179.0580  145.5900 N   0  0  0  0  0  1  0  0  0  0  0  0
  187.5090  177.3020  145.0720 C   0  0  0  0  0  3  0  0  0  0  0  0
  191.1720  177.2480  141.8950 C   0  0  0  0  0  2  0  0  0  0  0  0
  186.9050  178.6820  141.6430 C   0  0  0  0  0  0  0  0  0  0  0  0
  187.6570  178.5700  140.4100 C   0  0  0  0  0  3  0  0  0  0  0  0
  185.6120  178.0270  146.4410 C   0  0  0  0  0  3  0  0  0  0  0  0
  189.9380  177.5280  142.7820 C   0  0  0  0  0  2  0  0  0  0  0  0
  186.9910  177.4890  146.2930 C   0  0  0  0  0  0  0  0  0  0  0  0
  185.5400  178.4630  144.0590 C   0  0  0  0  0  0  0  0  0  0  0  0
  187.8010  177.1980  147.4000 O   0  0  0  0  0  0  0  0  0  0  0  0
  189.0390  177.7890  147.6960 C   0  0  0  0  0  0  0  0  0  0  0  0
  189.1140  178.8620  148.3550 O   0  0  0  0  0  0  0  0  0  0  0  0
  190.6590  177.4830  146.0120 F   0  0  0  0  0  0  0  0  0  0  0  0
  190.2960  177.0920  147.2870 C   0  0  0  0  0  0  0  0  0  0  0  0
  190.0880  175.7260  147.3020 F   0  0  0  0  0  0  0  0  0  0  0  0
  191.3200  177.4080  148.1630 F   0  0  0  0  0  0  0  0  0  0  0  0
  1  2  1  0  0  0  0
  2 18  1  0  0  0  0
  2 11  1  1  0  0  0
  3  6  1  0  0  0  0
  4  1  1  0  0  0  0
  4 16  1  1  0  0  0
  5 12  1  0  0  0  0
  6 18  2  0  0  0  0
  7  4  1  0  0  0  0
  8  5  1  0  0  0  0
  8  7  1  0  0  0  0
  9 10  1  0  0  0  0
  9 15  2  0  0  0  0
 11 17  2  0  0  0  0
 12 16  1  0  0  0  0
 13  3  2  0  0  0  0
 13  1  1  0  0  0  0
 14  7  2  0  0  0  0
 14 13  1  0  0  0  0
 17 15  1  0  0  0  0
 17 19  1  0  0  0  0
 18  9  1  0  0  0  0
 19 20  1  0  0  0  0
 20 21  2  0  0  0  0
 22 23  1  0  0  0  0
 23 24  1  0  0  0  0
 23 20  1  0  0  0  0
 23 25  1  0  0  0  0
M  END
>  <MODEL>
7

>  <REMARK>
 VINA RESULT:      -9.0      2.924      5.126
  Name = 
  3 active torsions:
  status: ('A' for Active; 'I' for Inactive)
    1  A    between atoms: O_6  and  C_15
    2  A    between atoms: O_6  and  C_23
    3  A    between atoms: C_7  and  C_15
                            x       y       z     vdW  Elec       q    Type
                         _______ _______ _______ _____ _____    ______ ____

>  <TORSDO>
F 3

$$$$
=
 OpenBabel10272400423D

 25 28  0  0  1  0  0  0  0  0999 V2000
  188.0920  177.7000  142.7840 N   0  0  0  0  0  0  0  0  0  0  0  0
  187.7180  177.1720  144.0950 C   0  0  1  0  0  3  0  0  0  0  0  0
  185.9790  178.7890  142.5000 C   0  0  0  0  0  3  0  0  0  0  0  0
  189.0440  177.0870  141.8700 C   0  0  1  0  0  3  0  0  0  0  0  0
  190.7600  176.7610  139.6880 C   0  0  0  0  0  2  0  0  0  0  0  0
  185.7730  178.6710  143.9190 N   0  0  0  0  0  0  0  0  0  0  0  0
  188.5820  177.5660  140.5210 C   0  0  0  0  0  0  0  0  0  0  0  0
  189.4310  177.4160  139.3030 C   0  0  0  0  0  2  0  0  0  0  0  0
  186.3940  177.9590  146.1450 C   0  0  0  0  0  0  0  0  0  0  0  0
  185.1610  178.3600  146.7310 N   0  0  0  0  0  1  0  0  0  0  0  0
  188.8940  177.1090  145.0340 C   0  0  0  0  0  3  0  0  0  0  0  0
  191.4020  177.4580  140.8990 C   0  0  0  0  0  2  0  0  0  0  0  0
  187.1090  178.3230  141.9740 C   0  0  0  0  0  0  0  0  0  0  0  0
  187.4620  178.2820  140.5690 C   0  0  0  0  0  3  0  0  0  0  0  0
  187.4210  177.6130  146.9250 C   0  0  0  0  0  3  0  0  0  0  0  0
  190.4670  177.5960  142.1230 C   0  0  0  0  0  2  0  0  0  0  0  0
  188.7480  177.2540  146.3580 C   0  0  0  0  0  0  0  0  0  0  0  0
  186.5770  177.9830  144.6850 C   0  0  0  0  0  0  0  0  0  0  0  0
  189.8860  177.0960  147.1640 O   0  0  0  0  0  0  0  0  0  0  0  0
  191.1830  176.8070  146.7140 C   0  0  0  0  0  0  0  0  0  0  0  0
  191.7650  177.5420  145.8700 O   0  0  0  0  0  0  0  0  0  0  0  0
  191.0300  174.7950  147.9330 F   0  0  0  0  0  0  0  0  0  0  0  0
  191.9190  175.6480  147.3040 C   0  0  0  0  0  0  0  0  0  0  0  0
  192.8360  176.1100  148.2280 F   0  0  0  0  0  0  0  0  0  0  0  0
  192.5820  174.9510  146.3100 F   0  0  0  0  0  0  0  0  0  0  0  0
  1  2  1  0  0  0  0
  2 18  1  0  0  0  0
  2 11  1  1  0  0  0
  3  6  1  0  0  0  0
  4 16  1  1  0  0  0
  4  1  1  0  0  0  0
  5 12  1  0  0  0  0
  6 18  2  0  0  0  0
  7 14  2  0  0  0  0
  7  4  1  0  0  0  0
  8  5  1  0  0  0  0
  8  7  1  0  0  0  0
  9 10  1  0  0  0  0
  9 15  2  0  0  0  0
 11 17  2  0  0  0  0
 12 16  1  0  0  0  0
 13  3  2  0  0  0  0
 13  1  1  0  0  0  0
 14 13  1  0  0  0  0
 17 15  1  0  0  0  0
 17 19  1  0  0  0  0
 18  9  1  0  0  0  0
 20 19  1  0  0  0  0
 20 23  1  0  0  0  0
 21 20  2  0  0  0  0
 23 22  1  0  0  0  0
 23 24  1  0  0  0  0
 25 23  1  0  0  0  0
M  END
>  <MODEL>
8

>  <REMARK>
 VINA RESULT:      -8.9      2.893      4.822
  Name = 
  3 active torsions:
  status: ('A' for Active; 'I' for Inactive)
    1  A    between atoms: O_6  and  C_15
    2  A    between atoms: O_6  and  C_23
    3  A    between atoms: C_7  and  C_15
                            x       y       z     vdW  Elec       q    Type
                         _______ _______ _______ _____ _____    ______ ____

>  <TORSDO>
F 3

$$$$
=
 OpenBabel10272400423D

 25 28  0  0  1  0  0  0  0  0999 V2000
  187.3570  177.9710  143.9920 N   0  0  0  0  0  0  0  0  0  0  0  0
  188.0620  177.3580  142.8680 C   0  0  1  0  0  3  0  0  0  0  0  0
  189.2100  177.6470  145.4720 C   0  0  0  0  0  3  0  0  0  0  0  0
  185.9130  177.9900  144.1700 C   0  0  1  0  0  3  0  0  0  0  0  0
  183.3970  178.6490  145.1940 C   0  0  0  0  0  2  0  0  0  0  0  0
  190.0490  177.4680  144.3170 N   0  0  0  0  0  0  0  0  0  0  0  0
  185.7520  178.0830  145.6630 C   0  0  0  0  0  0  0  0  0  0  0  0
  184.4390  178.4140  146.2910 C   0  0  0  0  0  2  0  0  0  0  0  0
  190.4510  177.2980  141.9390 C   0  0  0  0  0  0  0  0  0  0  0  0
  191.8200  176.9360  142.0890 N   0  0  0  0  0  1  0  0  0  0  0  0
  187.7020  178.0040  141.5560 C   0  0  0  0  0  3  0  0  0  0  0  0
  183.9170  179.6190  144.1200 C   0  0  0  0  0  2  0  0  0  0  0  0
  187.9160  177.8980  145.2930 C   0  0  0  0  0  0  0  0  0  0  0  0
  186.9050  178.0290  146.3230 C   0  0  0  0  0  3  0  0  0  0  0  0
  189.9770  177.6230  140.7330 C   0  0  0  0  0  3  0  0  0  0  0  0
  185.2870  179.2280  143.5200 C   0  0  0  0  0  2  0  0  0  0  0  0
  188.5730  178.0740  140.5400 C   0  0  0  0  0  0  0  0  0  0  0  0
  189.5620  177.3850  143.1080 C   0  0  0  0  0  0  0  0  0  0  0  0
  188.1230  178.6160  139.3270 O   0  0  0  0  0  0  0  0  0  0  0  0
  188.0960  177.9590  138.0880 C   0  0  0  0  0  0  0  0  0  0  0  0
  187.1810  177.1420  137.7970 O   0  0  0  0  0  0  0  0  0  0  0  0
  188.7090  177.8820  135.8130 F   0  0  0  0  0  0  0  0  0  0  0  0
  189.1320  178.2910  137.0640 C   0  0  0  0  0  0  0  0  0  0  0  0
  190.3120  177.6430  137.3780 F   0  0  0  0  0  0  0  0  0  0  0  0
  189.3530  179.6570  137.0380 F   0  0  0  0  0  0  0  0  0  0  0  0
  1  4  1  0  0  0  0
  1 13  1  0  0  0  0
  2 11  1  6  0  0  0
  2 18  1  0  0  0  0
  2  1  1  0  0  0  0
  4 16  1  6  0  0  0
  4  7  1  0  0  0  0
  5  8  1  0  0  0  0
  6  3  1  0  0  0  0
  7  8  1  0  0  0  0
  7 14  2  0  0  0  0
  9 10  1  0  0  0  0
  9 18  1  0  0  0  0
 12  5  1  0  0  0  0
 13  3  2  0  0  0  0
 13 14  1  0  0  0  0
 15  9  2  0  0  0  0
 16 12  1  0  0  0  0
 17 15  1  0  0  0  0
 17 11  2  0  0  0  0
 18  6  2  0  0  0  0
 19 17  1  0  0  0  0
 20 19  1  0  0  0  0
 21 20  2  0  0  0  0
 22 23  1  0  0  0  0
 23 24  1  0  0  0  0
 23 20  1  0  0  0  0
 25 23  1  0  0  0  0
M  END
>  <MODEL>
9

>  <REMARK>
 VINA RESULT:      -8.6      3.204      4.488
  Name = 
  3 active torsions:
  status: ('A' for Active; 'I' for Inactive)
    1  A    between atoms: O_6  and  C_15
    2  A    between atoms: O_6  and  C_23
    3  A    between atoms: C_7  and  C_15
                            x       y       z     vdW  Elec       q    Type
                         _______ _______ _______ _____ _____    ______ ____

>  <TORSDO>
F 3

$$$$
