=
 OpenBabel10272415023D

 37 45  0  0  1  0  0  0  0  0999 V2000
  184.0630  178.7950  138.3620 O   0  0  0  0  0  0  0  0  0  0  0  0
  187.8430  176.3740  138.1220 C   0  0  1  0  0  3  0  0  0  0  0  0
  191.7350  177.2480  139.5680 C   0  0  2  0  0  3  0  0  0  0  0  0
  186.2110  178.0100  137.8720 N   0  0  0  0  0  0  0  0  0  0  0  0
  190.3360  177.6900  139.1590 C   0  0  1  0  0  3  0  0  0  0  0  0
  187.5810  177.8430  138.2790 C   0  0  1  0  0  3  0  0  0  0  0  0
  190.7210  176.2160  139.0900 C   0  0  1  0  0  3  0  0  0  0  0  0
  185.9000  176.9770  136.8920 C   0  0  0  0  0  2  0  0  0  0  0  0
  187.9570  178.4070  139.6620 C   0  0  1  0  0  3  0  0  0  0  0  0
  187.2160  178.9000  141.9820 C   0  0  0  0  0  2  0  0  0  0  0  0
  187.5950  175.6710  135.6960 C   0  0  0  0  0  2  0  0  0  0  0  0
  188.4680  178.2200  142.5680 C   0  0  2  0  0  3  0  0  0  0  0  0
  186.9540  175.8520  137.0420 C   0  0  2  0  0  0  0  0  0  0  0  0
  186.8190  178.2460  140.6590 C   0  0  1  0  0  3  0  0  0  0  0  0
  191.9920  177.3140  141.0920 C   0  0  0  0  0  2  0  0  0  0  0  0
  188.4720  176.2380  136.7810 C   0  0  2  0  0  0  0  0  0  0  0  0
  189.2180  177.7160  140.2000 C   0  0  2  0  0  3  0  0  0  0  0  0
  185.2300  178.5520  138.7660 C   0  0  0  0  0  0  0  0  0  0  0  0
  190.8540  175.8370  137.6040 C   0  0  2  0  0  3  0  0  0  0  0  0
  185.5910  178.8260  140.1230 N   0  0  0  0  0  2  0  0  0  0  0  0
  189.6590  178.2090  141.5690 C   0  0  2  0  0  3  0  0  0  0  0  0
  190.7820  177.2850  142.0330 C   0  0  0  0  0  2  0  0  0  0  0  0
  189.5620  175.1960  137.0390 C   0  0  0  0  0  2  0  0  0  0  0  0
  191.8390  173.7460  136.6580 C   0  0  0  0  0  3  0  0  0  0  0  0
  192.0200  174.9230  137.3920 C   0  0  0  0  0  0  0  0  0  0  0  0
  193.2870  175.2290  137.9120 C   0  0  0  0  0  3  0  0  0  0  0  0
  195.5830  174.6580  138.2010 F   0  0  0  0  0  0  0  0  0  0  0  0
  194.1750  173.1860  136.9640 C   0  0  0  0  0  3  0  0  0  0  0  0
  194.3610  174.3610  137.6980 C   0  0  0  0  0  0  0  0  0  0  0  0
  192.9140  172.8780  136.4450 C   0  0  0  0  0  3  0  0  0  0  0  0
  188.1200  176.8670  143.1410 C   0  0  0  0  0  0  0  0  0  0  0  0
  188.6280  175.8490  142.6950 O   0  0  0  0  0  0  0  0  0  0  0  0
  187.1650  176.7760  144.2830 C   0  0  0  0  0  2  0  0  0  0  0  0
  187.7040  177.5100  145.4630 C   0  0  0  0  0  3  0  0  0  0  0  0
  188.7890  177.0620  146.0870 C   0  0  0  0  0  3  0  0  0  0  0  0
  189.3250  177.7980  147.2650 C   0  0  0  0  0  2  0  0  0  0  0  0
  188.2320  177.9520  148.3020 C   0  0  0  0  0  1  0  0  0  0  0  0
  1 18  2  0  0  0  0
  2  6  1  0  0  0  0
  3 15  1  0  0  0  0
  4  6  1  0  0  0  0
  4 18  1  0  0  0  0
  5  3  1  0  0  0  0
  5 17  1  0  0  0  0
  6  9  1  0  0  0  0
  7  5  1  0  0  0  0
  7  3  1  0  0  0  0
  8 13  1  0  0  0  0
  8  4  1  0  0  0  0
  9 17  1  0  0  0  0
  9 14  1  0  0  0  0
 10 12  1  0  0  0  0
 11 16  1  0  0  0  0
 11 13  1  0  0  0  0
 12 31  1  0  0  0  0
 13  2  1  0  0  0  0
 14 10  1  0  0  0  0
 15 22  1  0  0  0  0
 16 23  1  0  0  0  0
 16 13  1  0  0  0  0
 16  2  1  0  0  0  0
 17 21  1  0  0  0  0
 18 20  1  0  0  0  0
 19  7  1  0  0  0  0
 20 14  1  0  0  0  0
 21 22  1  0  0  0  0
 21 12  1  0  0  0  0
 23 19  1  0  0  0  0
 24 25  1  0  0  0  0
 25 19  1  0  0  0  0
 25 26  2  0  0  0  0
 28 29  2  0  0  0  0
 29 26  1  0  0  0  0
 29 27  1  0  0  0  0
 30 24  2  0  0  0  0
 30 28  1  0  0  0  0
 31 33  1  0  0  0  0
 32 31  2  0  0  0  0
 33 34  1  0  0  0  0
 34 35  2  0  0  0  0
 35 36  1  0  0  0  0
 36 37  1  0  0  0  0
M  END
>  <MODEL>
1

>  <REMARK>
 VINA RESULT:      -8.9      0.000      0.000
  Name = 
  5 active torsions:
  status: ('A' for Active; 'I' for Inactive)
    1  A    between atoms: C_1  and  C_5
    2  A    between atoms: C_1  and  C_23
    3  A    between atoms: C_5  and  C_17
    4  A    between atoms: C_6  and  C_31
    5  A    between atoms: C_11  and  C_26
                            x       y       z     vdW  Elec       q    Type
                         _______ _______ _______ _____ _____    ______ ____

>  <TORSDO>
F 5

$$$$
=
 OpenBabel10272415023D

 37 45  0  0  1  0  0  0  0  0999 V2000
  189.3530  177.6490  135.5220 O   0  0  0  0  0  0  0  0  0  0  0  0
  188.3660  177.2090  139.8860 C   0  0  1  0  0  3  0  0  0  0  0  0
  185.3140  179.0490  142.1880 C   0  0  2  0  0  3  0  0  0  0  0  0
  189.0180  178.0200  137.8080 N   0  0  0  0  0  0  0  0  0  0  0  0
  186.1950  178.9920  140.9470 C   0  0  1  0  0  3  0  0  0  0  0  0
  188.1080  178.2980  138.8870 C   0  0  1  0  0  3  0  0  0  0  0  0
  186.3240  177.9200  142.0230 C   0  0  1  0  0  3  0  0  0  0  0  0
  190.1850  177.3440  138.3600 C   0  0  0  0  0  2  0  0  0  0  0  0
  186.6250  178.4670  138.5050 C   0  0  1  0  0  3  0  0  0  0  0  0
  184.7800  177.8060  136.9780 C   0  0  0  0  0  2  0  0  0  0  0  0
  190.7510  177.3230  140.7460 C   0  0  0  0  0  2  0  0  0  0  0  0
  183.8380  177.5400  138.1680 C   0  0  2  0  0  3  0  0  0  0  0  0
  189.7850  176.7660  139.7410 C   0  0  2  0  0  0  0  0  0  0  0  0
  186.2310  177.5330  137.3700 C   0  0  1  0  0  3  0  0  0  0  0  0
  183.8320  178.6980  141.9210 C   0  0  0  0  0  2  0  0  0  0  0  0
  189.3260  177.7970  140.8570 C   0  0  2  0  0  0  0  0  0  0  0  0
  185.7240  178.2110  139.7220 C   0  0  2  0  0  3  0  0  0  0  0  0
  188.5430  177.7810  136.4760 C   0  0  0  0  0  0  0  0  0  0  0  0
  187.6580  178.1490  142.7550 C   0  0  2  0  0  3  0  0  0  0  0  0
  187.1330  177.7050  136.2360 N   0  0  0  0  0  2  0  0  0  0  0  0
  184.2390  178.3500  139.4330 C   0  0  2  0  0  3  0  0  0  0  0  0
  183.4970  177.8660  140.6770 C   0  0  0  0  0  2  0  0  0  0  0  0
  188.8010  177.2690  142.1930 C   0  0  0  0  0  2  0  0  0  0  0  0
  188.6260  177.5660  144.9830 C   0  0  0  0  0  3  0  0  0  0  0  0
  187.5030  177.9170  144.2260 C   0  0  0  0  0  0  0  0  0  0  0  0
  186.2560  178.0510  144.8550 C   0  0  0  0  0  3  0  0  0  0  0  0
  184.9320  177.9620  146.8350 F   0  0  0  0  0  0  0  0  0  0  0  0
  187.2620  177.4810  146.9820 C   0  0  0  0  0  3  0  0  0  0  0  0
  186.1370  177.8330  146.2300 C   0  0  0  0  0  0  0  0  0  0  0  0
  188.5060  177.3480  146.3590 C   0  0  0  0  0  3  0  0  0  0  0  0
  183.6780  176.0570  138.3990 C   0  0  0  0  0  0  0  0  0  0  0  0
  182.8680  175.6350  139.2120 O   0  0  0  0  0  0  0  0  0  0  0  0
  184.4990  175.0960  137.6080 C   0  0  0  0  0  2  0  0  0  0  0  0
  183.7490  173.8230  137.4110 C   0  0  0  0  0  3  0  0  0  0  0  0
  184.4000  172.7070  137.1010 C   0  0  0  0  0  3  0  0  0  0  0  0
  183.6480  171.4380  136.9040 C   0  0  0  0  0  2  0  0  0  0  0  0
  182.1610  171.7230  136.9450 C   0  0  0  0  0  1  0  0  0  0  0  0
  1 18  2  0  0  0  0
  2 16  1  0  0  0  0
  4  8  1  0  0  0  0
  4  6  1  0  0  0  0
  5  7  1  0  0  0  0
  5  3  1  0  0  0  0
  6  2  1  0  0  0  0
  7  3  1  0  0  0  0
  7 19  1  0  0  0  0
  8 13  1  0  0  0  0
  9  6  1  0  0  0  0
  9 17  1  0  0  0  0
 10 14  1  0  0  0  0
 10 12  1  0  0  0  0
 11 16  1  0  0  0  0
 12 31  1  0  0  0  0
 12 21  1  0  0  0  0
 13  2  1  0  0  0  0
 13 11  1  0  0  0  0
 13 16  1  0  0  0  0
 14  9  1  0  0  0  0
 15  3  1  0  0  0  0
 16 23  1  0  0  0  0
 17  5  1  0  0  0  0
 18  4  1  0  0  0  0
 19 25  1  0  0  0  0
 20 18  1  0  0  0  0
 20 14  1  0  0  0  0
 21 17  1  0  0  0  0
 21 22  1  0  0  0  0
 22 15  1  0  0  0  0
 23 19  1  0  0  0  0
 24 30  1  0  0  0  0
 25 26  1  0  0  0  0
 25 24  2  0  0  0  0
 26 29  2  0  0  0  0
 29 27  1  0  0  0  0
 29 28  1  0  0  0  0
 30 28  2  0  0  0  0
 31 32  2  0  0  0  0
 33 31  1  0  0  0  0
 34 33  1  0  0  0  0
 35 34  2  0  0  0  0
 36 37  1  0  0  0  0
 36 35  1  0  0  0  0
M  END
>  <MODEL>
2

>  <REMARK>
 VINA RESULT:      -8.6      3.543      7.866
  Name = 
  5 active torsions:
  status: ('A' for Active; 'I' for Inactive)
    1  A    between atoms: C_1  and  C_5
    2  A    between atoms: C_1  and  C_23
    3  A    between atoms: C_5  and  C_17
    4  A    between atoms: C_6  and  C_31
    5  A    between atoms: C_11  and  C_26
                            x       y       z     vdW  Elec       q    Type
                         _______ _______ _______ _____ _____    ______ ____

>  <TORSDO>
F 5

$$$$
=
 OpenBabel10272415023D

 37 45  0  0  1  0  0  0  0  0999 V2000
  189.2720  177.6320  135.2810 O   0  0  0  0  0  0  0  0  0  0  0  0
  188.4480  177.1480  139.6740 C   0  0  1  0  0  3  0  0  0  0  0  0
  185.5080  178.9930  142.1140 C   0  0  2  0  0  3  0  0  0  0  0  0
  189.0290  177.9770  137.5820 N   0  0  0  0  0  0  0  0  0  0  0  0
  186.3410  178.9420  140.8400 C   0  0  1  0  0  3  0  0  0  0  0  0
  188.1650  178.2520  138.6990 C   0  0  1  0  0  3  0  0  0  0  0  0
  186.4970  177.8550  141.8970 C   0  0  1  0  0  3  0  0  0  0  0  0
  190.2080  177.2810  138.0810 C   0  0  0  0  0  2  0  0  0  0  0  0
  186.6710  178.4430  138.3770 C   0  0  1  0  0  3  0  0  0  0  0  0
  184.7600  177.8240  136.9140 C   0  0  0  0  0  2  0  0  0  0  0  0
  190.8640  177.2230  140.4430 C   0  0  0  0  0  2  0  0  0  0  0  0
  183.8620  177.5540  138.1360 C   0  0  2  0  0  3  0  0  0  0  0  0
  189.8540  176.6900  139.4690 C   0  0  2  0  0  0  0  0  0  0  0  0
  186.2220  177.5280  137.2460 C   0  0  1  0  0  3  0  0  0  0  0  0
  184.0130  178.6630  141.9000 C   0  0  0  0  0  2  0  0  0  0  0  0
  189.4510  177.7130  140.6140 C   0  0  2  0  0  0  0  0  0  0  0  0
  185.8140  178.1830  139.6240 C   0  0  2  0  0  3  0  0  0  0  0  0
  188.5000  177.7620  136.2670 C   0  0  0  0  0  0  0  0  0  0  0  0
  187.8620  178.0590  142.5800 C   0  0  2  0  0  3  0  0  0  0  0  0
  187.0820  177.7050  136.0810 N   0  0  0  0  0  2  0  0  0  0  0  0
  184.3200  178.3430  139.3940 C   0  0  2  0  0  3  0  0  0  0  0  0
  183.6210  177.8510  140.6600 C   0  0  0  0  0  2  0  0  0  0  0  0
  188.9720  177.1730  141.9630 C   0  0  0  0  0  2  0  0  0  0  0  0
  186.4940  177.7390  144.6460 C   0  0  0  0  0  3  0  0  0  0  0  0
  187.7600  177.8100  144.0520 C   0  0  0  0  0  0  0  0  0  0  0  0
  188.9070  177.6430  144.8420 C   0  0  0  0  0  3  0  0  0  0  0  0
  189.8950  177.2470  146.9750 F   0  0  0  0  0  0  0  0  0  0  0  0
  187.5200  177.3390  146.8030 C   0  0  0  0  0  3  0  0  0  0  0  0
  188.7860  177.4080  146.2150 C   0  0  0  0  0  0  0  0  0  0  0  0
  186.3750  177.5050  146.0190 C   0  0  0  0  0  3  0  0  0  0  0  0
  183.6920  176.0700  138.3550 C   0  0  0  0  0  0  0  0  0  0  0  0
  182.8410  175.6440  139.1220 O   0  0  0  0  0  0  0  0  0  0  0  0
  184.5570  175.1120  137.6060 C   0  0  0  0  0  2  0  0  0  0  0  0
  183.8060  173.8550  137.3280 C   0  0  0  0  0  3  0  0  0  0  0  0
  184.4570  172.7030  137.2060 C   0  0  0  0  0  3  0  0  0  0  0  0
  183.7040  171.4490  136.9270 C   0  0  0  0  0  2  0  0  0  0  0  0
  182.2560  171.7850  136.6400 C   0  0  0  0  0  1  0  0  0  0  0  0
  1 18  2  0  0  0  0
  2 16  1  0  0  0  0
  4  8  1  0  0  0  0
  4  6  1  0  0  0  0
  5  7  1  0  0  0  0
  5  3  1  0  0  0  0
  6  2  1  0  0  0  0
  7  3  1  0  0  0  0
  7 19  1  0  0  0  0
  8 13  1  0  0  0  0
  9  6  1  0  0  0  0
  9 17  1  0  0  0  0
 10 14  1  0  0  0  0
 10 12  1  0  0  0  0
 11 16  1  0  0  0  0
 12 31  1  0  0  0  0
 12 21  1  0  0  0  0
 13  2  1  0  0  0  0
 13 11  1  0  0  0  0
 13 16  1  0  0  0  0
 14  9  1  0  0  0  0
 15  3  1  0  0  0  0
 16 23  1  0  0  0  0
 17  5  1  0  0  0  0
 18  4  1  0  0  0  0
 19 25  1  0  0  0  0
 20 18  1  0  0  0  0
 20 14  1  0  0  0  0
 21 17  1  0  0  0  0
 21 22  1  0  0  0  0
 22 15  1  0  0  0  0
 23 19  1  0  0  0  0
 24 30  1  0  0  0  0
 25 24  2  0  0  0  0
 25 26  1  0  0  0  0
 26 29  2  0  0  0  0
 29 28  1  0  0  0  0
 29 27  1  0  0  0  0
 30 28  2  0  0  0  0
 31 32  2  0  0  0  0
 33 31  1  0  0  0  0
 34 33  1  0  0  0  0
 35 34  2  0  0  0  0
 36 35  1  0  0  0  0
 37 36  1  0  0  0  0
M  END
>  <MODEL>
3

>  <REMARK>
 VINA RESULT:      -8.5      3.186      7.594
  Name = 
  5 active torsions:
  status: ('A' for Active; 'I' for Inactive)
    1  A    between atoms: C_1  and  C_5
    2  A    between atoms: C_1  and  C_23
    3  A    between atoms: C_5  and  C_17
    4  A    between atoms: C_6  and  C_31
    5  A    between atoms: C_11  and  C_26
                            x       y       z     vdW  Elec       q    Type
                         _______ _______ _______ _____ _____    ______ ____

>  <TORSDO>
F 5

$$$$
=
 OpenBabel10272415023D

 37 45  0  0  1  0  0  0  0  0999 V2000
  192.1000  176.8780  137.8980 O   0  0  0  0  0  0  0  0  0  0  0  0
  188.6020  177.2230  140.7000 C   0  0  1  0  0  3  0  0  0  0  0  0
  184.8630  179.1560  140.1640 C   0  0  2  0  0  3  0  0  0  0  0  0
  190.4370  177.6630  139.3430 N   0  0  0  0  0  0  0  0  0  0  0  0
  186.3200  178.9440  139.7760 C   0  0  1  0  0  3  0  0  0  0  0  0
  189.0660  178.0560  139.5410 C   0  0  1  0  0  3  0  0  0  0  0  0
  185.7070  178.1300  140.9100 C   0  0  1  0  0  3  0  0  0  0  0  0
  190.9780  177.2400  140.6270 C   0  0  0  0  0  2  0  0  0  0  0  0
  188.1490  177.9870  138.3060 C   0  0  1  0  0  3  0  0  0  0  0  0
  187.6220  176.8410  136.1650 C   0  0  0  0  0  2  0  0  0  0  0  0
  189.9410  177.7600  142.7870 C   0  0  0  0  0  2  0  0  0  0  0  0
  186.1350  176.7220  136.5490 C   0  0  2  0  0  3  0  0  0  0  0  0
  189.7830  176.9120  141.5580 C   0  0  2  0  0  0  0  0  0  0  0  0
  188.5040  176.8070  137.4120 C   0  0  1  0  0  3  0  0  0  0  0  0
  183.8530  178.6040  139.1320 C   0  0  0  0  0  2  0  0  0  0  0  0
  188.7770  178.0930  141.8930 C   0  0  2  0  0  0  0  0  0  0  0  0
  186.6780  177.8870  138.7330 C   0  0  2  0  0  3  0  0  0  0  0  0
  190.8800  177.1130  138.0950 C   0  0  0  0  0  0  0  0  0  0  0  0
  186.3080  178.6420  142.2320 C   0  0  2  0  0  3  0  0  0  0  0  0
  189.9220  176.8420  137.0670 N   0  0  0  0  0  2  0  0  0  0  0  0
  185.6990  177.8080  137.5730 C   0  0  2  0  0  3  0  0  0  0  0  0
  184.3260  177.5080  138.1690 C   0  0  0  0  0  2  0  0  0  0  0  0
  187.5150  177.7920  142.7020 C   0  0  0  0  0  2  0  0  0  0  0  0
  183.9170  178.7860  142.9380 C   0  0  0  0  0  3  0  0  0  0  0  0
  185.2650  178.6960  143.3030 C   0  0  0  0  0  0  0  0  0  0  0  0
  185.6140  178.6520  144.6610 C   0  0  0  0  0  3  0  0  0  0  0  0
  184.9600  178.6580  146.9540 F   0  0  0  0  0  0  0  0  0  0  0  0
  183.2760  178.7910  145.2730 C   0  0  0  0  0  3  0  0  0  0  0  0
  184.6210  178.7000  145.6430 C   0  0  0  0  0  0  0  0  0  0  0  0
  182.9240  178.8350  143.9210 C   0  0  0  0  0  3  0  0  0  0  0  0
  185.8020  175.3080  136.9570 C   0  0  0  0  0  0  0  0  0  0  0  0
  186.6760  174.5470  137.3460 O   0  0  0  0  0  0  0  0  0  0  0  0
  184.3860  174.8420  136.9100 C   0  0  0  0  0  2  0  0  0  0  0  0
  184.3120  173.3920  137.2440 C   0  0  0  0  0  3  0  0  0  0  0  0
  183.4280  172.6110  136.6320 C   0  0  0  0  0  3  0  0  0  0  0  0
  183.3560  171.1630  136.9700 C   0  0  0  0  0  2  0  0  0  0  0  0
  183.9670  170.3540  135.8450 C   0  0  0  0  0  1  0  0  0  0  0  0
  1 18  2  0  0  0  0
  2 13  1  0  0  0  0
  2 16  1  0  0  0  0
  3  7  1  0  0  0  0
  4  6  1  0  0  0  0
  4  8  1  0  0  0  0
  5  3  1  0  0  0  0
  5  7  1  0  0  0  0
  6  2  1  0  0  0  0
  7 19  1  0  0  0  0
  8 13  1  0  0  0  0
  9 17  1  0  0  0  0
  9  6  1  0  0  0  0
 10 12  1  0  0  0  0
 10 14  1  0  0  0  0
 12 31  1  0  0  0  0
 12 21  1  0  0  0  0
 13 16  1  0  0  0  0
 13 11  1  0  0  0  0
 14  9  1  0  0  0  0
 15  3  1  0  0  0  0
 16 23  1  0  0  0  0
 16 11  1  0  0  0  0
 17  5  1  0  0  0  0
 18  4  1  0  0  0  0
 19 23  1  0  0  0  0
 19 25  1  0  0  0  0
 20 14  1  0  0  0  0
 20 18  1  0  0  0  0
 21 22  1  0  0  0  0
 21 17  1  0  0  0  0
 22 15  1  0  0  0  0
 24 25  2  0  0  0  0
 24 30  1  0  0  0  0
 25 26  1  0  0  0  0
 26 29  2  0  0  0  0
 28 29  1  0  0  0  0
 29 27  1  0  0  0  0
 30 28  2  0  0  0  0
 31 32  2  0  0  0  0
 33 31  1  0  0  0  0
 33 34  1  0  0  0  0
 35 36  1  0  0  0  0
 35 34  2  0  0  0  0
 37 36  1  0  0  0  0
M  END
>  <MODEL>
4

>  <REMARK>
 VINA RESULT:      -8.3      3.766      8.569
  Name = 
  5 active torsions:
  status: ('A' for Active; 'I' for Inactive)
    1  A    between atoms: C_1  and  C_5
    2  A    between atoms: C_1  and  C_23
    3  A    between atoms: C_5  and  C_17
    4  A    between atoms: C_6  and  C_31
    5  A    between atoms: C_11  and  C_26
                            x       y       z     vdW  Elec       q    Type
                         _______ _______ _______ _____ _____    ______ ____

>  <TORSDO>
F 5

$$$$
=
 OpenBabel10272415023D

 37 45  0  0  1  0  0  0  0  0999 V2000
  191.9780  177.1100  142.3790 O   0  0  0  0  0  0  0  0  0  0  0  0
  187.4870  177.2920  142.4640 C   0  0  1  0  0  3  0  0  0  0  0  0
  184.8010  179.4730  140.0080 C   0  0  2  0  0  3  0  0  0  0  0  0
  189.7510  177.7980  142.5880 N   0  0  0  0  0  0  0  0  0  0  0  0
  186.1960  179.2340  140.5710 C   0  0  1  0  0  3  0  0  0  0  0  0
  188.5360  178.2350  141.9540 C   0  0  1  0  0  3  0  0  0  0  0  0
  185.0440  178.3190  140.9730 C   0  0  1  0  0  3  0  0  0  0  0  0
  189.4040  177.1900  143.8660 C   0  0  0  0  0  2  0  0  0  0  0  0
  188.5740  178.3690  140.4200 C   0  0  1  0  0  3  0  0  0  0  0  0
  189.5120  177.5270  138.2800 C   0  0  0  0  0  2  0  0  0  0  0  0
  187.2420  177.4940  144.9820 C   0  0  0  0  0  2  0  0  0  0  0  0
  188.1080  177.4410  137.6520 C   0  0  2  0  0  3  0  0  0  0  0  0
  187.9020  176.8150  143.8160 C   0  0  2  0  0  0  0  0  0  0  0  0
  189.4430  177.2910  139.7870 C   0  0  1  0  0  3  0  0  0  0  0  0
  184.6580  179.1080  138.5120 C   0  0  0  0  0  2  0  0  0  0  0  0
  186.8620  177.9970  143.6150 C   0  0  2  0  0  0  0  0  0  0  0  0
  187.1550  178.2960  139.8390 C   0  0  2  0  0  3  0  0  0  0  0  0
  190.8860  177.3840  141.8150 C   0  0  0  0  0  0  0  0  0  0  0  0
  184.6890  178.6310  142.4380 C   0  0  2  0  0  3  0  0  0  0  0  0
  190.7710  177.2940  140.3910 N   0  0  0  0  0  2  0  0  0  0  0  0
  187.0990  178.4140  138.3250 C   0  0  2  0  0  3  0  0  0  0  0  0
  185.6600  178.1160  137.9090 C   0  0  0  0  0  2  0  0  0  0  0  0
  185.3800  177.6670  143.4320 C   0  0  0  0  0  2  0  0  0  0  0  0
  182.6910  178.7880  143.9290 C   0  0  0  0  0  3  0  0  0  0  0  0
  183.2060  178.6080  142.6400 C   0  0  0  0  0  0  0  0  0  0  0  0
  182.3280  178.4140  141.5630 C   0  0  0  0  0  3  0  0  0  0  0  0
  180.1020  178.2110  140.7350 F   0  0  0  0  0  0  0  0  0  0  0  0
  180.4380  178.5790  143.0660 C   0  0  0  0  0  3  0  0  0  0  0  0
  180.9470  178.3990  141.7760 C   0  0  0  0  0  0  0  0  0  0  0  0
  181.3090  178.7740  144.1410 C   0  0  0  0  0  3  0  0  0  0  0  0
  187.6430  176.0070  137.5820 C   0  0  0  0  0  0  0  0  0  0  0  0
  188.3000  175.1110  138.0920 O   0  0  0  0  0  0  0  0  0  0  0  0
  186.3540  175.6830  136.9030 C   0  0  0  0  0  2  0  0  0  0  0  0
  186.0450  174.2340  137.0560 C   0  0  0  0  0  3  0  0  0  0  0  0
  184.7870  173.8320  137.1950 C   0  0  0  0  0  3  0  0  0  0  0  0
  184.4820  172.3830  137.3480 C   0  0  0  0  0  2  0  0  0  0  0  0
  183.9940  171.8280  136.0260 C   0  0  0  0  0  1  0  0  0  0  0  0
  2 16  1  0  0  0  0
  2 13  1  0  0  0  0
  3  5  1  0  0  0  0
  3  7  1  0  0  0  0
  4  8  1  0  0  0  0
  5  7  1  0  0  0  0
  6  2  1  0  0  0  0
  6  4  1  0  0  0  0
  7 19  1  0  0  0  0
  9  6  1  0  0  0  0
 10 14  1  0  0  0  0
 12 10  1  0  0  0  0
 12 21  1  0  0  0  0
 13  8  1  0  0  0  0
 13 11  1  0  0  0  0
 14 20  1  0  0  0  0
 14  9  1  0  0  0  0
 15  3  1  0  0  0  0
 16 13  1  0  0  0  0
 16 11  1  0  0  0  0
 17  9  1  0  0  0  0
 17  5  1  0  0  0  0
 18  1  2  0  0  0  0
 18  4  1  0  0  0  0
 19 25  1  0  0  0  0
 19 23  1  0  0  0  0
 20 18  1  0  0  0  0
 21 17  1  0  0  0  0
 22 21  1  0  0  0  0
 22 15  1  0  0  0  0
 23 16  1  0  0  0  0
 24 30  1  0  0  0  0
 25 24  2  0  0  0  0
 26 29  2  0  0  0  0
 26 25  1  0  0  0  0
 27 29  1  0  0  0  0
 28 30  2  0  0  0  0
 29 28  1  0  0  0  0
 31 12  1  0  0  0  0
 31 32  2  0  0  0  0
 33 34  1  0  0  0  0
 33 31  1  0  0  0  0
 34 35  2  0  0  0  0
 35 36  1  0  0  0  0
 37 36  1  0  0  0  0
M  END
>  <MODEL>
5

>  <REMARK>
 VINA RESULT:      -8.0      4.024      8.919
  Name = 
  5 active torsions:
  status: ('A' for Active; 'I' for Inactive)
    1  A    between atoms: C_1  and  C_5
    2  A    between atoms: C_1  and  C_23
    3  A    between atoms: C_5  and  C_17
    4  A    between atoms: C_6  and  C_31
    5  A    between atoms: C_11  and  C_26
                            x       y       z     vdW  Elec       q    Type
                         _______ _______ _______ _____ _____    ______ ____

>  <TORSDO>
F 5

$$$$
=
 OpenBabel10272415023D

 37 45  0  0  1  0  0  0  0  0999 V2000
  189.1840  177.6710  135.3360 O   0  0  0  0  0  0  0  0  0  0  0  0
  187.3760  177.5470  139.4500 C   0  0  1  0  0  3  0  0  0  0  0  0
  183.6500  179.0320  140.8350 C   0  0  2  0  0  3  0  0  0  0  0  0
  188.3160  178.2260  137.4370 N   0  0  0  0  0  0  0  0  0  0  0  0
  184.7730  179.0020  139.8060 C   0  0  1  0  0  3  0  0  0  0  0  0
  187.1650  178.4490  138.2710 C   0  0  1  0  0  3  0  0  0  0  0  0
  184.8390  178.1000  141.0330 C   0  0  1  0  0  3  0  0  0  0  0  0
  189.4320  177.8460  138.2940 C   0  0  0  0  0  2  0  0  0  0  0  0
  185.7900  178.2950  137.5950 C   0  0  1  0  0  3  0  0  0  0  0  0
  184.4410  177.1360  135.8600 C   0  0  0  0  0  2  0  0  0  0  0  0
  189.4730  178.1990  140.7200 C   0  0  0  0  0  2  0  0  0  0  0  0
  183.3230  176.8340  136.8760 C   0  0  2  0  0  3  0  0  0  0  0  0
  188.8450  177.3620  139.6440 C   0  0  2  0  0  0  0  0  0  0  0  0
  185.8000  177.1830  136.5550 C   0  0  1  0  0  3  0  0  0  0  0  0
  182.3350  178.3840  140.3460 C   0  0  0  0  0  2  0  0  0  0  0  0
  188.0010  178.4090  140.4880 C   0  0  2  0  0  0  0  0  0  0  0  0
  184.7040  178.0140  138.6420 C   0  0  2  0  0  3  0  0  0  0  0  0
  188.1790  177.7560  136.0890 C   0  0  0  0  0  0  0  0  0  0  0  0
  185.9340  178.6550  141.9630 C   0  0  2  0  0  3  0  0  0  0  0  0
  186.8840  177.3920  135.6000 N   0  0  0  0  0  2  0  0  0  0  0  0
  183.3110  177.8410  138.0600 C   0  0  2  0  0  3  0  0  0  0  0  0
  182.4090  177.3700  139.1980 C   0  0  0  0  0  2  0  0  0  0  0  0
  187.2960  177.9450  141.7630 C   0  0  0  0  0  2  0  0  0  0  0  0
  184.2250  178.9920  143.7530 C   0  0  0  0  0  3  0  0  0  0  0  0
  185.5080  178.5640  143.3950 C   0  0  0  0  0  0  0  0  0  0  0  0
  186.3700  178.0550  144.3780 C   0  0  0  0  0  3  0  0  0  0  0  0
  186.7820  177.4860  146.6560 F   0  0  0  0  0  0  0  0  0  0  0  0
  184.6660  178.4070  146.0610 C   0  0  0  0  0  3  0  0  0  0  0  0
  185.9490  177.9780  145.7080 C   0  0  0  0  0  0  0  0  0  0  0  0
  183.8040  178.9140  145.0840 C   0  0  0  0  0  3  0  0  0  0  0  0
  183.3560  175.3830  137.2890 C   0  0  0  0  0  0  0  0  0  0  0  0
  184.0430  175.0160  138.2310 O   0  0  0  0  0  0  0  0  0  0  0  0
  182.5190  174.3900  136.5550 C   0  0  0  0  0  2  0  0  0  0  0  0
  183.3810  173.3210  135.9770 C   0  0  0  0  0  3  0  0  0  0  0  0
  184.1660  173.5870  134.9380 C   0  0  0  0  0  3  0  0  0  0  0  0
  185.0260  172.5170  134.3630 C   0  0  0  0  0  2  0  0  0  0  0  0
  184.9230  171.2730  135.2200 C   0  0  0  0  0  1  0  0  0  0  0  0
  1 18  2  0  0  0  0
  2 13  1  0  0  0  0
  2 16  1  0  0  0  0
  3  7  1  0  0  0  0
  4  6  1  0  0  0  0
  4  8  1  0  0  0  0
  5  3  1  0  0  0  0
  5  7  1  0  0  0  0
  6  2  1  0  0  0  0
  7 19  1  0  0  0  0
  8 13  1  0  0  0  0
  9  6  1  0  0  0  0
  9 17  1  0  0  0  0
 10 14  1  0  0  0  0
 10 12  1  0  0  0  0
 12 31  1  0  0  0  0
 12 21  1  0  0  0  0
 13 16  1  0  0  0  0
 13 11  1  0  0  0  0
 14  9  1  0  0  0  0
 15  3  1  0  0  0  0
 16 11  1  0  0  0  0
 16 23  1  0  0  0  0
 17  5  1  0  0  0  0
 18  4  1  0  0  0  0
 19 25  1  0  0  0  0
 20 18  1  0  0  0  0
 20 14  1  0  0  0  0
 21 17  1  0  0  0  0
 21 22  1  0  0  0  0
 22 15  1  0  0  0  0
 23 19  1  0  0  0  0
 24 30  1  0  0  0  0
 25 24  2  0  0  0  0
 25 26  1  0  0  0  0
 26 29  2  0  0  0  0
 29 28  1  0  0  0  0
 29 27  1  0  0  0  0
 30 28  2  0  0  0  0
 31 32  2  0  0  0  0
 33 31  1  0  0  0  0
 34 33  1  0  0  0  0
 35 34  2  0  0  0  0
 36 35  1  0  0  0  0
 36 37  1  0  0  0  0
M  END
>  <MODEL>
6

>  <REMARK>
 VINA RESULT:      -7.8      3.769      8.575
  Name = 
  5 active torsions:
  status: ('A' for Active; 'I' for Inactive)
    1  A    between atoms: C_1  and  C_5
    2  A    between atoms: C_1  and  C_23
    3  A    between atoms: C_5  and  C_17
    4  A    between atoms: C_6  and  C_31
    5  A    between atoms: C_11  and  C_26
                            x       y       z     vdW  Elec       q    Type
                         _______ _______ _______ _____ _____    ______ ____

>  <TORSDO>
F 5

$$$$
=
 OpenBabel10272415023D

 37 45  0  0  1  0  0  0  0  0999 V2000
  194.2690  176.7900  140.3170 O   0  0  0  0  0  0  0  0  0  0  0  0
  189.8350  177.0800  140.9980 C   0  0  1  0  0  3  0  0  0  0  0  0
  186.7880  178.6380  138.4900 C   0  0  2  0  0  3  0  0  0  0  0  0
  192.0850  177.5540  140.6660 N   0  0  0  0  0  0  0  0  0  0  0  0
  188.2530  178.5170  138.8880 C   0  0  1  0  0  3  0  0  0  0  0  0
  190.7840  177.8450  140.1250 C   0  0  1  0  0  3  0  0  0  0  0  0
  187.1860  177.7550  139.6660 C   0  0  1  0  0  3  0  0  0  0  0  0
  191.9360  177.2890  142.0910 C   0  0  0  0  0  2  0  0  0  0  0  0
  190.5980  177.5940  138.6170 C   0  0  1  0  0  3  0  0  0  0  0  0
  191.2310  176.2280  136.6400 C   0  0  0  0  0  2  0  0  0  0  0  0
  189.9520  177.9040  143.3950 C   0  0  0  0  0  2  0  0  0  0  0  0
  189.7530  176.0180  136.2630 C   0  0  2  0  0  3  0  0  0  0  0  0
  190.4480  176.9440  142.3530 C   0  0  2  0  0  0  0  0  0  0  0  0
  191.3840  176.3750  138.1530 C   0  0  1  0  0  3  0  0  0  0  0  0
  186.4370  177.9170  137.1680 C   0  0  0  0  0  2  0  0  0  0  0  0
  189.3720  178.0610  142.0150 C   0  0  2  0  0  0  0  0  0  0  0  0
  189.1110  177.4080  138.2820 C   0  0  2  0  0  3  0  0  0  0  0  0
  193.1030  176.9380  139.8660 C   0  0  0  0  0  0  0  0  0  0  0  0
  187.0410  178.4270  141.0430 C   0  0  2  0  0  3  0  0  0  0  0  0
  192.7850  176.5000  138.5400 N   0  0  0  0  0  2  0  0  0  0  0  0
  188.8350  177.1470  136.8100 C   0  0  2  0  0  3  0  0  0  0  0  0
  187.3570  176.7860  136.6930 C   0  0  0  0  0  2  0  0  0  0  0  0
  187.8840  177.7260  142.1360 C   0  0  0  0  0  2  0  0  0  0  0  0
  185.2890  178.6330  142.8110 C   0  0  0  0  0  3  0  0  0  0  0  0
  185.6040  178.4850  141.4550 C   0  0  0  0  0  0  0  0  0  0  0  0
  184.5720  178.3990  140.5090 C   0  0  0  0  0  3  0  0  0  0  0  0
  182.2420  178.3740  140.0030 F   0  0  0  0  0  0  0  0  0  0  0  0
  182.9280  178.6060  142.2740 C   0  0  0  0  0  3  0  0  0  0  0  0
  183.2370  178.4590  140.9190 C   0  0  0  0  0  0  0  0  0  0  0  0
  183.9540  178.6930  143.2200 C   0  0  0  0  0  3  0  0  0  0  0  0
  189.3050  174.6210  136.6180 C   0  0  0  0  0  0  0  0  0  0  0  0
  189.6510  174.1020  137.6700 O   0  0  0  0  0  0  0  0  0  0  0  0
  188.4110  173.8750  135.6860 C   0  0  0  0  0  2  0  0  0  0  0  0
  187.3980  173.1010  136.4580 C   0  0  0  0  0  3  0  0  0  0  0  0
  186.3760  173.7270  137.0320 C   0  0  0  0  0  3  0  0  0  0  0  0
  185.3670  172.9490  137.8030 C   0  0  0  0  0  2  0  0  0  0  0  0
  184.3520  172.3570  136.8490 C   0  0  0  0  0  1  0  0  0  0  0  0
  2 16  1  0  0  0  0
  2 13  1  0  0  0  0
  3  5  1  0  0  0  0
  3  7  1  0  0  0  0
  4  8  1  0  0  0  0
  5  7  1  0  0  0  0
  6  4  1  0  0  0  0
  6  2  1  0  0  0  0
  7 19  1  0  0  0  0
  8 13  1  0  0  0  0
  9  6  1  0  0  0  0
 10 14  1  0  0  0  0
 12 31  1  0  0  0  0
 12 10  1  0  0  0  0
 12 21  1  0  0  0  0
 13 11  1  0  0  0  0
 14 20  1  0  0  0  0
 14  9  1  0  0  0  0
 15  3  1  0  0  0  0
 16 23  1  0  0  0  0
 16 13  1  0  0  0  0
 16 11  1  0  0  0  0
 17  9  1  0  0  0  0
 17  5  1  0  0  0  0
 18  1  2  0  0  0  0
 18  4  1  0  0  0  0
 19 25  1  0  0  0  0
 19 23  1  0  0  0  0
 20 18  1  0  0  0  0
 21 17  1  0  0  0  0
 22 21  1  0  0  0  0
 22 15  1  0  0  0  0
 24 30  1  0  0  0  0
 25 24  2  0  0  0  0
 26 29  2  0  0  0  0
 26 25  1  0  0  0  0
 27 29  1  0  0  0  0
 28 30  2  0  0  0  0
 29 28  1  0  0  0  0
 31 32  2  0  0  0  0
 33 34  1  0  0  0  0
 33 31  1  0  0  0  0
 34 35  2  0  0  0  0
 35 36  1  0  0  0  0
 37 36  1  0  0  0  0
M  END
>  <MODEL>
7

>  <REMARK>
 VINA RESULT:      -7.7      3.733      8.232
  Name = 
  5 active torsions:
  status: ('A' for Active; 'I' for Inactive)
    1  A    between atoms: C_1  and  C_5
    2  A    between atoms: C_1  and  C_23
    3  A    between atoms: C_5  and  C_17
    4  A    between atoms: C_6  and  C_31
    5  A    between atoms: C_11  and  C_26
                            x       y       z     vdW  Elec       q    Type
                         _______ _______ _______ _____ _____    ______ ____

>  <TORSDO>
F 5

$$$$
=
 OpenBabel10272415023D

 37 45  0  0  1  0  0  0  0  0999 V2000
  191.9700  177.0920  142.4240 O   0  0  0  0  0  0  0  0  0  0  0  0
  187.4790  177.2850  142.4740 C   0  0  1  0  0  3  0  0  0  0  0  0
  184.8170  179.4590  139.9850 C   0  0  2  0  0  3  0  0  0  0  0  0
  189.7440  177.7870  142.6120 N   0  0  0  0  0  0  0  0  0  0  0  0
  186.2070  179.2190  140.5600 C   0  0  1  0  0  3  0  0  0  0  0  0
  188.5340  178.2230  141.9670 C   0  0  1  0  0  3  0  0  0  0  0  0
  185.0500  178.3090  140.9580 C   0  0  1  0  0  3  0  0  0  0  0  0
  189.3860  177.1860  143.8910 C   0  0  0  0  0  2  0  0  0  0  0  0
  188.5840  178.3480  140.4330 C   0  0  1  0  0  3  0  0  0  0  0  0
  189.5370  177.4930  138.3040 C   0  0  0  0  0  2  0  0  0  0  0  0
  187.2160  177.5000  144.9880 C   0  0  0  0  0  2  0  0  0  0  0  0
  188.1380  177.4070  137.6660 C   0  0  2  0  0  3  0  0  0  0  0  0
  187.8830  176.8140  143.8320 C   0  0  2  0  0  0  0  0  0  0  0  0
  189.4560  177.2660  139.8120 C   0  0  1  0  0  3  0  0  0  0  0  0
  184.6850  179.0860  138.4910 C   0  0  0  0  0  2  0  0  0  0  0  0
  186.8480  177.9970  143.6160 C   0  0  2  0  0  0  0  0  0  0  0  0
  187.1700  178.2760  139.8410 C   0  0  2  0  0  3  0  0  0  0  0  0
  190.8840  177.3660  141.8510 C   0  0  0  0  0  0  0  0  0  0  0  0
  184.6850  178.6290  142.4190 C   0  0  2  0  0  3  0  0  0  0  0  0
  190.7800  177.2680  140.4260 N   0  0  0  0  0  2  0  0  0  0  0  0
  187.1250  178.3850  138.3260 C   0  0  2  0  0  3  0  0  0  0  0  0
  185.6890  178.0880  137.9000 C   0  0  0  0  0  2  0  0  0  0  0  0
  185.3660  177.6690  143.4240 C   0  0  0  0  0  2  0  0  0  0  0  0
  182.6760  178.7940  143.8950 C   0  0  0  0  0  3  0  0  0  0  0  0
  183.2000  178.6100  142.6100 C   0  0  0  0  0  0  0  0  0  0  0  0
  182.3300  178.4170  141.5260 C   0  0  0  0  0  3  0  0  0  0  0  0
  180.1100  178.2200  140.6820 F   0  0  0  0  0  0  0  0  0  0  0  0
  180.4290  178.5900  143.0150 C   0  0  0  0  0  3  0  0  0  0  0  0
  180.9480  178.4070  141.7290 C   0  0  0  0  0  0  0  0  0  0  0  0
  181.2930  178.7830  144.0970 C   0  0  0  0  0  3  0  0  0  0  0  0
  187.6700  175.9730  137.6000 C   0  0  0  0  0  0  0  0  0  0  0  0
  186.4860  175.6950  137.7220 O   0  0  0  0  0  0  0  0  0  0  0  0
  188.6620  174.8860  137.3550 C   0  0  0  0  0  2  0  0  0  0  0  0
  189.3120  175.0740  136.0270 C   0  0  0  0  0  3  0  0  0  0  0  0
  190.6000  174.7910  135.8700 C   0  0  0  0  0  3  0  0  0  0  0  0
  191.2460  174.9820  134.5420 C   0  0  0  0  0  2  0  0  0  0  0  0
  192.5150  175.7900  134.7110 C   0  0  0  0  0  1  0  0  0  0  0  0
  2 16  1  0  0  0  0
  2 13  1  0  0  0  0
  3  5  1  0  0  0  0
  3  7  1  0  0  0  0
  4  8  1  0  0  0  0
  5  7  1  0  0  0  0
  6  2  1  0  0  0  0
  6  4  1  0  0  0  0
  7 19  1  0  0  0  0
  9  6  1  0  0  0  0
 10 14  1  0  0  0  0
 12 10  1  0  0  0  0
 12 21  1  0  0  0  0
 13  8  1  0  0  0  0
 13 11  1  0  0  0  0
 14 20  1  0  0  0  0
 14  9  1  0  0  0  0
 15  3  1  0  0  0  0
 16 13  1  0  0  0  0
 16 11  1  0  0  0  0
 17  9  1  0  0  0  0
 17  5  1  0  0  0  0
 18  1  2  0  0  0  0
 18  4  1  0  0  0  0
 19 25  1  0  0  0  0
 19 23  1  0  0  0  0
 20 18  1  0  0  0  0
 21 17  1  0  0  0  0
 22 21  1  0  0  0  0
 22 15  1  0  0  0  0
 23 16  1  0  0  0  0
 24 30  1  0  0  0  0
 25 24  2  0  0  0  0
 26 29  2  0  0  0  0
 26 25  1  0  0  0  0
 27 29  1  0  0  0  0
 28 30  2  0  0  0  0
 29 28  1  0  0  0  0
 31 12  1  0  0  0  0
 31 32  2  0  0  0  0
 33 31  1  0  0  0  0
 34 33  1  0  0  0  0
 35 34  2  0  0  0  0
 36 37  1  0  0  0  0
 36 35  1  0  0  0  0
M  END
>  <MODEL>
8

>  <REMARK>
 VINA RESULT:      -7.6      3.872      8.991
  Name = 
  5 active torsions:
  status: ('A' for Active; 'I' for Inactive)
    1  A    between atoms: C_1  and  C_5
    2  A    between atoms: C_1  and  C_23
    3  A    between atoms: C_5  and  C_17
    4  A    between atoms: C_6  and  C_31
    5  A    between atoms: C_11  and  C_26
                            x       y       z     vdW  Elec       q    Type
                         _______ _______ _______ _____ _____    ______ ____

>  <TORSDO>
F 5

$$$$
=
 OpenBabel10272415023D

 37 45  0  0  1  0  0  0  0  0999 V2000
  192.9770  176.6510  139.0170 O   0  0  0  0  0  0  0  0  0  0  0  0
  188.9750  177.0830  141.0180 C   0  0  1  0  0  3  0  0  0  0  0  0
  185.5040  179.1650  139.7460 C   0  0  2  0  0  3  0  0  0  0  0  0
  191.0710  177.4750  140.0930 N   0  0  0  0  0  0  0  0  0  0  0  0
  187.0020  178.9050  139.6720 C   0  0  1  0  0  3  0  0  0  0  0  0
  189.7040  177.9160  140.0050 C   0  0  1  0  0  3  0  0  0  0  0  0
  186.1340  178.0960  140.6290 C   0  0  1  0  0  3  0  0  0  0  0  0
  191.3110  177.0100  141.4530 C   0  0  0  0  0  2  0  0  0  0  0  0
  189.0700  177.9030  138.6020 C   0  0  1  0  0  3  0  0  0  0  0  0
  188.9740  176.8130  136.3710 C   0  0  0  0  0  2  0  0  0  0  0  0
  189.8540  177.5330  143.3550 C   0  0  0  0  0  2  0  0  0  0  0  0
  187.4360  176.7450  136.4270 C   0  0  2  0  0  3  0  0  0  0  0  0
  189.9350  176.7130  142.1000 C   0  0  2  0  0  0  0  0  0  0  0  0
  189.5680  176.7250  137.7750 C   0  0  1  0  0  3  0  0  0  0  0  0
  184.7200  178.6690  138.5090 C   0  0  0  0  0  2  0  0  0  0  0  0
  188.9200  177.9260  142.2410 C   0  0  2  0  0  0  0  0  0  0  0  0
  187.5390  177.8520  138.7030 C   0  0  2  0  0  3  0  0  0  0  0  0
  191.7520  176.9290  138.9560 C   0  0  0  0  0  0  0  0  0  0  0  0
  186.4560  178.5630  142.0610 C   0  0  2  0  0  3  0  0  0  0  0  0
  191.0270  176.7120  137.7410 N   0  0  0  0  0  2  0  0  0  0  0  0
  186.8290  177.8290  137.3600 C   0  0  2  0  0  3  0  0  0  0  0  0
  185.3500  177.5720  137.6430 C   0  0  0  0  0  2  0  0  0  0  0  0
  187.5050  177.6600  142.7560 C   0  0  0  0  0  2  0  0  0  0  0  0
  185.3190  178.6990  144.2800 C   0  0  0  0  0  3  0  0  0  0  0  0
  185.2100  178.6380  142.8860 C   0  0  0  0  0  0  0  0  0  0  0  0
  183.9410  178.6540  142.2870 C   0  0  0  0  0  3  0  0  0  0  0  0
  181.5690  178.7440  142.4990 F   0  0  0  0  0  0  0  0  0  0  0  0
  182.9060  178.7890  144.4710 C   0  0  0  0  0  3  0  0  0  0  0  0
  182.7920  178.7290  143.0790 C   0  0  0  0  0  0  0  0  0  0  0  0
  184.1680  178.7740  145.0710 C   0  0  0  0  0  3  0  0  0  0  0  0
  186.9760  175.3380  136.7200 C   0  0  0  0  0  0  0  0  0  0  0  0
  187.0860  174.8650  137.8420 O   0  0  0  0  0  0  0  0  0  0  0  0
  186.3560  174.5240  135.6340 C   0  0  0  0  0  2  0  0  0  0  0  0
  184.8830  174.7440  135.6070 C   0  0  0  0  0  3  0  0  0  0  0  0
  184.3550  175.6190  134.7580 C   0  0  0  0  0  3  0  0  0  0  0  0
  182.8820  175.8360  134.7340 C   0  0  0  0  0  2  0  0  0  0  0  0
  182.5750  177.2540  135.1680 C   0  0  0  0  0  1  0  0  0  0  0  0
  2 13  1  0  0  0  0
  2 16  1  0  0  0  0
  3  7  1  0  0  0  0
  4  8  1  0  0  0  0
  5  3  1  0  0  0  0
  5  7  1  0  0  0  0
  6  4  1  0  0  0  0
  6  2  1  0  0  0  0
  7 19  1  0  0  0  0
  8 13  1  0  0  0  0
  9 17  1  0  0  0  0
  9  6  1  0  0  0  0
 10 12  1  0  0  0  0
 10 14  1  0  0  0  0
 12 31  1  0  0  0  0
 12 21  1  0  0  0  0
 13 16  1  0  0  0  0
 13 11  1  0  0  0  0
 14  9  1  0  0  0  0
 15  3  1  0  0  0  0
 16 23  1  0  0  0  0
 16 11  1  0  0  0  0
 17  5  1  0  0  0  0
 18  1  2  0  0  0  0
 18  4  1  0  0  0  0
 19 23  1  0  0  0  0
 19 25  1  0  0  0  0
 20 14  1  0  0  0  0
 20 18  1  0  0  0  0
 21 22  1  0  0  0  0
 21 17  1  0  0  0  0
 22 15  1  0  0  0  0
 24 30  1  0  0  0  0
 25 24  2  0  0  0  0
 26 25  1  0  0  0  0
 26 29  2  0  0  0  0
 27 29  1  0  0  0  0
 28 30  2  0  0  0  0
 29 28  1  0  0  0  0
 31 32  2  0  0  0  0
 33 31  1  0  0  0  0
 34 33  1  0  0  0  0
 35 34  2  0  0  0  0
 36 35  1  0  0  0  0
 36 37  1  0  0  0  0
M  END
>  <MODEL>
9

>  <REMARK>
 VINA RESULT:      -7.4      3.726      8.676
  Name = 
  5 active torsions:
  status: ('A' for Active; 'I' for Inactive)
    1  A    between atoms: C_1  and  C_5
    2  A    between atoms: C_1  and  C_23
    3  A    between atoms: C_5  and  C_17
    4  A    between atoms: C_6  and  C_31
    5  A    between atoms: C_11  and  C_26
                            x       y       z     vdW  Elec       q    Type
                         _______ _______ _______ _____ _____    ______ ____

>  <TORSDO>
F 5

$$$$
