=
 OpenBabel10272400583D

 27 31  0  0  1  0  0  0  0  0999 V2000
  189.8940  176.5450  140.8490 O   0  0  0  0  0  0  0  0  0  0  0  0
  188.2940  178.0460  141.7280 C   0  0  0  0  0  0  0  0  0  0  0  0
  187.8280  178.3160  139.2490 N   0  0  0  0  0  2  0  0  0  0  0  0
  183.8830  178.6400  142.8140 C   0  0  0  0  0  3  0  0  0  0  0  0
  182.5270  178.9240  140.7320 C   0  0  0  0  0  1  0  0  0  0  0  0
  187.5760  178.0390  142.8780 N   0  0  0  0  0  0  0  0  0  0  0  0
  185.0200  178.6370  140.5270 C   0  0  0  0  0  0  0  0  0  0  0  0
  188.8920  178.1100  136.1710 C   0  0  0  0  0  2  0  0  0  0  0  0
  184.9340  178.7780  139.0390 C   0  0  0  0  0  1  0  0  0  0  0  0
  188.4390  176.7420  136.6960 C   0  0  0  0  0  2  0  0  0  0  0  0
  186.1910  178.4230  141.1410 C   0  0  0  0  0  0  0  0  0  0  0  0
  189.7450  177.6830  141.6480 C   0  0  1  0  0  3  0  0  0  0  0  0
  183.8290  178.7210  141.3430 N   0  0  0  0  0  0  0  0  0  0  0  0
  185.2710  178.3570  143.3400 C   0  0  0  0  0  3  0  0  0  0  0  0
  190.7730  176.9360  139.8390 C   0  0  0  0  0  2  0  0  0  0  0  0
  187.4690  178.2850  140.6360 C   0  0  0  0  0  0  0  0  0  0  0  0
  188.9420  179.1810  137.2810 C   0  0  0  0  0  2  0  0  0  0  0  0
  186.3050  178.2810  142.5040 C   0  0  0  0  0  0  0  0  0  0  0  0
  189.3660  176.2150  137.8030 C   0  0  0  0  0  2  0  0  0  0  0  0
  190.0280  177.3580  138.5780 C   0  0  1  0  0  3  0  0  0  0  0  0
  189.1480  178.6120  138.6940 C   0  0  2  0  0  3  0  0  0  0  0  0
  191.5960  177.0650  145.4820 C   0  0  0  0  0  3  0  0  0  0  0  0
  190.3740  177.4770  142.9950 C   0  0  0  0  0  0  0  0  0  0  0  0
  190.8650  176.2120  143.3360 C   0  0  0  0  0  3  0  0  0  0  0  0
  191.4740  176.0050  144.5780 C   0  0  0  0  0  3  0  0  0  0  0  0
  191.1130  178.3310  145.1450 C   0  0  0  0  0  3  0  0  0  0  0  0
  190.5040  178.5390  143.9030 C   0  0  0  0  0  3  0  0  0  0  0  0
  1 12  1  0  0  0  0
  2  6  1  0  0  0  0
  3 16  1  0  0  0  0
  4 14  2  0  0  0  0
  5 13  1  0  0  0  0
  7 11  2  0  0  0  0
  7 13  1  0  0  0  0
  8 10  1  0  0  0  0
  8 17  1  0  0  0  0
  9  7  1  0  0  0  0
 10 19  1  0  0  0  0
 11 18  1  0  0  0  0
 12  2  1  0  0  0  0
 12 23  1  1  0  0  0
 13  4  1  0  0  0  0
 15  1  1  0  0  0  0
 16 11  1  0  0  0  0
 16  2  2  0  0  0  0
 18  6  2  0  0  0  0
 18 14  1  0  0  0  0
 20 19  1  1  0  0  0
 20 21  1  0  0  0  0
 20 15  1  0  0  0  0
 21 17  1  6  0  0  0
 21  3  1  0  0  0  0
 23 24  2  0  0  0  0
 23 27  1  0  0  0  0
 24 25  1  0  0  0  0
 25 22  2  0  0  0  0
 26 22  1  0  0  0  0
 27 26  2  0  0  0  0
M  END
>  <MODEL>
1

>  <REMARK>
 VINA RESULT:      -9.2      0.000      0.000
  Name = 
  1 active torsions:
  status: ('A' for Active; 'I' for Inactive)
    1  A    between atoms: C_9  and  C_15
                            x       y       z     vdW  Elec       q    Type
                         _______ _______ _______ _____ _____    ______ ____

>  <TORSDO>
F 1

$$$$
=
 OpenBabel10272400583D

 27 31  0  0  1  0  0  0  0  0999 V2000
  190.1550  178.3030  140.7120 O   0  0  0  0  0  0  0  0  0  0  0  0
  187.9230  177.6810  141.1730 C   0  0  0  0  0  0  0  0  0  0  0  0
  188.9900  177.1700  143.4180 N   0  0  0  0  0  2  0  0  0  0  0  0
  183.9820  178.9620  143.1270 C   0  0  0  0  0  3  0  0  0  0  0  0
  184.1880  178.8370  145.6160 C   0  0  0  0  0  1  0  0  0  0  0  0
  186.7350  178.1550  140.7240 N   0  0  0  0  0  0  0  0  0  0  0  0
  186.1490  178.1410  144.1990 C   0  0  0  0  0  0  0  0  0  0  0  0
  191.6650  176.4220  145.1300 C   0  0  0  0  0  2  0  0  0  0  0  0
  186.9310  177.7820  145.4240 C   0  0  0  0  0  1  0  0  0  0  0  0
  191.5780  177.9300  144.8650 C   0  0  0  0  0  2  0  0  0  0  0  0
  186.6730  178.0110  142.9730 C   0  0  0  0  0  0  0  0  0  0  0  0
  189.1180  177.4610  140.2990 C   0  0  1  0  0  3  0  0  0  0  0  0
  184.8000  178.6490  144.3120 N   0  0  0  0  0  0  0  0  0  0  0  0
  184.7360  178.7990  141.8280 C   0  0  0  0  0  3  0  0  0  0  0  0
  191.2180  177.4430  140.9920 C   0  0  0  0  0  2  0  0  0  0  0  0
  187.9160  177.5750  142.5580 C   0  0  0  0  0  0  0  0  0  0  0  0
  190.6040  175.6220  144.3440 C   0  0  0  0  0  2  0  0  0  0  0  0
  185.9860  178.3380  141.8290 C   0  0  0  0  0  0  0  0  0  0  0  0
  191.7600  178.2630  143.3750 C   0  0  0  0  0  2  0  0  0  0  0  0
  191.2960  177.1110  142.4770 C   0  0  1  0  0  3  0  0  0  0  0  0
  190.1200  176.3130  143.0610 C   0  0  2  0  0  3  0  0  0  0  0  0
  188.3260  178.0360  136.1100 C   0  0  0  0  0  3  0  0  0  0  0  0
  188.8220  177.6540  138.8400 C   0  0  0  0  0  0  0  0  0  0  0  0
  189.1250  178.8790  138.2350 C   0  0  0  0  0  3  0  0  0  0  0  0
  188.8760  179.0700  136.8720 C   0  0  0  0  0  3  0  0  0  0  0  0
  188.0260  176.8090  136.7070 C   0  0  0  0  0  3  0  0  0  0  0  0
  188.2750  176.6170  138.0690 C   0  0  0  0  0  3  0  0  0  0  0  0
  1 15  1  0  0  0  0
  2 16  2  0  0  0  0
  4 13  1  0  0  0  0
  6  2  1  0  0  0  0
  6 18  2  0  0  0  0
  7 13  1  0  0  0  0
  7  9  1  0  0  0  0
 10  8  1  0  0  0  0
 11  7  2  0  0  0  0
 12 23  1  6  0  0  0
 12  1  1  0  0  0  0
 12  2  1  0  0  0  0
 13  5  1  0  0  0  0
 14 18  1  0  0  0  0
 14  4  2  0  0  0  0
 16 11  1  0  0  0  0
 16  3  1  0  0  0  0
 17  8  1  0  0  0  0
 18 11  1  0  0  0  0
 19 10  1  0  0  0  0
 20 15  1  6  0  0  0
 20 21  1  0  0  0  0
 20 19  1  0  0  0  0
 21  3  1  0  0  0  0
 21 17  1  1  0  0  0
 22 26  2  0  0  0  0
 22 25  1  0  0  0  0
 24 23  1  0  0  0  0
 25 24  2  0  0  0  0
 26 27  1  0  0  0  0
 27 23  2  0  0  0  0
M  END
>  <MODEL>
2

>  <REMARK>
 VINA RESULT:      -8.4      1.397      5.497
  Name = 
  1 active torsions:
  status: ('A' for Active; 'I' for Inactive)
    1  A    between atoms: C_9  and  C_15
                            x       y       z     vdW  Elec       q    Type
                         _______ _______ _______ _____ _____    ______ ____

>  <TORSDO>
F 1

$$$$
=
 OpenBabel10272400583D

 27 31  0  0  1  0  0  0  0  0999 V2000
  186.7400  177.2020  143.6230 O   0  0  0  0  0  0  0  0  0  0  0  0
  186.7190  178.4580  141.6220 C   0  0  0  0  0  0  0  0  0  0  0  0
  189.2170  178.1080  141.8900 N   0  0  0  0  0  2  0  0  0  0  0  0
  186.9920  178.2700  137.0530 C   0  0  0  0  0  3  0  0  0  0  0  0
  189.3530  177.8180  136.3610 C   0  0  0  0  0  1  0  0  0  0  0  0
  185.8300  178.5260  140.6000 N   0  0  0  0  0  0  0  0  0  0  0  0
  188.8300  178.0540  138.8120 C   0  0  0  0  0  0  0  0  0  0  0  0
  191.7590  177.5230  143.8510 C   0  0  0  0  0  2  0  0  0  0  0  0
  190.2740  177.8670  139.1590 C   0  0  0  0  0  1  0  0  0  0  0  0
  191.0330  176.2240  143.4770 C   0  0  0  0  0  2  0  0  0  0  0  0
  187.9020  178.2330  139.7620 C   0  0  0  0  0  0  0  0  0  0  0  0
  186.3270  178.4170  143.0660 C   0  0  1  0  0  3  0  0  0  0  0  0
  188.3970  178.0360  137.4330 N   0  0  0  0  0  0  0  0  0  0  0  0
  186.0740  178.4130  138.2430 C   0  0  0  0  0  3  0  0  0  0  0  0
  187.5570  177.5640  144.6950 C   0  0  0  0  0  2  0  0  0  0  0  0
  188.0090  178.2820  141.1380 C   0  0  0  0  0  0  0  0  0  0  0  0
  190.9870  178.7810  143.3980 C   0  0  0  0  0  2  0  0  0  0  0  0
  186.5670  178.4000  139.4800 C   0  0  0  0  0  0  0  0  0  0  0  0
  189.6280  176.1510  144.0960 C   0  0  0  0  0  2  0  0  0  0  0  0
  189.0310  177.5460  144.3100 C   0  0  1  0  0  3  0  0  0  0  0  0
  189.4720  178.5710  143.2540 C   0  0  2  0  0  3  0  0  0  0  0  0
  182.1290  179.0870  143.7210 C   0  0  0  0  0  3  0  0  0  0  0  0
  184.8580  178.6330  143.2840 C   0  0  0  0  0  0  0  0  0  0  0  0
  184.3930  178.9380  144.5680 C   0  0  0  0  0  3  0  0  0  0  0  0
  183.0300  179.1630  144.7870 C   0  0  0  0  0  3  0  0  0  0  0  0
  182.5880  178.7880  142.4360 C   0  0  0  0  0  3  0  0  0  0  0  0
  183.9500  178.5630  142.2160 C   0  0  0  0  0  3  0  0  0  0  0  0
  1 15  1  0  0  0  0
  2 12  1  0  0  0  0
  3 21  1  0  0  0  0
  4 13  1  0  0  0  0
  4 14  2  0  0  0  0
  5 13  1  0  0  0  0
  6  2  1  0  0  0  0
  7  9  1  0  0  0  0
  7 11  2  0  0  0  0
 10  8  1  0  0  0  0
 10 19  1  0  0  0  0
 11 16  1  0  0  0  0
 12 23  1  6  0  0  0
 12  1  1  0  0  0  0
 13  7  1  0  0  0  0
 14 18  1  0  0  0  0
 16  2  2  0  0  0  0
 16  3  1  0  0  0  0
 17  8  1  0  0  0  0
 18 11  1  0  0  0  0
 18  6  2  0  0  0  0
 20 19  1  6  0  0  0
 20 15  1  0  0  0  0
 21 17  1  6  0  0  0
 21 20  1  0  0  0  0
 22 25  1  0  0  0  0
 23 24  1  0  0  0  0
 24 25  2  0  0  0  0
 26 22  2  0  0  0  0
 27 26  1  0  0  0  0
 27 23  2  0  0  0  0
M  END
>  <MODEL>
3

>  <REMARK>
 VINA RESULT:      -8.2      1.649      5.979
  Name = 
  1 active torsions:
  status: ('A' for Active; 'I' for Inactive)
    1  A    between atoms: C_9  and  C_15
                            x       y       z     vdW  Elec       q    Type
                         _______ _______ _______ _____ _____    ______ ____

>  <TORSDO>
F 1

$$$$
=
 OpenBabel10272400583D

 27 31  0  0  1  0  0  0  0  0999 V2000
  188.5200  176.6670  142.3660 O   0  0  0  0  0  0  0  0  0  0  0  0
  186.7780  178.2480  142.5820 C   0  0  0  0  0  0  0  0  0  0  0  0
  187.2180  178.4220  140.0890 N   0  0  0  0  0  2  0  0  0  0  0  0
  182.2940  179.0110  142.0360 C   0  0  0  0  0  3  0  0  0  0  0  0
  181.7620  179.2420  139.6030 C   0  0  0  0  0  1  0  0  0  0  0  0
  185.7050  178.3120  143.4080 N   0  0  0  0  0  0  0  0  0  0  0  0
  184.1560  178.8770  140.2930 C   0  0  0  0  0  0  0  0  0  0  0  0
  189.2780  178.0530  137.5860 C   0  0  0  0  0  2  0  0  0  0  0  0
  184.6000  178.9550  138.8660 C   0  0  0  0  0  1  0  0  0  0  0  0
  188.6150  176.7220  137.9620 C   0  0  0  0  0  2  0  0  0  0  0  0
  185.0300  178.6570  141.2850 C   0  0  0  0  0  0  0  0  0  0  0  0
  188.1490  177.8420  143.0270 C   0  0  1  0  0  3  0  0  0  0  0  0
  182.7600  179.0290  140.6380 N   0  0  0  0  0  0  0  0  0  0  0  0
  183.3990  178.7130  143.0230 C   0  0  0  0  0  3  0  0  0  0  0  0
  189.7120  176.9890  141.7160 C   0  0  0  0  0  2  0  0  0  0  0  0
  186.3970  178.4620  141.2640 C   0  0  0  0  0  0  0  0  0  0  0  0
  188.9820  179.1690  138.6100 C   0  0  0  0  0  2  0  0  0  0  0  0
  184.6550  178.5730  142.6050 C   0  0  0  0  0  0  0  0  0  0  0  0
  189.0750  176.2180  139.3390 C   0  0  0  0  0  2  0  0  0  0  0  0
  189.4720  177.3760  140.2620 C   0  0  1  0  0  3  0  0  0  0  0  0
  188.6590  178.6580  140.0220 C   0  0  2  0  0  3  0  0  0  0  0  0
  188.4270  177.3270  147.2880 C   0  0  0  0  0  3  0  0  0  0  0  0
  188.2610  177.6780  144.5150 C   0  0  0  0  0  0  0  0  0  0  0  0
  187.0950  177.6120  145.2860 C   0  0  0  0  0  3  0  0  0  0  0  0
  187.1770  177.4380  146.6710 C   0  0  0  0  0  3  0  0  0  0  0  0
  189.5940  177.3870  146.5230 C   0  0  0  0  0  3  0  0  0  0  0  0
  189.5120  177.5610  145.1380 C   0  0  0  0  0  3  0  0  0  0  0  0
  1 12  1  0  0  0  0
  2 12  1  0  0  0  0
  2  6  1  0  0  0  0
  3 16  1  0  0  0  0
  4 14  2  0  0  0  0
  5 13  1  0  0  0  0
  7 13  1  0  0  0  0
  7 11  2  0  0  0  0
  8 10  1  0  0  0  0
  8 17  1  0  0  0  0
  9  7  1  0  0  0  0
 10 19  1  0  0  0  0
 11 18  1  0  0  0  0
 12 23  1  1  0  0  0
 13  4  1  0  0  0  0
 15  1  1  0  0  0  0
 16 11  1  0  0  0  0
 16  2  2  0  0  0  0
 18 14  1  0  0  0  0
 18  6  2  0  0  0  0
 20 19  1  6  0  0  0
 20 15  1  0  0  0  0
 21 17  1  6  0  0  0
 21  3  1  0  0  0  0
 21 20  1  0  0  0  0
 23 27  2  0  0  0  0
 23 24  1  0  0  0  0
 24 25  2  0  0  0  0
 25 22  1  0  0  0  0
 26 22  2  0  0  0  0
 27 26  1  0  0  0  0
M  END
>  <MODEL>
4

>  <REMARK>
 VINA RESULT:      -8.2      1.713      2.157
  Name = 
  1 active torsions:
  status: ('A' for Active; 'I' for Inactive)
    1  A    between atoms: C_9  and  C_15
                            x       y       z     vdW  Elec       q    Type
                         _______ _______ _______ _____ _____    ______ ____

>  <TORSDO>
F 1

$$$$
=
 OpenBabel10272400583D

 27 31  0  0  1  0  0  0  0  0999 V2000
  187.0840  177.3010  142.9620 O   0  0  0  0  0  0  0  0  0  0  0  0
  187.8980  178.1070  140.8960 C   0  0  0  0  0  0  0  0  0  0  0  0
  190.0720  177.9640  142.1950 N   0  0  0  0  0  2  0  0  0  0  0  0
  189.9560  176.9820  136.9600 C   0  0  0  0  0  3  0  0  0  0  0  0
  192.3820  176.5300  137.3700 C   0  0  0  0  0  1  0  0  0  0  0  0
  187.4900  177.9100  139.6180 N   0  0  0  0  0  0  0  0  0  0  0  0
  190.9370  177.2440  139.3030 C   0  0  0  0  0  0  0  0  0  0  0  0
  191.6070  177.9470  145.0750 C   0  0  0  0  0  2  0  0  0  0  0  0
  192.1180  177.2160  140.2220 C   0  0  0  0  0  1  0  0  0  0  0  0
  191.0480  176.5600  144.7330 C   0  0  0  0  0  2  0  0  0  0  0  0
  189.7140  177.5660  139.7480 C   0  0  0  0  0  0  0  0  0  0  0  0
  186.9640  178.3470  142.0410 C   0  0  1  0  0  3  0  0  0  0  0  0
  191.0860  176.9140  137.9040 N   0  0  0  0  0  0  0  0  0  0  0  0
  188.6450  177.3200  137.6320 C   0  0  0  0  0  3  0  0  0  0  0  0
  187.4190  177.9250  144.1640 C   0  0  0  0  0  2  0  0  0  0  0  0
  189.2680  177.9070  141.0100 C   0  0  0  0  0  0  0  0  0  0  0  0
  191.1190  179.0360  144.0960 C   0  0  0  0  0  2  0  0  0  0  0  0
  188.6070  177.5940  138.9340 C   0  0  0  0  0  0  0  0  0  0  0  0
  189.5120  176.5380  144.7480 C   0  0  0  0  0  2  0  0  0  0  0  0
  188.9230  177.9110  144.4050 C   0  0  1  0  0  3  0  0  0  0  0  0
  189.7800  178.7150  143.4150 C   0  0  2  0  0  3  0  0  0  0  0  0
  182.8630  178.8750  140.8570 C   0  0  0  0  0  3  0  0  0  0  0  0
  185.5370  178.5210  141.6100 C   0  0  0  0  0  0  0  0  0  0  0  0
  184.5080  178.2380  142.5160 C   0  0  0  0  0  3  0  0  0  0  0  0
  183.1730  178.4130  142.1400 C   0  0  0  0  0  3  0  0  0  0  0  0
  183.8850  179.1640  139.9510 C   0  0  0  0  0  3  0  0  0  0  0  0
  185.2210  178.9890  140.3260 C   0  0  0  0  0  3  0  0  0  0  0  0
  1 15  1  0  0  0  0
  2 16  2  0  0  0  0
  2 12  1  0  0  0  0
  3 21  1  0  0  0  0
  4 14  2  0  0  0  0
  4 13  1  0  0  0  0
  5 13  1  0  0  0  0
  6  2  1  0  0  0  0
  7 11  2  0  0  0  0
  7  9  1  0  0  0  0
 10 19  1  0  0  0  0
 10  8  1  0  0  0  0
 11 16  1  0  0  0  0
 12 23  1  6  0  0  0
 12  1  1  0  0  0  0
 13  7  1  0  0  0  0
 14 18  1  0  0  0  0
 16  3  1  0  0  0  0
 17  8  1  0  0  0  0
 18  6  2  0  0  0  0
 18 11  1  0  0  0  0
 20 15  1  6  0  0  0
 20 19  1  0  0  0  0
 21 17  1  1  0  0  0
 21 20  1  0  0  0  0
 22 25  1  0  0  0  0
 23 24  1  0  0  0  0
 25 24  2  0  0  0  0
 26 27  1  0  0  0  0
 26 22  2  0  0  0  0
 27 23  2  0  0  0  0
M  END
>  <MODEL>
5

>  <REMARK>
 VINA RESULT:      -7.8      1.611      6.665
  Name = 
  1 active torsions:
  status: ('A' for Active; 'I' for Inactive)
    1  A    between atoms: C_9  and  C_15
                            x       y       z     vdW  Elec       q    Type
                         _______ _______ _______ _____ _____    ______ ____

>  <TORSDO>
F 1

$$$$
=
 OpenBabel10272400583D

 27 31  0  0  1  0  0  0  0  0999 V2000
  191.7440  177.5870  140.4370 O   0  0  0  0  0  0  0  0  0  0  0  0
  189.6230  176.9820  139.5890 C   0  0  0  0  0  0  0  0  0  0  0  0
  189.0000  177.4930  141.9940 N   0  0  0  0  0  2  0  0  0  0  0  0
  185.6090  178.5380  138.0210 C   0  0  0  0  0  3  0  0  0  0  0  0
  184.2380  179.4150  139.9200 C   0  0  0  0  0  1  0  0  0  0  0  0
  189.0580  177.1270  138.3650 N   0  0  0  0  0  0  0  0  0  0  0  0
  186.4950  178.4130  140.4130 C   0  0  0  0  0  0  0  0  0  0  0  0
  189.9040  177.7340  145.1200 C   0  0  0  0  0  2  0  0  0  0  0  0
  186.2960  178.6380  141.8790 C   0  0  0  0  0  1  0  0  0  0  0  0
  190.2640  179.0020  144.3370 C   0  0  0  0  0  2  0  0  0  0  0  0
  187.6220  177.8660  139.9370 C   0  0  0  0  0  0  0  0  0  0  0  0
  191.0410  176.5540  139.8070 C   0  0  1  0  0  3  0  0  0  0  0  0
  185.4700  178.7920  139.4660 N   0  0  0  0  0  0  0  0  0  0  0  0
  186.9530  177.9550  137.6500 C   0  0  0  0  0  3  0  0  0  0  0  0
  192.2460  177.0110  141.6040 C   0  0  0  0  0  2  0  0  0  0  0  0
  188.7600  177.4250  140.5830 C   0  0  0  0  0  0  0  0  0  0  0  0
  189.4170  176.5930  144.2020 C   0  0  0  0  0  2  0  0  0  0  0  0
  187.8400  177.6530  138.5970 C   0  0  0  0  0  0  0  0  0  0  0  0
  191.3670  178.7440  143.2990 C   0  0  0  0  0  2  0  0  0  0  0  0
  191.3490  177.2940  142.8020 C   0  0  1  0  0  3  0  0  0  0  0  0
  189.9420  176.6780  142.7610 C   0  0  2  0  0  3  0  0  0  0  0  0
  193.0690  175.3490  136.2100 C   0  0  0  0  0  3  0  0  0  0  0  0
  191.7300  176.1330  138.5420 C   0  0  0  0  0  0  0  0  0  0  0  0
  192.8560  176.8400  138.1060 C   0  0  0  0  0  3  0  0  0  0  0  0
  193.5240  176.4500  136.9410 C   0  0  0  0  0  3  0  0  0  0  0  0
  191.9490  174.6350  136.6430 C   0  0  0  0  0  3  0  0  0  0  0  0
  191.2800  175.0250  137.8080 C   0  0  0  0  0  3  0  0  0  0  0  0
  1 15  1  0  0  0  0
  2 12  1  0  0  0  0
  2 16  2  0  0  0  0
  3 21  1  0  0  0  0
  4 13  1  0  0  0  0
  6 18  2  0  0  0  0
  6  2  1  0  0  0  0
  7  9  1  0  0  0  0
 10  8  1  0  0  0  0
 11  7  2  0  0  0  0
 11 16  1  0  0  0  0
 12 23  1  6  0  0  0
 12  1  1  0  0  0  0
 13  5  1  0  0  0  0
 13  7  1  0  0  0  0
 14  4  2  0  0  0  0
 14 18  1  0  0  0  0
 16  3  1  0  0  0  0
 17  8  1  0  0  0  0
 18 11  1  0  0  0  0
 19 10  1  0  0  0  0
 20 15  1  6  0  0  0
 20 19  1  0  0  0  0
 21 20  1  0  0  0  0
 21 17  1  1  0  0  0
 22 26  2  0  0  0  0
 22 25  1  0  0  0  0
 24 23  1  0  0  0  0
 25 24  2  0  0  0  0
 26 27  1  0  0  0  0
 27 23  2  0  0  0  0
M  END
>  <MODEL>
6

>  <REMARK>
 VINA RESULT:      -7.3      1.977      5.424
  Name = 
  1 active torsions:
  status: ('A' for Active; 'I' for Inactive)
    1  A    between atoms: C_9  and  C_15
                            x       y       z     vdW  Elec       q    Type
                         _______ _______ _______ _____ _____    ______ ____

>  <TORSDO>
F 1

$$$$
=
 OpenBabel10272400583D

 27 31  0  0  1  0  0  0  0  0999 V2000
  187.6720  178.7080  141.4600 O   0  0  0  0  0  0  0  0  0  0  0  0
  186.5670  177.9330  143.3990 C   0  0  0  0  0  0  0  0  0  0  0  0
  188.9090  177.0700  143.8570 N   0  0  0  0  0  2  0  0  0  0  0  0
  185.7780  178.7010  147.8460 C   0  0  0  0  0  3  0  0  0  0  0  0
  187.8180  178.1430  149.1800 C   0  0  0  0  0  1  0  0  0  0  0  0
  185.5360  178.4360  144.1210 N   0  0  0  0  0  0  0  0  0  0  0  0
  187.8600  177.7820  146.6890 C   0  0  0  0  0  0  0  0  0  0  0  0
  191.8110  176.1260  142.7020 C   0  0  0  0  0  2  0  0  0  0  0  0
  189.2530  177.2390  146.7710 C   0  0  0  0  0  1  0  0  0  0  0  0
  191.7280  177.6540  142.8180 C   0  0  0  0  0  2  0  0  0  0  0  0
  187.2220  177.8920  145.5160 C   0  0  0  0  0  0  0  0  0  0  0  0
  186.6080  177.9160  141.9030 C   0  0  1  0  0  3  0  0  0  0  0  0
  187.1670  178.2120  147.8830 N   0  0  0  0  0  0  0  0  0  0  0  0
  185.2230  178.8000  146.4440 C   0  0  0  0  0  3  0  0  0  0  0  0
  188.4490  177.8520  140.6790 C   0  0  0  0  0  2  0  0  0  0  0  0
  187.6230  177.5820  144.2310 C   0  0  0  0  0  0  0  0  0  0  0  0
  190.4490  175.4420  142.9430 C   0  0  0  0  0  2  0  0  0  0  0  0
  185.9460  178.3920  145.4040 C   0  0  0  0  0  0  0  0  0  0  0  0
  190.7270  178.2530  141.8170 C   0  0  0  0  0  2  0  0  0  0  0  0
  189.6080  177.2640  141.4740 C   0  0  1  0  0  3  0  0  0  0  0  0
  189.2350  176.3320  142.6380 C   0  0  2  0  0  3  0  0  0  0  0  0
  182.9260  179.1480  140.0500 C   0  0  0  0  0  3  0  0  0  0  0  0
  185.3170  178.3540  141.2750 C   0  0  0  0  0  0  0  0  0  0  0  0
  185.3440  179.0190  140.0430 C   0  0  0  0  0  3  0  0  0  0  0  0
  184.1510  179.4160  139.4320 C   0  0  0  0  0  3  0  0  0  0  0  0
  182.8920  178.4800  141.2770 C   0  0  0  0  0  3  0  0  0  0  0  0
  184.0850  178.0830  141.8890 C   0  0  0  0  0  3  0  0  0  0  0  0
  1 12  1  0  0  0  0
  2  6  1  0  0  0  0
  2 16  2  0  0  0  0
  3 16  1  0  0  0  0
  4 13  1  0  0  0  0
  6 18  2  0  0  0  0
  7  9  1  0  0  0  0
  7 13  1  0  0  0  0
  8 10  1  0  0  0  0
  8 17  1  0  0  0  0
 11  7  2  0  0  0  0
 12 23  1  6  0  0  0
 12  2  1  0  0  0  0
 13  5  1  0  0  0  0
 14  4  2  0  0  0  0
 15  1  1  0  0  0  0
 16 11  1  0  0  0  0
 18 11  1  0  0  0  0
 18 14  1  0  0  0  0
 19 10  1  0  0  0  0
 20 15  1  1  0  0  0
 20 19  1  0  0  0  0
 20 21  1  0  0  0  0
 21 17  1  1  0  0  0
 21  3  1  0  0  0  0
 22 26  1  0  0  0  0
 23 27  1  0  0  0  0
 24 23  2  0  0  0  0
 25 24  1  0  0  0  0
 25 22  2  0  0  0  0
 26 27  2  0  0  0  0
M  END
>  <MODEL>
7

>  <REMARK>
 VINA RESULT:      -7.3      2.437      6.197
  Name = 
  1 active torsions:
  status: ('A' for Active; 'I' for Inactive)
    1  A    between atoms: C_9  and  C_15
                            x       y       z     vdW  Elec       q    Type
                         _______ _______ _______ _____ _____    ______ ____

>  <TORSDO>
F 1

$$$$
=
 OpenBabel10272400583D

 27 31  0  0  1  0  0  0  0  0999 V2000
  183.9520  179.3290  142.8730 O   0  0  0  0  0  0  0  0  0  0  0  0
  185.7670  178.1660  141.9060 C   0  0  0  0  0  0  0  0  0  0  0  0
  184.1020  178.0390  139.9960 N   0  0  0  0  0  2  0  0  0  0  0  0
  189.3240  178.4530  139.0330 C   0  0  0  0  0  3  0  0  0  0  0  0
  188.5070  178.4840  136.6690 C   0  0  0  0  0  1  0  0  0  0  0  0
  187.1090  178.2970  142.0450 N   0  0  0  0  0  0  0  0  0  0  0  0
  186.8280  178.2670  138.5320 C   0  0  0  0  0  0  0  0  0  0  0  0
  180.9970  178.0790  138.9940 C   0  0  0  0  0  2  0  0  0  0  0  0
  185.7100  178.1720  137.5400 C   0  0  0  0  0  1  0  0  0  0  0  0
  181.5360  179.5010  139.1930 C   0  0  0  0  0  2  0  0  0  0  0  0
  186.5950  178.2300  139.8510 C   0  0  0  0  0  0  0  0  0  0  0  0
  184.8000  178.2300  143.0470 C   0  0  1  0  0  3  0  0  0  0  0  0
  188.1950  178.4100  138.0870 N   0  0  0  0  0  0  0  0  0  0  0  0
  188.8850  178.4420  140.4780 C   0  0  0  0  0  3  0  0  0  0  0  0
  182.6670  178.7860  142.8780 C   0  0  0  0  0  2  0  0  0  0  0  0
  185.4160  178.1170  140.5630 C   0  0  0  0  0  0  0  0  0  0  0  0
  181.9670  177.0010  139.5230 C   0  0  0  0  0  2  0  0  0  0  0  0
  187.5960  178.3220  140.7890 C   0  0  0  0  0  0  0  0  0  0  0  0
  181.8070  179.8120  140.6740 C   0  0  0  0  0  2  0  0  0  0  0  0
  182.1530  178.5450  141.4640 C   0  0  1  0  0  3  0  0  0  0  0  0
  182.9060  177.4920  140.6350 C   0  0  2  0  0  3  0  0  0  0  0  0
  186.6780  178.3750  146.9140 C   0  0  0  0  0  3  0  0  0  0  0  0
  185.4740  178.2820  144.3870 C   0  0  0  0  0  0  0  0  0  0  0  0
  185.0000  179.1700  145.3590 C   0  0  0  0  0  3  0  0  0  0  0  0
  185.6010  179.2170  146.6200 C   0  0  0  0  0  3  0  0  0  0  0  0
  187.1520  177.4830  145.9500 C   0  0  0  0  0  3  0  0  0  0  0  0
  186.5510  177.4340  144.6880 C   0  0  0  0  0  3  0  0  0  0  0  0
  1 15  1  0  0  0  0
  1 12  1  0  0  0  0
  2  6  1  0  0  0  0
  2 12  1  0  0  0  0
  3 16  1  0  0  0  0
  3 21  1  0  0  0  0
  4 14  2  0  0  0  0
  5 13  1  0  0  0  0
  7 11  2  0  0  0  0
  8 10  1  0  0  0  0
  8 17  1  0  0  0  0
  9  7  1  0  0  0  0
 10 19  1  0  0  0  0
 11 16  1  0  0  0  0
 11 18  1  0  0  0  0
 12 23  1  1  0  0  0
 13  7  1  0  0  0  0
 13  4  1  0  0  0  0
 14 18  1  0  0  0  0
 16  2  2  0  0  0  0
 18  6  2  0  0  0  0
 20 19  1  6  0  0  0
 20 15  1  0  0  0  0
 21 17  1  6  0  0  0
 21 20  1  0  0  0  0
 23 27  2  0  0  0  0
 23 24  1  0  0  0  0
 24 25  2  0  0  0  0
 25 22  1  0  0  0  0
 26 22  2  0  0  0  0
 27 26  1  0  0  0  0
M  END
>  <MODEL>
8

>  <REMARK>
 VINA RESULT:      -7.0      2.599      5.813
  Name = 
  1 active torsions:
  status: ('A' for Active; 'I' for Inactive)
    1  A    between atoms: C_9  and  C_15
                            x       y       z     vdW  Elec       q    Type
                         _______ _______ _______ _____ _____    ______ ____

>  <TORSDO>
F 1

$$$$
=
 OpenBabel10272400583D

 27 31  0  0  1  0  0  0  0  0999 V2000
  190.0660  178.3770  144.1640 O   0  0  0  0  0  0  0  0  0  0  0  0
  188.0490  177.6640  143.1600 C   0  0  0  0  0  0  0  0  0  0  0  0
  187.3650  177.6060  145.6030 N   0  0  0  0  0  2  0  0  0  0  0  0
  183.8550  178.9290  141.8200 C   0  0  0  0  0  3  0  0  0  0  0  0
  182.3780  179.2230  143.8170 C   0  0  0  0  0  1  0  0  0  0  0  0
  187.4680  177.9650  141.9730 N   0  0  0  0  0  0  0  0  0  0  0  0
  184.7530  178.4640  144.1650 C   0  0  0  0  0  0  0  0  0  0  0  0
  188.2320  177.3540  148.7380 C   0  0  0  0  0  2  0  0  0  0  0  0
  184.5270  178.3690  145.6420 C   0  0  0  0  0  1  0  0  0  0  0  0
  188.4100  178.7880  148.2250 C   0  0  0  0  0  2  0  0  0  0  0  0
  185.9450  178.1800  143.6210 C   0  0  0  0  0  0  0  0  0  0  0  0
  189.5140  177.4000  143.3280 C   0  0  1  0  0  3  0  0  0  0  0  0
  183.6840  178.8760  143.2830 N   0  0  0  0  0  0  0  0  0  0  0  0
  185.2670  178.6200  141.3780 C   0  0  0  0  0  3  0  0  0  0  0  0
  190.6460  177.6590  145.2100 C   0  0  0  0  0  2  0  0  0  0  0  0
  187.1340  177.7820  144.1990 C   0  0  0  0  0  0  0  0  0  0  0  0
  187.9070  176.3580  147.6050 C   0  0  0  0  0  2  0  0  0  0  0  0
  186.1880  178.2640  142.2710 C   0  0  0  0  0  0  0  0  0  0  0  0
  189.5360  178.8910  147.1840 C   0  0  0  0  0  2  0  0  0  0  0  0
  189.7190  177.5770  146.4170 C   0  0  1  0  0  3  0  0  0  0  0  0
  188.4120  176.7940  146.2210 C   0  0  2  0  0  3  0  0  0  0  0  0
  191.6760  177.1740  139.6160 C   0  0  0  0  0  3  0  0  0  0  0  0
  190.2520  177.3320  142.0230 C   0  0  0  0  0  0  0  0  0  0  0  0
  191.6110  177.6640  141.9870 C   0  0  0  0  0  3  0  0  0  0  0  0
  192.3220  177.5860  140.7860 C   0  0  0  0  0  3  0  0  0  0  0  0
  190.3200  176.8360  139.6480 C   0  0  0  0  0  3  0  0  0  0  0  0
  189.6090  176.9140  140.8490 C   0  0  0  0  0  3  0  0  0  0  0  0
  1 15  1  0  0  0  0
  2 12  1  0  0  0  0
  2 16  2  0  0  0  0
  3 21  1  0  0  0  0
  4 13  1  0  0  0  0
  6 18  2  0  0  0  0
  6  2  1  0  0  0  0
  7  9  1  0  0  0  0
 10  8  1  0  0  0  0
 11  7  2  0  0  0  0
 11 16  1  0  0  0  0
 12 23  1  6  0  0  0
 12  1  1  0  0  0  0
 13  5  1  0  0  0  0
 13  7  1  0  0  0  0
 14  4  2  0  0  0  0
 14 18  1  0  0  0  0
 16  3  1  0  0  0  0
 17  8  1  0  0  0  0
 18 11  1  0  0  0  0
 19 10  1  0  0  0  0
 20 15  1  6  0  0  0
 20 19  1  0  0  0  0
 21 20  1  0  0  0  0
 21 17  1  1  0  0  0
 22 26  2  0  0  0  0
 22 25  1  0  0  0  0
 24 23  1  0  0  0  0
 25 24  2  0  0  0  0
 26 27  1  0  0  0  0
 27 23  2  0  0  0  0
M  END
>  <MODEL>
9

>  <REMARK>
 VINA RESULT:      -6.9      2.243      5.832
  Name = 
  1 active torsions:
  status: ('A' for Active; 'I' for Inactive)
    1  A    between atoms: C_9  and  C_15
                            x       y       z     vdW  Elec       q    Type
                         _______ _______ _______ _____ _____    ______ ____

>  <TORSDO>
F 1

$$$$
