=
 OpenBabel10272413333D

 32 36  0  0  1  0  0  0  0  0999 V2000
  188.4170  177.7190  145.3150 C   0  0  0  0  0  0  0  0  0  0  0  0
  190.1490  176.5820  140.6640 C   0  0  2  0  0  3  0  0  0  0  0  0
  186.5240  178.0200  137.6970 C   0  0  0  0  0  3  0  0  0  0  0  0
  187.1590  177.3780  136.6340 C   0  0  0  0  0  3  0  0  0  0  0  0
  190.0140  177.0980  143.1020 C   0  0  0  0  0  0  0  0  0  0  0  0
  188.1910  177.7160  141.5860 N   0  0  0  0  0  2  0  0  0  0  0  0
  187.8950  177.8470  144.0230 C   0  0  0  0  0  3  0  0  0  0  0  0
  187.1570  178.1090  138.9380 C   0  0  0  0  0  3  0  0  0  0  0  0
  189.1240  177.6960  140.4580 C   0  0  2  0  0  3  0  0  0  0  0  0
  188.4270  177.5480  139.1310 C   0  0  0  0  0  0  0  0  0  0  0  0
  190.4620  176.2910  138.2030 C   0  0  2  0  0  3  0  0  0  0  0  0
  189.7380  177.2870  145.4980 C   0  0  0  0  0  3  0  0  0  0  0  0
  188.6950  177.5500  142.9160 C   0  0  0  0  0  0  0  0  0  0  0  0
  190.5370  176.9770  144.3930 C   0  0  0  0  0  3  0  0  0  0  0  0
  188.4360  176.8380  136.8060 C   0  0  0  0  0  3  0  0  0  0  0  0
  189.0980  176.9420  138.0390 C   0  0  0  0  0  0  0  0  0  0  0  0
  190.8030  176.7470  141.9600 N   0  0  0  0  0  2  0  0  0  0  0  0
  191.1540  176.6280  139.5310 C   0  0  0  0  0  2  0  0  0  0  0  0
  187.5630  178.0210  146.4960 C   0  0  0  0  0  2  0  0  0  0  0  0
  186.1770  177.4320  146.3030 C   0  0  0  0  0  2  0  0  0  0  0  0
  185.1170  178.4790  146.5890 C   0  0  2  0  0  3  0  0  0  0  0  0
  184.5150  178.9530  145.2830 C   0  0  0  0  0  1  0  0  0  0  0  0
  185.6870  179.5640  147.2540 O   0  0  0  0  0  1  0  0  0  0  0  0
  191.3890  176.6550  137.0490 C   0  0  0  0  0  2  0  0  0  0  0  0
  192.1030  175.4710  136.5770 N   0  0  0  0  0  0  0  0  0  0  0  0
  194.5480  175.3270  136.6610 C   0  0  1  0  0  3  0  0  0  0  0  0
  194.2050  174.5060  137.7410 O   0  0  0  0  0  1  0  0  0  0  0  0
  193.3690  175.8990  135.9800 C   0  0  2  0  0  3  0  0  0  0  0  0
  194.1310  176.7060  136.9480 N   0  0  0  0  0  2  0  0  0  0  0  0
  191.2880  174.7720  135.5740 C   0  0  0  0  0  2  0  0  0  0  0  0
  190.9180  173.3430  135.9750 C   0  0  0  0  0  2  0  0  0  0  0  0
  189.4450  173.2820  136.3210 C   0  0  0  0  0  1  0  0  0  0  0  0
  1 12  1  0  0  0  0
  1 19  1  0  0  0  0
  2 18  1  6  0  0  0
  2 17  1  0  0  0  0
  3  8  1  0  0  0  0
  4 15  1  0  0  0  0
  4  3  2  0  0  0  0
  5 14  1  0  0  0  0
  6 13  1  0  0  0  0
  7  1  2  0  0  0  0
  8 10  2  0  0  0  0
  9 10  1  6  0  0  0
  9  2  1  0  0  0  0
  9  6  1  0  0  0  0
 11 24  1  6  0  0  0
 11 18  1  0  0  0  0
 13  5  2  0  0  0  0
 13  7  1  0  0  0  0
 14 12  2  0  0  0  0
 15 16  2  0  0  0  0
 16 11  1  0  0  0  0
 16 10  1  0  0  0  0
 17  5  1  0  0  0  0
 20 19  1  0  0  0  0
 20 21  1  0  0  0  0
 21 22  1  6  0  0  0
 21 23  1  0  0  0  0
 25 24  1  0  0  0  0
 26 29  1  0  0  0  0
 26 27  1  1  0  0  0
 28 25  1  1  0  0  0
 28 26  1  0  0  0  0
 28 29  1  0  0  0  0
 30 31  1  0  0  0  0
 30 25  1  0  0  0  0
 31 32  1  0  0  0  0
M  END
>  <MODEL>
1

>  <REMARK>
 VINA RESULT:      -7.9      0.000      0.000
  Name = 
  8 active torsions:
  status: ('A' for Active; 'I' for Inactive)
    1  A    between atoms: C_1  and  C_10
    2  A    between atoms: C_2  and  C_24
    3  A    between atoms: C_6  and  C_7
    4  A    between atoms: C_7  and  N_32
    5  A    between atoms: C_10  and  C_24
    6  A    between atoms: C_16  and  C_27
    7  A    between atoms: C_22  and  N_32
    8  A    between atoms: C_27  and  N_32
                            x       y       z     vdW  Elec       q    Type
                         _______ _______ _______ _____ _____    ______ ____

>  <TORSDO>
F 8

$$$$
=
 OpenBabel10272413333D

 32 36  0  0  1  0  0  0  0  0999 V2000
  190.3070  177.0640  145.5810 C   0  0  0  0  0  0  0  0  0  0  0  0
  189.2830  177.2710  140.5980 C   0  0  2  0  0  3  0  0  0  0  0  0
  184.7270  179.0680  140.4280 C   0  0  0  0  0  3  0  0  0  0  0  0
  184.6750  178.7670  139.0660 C   0  0  0  0  0  3  0  0  0  0  0  0
  190.4720  177.1540  142.7880 C   0  0  0  0  0  0  0  0  0  0  0  0
  188.1630  177.9620  142.6570 N   0  0  0  0  0  2  0  0  0  0  0  0
  189.1940  177.4610  144.8310 C   0  0  0  0  0  3  0  0  0  0  0  0
  185.9190  178.9030  141.1350 C   0  0  0  0  0  3  0  0  0  0  0  0
  188.3650  178.3050  141.2480 C   0  0  2  0  0  3  0  0  0  0  0  0
  187.0700  178.4270  140.4890 C   0  0  0  0  0  0  0  0  0  0  0  0
  188.2450  177.6250  138.3540 C   0  0  2  0  0  3  0  0  0  0  0  0
  191.5020  176.7210  144.9340 C   0  0  0  0  0  3  0  0  0  0  0  0
  189.2780  177.5190  143.4370 C   0  0  0  0  0  0  0  0  0  0  0  0
  191.5860  176.7660  143.5390 C   0  0  0  0  0  3  0  0  0  0  0  0
  185.8210  178.3170  138.4060 C   0  0  0  0  0  3  0  0  0  0  0  0
  187.0350  178.1720  139.0950 C   0  0  0  0  0  0  0  0  0  0  0  0
  190.5260  177.1680  141.3580 N   0  0  0  0  0  2  0  0  0  0  0  0
  189.5470  177.6840  139.1640 C   0  0  0  0  0  2  0  0  0  0  0  0
  190.2160  176.9890  147.0650 C   0  0  0  0  0  2  0  0  0  0  0  0
  188.8040  176.6170  147.4820 C   0  0  0  0  0  2  0  0  0  0  0  0
  188.2180  177.6990  148.3710 C   0  0  2  0  0  3  0  0  0  0  0  0
  187.0500  178.3510  147.6620 C   0  0  0  0  0  1  0  0  0  0  0  0
  189.1860  178.6640  148.6470 O   0  0  0  0  0  1  0  0  0  0  0  0
  188.4500  178.3440  137.0250 C   0  0  0  0  0  2  0  0  0  0  0  0
  188.1450  177.4500  135.9110 N   0  0  0  0  0  0  0  0  0  0  0  0
  189.7250  175.8620  134.9170 C   0  0  1  0  0  3  0  0  0  0  0  0
  188.8430  174.9830  135.5540 O   0  0  0  0  0  1  0  0  0  0  0  0
  189.3570  177.2790  135.1090 C   0  0  2  0  0  3  0  0  0  0  0  0
  190.4180  176.6710  135.9290 N   0  0  0  0  0  2  0  0  0  0  0  0
  187.0790  178.0370  135.0870 C   0  0  0  0  0  2  0  0  0  0  0  0
  186.1400  176.9960  134.4740 C   0  0  0  0  0  2  0  0  0  0  0  0
  185.5670  176.1250  135.5710 C   0  0  0  0  0  1  0  0  0  0  0  0
  1 19  1  0  0  0  0
  2 18  1  6  0  0  0
  2  9  1  0  0  0  0
  2 17  1  0  0  0  0
  3  8  1  0  0  0  0
  4  3  2  0  0  0  0
  5 13  2  0  0  0  0
  5 14  1  0  0  0  0
  6 13  1  0  0  0  0
  7  1  2  0  0  0  0
  9 10  1  6  0  0  0
  9  6  1  0  0  0  0
 10  8  2  0  0  0  0
 11 24  1  6  0  0  0
 11 16  1  0  0  0  0
 11 18  1  0  0  0  0
 12  1  1  0  0  0  0
 13  7  1  0  0  0  0
 14 12  2  0  0  0  0
 15  4  1  0  0  0  0
 15 16  2  0  0  0  0
 16 10  1  0  0  0  0
 17  5  1  0  0  0  0
 19 20  1  0  0  0  0
 20 21  1  0  0  0  0
 21 22  1  6  0  0  0
 21 23  1  0  0  0  0
 25 24  1  0  0  0  0
 26 28  1  0  0  0  0
 26 27  1  1  0  0  0
 26 29  1  0  0  0  0
 28 25  1  1  0  0  0
 28 29  1  0  0  0  0
 30 25  1  0  0  0  0
 31 30  1  0  0  0  0
 31 32  1  0  0  0  0
M  END
>  <MODEL>
2

>  <REMARK>
 VINA RESULT:      -7.7      2.412      3.347
  Name = 
  8 active torsions:
  status: ('A' for Active; 'I' for Inactive)
    1  A    between atoms: C_1  and  C_10
    2  A    between atoms: C_2  and  C_24
    3  A    between atoms: C_6  and  C_7
    4  A    between atoms: C_7  and  N_32
    5  A    between atoms: C_10  and  C_24
    6  A    between atoms: C_16  and  C_27
    7  A    between atoms: C_22  and  N_32
    8  A    between atoms: C_27  and  N_32
                            x       y       z     vdW  Elec       q    Type
                         _______ _______ _______ _____ _____    ______ ____

>  <TORSDO>
F 8

$$$$
=
 OpenBabel10272413333D

 32 36  0  0  1  0  0  0  0  0999 V2000
  182.7240  179.4860  139.2920 C   0  0  0  0  0  0  0  0  0  0  0  0
  186.7320  178.4030  142.2390 C   0  0  2  0  0  3  0  0  0  0  0  0
  184.8770  178.4400  146.7740 C   0  0  0  0  0  3  0  0  0  0  0  0
  186.1720  178.3790  147.2890 C   0  0  0  0  0  3  0  0  0  0  0  0
  185.1960  178.6290  140.2850 C   0  0  0  0  0  0  0  0  0  0  0  0
  184.3340  178.7280  142.5770 N   0  0  0  0  0  2  0  0  0  0  0  0
  182.9100  179.3510  140.6730 C   0  0  0  0  0  3  0  0  0  0  0  0
  184.6650  178.3270  145.3990 C   0  0  0  0  0  3  0  0  0  0  0  0
  185.5050  177.9860  143.0480 C   0  0  2  0  0  3  0  0  0  0  0  0
  185.7480  178.1620  144.5240 C   0  0  0  0  0  0  0  0  0  0  0  0
  188.2710  177.8960  144.1400 C   0  0  2  0  0  3  0  0  0  0  0  0
  183.7710  179.1850  138.4120 C   0  0  0  0  0  3  0  0  0  0  0  0
  184.1400  178.9110  141.1700 C   0  0  0  0  0  0  0  0  0  0  0  0
  185.0070  178.7560  138.9070 C   0  0  0  0  0  3  0  0  0  0  0  0
  187.2570  178.1880  146.4300 C   0  0  0  0  0  3  0  0  0  0  0  0
  187.0600  178.0450  145.0480 C   0  0  0  0  0  0  0  0  0  0  0  0
  186.4660  178.2300  140.8140 N   0  0  0  0  0  2  0  0  0  0  0  0
  187.9170  177.5690  142.6830 C   0  0  0  0  0  2  0  0  0  0  0  0
  181.4190  179.9680  138.7610 C   0  0  0  0  0  2  0  0  0  0  0  0
  181.4980  181.4520  138.4510 C   0  0  0  0  0  2  0  0  0  0  0  0
  180.5260  181.8090  137.3430 C   0  0  2  0  0  3  0  0  0  0  0  0
  180.7250  180.8640  136.1770 C   0  0  0  0  0  1  0  0  0  0  0  0
  180.7500  183.1180  136.9170 O   0  0  0  0  0  1  0  0  0  0  0  0
  189.2310  176.8370  144.6710 C   0  0  0  0  0  2  0  0  0  0  0  0
  190.6140  177.2270  144.4060 N   0  0  0  0  0  0  0  0  0  0  0  0
  191.7320  176.4630  142.3630 C   0  0  1  0  0  3  0  0  0  0  0  0
  191.4040  177.7740  142.0020 O   0  0  0  0  0  1  0  0  0  0  0  0
  191.2870  176.1180  143.7280 C   0  0  2  0  0  3  0  0  0  0  0  0
  190.4970  175.6910  142.5610 N   0  0  0  0  0  2  0  0  0  0  0  0
  191.2930  177.5230  145.6750 C   0  0  0  0  0  2  0  0  0  0  0  0
  190.7230  176.7520  146.8670 C   0  0  0  0  0  2  0  0  0  0  0  0
  191.7970  175.8590  147.4500 C   0  0  0  0  0  1  0  0  0  0  0  0
  1  7  1  0  0  0  0
  2 18  1  1  0  0  0
  2  9  1  0  0  0  0
  3  4  1  0  0  0  0
  5 17  1  0  0  0  0
  5 13  1  0  0  0  0
  7 13  2  0  0  0  0
  8  3  2  0  0  0  0
  9  6  1  6  0  0  0
  9 10  1  0  0  0  0
 10 16  2  0  0  0  0
 10  8  1  0  0  0  0
 11 24  1  1  0  0  0
 11 16  1  0  0  0  0
 12 14  1  0  0  0  0
 12  1  2  0  0  0  0
 13  6  1  0  0  0  0
 14  5  2  0  0  0  0
 15  4  2  0  0  0  0
 16 15  1  0  0  0  0
 17  2  1  0  0  0  0
 18 11  1  0  0  0  0
 19  1  1  0  0  0  0
 20 19  1  0  0  0  0
 21 22  1  6  0  0  0
 21 20  1  0  0  0  0
 23 21  1  0  0  0  0
 25 24  1  0  0  0  0
 25 30  1  0  0  0  0
 26 27  1  1  0  0  0
 26 29  1  0  0  0  0
 26 28  1  0  0  0  0
 28 25  1  1  0  0  0
 29 28  1  0  0  0  0
 30 31  1  0  0  0  0
 31 32  1  0  0  0  0
M  END
>  <MODEL>
3

>  <REMARK>
 VINA RESULT:      -7.6      4.257      8.209
  Name = 
  8 active torsions:
  status: ('A' for Active; 'I' for Inactive)
    1  A    between atoms: C_1  and  C_10
    2  A    between atoms: C_2  and  C_24
    3  A    between atoms: C_6  and  C_7
    4  A    between atoms: C_7  and  N_32
    5  A    between atoms: C_10  and  C_24
    6  A    between atoms: C_16  and  C_27
    7  A    between atoms: C_22  and  N_32
    8  A    between atoms: C_27  and  N_32
                            x       y       z     vdW  Elec       q    Type
                         _______ _______ _______ _____ _____    ______ ____

>  <TORSDO>
F 8

$$$$
=
 OpenBabel10272413333D

 32 36  0  0  1  0  0  0  0  0999 V2000
  188.4950  177.7460  144.6750 C   0  0  0  0  0  0  0  0  0  0  0  0
  191.4560  176.7470  140.6560 C   0  0  2  0  0  3  0  0  0  0  0  0
  188.2680  176.2280  136.9710 C   0  0  0  0  0  3  0  0  0  0  0  0
  189.2990  175.7440  136.1660 C   0  0  0  0  0  3  0  0  0  0  0  0
  190.6360  177.5000  142.8880 C   0  0  0  0  0  0  0  0  0  0  0  0
  189.0740  177.1400  141.0340 N   0  0  0  0  0  2  0  0  0  0  0  0
  188.2460  177.4810  143.3230 C   0  0  0  0  0  3  0  0  0  0  0  0
  188.5500  176.7270  138.2430 C   0  0  0  0  0  3  0  0  0  0  0  0
  190.1670  177.3310  140.0790 C   0  0  2  0  0  3  0  0  0  0  0  0
  189.8660  176.7400  138.7270 C   0  0  0  0  0  0  0  0  0  0  0  0
  192.3630  176.2640  138.3780 C   0  0  2  0  0  3  0  0  0  0  0  0
  189.8120  177.8960  145.1280 C   0  0  0  0  0  3  0  0  0  0  0  0
  189.3130  177.3700  142.4270 C   0  0  0  0  0  0  0  0  0  0  0  0
  190.8830  177.7730  144.2370 C   0  0  0  0  0  3  0  0  0  0  0  0
  190.6180  175.7760  136.6250 C   0  0  0  0  0  3  0  0  0  0  0  0
  190.9230  176.3000  137.8910 C   0  0  0  0  0  0  0  0  0  0  0  0
  191.7190  177.3310  141.9680 N   0  0  0  0  0  2  0  0  0  0  0  0
  192.5920  177.0240  139.6920 C   0  0  0  0  0  2  0  0  0  0  0  0
  187.3610  177.8510  145.6340 C   0  0  0  0  0  2  0  0  0  0  0  0
  186.0500  177.9790  144.8790 C   0  0  0  0  0  2  0  0  0  0  0  0
  184.9670  178.5180  145.7950 C   0  0  2  0  0  3  0  0  0  0  0  0
  183.8490  179.1040  144.9600 C   0  0  0  0  0  1  0  0  0  0  0  0
  185.4940  179.5100  146.6210 O   0  0  0  0  0  1  0  0  0  0  0  0
  193.3180  176.7980  137.3180 C   0  0  0  0  0  2  0  0  0  0  0  0
  194.3930  175.8400  137.0720 N   0  0  0  0  0  0  0  0  0  0  0  0
  195.9030  175.8150  135.1410 C   0  0  1  0  0  3  0  0  0  0  0  0
  196.7990  176.1420  136.1650 O   0  0  0  0  0  1  0  0  0  0  0  0
  194.5190  175.6430  135.6270 C   0  0  2  0  0  3  0  0  0  0  0  0
  194.9270  176.9030  134.9840 N   0  0  0  0  0  2  0  0  0  0  0  0
  194.0720  174.5630  137.7250 C   0  0  0  0  0  2  0  0  0  0  0  0
  195.2450  173.9650  138.5040 C   0  0  0  0  0  2  0  0  0  0  0  0
  195.4790  172.5410  138.0480 C   0  0  0  0  0  1  0  0  0  0  0  0
  1 12  1  0  0  0  0
  1 19  1  0  0  0  0
  2 18  1  6  0  0  0
  2 17  1  0  0  0  0
  3  8  1  0  0  0  0
  4 15  1  0  0  0  0
  4  3  2  0  0  0  0
  5 14  1  0  0  0  0
  6 13  1  0  0  0  0
  7  1  2  0  0  0  0
  8 10  2  0  0  0  0
  9 10  1  6  0  0  0
  9  2  1  0  0  0  0
  9  6  1  0  0  0  0
 11 24  1  6  0  0  0
 11 18  1  0  0  0  0
 13  5  2  0  0  0  0
 13  7  1  0  0  0  0
 14 12  2  0  0  0  0
 15 16  2  0  0  0  0
 16 11  1  0  0  0  0
 16 10  1  0  0  0  0
 17  5  1  0  0  0  0
 20 19  1  0  0  0  0
 20 21  1  0  0  0  0
 21 22  1  6  0  0  0
 21 23  1  0  0  0  0
 25 24  1  0  0  0  0
 25 30  1  0  0  0  0
 26 28  1  0  0  0  0
 26 27  1  1  0  0  0
 28 25  1  1  0  0  0
 29 26  1  0  0  0  0
 29 28  1  0  0  0  0
 30 31  1  0  0  0  0
 32 31  1  0  0  0  0
M  END
>  <MODEL>
4

>  <REMARK>
 VINA RESULT:      -7.5      1.454      2.242
  Name = 
  8 active torsions:
  status: ('A' for Active; 'I' for Inactive)
    1  A    between atoms: C_1  and  C_10
    2  A    between atoms: C_2  and  C_24
    3  A    between atoms: C_6  and  C_7
    4  A    between atoms: C_7  and  N_32
    5  A    between atoms: C_10  and  C_24
    6  A    between atoms: C_16  and  C_27
    7  A    between atoms: C_22  and  N_32
    8  A    between atoms: C_27  and  N_32
                            x       y       z     vdW  Elec       q    Type
                         _______ _______ _______ _____ _____    ______ ____

>  <TORSDO>
F 8

$$$$
=
 OpenBabel10272413333D

 32 36  0  0  1  0  0  0  0  0999 V2000
  191.3200  176.4370  137.2700 C   0  0  0  0  0  0  0  0  0  0  0  0
  188.4480  177.3110  141.3810 C   0  0  2  0  0  3  0  0  0  0  0  0
  191.5970  176.8630  145.1080 C   0  0  0  0  0  3  0  0  0  0  0  0
  190.5240  176.8950  146.0000 C   0  0  0  0  0  3  0  0  0  0  0  0
  189.3040  177.2350  139.0390 C   0  0  0  0  0  0  0  0  0  0  0  0
  190.8200  176.9300  140.9390 N   0  0  0  0  0  2  0  0  0  0  0  0
  191.5700  176.4560  138.6470 C   0  0  0  0  0  3  0  0  0  0  0  0
  191.3830  177.0910  143.7480 C   0  0  0  0  0  3  0  0  0  0  0  0
  189.8780  177.6430  141.8030 C   0  0  2  0  0  3  0  0  0  0  0  0
  190.0910  177.3440  143.2640 C   0  0  0  0  0  0  0  0  0  0  0  0
  187.5840  177.6720  143.6970 C   0  0  2  0  0  3  0  0  0  0  0  0
  190.0660  176.8250  136.7800 C   0  0  0  0  0  3  0  0  0  0  0  0
  190.5690  176.8660  139.5310 C   0  0  0  0  0  0  0  0  0  0  0  0
  189.0580  177.2250  137.6630 C   0  0  0  0  0  3  0  0  0  0  0  0
  189.2370  177.1720  145.5340 C   0  0  0  0  0  3  0  0  0  0  0  0
  189.0070  177.4310  144.1740 C   0  0  0  0  0  0  0  0  0  0  0  0
  188.2720  177.6020  139.9610 N   0  0  0  0  0  2  0  0  0  0  0  0
  187.4880  178.1180  142.2320 C   0  0  0  0  0  2  0  0  0  0  0  0
  192.3810  175.9880  136.3270 C   0  0  0  0  0  2  0  0  0  0  0  0
  193.7520  176.2070  136.9410 C   0  0  0  0  0  2  0  0  0  0  0  0
  194.6190  174.9780  136.7420 C   0  0  2  0  0  3  0  0  0  0  0  0
  194.1050  173.8540  137.6170 C   0  0  0  0  0  1  0  0  0  0  0  0
  195.9390  175.2650  137.0900 O   0  0  0  0  0  1  0  0  0  0  0  0
  186.8720  178.6920  144.5780 C   0  0  0  0  0  2  0  0  0  0  0  0
  185.6290  178.1320  145.1020 N   0  0  0  0  0  0  0  0  0  0  0  0
  183.7300  179.0170  143.8300 C   0  0  1  0  0  3  0  0  0  0  0  0
  184.1030  177.9390  143.0200 O   0  0  0  0  0  1  0  0  0  0  0  0
  184.5880  179.1580  145.0240 C   0  0  2  0  0  3  0  0  0  0  0  0
  184.8130  180.0100  143.8450 N   0  0  0  0  0  2  0  0  0  0  0  0
  185.8240  177.7240  146.5010 C   0  0  0  0  0  2  0  0  0  0  0  0
  186.4970  178.7950  147.3610 C   0  0  0  0  0  2  0  0  0  0  0  0
  187.4230  178.1330  148.3580 C   0  0  0  0  0  1  0  0  0  0  0  0
  1  7  1  0  0  0  0
  2  9  1  0  0  0  0
  2 18  1  1  0  0  0
  3  4  1  0  0  0  0
  5 13  1  0  0  0  0
  5 17  1  0  0  0  0
  7 13  2  0  0  0  0
  8  3  2  0  0  0  0
  9  6  1  6  0  0  0
  9 10  1  0  0  0  0
 10  8  1  0  0  0  0
 10 16  2  0  0  0  0
 11 16  1  0  0  0  0
 11 24  1  1  0  0  0
 12  1  2  0  0  0  0
 12 14  1  0  0  0  0
 13  6  1  0  0  0  0
 14  5  2  0  0  0  0
 15  4  2  0  0  0  0
 16 15  1  0  0  0  0
 17  2  1  0  0  0  0
 18 11  1  0  0  0  0
 19 20  1  0  0  0  0
 19  1  1  0  0  0  0
 21 20  1  0  0  0  0
 21 23  1  0  0  0  0
 21 22  1  1  0  0  0
 24 25  1  0  0  0  0
 25 30  1  0  0  0  0
 26 27  1  6  0  0  0
 26 29  1  0  0  0  0
 26 28  1  0  0  0  0
 28 25  1  6  0  0  0
 29 28  1  0  0  0  0
 30 31  1  0  0  0  0
 31 32  1  0  0  0  0
M  END
>  <MODEL>
5

>  <REMARK>
 VINA RESULT:      -7.5      2.093      9.607
  Name = 
  8 active torsions:
  status: ('A' for Active; 'I' for Inactive)
    1  A    between atoms: C_1  and  C_10
    2  A    between atoms: C_2  and  C_24
    3  A    between atoms: C_6  and  C_7
    4  A    between atoms: C_7  and  N_32
    5  A    between atoms: C_10  and  C_24
    6  A    between atoms: C_16  and  C_27
    7  A    between atoms: C_22  and  N_32
    8  A    between atoms: C_27  and  N_32
                            x       y       z     vdW  Elec       q    Type
                         _______ _______ _______ _____ _____    ______ ____

>  <TORSDO>
F 8

$$$$
=
 OpenBabel10272413333D

 32 36  0  0  1  0  0  0  0  0999 V2000
  188.9240  177.3030  145.7070 C   0  0  0  0  0  0  0  0  0  0  0  0
  185.7060  178.2190  141.8700 C   0  0  2  0  0  3  0  0  0  0  0  0
  181.3790  178.7810  144.1000 C   0  0  0  0  0  3  0  0  0  0  0  0
  180.7500  178.7520  142.8540 C   0  0  0  0  0  3  0  0  0  0  0  0
  187.7720  177.9820  143.2480 C   0  0  0  0  0  0  0  0  0  0  0  0
  185.5720  178.1780  144.3090 N   0  0  0  0  0  2  0  0  0  0  0  0
  187.5470  177.5400  145.6260 C   0  0  0  0  0  3  0  0  0  0  0  0
  182.7720  178.7920  144.1790 C   0  0  0  0  0  3  0  0  0  0  0  0
  185.0530  178.8330  143.1070 C   0  0  2  0  0  3  0  0  0  0  0  0
  183.5510  178.7650  143.0130 C   0  0  0  0  0  0  0  0  0  0  0  0
  183.7130  178.7310  140.4530 C   0  0  2  0  0  3  0  0  0  0  0  0
  189.7230  177.4130  144.5610 C   0  0  0  0  0  3  0  0  0  0  0  0
  186.9720  177.8920  144.4020 C   0  0  0  0  0  0  0  0  0  0  0  0
  189.1490  177.7530  143.3320 C   0  0  0  0  0  3  0  0  0  0  0  0
  181.5140  178.7520  141.6850 C   0  0  0  0  0  3  0  0  0  0  0  0
  182.9160  178.7910  141.7460 C   0  0  0  0  0  0  0  0  0  0  0  0
  187.1590  178.2920  141.9920 N   0  0  0  0  0  2  0  0  0  0  0  0
  185.2190  178.9610  140.6420 C   0  0  0  0  0  2  0  0  0  0  0  0
  189.5370  176.9150  147.0070 C   0  0  0  0  0  2  0  0  0  0  0  0
  191.0470  177.0600  146.9360 C   0  0  0  0  0  2  0  0  0  0  0  0
  191.7130  175.7080  147.1060 C   0  0  2  0  0  3  0  0  0  0  0  0
  192.7330  175.7880  148.2220 C   0  0  0  0  0  1  0  0  0  0  0  0
  192.3540  175.3420  145.9230 O   0  0  0  0  0  1  0  0  0  0  0  0
  183.1800  179.7260  139.4290 C   0  0  0  0  0  2  0  0  0  0  0  0
  182.5070  179.0230  138.3390 N   0  0  0  0  0  0  0  0  0  0  0  0
  180.4420  179.8470  137.3080 C   0  0  1  0  0  3  0  0  0  0  0  0
  181.3690  180.1500  136.3050 O   0  0  0  0  0  1  0  0  0  0  0  0
  181.0630  179.2100  138.4870 C   0  0  2  0  0  3  0  0  0  0  0  0
  180.7440  180.6470  138.5050 N   0  0  0  0  0  2  0  0  0  0  0  0
  182.8360  177.5910  138.4000 C   0  0  0  0  0  2  0  0  0  0  0  0
  181.6040  176.6840  138.4350 C   0  0  0  0  0  2  0  0  0  0  0  0
  181.7220  175.7190  139.5940 C   0  0  0  0  0  1  0  0  0  0  0  0
  1 19  1  0  0  0  0
  2 18  1  6  0  0  0
  2 17  1  0  0  0  0
  2  9  1  0  0  0  0
  3  8  1  0  0  0  0
  4  3  2  0  0  0  0
  5 14  2  0  0  0  0
  5 13  1  0  0  0  0
  6 13  1  0  0  0  0
  7  1  1  0  0  0  0
  9 10  1  6  0  0  0
  9  6  1  0  0  0  0
 10  8  2  0  0  0  0
 11 24  1  6  0  0  0
 11 18  1  0  0  0  0
 11 16  1  0  0  0  0
 12  1  2  0  0  0  0
 13  7  2  0  0  0  0
 14 12  1  0  0  0  0
 15 16  2  0  0  0  0
 15  4  1  0  0  0  0
 16 10  1  0  0  0  0
 17  5  1  0  0  0  0
 20 19  1  0  0  0  0
 20 21  1  0  0  0  0
 21 22  1  1  0  0  0
 23 21  1  0  0  0  0
 25 30  1  0  0  0  0
 25 24  1  0  0  0  0
 26 27  1  6  0  0  0
 26 28  1  0  0  0  0
 26 29  1  0  0  0  0
 28 25  1  6  0  0  0
 28 29  1  0  0  0  0
 30 31  1  0  0  0  0
 31 32  1  0  0  0  0
M  END
>  <MODEL>
6

>  <REMARK>
 VINA RESULT:      -7.5      5.321      7.980
  Name = 
  8 active torsions:
  status: ('A' for Active; 'I' for Inactive)
    1  A    between atoms: C_1  and  C_10
    2  A    between atoms: C_2  and  C_24
    3  A    between atoms: C_6  and  C_7
    4  A    between atoms: C_7  and  N_32
    5  A    between atoms: C_10  and  C_24
    6  A    between atoms: C_16  and  C_27
    7  A    between atoms: C_22  and  N_32
    8  A    between atoms: C_27  and  N_32
                            x       y       z     vdW  Elec       q    Type
                         _______ _______ _______ _____ _____    ______ ____

>  <TORSDO>
F 8

$$$$
=
 OpenBabel10272413333D

 32 36  0  0  1  0  0  0  0  0999 V2000
  188.9920  177.2600  146.0390 C   0  0  0  0  0  0  0  0  0  0  0  0
  185.9350  178.0810  142.0520 C   0  0  2  0  0  3  0  0  0  0  0  0
  181.5390  178.7990  144.0950 C   0  0  0  0  0  3  0  0  0  0  0  0
  180.9560  178.7330  142.8290 C   0  0  0  0  0  3  0  0  0  0  0  0
  187.9440  177.8630  143.5150 C   0  0  0  0  0  0  0  0  0  0  0  0
  185.7100  178.1360  144.4850 N   0  0  0  0  0  2  0  0  0  0  0  0
  187.6240  177.5160  145.8970 C   0  0  0  0  0  3  0  0  0  0  0  0
  182.9280  178.7910  144.2260 C   0  0  0  0  0  3  0  0  0  0  0  0
  185.2470  178.7530  143.2400 C   0  0  2  0  0  3  0  0  0  0  0  0
  183.7500  178.7060  143.0920 C   0  0  0  0  0  0  0  0  0  0  0  0
  184.0050  178.5710  140.5430 C   0  0  2  0  0  3  0  0  0  0  0  0
  189.8350  177.3130  144.9200 C   0  0  0  0  0  3  0  0  0  0  0  0
  187.1000  177.8300  144.6400 C   0  0  0  0  0  0  0  0  0  0  0  0
  189.3120  177.6150  143.6590 C   0  0  0  0  0  3  0  0  0  0  0  0
  181.7630  178.6760  141.6900 C   0  0  0  0  0  3  0  0  0  0  0  0
  183.1620  178.6940  141.8020 C   0  0  0  0  0  0  0  0  0  0  0  0
  187.3840  178.1350  142.2260 N   0  0  0  0  0  2  0  0  0  0  0  0
  185.5070  178.7840  140.7800 C   0  0  0  0  0  2  0  0  0  0  0  0
  189.5500  176.9110  147.3750 C   0  0  0  0  0  2  0  0  0  0  0  0
  191.0580  177.0870  147.3730 C   0  0  0  0  0  2  0  0  0  0  0  0
  191.7440  175.7380  147.4720 C   0  0  2  0  0  3  0  0  0  0  0  0
  192.8110  175.7950  148.5450 C   0  0  0  0  0  1  0  0  0  0  0  0
  192.3370  175.4150  146.2510 O   0  0  0  0  0  1  0  0  0  0  0  0
  183.5280  179.5350  139.4630 C   0  0  0  0  0  2  0  0  0  0  0  0
  182.5680  178.8760  138.5810 N   0  0  0  0  0  0  0  0  0  0  0  0
  182.6030  176.8000  137.2780 C   0  0  1  0  0  3  0  0  0  0  0  0
  181.3840  176.6620  137.9500 O   0  0  0  0  0  1  0  0  0  0  0  0
  183.3070  178.0520  137.6230 C   0  0  2  0  0  3  0  0  0  0  0  0
  183.7010  176.7820  138.2560 N   0  0  0  0  0  2  0  0  0  0  0  0
  181.7810  179.8900  137.8650 C   0  0  0  0  0  2  0  0  0  0  0  0
  181.1180  180.9130  138.7900 C   0  0  0  0  0  2  0  0  0  0  0  0
  181.1250  182.2720  138.1240 C   0  0  0  0  0  1  0  0  0  0  0  0
  1 19  1  0  0  0  0
  2 18  1  6  0  0  0
  2 17  1  0  0  0  0
  2  9  1  0  0  0  0
  3  8  1  0  0  0  0
  4  3  2  0  0  0  0
  5 14  2  0  0  0  0
  5 13  1  0  0  0  0
  6 13  1  0  0  0  0
  7  1  1  0  0  0  0
  9 10  1  6  0  0  0
  9  6  1  0  0  0  0
 10  8  2  0  0  0  0
 11 24  1  6  0  0  0
 11 18  1  0  0  0  0
 11 16  1  0  0  0  0
 12  1  2  0  0  0  0
 13  7  2  0  0  0  0
 14 12  1  0  0  0  0
 15 16  2  0  0  0  0
 15  4  1  0  0  0  0
 16 10  1  0  0  0  0
 17  5  1  0  0  0  0
 20 19  1  0  0  0  0
 20 21  1  0  0  0  0
 21 22  1  1  0  0  0
 23 21  1  0  0  0  0
 25 24  1  0  0  0  0
 26 28  1  0  0  0  0
 26 27  1  1  0  0  0
 26 29  1  0  0  0  0
 28 29  1  0  0  0  0
 28 25  1  1  0  0  0
 30 25  1  0  0  0  0
 30 31  1  0  0  0  0
 32 31  1  0  0  0  0
M  END
>  <MODEL>
7

>  <REMARK>
 VINA RESULT:      -7.4      5.328      7.756
  Name = 
  8 active torsions:
  status: ('A' for Active; 'I' for Inactive)
    1  A    between atoms: C_1  and  C_10
    2  A    between atoms: C_2  and  C_24
    3  A    between atoms: C_6  and  C_7
    4  A    between atoms: C_7  and  N_32
    5  A    between atoms: C_10  and  C_24
    6  A    between atoms: C_16  and  C_27
    7  A    between atoms: C_22  and  N_32
    8  A    between atoms: C_27  and  N_32
                            x       y       z     vdW  Elec       q    Type
                         _______ _______ _______ _____ _____    ______ ____

>  <TORSDO>
F 8

$$$$
=
 OpenBabel10272413333D

 32 36  0  0  1  0  0  0  0  0999 V2000
  190.1590  176.9060  143.1890 C   0  0  0  0  0  0  0  0  0  0  0  0
  185.9700  178.2590  140.6310 C   0  0  2  0  0  3  0  0  0  0  0  0
  182.5870  178.7680  144.1400 C   0  0  0  0  0  3  0  0  0  0  0  0
  181.6030  178.8680  143.1560 C   0  0  0  0  0  3  0  0  0  0  0  0
  188.3440  177.8340  141.2710 C   0  0  0  0  0  0  0  0  0  0  0  0
  186.5960  178.0110  142.9800 N   0  0  0  0  0  2  0  0  0  0  0  0
  188.8410  177.1950  143.5610 C   0  0  0  0  0  3  0  0  0  0  0  0
  183.9350  178.7270  143.7790 C   0  0  0  0  0  3  0  0  0  0  0  0
  185.7690  178.7840  142.0520 C   0  0  2  0  0  3  0  0  0  0  0  0
  184.3110  178.7750  142.4290 C   0  0  0  0  0  0  0  0  0  0  0  0
  183.6690  178.9570  139.9510 C   0  0  2  0  0  3  0  0  0  0  0  0
  190.5680  177.0890  141.8610 C   0  0  0  0  0  3  0  0  0  0  0  0
  187.9360  177.6710  142.6080 C   0  0  0  0  0  0  0  0  0  0  0  0
  189.6620  177.5530  140.9020 C   0  0  0  0  0  3  0  0  0  0  0  0
  181.9660  178.9440  141.8100 C   0  0  0  0  0  3  0  0  0  0  0  0
  183.3170  178.9310  141.4300 C   0  0  0  0  0  0  0  0  0  0  0  0
  187.3910  178.2720  140.2960 N   0  0  0  0  0  2  0  0  0  0  0  0
  185.1700  179.1200  139.6750 C   0  0  0  0  0  2  0  0  0  0  0  0
  191.1210  176.3870  144.1990 C   0  0  0  0  0  2  0  0  0  0  0  0
  191.2360  177.3600  145.3590 C   0  0  0  0  0  2  0  0  0  0  0  0
  190.9550  176.6510  146.6700 C   0  0  2  0  0  3  0  0  0  0  0  0
  189.6420  177.1470  147.2360 C   0  0  0  0  0  1  0  0  0  0  0  0
  191.9780  176.9140  147.5810 O   0  0  0  0  0  1  0  0  0  0  0  0
  182.9040  180.0550  139.2210 C   0  0  0  0  0  2  0  0  0  0  0  0
  182.0080  179.4730  138.2250 N   0  0  0  0  0  0  0  0  0  0  0  0
  179.9820  180.7220  137.6390 C   0  0  1  0  0  3  0  0  0  0  0  0
  180.8290  181.0980  136.5900 O   0  0  0  0  0  1  0  0  0  0  0  0
  180.6290  179.8000  138.5930 C   0  0  2  0  0  3  0  0  0  0  0  0
  180.5220  181.2350  138.9060 N   0  0  0  0  0  2  0  0  0  0  0  0
  182.1850  178.0140  138.1960 C   0  0  0  0  0  2  0  0  0  0  0  0
  180.8820  177.2380  138.3940 C   0  0  0  0  0  2  0  0  0  0  0  0
  181.0120  176.3350  139.6020 C   0  0  0  0  0  1  0  0  0  0  0  0
  1  7  1  0  0  0  0
  1 19  1  0  0  0  0
  2 18  1  6  0  0  0
  2  9  1  0  0  0  0
  4  3  2  0  0  0  0
  5 13  1  0  0  0  0
  8  3  1  0  0  0  0
  9 10  1  1  0  0  0
  9  6  1  0  0  0  0
 10  8  2  0  0  0  0
 11 24  1  6  0  0  0
 11 16  1  0  0  0  0
 12  1  2  0  0  0  0
 13  6  1  0  0  0  0
 13  7  2  0  0  0  0
 14  5  2  0  0  0  0
 14 12  1  0  0  0  0
 15  4  1  0  0  0  0
 16 15  2  0  0  0  0
 16 10  1  0  0  0  0
 17  2  1  0  0  0  0
 17  5  1  0  0  0  0
 18 11  1  0  0  0  0
 19 20  1  0  0  0  0
 20 21  1  0  0  0  0
 21 22  1  1  0  0  0
 21 23  1  0  0  0  0
 25 24  1  0  0  0  0
 26 27  1  6  0  0  0
 26 28  1  0  0  0  0
 26 29  1  0  0  0  0
 28 25  1  6  0  0  0
 28 29  1  0  0  0  0
 30 25  1  0  0  0  0
 30 31  1  0  0  0  0
 31 32  1  0  0  0  0
M  END
>  <MODEL>
8

>  <REMARK>
 VINA RESULT:      -7.2      4.445      8.029
  Name = 
  8 active torsions:
  status: ('A' for Active; 'I' for Inactive)
    1  A    between atoms: C_1  and  C_10
    2  A    between atoms: C_2  and  C_24
    3  A    between atoms: C_6  and  C_7
    4  A    between atoms: C_7  and  N_32
    5  A    between atoms: C_10  and  C_24
    6  A    between atoms: C_16  and  C_27
    7  A    between atoms: C_22  and  N_32
    8  A    between atoms: C_27  and  N_32
                            x       y       z     vdW  Elec       q    Type
                         _______ _______ _______ _____ _____    ______ ____

>  <TORSDO>
F 8

$$$$
=
 OpenBabel10272413333D

 32 36  0  0  1  0  0  0  0  0999 V2000
  188.5700  177.3830  146.6730 C   0  0  0  0  0  0  0  0  0  0  0  0
  186.5840  178.4640  142.1120 C   0  0  2  0  0  3  0  0  0  0  0  0
  190.2310  177.4630  138.9960 C   0  0  0  0  0  3  0  0  0  0  0  0
  189.5020  178.0680  137.9710 C   0  0  0  0  0  3  0  0  0  0  0  0
  186.8490  177.9020  144.5280 C   0  0  0  0  0  0  0  0  0  0  0  0
  188.6720  177.5040  142.9410 N   0  0  0  0  0  2  0  0  0  0  0  0
  189.0590  177.3390  145.3620 C   0  0  0  0  0  3  0  0  0  0  0  0
  189.6510  177.2810  140.2520 C   0  0  0  0  0  3  0  0  0  0  0  0
  187.7050  177.4610  141.8430 C   0  0  2  0  0  3  0  0  0  0  0  0
  188.3390  177.7110  140.5000 C   0  0  0  0  0  0  0  0  0  0  0  0
  186.1630  178.7870  139.6700 C   0  0  2  0  0  3  0  0  0  0  0  0
  187.2210  177.6780  146.9080 C   0  0  0  0  0  3  0  0  0  0  0  0
  188.1980  177.5850  144.2890 C   0  0  0  0  0  0  0  0  0  0  0  0
  186.3600  177.9370  145.8370 C   0  0  0  0  0  3  0  0  0  0  0  0
  188.1850  178.4760  138.1970 C   0  0  0  0  0  3  0  0  0  0  0  0
  187.5770  178.2770  139.4460 C   0  0  0  0  0  0  0  0  0  0  0  0
  185.9920  178.2030  143.4210 N   0  0  0  0  0  2  0  0  0  0  0  0
  185.5510  178.3500  141.0090 C   0  0  0  0  0  2  0  0  0  0  0  0
  189.4890  177.1340  147.8180 C   0  0  0  0  0  2  0  0  0  0  0  0
  190.9330  177.2510  147.3640 C   0  0  0  0  0  2  0  0  0  0  0  0
  191.5640  175.8750  147.2650 C   0  0  2  0  0  3  0  0  0  0  0  0
  192.7310  175.7880  148.2250 C   0  0  0  0  0  1  0  0  0  0  0  0
  192.0190  175.6530  145.9650 O   0  0  0  0  0  1  0  0  0  0  0  0
  185.2380  178.3640  138.5360 C   0  0  0  0  0  2  0  0  0  0  0  0
  183.8410  178.5020  138.9400 N   0  0  0  0  0  0  0  0  0  0  0  0
  182.3810  176.5430  138.7360 C   0  0  1  0  0  3  0  0  0  0  0  0
  182.7130  176.4760  140.0940 O   0  0  0  0  0  1  0  0  0  0  0  0
  183.0160  177.6850  138.0480 C   0  0  2  0  0  3  0  0  0  0  0  0
  183.5930  176.3360  137.9300 N   0  0  0  0  0  2  0  0  0  0  0  0
  183.4370  179.9120  138.8430 C   0  0  0  0  0  2  0  0  0  0  0  0
  181.9710  180.1010  138.4520 C   0  0  0  0  0  2  0  0  0  0  0  0
  181.6160  181.5700  138.5230 C   0  0  0  0  0  1  0  0  0  0  0  0
  1 12  1  0  0  0  0
  1 19  1  0  0  0  0
  2 18  1  6  0  0  0
  2 17  1  0  0  0  0
  3  8  1  0  0  0  0
  4 15  1  0  0  0  0
  4  3  2  0  0  0  0
  5 14  1  0  0  0  0
  6 13  1  0  0  0  0
  7  1  2  0  0  0  0
  8 10  2  0  0  0  0
  9 10  1  6  0  0  0
  9  2  1  0  0  0  0
  9  6  1  0  0  0  0
 11 24  1  6  0  0  0
 11 18  1  0  0  0  0
 13  5  2  0  0  0  0
 13  7  1  0  0  0  0
 14 12  2  0  0  0  0
 15 16  2  0  0  0  0
 16 11  1  0  0  0  0
 16 10  1  0  0  0  0
 17  5  1  0  0  0  0
 20 19  1  0  0  0  0
 21 20  1  0  0  0  0
 21 22  1  1  0  0  0
 23 21  1  0  0  0  0
 24 25  1  0  0  0  0
 26 27  1  1  0  0  0
 28 26  1  0  0  0  0
 28 25  1  1  0  0  0
 29 28  1  0  0  0  0
 29 26  1  0  0  0  0
 30 25  1  0  0  0  0
 31 32  1  0  0  0  0
 31 30  1  0  0  0  0
M  END
>  <MODEL>
9

>  <REMARK>
 VINA RESULT:      -7.1      3.660      6.719
  Name = 
  8 active torsions:
  status: ('A' for Active; 'I' for Inactive)
    1  A    between atoms: C_1  and  C_10
    2  A    between atoms: C_2  and  C_24
    3  A    between atoms: C_6  and  C_7
    4  A    between atoms: C_7  and  N_32
    5  A    between atoms: C_10  and  C_24
    6  A    between atoms: C_16  and  C_27
    7  A    between atoms: C_22  and  N_32
    8  A    between atoms: C_27  and  N_32
                            x       y       z     vdW  Elec       q    Type
                         _______ _______ _______ _____ _____    ______ ____

>  <TORSDO>
F 8

$$$$
