=
 OpenBabel10272401083D

 27 31  0  0  1  0  0  0  0  0999 V2000
  190.9370  177.3190  141.8280 O   0  0  0  0  0  0  0  0  0  0  0  0
  188.6440  177.0920  140.9690 C   0  0  1  0  0  3  0  0  0  0  0  0
  188.6340  176.0120  143.2680 C   0  0  0  0  0  2  0  0  0  0  0  0
  185.6250  179.7180  142.2790 N   0  0  0  0  0  0  0  0  0  0  0  0
  183.7460  180.2190  143.6000 F   0  0  0  0  0  0  0  0  0  0  0  0
  188.5140  178.5150  140.4750 C   0  0  0  0  0  3  0  0  0  0  0  0
  186.0520  177.3940  143.7150 C   0  0  0  0  0  3  0  0  0  0  0  0
  190.8200  177.3690  146.0130 C   0  0  0  0  0  0  0  0  0  0  0  0
  184.9810  178.2290  144.0350 C   0  0  0  0  0  3  0  0  0  0  0  0
  190.8240  177.4220  147.7630 Cl  0  0  0  0  0  0  0  0  0  0  0  0
  186.9030  177.7310  142.6560 C   0  0  0  0  0  0  0  0  0  0  0  0
  190.0930  176.5810  140.9440 C   0  0  1  0  0  3  0  0  0  0  0  0
  184.7800  179.3980  143.2960 C   0  0  0  0  0  0  0  0  0  0  0  0
  186.6690  178.9130  141.9420 C   0  0  0  0  0  0  0  0  0  0  0  0
  190.8430  177.3010  143.2290 C   0  0  0  0  0  0  0  0  0  0  0  0
  188.0310  176.9190  142.2950 N   0  0  0  0  0  0  0  0  0  0  0  0
  189.7820  176.7280  145.3390 C   0  0  0  0  0  3  0  0  0  0  0  0
  187.5780  179.3060  140.9070 N   0  0  0  0  0  0  0  0  0  0  0  0
  191.8250  177.9590  145.3150 N   0  0  0  0  0  0  0  0  0  0  0  0
  191.8550  177.9370  143.9550 C   0  0  0  0  0  3  0  0  0  0  0  0
  189.7830  176.6900  143.9440 C   0  0  0  0  0  0  0  0  0  0  0  0
  191.7800  176.4090  136.9930 C   0  0  0  0  0  3  0  0  0  0  0  0
  190.6630  176.5340  139.5590 C   0  0  0  0  0  0  0  0  0  0  0  0
  192.0230  176.8020  139.3700 C   0  0  0  0  0  3  0  0  0  0  0  0
  192.5820  176.7420  138.0900 C   0  0  0  0  0  3  0  0  0  0  0  0
  190.4230  176.1340  137.1760 C   0  0  0  0  0  3  0  0  0  0  0  0
  189.8650  176.1930  138.4570 C   0  0  0  0  0  3  0  0  0  0  0  0
  1 15  1  0  0  0  0
  2  6  1  1  0  0  0
  2 16  1  0  0  0  0
  3 21  1  0  0  0  0
  4 13  1  0  0  0  0
  6 18  2  0  0  0  0
  7  9  1  0  0  0  0
  8 10  1  0  0  0  0
 11  7  2  0  0  0  0
 12 23  1  6  0  0  0
 12  2  1  0  0  0  0
 12  1  1  0  0  0  0
 13  5  1  0  0  0  0
 13  9  2  0  0  0  0
 14  4  2  0  0  0  0
 14 11  1  0  0  0  0
 15 21  1  0  0  0  0
 15 20  2  0  0  0  0
 16 11  1  0  0  0  0
 16  3  1  0  0  0  0
 17  8  1  0  0  0  0
 18 14  1  0  0  0  0
 19  8  2  0  0  0  0
 20 19  1  0  0  0  0
 21 17  2  0  0  0  0
 22 26  2  0  0  0  0
 22 25  1  0  0  0  0
 24 23  1  0  0  0  0
 25 24  2  0  0  0  0
 26 27  1  0  0  0  0
 27 23  2  0  0  0  0
M  END
>  <MODEL>
1

>  <REMARK>
 VINA RESULT:      -7.8      0.000      0.000
  Name = 
  1 active torsions:
  status: ('A' for Active; 'I' for Inactive)
    1  A    between atoms: C_9  and  C_15
                            x       y       z     vdW  Elec       q    Type
                         _______ _______ _______ _____ _____    ______ ____

>  <TORSDO>
F 1

$$$$
=
 OpenBabel10272401083D

 27 31  0  0  1  0  0  0  0  0999 V2000
  185.8440  178.6720  142.2760 O   0  0  0  0  0  0  0  0  0  0  0  0
  185.1080  177.9390  144.5060 C   0  0  1  0  0  3  0  0  0  0  0  0
  186.9950  176.3730  143.8500 C   0  0  0  0  0  2  0  0  0  0  0  0
  187.3090  179.0290  147.9250 N   0  0  0  0  0  0  0  0  0  0  0  0
  188.8380  178.5470  149.6440 F   0  0  0  0  0  0  0  0  0  0  0  0
  185.0510  179.3200  145.1200 C   0  0  0  0  0  3  0  0  0  0  0  0
  187.9880  176.6860  146.6230 C   0  0  0  0  0  3  0  0  0  0  0  0
  189.8660  177.6260  141.7650 C   0  0  0  0  0  0  0  0  0  0  0  0
  188.6030  177.0210  147.8300 C   0  0  0  0  0  3  0  0  0  0  0  0
  191.5540  177.2350  141.5100 Cl  0  0  0  0  0  0  0  0  0  0  0  0
  187.0170  177.5350  146.0800 C   0  0  0  0  0  0  0  0  0  0  0  0
  184.8430  177.9480  142.9920 C   0  0  1  0  0  3  0  0  0  0  0  0
  188.2450  178.2090  148.4740 C   0  0  0  0  0  0  0  0  0  0  0  0
  186.6890  178.7170  146.7550 C   0  0  0  0  0  0  0  0  0  0  0  0
  187.1840  178.2720  142.1470 C   0  0  0  0  0  0  0  0  0  0  0  0
  186.3650  177.2490  144.8320 N   0  0  0  0  0  0  0  0  0  0  0  0
  189.1060  176.8750  142.6600 C   0  0  0  0  0  3  0  0  0  0  0  0
  185.7530  179.6300  146.1690 N   0  0  0  0  0  0  0  0  0  0  0  0
  189.3020  178.6640  141.0950 N   0  0  0  0  0  0  0  0  0  0  0  0
  187.9950  178.9970  141.2680 C   0  0  0  0  0  3  0  0  0  0  0  0
  187.7610  177.1920  142.8600 C   0  0  0  0  0  0  0  0  0  0  0  0
  180.8920  179.3010  141.9710 C   0  0  0  0  0  3  0  0  0  0  0  0
  183.4680  178.4380  142.6510 C   0  0  0  0  0  0  0  0  0  0  0  0
  183.0780  178.4990  141.3090 C   0  0  0  0  0  3  0  0  0  0  0  0
  181.7930  178.9320  140.9680 C   0  0  0  0  0  3  0  0  0  0  0  0
  181.2730  179.2350  143.3140 C   0  0  0  0  0  3  0  0  0  0  0  0
  182.5580  178.8020  143.6540 C   0  0  0  0  0  3  0  0  0  0  0  0
  1 12  1  0  0  0  0
  2 16  1  0  0  0  0
  2  6  1  6  0  0  0
  3 16  1  0  0  0  0
  4 13  1  0  0  0  0
  6 18  2  0  0  0  0
  7  9  1  0  0  0  0
  8 17  1  0  0  0  0
  9 13  2  0  0  0  0
 10  8  1  0  0  0  0
 11  7  2  0  0  0  0
 11 14  1  0  0  0  0
 12 23  1  1  0  0  0
 12  2  1  0  0  0  0
 13  5  1  0  0  0  0
 14  4  2  0  0  0  0
 15  1  1  0  0  0  0
 15 21  1  0  0  0  0
 16 11  1  0  0  0  0
 17 21  2  0  0  0  0
 18 14  1  0  0  0  0
 19 20  1  0  0  0  0
 19  8  2  0  0  0  0
 20 15  2  0  0  0  0
 21  3  1  0  0  0  0
 22 26  1  0  0  0  0
 23 27  1  0  0  0  0
 24 23  2  0  0  0  0
 25 24  1  0  0  0  0
 25 22  2  0  0  0  0
 26 27  2  0  0  0  0
M  END
>  <MODEL>
2

>  <REMARK>
 VINA RESULT:      -7.4      3.464      6.579
  Name = 
  1 active torsions:
  status: ('A' for Active; 'I' for Inactive)
    1  A    between atoms: C_9  and  C_15
                            x       y       z     vdW  Elec       q    Type
                         _______ _______ _______ _____ _____    ______ ____

>  <TORSDO>
F 1

$$$$
=
 OpenBabel10272401083D

 27 31  0  0  1  0  0  0  0  0999 V2000
  189.2470  176.9280  142.4190 O   0  0  0  0  0  0  0  0  0  0  0  0
  191.5190  177.0600  143.3520 C   0  0  1  0  0  3  0  0  0  0  0  0
  190.1030  178.6390  144.7480 C   0  0  0  0  0  2  0  0  0  0  0  0
  192.4870  174.9520  146.8660 N   0  0  0  0  0  0  0  0  0  0  0  0
  192.8880  174.8580  149.1800 F   0  0  0  0  0  0  0  0  0  0  0  0
  191.7690  175.5690  143.3790 C   0  0  0  0  0  3  0  0  0  0  0  0
  191.4950  177.5220  147.1120 C   0  0  0  0  0  3  0  0  0  0  0  0
  186.4870  177.8490  145.4290 C   0  0  0  0  0  0  0  0  0  0  0  0
  191.9480  176.8340  148.2390 C   0  0  0  0  0  3  0  0  0  0  0  0
  185.2910  178.2010  146.6580 Cl  0  0  0  0  0  0  0  0  0  0  0  0
  191.5550  176.9100  145.8550 C   0  0  0  0  0  0  0  0  0  0  0  0
  190.5500  177.4820  142.2360 C   0  0  1  0  0  3  0  0  0  0  0  0
  192.4480  175.5370  148.0940 C   0  0  0  0  0  0  0  0  0  0  0  0
  192.0600  175.6070  145.7530 C   0  0  0  0  0  0  0  0  0  0  0  0
  188.3670  177.2730  143.4570 C   0  0  0  0  0  0  0  0  0  0  0  0
  191.0850  177.5620  144.6650 N   0  0  0  0  0  0  0  0  0  0  0  0
  187.7770  178.3660  145.5460 C   0  0  0  0  0  3  0  0  0  0  0  0
  192.0550  174.9440  144.4830 N   0  0  0  0  0  0  0  0  0  0  0  0
  186.1600  177.0680  144.3680 N   0  0  0  0  0  0  0  0  0  0  0  0
  187.0630  176.7740  143.3950 C   0  0  0  0  0  3  0  0  0  0  0  0
  188.7270  178.0820  144.5640 C   0  0  0  0  0  0  0  0  0  0  0  0
  192.1350  176.5920  138.3400 C   0  0  0  0  0  3  0  0  0  0  0  0
  191.0830  177.1810  140.8680 C   0  0  0  0  0  0  0  0  0  0  0  0
  192.4180  177.4840  140.5730 C   0  0  0  0  0  3  0  0  0  0  0  0
  192.9430  177.1920  139.3100 C   0  0  0  0  0  3  0  0  0  0  0  0
  190.8050  176.2810  138.6300 C   0  0  0  0  0  3  0  0  0  0  0  0
  190.2790  176.5730  139.8930 C   0  0  0  0  0  3  0  0  0  0  0  0
  1 15  1  0  0  0  0
  2  6  1  1  0  0  0
  2 16  1  0  0  0  0
  4 13  1  0  0  0  0
  6 18  2  0  0  0  0
  7  9  1  0  0  0  0
  8 17  1  0  0  0  0
  8 10  1  0  0  0  0
 11  7  2  0  0  0  0
 12 23  1  6  0  0  0
 12  1  1  0  0  0  0
 12  2  1  0  0  0  0
 13  9  2  0  0  0  0
 13  5  1  0  0  0  0
 14 11  1  0  0  0  0
 14  4  2  0  0  0  0
 15 21  1  0  0  0  0
 16  3  1  0  0  0  0
 16 11  1  0  0  0  0
 18 14  1  0  0  0  0
 19  8  2  0  0  0  0
 20 15  2  0  0  0  0
 20 19  1  0  0  0  0
 21  3  1  0  0  0  0
 21 17  2  0  0  0  0
 22 26  2  0  0  0  0
 22 25  1  0  0  0  0
 24 23  1  0  0  0  0
 25 24  2  0  0  0  0
 26 27  1  0  0  0  0
 27 23  2  0  0  0  0
M  END
>  <MODEL>
3

>  <REMARK>
 VINA RESULT:      -7.2      3.176      5.419
  Name = 
  1 active torsions:
  status: ('A' for Active; 'I' for Inactive)
    1  A    between atoms: C_9  and  C_15
                            x       y       z     vdW  Elec       q    Type
                         _______ _______ _______ _____ _____    ______ ____

>  <TORSDO>
F 1

$$$$
=
 OpenBabel10272401083D

 27 31  0  0  1  0  0  0  0  0999 V2000
  189.6240  177.9240  139.7790 O   0  0  0  0  0  0  0  0  0  0  0  0
  191.4210  176.2460  139.7380 C   0  0  1  0  0  3  0  0  0  0  0  0
  189.7310  175.4950  137.9980 C   0  0  0  0  0  2  0  0  0  0  0  0
  194.3540  176.3620  136.7210 N   0  0  0  0  0  0  0  0  0  0  0  0
  195.2850  175.5860  134.7060 F   0  0  0  0  0  0  0  0  0  0  0  0
  192.5650  177.2340  139.7360 C   0  0  0  0  0  3  0  0  0  0  0  0
  192.0490  174.9090  136.2490 C   0  0  0  0  0  3  0  0  0  0  0  0
  187.7850  178.0360  136.0190 C   0  0  0  0  0  0  0  0  0  0  0  0
  193.1010  174.8720  135.3330 C   0  0  0  0  0  3  0  0  0  0  0  0
  187.0000  178.1420  134.4580 Cl  0  0  0  0  0  0  0  0  0  0  0  0
  192.1700  175.6760  137.4140 C   0  0  0  0  0  0  0  0  0  0  0  0
  190.1680  176.7850  140.4460 C   0  0  1  0  0  3  0  0  0  0  0  0
  194.2590  175.6110  135.5900 C   0  0  0  0  0  0  0  0  0  0  0  0
  193.3460  176.4050  137.6330 C   0  0  0  0  0  0  0  0  0  0  0  0
  189.0240  177.9000  138.5090 C   0  0  0  0  0  0  0  0  0  0  0  0
  191.1130  175.7670  138.3820 N   0  0  0  0  0  0  0  0  0  0  0  0
  188.4180  176.8540  136.4010 C   0  0  0  0  0  3  0  0  0  0  0  0
  193.4490  177.2520  138.7830 N   0  0  0  0  0  0  0  0  0  0  0  0
  187.7830  179.1080  136.8540 N   0  0  0  0  0  0  0  0  0  0  0  0
  188.3820  179.0630  138.0730 C   0  0  0  0  0  3  0  0  0  0  0  0
  189.0440  176.7760  137.6460 C   0  0  0  0  0  0  0  0  0  0  0  0
  190.9090  177.5610  144.6100 C   0  0  0  0  0  3  0  0  0  0  0  0
  190.4050  177.0660  141.8990 C   0  0  0  0  0  0  0  0  0  0  0  0
  190.9290  176.0560  142.7140 C   0  0  0  0  0  3  0  0  0  0  0  0
  191.1780  176.3010  144.0670 C   0  0  0  0  0  3  0  0  0  0  0  0
  190.3920  178.5760  143.8000 C   0  0  0  0  0  3  0  0  0  0  0  0
  190.1430  178.3300  142.4470 C   0  0  0  0  0  3  0  0  0  0  0  0
  1 12  1  0  0  0  0
  2  6  1  6  0  0  0
  2 12  1  0  0  0  0
  3 16  1  0  0  0  0
  4 14  2  0  0  0  0
  5 13  1  0  0  0  0
  7 11  2  0  0  0  0
  8 17  2  0  0  0  0
  8 19  1  0  0  0  0
  9 13  2  0  0  0  0
  9  7  1  0  0  0  0
 10  8  1  0  0  0  0
 11 14  1  0  0  0  0
 11 16  1  0  0  0  0
 12 23  1  1  0  0  0
 13  4  1  0  0  0  0
 14 18  1  0  0  0  0
 15  1  1  0  0  0  0
 16  2  1  0  0  0  0
 17 21  1  0  0  0  0
 18  6  2  0  0  0  0
 19 20  2  0  0  0  0
 20 15  1  0  0  0  0
 21  3  1  0  0  0  0
 21 15  2  0  0  0  0
 23 27  2  0  0  0  0
 23 24  1  0  0  0  0
 24 25  2  0  0  0  0
 25 22  1  0  0  0  0
 26 22  2  0  0  0  0
 27 26  1  0  0  0  0
M  END
>  <MODEL>
4

>  <REMARK>
 VINA RESULT:      -6.7      5.041      8.172
  Name = 
  1 active torsions:
  status: ('A' for Active; 'I' for Inactive)
    1  A    between atoms: C_9  and  C_15
                            x       y       z     vdW  Elec       q    Type
                         _______ _______ _______ _____ _____    ______ ____

>  <TORSDO>
F 1

$$$$
=
 OpenBabel10272401083D

 27 31  0  0  1  0  0  0  0  0999 V2000
  180.9230  178.5670  137.8390 O   0  0  0  0  0  0  0  0  0  0  0  0
  182.1790  180.1320  139.2600 C   0  0  1  0  0  3  0  0  0  0  0  0
  180.8910  178.6310  140.8520 C   0  0  0  0  0  2  0  0  0  0  0  0
  185.7510  178.9010  141.1190 N   0  0  0  0  0  0  0  0  0  0  0  0
  186.9650  178.1760  142.9970 F   0  0  0  0  0  0  0  0  0  0  0  0
  183.4930  180.0020  138.5230 C   0  0  0  0  0  3  0  0  0  0  0  0
  183.3700  178.5090  142.4700 C   0  0  0  0  0  3  0  0  0  0  0  0
  180.2620  175.0270  139.9750 C   0  0  0  0  0  0  0  0  0  0  0  0
  184.5860  178.2360  143.0980 C   0  0  0  0  0  3  0  0  0  0  0  0
  179.9820  173.5160  140.8130 Cl  0  0  0  0  0  0  0  0  0  0  0  0
  183.3610  178.9950  141.1570 C   0  0  0  0  0  0  0  0  0  0  0  0
  180.9610  179.8980  138.3540 C   0  0  1  0  0  3  0  0  0  0  0  0
  185.7790  178.4420  142.3990 C   0  0  0  0  0  0  0  0  0  0  0  0
  184.5780  179.1850  140.4910 C   0  0  0  0  0  0  0  0  0  0  0  0
  180.7040  177.4140  138.6100 C   0  0  0  0  0  0  0  0  0  0  0  0
  182.1390  179.2750  140.4550 N   0  0  0  0  0  0  0  0  0  0  0  0
  180.4480  176.2020  140.7010 C   0  0  0  0  0  3  0  0  0  0  0  0
  184.5770  179.6080  139.1220 N   0  0  0  0  0  0  0  0  0  0  0  0
  180.3050  175.0510  138.6170 N   0  0  0  0  0  0  0  0  0  0  0  0
  180.5200  176.2050  137.9320 C   0  0  0  0  0  3  0  0  0  0  0  0
  180.6730  177.4030  140.0270 C   0  0  0  0  0  0  0  0  0  0  0  0
  180.6140  182.7690  135.1730 C   0  0  0  0  0  3  0  0  0  0  0  0
  180.8580  180.9110  137.2550 C   0  0  0  0  0  0  0  0  0  0  0  0
  180.7340  180.4730  135.9310 C   0  0  0  0  0  3  0  0  0  0  0  0
  180.6150  181.4000  134.8910 C   0  0  0  0  0  3  0  0  0  0  0  0
  180.7300  183.2130  136.4930 C   0  0  0  0  0  3  0  0  0  0  0  0
  180.8500  182.2860  137.5330 C   0  0  0  0  0  3  0  0  0  0  0  0
  1 12  1  0  0  0  0
  1 15  1  0  0  0  0
  2  6  1  6  0  0  0
  2 16  1  0  0  0  0
  4 13  1  0  0  0  0
  6 18  2  0  0  0  0
  7  9  1  0  0  0  0
  8 17  1  0  0  0  0
  8 10  1  0  0  0  0
 11  7  2  0  0  0  0
 12 23  1  6  0  0  0
 12  2  1  0  0  0  0
 13  5  1  0  0  0  0
 13  9  2  0  0  0  0
 14  4  2  0  0  0  0
 14 11  1  0  0  0  0
 15 21  1  0  0  0  0
 16  3  1  0  0  0  0
 16 11  1  0  0  0  0
 18 14  1  0  0  0  0
 19  8  2  0  0  0  0
 20 15  2  0  0  0  0
 20 19  1  0  0  0  0
 21 17  2  0  0  0  0
 21  3  1  0  0  0  0
 22 26  1  0  0  0  0
 23 27  1  0  0  0  0
 24 23  2  0  0  0  0
 25 22  2  0  0  0  0
 25 24  1  0  0  0  0
 26 27  2  0  0  0  0
M  END
>  <MODEL>
5

>  <REMARK>
 VINA RESULT:      -6.6      6.654      9.403
  Name = 
  1 active torsions:
  status: ('A' for Active; 'I' for Inactive)
    1  A    between atoms: C_9  and  C_15
                            x       y       z     vdW  Elec       q    Type
                         _______ _______ _______ _____ _____    ______ ____

>  <TORSDO>
F 1

$$$$
=
 OpenBabel10272401083D

 27 31  0  0  1  0  0  0  0  0999 V2000
  189.7090  178.0730  141.3810 O   0  0  0  0  0  0  0  0  0  0  0  0
  187.2850  177.6530  141.4110 C   0  0  1  0  0  3  0  0  0  0  0  0
  188.2700  176.1630  143.2170 C   0  0  0  0  0  2  0  0  0  0  0  0
  184.8620  179.4620  144.3410 N   0  0  0  0  0  0  0  0  0  0  0  0
  183.6370  179.3940  146.3460 F   0  0  0  0  0  0  0  0  0  0  0  0
  186.8680  179.1050  141.3580 C   0  0  0  0  0  3  0  0  0  0  0  0
  185.9910  177.0040  144.9120 C   0  0  0  0  0  3  0  0  0  0  0  0
  191.2690  177.2960  145.1870 C   0  0  0  0  0  0  0  0  0  0  0  0
  185.0810  177.5800  145.7990 C   0  0  0  0  0  3  0  0  0  0  0  0
  191.9680  177.0110  146.7670 Cl  0  0  0  0  0  0  0  0  0  0  0  0
  186.3220  177.6700  143.7260 C   0  0  0  0  0  0  0  0  0  0  0  0
  188.6360  177.3940  140.7260 C   0  0  1  0  0  3  0  0  0  0  0  0
  184.5190  178.8220  145.4910 C   0  0  0  0  0  0  0  0  0  0  0  0
  185.7390  178.9140  143.4570 C   0  0  0  0  0  0  0  0  0  0  0  0
  190.1830  177.7700  142.6670 C   0  0  0  0  0  0  0  0  0  0  0  0
  187.2670  177.1320  142.7870 N   0  0  0  0  0  0  0  0  0  0  0  0
  190.0960  176.6400  144.8170 C   0  0  0  0  0  3  0  0  0  0  0  0
  186.1290  179.6390  142.2840 N   0  0  0  0  0  0  0  0  0  0  0  0
  191.8660  178.1620  144.3280 N   0  0  0  0  0  0  0  0  0  0  0  0
  191.3520  178.4080  143.0930 C   0  0  0  0  0  3  0  0  0  0  0  0
  189.5430  176.8730  143.5570 C   0  0  0  0  0  0  0  0  0  0  0  0
  188.6210  178.2960  136.5220 C   0  0  0  0  0  3  0  0  0  0  0  0
  188.6070  177.7060  139.2610 C   0  0  0  0  0  0  0  0  0  0  0  0
  189.3510  178.7880  138.7770 C   0  0  0  0  0  3  0  0  0  0  0  0
  189.3570  179.0850  137.4110 C   0  0  0  0  0  3  0  0  0  0  0  0
  187.8810  177.2100  136.9980 C   0  0  0  0  0  3  0  0  0  0  0  0
  187.8760  176.9130  138.3640 C   0  0  0  0  0  3  0  0  0  0  0  0
  1 15  1  0  0  0  0
  2  6  1  1  0  0  0
  2 16  1  0  0  0  0
  3 21  1  0  0  0  0
  4 13  1  0  0  0  0
  6 18  2  0  0  0  0
  7  9  1  0  0  0  0
  8 10  1  0  0  0  0
 11  7  2  0  0  0  0
 12 23  1  6  0  0  0
 12  1  1  0  0  0  0
 12  2  1  0  0  0  0
 13  9  2  0  0  0  0
 13  5  1  0  0  0  0
 14 11  1  0  0  0  0
 14  4  2  0  0  0  0
 15 20  2  0  0  0  0
 15 21  1  0  0  0  0
 16  3  1  0  0  0  0
 16 11  1  0  0  0  0
 17  8  1  0  0  0  0
 18 14  1  0  0  0  0
 19  8  2  0  0  0  0
 20 19  1  0  0  0  0
 21 17  2  0  0  0  0
 22 26  2  0  0  0  0
 22 25  1  0  0  0  0
 24 23  1  0  0  0  0
 25 24  2  0  0  0  0
 26 27  1  0  0  0  0
 27 23  2  0  0  0  0
M  END
>  <MODEL>
6

>  <REMARK>
 VINA RESULT:      -6.1      1.821      2.029
  Name = 
  1 active torsions:
  status: ('A' for Active; 'I' for Inactive)
    1  A    between atoms: C_9  and  C_15
                            x       y       z     vdW  Elec       q    Type
                         _______ _______ _______ _____ _____    ______ ____

>  <TORSDO>
F 1

$$$$
=
 OpenBabel10272401083D

 27 31  0  0  1  0  0  0  0  0999 V2000
  189.0800  176.2810  138.3700 O   0  0  0  0  0  0  0  0  0  0  0  0
  189.3480  177.7710  140.3090 C   0  0  1  0  0  3  0  0  0  0  0  0
  187.4720  178.7710  138.9200 C   0  0  0  0  0  2  0  0  0  0  0  0
  186.6880  177.5070  143.5620 N   0  0  0  0  0  0  0  0  0  0  0  0
  184.8450  178.2820  144.7980 F   0  0  0  0  0  0  0  0  0  0  0  0
  189.4180  176.6740  141.3470 C   0  0  0  0  0  3  0  0  0  0  0  0
  186.0420  179.2050  141.4770 C   0  0  0  0  0  3  0  0  0  0  0  0
  185.1330  176.5370  136.9970 C   0  0  0  0  0  0  0  0  0  0  0  0
  185.2570  179.1810  142.6310 C   0  0  0  0  0  3  0  0  0  0  0  0
  183.4880  176.5870  136.4000 Cl  0  0  0  0  0  0  0  0  0  0  0  0
  187.1640  178.3740  141.3840 C   0  0  0  0  0  0  0  0  0  0  0  0
  189.8730  177.3260  138.9350 C   0  0  1  0  0  3  0  0  0  0  0  0
  185.6010  178.3180  143.6750 C   0  0  0  0  0  0  0  0  0  0  0  0
  187.4730  177.5210  142.4510 C   0  0  0  0  0  0  0  0  0  0  0  0
  187.7530  176.4280  137.9340 C   0  0  0  0  0  0  0  0  0  0  0  0
  187.9960  178.3440  140.2130 N   0  0  0  0  0  0  0  0  0  0  0  0
  185.6560  177.6300  137.6880 C   0  0  0  0  0  3  0  0  0  0  0  0
  188.5740  176.6130  142.3340 N   0  0  0  0  0  0  0  0  0  0  0  0
  185.8960  175.4320  136.7930 N   0  0  0  0  0  0  0  0  0  0  0  0
  187.1770  175.3580  137.2430 C   0  0  0  0  0  3  0  0  0  0  0  0
  186.9670  177.5840  138.1630 C   0  0  0  0  0  0  0  0  0  0  0  0
  194.0400  176.2690  138.9590 C   0  0  0  0  0  3  0  0  0  0  0  0
  191.3240  176.9530  138.9670 C   0  0  0  0  0  0  0  0  0  0  0  0
  191.8340  176.1080  137.9750 C   0  0  0  0  0  3  0  0  0  0  0  0
  193.1890  175.7640  137.9710 C   0  0  0  0  0  3  0  0  0  0  0  0
  193.5380  177.1180  139.9480 C   0  0  0  0  0  3  0  0  0  0  0  0
  192.1830  177.4630  139.9510 C   0  0  0  0  0  3  0  0  0  0  0  0
  1 12  1  0  0  0  0
  2  6  1  1  0  0  0
  3 16  1  0  0  0  0
  4 13  1  0  0  0  0
  6 18  2  0  0  0  0
  7  9  1  0  0  0  0
  8 17  1  0  0  0  0
  9 13  2  0  0  0  0
 10  8  1  0  0  0  0
 11  7  2  0  0  0  0
 11 14  1  0  0  0  0
 12 23  1  1  0  0  0
 12  2  1  0  0  0  0
 13  5  1  0  0  0  0
 14  4  2  0  0  0  0
 15 21  1  0  0  0  0
 15  1  1  0  0  0  0
 16  2  1  0  0  0  0
 16 11  1  0  0  0  0
 17 21  2  0  0  0  0
 18 14  1  0  0  0  0
 19  8  2  0  0  0  0
 19 20  1  0  0  0  0
 20 15  2  0  0  0  0
 21  3  1  0  0  0  0
 22 26  1  0  0  0  0
 23 27  1  0  0  0  0
 24 23  2  0  0  0  0
 25 24  1  0  0  0  0
 25 22  2  0  0  0  0
 26 27  2  0  0  0  0
M  END
>  <MODEL>
7

>  <REMARK>
 VINA RESULT:      -6.1      3.501      5.403
  Name = 
  1 active torsions:
  status: ('A' for Active; 'I' for Inactive)
    1  A    between atoms: C_9  and  C_15
                            x       y       z     vdW  Elec       q    Type
                         _______ _______ _______ _____ _____    ______ ____

>  <TORSDO>
F 1

$$$$
=
 OpenBabel10272401083D

 27 31  0  0  1  0  0  0  0  0999 V2000
  184.5240  178.9640  140.0610 O   0  0  0  0  0  0  0  0  0  0  0  0
  183.5420  177.8470  138.1010 C   0  0  1  0  0  3  0  0  0  0  0  0
  185.9970  178.1850  137.5490 C   0  0  0  0  0  2  0  0  0  0  0  0
  184.0690  173.7080  137.5410 N   0  0  0  0  0  0  0  0  0  0  0  0
  185.1110  171.8750  136.5020 F   0  0  0  0  0  0  0  0  0  0  0  0
  182.7720  176.8030  138.8780 C   0  0  0  0  0  3  0  0  0  0  0  0
  185.9580  175.4240  136.4770 C   0  0  0  0  0  3  0  0  0  0  0  0
  188.5960  178.0130  140.2650 C   0  0  0  0  0  0  0  0  0  0  0  0
  186.0220  174.0560  136.2070 C   0  0  0  0  0  3  0  0  0  0  0  0
  190.2970  177.6260  140.4120 Cl  0  0  0  0  0  0  0  0  0  0  0  0
  184.9260  175.9250  137.2780 C   0  0  0  0  0  0  0  0  0  0  0  0
  183.7340  179.1540  138.8870 C   0  0  1  0  0  3  0  0  0  0  0  0
  185.0570  173.2050  136.7520 C   0  0  0  0  0  0  0  0  0  0  0  0
  183.9800  175.0390  137.8080 C   0  0  0  0  0  0  0  0  0  0  0  0
  185.8900  178.6370  140.0650 C   0  0  0  0  0  0  0  0  0  0  0  0
  184.8220  177.3210  137.6040 N   0  0  0  0  0  0  0  0  0  0  0  0
  187.9770  177.9660  139.0170 C   0  0  0  0  0  3  0  0  0  0  0  0
  182.9660  175.5320  138.6910 N   0  0  0  0  0  0  0  0  0  0  0  0
  187.8800  178.3520  141.3680 N   0  0  0  0  0  0  0  0  0  0  0  0
  186.5580  178.6600  141.2920 C   0  0  0  0  0  3  0  0  0  0  0  0
  186.6200  178.2750  138.9060 C   0  0  0  0  0  0  0  0  0  0  0  0
  179.9900  181.0880  139.7400 C   0  0  0  0  0  3  0  0  0  0  0  0
  182.4350  179.8290  139.2070 C   0  0  0  0  0  0  0  0  0  0  0  0
  182.0050  180.8960  138.4110 C   0  0  0  0  0  3  0  0  0  0  0  0
  180.7860  181.5270  138.6770 C   0  0  0  0  0  3  0  0  0  0  0  0
  180.4100  180.0180  140.5340 C   0  0  0  0  0  3  0  0  0  0  0  0
  181.6290  179.3870  140.2670 C   0  0  0  0  0  3  0  0  0  0  0  0
  1 15  1  0  0  0  0
  2  6  1  1  0  0  0
  2 12  1  0  0  0  0
  3 16  1  0  0  0  0
  3 21  1  0  0  0  0
  4 14  2  0  0  0  0
  5 13  1  0  0  0  0
  7 11  2  0  0  0  0
  8 10  1  0  0  0  0
  8 19  1  0  0  0  0
  9  7  1  0  0  0  0
  9 13  2  0  0  0  0
 11 16  1  0  0  0  0
 11 14  1  0  0  0  0
 12 23  1  1  0  0  0
 12  1  1  0  0  0  0
 13  4  1  0  0  0  0
 14 18  1  0  0  0  0
 15 20  1  0  0  0  0
 16  2  1  0  0  0  0
 17  8  2  0  0  0  0
 18  6  2  0  0  0  0
 20 19  2  0  0  0  0
 21 17  1  0  0  0  0
 21 15  2  0  0  0  0
 22 26  1  0  0  0  0
 23 27  1  0  0  0  0
 24 25  1  0  0  0  0
 24 23  2  0  0  0  0
 25 22  2  0  0  0  0
 27 26  2  0  0  0  0
M  END
>  <MODEL>
8

>  <REMARK>
 VINA RESULT:      -5.9      5.299      8.116
  Name = 
  1 active torsions:
  status: ('A' for Active; 'I' for Inactive)
    1  A    between atoms: C_9  and  C_15
                            x       y       z     vdW  Elec       q    Type
                         _______ _______ _______ _____ _____    ______ ____

>  <TORSDO>
F 1

$$$$
=
 OpenBabel10272401083D

 27 31  0  0  1  0  0  0  0  0999 V2000
  190.0900  174.1330  136.3290 O   0  0  0  0  0  0  0  0  0  0  0  0
  190.7490  176.3410  137.1880 C   0  0  1  0  0  3  0  0  0  0  0  0
  188.2730  176.5160  136.6550 C   0  0  0  0  0  2  0  0  0  0  0  0
  189.8840  177.4070  141.1680 N   0  0  0  0  0  0  0  0  0  0  0  0
  188.6030  178.5510  142.7740 F   0  0  0  0  0  0  0  0  0  0  0  0
  191.5370  175.8260  138.3720 C   0  0  0  0  0  3  0  0  0  0  0  0
  187.9980  177.9640  139.2240 C   0  0  0  0  0  3  0  0  0  0  0  0
  186.0180  173.5380  137.1020 C   0  0  0  0  0  0  0  0  0  0  0  0
  187.8100  178.4130  140.5320 C   0  0  0  0  0  3  0  0  0  0  0  0
  184.3250  173.2280  137.4250 Cl  0  0  0  0  0  0  0  0  0  0  0  0
  189.1500  177.2400  138.8970 C   0  0  0  0  0  0  0  0  0  0  0  0
  190.7420  175.3610  136.0050 C   0  0  1  0  0  3  0  0  0  0  0  0
  188.7760  178.1240  141.5000 C   0  0  0  0  0  0  0  0  0  0  0  0
  190.0930  176.9690  139.8970 C   0  0  0  0  0  0  0  0  0  0  0  0
  188.7150  173.9980  136.5870 C   0  0  0  0  0  0  0  0  0  0  0  0
  189.3860  176.7370  137.5730 N   0  0  0  0  0  0  0  0  0  0  0  0
  186.4760  174.8500  136.9930 C   0  0  0  0  0  3  0  0  0  0  0  0
  191.2370  176.1640  139.5910 N   0  0  0  0  0  0  0  0  0  0  0  0
  186.8830  172.5000  136.9650 N   0  0  0  0  0  0  0  0  0  0  0  0
  188.2040  172.7030  136.7140 C   0  0  0  0  0  3  0  0  0  0  0  0
  187.8270  175.0910  136.7370 C   0  0  0  0  0  0  0  0  0  0  0  0
  194.6500  174.6150  134.3750 C   0  0  0  0  0  3  0  0  0  0  0  0
  192.1120  175.1200  135.4480 C   0  0  0  0  0  0  0  0  0  0  0  0
  192.6370  173.8220  135.4620 C   0  0  0  0  0  3  0  0  0  0  0  0
  193.9040  173.5700  134.9290 C   0  0  0  0  0  3  0  0  0  0  0  0
  194.1280  175.9110  134.3510 C   0  0  0  0  0  3  0  0  0  0  0  0
  192.8610  176.1630  134.8840 C   0  0  0  0  0  3  0  0  0  0  0  0
  1 15  1  0  0  0  0
  2 16  1  0  0  0  0
  2  6  1  1  0  0  0
  3 21  1  0  0  0  0
  3 16  1  0  0  0  0
  4 13  1  0  0  0  0
  6 18  2  0  0  0  0
  7  9  1  0  0  0  0
  8 10  1  0  0  0  0
  9 13  2  0  0  0  0
 11  7  2  0  0  0  0
 11 14  1  0  0  0  0
 12 23  1  1  0  0  0
 12  1  1  0  0  0  0
 12  2  1  0  0  0  0
 13  5  1  0  0  0  0
 14  4  2  0  0  0  0
 15 20  2  0  0  0  0
 15 21  1  0  0  0  0
 16 11  1  0  0  0  0
 17  8  1  0  0  0  0
 18 14  1  0  0  0  0
 19  8  2  0  0  0  0
 20 19  1  0  0  0  0
 21 17  2  0  0  0  0
 22 25  1  0  0  0  0
 23 24  1  0  0  0  0
 25 24  2  0  0  0  0
 26 22  2  0  0  0  0
 26 27  1  0  0  0  0
 27 23  2  0  0  0  0
M  END
>  <MODEL>
9

>  <REMARK>
 VINA RESULT:      -5.9      4.230      6.636
  Name = 
  1 active torsions:
  status: ('A' for Active; 'I' for Inactive)
    1  A    between atoms: C_9  and  C_15
                            x       y       z     vdW  Elec       q    Type
                         _______ _______ _______ _____ _____    ______ ____

>  <TORSDO>
F 1

$$$$
