=
 OpenBabel10272400383D

 31 34  0  0  1  0  0  0  0  0999 V2000
  189.3140  178.2250  139.2760 C   0  0  0  0  0  0  0  0  0  0  0  0
  187.1280  178.2440  142.4200 C   0  0  2  0  0  3  0  0  0  0  0  0
  185.7100  178.4640  141.8990 C   0  0  0  0  0  0  0  0  0  0  0  0
  184.1340  179.0420  140.1510 C   0  0  0  0  0  3  0  0  0  0  0  0
  188.1920  177.8320  141.4060 C   0  0  0  0  0  0  0  0  0  0  0  0
  190.2680  177.2590  139.5880 C   0  0  0  0  0  3  0  0  0  0  0  0
  185.4430  178.7910  140.5630 C   0  0  0  0  0  3  0  0  0  0  0  0
  188.4670  176.9220  144.1600 C   0  0  2  0  0  3  0  0  0  0  0  0
  189.3760  178.8970  138.0630 O   0  0  0  0  0  1  0  0  0  0  0  0
  184.8510  178.1070  144.1890 N   0  0  0  0  0  2  0  0  0  0  0  0
  183.1150  178.9820  141.0460 N   0  0  0  0  0  0  0  0  0  0  0  0
  189.2570  176.2000  143.0710 C   0  0  0  0  0  2  0  0  0  0  0  0
  187.0860  177.3170  143.6440 C   0  0  1  0  0  3  0  0  0  0  0  0
  188.2960  178.5180  140.1840 C   0  0  0  0  0  3  0  0  0  0  0  0
  182.2830  178.6400  143.2120 F   0  0  0  0  0  0  0  0  0  0  0  0
  189.2120  176.9050  141.7430 C   0  0  0  0  0  0  0  0  0  0  0  0
  190.2180  176.6060  140.8200 C   0  0  0  0  0  3  0  0  0  0  0  0
  186.1930  177.9110  144.7250 C   0  0  0  0  0  2  0  0  0  0  0  0
  184.6310  178.4380  142.8110 C   0  0  0  0  0  0  0  0  0  0  0  0
  183.3320  178.6880  142.3540 C   0  0  0  0  0  0  0  0  0  0  0  0
  189.2440  178.0130  144.9180 C   0  0  0  0  0  2  0  0  0  0  0  0
  192.1360  176.4790  146.5660 O   0  0  0  0  0  0  0  0  0  0  0  0
  190.9610  176.9090  146.4000 C   0  0  0  0  0  0  0  0  0  0  0  0
  190.6280  177.6480  145.2120 N   0  0  0  0  0  0  0  0  0  0  0  0
  191.2200  179.5130  143.7460 C   0  0  0  0  0  1  0  0  0  0  0  0
  191.6820  178.2130  144.3770 C   0  0  0  0  0  2  0  0  0  0  0  0
  189.9420  176.6810  147.4750 C   0  0  0  0  0  2  0  0  0  0  0  0
  189.6090  177.9700  148.2150 C   0  0  0  0  0  2  0  0  0  0  0  0
  188.1810  177.9580  148.7380 C   0  0  2  0  0  3  0  0  0  0  0  0
  187.6310  176.6230  148.6030 N   0  0  0  0  0  1  0  0  0  0  0  0
  187.3280  178.9350  147.9500 C   0  0  0  0  0  1  0  0  0  0  0  0
  1  6  2  0  0  0  0
  1 14  1  0  0  0  0
  2  5  1  6  0  0  0
  2 13  1  0  0  0  0
  3  2  1  0  0  0  0
  3 19  1  0  0  0  0
  4  7  1  0  0  0  0
  4 11  2  0  0  0  0
  5 16  1  0  0  0  0
  6 17  1  0  0  0  0
  7  3  2  0  0  0  0
  8 21  1  6  0  0  0
  9  1  1  0  0  0  0
 10 18  1  0  0  0  0
 11 20  1  0  0  0  0
 12  8  1  0  0  0  0
 13  8  1  0  0  0  0
 13 18  1  1  0  0  0
 14  5  2  0  0  0  0
 16 12  1  0  0  0  0
 17 16  2  0  0  0  0
 19 10  1  0  0  0  0
 20 19  2  0  0  0  0
 20 15  1  0  0  0  0
 21 24  1  0  0  0  0
 23 22  2  0  0  0  0
 23 27  1  0  0  0  0
 24 23  1  0  0  0  0
 25 26  1  0  0  0  0
 26 24  1  0  0  0  0
 27 28  1  0  0  0  0
 28 29  1  0  0  0  0
 29 31  1  6  0  0  0
 30 29  1  0  0  0  0
M  END
>  <MODEL>
1

>  <REMARK>
 VINA RESULT:      -9.3      0.000      0.000
  Name = 
  6 active torsions:
  status: ('A' for Active; 'I' for Inactive)
    1  A    between atoms: C_1  and  C_24
    2  A    between atoms: C_6  and  C_19
    3  A    between atoms: C_6  and  C_24
    4  A    between atoms: C_9  and  N_22
    5  A    between atoms: C_15  and  C_23
    6  A    between atoms: N_22  and  C_23
                            x       y       z     vdW  Elec       q    Type
                         _______ _______ _______ _____ _____    ______ ____

>  <TORSDO>
F 6

$$$$
=
 OpenBabel10272400383D

 31 34  0  0  1  0  0  0  0  0999 V2000
  189.1360  176.9250  141.4440 C   0  0  0  0  0  0  0  0  0  0  0  0
  186.8240  177.7320  144.3870 C   0  0  2  0  0  3  0  0  0  0  0  0
  187.7290  177.6680  145.6150 C   0  0  0  0  0  0  0  0  0  0  0  0
  189.8110  177.0960  146.7140 C   0  0  0  0  0  3  0  0  0  0  0  0
  187.4980  177.8090  143.0200 C   0  0  0  0  0  0  0  0  0  0  0  0
  188.6410  177.7600  140.4450 C   0  0  0  0  0  3  0  0  0  0  0  0
  189.0450  177.1910  145.5520 C   0  0  0  0  0  3  0  0  0  0  0  0
  184.8920  179.0670  143.3590 C   0  0  2  0  0  3  0  0  0  0  0  0
  190.2010  176.0770  141.1760 O   0  0  0  0  0  1  0  0  0  0  0  0
  185.8560  178.4980  146.9960 N   0  0  0  0  0  2  0  0  0  0  0  0
  189.2810  177.4530  147.9120 N   0  0  0  0  0  0  0  0  0  0  0  0
  185.7510  179.4790  142.1670 C   0  0  0  0  0  2  0  0  0  0  0  0
  185.7650  178.8270  144.5880 C   0  0  1  0  0  3  0  0  0  0  0  0
  188.5580  176.9400  142.7140 C   0  0  0  0  0  3  0  0  0  0  0  0
  187.5150  178.2470  149.2360 F   0  0  0  0  0  0  0  0  0  0  0  0
  186.9550  178.6000  141.9740 C   0  0  0  0  0  0  0  0  0  0  0  0
  187.5520  178.5900  140.7100 C   0  0  0  0  0  3  0  0  0  0  0  0
  184.9560  178.5540  145.8490 C   0  0  0  0  0  2  0  0  0  0  0  0
  187.1970  178.0050  146.8790 C   0  0  0  0  0  0  0  0  0  0  0  0
  188.0030  177.9020  148.0190 C   0  0  0  0  0  0  0  0  0  0  0  0
  183.8320  177.9910  143.0610 C   0  0  0  0  0  2  0  0  0  0  0  0
  181.2910  178.5980  140.4900 O   0  0  0  0  0  0  0  0  0  0  0  0
  182.3920  178.2630  141.0070 C   0  0  0  0  0  0  0  0  0  0  0  0
  182.6370  178.5140  142.4030 N   0  0  0  0  0  0  0  0  0  0  0  0
  180.7180  178.7100  143.9040 C   0  0  0  0  0  1  0  0  0  0  0  0
  181.7980  179.4520  143.1390 C   0  0  0  0  0  2  0  0  0  0  0  0
  183.4510  177.6520  140.1390 C   0  0  0  0  0  2  0  0  0  0  0  0
  183.8970  178.6080  139.0410 C   0  0  0  0  0  2  0  0  0  0  0  0
  184.2630  177.8620  137.7670 C   0  0  2  0  0  3  0  0  0  0  0  0
  183.8000  176.4900  137.8650 N   0  0  0  0  0  1  0  0  0  0  0  0
  185.7670  177.8710  137.5700 C   0  0  0  0  0  1  0  0  0  0  0  0
  1 14  1  0  0  0  0
  2  5  1  6  0  0  0
  2 13  1  0  0  0  0
  2  3  1  0  0  0  0
  3 19  1  0  0  0  0
  4 11  2  0  0  0  0
  6 17  1  0  0  0  0
  6  1  2  0  0  0  0
  7  3  2  0  0  0  0
  7  4  1  0  0  0  0
  8 21  1  6  0  0  0
  8 13  1  0  0  0  0
  9  1  1  0  0  0  0
 11 20  1  0  0  0  0
 12  8  1  0  0  0  0
 13 18  1  1  0  0  0
 14  5  2  0  0  0  0
 16 12  1  0  0  0  0
 16  5  1  0  0  0  0
 17 16  2  0  0  0  0
 18 10  1  0  0  0  0
 19 10  1  0  0  0  0
 19 20  2  0  0  0  0
 20 15  1  0  0  0  0
 22 23  2  0  0  0  0
 23 24  1  0  0  0  0
 24 21  1  0  0  0  0
 24 26  1  0  0  0  0
 26 25  1  0  0  0  0
 27 23  1  0  0  0  0
 28 27  1  0  0  0  0
 29 31  1  1  0  0  0
 29 30  1  0  0  0  0
 29 28  1  0  0  0  0
M  END
>  <MODEL>
2

>  <REMARK>
 VINA RESULT:      -8.8      2.787      7.321
  Name = 
  6 active torsions:
  status: ('A' for Active; 'I' for Inactive)
    1  A    between atoms: C_1  and  C_24
    2  A    between atoms: C_6  and  C_19
    3  A    between atoms: C_6  and  C_24
    4  A    between atoms: C_9  and  N_22
    5  A    between atoms: C_15  and  C_23
    6  A    between atoms: N_22  and  C_23
                            x       y       z     vdW  Elec       q    Type
                         _______ _______ _______ _____ _____    ______ ____

>  <TORSDO>
F 6

$$$$
=
 OpenBabel10272400383D

 31 34  0  0  1  0  0  0  0  0999 V2000
  190.2950  176.8290  146.4160 C   0  0  0  0  0  0  0  0  0  0  0  0
  187.5720  177.7340  143.8800 C   0  0  2  0  0  3  0  0  0  0  0  0
  186.3720  178.1360  144.7330 C   0  0  0  0  0  0  0  0  0  0  0  0
  185.1990  178.2830  146.8490 C   0  0  0  0  0  3  0  0  0  0  0  0
  188.9320  177.6580  144.5710 C   0  0  0  0  0  0  0  0  0  0  0  0
  191.4470  177.3000  145.7900 C   0  0  0  0  0  3  0  0  0  0  0  0
  186.3450  177.9550  146.1220 C   0  0  0  0  0  3  0  0  0  0  0  0
  188.8450  178.3620  141.7450 C   0  0  2  0  0  3  0  0  0  0  0  0
  190.3820  176.1960  147.6480 O   0  0  0  0  0  1  0  0  0  0  0  0
  185.1840  178.8200  142.6770 N   0  0  0  0  0  2  0  0  0  0  0  0
  184.1030  178.7670  146.2110 N   0  0  0  0  0  0  0  0  0  0  0  0
  190.1090  178.6820  142.5390 C   0  0  0  0  0  2  0  0  0  0  0  0
  187.6050  178.5900  142.6050 C   0  0  1  0  0  3  0  0  0  0  0  0
  189.0520  176.9940  145.8040 C   0  0  0  0  0  3  0  0  0  0  0  0
  182.9640  179.4270  144.2690 F   0  0  0  0  0  0  0  0  0  0  0  0
  190.1190  178.0650  143.9100 C   0  0  0  0  0  0  0  0  0  0  0  0
  191.3570  177.9100  144.5390 C   0  0  0  0  0  3  0  0  0  0  0  0
  186.3040  178.4280  141.8280 C   0  0  0  0  0  2  0  0  0  0  0  0
  185.2060  178.6160  144.0960 C   0  0  0  0  0  0  0  0  0  0  0  0
  184.0810  178.9400  144.8640 C   0  0  0  0  0  0  0  0  0  0  0  0
  188.8870  177.0430  140.9520 C   0  0  0  0  0  2  0  0  0  0  0  0
  189.7150  177.9870  137.5090 O   0  0  0  0  0  0  0  0  0  0  0  0
  189.0230  177.7830  138.5440 C   0  0  0  0  0  0  0  0  0  0  0  0
  189.6140  177.1430  139.6890 N   0  0  0  0  0  0  0  0  0  0  0  0
  192.0380  177.2960  139.9610 C   0  0  0  0  0  1  0  0  0  0  0  0
  190.8700  176.4150  139.5580 C   0  0  0  0  0  2  0  0  0  0  0  0
  187.5740  178.1670  138.5410 C   0  0  0  0  0  2  0  0  0  0  0  0
  186.7610  177.2880  137.6010 C   0  0  0  0  0  2  0  0  0  0  0  0
  185.3390  177.8050  137.4450 C   0  0  2  0  0  3  0  0  0  0  0  0
  185.0810  178.8120  138.4560 N   0  0  0  0  0  1  0  0  0  0  0  0
  184.3490  176.6660  137.6070 C   0  0  0  0  0  1  0  0  0  0  0  0
  1  9  1  0  0  0  0
  2  5  1  1  0  0  0
  2  3  1  0  0  0  0
  3  7  1  0  0  0  0
  5 14  2  0  0  0  0
  6  1  2  0  0  0  0
  7  4  2  0  0  0  0
  8 21  1  1  0  0  0
  8 12  1  0  0  0  0
  8 13  1  0  0  0  0
 10 19  1  0  0  0  0
 11  4  1  0  0  0  0
 12 16  1  0  0  0  0
 13 18  1  6  0  0  0
 13  2  1  0  0  0  0
 14  1  1  0  0  0  0
 15 20  1  0  0  0  0
 16 17  2  0  0  0  0
 16  5  1  0  0  0  0
 17  6  1  0  0  0  0
 18 10  1  0  0  0  0
 19  3  2  0  0  0  0
 19 20  1  0  0  0  0
 20 11  2  0  0  0  0
 22 23  2  0  0  0  0
 23 24  1  0  0  0  0
 24 21  1  0  0  0  0
 26 24  1  0  0  0  0
 26 25  1  0  0  0  0
 27 23  1  0  0  0  0
 28 27  1  0  0  0  0
 29 28  1  0  0  0  0
 29 31  1  1  0  0  0
 29 30  1  0  0  0  0
M  END
>  <MODEL>
3

>  <REMARK>
 VINA RESULT:      -8.6      2.064      6.358
  Name = 
  6 active torsions:
  status: ('A' for Active; 'I' for Inactive)
    1  A    between atoms: C_1  and  C_24
    2  A    between atoms: C_6  and  C_19
    3  A    between atoms: C_6  and  C_24
    4  A    between atoms: C_9  and  N_22
    5  A    between atoms: C_15  and  C_23
    6  A    between atoms: N_22  and  C_23
                            x       y       z     vdW  Elec       q    Type
                         _______ _______ _______ _____ _____    ______ ____

>  <TORSDO>
F 6

$$$$
=
 OpenBabel10272400383D

 31 34  0  0  1  0  0  0  0  0999 V2000
  190.2380  176.9390  145.8910 C   0  0  0  0  0  0  0  0  0  0  0  0
  187.3840  177.8200  143.4960 C   0  0  2  0  0  3  0  0  0  0  0  0
  186.2200  178.1970  144.4090 C   0  0  0  0  0  0  0  0  0  0  0  0
  185.1480  178.3090  146.5800 C   0  0  0  0  0  3  0  0  0  0  0  0
  188.7750  177.7590  144.1200 C   0  0  0  0  0  0  0  0  0  0  0  0
  191.3520  177.4320  145.2140 C   0  0  0  0  0  3  0  0  0  0  0  0
  186.2620  178.0050  145.7960 C   0  0  0  0  0  3  0  0  0  0  0  0
  188.5420  178.4830  141.3070 C   0  0  2  0  0  3  0  0  0  0  0  0
  190.3950  176.2980  147.1120 O   0  0  0  0  0  1  0  0  0  0  0  0
  184.9230  178.8770  142.4180 N   0  0  0  0  0  2  0  0  0  0  0  0
  184.0150  178.7810  145.9990 N   0  0  0  0  0  0  0  0  0  0  0  0
  189.8380  178.8170  142.0420 C   0  0  0  0  0  2  0  0  0  0  0  0
  187.3410  178.6850  142.2270 C   0  0  1  0  0  3  0  0  0  0  0  0
  188.9650  177.0880  145.3400 C   0  0  0  0  0  3  0  0  0  0  0  0
  182.7740  179.4380  144.1200 F   0  0  0  0  0  0  0  0  0  0  0  0
  189.9230  178.1900  143.4060 C   0  0  0  0  0  0  0  0  0  0  0  0
  191.1930  178.0500  143.9740 C   0  0  0  0  0  3  0  0  0  0  0  0
  186.0070  178.5090  141.5130 C   0  0  0  0  0  2  0  0  0  0  0  0
  185.0170  178.6630  143.8330 C   0  0  0  0  0  0  0  0  0  0  0  0
  183.9260  178.9640  144.6560 C   0  0  0  0  0  0  0  0  0  0  0  0
  188.5650  177.1710  140.5030 C   0  0  0  0  0  2  0  0  0  0  0  0
  189.7900  176.9010  137.0590 O   0  0  0  0  0  0  0  0  0  0  0  0
  189.7860  176.8420  138.3190 C   0  0  0  0  0  0  0  0  0  0  0  0
  188.6720  177.3720  139.0600 N   0  0  0  0  0  0  0  0  0  0  0  0
  186.5300  177.5130  137.8900 C   0  0  0  0  0  1  0  0  0  0  0  0
  187.7280  178.2800  138.4190 C   0  0  0  0  0  2  0  0  0  0  0  0
  190.9740  176.2640  139.0270 C   0  0  0  0  0  2  0  0  0  0  0  0
  191.8010  175.3780  138.1050 C   0  0  0  0  0  2  0  0  0  0  0  0
  193.2480  175.8430  138.0370 C   0  0  2  0  0  3  0  0  0  0  0  0
  193.4590  176.8990  139.0090 N   0  0  0  0  0  1  0  0  0  0  0  0
  193.5620  176.3690  136.6480 C   0  0  0  0  0  1  0  0  0  0  0  0
  1  9  1  0  0  0  0
  2  5  1  1  0  0  0
  2  3  1  0  0  0  0
  3  7  1  0  0  0  0
  5 14  2  0  0  0  0
  6  1  2  0  0  0  0
  7  4  2  0  0  0  0
  8 21  1  1  0  0  0
  8 12  1  0  0  0  0
  8 13  1  0  0  0  0
 10 19  1  0  0  0  0
 11  4  1  0  0  0  0
 12 16  1  0  0  0  0
 13 18  1  6  0  0  0
 13  2  1  0  0  0  0
 14  1  1  0  0  0  0
 15 20  1  0  0  0  0
 16 17  2  0  0  0  0
 16  5  1  0  0  0  0
 17  6  1  0  0  0  0
 18 10  1  0  0  0  0
 19  3  2  0  0  0  0
 19 20  1  0  0  0  0
 20 11  2  0  0  0  0
 22 23  2  0  0  0  0
 23 27  1  0  0  0  0
 23 24  1  0  0  0  0
 24 21  1  0  0  0  0
 25 26  1  0  0  0  0
 26 24  1  0  0  0  0
 28 27  1  0  0  0  0
 29 31  1  6  0  0  0
 29 28  1  0  0  0  0
 29 30  1  0  0  0  0
M  END
>  <MODEL>
4

>  <REMARK>
 VINA RESULT:      -8.4      2.454      6.578
  Name = 
  6 active torsions:
  status: ('A' for Active; 'I' for Inactive)
    1  A    between atoms: C_1  and  C_24
    2  A    between atoms: C_6  and  C_19
    3  A    between atoms: C_6  and  C_24
    4  A    between atoms: C_9  and  N_22
    5  A    between atoms: C_15  and  C_23
    6  A    between atoms: N_22  and  C_23
                            x       y       z     vdW  Elec       q    Type
                         _______ _______ _______ _____ _____    ______ ____

>  <TORSDO>
F 6

$$$$
=
 OpenBabel10272400383D

 31 34  0  0  1  0  0  0  0  0999 V2000
  190.7150  177.0870  141.3200 C   0  0  0  0  0  0  0  0  0  0  0  0
  187.0980  178.2570  141.7710 C   0  0  2  0  0  3  0  0  0  0  0  0
  186.5650  178.4130  140.3490 C   0  0  0  0  0  0  0  0  0  0  0  0
  186.8690  178.5350  137.9480 C   0  0  0  0  0  3  0  0  0  0  0  0
  188.3910  177.4680  141.9550 C   0  0  0  0  0  0  0  0  0  0  0  0
  190.8690  176.1960  142.3810 C   0  0  0  0  0  3  0  0  0  0  0  0
  187.3950  178.3250  139.2240 C   0  0  0  0  0  3  0  0  0  0  0  0
  186.4310  177.4470  144.1100 C   0  0  2  0  0  3  0  0  0  0  0  0
  191.7780  177.3380  140.4640 O   0  0  0  0  0  1  0  0  0  0  0  0
  184.3180  178.8580  141.2770 N   0  0  0  0  0  2  0  0  0  0  0  0
  185.5540  178.8370  137.7940 N   0  0  0  0  0  0  0  0  0  0  0  0
  187.5040  176.3620  144.0900 C   0  0  0  0  0  2  0  0  0  0  0  0
  185.9690  177.7660  142.6910 C   0  0  1  0  0  3  0  0  0  0  0  0
  189.4920  177.7270  141.1210 C   0  0  0  0  0  3  0  0  0  0  0  0
  183.4140  179.2550  138.6580 F   0  0  0  0  0  0  0  0  0  0  0  0
  188.5830  176.6170  143.0740 C   0  0  0  0  0  0  0  0  0  0  0  0
  189.8080  175.9670  143.2550 C   0  0  0  0  0  3  0  0  0  0  0  0
  184.7960  178.7360  142.6500 C   0  0  0  0  0  2  0  0  0  0  0  0
  185.2080  178.7560  140.1570 C   0  0  0  0  0  0  0  0  0  0  0  0
  184.7200  178.9510  138.8600 C   0  0  0  0  0  0  0  0  0  0  0  0
  186.7400  178.6570  145.0100 C   0  0  0  0  0  2  0  0  0  0  0  0
  187.6370  177.9790  148.4980 O   0  0  0  0  0  0  0  0  0  0  0  0
  187.7550  178.0790  147.2460 C   0  0  0  0  0  0  0  0  0  0  0  0
  186.6030  178.3750  146.4370 N   0  0  0  0  0  0  0  0  0  0  0  0
  184.2310  178.8170  146.0450 C   0  0  0  0  0  1  0  0  0  0  0  0
  185.2600  178.2130  146.9810 C   0  0  0  0  0  2  0  0  0  0  0  0
  189.0930  177.8340  146.6170 C   0  0  0  0  0  2  0  0  0  0  0  0
  189.8100  176.6550  147.2610 C   0  0  0  0  0  2  0  0  0  0  0  0
  191.3200  176.8370  147.2320 C   0  0  2  0  0  3  0  0  0  0  0  0
  191.7230  177.2890  145.9140 N   0  0  0  0  0  1  0  0  0  0  0  0
  192.0100  175.5230  147.5450 C   0  0  0  0  0  1  0  0  0  0  0  0
  1  6  1  0  0  0  0
  2  3  1  6  0  0  0
  2  5  1  0  0  0  0
  2 13  1  0  0  0  0
  4  7  1  0  0  0  0
  5 16  2  0  0  0  0
  6 17  2  0  0  0  0
  7  3  2  0  0  0  0
  8 21  1  6  0  0  0
  9  1  1  0  0  0  0
 10 18  1  0  0  0  0
 11  4  2  0  0  0  0
 11 20  1  0  0  0  0
 12  8  1  0  0  0  0
 13 18  1  1  0  0  0
 13  8  1  0  0  0  0
 14  1  2  0  0  0  0
 14  5  1  0  0  0  0
 15 20  1  0  0  0  0
 16 17  1  0  0  0  0
 16 12  1  0  0  0  0
 19  3  1  0  0  0  0
 19 10  1  0  0  0  0
 20 19  2  0  0  0  0
 21 24  1  0  0  0  0
 23 22  2  0  0  0  0
 24 26  1  0  0  0  0
 24 23  1  0  0  0  0
 25 26  1  0  0  0  0
 27 23  1  0  0  0  0
 27 28  1  0  0  0  0
 29 28  1  0  0  0  0
 29 31  1  6  0  0  0
 30 29  1  0  0  0  0
M  END
>  <MODEL>
5

>  <REMARK>
 VINA RESULT:      -8.4      2.092      3.573
  Name = 
  6 active torsions:
  status: ('A' for Active; 'I' for Inactive)
    1  A    between atoms: C_1  and  C_24
    2  A    between atoms: C_6  and  C_19
    3  A    between atoms: C_6  and  C_24
    4  A    between atoms: C_9  and  N_22
    5  A    between atoms: C_15  and  C_23
    6  A    between atoms: N_22  and  C_23
                            x       y       z     vdW  Elec       q    Type
                         _______ _______ _______ _____ _____    ______ ____

>  <TORSDO>
F 6

$$$$
=
 OpenBabel10272400383D

 31 34  0  0  1  0  0  0  0  0999 V2000
  189.5320  177.8460  139.8690 C   0  0  0  0  0  0  0  0  0  0  0  0
  186.4850  178.3600  142.1300 C   0  0  2  0  0  3  0  0  0  0  0  0
  185.3240  178.5850  141.1640 C   0  0  0  0  0  0  0  0  0  0  0  0
  184.4280  179.0220  138.9550 C   0  0  0  0  0  3  0  0  0  0  0  0
  187.7730  177.7740  141.5560 C   0  0  0  0  0  0  0  0  0  0  0  0
  190.2540  176.8790  140.5650 C   0  0  0  0  0  3  0  0  0  0  0  0
  185.5170  178.7580  139.7870 C   0  0  0  0  0  3  0  0  0  0  0  0
  187.0960  177.1960  144.3310 C   0  0  2  0  0  3  0  0  0  0  0  0
  190.0270  178.3600  138.6780 O   0  0  0  0  0  1  0  0  0  0  0  0
  183.7670  178.5560  143.0830 N   0  0  0  0  0  2  0  0  0  0  0  0
  183.1800  179.1230  139.4790 N   0  0  0  0  0  0  0  0  0  0  0  0
  188.1200  176.3080  143.6300 C   0  0  0  0  0  2  0  0  0  0  0  0
  185.9840  177.5940  143.3630 C   0  0  1  0  0  3  0  0  0  0  0  0
  188.3110  178.2990  140.3700 C   0  0  0  0  0  3  0  0  0  0  0  0
  181.6880  179.0910  141.2880 F   0  0  0  0  0  0  0  0  0  0  0  0
  188.5520  176.8460  142.2940 C   0  0  0  0  0  0  0  0  0  0  0  0
  189.7660  176.3860  141.7750 C   0  0  0  0  0  3  0  0  0  0  0  0
  184.8530  178.3600  144.0370 C   0  0  0  0  0  2  0  0  0  0  0  0
  184.0170  178.7240  141.6810 C   0  0  0  0  0  0  0  0  0  0  0  0
  182.9520  178.9810  140.8100 C   0  0  0  0  0  0  0  0  0  0  0  0
  187.6890  178.3320  145.1840 C   0  0  0  0  0  2  0  0  0  0  0  0
  188.6600  177.5950  148.6400 O   0  0  0  0  0  0  0  0  0  0  0  0
  188.7260  177.6550  147.3810 C   0  0  0  0  0  0  0  0  0  0  0  0
  187.5870  178.0980  146.6220 N   0  0  0  0  0  0  0  0  0  0  0  0
  185.6990  179.5450  147.1860 C   0  0  0  0  0  1  0  0  0  0  0  0
  186.2650  178.1370  147.2360 C   0  0  0  0  0  2  0  0  0  0  0  0
  189.9830  177.2110  146.6940 C   0  0  0  0  0  2  0  0  0  0  0  0
  191.0790  176.8690  147.6940 C   0  0  0  0  0  2  0  0  0  0  0  0
  191.8890  175.6640  147.2420 C   0  0  2  0  0  3  0  0  0  0  0  0
  193.1980  175.7030  147.8670 N   0  0  0  0  0  1  0  0  0  0  0  0
  192.0530  175.6820  145.7330 C   0  0  0  0  0  1  0  0  0  0  0  0
  1 14  2  0  0  0  0
  1  6  1  0  0  0  0
  2  3  1  6  0  0  0
  2 13  1  0  0  0  0
  3 19  1  0  0  0  0
  4 11  2  0  0  0  0
  4  7  1  0  0  0  0
  5  2  1  0  0  0  0
  5 16  2  0  0  0  0
  6 17  2  0  0  0  0
  7  3  2  0  0  0  0
  8 21  1  6  0  0  0
  9  1  1  0  0  0  0
 10 18  1  0  0  0  0
 11 20  1  0  0  0  0
 12  8  1  0  0  0  0
 13 18  1  1  0  0  0
 13  8  1  0  0  0  0
 14  5  1  0  0  0  0
 16 12  1  0  0  0  0
 17 16  1  0  0  0  0
 19 10  1  0  0  0  0
 20 15  1  0  0  0  0
 20 19  2  0  0  0  0
 21 24  1  0  0  0  0
 23 22  2  0  0  0  0
 24 26  1  0  0  0  0
 24 23  1  0  0  0  0
 25 26  1  0  0  0  0
 27 23  1  0  0  0  0
 27 28  1  0  0  0  0
 29 31  1  6  0  0  0
 29 28  1  0  0  0  0
 29 30  1  0  0  0  0
M  END
>  <MODEL>
6

>  <REMARK>
 VINA RESULT:      -8.3      1.728      2.802
  Name = 
  6 active torsions:
  status: ('A' for Active; 'I' for Inactive)
    1  A    between atoms: C_1  and  C_24
    2  A    between atoms: C_6  and  C_19
    3  A    between atoms: C_6  and  C_24
    4  A    between atoms: C_9  and  N_22
    5  A    between atoms: C_15  and  C_23
    6  A    between atoms: N_22  and  C_23
                            x       y       z     vdW  Elec       q    Type
                         _______ _______ _______ _____ _____    ______ ____

>  <TORSDO>
F 6

$$$$
=
 OpenBabel10272400383D

 31 34  0  0  1  0  0  0  0  0999 V2000
  188.4170  178.1600  140.0240 C   0  0  0  0  0  0  0  0  0  0  0  0
  186.3460  178.2900  143.2420 C   0  0  2  0  0  3  0  0  0  0  0  0
  184.9170  178.5450  142.7680 C   0  0  0  0  0  0  0  0  0  0  0  0
  183.2980  179.1450  141.0680 C   0  0  0  0  0  3  0  0  0  0  0  0
  187.3610  177.8320  142.1980 C   0  0  0  0  0  0  0  0  0  0  0  0
  189.3530  177.1710  140.3180 C   0  0  0  0  0  3  0  0  0  0  0  0
  184.6130  178.8610  141.4370 C   0  0  0  0  0  3  0  0  0  0  0  0
  187.7070  176.9540  144.9550 C   0  0  2  0  0  3  0  0  0  0  0  0
  188.4560  178.8120  138.8000 O   0  0  0  0  0  1  0  0  0  0  0  0
  184.1310  178.2480  145.0920 N   0  0  0  0  0  2  0  0  0  0  0  0
  182.3100  179.1290  141.9990 N   0  0  0  0  0  0  0  0  0  0  0  0
  188.4350  176.1940  143.8500 C   0  0  0  0  0  2  0  0  0  0  0  0
  186.3210  177.3830  144.4810 C   0  0  1  0  0  3  0  0  0  0  0  0
  187.4410  178.4970  140.9630 C   0  0  0  0  0  3  0  0  0  0  0  0
  181.5460  178.8430  144.1980 F   0  0  0  0  0  0  0  0  0  0  0  0
  188.3640  176.8800  142.5140 C   0  0  0  0  0  0  0  0  0  0  0  0
  189.3280  176.5380  141.5600 C   0  0  0  0  0  3  0  0  0  0  0  0
  185.4850  178.0200  145.5840 C   0  0  0  0  0  2  0  0  0  0  0  0
  183.8710  178.5650  143.7180 C   0  0  0  0  0  0  0  0  0  0  0  0
  182.5650  178.8470  143.3030 C   0  0  0  0  0  0  0  0  0  0  0  0
  188.5420  178.0330  145.6680 C   0  0  0  0  0  2  0  0  0  0  0  0
  191.1390  176.6360  147.8450 O   0  0  0  0  0  0  0  0  0  0  0  0
  190.5080  176.9180  146.7890 C   0  0  0  0  0  0  0  0  0  0  0  0
  189.2180  177.5490  146.8700 N   0  0  0  0  0  0  0  0  0  0  0  0
  187.6050  178.7870  148.2270 C   0  0  0  0  0  1  0  0  0  0  0  0
  188.4750  177.5480  148.1250 C   0  0  0  0  0  2  0  0  0  0  0  0
  191.0970  176.5390  145.4640 C   0  0  0  0  0  2  0  0  0  0  0  0
  191.9820  177.6460  144.9050 C   0  0  0  0  0  2  0  0  0  0  0  0
  191.3310  178.3300  143.7130 C   0  0  2  0  0  3  0  0  0  0  0  0
  192.1310  178.0920  142.5270 N   0  0  0  0  0  1  0  0  0  0  0  0
  191.2310  179.8240  143.9600 C   0  0  0  0  0  1  0  0  0  0  0  0
  1  6  2  0  0  0  0
  1 14  1  0  0  0  0
  2  5  1  6  0  0  0
  2 13  1  0  0  0  0
  3  2  1  0  0  0  0
  3 19  1  0  0  0  0
  4  7  1  0  0  0  0
  4 11  2  0  0  0  0
  5 16  1  0  0  0  0
  6 17  1  0  0  0  0
  7  3  2  0  0  0  0
  8 21  1  6  0  0  0
  9  1  1  0  0  0  0
 10 18  1  0  0  0  0
 11 20  1  0  0  0  0
 12  8  1  0  0  0  0
 13  8  1  0  0  0  0
 13 18  1  1  0  0  0
 14  5  2  0  0  0  0
 16 12  1  0  0  0  0
 17 16  2  0  0  0  0
 19 10  1  0  0  0  0
 20 19  2  0  0  0  0
 20 15  1  0  0  0  0
 21 24  1  0  0  0  0
 23 24  1  0  0  0  0
 23 22  2  0  0  0  0
 24 26  1  0  0  0  0
 26 25  1  0  0  0  0
 27 23  1  0  0  0  0
 28 27  1  0  0  0  0
 29 31  1  1  0  0  0
 29 28  1  0  0  0  0
 30 29  1  0  0  0  0
M  END
>  <MODEL>
7

>  <REMARK>
 VINA RESULT:      -7.9      1.176      2.803
  Name = 
  6 active torsions:
  status: ('A' for Active; 'I' for Inactive)
    1  A    between atoms: C_1  and  C_24
    2  A    between atoms: C_6  and  C_19
    3  A    between atoms: C_6  and  C_24
    4  A    between atoms: C_9  and  N_22
    5  A    between atoms: C_15  and  C_23
    6  A    between atoms: N_22  and  C_23
                            x       y       z     vdW  Elec       q    Type
                         _______ _______ _______ _____ _____    ______ ____

>  <TORSDO>
F 6

$$$$
=
 OpenBabel10272400383D

 31 34  0  0  1  0  0  0  0  0999 V2000
  185.9910  179.1600  146.7040 C   0  0  0  0  0  0  0  0  0  0  0  0
  188.9680  177.6490  144.8290 C   0  0  2  0  0  3  0  0  0  0  0  0
  189.9120  177.1710  145.9290 C   0  0  0  0  0  0  0  0  0  0  0  0
  190.6320  177.0710  148.2410 C   0  0  0  0  0  3  0  0  0  0  0  0
  187.5320  177.9780  145.2280 C   0  0  0  0  0  0  0  0  0  0  0  0
  184.9180  178.7930  145.8950 C   0  0  0  0  0  3  0  0  0  0  0  0
  189.7060  177.4810  147.2800 C   0  0  0  0  0  3  0  0  0  0  0  0
  188.0360  176.9980  142.5310 C   0  0  2  0  0  3  0  0  0  0  0  0
  185.7730  179.9160  147.8470 O   0  0  0  0  0  1  0  0  0  0  0  0
  191.3440  176.1350  144.2020 N   0  0  0  0  0  2  0  0  0  0  0  0
  191.7400  176.3810  147.8680 N   0  0  0  0  0  0  0  0  0  0  0  0
  186.6120  176.9320  143.0770 C   0  0  0  0  0  2  0  0  0  0  0  0
  189.0440  176.6870  143.6340 C   0  0  1  0  0  3  0  0  0  0  0  0
  187.2860  178.7680  146.3640 C   0  0  0  0  0  3  0  0  0  0  0  0
  193.1070  175.3870  146.2420 F   0  0  0  0  0  0  0  0  0  0  0  0
  186.4410  177.6750  144.3730 C   0  0  0  0  0  0  0  0  0  0  0  0
  185.1450  178.0580  144.7320 C   0  0  0  0  0  3  0  0  0  0  0  0
  190.4760  176.5920  143.1230 C   0  0  0  0  0  2  0  0  0  0  0  0
  191.0890  176.4770  145.5710 C   0  0  0  0  0  0  0  0  0  0  0  0
  191.9870  176.0770  146.5680 C   0  0  0  0  0  0  0  0  0  0  0  0
  188.3460  178.2270  141.6570 C   0  0  0  0  0  2  0  0  0  0  0  0
  186.6600  178.4110  138.4080 O   0  0  0  0  0  0  0  0  0  0  0  0
  186.8270  178.4670  139.6580 C   0  0  0  0  0  0  0  0  0  0  0  0
  188.0650  178.0220  140.2390 N   0  0  0  0  0  0  0  0  0  0  0  0
  190.4110  177.6630  139.6520 C   0  0  0  0  0  1  0  0  0  0  0  0
  188.9820  177.1890  139.4680 C   0  0  0  0  0  2  0  0  0  0  0  0
  185.7030  178.9520  140.5230 C   0  0  0  0  0  2  0  0  0  0  0  0
  184.4190  179.1370  139.7240 C   0  0  0  0  0  2  0  0  0  0  0  0
  183.3000  178.2560  140.2580 C   0  0  2  0  0  3  0  0  0  0  0  0
  182.0480  178.6380  139.6320 N   0  0  0  0  0  1  0  0  0  0  0  0
  183.1790  178.4190  141.7620 C   0  0  0  0  0  1  0  0  0  0  0  0
  1  9  1  0  0  0  0
  2  5  1  1  0  0  0
  2  3  1  0  0  0  0
  3  7  1  0  0  0  0
  5 14  2  0  0  0  0
  6  1  2  0  0  0  0
  7  4  2  0  0  0  0
  8 21  1  1  0  0  0
  8 12  1  0  0  0  0
  8 13  1  0  0  0  0
 10 19  1  0  0  0  0
 11  4  1  0  0  0  0
 12 16  1  0  0  0  0
 13 18  1  6  0  0  0
 13  2  1  0  0  0  0
 14  1  1  0  0  0  0
 15 20  1  0  0  0  0
 16 17  2  0  0  0  0
 16  5  1  0  0  0  0
 17  6  1  0  0  0  0
 18 10  1  0  0  0  0
 19  3  2  0  0  0  0
 19 20  1  0  0  0  0
 20 11  2  0  0  0  0
 22 23  2  0  0  0  0
 23 24  1  0  0  0  0
 23 27  1  0  0  0  0
 24 21  1  0  0  0  0
 26 25  1  0  0  0  0
 26 24  1  0  0  0  0
 28 29  1  0  0  0  0
 28 27  1  0  0  0  0
 29 31  1  1  0  0  0
 30 29  1  0  0  0  0
M  END
>  <MODEL>
8

>  <REMARK>
 VINA RESULT:      -7.8      3.071      7.584
  Name = 
  6 active torsions:
  status: ('A' for Active; 'I' for Inactive)
    1  A    between atoms: C_1  and  C_24
    2  A    between atoms: C_6  and  C_19
    3  A    between atoms: C_6  and  C_24
    4  A    between atoms: C_9  and  N_22
    5  A    between atoms: C_15  and  C_23
    6  A    between atoms: N_22  and  C_23
                            x       y       z     vdW  Elec       q    Type
                         _______ _______ _______ _____ _____    ______ ____

>  <TORSDO>
F 6

$$$$
=
 OpenBabel10272400383D

 31 34  0  0  1  0  0  0  0  0999 V2000
  191.0190  176.3360  143.6320 C   0  0  0  0  0  0  0  0  0  0  0  0
  187.5190  177.5700  142.6870 C   0  0  2  0  0  3  0  0  0  0  0  0
  186.8330  177.8370  144.0240 C   0  0  0  0  0  0  0  0  0  0  0  0
  186.7060  177.6730  146.4380 C   0  0  0  0  0  3  0  0  0  0  0  0
  189.0370  177.4070  142.6970 C   0  0  0  0  0  0  0  0  0  0  0  0
  191.8080  176.9000  142.6320 C   0  0  0  0  0  3  0  0  0  0  0  0
  187.4020  177.4610  145.2480 C   0  0  0  0  0  3  0  0  0  0  0  0
  187.7700  178.5040  140.3130 C   0  0  2  0  0  3  0  0  0  0  0  0
  191.5980  175.5350  144.6070 O   0  0  0  0  0  1  0  0  0  0  0  0
  184.9090  178.7960  142.8050 N   0  0  0  0  0  2  0  0  0  0  0  0
  185.4700  178.2350  146.4140 N   0  0  0  0  0  0  0  0  0  0  0  0
  189.2690  178.7180  140.5070 C   0  0  0  0  0  2  0  0  0  0  0  0
  187.0410  178.5980  141.6500 C   0  0  1  0  0  3  0  0  0  0  0  0
  189.6450  176.5760  143.6530 C   0  0  0  0  0  3  0  0  0  0  0  0
  183.6390  179.1540  145.2730 F   0  0  0  0  0  0  0  0  0  0  0  0
  189.8390  177.9130  141.6420 C   0  0  0  0  0  0  0  0  0  0  0  0
  191.2180  177.6810  141.6390 C   0  0  0  0  0  3  0  0  0  0  0  0
  185.5260  178.5380  141.5080 C   0  0  0  0  0  2  0  0  0  0  0  0
  185.5340  178.3930  144.0310 C   0  0  0  0  0  0  0  0  0  0  0  0
  184.8750  178.5970  145.2480 C   0  0  0  0  0  0  0  0  0  0  0  0
  187.3900  177.3110  139.4170 C   0  0  0  0  0  2  0  0  0  0  0  0
  187.4140  177.7790  135.7820 O   0  0  0  0  0  0  0  0  0  0  0  0
  187.8460  177.5740  136.9500 C   0  0  0  0  0  0  0  0  0  0  0  0
  186.9600  177.7000  138.0760 N   0  0  0  0  0  0  0  0  0  0  0  0
  184.5350  177.4080  137.9800 C   0  0  0  0  0  1  0  0  0  0  0  0
  185.6860  178.3960  137.9360 C   0  0  0  0  0  2  0  0  0  0  0  0
  189.2970  177.2500  137.1450 C   0  0  0  0  0  2  0  0  0  0  0  0
  189.6740  175.9350  136.4770 C   0  0  0  0  0  2  0  0  0  0  0  0
  190.8480  175.2700  137.1800 C   0  0  2  0  0  3  0  0  0  0  0  0
  190.4990  173.9010  137.5080 N   0  0  0  0  0  1  0  0  0  0  0  0
  191.1860  176.0210  138.4550 C   0  0  0  0  0  1  0  0  0  0  0  0
  1 14  1  0  0  0  0
  1  9  1  0  0  0  0
  2  5  1  1  0  0  0
  2  3  1  0  0  0  0
  3 19  2  0  0  0  0
  3  7  1  0  0  0  0
  5 14  2  0  0  0  0
  6  1  2  0  0  0  0
  7  4  2  0  0  0  0
  8 21  1  1  0  0  0
  8 12  1  0  0  0  0
  8 13  1  0  0  0  0
 10 19  1  0  0  0  0
 11  4  1  0  0  0  0
 12 16  1  0  0  0  0
 13 18  1  6  0  0  0
 13  2  1  0  0  0  0
 16  5  1  0  0  0  0
 17 16  2  0  0  0  0
 17  6  1  0  0  0  0
 18 10  1  0  0  0  0
 19 20  1  0  0  0  0
 20 15  1  0  0  0  0
 20 11  2  0  0  0  0
 22 23  2  0  0  0  0
 23 27  1  0  0  0  0
 23 24  1  0  0  0  0
 24 21  1  0  0  0  0
 26 25  1  0  0  0  0
 26 24  1  0  0  0  0
 28 27  1  0  0  0  0
 28 29  1  0  0  0  0
 29 30  1  0  0  0  0
 29 31  1  1  0  0  0
M  END
>  <MODEL>
9

>  <REMARK>
 VINA RESULT:      -7.4      2.610      6.851
  Name = 
  6 active torsions:
  status: ('A' for Active; 'I' for Inactive)
    1  A    between atoms: C_1  and  C_24
    2  A    between atoms: C_6  and  C_19
    3  A    between atoms: C_6  and  C_24
    4  A    between atoms: C_9  and  N_22
    5  A    between atoms: C_15  and  C_23
    6  A    between atoms: N_22  and  C_23
                            x       y       z     vdW  Elec       q    Type
                         _______ _______ _______ _____ _____    ______ ____

>  <TORSDO>
F 6

$$$$
