=
 OpenBabel10272401413D

 55 62  0  0  1  0  0  0  0  0999 V2000
  188.4220  177.9740  134.8020 C   0  0  0  0  0  2  0  0  0  0  0  0
  188.9840  180.1460  137.1440 O   0  0  0  0  0  1  0  0  0  0  0  0
  182.8070  176.2850  136.8670 C   0  0  2  0  0  0  0  0  0  0  0  0
  185.6940  174.8330  136.3880 C   0  0  1  0  0  3  0  0  0  0  0  0
  184.4390  174.7120  137.2430 C   0  0  0  0  0  2  0  0  0  0  0  0
  188.1000  176.2100  137.7660 O   0  0  0  0  0  0  0  0  0  0  0  0
  181.8390  178.0090  135.7230 C   0  0  0  0  0  2  0  0  0  0  0  0
  181.7510  176.6260  135.9910 O   0  0  0  0  0  0  0  0  0  0  0  0
  187.1880  175.3750  138.2140 O   0  0  0  0  0  0  0  0  0  0  0  0
  189.1090  178.2390  138.5900 C   0  0  1  0  0  3  0  0  0  0  0  0
  183.8870  177.3710  136.6920 C   0  0  2  0  0  3  0  0  0  0  0  0
  185.8000  175.9960  135.3660 C   0  0  1  0  0  3  0  0  0  0  0  0
  186.9880  174.5010  137.1400 C   0  0  1  0  0  3  0  0  0  0  0  0
  188.7050  176.7880  138.8850 C   0  0  1  0  0  3  0  0  0  0  0  0
  186.9200  178.2390  134.9570 C   0  0  0  0  0  2  0  0  0  0  0  0
  189.2750  178.0240  136.0780 C   0  0  0  0  0  2  0  0  0  0  0  0
  188.6460  178.7960  137.2390 C   0  0  2  0  0  3  0  0  0  0  0  0
  183.0620  178.5820  136.4030 C   0  0  0  0  0  2  0  0  0  0  0  0
  184.7920  177.1590  135.4680 C   0  0  2  0  0  3  0  0  0  0  0  0
  187.8730  177.9410  139.4350 C   0  0  1  0  0  3  0  0  0  0  0  0
  183.2940  175.0080  136.4860 O   0  0  0  0  0  0  0  0  0  0  0  0
  186.2140  177.3320  135.9580 C   0  0  1  0  0  3  0  0  0  0  0  0
  182.1480  174.9350  138.8390 O   0  0  0  0  0  0  0  0  0  0  0  0
  180.4520  176.6380  138.4350 S   0  0  0  0  0  0  0  0  0  0  0  0
  180.7590  174.9580  139.0290 C   0  0  0  0  0  2  0  0  0  0  0  0
  182.2260  176.2460  138.3350 C   0  0  2  0  0  0  0  0  0  0  0  0
  182.9870  177.1520  139.3180 C   0  0  0  0  0  2  0  0  0  0  0  0
  182.1270  178.2720  139.9040 C   0  0  1  0  0  3  0  0  0  0  0  0
  181.1070  179.2420  142.0110 C   0  0  0  0  0  1  0  0  0  0  0  0
  181.9320  178.1120  141.4110 C   0  0  0  0  0  2  0  0  0  0  0  0
  182.7020  179.5120  139.6180 O   0  0  0  0  0  0  0  0  0  0  0  0
  184.0790  179.2820  139.6520 C   0  0  0  0  0  1  0  0  0  0  0  0
  186.9750  173.0550  137.6260 C   0  0  0  0  0  2  0  0  0  0  0  0
  188.0760  172.2380  136.9710 C   0  0  0  0  0  2  0  0  0  0  0  0
  189.2210  173.0170  136.8120 O   0  0  0  0  0  1  0  0  0  0  0  0
  188.1180  178.1570  140.9440 C   0  0  1  0  0  3  0  0  0  0  0  0
  187.5090  177.0540  141.8130 C   0  0  0  0  0  2  0  0  0  0  0  0
  186.5350  177.5950  142.8050 C   0  0  0  0  0  0  0  0  0  0  0  0
  184.8130  179.3230  143.3630 C   0  0  0  0  0  3  0  0  0  0  0  0
  186.7720  177.8590  145.2580 C   0  0  0  0  0  0  0  0  0  0  0  0
  186.4430  176.9300  144.1390 C   0  0  0  0  0  2  0  0  0  0  0  0
  184.9360  179.4590  144.6880 C   0  0  0  0  0  3  0  0  0  0  0  0
  185.7520  178.6230  142.4650 C   0  0  0  0  0  3  0  0  0  0  0  0
  187.8560  177.4790  146.2020 C   0  0  0  0  0  1  0  0  0  0  0  0
  186.0350  178.9360  145.5270 C   0  0  0  0  0  3  0  0  0  0  0  0
  189.5010  178.3220  141.2580 O   0  0  0  0  0  0  0  0  0  0  0  0
  190.2900  178.6690  143.5480 C   0  0  0  0  0  3  0  0  0  0  0  0
  191.2440  176.8080  144.7780 C   0  0  0  0  0  0  0  0  0  0  0  0
  190.4570  176.4940  142.5030 C   0  0  0  0  0  3  0  0  0  0  0  0
  191.0350  175.9790  143.6670 C   0  0  0  0  0  3  0  0  0  0  0  0
  190.8690  178.1560  144.7110 C   0  0  0  0  0  3  0  0  0  0  0  0
  190.0790  177.8380  142.4360 C   0  0  0  0  0  0  0  0  0  0  0  0
  191.8530  176.2710  146.0060 C   0  0  0  0  0  0  0  0  0  0  0  0
  191.8970  176.9690  147.0540 O   0  0  0  0  0  1  0  0  0  0  0  0
  192.3870  174.9890  146.0180 O   0  0  0  0  0  0  0  0  0  0  0  0
  1 15  1  0  0  0  0
  1 16  1  0  0  0  0
  2 17  1  0  0  0  0
  3  8  1  6  0  0  0
  3 26  1  0  0  0  0
  4 13  1  0  0  0  0
  4  5  1  1  0  0  0
  6  9  1  0  0  0  0
  6 14  1  0  0  0  0
  7  8  1  0  0  0  0
  7 18  1  0  0  0  0
 10 14  1  0  0  0  0
 10 20  1  0  0  0  0
 11  3  1  0  0  0  0
 12 19  1  0  0  0  0
 12 22  1  0  0  0  0
 12  4  1  0  0  0  0
 13 33  1  0  0  0  0
 13  9  1  0  0  0  0
 14 20  1  0  0  0  0
 15 22  1  0  0  0  0
 16 17  1  0  0  0  0
 17 10  1  0  0  0  0
 18 11  1  0  0  0  0
 19 22  1  0  0  0  0
 19 11  1  0  0  0  0
 20 36  1  0  0  0  0
 21  3  1  0  0  0  0
 21  5  1  0  0  0  0
 23 25  1  0  0  0  0
 24 25  1  0  0  0  0
 26 24  1  0  0  0  0
 26 23  1  0  0  0  0
 26 27  1  0  0  0  0
 27 28  1  0  0  0  0
 28 30  1  0  0  0  0
 30 29  1  0  0  0  0
 31 32  1  0  0  0  0
 31 28  1  0  0  0  0
 34 33  1  0  0  0  0
 35 34  1  0  0  0  0
 36 46  1  0  0  0  0
 36 37  1  0  0  0  0
 37 38  1  0  0  0  0
 38 41  1  0  0  0  0
 39 42  2  0  0  0  0
 40 45  2  0  0  0  0
 40 44  1  0  0  0  0
 41 40  1  0  0  0  0
 42 45  1  0  0  0  0
 43 38  2  0  0  0  0
 43 39  1  0  0  0  0
 46 52  1  0  0  0  0
 47 51  1  0  0  0  0
 48 53  1  0  0  0  0
 49 50  2  0  0  0  0
 50 48  1  0  0  0  0
 51 48  2  0  0  0  0
 52 49  1  0  0  0  0
 52 47  2  0  0  0  0
 53 55  2  0  0  0  0
 53 54  1  0  0  0  0
M  END
>  <MODEL>
1

>  <REMARK>
 VINA RESULT:      -7.2      0.000      0.000
  Name = 
  13 active torsions:
  status: ('A' for Active; 'I' for Inactive)
    1  A    between atoms: C_2  and  C_28
    2  A    between atoms: C_6  and  C_53
    3  A    between atoms: C_10  and  C_32
    4  A    between atoms: C_11  and  C_29
    5  A    between atoms: C_16  and  C_17
    6  A    between atoms: C_17  and  C_23
    7  A    between atoms: O_25  and  C_29
    8  A    between atoms: C_28  and  C_49
    9  A    between atoms: C_29  and  C_38
   10  A    between atoms: O_33  and  C_49
   11  A    between atoms: O_33  and  C_52
   12  A    between atoms: C_38  and  C_53
   13  A    between atoms: C_45  and  C_49
                            x       y       z     vdW  Elec       q    Type
                         _______ _______ _______ _____ _____    ______ ____

>  <TORSDO>
F 13

$$$$
=
 OpenBabel10272401413D

 55 62  0  0  1  0  0  0  0  0999 V2000
  188.9410  177.4490  134.3560 C   0  0  0  0  0  2  0  0  0  0  0  0
  189.1610  179.6700  136.7080 O   0  0  0  0  0  1  0  0  0  0  0  0
  183.2120  175.5450  135.8420 C   0  0  2  0  0  0  0  0  0  0  0  0
  186.1920  174.2130  135.6950 C   0  0  1  0  0  3  0  0  0  0  0  0
  184.8590  174.0490  136.4140 C   0  0  0  0  0  2  0  0  0  0  0  0
  188.3780  175.7080  137.2970 O   0  0  0  0  0  0  0  0  0  0  0  0
  182.3020  177.2130  134.5730 C   0  0  0  0  0  2  0  0  0  0  0  0
  182.2430  175.8310  134.8540 O   0  0  0  0  0  0  0  0  0  0  0  0
  187.4600  174.8400  137.6600 O   0  0  0  0  0  0  0  0  0  0  0  0
  189.2090  177.7870  138.1900 C   0  0  1  0  0  3  0  0  0  0  0  0
  184.2600  176.6750  135.7640 C   0  0  2  0  0  3  0  0  0  0  0  0
  186.3580  175.3670  134.6710 C   0  0  1  0  0  3  0  0  0  0  0  0
  187.4110  173.9450  136.5860 C   0  0  1  0  0  3  0  0  0  0  0  0
  188.8360  176.3250  138.4650 C   0  0  1  0  0  3  0  0  0  0  0  0
  187.4220  177.6510  134.3460 C   0  0  0  0  0  2  0  0  0  0  0  0
  189.6500  177.5510  135.7140 C   0  0  0  0  0  2  0  0  0  0  0  0
  188.8710  178.3090  136.7880 C   0  0  2  0  0  3  0  0  0  0  0  0
  183.4210  177.8460  135.3690 C   0  0  0  0  0  2  0  0  0  0  0  0
  185.2980  176.4870  134.6460 C   0  0  2  0  0  3  0  0  0  0  0  0
  187.9030  177.4480  138.9040 C   0  0  1  0  0  3  0  0  0  0  0  0
  183.7890  174.2870  135.5350 O   0  0  0  0  0  0  0  0  0  0  0  0
  186.6510  176.7270  135.2820 C   0  0  1  0  0  3  0  0  0  0  0  0
  182.3180  174.1830  137.7100 O   0  0  0  0  0  0  0  0  0  0  0  0
  180.7160  175.9360  137.1620 S   0  0  0  0  0  0  0  0  0  0  0  0
  180.9180  174.2400  137.7540 C   0  0  0  0  0  2  0  0  0  0  0  0
  182.4800  175.4990  137.2400 C   0  0  2  0  0  0  0  0  0  0  0  0
  183.1570  176.3700  138.3130 C   0  0  0  0  0  2  0  0  0  0  0  0
  182.2910  177.5400  138.7820 C   0  0  1  0  0  3  0  0  0  0  0  0
  180.5880  177.3280  140.6460 C   0  0  0  0  0  1  0  0  0  0  0  0
  182.0580  177.5080  140.2920 C   0  0  0  0  0  2  0  0  0  0  0  0
  182.8830  178.7490  138.4080 O   0  0  0  0  0  0  0  0  0  0  0  0
  183.5930  179.1620  139.5380 C   0  0  0  0  0  1  0  0  0  0  0  0
  187.4050  172.5060  137.0900 C   0  0  0  0  0  2  0  0  0  0  0  0
  187.8210  171.5320  136.0000 C   0  0  0  0  0  2  0  0  0  0  0  0
  186.7020  170.8690  135.4990 O   0  0  0  0  0  1  0  0  0  0  0  0
  187.9780  177.6920  140.4270 C   0  0  1  0  0  3  0  0  0  0  0  0
  189.2490  178.4290  140.8530 C   0  0  0  0  0  2  0  0  0  0  0  0
  190.1120  177.5940  141.7390 C   0  0  0  0  0  0  0  0  0  0  0  0
  190.4420  175.4300  142.9500 C   0  0  0  0  0  3  0  0  0  0  0  0
  191.4260  178.2570  143.7330 C   0  0  0  0  0  0  0  0  0  0  0  0
  191.3860  178.1860  142.2440 C   0  0  0  0  0  2  0  0  0  0  0  0
  191.1580  175.7870  144.0230 C   0  0  0  0  0  3  0  0  0  0  0  0
  189.7450  176.3410  142.0210 C   0  0  0  0  0  3  0  0  0  0  0  0
  191.6670  179.5750  144.3760 C   0  0  0  0  0  1  0  0  0  0  0  0
  191.4010  177.1650  144.4980 C   0  0  0  0  0  3  0  0  0  0  0  0
  186.8260  178.3660  140.9330 O   0  0  0  0  0  0  0  0  0  0  0  0
  185.4400  179.1810  142.7760 C   0  0  0  0  0  3  0  0  0  0  0  0
  185.8350  178.3570  145.0240 C   0  0  0  0  0  0  0  0  0  0  0  0
  187.1970  177.5680  143.1750 C   0  0  0  0  0  3  0  0  0  0  0  0
  186.8760  177.5550  144.5360 C   0  0  0  0  0  3  0  0  0  0  0  0
  185.1200  179.1710  144.1360 C   0  0  0  0  0  3  0  0  0  0  0  0
  186.4820  178.3770  142.2880 C   0  0  0  0  0  0  0  0  0  0  0  0
  185.4930  178.3470  146.4550 C   0  0  0  0  0  0  0  0  0  0  0  0
  186.4010  178.3300  147.3290 O   0  0  0  0  0  1  0  0  0  0  0  0
  184.1630  178.3540  146.8560 O   0  0  0  0  0  0  0  0  0  0  0  0
  1 16  1  0  0  0  0
  2 17  1  0  0  0  0
  3  8  1  6  0  0  0
  3 26  1  0  0  0  0
  4  5  1  1  0  0  0
  4 13  1  0  0  0  0
  6  9  1  0  0  0  0
  6 14  1  0  0  0  0
  7  8  1  0  0  0  0
  7 18  1  0  0  0  0
 10 14  1  0  0  0  0
 10 20  1  0  0  0  0
 11  3  1  0  0  0  0
 12 22  1  0  0  0  0
 12  4  1  0  0  0  0
 13 33  1  0  0  0  0
 13  9  1  0  0  0  0
 14 20  1  0  0  0  0
 15  1  1  0  0  0  0
 15 22  1  0  0  0  0
 16 17  1  0  0  0  0
 17 10  1  0  0  0  0
 18 11  1  0  0  0  0
 19 12  1  0  0  0  0
 19 22  1  0  0  0  0
 19 11  1  0  0  0  0
 20 36  1  0  0  0  0
 21  3  1  0  0  0  0
 21  5  1  0  0  0  0
 23 25  1  0  0  0  0
 24 26  1  0  0  0  0
 24 25  1  0  0  0  0
 26 23  1  0  0  0  0
 26 27  1  0  0  0  0
 27 28  1  0  0  0  0
 28 30  1  0  0  0  0
 30 29  1  0  0  0  0
 31 28  1  0  0  0  0
 31 32  1  0  0  0  0
 34 33  1  0  0  0  0
 35 34  1  0  0  0  0
 36 37  1  0  0  0  0
 36 46  1  0  0  0  0
 37 38  1  0  0  0  0
 38 43  2  0  0  0  0
 38 41  1  0  0  0  0
 39 42  2  0  0  0  0
 40 44  1  0  0  0  0
 40 45  2  0  0  0  0
 41 40  1  0  0  0  0
 42 45  1  0  0  0  0
 43 39  1  0  0  0  0
 46 52  1  0  0  0  0
 47 51  1  0  0  0  0
 48 53  1  0  0  0  0
 49 50  2  0  0  0  0
 50 48  1  0  0  0  0
 51 48  2  0  0  0  0
 52 47  2  0  0  0  0
 52 49  1  0  0  0  0
 53 55  2  0  0  0  0
 53 54  1  0  0  0  0
M  END
>  <MODEL>
2

>  <REMARK>
 VINA RESULT:      -6.8      1.720      3.332
  Name = 
  13 active torsions:
  status: ('A' for Active; 'I' for Inactive)
    1  A    between atoms: C_2  and  C_28
    2  A    between atoms: C_6  and  C_53
    3  A    between atoms: C_10  and  C_32
    4  A    between atoms: C_11  and  C_29
    5  A    between atoms: C_16  and  C_17
    6  A    between atoms: C_17  and  C_23
    7  A    between atoms: O_25  and  C_29
    8  A    between atoms: C_28  and  C_49
    9  A    between atoms: C_29  and  C_38
   10  A    between atoms: O_33  and  C_49
   11  A    between atoms: O_33  and  C_52
   12  A    between atoms: C_38  and  C_53
   13  A    between atoms: C_45  and  C_49
                            x       y       z     vdW  Elec       q    Type
                         _______ _______ _______ _____ _____    ______ ____

>  <TORSDO>
F 13

$$$$
=
 OpenBabel10272401413D

 55 62  0  0  1  0  0  0  0  0999 V2000
  182.2040  178.6700  137.7860 C   0  0  0  0  0  2  0  0  0  0  0  0
  182.5220  178.0880  140.9610 O   0  0  0  0  0  1  0  0  0  0  0  0
  186.2630  174.3310  135.9570 C   0  0  2  0  0  0  0  0  0  0  0  0
  186.0070  177.5810  135.7430 C   0  0  1  0  0  3  0  0  0  0  0  0
  187.0570  176.4780  135.7620 C   0  0  0  0  0  2  0  0  0  0  0  0
  185.5850  179.0450  138.4380 O   0  0  0  0  0  0  0  0  0  0  0  0
  184.6210  172.7430  135.9950 C   0  0  0  0  0  2  0  0  0  0  0  0
  185.6760  173.2750  135.2230 O   0  0  0  0  0  0  0  0  0  0  0  0
  186.6650  178.5880  137.8450 O   0  0  0  0  0  0  0  0  0  0  0  0
  184.7240  178.9940  140.6900 C   0  0  1  0  0  3  0  0  0  0  0  0
  185.1940  174.8130  136.9580 C   0  0  2  0  0  3  0  0  0  0  0  0
  184.5090  177.1970  135.8840 C   0  0  1  0  0  3  0  0  0  0  0  0
  186.4320  178.8510  136.4900 C   0  0  1  0  0  3  0  0  0  0  0  0
  185.9240  179.2740  139.7750 C   0  0  1  0  0  3  0  0  0  0  0  0
  182.5590  177.2040  137.5120 C   0  0  0  0  0  2  0  0  0  0  0  0
  182.9110  179.3500  138.9670 C   0  0  0  0  0  2  0  0  0  0  0  0
  183.4920  178.3910  140.0060 C   0  0  2  0  0  3  0  0  0  0  0  0
  184.4670  173.5450  137.2670 C   0  0  0  0  0  2  0  0  0  0  0  0
  184.1560  175.7700  136.3500 C   0  0  2  0  0  3  0  0  0  0  0  0
  185.8680  177.9870  140.5910 C   0  0  1  0  0  3  0  0  0  0  0  0
  186.6110  175.3570  135.0420 O   0  0  0  0  0  0  0  0  0  0  0  0
  184.0460  176.9380  137.3070 C   0  0  1  0  0  3  0  0  0  0  0  0
  188.4630  173.2040  135.7670 O   0  0  0  0  0  0  0  0  0  0  0  0
  187.2430  172.2610  137.6550 S   0  0  0  0  0  0  0  0  0  0  0  0
  188.4250  171.9200  136.3300 C   0  0  0  0  0  2  0  0  0  0  0  0
  187.5490  173.7650  136.6780 C   0  0  2  0  0  0  0  0  0  0  0  0
  188.2530  174.7990  137.5730 C   0  0  0  0  0  2  0  0  0  0  0  0
  189.7260  175.0090  137.2180 C   0  0  1  0  0  3  0  0  0  0  0  0
  190.5280  176.5080  139.0960 C   0  0  0  0  0  1  0  0  0  0  0  0
  190.2140  176.4030  137.6110 C   0  0  0  0  0  2  0  0  0  0  0  0
  190.5080  174.0300  137.8340 O   0  0  0  0  0  0  0  0  0  0  0  0
  191.5910  173.8440  136.9720 C   0  0  0  0  0  1  0  0  0  0  0  0
  187.6680  179.4680  135.8460 C   0  0  0  0  0  2  0  0  0  0  0  0
  188.9270  179.1400  136.6310 C   0  0  0  0  0  2  0  0  0  0  0  0
  189.0090  179.9480  137.7640 O   0  0  0  0  0  1  0  0  0  0  0  0
  186.8140  178.0420  141.8110 C   0  0  1  0  0  3  0  0  0  0  0  0
  186.3620  177.1350  142.9590 C   0  0  0  0  0  2  0  0  0  0  0  0
  186.1400  177.8980  144.2210 C   0  0  0  0  0  0  0  0  0  0  0  0
  186.6450  178.1610  146.6580 C   0  0  0  0  0  3  0  0  0  0  0  0
  184.0440  178.8550  145.1330 C   0  0  0  0  0  0  0  0  0  0  0  0
  185.1860  179.0460  144.1940 C   0  0  0  0  0  2  0  0  0  0  0  0
  185.5160  178.6850  147.1490 C   0  0  0  0  0  3  0  0  0  0  0  0
  186.8230  177.5640  145.3200 C   0  0  0  0  0  3  0  0  0  0  0  0
  182.6610  178.9220  144.5930 C   0  0  0  0  0  1  0  0  0  0  0  0
  184.2150  178.7760  146.4530 C   0  0  0  0  0  3  0  0  0  0  0  0
  188.1710  177.7610  141.4680 O   0  0  0  0  0  0  0  0  0  0  0  0
  189.7390  178.1620  143.3010 C   0  0  0  0  0  3  0  0  0  0  0  0
  190.9940  176.3030  144.2290 C   0  0  0  0  0  0  0  0  0  0  0  0
  189.4330  175.9360  142.4060 C   0  0  0  0  0  3  0  0  0  0  0  0
  190.3670  175.4390  143.3190 C   0  0  0  0  0  3  0  0  0  0  0  0
  190.6750  177.6670  144.2130 C   0  0  0  0  0  3  0  0  0  0  0  0
  189.1110  177.2960  142.3920 C   0  0  0  0  0  0  0  0  0  0  0  0
  191.9790  175.7860  145.1930 C   0  0  0  0  0  0  0  0  0  0  0  0
  192.5800  174.7020  144.9710 O   0  0  0  0  0  0  0  0  0  0  0  0
  192.2510  176.4900  146.3590 O   0  0  0  0  0  1  0  0  0  0  0  0
  1 16  1  0  0  0  0
  3 21  1  6  0  0  0
  3 26  1  0  0  0  0
  3 11  1  0  0  0  0
  4  5  1  1  0  0  0
  4 12  1  0  0  0  0
  4 13  1  0  0  0  0
  6 14  1  0  0  0  0
  7 18  1  0  0  0  0
  8  3  1  0  0  0  0
  8  7  1  0  0  0  0
  9  6  1  0  0  0  0
 11 18  1  0  0  0  0
 12 19  1  0  0  0  0
 12 22  1  0  0  0  0
 13  9  1  0  0  0  0
 14 20  1  0  0  0  0
 14 10  1  0  0  0  0
 15  1  1  0  0  0  0
 16 17  1  0  0  0  0
 17 10  1  0  0  0  0
 17  2  1  0  0  0  0
 19 11  1  0  0  0  0
 19 22  1  0  0  0  0
 20 10  1  0  0  0  0
 20 36  1  0  0  0  0
 21  5  1  0  0  0  0
 22 15  1  0  0  0  0
 23 25  1  0  0  0  0
 23 26  1  0  0  0  0
 25 24  1  0  0  0  0
 26 27  1  0  0  0  0
 26 24  1  0  0  0  0
 28 27  1  0  0  0  0
 28 30  1  0  0  0  0
 28 31  1  0  0  0  0
 30 29  1  0  0  0  0
 32 31  1  0  0  0  0
 33 13  1  0  0  0  0
 33 34  1  0  0  0  0
 34 35  1  0  0  0  0
 36 37  1  0  0  0  0
 37 38  1  0  0  0  0
 38 43  2  0  0  0  0
 39 42  2  0  0  0  0
 40 45  2  0  0  0  0
 41 38  1  0  0  0  0
 41 40  1  0  0  0  0
 43 39  1  0  0  0  0
 44 40  1  0  0  0  0
 45 42  1  0  0  0  0
 46 36  1  0  0  0  0
 46 52  1  0  0  0  0
 47 51  1  0  0  0  0
 48 53  1  0  0  0  0
 49 50  2  0  0  0  0
 50 48  1  0  0  0  0
 51 48  2  0  0  0  0
 52 49  1  0  0  0  0
 52 47  2  0  0  0  0
 53 55  1  0  0  0  0
 54 53  2  0  0  0  0
M  END
>  <MODEL>
3

>  <REMARK>
 VINA RESULT:      -5.2      2.055      5.128
  Name = 
  13 active torsions:
  status: ('A' for Active; 'I' for Inactive)
    1  A    between atoms: C_2  and  C_28
    2  A    between atoms: C_6  and  C_53
    3  A    between atoms: C_10  and  C_32
    4  A    between atoms: C_11  and  C_29
    5  A    between atoms: C_16  and  C_17
    6  A    between atoms: C_17  and  C_23
    7  A    between atoms: O_25  and  C_29
    8  A    between atoms: C_28  and  C_49
    9  A    between atoms: C_29  and  C_38
   10  A    between atoms: O_33  and  C_49
   11  A    between atoms: O_33  and  C_52
   12  A    between atoms: C_38  and  C_53
   13  A    between atoms: C_45  and  C_49
                            x       y       z     vdW  Elec       q    Type
                         _______ _______ _______ _____ _____    ______ ____

>  <TORSDO>
F 13

$$$$
=
 OpenBabel10272401413D

 55 62  0  0  1  0  0  0  0  0999 V2000
  182.0850  178.5240  137.8250 C   0  0  0  0  0  2  0  0  0  0  0  0
  182.2770  177.7530  140.9690 O   0  0  0  0  0  1  0  0  0  0  0  0
  186.3240  174.3950  135.9200 C   0  0  2  0  0  0  0  0  0  0  0  0
  186.0000  177.6460  135.8930 C   0  0  1  0  0  3  0  0  0  0  0  0
  187.0740  176.5670  135.8920 C   0  0  0  0  0  2  0  0  0  0  0  0
  185.4240  178.9290  138.6510 O   0  0  0  0  0  0  0  0  0  0  0  0
  184.7210  172.7730  135.7850 C   0  0  0  0  0  2  0  0  0  0  0  0
  185.7960  173.3750  135.0960 O   0  0  0  0  0  0  0  0  0  0  0  0
  186.5410  178.5330  138.0800 O   0  0  0  0  0  0  0  0  0  0  0  0
  184.4670  178.7200  140.8540 C   0  0  1  0  0  3  0  0  0  0  0  0
  185.2010  174.7910  136.8990 C   0  0  2  0  0  3  0  0  0  0  0  0
  184.5070  177.2220  135.9420 C   0  0  1  0  0  3  0  0  0  0  0  0
  186.3600  178.8750  136.7350 C   0  0  1  0  0  3  0  0  0  0  0  0
  185.6990  179.0820  140.0130 C   0  0  1  0  0  3  0  0  0  0  0  0
  182.4880  177.0860  137.4770 C   0  0  0  0  0  2  0  0  0  0  0  0
  182.7240  179.1450  139.0760 C   0  0  0  0  0  2  0  0  0  0  0  0
  183.2810  178.1350  140.0790 C   0  0  2  0  0  3  0  0  0  0  0  0
  184.4920  173.4910  137.0960 C   0  0  0  0  0  2  0  0  0  0  0  0
  184.1680  175.7620  136.3030 C   0  0  2  0  0  3  0  0  0  0  0  0
  185.6380  177.7460  140.7460 C   0  0  1  0  0  3  0  0  0  0  0  0
  186.6880  175.4830  135.0860 O   0  0  0  0  0  0  0  0  0  0  0  0
  183.9880  176.8650  137.3240 C   0  0  1  0  0  3  0  0  0  0  0  0
  188.6310  173.4980  135.7680 O   0  0  0  0  0  0  0  0  0  0  0  0
  187.3460  172.1380  137.3300 S   0  0  0  0  0  0  0  0  0  0  0  0
  188.6680  172.1360  136.0960 C   0  0  0  0  0  2  0  0  0  0  0  0
  187.5910  173.8120  136.6620 C   0  0  2  0  0  0  0  0  0  0  0  0
  188.1110  174.7220  137.7880 C   0  0  0  0  0  2  0  0  0  0  0  0
  189.5210  175.2580  137.5360 C   0  0  1  0  0  3  0  0  0  0  0  0
  191.0000  176.5740  139.1170 C   0  0  0  0  0  1  0  0  0  0  0  0
  189.7570  176.5940  138.2390 C   0  0  0  0  0  2  0  0  0  0  0  0
  190.4670  174.3180  137.9510 O   0  0  0  0  0  0  0  0  0  0  0  0
  191.4580  174.3520  136.9660 C   0  0  0  0  0  1  0  0  0  0  0  0
  187.6090  179.5580  136.1870 C   0  0  0  0  0  2  0  0  0  0  0  0
  188.8500  179.1590  136.9680 C   0  0  0  0  0  2  0  0  0  0  0  0
  189.2040  180.1730  137.8570 O   0  0  0  0  0  1  0  0  0  0  0  0
  186.5270  177.7450  142.0090 C   0  0  1  0  0  3  0  0  0  0  0  0
  187.7700  178.6270  141.8650 C   0  0  0  0  0  2  0  0  0  0  0  0
  189.0270  177.8740  142.1440 C   0  0  0  0  0  0  0  0  0  0  0  0
  190.1250  175.6720  142.6000 C   0  0  0  0  0  3  0  0  0  0  0  0
  190.9360  178.4840  143.6030 C   0  0  0  0  0  0  0  0  0  0  0  0
  190.3000  178.6450  142.2640 C   0  0  0  0  0  2  0  0  0  0  0  0
  191.1590  176.0030  143.3810 C   0  0  0  0  0  3  0  0  0  0  0  0
  188.9890  176.5420  142.2390 C   0  0  0  0  0  3  0  0  0  0  0  0
  191.2310  179.7030  144.4010 C   0  0  0  0  0  1  0  0  0  0  0  0
  191.3800  177.3060  144.0420 C   0  0  0  0  0  3  0  0  0  0  0  0
  185.8070  178.0990  143.1900 O   0  0  0  0  0  0  0  0  0  0  0  0
  185.8030  178.7680  145.5420 C   0  0  0  0  0  3  0  0  0  0  0  0
  187.5620  177.9740  147.0140 C   0  0  0  0  0  0  0  0  0  0  0  0
  187.5420  177.3290  144.6730 C   0  0  0  0  0  3  0  0  0  0  0  0
  188.1340  177.2790  145.9390 C   0  0  0  0  0  3  0  0  0  0  0  0
  186.3940  178.7200  146.8080 C   0  0  0  0  0  3  0  0  0  0  0  0
  186.3750  178.0710  144.4670 C   0  0  0  0  0  0  0  0  0  0  0  0
  188.1800  177.9250  148.3490 C   0  0  0  0  0  0  0  0  0  0  0  0
  189.3450  178.3670  148.5290 O   0  0  0  0  0  0  0  0  0  0  0  0
  187.4820  177.3870  149.4220 O   0  0  0  0  0  1  0  0  0  0  0  0
  1 16  1  0  0  0  0
  3 21  1  6  0  0  0
  3 26  1  0  0  0  0
  3 11  1  0  0  0  0
  4  5  1  1  0  0  0
  4 12  1  0  0  0  0
  4 13  1  0  0  0  0
  6 14  1  0  0  0  0
  7 18  1  0  0  0  0
  8  7  1  0  0  0  0
  8  3  1  0  0  0  0
  9  6  1  0  0  0  0
 11 18  1  0  0  0  0
 12 19  1  0  0  0  0
 12 22  1  0  0  0  0
 13  9  1  0  0  0  0
 14 20  1  0  0  0  0
 14 10  1  0  0  0  0
 15  1  1  0  0  0  0
 16 17  1  0  0  0  0
 17 10  1  0  0  0  0
 17  2  1  0  0  0  0
 19 11  1  0  0  0  0
 19 22  1  0  0  0  0
 20 10  1  0  0  0  0
 20 36  1  0  0  0  0
 21  5  1  0  0  0  0
 22 15  1  0  0  0  0
 23 25  1  0  0  0  0
 23 26  1  0  0  0  0
 25 24  1  0  0  0  0
 26 24  1  0  0  0  0
 26 27  1  0  0  0  0
 28 27  1  0  0  0  0
 28 31  1  0  0  0  0
 28 30  1  0  0  0  0
 30 29  1  0  0  0  0
 32 31  1  0  0  0  0
 33 13  1  0  0  0  0
 33 34  1  0  0  0  0
 34 35  1  0  0  0  0
 36 46  1  0  0  0  0
 37 36  1  0  0  0  0
 37 38  1  0  0  0  0
 38 43  2  0  0  0  0
 38 41  1  0  0  0  0
 39 42  2  0  0  0  0
 40 45  2  0  0  0  0
 40 44  1  0  0  0  0
 41 40  1  0  0  0  0
 42 45  1  0  0  0  0
 43 39  1  0  0  0  0
 46 52  1  0  0  0  0
 47 51  1  0  0  0  0
 48 53  1  0  0  0  0
 49 50  2  0  0  0  0
 50 48  1  0  0  0  0
 51 48  2  0  0  0  0
 52 49  1  0  0  0  0
 52 47  2  0  0  0  0
 53 54  2  0  0  0  0
 53 55  1  0  0  0  0
M  END
>  <MODEL>
4

>  <REMARK>
 VINA RESULT:      -4.9      2.287      5.670
  Name = 
  13 active torsions:
  status: ('A' for Active; 'I' for Inactive)
    1  A    between atoms: C_2  and  C_28
    2  A    between atoms: C_6  and  C_53
    3  A    between atoms: C_10  and  C_32
    4  A    between atoms: C_11  and  C_29
    5  A    between atoms: C_16  and  C_17
    6  A    between atoms: C_17  and  C_23
    7  A    between atoms: O_25  and  C_29
    8  A    between atoms: C_28  and  C_49
    9  A    between atoms: C_29  and  C_38
   10  A    between atoms: O_33  and  C_49
   11  A    between atoms: O_33  and  C_52
   12  A    between atoms: C_38  and  C_53
   13  A    between atoms: C_45  and  C_49
                            x       y       z     vdW  Elec       q    Type
                         _______ _______ _______ _____ _____    ______ ____

>  <TORSDO>
F 13

$$$$
=
 OpenBabel10272401413D

 55 62  0  0  1  0  0  0  0  0999 V2000
  180.8600  179.5740  137.2720 C   0  0  0  0  0  2  0  0  0  0  0  0
  181.3800  179.4070  140.4690 O   0  0  0  0  0  1  0  0  0  0  0  0
  182.6820  173.7570  136.0510 C   0  0  2  0  0  0  0  0  0  0  0  0
  183.6430  176.7670  135.2220 C   0  0  1  0  0  3  0  0  0  0  0  0
  184.1910  175.3560  135.3830 C   0  0  0  0  0  2  0  0  0  0  0  0
  184.1880  178.6720  137.6000 O   0  0  0  0  0  0  0  0  0  0  0  0
  180.5860  172.9760  136.5140 C   0  0  0  0  0  2  0  0  0  0  0  0
  181.6440  172.9210  135.5810 O   0  0  0  0  0  0  0  0  0  0  0  0
  184.9220  177.7400  137.0340 O   0  0  0  0  0  0  0  0  0  0  0  0
  183.6990  179.3120  139.8730 C   0  0  1  0  0  3  0  0  0  0  0  0
  182.0260  174.7700  137.0100 C   0  0  2  0  0  3  0  0  0  0  0  0
  182.1470  177.0350  135.5390 C   0  0  1  0  0  3  0  0  0  0  0  0
  184.6160  177.8630  135.6740 C   0  0  1  0  0  3  0  0  0  0  0  0
  184.7730  178.9500  138.8390 C   0  0  1  0  0  3  0  0  0  0  0  0
  180.5940  178.0640  137.2660 C   0  0  0  0  0  2  0  0  0  0  0  0
  181.9310  180.0900  138.2440 C   0  0  0  0  0  2  0  0  0  0  0  0
  182.2470  179.1500  139.4080 C   0  0  2  0  0  3  0  0  0  0  0  0
  180.9270  173.9580  137.6120 C   0  0  0  0  0  2  0  0  0  0  0  0
  181.3520  175.9550  136.3000 C   0  0  2  0  0  3  0  0  0  0  0  0
  184.3520  177.9330  139.8940 C   0  0  1  0  0  3  0  0  0  0  0  0
  183.2590  174.4080  134.9300 O   0  0  0  0  0  0  0  0  0  0  0  0
  181.8260  177.2030  137.0150 C   0  0  1  0  0  3  0  0  0  0  0  0
  184.1110  173.3550  138.0370 O   0  0  0  0  0  0  0  0  0  0  0  0
  185.4010  172.9000  136.0200 S   0  0  0  0  0  0  0  0  0  0  0  0
  185.4690  173.5030  137.7230 C   0  0  0  0  0  2  0  0  0  0  0  0
  183.7480  172.8450  136.7770 C   0  0  2  0  0  0  0  0  0  0  0  0
  183.3110  171.3750  136.9010 C   0  0  0  0  0  2  0  0  0  0  0  0
  183.6790  170.5260  135.6840 C   0  0  1  0  0  3  0  0  0  0  0  0
  185.2710  168.5550  135.6580 C   0  0  0  0  0  1  0  0  0  0  0  0
  183.8910  169.0590  136.0560 C   0  0  0  0  0  2  0  0  0  0  0  0
  182.6880  170.6400  134.7070 O   0  0  0  0  0  0  0  0  0  0  0  0
  181.8440  169.5500  134.9270 C   0  0  0  0  0  1  0  0  0  0  0  0
  185.8900  177.8330  134.8360 C   0  0  0  0  0  2  0  0  0  0  0  0
  187.1260  177.6820  135.7080 C   0  0  0  0  0  2  0  0  0  0  0  0
  187.5430  176.3520  135.7210 O   0  0  0  0  0  1  0  0  0  0  0  0
  185.4110  177.7940  141.0100 C   0  0  1  0  0  3  0  0  0  0  0  0
  186.4770  178.8910  140.9630 C   0  0  0  0  0  2  0  0  0  0  0  0
  187.7850  178.3810  140.4600 C   0  0  0  0  0  0  0  0  0  0  0  0
  189.0100  176.8850  138.8710 C   0  0  0  0  0  3  0  0  0  0  0  0
  189.8220  177.7560  141.7260 C   0  0  0  0  0  0  0  0  0  0  0  0
  189.0330  178.8670  141.1200 C   0  0  0  0  0  2  0  0  0  0  0  0
  190.1130  176.5540  139.5530 C   0  0  0  0  0  3  0  0  0  0  0  0
  187.8080  177.5430  139.4200 C   0  0  0  0  0  3  0  0  0  0  0  0
  190.1600  177.8320  143.1720 C   0  0  0  0  0  1  0  0  0  0  0  0
  190.3580  176.7810  140.9920 C   0  0  0  0  0  3  0  0  0  0  0  0
  184.8310  177.7280  142.3130 O   0  0  0  0  0  0  0  0  0  0  0  0
  185.2620  178.6880  144.5210 C   0  0  0  0  0  3  0  0  0  0  0  0
  187.1380  177.8800  145.8300 C   0  0  0  0  0  0  0  0  0  0  0  0
  186.6880  176.9480  143.6340 C   0  0  0  0  0  3  0  0  0  0  0  0
  187.4610  176.9880  144.7980 C   0  0  0  0  0  3  0  0  0  0  0  0
  186.0350  178.7310  145.6840 C   0  0  0  0  0  3  0  0  0  0  0  0
  185.5850  177.7940  143.4880 C   0  0  0  0  0  0  0  0  0  0  0  0
  187.9480  177.9260  147.0580 C   0  0  0  0  0  0  0  0  0  0  0  0
  187.4280  178.2680  148.1540 O   0  0  0  0  0  1  0  0  0  0  0  0
  189.2970  177.5960  147.0180 O   0  0  0  0  0  0  0  0  0  0  0  0
  1 16  1  0  0  0  0
  3 21  1  6  0  0  0
  3 26  1  0  0  0  0
  3 11  1  0  0  0  0
  4  5  1  1  0  0  0
  4 12  1  0  0  0  0
  4 13  1  0  0  0  0
  6 14  1  0  0  0  0
  7 18  1  0  0  0  0
  8  3  1  0  0  0  0
  8  7  1  0  0  0  0
  9  6  1  0  0  0  0
 10 20  1  0  0  0  0
 11 18  1  0  0  0  0
 12 19  1  0  0  0  0
 12 22  1  0  0  0  0
 13  9  1  0  0  0  0
 14 10  1  0  0  0  0
 14 20  1  0  0  0  0
 15  1  1  0  0  0  0
 16 17  1  0  0  0  0
 17 10  1  0  0  0  0
 17  2  1  0  0  0  0
 19 11  1  0  0  0  0
 19 22  1  0  0  0  0
 20 36  1  0  0  0  0
 21  5  1  0  0  0  0
 22 15  1  0  0  0  0
 24 26  1  0  0  0  0
 24 25  1  0  0  0  0
 25 23  1  0  0  0  0
 26 27  1  0  0  0  0
 26 23  1  0  0  0  0
 28 30  1  0  0  0  0
 28 27  1  0  0  0  0
 29 30  1  0  0  0  0
 31 32  1  0  0  0  0
 31 28  1  0  0  0  0
 33 13  1  0  0  0  0
 33 34  1  0  0  0  0
 34 35  1  0  0  0  0
 36 46  1  0  0  0  0
 37 36  1  0  0  0  0
 38 37  1  0  0  0  0
 38 41  1  0  0  0  0
 39 43  1  0  0  0  0
 39 42  2  0  0  0  0
 40 44  1  0  0  0  0
 41 40  1  0  0  0  0
 42 45  1  0  0  0  0
 43 38  2  0  0  0  0
 45 40  2  0  0  0  0
 46 52  1  0  0  0  0
 47 51  1  0  0  0  0
 48 53  1  0  0  0  0
 49 50  2  0  0  0  0
 50 48  1  0  0  0  0
 51 48  2  0  0  0  0
 52 49  1  0  0  0  0
 52 47  2  0  0  0  0
 53 54  1  0  0  0  0
 55 53  2  0  0  0  0
M  END
>  <MODEL>
5

>  <REMARK>
 VINA RESULT:      -4.9      2.545      5.730
  Name = 
  13 active torsions:
  status: ('A' for Active; 'I' for Inactive)
    1  A    between atoms: C_2  and  C_28
    2  A    between atoms: C_6  and  C_53
    3  A    between atoms: C_10  and  C_32
    4  A    between atoms: C_11  and  C_29
    5  A    between atoms: C_16  and  C_17
    6  A    between atoms: C_17  and  C_23
    7  A    between atoms: O_25  and  C_29
    8  A    between atoms: C_28  and  C_49
    9  A    between atoms: C_29  and  C_38
   10  A    between atoms: O_33  and  C_49
   11  A    between atoms: O_33  and  C_52
   12  A    between atoms: C_38  and  C_53
   13  A    between atoms: C_45  and  C_49
                            x       y       z     vdW  Elec       q    Type
                         _______ _______ _______ _____ _____    ______ ____

>  <TORSDO>
F 13

$$$$
