=
 OpenBabel10272413323D

 32 36  0  0  1  0  0  0  0  0999 V2000
  188.2610  177.0050  145.8480 C   0  0  1  0  0  3  0  0  0  0  0  0
  185.2670  178.3930  141.9380 C   0  0  0  0  0  0  0  0  0  0  0  0
  180.8670  178.9070  143.9610 C   0  0  0  0  0  3  0  0  0  0  0  0
  180.2930  178.9790  142.6900 C   0  0  0  0  0  3  0  0  0  0  0  0
  187.2640  178.4110  143.4470 C   0  0  1  0  0  3  0  0  0  0  0  0
  185.1190  178.4490  144.4550 C   0  0  0  0  0  2  0  0  0  0  0  0
  186.9830  177.8500  145.7480 C   0  0  0  0  0  2  0  0  0  0  0  0
  182.2470  178.7370  144.0960 C   0  0  0  0  0  3  0  0  0  0  0  0
  184.4610  178.4640  143.0950 C   0  0  0  0  0  0  0  0  0  0  0  0
  183.0690  178.6380  142.9630 C   0  0  0  0  0  0  0  0  0  0  0  0
  183.3040  178.6260  140.5290 C   0  0  0  0  0  0  0  0  0  0  0  0
  188.9040  176.7610  144.4770 C   0  0  0  0  0  2  0  0  0  0  0  0
  186.3900  177.7290  144.4190 N   0  0  2  0  0  0  0  0  0  0  0  0
  188.7330  177.9650  143.5510 C   0  0  0  0  0  2  0  0  0  0  0  0
  181.0980  178.8850  141.5530 C   0  0  0  0  0  3  0  0  0  0  0  0
  182.4860  178.7150  141.6720 C   0  0  0  0  0  0  0  0  0  0  0  0
  186.7480  178.1580  142.0330 C   0  0  0  0  0  2  0  0  0  0  0  0
  184.6820  178.4580  140.6740 C   0  0  0  0  0  3  0  0  0  0  0  0
  189.2590  177.6750  146.7770 C   0  0  0  0  0  2  0  0  0  0  0  0
  191.5000  176.5340  146.9080 C   0  0  0  0  0  0  0  0  0  0  0  0
  190.1520  176.6800  147.3490 N   0  0  0  0  0  2  0  0  0  0  0  0
  192.3290  175.5370  147.4940 N   0  0  0  0  0  1  0  0  0  0  0  0
  191.9630  177.2780  146.0030 O   0  0  0  0  0  0  0  0  0  0  0  0
  182.7360  178.6650  139.1460 C   0  0  0  0  0  2  0  0  0  0  0  0
  182.7660  177.3290  138.5570 N   0  0  0  0  0  0  0  0  0  0  0  0
  184.1160  176.2620  136.7570 C   0  0  1  0  0  3  0  0  0  0  0  0
  184.3140  175.3580  137.8050 O   0  0  0  0  0  1  0  0  0  0  0  0
  183.2220  177.4370  137.1690 C   0  0  2  0  0  3  0  0  0  0  0  0
  184.7320  177.5940  137.1230 C   0  0  0  0  0  2  0  0  0  0  0  0
  181.4140  176.7530  138.5970 C   0  0  0  0  0  2  0  0  0  0  0  0
  181.2830  175.5700  139.5560 C   0  0  0  0  0  2  0  0  0  0  0  0
  179.9820  175.6840  140.3210 C   0  0  0  0  0  1  0  0  0  0  0  0
  1 19  1  1  0  0  0
  2 17  1  0  0  0  0
  2  9  1  0  0  0  0
  3  8  2  0  0  0  0
  4  3  1  0  0  0  0
  5 17  1  6  0  0  0
  5 14  1  0  0  0  0
  5 13  1  0  0  0  0
  7  1  1  0  0  0  0
  9  6  1  0  0  0  0
 10  9  2  0  0  0  0
 10  8  1  0  0  0  0
 11 18  1  0  0  0  0
 11 16  2  0  0  0  0
 12  1  1  0  0  0  0
 13  6  1  1  0  0  0
 13  7  1  0  0  0  0
 14 12  1  0  0  0  0
 15 16  1  0  0  0  0
 15  4  2  0  0  0  0
 16 10  1  0  0  0  0
 18  2  2  0  0  0  0
 19 21  1  0  0  0  0
 20 21  1  0  0  0  0
 20 22  1  0  0  0  0
 23 20  2  0  0  0  0
 24 11  1  0  0  0  0
 25 30  1  0  0  0  0
 25 24  1  0  0  0  0
 26 29  1  0  0  0  0
 26 28  1  0  0  0  0
 26 27  1  1  0  0  0
 28 25  1  1  0  0  0
 29 28  1  0  0  0  0
 30 31  1  0  0  0  0
 31 32  1  0  0  0  0
M  END
>  <MODEL>
1

>  <REMARK>
 VINA RESULT:      -7.7      0.000      0.000
  Name = 
  7 active torsions:
  status: ('A' for Active; 'I' for Inactive)
    1  A    between atoms: C_2  and  C_24
    2  A    between atoms: C_6  and  C_7
    3  A    between atoms: C_7  and  N_32
    4  A    between atoms: N_10  and  C_24
    5  A    between atoms: C_16  and  C_27
    6  A    between atoms: C_22  and  N_32
    7  A    between atoms: C_27  and  N_32
                            x       y       z     vdW  Elec       q    Type
                         _______ _______ _______ _____ _____    ______ ____

>  <TORSDO>
F 7

$$$$
=
 OpenBabel10272413323D

 32 36  0  0  1  0  0  0  0  0999 V2000
  181.4520  178.9870  140.1960 C   0  0  1  0  0  3  0  0  0  0  0  0
  185.8420  178.0320  142.6430 C   0  0  0  0  0  0  0  0  0  0  0  0
  189.1960  178.1420  139.1140 C   0  0  0  0  0  3  0  0  0  0  0  0
  190.1330  177.5930  139.9910 C   0  0  0  0  0  3  0  0  0  0  0  0
  183.6260  179.1060  142.1940 C   0  0  1  0  0  3  0  0  0  0  0  0
  185.1740  178.9780  140.4040 C   0  0  0  0  0  2  0  0  0  0  0  0
  182.9110  179.3860  139.9360 C   0  0  0  0  0  2  0  0  0  0  0  0
  187.8900  178.3850  139.5490 C   0  0  0  0  0  3  0  0  0  0  0  0
  186.1920  178.3230  141.3080 C   0  0  0  0  0  0  0  0  0  0  0  0
  187.5080  178.0820  140.8650 C   0  0  0  0  0  0  0  0  0  0  0  0
  188.0910  177.2280  143.0810 C   0  0  0  0  0  0  0  0  0  0  0  0
  181.2470  178.4210  141.6070 C   0  0  0  0  0  2  0  0  0  0  0  0
  183.8120  178.6380  140.8090 N   0  0  2  0  0  0  0  0  0  0  0  0
  182.1500  179.1120  142.6280 C   0  0  0  0  0  2  0  0  0  0  0  0
  189.7690  177.2880  141.3040 C   0  0  0  0  0  3  0  0  0  0  0  0
  188.4620  177.5270  141.7560 C   0  0  0  0  0  0  0  0  0  0  0  0
  184.4380  178.2270  143.1420 C   0  0  0  0  0  2  0  0  0  0  0  0
  186.7840  177.4760  143.5080 C   0  0  0  0  0  3  0  0  0  0  0  0
  180.5360  180.1800  139.9790 C   0  0  0  0  0  2  0  0  0  0  0  0
  180.7830  181.3580  137.7670 C   0  0  0  0  0  0  0  0  0  0  0  0
  180.2240  180.3160  138.5650 N   0  0  0  0  0  2  0  0  0  0  0  0
  180.4370  181.4540  136.3900 N   0  0  0  0  0  1  0  0  0  0  0  0
  181.5770  182.1970  138.2710 O   0  0  0  0  0  0  0  0  0  0  0  0
  189.0470  176.6080  144.0500 C   0  0  0  0  0  2  0  0  0  0  0  0
  189.4420  177.5890  145.0560 N   0  0  0  0  0  0  0  0  0  0  0  0
  191.7320  178.4820  144.6580 C   0  0  1  0  0  3  0  0  0  0  0  0
  190.9680  179.3680  143.8920 O   0  0  0  0  0  1  0  0  0  0  0  0
  190.8690  177.4180  145.3440 C   0  0  2  0  0  3  0  0  0  0  0  0
  191.6270  177.0930  144.0690 C   0  0  0  0  0  2  0  0  0  0  0  0
  188.6560  177.3710  146.2790 C   0  0  0  0  0  2  0  0  0  0  0  0
  189.4720  177.5110  147.5630 C   0  0  0  0  0  2  0  0  0  0  0  0
  188.6020  178.0990  148.6530 C   0  0  0  0  0  1  0  0  0  0  0  0
  1 19  1  1  0  0  0
  1 12  1  0  0  0  0
  2 17  1  0  0  0  0
  2 18  1  0  0  0  0
  3  8  2  0  0  0  0
  3  4  1  0  0  0  0
  4 15  2  0  0  0  0
  5 14  1  1  0  0  0
  5 17  1  0  0  0  0
  6 13  1  0  0  0  0
  6  9  1  0  0  0  0
  7  1  1  0  0  0  0
  8 10  1  0  0  0  0
  9  2  2  0  0  0  0
 10  9  1  0  0  0  0
 10 16  2  0  0  0  0
 11 18  2  0  0  0  0
 11 24  1  0  0  0  0
 12 14  1  0  0  0  0
 13  7  1  6  0  0  0
 13  5  1  0  0  0  0
 15 16  1  0  0  0  0
 16 11  1  0  0  0  0
 20 23  2  0  0  0  0
 20 21  1  0  0  0  0
 21 19  1  0  0  0  0
 22 20  1  0  0  0  0
 24 25  1  0  0  0  0
 25 30  1  0  0  0  0
 26 27  1  6  0  0  0
 26 28  1  0  0  0  0
 28 25  1  6  0  0  0
 29 26  1  0  0  0  0
 29 28  1  0  0  0  0
 30 31  1  0  0  0  0
 31 32  1  0  0  0  0
M  END
>  <MODEL>
2

>  <REMARK>
 VINA RESULT:      -7.7      2.643      9.319
  Name = 
  7 active torsions:
  status: ('A' for Active; 'I' for Inactive)
    1  A    between atoms: C_2  and  C_24
    2  A    between atoms: C_6  and  C_7
    3  A    between atoms: C_7  and  N_32
    4  A    between atoms: N_10  and  C_24
    5  A    between atoms: C_16  and  C_27
    6  A    between atoms: C_22  and  N_32
    7  A    between atoms: C_27  and  N_32
                            x       y       z     vdW  Elec       q    Type
                         _______ _______ _______ _____ _____    ______ ____

>  <TORSDO>
F 7

$$$$
=
 OpenBabel10272413323D

 32 36  0  0  1  0  0  0  0  0999 V2000
  188.7860  178.0020  146.7410 C   0  0  1  0  0  3  0  0  0  0  0  0
  185.8970  178.2480  142.5260 C   0  0  0  0  0  0  0  0  0  0  0  0
  189.1170  177.9640  138.8830 C   0  0  0  0  0  3  0  0  0  0  0  0
  188.1210  178.3350  137.9770 C   0  0  0  0  0  3  0  0  0  0  0  0
  186.6210  177.4860  144.7970 C   0  0  1  0  0  3  0  0  0  0  0  0
  188.2530  177.5420  143.0800 C   0  0  0  0  0  2  0  0  0  0  0  0
  188.9470  177.4460  145.3190 C   0  0  0  0  0  2  0  0  0  0  0  0
  188.8180  177.8540  140.2440 C   0  0  0  0  0  3  0  0  0  0  0  0
  187.2150  178.0060  142.0850 C   0  0  0  0  0  0  0  0  0  0  0  0
  187.5210  178.1130  140.7140 C   0  0  0  0  0  0  0  0  0  0  0  0
  185.2030  178.7400  140.2520 C   0  0  0  0  0  0  0  0  0  0  0  0
  187.3590  178.4930  147.0140 C   0  0  0  0  0  2  0  0  0  0  0  0
  187.9440  178.0190  144.4260 N   0  0  2  0  0  0  0  0  0  0  0  0
  186.3190  177.6310  146.2990 C   0  0  0  0  0  2  0  0  0  0  0  0
  186.8260  178.5940  138.4280 C   0  0  0  0  0  3  0  0  0  0  0  0
  186.5100  178.4870  139.7920 C   0  0  0  0  0  0  0  0  0  0  0  0
  185.5400  178.1930  143.9840 C   0  0  0  0  0  2  0  0  0  0  0  0
  184.9120  178.6260  141.6130 C   0  0  0  0  0  3  0  0  0  0  0  0
  189.1750  176.9480  147.7630 C   0  0  0  0  0  2  0  0  0  0  0  0
  191.5750  176.2530  147.4480 C   0  0  0  0  0  0  0  0  0  0  0  0
  190.1830  176.0610  147.2040 N   0  0  0  0  0  2  0  0  0  0  0  0
  192.5210  175.3620  146.8680 N   0  0  0  0  0  1  0  0  0  0  0  0
  191.9740  177.2050  148.1690 O   0  0  0  0  0  0  0  0  0  0  0  0
  184.1090  179.1720  139.3280 C   0  0  0  0  0  2  0  0  0  0  0  0
  182.9360  178.3230  139.5120 N   0  0  0  0  0  0  0  0  0  0  0  0
  182.3920  176.2870  138.1850 C   0  0  1  0  0  3  0  0  0  0  0  0
  182.7300  175.7150  139.4160 O   0  0  0  0  0  1  0  0  0  0  0  0
  182.5140  177.8140  138.2040 C   0  0  2  0  0  3  0  0  0  0  0  0
  183.6110  176.9590  137.5940 C   0  0  0  0  0  2  0  0  0  0  0  0
  181.8550  179.1150  140.1140 C   0  0  0  0  0  2  0  0  0  0  0  0
  181.0760  178.3630  141.1930 C   0  0  0  0  0  2  0  0  0  0  0  0
  181.3590  178.9840  142.5440 C   0  0  0  0  0  1  0  0  0  0  0  0
  1 12  1  0  0  0  0
  1 19  1  1  0  0  0
  2 17  1  0  0  0  0
  3  8  2  0  0  0  0
  4 15  2  0  0  0  0
  4  3  1  0  0  0  0
  5 17  1  6  0  0  0
  5 14  1  0  0  0  0
  7  1  1  0  0  0  0
  8 10  1  0  0  0  0
  9  2  1  0  0  0  0
  9  6  1  0  0  0  0
 10  9  2  0  0  0  0
 11 18  1  0  0  0  0
 13  6  1  6  0  0  0
 13  5  1  0  0  0  0
 13  7  1  0  0  0  0
 14 12  1  0  0  0  0
 15 16  1  0  0  0  0
 16 11  2  0  0  0  0
 16 10  1  0  0  0  0
 18  2  2  0  0  0  0
 20 23  2  0  0  0  0
 21 20  1  0  0  0  0
 21 19  1  0  0  0  0
 22 20  1  0  0  0  0
 24 25  1  0  0  0  0
 24 11  1  0  0  0  0
 25 30  1  0  0  0  0
 26 28  1  0  0  0  0
 26 27  1  1  0  0  0
 28 25  1  1  0  0  0
 29 26  1  0  0  0  0
 29 28  1  0  0  0  0
 30 31  1  0  0  0  0
 31 32  1  0  0  0  0
M  END
>  <MODEL>
3

>  <REMARK>
 VINA RESULT:      -7.6      1.620      3.775
  Name = 
  7 active torsions:
  status: ('A' for Active; 'I' for Inactive)
    1  A    between atoms: C_2  and  C_24
    2  A    between atoms: C_6  and  C_7
    3  A    between atoms: C_7  and  N_32
    4  A    between atoms: N_10  and  C_24
    5  A    between atoms: C_16  and  C_27
    6  A    between atoms: C_22  and  N_32
    7  A    between atoms: C_27  and  N_32
                            x       y       z     vdW  Elec       q    Type
                         _______ _______ _______ _____ _____    ______ ____

>  <TORSDO>
F 7

$$$$
=
 OpenBabel10272413323D

 32 36  0  0  1  0  0  0  0  0999 V2000
  190.3550  176.7220  140.2360 C   0  0  1  0  0  3  0  0  0  0  0  0
  185.6030  178.5640  140.6930 C   0  0  0  0  0  0  0  0  0  0  0  0
  184.8000  178.5470  145.4960 C   0  0  0  0  0  3  0  0  0  0  0  0
  183.4440  178.7910  145.2680 C   0  0  0  0  0  3  0  0  0  0  0  0
  187.9730  178.4380  139.8970 C   0  0  1  0  0  3  0  0  0  0  0  0
  187.5770  178.2180  142.2230 C   0  0  0  0  0  2  0  0  0  0  0  0
  189.6320  177.5110  141.3370 C   0  0  0  0  0  2  0  0  0  0  0  0
  185.6790  178.4230  144.4170 C   0  0  0  0  0  3  0  0  0  0  0  0
  186.0950  178.4150  142.0070 C   0  0  0  0  0  0  0  0  0  0  0  0
  185.2130  178.5420  143.0990 C   0  0  0  0  0  0  0  0  0  0  0  0
  183.3600  178.9220  141.5490 C   0  0  0  0  0  0  0  0  0  0  0  0
  189.5780  176.7270  138.9140 C   0  0  0  0  0  2  0  0  0  0  0  0
  188.1980  177.5730  141.0680 N   0  0  2  0  0  0  0  0  0  0  0  0
  188.8490  178.0510  138.6920 C   0  0  0  0  0  2  0  0  0  0  0  0
  182.9650  178.9140  143.9620 C   0  0  0  0  0  3  0  0  0  0  0  0
  183.8360  178.7920  142.8680 C   0  0  0  0  0  0  0  0  0  0  0  0
  186.5000  178.3870  139.5000 C   0  0  0  0  0  2  0  0  0  0  0  0
  184.2460  178.7990  140.4770 C   0  0  0  0  0  3  0  0  0  0  0  0
  191.7500  177.2840  140.0200 C   0  0  0  0  0  2  0  0  0  0  0  0
  193.4450  176.4740  138.3430 C   0  0  0  0  0  0  0  0  0  0  0  0
  192.1750  177.0460  138.6490 N   0  0  0  0  0  2  0  0  0  0  0  0
  193.8160  176.2710  136.9850 N   0  0  0  0  0  1  0  0  0  0  0  0
  194.2410  176.1490  139.2630 O   0  0  0  0  0  0  0  0  0  0  0  0
  181.9120  179.1510  141.2490 C   0  0  0  0  0  2  0  0  0  0  0  0
  181.5400  178.4470  140.0260 N   0  0  0  0  0  0  0  0  0  0  0  0
  181.2340  179.4750  137.7790 C   0  0  1  0  0  3  0  0  0  0  0  0
  182.4080  178.7450  137.5750 O   0  0  0  0  0  1  0  0  0  0  0  0
  180.7050  179.3320  139.2100 C   0  0  2  0  0  3  0  0  0  0  0  0
  181.4920  180.5640  138.7970 C   0  0  0  0  0  2  0  0  0  0  0  0
  180.7890  177.2330  140.3760 C   0  0  0  0  0  2  0  0  0  0  0  0
  181.0850  176.0460  139.4590 C   0  0  0  0  0  2  0  0  0  0  0  0
  182.5800  175.8250  139.3880 C   0  0  0  0  0  1  0  0  0  0  0  0
  1 19  1  6  0  0  0
  1  7  1  0  0  0  0
  2  9  1  0  0  0  0
  4  3  1  0  0  0  0
  5 14  1  6  0  0  0
  5 13  1  0  0  0  0
  8  3  2  0  0  0  0
  9  6  1  0  0  0  0
  9 10  2  0  0  0  0
 10  8  1  0  0  0  0
 11 16  2  0  0  0  0
 12  1  1  0  0  0  0
 13  7  1  1  0  0  0
 13  6  1  0  0  0  0
 14 12  1  0  0  0  0
 15  4  2  0  0  0  0
 16 10  1  0  0  0  0
 16 15  1  0  0  0  0
 17  5  1  0  0  0  0
 17  2  1  0  0  0  0
 18  2  2  0  0  0  0
 18 11  1  0  0  0  0
 20 21  1  0  0  0  0
 20 23  2  0  0  0  0
 21 19  1  0  0  0  0
 22 20  1  0  0  0  0
 24 11  1  0  0  0  0
 25 30  1  0  0  0  0
 25 24  1  0  0  0  0
 26 27  1  1  0  0  0
 26 29  1  0  0  0  0
 26 28  1  0  0  0  0
 28 25  1  1  0  0  0
 29 28  1  0  0  0  0
 31 30  1  0  0  0  0
 32 31  1  0  0  0  0
M  END
>  <MODEL>
4

>  <REMARK>
 VINA RESULT:      -7.4      3.695      4.679
  Name = 
  7 active torsions:
  status: ('A' for Active; 'I' for Inactive)
    1  A    between atoms: C_2  and  C_24
    2  A    between atoms: C_6  and  C_7
    3  A    between atoms: C_7  and  N_32
    4  A    between atoms: N_10  and  C_24
    5  A    between atoms: C_16  and  C_27
    6  A    between atoms: C_22  and  N_32
    7  A    between atoms: C_27  and  N_32
                            x       y       z     vdW  Elec       q    Type
                         _______ _______ _______ _____ _____    ______ ____

>  <TORSDO>
F 7

$$$$
=
 OpenBabel10272413323D

 32 36  0  0  1  0  0  0  0  0999 V2000
  187.5700  178.9110  136.9480 C   0  0  1  0  0  3  0  0  0  0  0  0
  188.1260  177.5220  141.8410 C   0  0  0  0  0  0  0  0  0  0  0  0
  184.0060  179.0240  143.9580 C   0  0  0  0  0  3  0  0  0  0  0  0
  184.5680  178.7880  145.2140 C   0  0  0  0  0  3  0  0  0  0  0  0
  188.1500  177.2880  139.3490 C   0  0  1  0  0  3  0  0  0  0  0  0
  186.2140  178.2180  140.3520 C   0  0  0  0  0  2  0  0  0  0  0  0
  186.5760  178.5260  138.0540 C   0  0  0  0  0  2  0  0  0  0  0  0
  184.7490  178.7750  142.8020 C   0  0  0  0  0  3  0  0  0  0  0  0
  186.8170  178.0370  141.7250 C   0  0  0  0  0  0  0  0  0  0  0  0
  186.0620  178.2870  142.8880 C   0  0  0  0  0  0  0  0  0  0  0  0
  187.9450  177.5460  144.2620 C   0  0  0  0  0  0  0  0  0  0  0  0
  189.0140  178.5450  137.3130 C   0  0  0  0  0  2  0  0  0  0  0  0
  187.2500  178.4550  139.3480 N   0  0  2  0  0  0  0  0  0  0  0  0
  189.0810  177.2520  138.1250 C   0  0  0  0  0  2  0  0  0  0  0  0
  185.8720  178.3010  145.3170 C   0  0  0  0  0  3  0  0  0  0  0  0
  186.6310  178.0450  144.1640 C   0  0  0  0  0  0  0  0  0  0  0  0
  188.9820  177.2880  140.6290 C   0  0  0  0  0  2  0  0  0  0  0  0
  188.6800  177.2980  143.1010 C   0  0  0  0  0  3  0  0  0  0  0  0
  187.1810  178.2430  135.6400 C   0  0  0  0  0  2  0  0  0  0  0  0
  186.6310  175.7860  135.6960 C   0  0  0  0  0  0  0  0  0  0  0  0
  186.2580  177.1490  135.8950 N   0  0  0  0  0  2  0  0  0  0  0  0
  185.6860  174.7540  135.9500 N   0  0  0  0  0  1  0  0  0  0  0  0
  187.7870  175.4900  135.2940 O   0  0  0  0  0  0  0  0  0  0  0  0
  188.6050  177.3080  145.5830 C   0  0  0  0  0  2  0  0  0  0  0  0
  190.0470  177.4980  145.4610 N   0  0  0  0  0  0  0  0  0  0  0  0
  191.7740  176.4670  146.9290 C   0  0  1  0  0  3  0  0  0  0  0  0
  191.9810  175.7580  145.7410 O   0  0  0  0  0  1  0  0  0  0  0  0
  190.6370  177.4870  146.8020 C   0  0  2  0  0  3  0  0  0  0  0  0
  190.3990  176.1440  147.4700 C   0  0  0  0  0  2  0  0  0  0  0  0
  190.3100  178.7890  144.8090 C   0  0  0  0  0  2  0  0  0  0  0  0
  191.7040  178.8860  144.1890 C   0  0  0  0  0  2  0  0  0  0  0  0
  191.8140  177.9100  143.0380 C   0  0  0  0  0  1  0  0  0  0  0  0
  1 19  1  6  0  0  0
  1 12  1  0  0  0  0
  1  7  1  0  0  0  0
  2 18  1  0  0  0  0
  3  4  1  0  0  0  0
  4 15  2  0  0  0  0
  5 14  1  6  0  0  0
  5 17  1  0  0  0  0
  6  9  1  0  0  0  0
  8 10  1  0  0  0  0
  8  3  2  0  0  0  0
  9  2  2  0  0  0  0
  9 10  1  0  0  0  0
 10 16  2  0  0  0  0
 11 24  1  0  0  0  0
 12 14  1  0  0  0  0
 13  7  1  6  0  0  0
 13  5  1  0  0  0  0
 13  6  1  0  0  0  0
 16 11  1  0  0  0  0
 16 15  1  0  0  0  0
 17  2  1  0  0  0  0
 18 11  2  0  0  0  0
 19 21  1  0  0  0  0
 20 21  1  0  0  0  0
 20 22  1  0  0  0  0
 23 20  2  0  0  0  0
 25 24  1  0  0  0  0
 26 27  1  6  0  0  0
 26 29  1  0  0  0  0
 28 25  1  6  0  0  0
 28 26  1  0  0  0  0
 28 29  1  0  0  0  0
 30 25  1  0  0  0  0
 31 30  1  0  0  0  0
 32 31  1  0  0  0  0
M  END
>  <MODEL>
5

>  <REMARK>
 VINA RESULT:      -7.4      2.964      8.649
  Name = 
  7 active torsions:
  status: ('A' for Active; 'I' for Inactive)
    1  A    between atoms: C_2  and  C_24
    2  A    between atoms: C_6  and  C_7
    3  A    between atoms: C_7  and  N_32
    4  A    between atoms: N_10  and  C_24
    5  A    between atoms: C_16  and  C_27
    6  A    between atoms: C_22  and  N_32
    7  A    between atoms: C_27  and  N_32
                            x       y       z     vdW  Elec       q    Type
                         _______ _______ _______ _____ _____    ______ ____

>  <TORSDO>
F 7

$$$$
=
 OpenBabel10272413323D

 32 36  0  0  1  0  0  0  0  0999 V2000
  188.1410  177.1520  144.4360 C   0  0  1  0  0  3  0  0  0  0  0  0
  190.2750  177.1910  139.7860 C   0  0  0  0  0  0  0  0  0  0  0  0
  186.5430  178.1060  136.7940 C   0  0  0  0  0  3  0  0  0  0  0  0
  187.3420  177.7740  135.6990 C   0  0  0  0  0  3  0  0  0  0  0  0
  189.9980  177.7370  142.2130 C   0  0  1  0  0  3  0  0  0  0  0  0
  188.1090  177.9880  140.8020 C   0  0  0  0  0  2  0  0  0  0  0  0
  187.7990  177.8770  143.1250 C   0  0  0  0  0  2  0  0  0  0  0  0
  187.0670  178.0400  138.0870 C   0  0  0  0  0  3  0  0  0  0  0  0
  188.9280  177.5700  139.6030 C   0  0  0  0  0  0  0  0  0  0  0  0
  188.3960  177.6410  138.3010 C   0  0  0  0  0  0  0  0  0  0  0  0
  190.5460  176.9140  137.3890 C   0  0  0  0  0  0  0  0  0  0  0  0
  189.5450  176.5370  144.4100 C   0  0  0  0  0  2  0  0  0  0  0  0
  188.5910  177.3420  142.0210 N   0  0  2  0  0  0  0  0  0  0  0  0
  190.5250  177.4030  143.6190 C   0  0  0  0  0  2  0  0  0  0  0  0
  188.6670  177.3770  135.8940 C   0  0  0  0  0  3  0  0  0  0  0  0
  189.2080  177.3060  137.1870 C   0  0  0  0  0  0  0  0  0  0  0  0
  190.8670  177.0550  141.1600 C   0  0  0  0  0  2  0  0  0  0  0  0
  191.0620  176.8530  138.6850 C   0  0  0  0  0  3  0  0  0  0  0  0
  188.0150  178.1080  145.6100 C   0  0  0  0  0  2  0  0  0  0  0  0
  185.6020  178.6570  146.0740 C   0  0  0  0  0  0  0  0  0  0  0  0
  186.7660  177.8690  146.3150 N   0  0  0  0  0  2  0  0  0  0  0  0
  184.4070  178.3890  146.7990 N   0  0  0  0  0  1  0  0  0  0  0  0
  185.6230  179.5910  145.2290 O   0  0  0  0  0  0  0  0  0  0  0  0
  191.4340  176.5160  136.2530 C   0  0  0  0  0  2  0  0  0  0  0  0
  191.9380  175.1630  136.4660 N   0  0  0  0  0  0  0  0  0  0  0  0
  194.3800  174.7820  136.7670 C   0  0  1  0  0  3  0  0  0  0  0  0
  193.9450  174.7580  138.0960 O   0  0  0  0  0  1  0  0  0  0  0  0
  193.2290  175.0300  135.7860 C   0  0  2  0  0  3  0  0  0  0  0  0
  194.1550  176.1630  136.1930 C   0  0  0  0  0  2  0  0  0  0  0  0
  190.9790  174.1970  135.9110 C   0  0  0  0  0  2  0  0  0  0  0  0
  190.0960  173.5360  136.9700 C   0  0  0  0  0  2  0  0  0  0  0  0
  188.6410  173.7170  136.5980 C   0  0  0  0  0  1  0  0  0  0  0  0
  1 19  1  1  0  0  0
  2 17  1  0  0  0  0
  3  8  2  0  0  0  0
  4 15  2  0  0  0  0
  4  3  1  0  0  0  0
  5 17  1  6  0  0  0
  5 14  1  0  0  0  0
  7  1  1  0  0  0  0
  8 10  1  0  0  0  0
  9  2  1  0  0  0  0
  9  6  1  0  0  0  0
 10  9  2  0  0  0  0
 11 18  1  0  0  0  0
 12  1  1  0  0  0  0
 13  6  1  6  0  0  0
 13  5  1  0  0  0  0
 13  7  1  0  0  0  0
 14 12  1  0  0  0  0
 15 16  1  0  0  0  0
 16 11  2  0  0  0  0
 16 10  1  0  0  0  0
 18  2  2  0  0  0  0
 19 21  1  0  0  0  0
 20 21  1  0  0  0  0
 20 22  1  0  0  0  0
 23 20  2  0  0  0  0
 24 25  1  0  0  0  0
 24 11  1  0  0  0  0
 26 27  1  1  0  0  0
 28 29  1  0  0  0  0
 28 25  1  1  0  0  0
 28 26  1  0  0  0  0
 29 26  1  0  0  0  0
 30 25  1  0  0  0  0
 30 31  1  0  0  0  0
 32 31  1  0  0  0  0
M  END
>  <MODEL>
6

>  <REMARK>
 VINA RESULT:      -7.3      5.161      7.393
  Name = 
  7 active torsions:
  status: ('A' for Active; 'I' for Inactive)
    1  A    between atoms: C_2  and  C_24
    2  A    between atoms: C_6  and  C_7
    3  A    between atoms: C_7  and  N_32
    4  A    between atoms: N_10  and  C_24
    5  A    between atoms: C_16  and  C_27
    6  A    between atoms: C_22  and  N_32
    7  A    between atoms: C_27  and  N_32
                            x       y       z     vdW  Elec       q    Type
                         _______ _______ _______ _____ _____    ______ ____

>  <TORSDO>
F 7

$$$$
=
 OpenBabel10272413323D

 32 36  0  0  1  0  0  0  0  0999 V2000
  181.6650  179.5240  140.2810 C   0  0  1  0  0  3  0  0  0  0  0  0
  186.5220  178.4840  141.5070 C   0  0  0  0  0  0  0  0  0  0  0  0
  186.3570  177.6110  146.2950 C   0  0  0  0  0  3  0  0  0  0  0  0
  187.7510  177.6620  146.3500 C   0  0  0  0  0  3  0  0  0  0  0  0
  184.3810  178.3620  140.2160 C   0  0  1  0  0  3  0  0  0  0  0  0
  184.2620  178.1450  142.5730 C   0  0  0  0  0  2  0  0  0  0  0  0
  182.3140  178.6560  141.3680 C   0  0  0  0  0  2  0  0  0  0  0  0
  185.6980  177.8090  145.0790 C   0  0  0  0  0  3  0  0  0  0  0  0
  185.7640  178.2600  142.6760 C   0  0  0  0  0  0  0  0  0  0  0  0
  186.4250  178.0580  143.9050 C   0  0  0  0  0  0  0  0  0  0  0  0
  188.5800  178.3460  142.7860 C   0  0  0  0  0  0  0  0  0  0  0  0
  182.6650  179.9380  139.1940 C   0  0  0  0  0  2  0  0  0  0  0  0
  183.7520  178.9040  141.4330 N   0  0  2  0  0  0  0  0  0  0  0  0
  183.6920  178.8400  138.9250 C   0  0  0  0  0  2  0  0  0  0  0  0
  188.4890  177.9070  145.1900 C   0  0  0  0  0  3  0  0  0  0  0  0
  187.8410  178.1060  143.9610 C   0  0  0  0  0  0  0  0  0  0  0  0
  185.8560  178.7530  140.1870 C   0  0  0  0  0  2  0  0  0  0  0  0
  187.9140  178.5410  141.5750 C   0  0  0  0  0  3  0  0  0  0  0  0
  180.4940  178.7870  139.6530 C   0  0  0  0  0  2  0  0  0  0  0  0
  180.4920  176.2840  139.3800 C   0  0  0  0  0  0  0  0  0  0  0  0
  180.3980  177.4450  140.2040 N   0  0  0  0  0  2  0  0  0  0  0  0
  180.3810  174.9930  139.9670 N   0  0  0  0  0  1  0  0  0  0  0  0
  180.6690  176.3920  138.1370 O   0  0  0  0  0  0  0  0  0  0  0  0
  190.0730  178.4430  142.7970 C   0  0  0  0  0  2  0  0  0  0  0  0
  190.6560  177.2100  142.2780 N   0  0  0  0  0  0  0  0  0  0  0  0
  191.6070  175.4180  143.7220 C   0  0  1  0  0  3  0  0  0  0  0  0
  190.4050  174.8250  143.3250 O   0  0  0  0  0  1  0  0  0  0  0  0
  191.7790  176.8230  143.1350 C   0  0  2  0  0  3  0  0  0  0  0  0
  191.3080  176.6370  144.5660 C   0  0  0  0  0  2  0  0  0  0  0  0
  191.1290  177.4390  140.9050 C   0  0  0  0  0  2  0  0  0  0  0  0
  190.4570  176.5380  139.8690 C   0  0  0  0  0  2  0  0  0  0  0  0
  189.8730  177.3900  138.7630 C   0  0  0  0  0  1  0  0  0  0  0  0
  1 19  1  6  0  0  0
  1  7  1  0  0  0  0
  2 18  2  0  0  0  0
  2  9  1  0  0  0  0
  3  4  1  0  0  0  0
  5 14  1  6  0  0  0
  5 13  1  0  0  0  0
  6  9  1  0  0  0  0
  8  3  2  0  0  0  0
  9 10  2  0  0  0  0
 10 16  1  0  0  0  0
 10  8  1  0  0  0  0
 11 24  1  0  0  0  0
 11 16  2  0  0  0  0
 12  1  1  0  0  0  0
 13  7  1  6  0  0  0
 13  6  1  0  0  0  0
 14 12  1  0  0  0  0
 15  4  2  0  0  0  0
 16 15  1  0  0  0  0
 17  5  1  0  0  0  0
 17  2  1  0  0  0  0
 18 11  1  0  0  0  0
 19 21  1  0  0  0  0
 20 22  1  0  0  0  0
 20 21  1  0  0  0  0
 23 20  2  0  0  0  0
 25 24  1  0  0  0  0
 26 27  1  6  0  0  0
 26 29  1  0  0  0  0
 28 25  1  6  0  0  0
 28 26  1  0  0  0  0
 28 29  1  0  0  0  0
 30 25  1  0  0  0  0
 31 30  1  0  0  0  0
 32 31  1  0  0  0  0
M  END
>  <MODEL>
7

>  <REMARK>
 VINA RESULT:      -7.3      2.431      8.356
  Name = 
  7 active torsions:
  status: ('A' for Active; 'I' for Inactive)
    1  A    between atoms: C_2  and  C_24
    2  A    between atoms: C_6  and  C_7
    3  A    between atoms: C_7  and  N_32
    4  A    between atoms: N_10  and  C_24
    5  A    between atoms: C_16  and  C_27
    6  A    between atoms: C_22  and  N_32
    7  A    between atoms: C_27  and  N_32
                            x       y       z     vdW  Elec       q    Type
                         _______ _______ _______ _____ _____    ______ ____

>  <TORSDO>
F 7

$$$$
=
 OpenBabel10272413323D

 32 36  0  0  1  0  0  0  0  0999 V2000
  190.7530  177.3930  145.6310 C   0  0  1  0  0  3  0  0  0  0  0  0
  188.2980  177.5980  141.1470 C   0  0  0  0  0  0  0  0  0  0  0  0
  191.7280  176.4620  137.8830 C   0  0  0  0  0  3  0  0  0  0  0  0
  190.8800  176.8730  136.8530 C   0  0  0  0  0  3  0  0  0  0  0  0
  188.7040  176.9880  143.5410 C   0  0  1  0  0  3  0  0  0  0  0  0
  190.4630  176.6230  141.9950 C   0  0  0  0  0  2  0  0  0  0  0  0
  190.9450  176.6690  144.2910 C   0  0  0  0  0  2  0  0  0  0  0  0
  191.3030  176.5440  139.2110 C   0  0  0  0  0  3  0  0  0  0  0  0
  189.5950  177.1230  140.8640 C   0  0  0  0  0  0  0  0  0  0  0  0
  190.0270  177.0360  139.5250 C   0  0  0  0  0  0  0  0  0  0  0  0
  187.8790  177.9380  138.7800 C   0  0  0  0  0  0  0  0  0  0  0  0
  189.4010  178.1110  145.7150 C   0  0  0  0  0  2  0  0  0  0  0  0
  190.1190  177.2820  143.2530 N   0  0  2  0  0  0  0  0  0  0  0  0
  188.3040  177.3360  144.9850 C   0  0  0  0  0  2  0  0  0  0  0  0
  189.6070  177.3630  137.1470 C   0  0  0  0  0  3  0  0  0  0  0  0
  189.1650  177.4510  138.4770 C   0  0  0  0  0  0  0  0  0  0  0  0
  187.8160  177.7530  142.5630 C   0  0  0  0  0  2  0  0  0  0  0  0
  187.4620  178.0140  140.1110 C   0  0  0  0  0  3  0  0  0  0  0  0
  190.8890  176.4090  146.7810 C   0  0  0  0  0  2  0  0  0  0  0  0
  192.7530  176.2940  148.4710 C   0  0  0  0  0  0  0  0  0  0  0  0
  191.6800  176.9990  147.8500 N   0  0  0  0  0  2  0  0  0  0  0  0
  193.4880  176.9120  149.5190 N   0  0  0  0  0  1  0  0  0  0  0  0
  193.0530  175.1270  148.1010 O   0  0  0  0  0  0  0  0  0  0  0  0
  186.9450  178.4210  137.7160 C   0  0  0  0  0  2  0  0  0  0  0  0
  185.7160  177.6350  137.7380 N   0  0  0  0  0  0  0  0  0  0  0  0
  185.1860  175.7800  136.1640 C   0  0  1  0  0  3  0  0  0  0  0  0
  185.4360  175.0640  137.3380 O   0  0  0  0  0  1  0  0  0  0  0  0
  185.3540  177.2900  136.3610 C   0  0  2  0  0  3  0  0  0  0  0  0
  186.4570  176.4680  135.7180 C   0  0  0  0  0  2  0  0  0  0  0  0
  184.6440  178.4310  138.3530 C   0  0  0  0  0  2  0  0  0  0  0  0
  183.7850  177.6390  139.3390 C   0  0  0  0  0  2  0  0  0  0  0  0
  183.7150  178.3820  140.6560 C   0  0  0  0  0  1  0  0  0  0  0  0
  1 12  1  0  0  0  0
  1 19  1  1  0  0  0
  2 17  1  0  0  0  0
  3  8  2  0  0  0  0
  4 15  2  0  0  0  0
  4  3  1  0  0  0  0
  5 17  1  6  0  0  0
  5 14  1  0  0  0  0
  7  1  1  0  0  0  0
  8 10  1  0  0  0  0
  9  2  1  0  0  0  0
  9  6  1  0  0  0  0
 10  9  2  0  0  0  0
 11 18  1  0  0  0  0
 13  6  1  6  0  0  0
 13  5  1  0  0  0  0
 13  7  1  0  0  0  0
 14 12  1  0  0  0  0
 15 16  1  0  0  0  0
 16 11  2  0  0  0  0
 16 10  1  0  0  0  0
 18  2  2  0  0  0  0
 19 21  1  0  0  0  0
 20 22  1  0  0  0  0
 21 20  1  0  0  0  0
 23 20  2  0  0  0  0
 24 25  1  0  0  0  0
 24 11  1  0  0  0  0
 25 30  1  0  0  0  0
 26 28  1  0  0  0  0
 26 27  1  1  0  0  0
 28 25  1  1  0  0  0
 29 26  1  0  0  0  0
 29 28  1  0  0  0  0
 30 31  1  0  0  0  0
 31 32  1  0  0  0  0
M  END
>  <MODEL>
8

>  <REMARK>
 VINA RESULT:      -7.0      3.003      5.364
  Name = 
  7 active torsions:
  status: ('A' for Active; 'I' for Inactive)
    1  A    between atoms: C_2  and  C_24
    2  A    between atoms: C_6  and  C_7
    3  A    between atoms: C_7  and  N_32
    4  A    between atoms: N_10  and  C_24
    5  A    between atoms: C_16  and  C_27
    6  A    between atoms: C_22  and  N_32
    7  A    between atoms: C_27  and  N_32
                            x       y       z     vdW  Elec       q    Type
                         _______ _______ _______ _____ _____    ______ ____

>  <TORSDO>
F 7

$$$$
=
 OpenBabel10272413323D

 32 36  0  0  1  0  0  0  0  0999 V2000
  191.4610  174.7070  136.6210 C   0  0  1  0  0  3  0  0  0  0  0  0
  188.4900  177.7330  139.4810 C   0  0  0  0  0  0  0  0  0  0  0  0
  189.7850  176.6620  144.0520 C   0  0  0  0  0  3  0  0  0  0  0  0
  188.6790  177.3670  144.5280 C   0  0  0  0  0  3  0  0  0  0  0  0
  190.0570  177.1010  137.6360 C   0  0  1  0  0  3  0  0  0  0  0  0
  190.5950  176.3910  139.8320 C   0  0  0  0  0  2  0  0  0  0  0  0
  191.6340  175.3510  138.0040 C   0  0  0  0  0  2  0  0  0  0  0  0
  190.0160  176.5690  142.6770 C   0  0  0  0  0  3  0  0  0  0  0  0
  189.3700  177.0880  140.3750 C   0  0  0  0  0  0  0  0  0  0  0  0
  189.1430  177.1810  141.7630 C   0  0  0  0  0  0  0  0  0  0  0  0
  187.1430  178.5230  141.3410 C   0  0  0  0  0  0  0  0  0  0  0  0
  190.2860  175.3110  135.8420 C   0  0  0  0  0  2  0  0  0  0  0  0
  190.3730  175.9240  138.4650 N   0  0  2  0  0  0  0  0  0  0  0  0
  190.1280  176.8040  136.1280 C   0  0  0  0  0  2  0  0  0  0  0  0
  187.8020  177.9820  143.6330 C   0  0  0  0  0  3  0  0  0  0  0  0
  188.0200  177.8990  142.2480 C   0  0  0  0  0  0  0  0  0  0  0  0
  188.6670  177.6180  137.9940 C   0  0  0  0  0  2  0  0  0  0  0  0
  187.3820  178.4270  139.9690 C   0  0  0  0  0  3  0  0  0  0  0  0
  192.7420  174.8450  135.8150 C   0  0  0  0  0  2  0  0  0  0  0  0
  195.0600  175.2000  136.7340 C   0  0  0  0  0  0  0  0  0  0  0  0
  193.8790  174.4090  136.6090 N   0  0  0  0  0  2  0  0  0  0  0  0
  196.1480  174.7220  137.5150 N   0  0  0  0  0  1  0  0  0  0  0  0
  195.1480  176.3160  136.1560 O   0  0  0  0  0  0  0  0  0  0  0  0
  185.9250  179.2620  141.7980 C   0  0  0  0  0  2  0  0  0  0  0  0
  184.7440  178.4180  141.6430 N   0  0  0  0  0  0  0  0  0  0  0  0
  182.9270  178.2470  139.9490 C   0  0  1  0  0  3  0  0  0  0  0  0
  183.3460  176.9150  140.0190 O   0  0  0  0  0  1  0  0  0  0  0  0
  183.7350  179.1580  140.8800 C   0  0  2  0  0  3  0  0  0  0  0  0
  184.0500  179.0960  139.3960 C   0  0  0  0  0  2  0  0  0  0  0  0
  184.2160  178.0760  142.9720 C   0  0  0  0  0  2  0  0  0  0  0  0
  184.0440  179.2860  143.8900 C   0  0  0  0  0  2  0  0  0  0  0  0
  184.5360  178.9390  145.2780 C   0  0  0  0  0  1  0  0  0  0  0  0
  1 19  1  6  0  0  0
  1  7  1  0  0  0  0
  2 18  2  0  0  0  0
  2  9  1  0  0  0  0
  3  4  1  0  0  0  0
  5 14  1  6  0  0  0
  5 17  1  0  0  0  0
  5 13  1  0  0  0  0
  6  9  1  0  0  0  0
  8  3  2  0  0  0  0
  9 10  2  0  0  0  0
 10 16  1  0  0  0  0
 10  8  1  0  0  0  0
 11 24  1  0  0  0  0
 11 16  2  0  0  0  0
 12 14  1  0  0  0  0
 12  1  1  0  0  0  0
 13  7  1  6  0  0  0
 13  6  1  0  0  0  0
 15  4  2  0  0  0  0
 16 15  1  0  0  0  0
 17  2  1  0  0  0  0
 18 11  1  0  0  0  0
 19 21  1  0  0  0  0
 20 22  1  0  0  0  0
 21 20  1  0  0  0  0
 23 20  2  0  0  0  0
 25 24  1  0  0  0  0
 25 30  1  0  0  0  0
 26 27  1  1  0  0  0
 26 28  1  0  0  0  0
 28 25  1  1  0  0  0
 29 26  1  0  0  0  0
 29 28  1  0  0  0  0
 30 31  1  0  0  0  0
 31 32  1  0  0  0  0
M  END
>  <MODEL>
9

>  <REMARK>
 VINA RESULT:      -7.0      5.199      7.383
  Name = 
  7 active torsions:
  status: ('A' for Active; 'I' for Inactive)
    1  A    between atoms: C_2  and  C_24
    2  A    between atoms: C_6  and  C_7
    3  A    between atoms: C_7  and  N_32
    4  A    between atoms: N_10  and  C_24
    5  A    between atoms: C_16  and  C_27
    6  A    between atoms: C_22  and  N_32
    7  A    between atoms: C_27  and  N_32
                            x       y       z     vdW  Elec       q    Type
                         _______ _______ _______ _____ _____    ______ ____

>  <TORSDO>
F 7

$$$$
