=
 OpenBabel10272400353D

 31 35  0  0  1  0  0  0  0  0999 V2000
  184.0760  179.4640  144.0990 C   0  0  0  0  0  2  0  0  0  0  0  0
  186.5640  177.7070  142.0140 O   0  0  0  0  0  0  0  0  0  0  0  0
  186.0900  178.1960  143.2450 C   0  0  1  0  0  3  0  0  0  0  0  0
  185.6370  179.1000  145.9940 C   0  0  0  0  0  2  0  0  0  0  0  0
  188.6570  176.9910  143.2270 C   0  0  1  0  0  3  0  0  0  0  0  0
  184.1920  178.9920  145.5400 C   0  0  0  0  0  2  0  0  0  0  0  0
  188.5940  177.6340  140.6760 C   0  0  1  0  0  3  0  0  0  0  0  0
  187.6300  176.3430  144.1650 C   0  0  0  0  0  2  0  0  0  0  0  0
  187.9670  177.7380  142.0660 C   0  0  1  0  0  0  0  0  0  0  0  0
  184.5890  178.4180  143.1180 C   0  0  0  0  0  2  0  0  0  0  0  0
  186.3650  177.1880  144.3870 C   0  0  1  0  0  3  0  0  0  0  0  0
  186.4020  177.7920  145.7980 C   0  0  0  0  0  2  0  0  0  0  0  0
  188.6170  178.9560  141.4370 C   0  0  0  0  0  2  0  0  0  0  0  0
  189.6310  177.8220  143.9430 N   0  0  0  0  0  0  0  0  0  0  0  0
  191.7230  176.0880  147.2080 C   0  0  0  0  0  0  0  0  0  0  0  0
  189.9670  177.5070  146.3470 C   0  0  0  0  0  3  0  0  0  0  0  0
  191.9690  175.8630  143.2060 Cl  0  0  0  0  0  0  0  0  0  0  0  0
  192.5680  175.3750  148.5640 Cl  0  0  0  0  0  0  0  0  0  0  0  0
  190.6430  176.9410  147.4300 C   0  0  0  0  0  3  0  0  0  0  0  0
  191.4540  176.3550  144.8120 C   0  0  0  0  0  0  0  0  0  0  0  0
  190.3660  177.2320  145.0290 C   0  0  0  0  0  0  0  0  0  0  0  0
  192.1220  175.7910  145.9040 C   0  0  0  0  0  3  0  0  0  0  0  0
  189.8940  179.1940  143.5110 C   0  0  0  0  0  2  0  0  0  0  0  0
  191.2410  179.6620  144.0300 C   0  0  0  0  0  1  0  0  0  0  0  0
  189.9850  177.0060  140.6820 C   0  0  0  0  0  2  0  0  0  0  0  0
  190.4540  176.7360  139.2940 C   0  0  0  0  0  0  0  0  0  0  0  0
  189.9570  176.3290  136.9580 C   0  0  0  0  0  3  0  0  0  0  0  0
  189.5230  176.5910  138.2610 C   0  0  0  0  0  3  0  0  0  0  0  0
  191.3240  176.2110  136.6880 C   0  0  0  0  0  3  0  0  0  0  0  0
  192.2560  176.3520  137.7200 C   0  0  0  0  0  3  0  0  0  0  0  0
  191.8210  176.6140  139.0230 C   0  0  0  0  0  3  0  0  0  0  0  0
  1  6  1  0  0  0  0
  2  9  1  0  0  0  0
  2  3  1  0  0  0  0
  3 10  1  6  0  0  0
  3 11  1  0  0  0  0
  5 14  1  1  0  0  0
  5  8  1  0  0  0  0
  6  4  1  0  0  0  0
  7 25  1  1  0  0  0
  7 13  1  0  0  0  0
  7  9  1  0  0  0  0
  9 13  1  1  0  0  0
  9  5  1  0  0  0  0
 10  1  1  0  0  0  0
 11  8  1  6  0  0  0
 11 12  1  0  0  0  0
 12  4  1  0  0  0  0
 14 21  1  0  0  0  0
 15 19  1  0  0  0  0
 15 18  1  0  0  0  0
 16 19  2  0  0  0  0
 17 20  1  0  0  0  0
 20 21  2  0  0  0  0
 20 22  1  0  0  0  0
 21 16  1  0  0  0  0
 22 15  2  0  0  0  0
 23 14  1  0  0  0  0
 23 24  1  0  0  0  0
 26 25  1  0  0  0  0
 27 28  1  0  0  0  0
 28 26  2  0  0  0  0
 29 27  2  0  0  0  0
 29 30  1  0  0  0  0
 30 31  2  0  0  0  0
 31 26  1  0  0  0  0
M  END
>  <MODEL>
1

>  <REMARK>
 VINA RESULT:      -8.9      0.000      0.000
  Name = 
  5 active torsions:
  status: ('A' for Active; 'I' for Inactive)
    1  A    between atoms: C_5  and  C_30
    2  A    between atoms: C_7  and  N_9
    3  A    between atoms: N_9  and  C_15
    4  A    between atoms: N_9  and  C_22
    5  A    between atoms: C_17  and  C_30
                            x       y       z     vdW  Elec       q    Type
                         _______ _______ _______ _____ _____    ______ ____

>  <TORSDO>
F 5

$$$$
=
 OpenBabel10272400353D

 31 35  0  0  1  0  0  0  0  0999 V2000
  186.6560  178.8080  147.6500 C   0  0  0  0  0  2  0  0  0  0  0  0
  185.4640  178.1590  144.2180 O   0  0  0  0  0  0  0  0  0  0  0  0
  186.4600  178.1700  145.2110 C   0  0  1  0  0  3  0  0  0  0  0  0
  188.8940  178.1060  146.8390 C   0  0  0  0  0  2  0  0  0  0  0  0
  187.2450  177.4130  142.5930 C   0  0  1  0  0  3  0  0  0  0  0  0
  187.8660  177.9360  147.9450 C   0  0  0  0  0  2  0  0  0  0  0  0
  185.1180  178.7960  141.8960 C   0  0  1  0  0  3  0  0  0  0  0  0
  187.4970  176.3660  143.6870 C   0  0  0  0  0  2  0  0  0  0  0  0
  186.1030  178.3740  142.9860 C   0  0  1  0  0  0  0  0  0  0  0  0
  185.7710  178.2020  146.5690 C   0  0  0  0  0  2  0  0  0  0  0  0
  187.3530  176.9100  145.1180 C   0  0  1  0  0  3  0  0  0  0  0  0
  188.7460  177.0480  145.7480 C   0  0  0  0  0  2  0  0  0  0  0  0
  186.0950  179.8070  142.4880 C   0  0  0  0  0  2  0  0  0  0  0  0
  188.4690  178.1150  142.1910 N   0  0  0  0  0  0  0  0  0  0  0  0
  190.2740  177.1310  138.4730 C   0  0  0  0  0  0  0  0  0  0  0  0
  188.7380  178.4600  139.7820 C   0  0  0  0  0  3  0  0  0  0  0  0
  190.6420  175.8520  142.2610 Cl  0  0  0  0  0  0  0  0  0  0  0  0
  191.0140  176.7460  136.9350 Cl  0  0  0  0  0  0  0  0  0  0  0  0
  189.3250  178.1500  138.5540 C   0  0  0  0  0  3  0  0  0  0  0  0
  190.0590  176.7280  140.8550 C   0  0  0  0  0  0  0  0  0  0  0  0
  189.0860  177.7520  140.9430 C   0  0  0  0  0  0  0  0  0  0  0  0
  190.6440  176.4290  139.6200 C   0  0  0  0  0  3  0  0  0  0  0  0
  189.0030  179.2040  143.0070 C   0  0  0  0  0  2  0  0  0  0  0  0
  190.4170  178.8840  143.4560 C   0  0  0  0  0  1  0  0  0  0  0  0
  185.5630  178.4050  140.4900 C   0  0  0  0  0  2  0  0  0  0  0  0
  184.4350  178.5160  139.5230 C   0  0  0  0  0  0  0  0  0  0  0  0
  182.3930  179.6050  138.8040 C   0  0  0  0  0  3  0  0  0  0  0  0
  183.4590  179.5020  139.7030 C   0  0  0  0  0  3  0  0  0  0  0  0
  182.3020  178.7220  137.7240 C   0  0  0  0  0  3  0  0  0  0  0  0
  183.2750  177.7340  137.5440 C   0  0  0  0  0  3  0  0  0  0  0  0
  184.3410  177.6310  138.4440 C   0  0  0  0  0  3  0  0  0  0  0  0
  1  6  1  0  0  0  0
  2  3  1  0  0  0  0
  3 10  1  1  0  0  0
  4  6  1  0  0  0  0
  5 14  1  1  0  0  0
  5  9  1  0  0  0  0
  5  8  1  0  0  0  0
  7 25  1  6  0  0  0
  7 13  1  0  0  0  0
  7  9  1  0  0  0  0
  9 13  1  1  0  0  0
  9  2  1  0  0  0  0
 10  1  1  0  0  0  0
 11  8  1  6  0  0  0
 11  3  1  0  0  0  0
 11 12  1  0  0  0  0
 12  4  1  0  0  0  0
 14 23  1  0  0  0  0
 15 19  2  0  0  0  0
 15 22  1  0  0  0  0
 16 21  2  0  0  0  0
 18 15  1  0  0  0  0
 19 16  1  0  0  0  0
 20 21  1  0  0  0  0
 20 17  1  0  0  0  0
 21 14  1  0  0  0  0
 22 20  2  0  0  0  0
 23 24  1  0  0  0  0
 26 28  1  0  0  0  0
 26 25  1  0  0  0  0
 27 28  2  0  0  0  0
 29 27  1  0  0  0  0
 30 29  2  0  0  0  0
 30 31  1  0  0  0  0
 31 26  2  0  0  0  0
M  END
>  <MODEL>
2

>  <REMARK>
 VINA RESULT:      -7.8      2.754      5.557
  Name = 
  5 active torsions:
  status: ('A' for Active; 'I' for Inactive)
    1  A    between atoms: C_5  and  C_30
    2  A    between atoms: C_7  and  N_9
    3  A    between atoms: N_9  and  C_15
    4  A    between atoms: N_9  and  C_22
    5  A    between atoms: C_17  and  C_30
                            x       y       z     vdW  Elec       q    Type
                         _______ _______ _______ _____ _____    ______ ____

>  <TORSDO>
F 5

$$$$
=
 OpenBabel10272400353D

 31 35  0  0  1  0  0  0  0  0999 V2000
  192.2860  175.8880  135.5910 C   0  0  0  0  0  2  0  0  0  0  0  0
  190.3440  176.5320  138.6630 O   0  0  0  0  0  0  0  0  0  0  0  0
  190.4470  176.2500  137.2890 C   0  0  1  0  0  3  0  0  0  0  0  0
  190.1030  175.7930  134.4160 C   0  0  0  0  0  2  0  0  0  0  0  0
  187.8460  176.6720  138.3360 C   0  0  1  0  0  3  0  0  0  0  0  0
  191.4390  175.0970  134.6070 C   0  0  0  0  0  2  0  0  0  0  0  0
  189.1530  177.9960  140.1970 C   0  0  1  0  0  3  0  0  0  0  0  0
  188.0760  175.3090  137.6690 C   0  0  0  0  0  2  0  0  0  0  0  0
  189.1700  177.2800  138.8470 C   0  0  1  0  0  0  0  0  0  0  0  0
  191.8330  175.6730  137.0290 C   0  0  0  0  0  2  0  0  0  0  0  0
  189.3740  175.2260  136.8490 C   0  0  1  0  0  3  0  0  0  0  0  0
  189.0290  175.2430  135.3530 C   0  0  0  0  0  2  0  0  0  0  0  0
  189.3560  178.7840  138.9060 C   0  0  0  0  0  2  0  0  0  0  0  0
  187.0840  177.5950  137.4870 N   0  0  0  0  0  0  0  0  0  0  0  0
  182.9230  178.0840  138.1920 C   0  0  0  0  0  0  0  0  0  0  0  0
  185.2110  178.7910  138.5140 C   0  0  0  0  0  3  0  0  0  0  0  0
  185.1860  175.5490  136.0530 Cl  0  0  0  0  0  0  0  0  0  0  0  0
  181.2130  178.3070  138.4850 Cl  0  0  0  0  0  0  0  0  0  0  0  0
  183.8470  178.9670  138.7520 C   0  0  0  0  0  3  0  0  0  0  0  0
  184.7270  176.8460  137.1450 C   0  0  0  0  0  0  0  0  0  0  0  0
  185.6710  177.7290  137.7200 C   0  0  0  0  0  0  0  0  0  0  0  0
  183.3620  177.0330  137.3860 C   0  0  0  0  0  3  0  0  0  0  0  0
  187.7630  178.4080  136.4790 C   0  0  0  0  0  2  0  0  0  0  0  0
  187.1060  178.2260  135.1240 C   0  0  0  0  0  1  0  0  0  0  0  0
  187.7460  178.2400  140.7380 C   0  0  0  0  0  2  0  0  0  0  0  0
  187.6790  177.9490  142.1980 C   0  0  0  0  0  0  0  0  0  0  0  0
  188.7790  177.2950  144.2560 C   0  0  0  0  0  3  0  0  0  0  0  0
  188.8380  177.5780  142.8870 C   0  0  0  0  0  3  0  0  0  0  0  0
  187.5610  177.3840  144.9350 C   0  0  0  0  0  3  0  0  0  0  0  0
  186.4010  177.7520  144.2470 C   0  0  0  0  0  3  0  0  0  0  0  0
  186.4600  178.0340  142.8780 C   0  0  0  0  0  3  0  0  0  0  0  0
  1 10  1  0  0  0  0
  2  9  1  0  0  0  0
  3 10  1  1  0  0  0
  3  2  1  0  0  0  0
  4  6  1  0  0  0  0
  4 12  1  0  0  0  0
  5 14  1  6  0  0  0
  5  9  1  0  0  0  0
  6  1  1  0  0  0  0
  7 25  1  6  0  0  0
  8  5  1  0  0  0  0
  9 13  1  6  0  0  0
  9  7  1  0  0  0  0
 11 12  1  6  0  0  0
 11  3  1  0  0  0  0
 11  8  1  0  0  0  0
 13  7  1  0  0  0  0
 14 21  1  0  0  0  0
 15 18  1  0  0  0  0
 15 19  1  0  0  0  0
 16 19  2  0  0  0  0
 17 20  1  0  0  0  0
 20 22  1  0  0  0  0
 20 21  2  0  0  0  0
 21 16  1  0  0  0  0
 22 15  2  0  0  0  0
 23 14  1  0  0  0  0
 24 23  1  0  0  0  0
 25 26  1  0  0  0  0
 26 31  2  0  0  0  0
 26 28  1  0  0  0  0
 27 29  1  0  0  0  0
 28 27  2  0  0  0  0
 30 29  2  0  0  0  0
 31 30  1  0  0  0  0
M  END
>  <MODEL>
3

>  <REMARK>
 VINA RESULT:      -7.4      4.107      9.016
  Name = 
  5 active torsions:
  status: ('A' for Active; 'I' for Inactive)
    1  A    between atoms: C_5  and  C_30
    2  A    between atoms: C_7  and  N_9
    3  A    between atoms: N_9  and  C_15
    4  A    between atoms: N_9  and  C_22
    5  A    between atoms: C_17  and  C_30
                            x       y       z     vdW  Elec       q    Type
                         _______ _______ _______ _____ _____    ______ ____

>  <TORSDO>
F 5

$$$$
=
 OpenBabel10272400353D

 31 35  0  0  1  0  0  0  0  0999 V2000
  193.6910  175.6970  135.8450 C   0  0  0  0  0  2  0  0  0  0  0  0
  191.4710  175.8490  138.7890 O   0  0  0  0  0  0  0  0  0  0  0  0
  191.7020  175.8020  137.4030 C   0  0  1  0  0  3  0  0  0  0  0  0
  191.6270  175.8450  134.4740 C   0  0  0  0  0  2  0  0  0  0  0  0
  189.0150  176.0910  138.2620 C   0  0  1  0  0  3  0  0  0  0  0  0
  192.9380  175.1020  134.6660 C   0  0  0  0  0  2  0  0  0  0  0  0
  190.1460  177.0550  140.4340 C   0  0  1  0  0  3  0  0  0  0  0  0
  189.3020  174.8560  137.3960 C   0  0  0  0  0  2  0  0  0  0  0  0
  190.2870  176.5770  138.9890 C   0  0  1  0  0  0  0  0  0  0  0  0
  193.1040  175.2500  137.1770 C   0  0  0  0  0  2  0  0  0  0  0  0
  190.6720  174.8880  136.6970 C   0  0  1  0  0  3  0  0  0  0  0  0
  190.4680  175.1650  135.2010 C   0  0  0  0  0  2  0  0  0  0  0  0
  190.4720  178.0460  139.3210 C   0  0  0  0  0  2  0  0  0  0  0  0
  188.3400  177.1580  137.5170 N   0  0  0  0  0  0  0  0  0  0  0  0
  184.1630  177.7230  138.0480 C   0  0  0  0  0  0  0  0  0  0  0  0
  186.4490  178.3250  138.5460 C   0  0  0  0  0  3  0  0  0  0  0  0
  186.4630  175.3030  135.8180 Cl  0  0  0  0  0  0  0  0  0  0  0  0
  182.4460  177.9770  138.2710 Cl  0  0  0  0  0  0  0  0  0  0  0  0
  185.0800  178.5250  138.7280 C   0  0  0  0  0  3  0  0  0  0  0  0
  185.9840  176.5190  136.9920 C   0  0  0  0  0  0  0  0  0  0  0  0
  186.9200  177.3190  137.6880 C   0  0  0  0  0  0  0  0  0  0  0  0
  184.6140  176.7300  137.1780 C   0  0  0  0  0  3  0  0  0  0  0  0
  189.1070  178.0780  136.6790 C   0  0  0  0  0  2  0  0  0  0  0  0
  188.5970  178.0410  135.2500 C   0  0  0  0  0  1  0  0  0  0  0  0
  188.6960  177.2300  140.8770 C   0  0  0  0  0  2  0  0  0  0  0  0
  188.6030  177.3610  142.3580 C   0  0  0  0  0  0  0  0  0  0  0  0
  187.2610  177.4280  144.3750 C   0  0  0  0  0  3  0  0  0  0  0  0
  187.3540  177.2960  142.9860 C   0  0  0  0  0  3  0  0  0  0  0  0
  188.4160  177.6250  145.1370 C   0  0  0  0  0  3  0  0  0  0  0  0
  189.6650  177.6940  144.5110 C   0  0  0  0  0  3  0  0  0  0  0  0
  189.7580  177.5630  143.1220 C   0  0  0  0  0  3  0  0  0  0  0  0
  1 10  1  0  0  0  0
  2  9  1  0  0  0  0
  3 10  1  1  0  0  0
  3  2  1  0  0  0  0
  4  6  1  0  0  0  0
  4 12  1  0  0  0  0
  5 14  1  6  0  0  0
  5  9  1  0  0  0  0
  6  1  1  0  0  0  0
  7 25  1  6  0  0  0
  8  5  1  0  0  0  0
  9 13  1  6  0  0  0
  9  7  1  0  0  0  0
 11 12  1  6  0  0  0
 11  8  1  0  0  0  0
 11  3  1  0  0  0  0
 13  7  1  0  0  0  0
 14 21  1  0  0  0  0
 15 18  1  0  0  0  0
 15 19  1  0  0  0  0
 16 19  2  0  0  0  0
 17 20  1  0  0  0  0
 20 22  1  0  0  0  0
 20 21  2  0  0  0  0
 21 16  1  0  0  0  0
 22 15  2  0  0  0  0
 23 14  1  0  0  0  0
 24 23  1  0  0  0  0
 25 26  1  0  0  0  0
 26 28  2  0  0  0  0
 26 31  1  0  0  0  0
 27 29  2  0  0  0  0
 28 27  1  0  0  0  0
 30 29  1  0  0  0  0
 31 30  2  0  0  0  0
M  END
>  <MODEL>
4

>  <REMARK>
 VINA RESULT:      -7.2      3.957      8.934
  Name = 
  5 active torsions:
  status: ('A' for Active; 'I' for Inactive)
    1  A    between atoms: C_5  and  C_30
    2  A    between atoms: C_7  and  N_9
    3  A    between atoms: N_9  and  C_15
    4  A    between atoms: N_9  and  C_22
    5  A    between atoms: C_17  and  C_30
                            x       y       z     vdW  Elec       q    Type
                         _______ _______ _______ _____ _____    ______ ____

>  <TORSDO>
F 5

$$$$
=
 OpenBabel10272400353D

 31 35  0  0  1  0  0  0  0  0999 V2000
  185.7420  179.1500  145.3500 C   0  0  0  0  0  2  0  0  0  0  0  0
  186.7780  177.8800  142.0430 O   0  0  0  0  0  0  0  0  0  0  0  0
  186.9530  178.0360  143.4290 C   0  0  1  0  0  3  0  0  0  0  0  0
  187.8480  178.1620  146.2160 C   0  0  0  0  0  2  0  0  0  0  0  0
  189.0120  176.7090  142.0010 C   0  0  1  0  0  3  0  0  0  0  0  0
  186.3510  178.2870  146.4430 C   0  0  0  0  0  2  0  0  0  0  0  0
  188.0240  178.0440  139.9610 C   0  0  1  0  0  3  0  0  0  0  0  0
  188.3620  175.8970  143.1300 C   0  0  0  0  0  2  0  0  0  0  0  0
  188.0560  177.7980  141.4690 C   0  0  1  0  0  0  0  0  0  0  0  0
  185.6020  178.3890  144.0390 C   0  0  0  0  0  2  0  0  0  0  0  0
  187.4810  176.7320  144.0740 C   0  0  1  0  0  3  0  0  0  0  0  0
  188.2060  176.9120  145.4150 C   0  0  0  0  0  2  0  0  0  0  0  0
  188.6040  179.0950  140.9030 C   0  0  0  0  0  2  0  0  0  0  0  0
  190.3300  177.2370  142.3720 N   0  0  0  0  0  0  0  0  0  0  0  0
  191.9810  176.1010  146.1180 C   0  0  0  0  0  0  0  0  0  0  0  0
  191.2650  175.5480  143.8770 C   0  0  0  0  0  3  0  0  0  0  0  0
  190.7000  179.5340  144.4770 Cl  0  0  0  0  0  0  0  0  0  0  0  0
  192.6720  175.6170  147.6510 Cl  0  0  0  0  0  0  0  0  0  0  0  0
  191.8130  175.1610  145.1020 C   0  0  0  0  0  3  0  0  0  0  0  0
  191.0590  177.8270  144.6860 C   0  0  0  0  0  0  0  0  0  0  0  0
  190.8730  176.8770  143.6550 C   0  0  0  0  0  0  0  0  0  0  0  0
  191.6120  177.4300  145.9080 C   0  0  0  0  0  3  0  0  0  0  0  0
  191.0960  178.0480  141.4280 C   0  0  0  0  0  2  0  0  0  0  0  0
  192.3250  177.2920  140.9580 C   0  0  0  0  0  1  0  0  0  0  0  0
  189.1520  177.3450  139.2060 C   0  0  0  0  0  2  0  0  0  0  0  0
  188.9260  177.4050  137.7350 C   0  0  0  0  0  0  0  0  0  0  0  0
  187.5260  178.0180  135.8540 C   0  0  0  0  0  3  0  0  0  0  0  0
  187.7470  177.9670  137.2340 C   0  0  0  0  0  3  0  0  0  0  0  0
  188.4840  177.5060  134.9750 C   0  0  0  0  0  3  0  0  0  0  0  0
  189.6610  176.9400  135.4730 C   0  0  0  0  0  3  0  0  0  0  0  0
  189.8820  176.8890  136.8530 C   0  0  0  0  0  3  0  0  0  0  0  0
  1  6  1  0  0  0  0
  2  3  1  0  0  0  0
  3 10  1  1  0  0  0
  3 11  1  0  0  0  0
  4  6  1  0  0  0  0
  5 14  1  1  0  0  0
  5  8  1  0  0  0  0
  7 25  1  6  0  0  0
  7 13  1  0  0  0  0
  7  9  1  0  0  0  0
  9 13  1  1  0  0  0
  9  5  1  0  0  0  0
  9  2  1  0  0  0  0
 10  1  1  0  0  0  0
 11  8  1  6  0  0  0
 11 12  1  0  0  0  0
 12  4  1  0  0  0  0
 14 21  1  0  0  0  0
 15 18  1  0  0  0  0
 16 19  1  0  0  0  0
 17 20  1  0  0  0  0
 19 15  2  0  0  0  0
 20 22  2  0  0  0  0
 21 16  2  0  0  0  0
 21 20  1  0  0  0  0
 22 15  1  0  0  0  0
 23 14  1  0  0  0  0
 24 23  1  0  0  0  0
 26 25  1  0  0  0  0
 27 28  2  0  0  0  0
 28 26  1  0  0  0  0
 29 30  2  0  0  0  0
 29 27  1  0  0  0  0
 30 31  1  0  0  0  0
 31 26  2  0  0  0  0
M  END
>  <MODEL>
5

>  <REMARK>
 VINA RESULT:      -7.1      1.588      2.287
  Name = 
  5 active torsions:
  status: ('A' for Active; 'I' for Inactive)
    1  A    between atoms: C_5  and  C_30
    2  A    between atoms: C_7  and  N_9
    3  A    between atoms: N_9  and  C_15
    4  A    between atoms: N_9  and  C_22
    5  A    between atoms: C_17  and  C_30
                            x       y       z     vdW  Elec       q    Type
                         _______ _______ _______ _____ _____    ______ ____

>  <TORSDO>
F 5

$$$$
=
 OpenBabel10272400353D

 31 35  0  0  1  0  0  0  0  0999 V2000
  194.1010  176.5310  135.7560 C   0  0  0  0  0  2  0  0  0  0  0  0
  191.6830  176.6400  138.5420 O   0  0  0  0  0  0  0  0  0  0  0  0
  192.0580  176.3060  137.2290 C   0  0  1  0  0  3  0  0  0  0  0  0
  192.2750  175.5170  134.4160 C   0  0  0  0  0  2  0  0  0  0  0  0
  189.3730  175.7940  137.9830 C   0  0  1  0  0  3  0  0  0  0  0  0
  193.7380  175.4000  134.8080 C   0  0  0  0  0  2  0  0  0  0  0  0
  189.8510  177.6640  139.7720 C   0  0  1  0  0  3  0  0  0  0  0  0
  190.1720  174.5700  137.5140 C   0  0  0  0  0  2  0  0  0  0  0  0
  190.3030  176.8980  138.5280 C   0  0  1  0  0  0  0  0  0  0  0  0
  193.5790  176.2790  137.1640 C   0  0  0  0  0  2  0  0  0  0  0  0
  191.5020  174.9190  136.8270 C   0  0  1  0  0  3  0  0  0  0  0  0
  191.3690  174.6790  135.3160 C   0  0  0  0  0  2  0  0  0  0  0  0
  189.9130  178.3600  138.4160 C   0  0  0  0  0  2  0  0  0  0  0  0
  188.4400  176.2840  136.9630 N   0  0  0  0  0  0  0  0  0  0  0  0
  184.4010  174.9920  137.2280 C   0  0  0  0  0  0  0  0  0  0  0  0
  186.7490  174.5140  136.9180 C   0  0  0  0  0  3  0  0  0  0  0  0
  186.3090  178.5100  137.5580 Cl  0  0  0  0  0  0  0  0  0  0  0  0
  182.7450  174.4410  137.3450 Cl  0  0  0  0  0  0  0  0  0  0  0  0
  185.4280  174.0740  137.0070 C   0  0  0  0  0  3  0  0  0  0  0  0
  186.0170  176.8000  137.2820 C   0  0  0  0  0  0  0  0  0  0  0  0
  187.0620  175.8770  137.0440 C   0  0  0  0  0  0  0  0  0  0  0  0
  184.6970  176.3480  137.3730 C   0  0  0  0  0  3  0  0  0  0  0  0
  188.8900  177.2210  135.9350 C   0  0  0  0  0  2  0  0  0  0  0  0
  188.4540  176.7470  134.5610 C   0  0  0  0  0  1  0  0  0  0  0  0
  188.3970  177.3980  140.1530 C   0  0  0  0  0  2  0  0  0  0  0  0
  188.2320  177.3680  141.6340 C   0  0  0  0  0  0  0  0  0  0  0  0
  189.0080  176.6480  143.8130 C   0  0  0  0  0  3  0  0  0  0  0  0
  189.1640  176.6870  142.4240 C   0  0  0  0  0  3  0  0  0  0  0  0
  187.9210  177.2890  144.4130 C   0  0  0  0  0  3  0  0  0  0  0  0
  186.9860  177.9670  143.6250 C   0  0  0  0  0  3  0  0  0  0  0  0
  187.1410  178.0060  142.2350 C   0  0  0  0  0  3  0  0  0  0  0  0
  1 10  1  0  0  0  0
  3 10  1  1  0  0  0
  3  2  1  0  0  0  0
  4  6  1  0  0  0  0
  4 12  1  0  0  0  0
  5 14  1  6  0  0  0
  5  9  1  0  0  0  0
  6  1  1  0  0  0  0
  7 25  1  6  0  0  0
  8  5  1  0  0  0  0
  9 13  1  6  0  0  0
  9  2  1  0  0  0  0
  9  7  1  0  0  0  0
 11 12  1  6  0  0  0
 11  3  1  0  0  0  0
 11  8  1  0  0  0  0
 13  7  1  0  0  0  0
 14 21  1  0  0  0  0
 15 18  1  0  0  0  0
 15 22  1  0  0  0  0
 16 19  1  0  0  0  0
 16 21  2  0  0  0  0
 19 15  2  0  0  0  0
 20 22  2  0  0  0  0
 20 17  1  0  0  0  0
 21 20  1  0  0  0  0
 23 14  1  0  0  0  0
 24 23  1  0  0  0  0
 25 26  1  0  0  0  0
 26 31  2  0  0  0  0
 26 28  1  0  0  0  0
 27 29  1  0  0  0  0
 28 27  2  0  0  0  0
 30 29  2  0  0  0  0
 31 30  1  0  0  0  0
M  END
>  <MODEL>
6

>  <REMARK>
 VINA RESULT:      -7.0      3.942      9.223
  Name = 
  5 active torsions:
  status: ('A' for Active; 'I' for Inactive)
    1  A    between atoms: C_5  and  C_30
    2  A    between atoms: C_7  and  N_9
    3  A    between atoms: N_9  and  C_15
    4  A    between atoms: N_9  and  C_22
    5  A    between atoms: C_17  and  C_30
                            x       y       z     vdW  Elec       q    Type
                         _______ _______ _______ _____ _____    ______ ____

>  <TORSDO>
F 5

$$$$
=
 OpenBabel10272400353D

 31 35  0  0  1  0  0  0  0  0999 V2000
  192.6620  175.7070  135.5550 C   0  0  0  0  0  2  0  0  0  0  0  0
  190.9870  175.5780  138.8420 O   0  0  0  0  0  0  0  0  0  0  0  0
  190.9960  175.8110  137.4550 C   0  0  1  0  0  3  0  0  0  0  0  0
  190.5030  176.5450  134.6620 C   0  0  0  0  0  2  0  0  0  0  0  0
  188.5960  176.3820  138.8530 C   0  0  1  0  0  3  0  0  0  0  0  0
  191.6310  175.5500  134.4490 C   0  0  0  0  0  2  0  0  0  0  0  0
  190.2180  176.5920  140.9140 C   0  0  1  0  0  3  0  0  0  0  0  0
  188.4720  175.3510  137.7230 C   0  0  0  0  0  2  0  0  0  0  0  0
  190.0360  176.4440  139.4040 C   0  0  1  0  0  0  0  0  0  0  0  0
  192.1920  175.0790  136.8610 C   0  0  0  0  0  2  0  0  0  0  0  0
  189.6970  175.2920  136.7950 C   0  0  1  0  0  3  0  0  0  0  0  0
  189.3420  175.9400  135.4490 C   0  0  0  0  0  2  0  0  0  0  0  0
  190.5880  177.7370  139.9760 C   0  0  0  0  0  2  0  0  0  0  0  0
  188.0710  177.6990  138.4760 N   0  0  0  0  0  0  0  0  0  0  0  0
  183.8530  178.1510  138.2480 C   0  0  0  0  0  0  0  0  0  0  0  0
  185.9540  177.4690  137.2680 C   0  0  0  0  0  3  0  0  0  0  0  0
  186.6620  178.8560  141.0300 Cl  0  0  0  0  0  0  0  0  0  0  0  0
  182.1150  178.3200  138.1420 Cl  0  0  0  0  0  0  0  0  0  0  0  0
  184.5680  177.6080  137.1810 C   0  0  0  0  0  3  0  0  0  0  0  0
  185.9110  178.4130  139.5050 C   0  0  0  0  0  0  0  0  0  0  0  0
  186.6440  177.8760  138.4210 C   0  0  0  0  0  0  0  0  0  0  0  0
  184.5220  178.5440  139.4080 C   0  0  0  0  0  3  0  0  0  0  0  0
  188.9800  178.8180  138.2320 C   0  0  0  0  0  2  0  0  0  0  0  0
  188.9890  179.1800  136.7590 C   0  0  0  0  0  1  0  0  0  0  0  0
  188.9240  176.9230  141.6520 C   0  0  0  0  0  2  0  0  0  0  0  0
  189.1900  177.2210  143.0880 C   0  0  0  0  0  0  0  0  0  0  0  0
  190.6830  178.0310  144.8170 C   0  0  0  0  0  3  0  0  0  0  0  0
  190.4240  177.7580  143.4700 C   0  0  0  0  0  3  0  0  0  0  0  0
  189.7080  177.7660  145.7820 C   0  0  0  0  0  3  0  0  0  0  0  0
  188.4750  177.2260  145.4040 C   0  0  0  0  0  3  0  0  0  0  0  0
  188.2170  176.9530  144.0560 C   0  0  0  0  0  3  0  0  0  0  0  0
  1 10  1  0  0  0  0
  2  9  1  0  0  0  0
  3 10  1  6  0  0  0
  3  2  1  0  0  0  0
  4 12  1  0  0  0  0
  5 14  1  6  0  0  0
  5  9  1  0  0  0  0
  6  4  1  0  0  0  0
  6  1  1  0  0  0  0
  7 25  1  1  0  0  0
  8  5  1  0  0  0  0
  9 13  1  6  0  0  0
  9  7  1  0  0  0  0
 11 12  1  6  0  0  0
 11  3  1  0  0  0  0
 11  8  1  0  0  0  0
 13  7  1  0  0  0  0
 15 22  1  0  0  0  0
 16 21  2  0  0  0  0
 18 15  1  0  0  0  0
 19 16  1  0  0  0  0
 19 15  2  0  0  0  0
 20 17  1  0  0  0  0
 21 14  1  0  0  0  0
 21 20  1  0  0  0  0
 22 20  2  0  0  0  0
 23 14  1  0  0  0  0
 24 23  1  0  0  0  0
 25 26  1  0  0  0  0
 26 28  2  0  0  0  0
 26 31  1  0  0  0  0
 27 29  2  0  0  0  0
 28 27  1  0  0  0  0
 30 29  1  0  0  0  0
 31 30  2  0  0  0  0
M  END
>  <MODEL>
7

>  <REMARK>
 VINA RESULT:      -6.9      3.524      8.633
  Name = 
  5 active torsions:
  status: ('A' for Active; 'I' for Inactive)
    1  A    between atoms: C_5  and  C_30
    2  A    between atoms: C_7  and  N_9
    3  A    between atoms: N_9  and  C_15
    4  A    between atoms: N_9  and  C_22
    5  A    between atoms: C_17  and  C_30
                            x       y       z     vdW  Elec       q    Type
                         _______ _______ _______ _____ _____    ______ ____

>  <TORSDO>
F 5

$$$$
=
 OpenBabel10272400353D

 31 35  0  0  1  0  0  0  0  0999 V2000
  190.2240  177.3450  147.6230 C   0  0  0  0  0  2  0  0  0  0  0  0
  187.3010  177.0840  145.3840 O   0  0  0  0  0  0  0  0  0  0  0  0
  188.6850  177.1420  145.6260 C   0  0  1  0  0  3  0  0  0  0  0  0
  191.6070  177.3430  145.5630 C   0  0  0  0  0  2  0  0  0  0  0  0
  187.8420  177.0850  142.9190 C   0  0  1  0  0  3  0  0  0  0  0  0
  191.4420  176.7380  146.9460 C   0  0  0  0  0  2  0  0  0  0  0  0
  185.6070  178.0420  143.9250 C   0  0  1  0  0  3  0  0  0  0  0  0
  188.7720  175.9410  143.3450 C   0  0  0  0  0  2  0  0  0  0  0  0
  187.0740  177.6660  144.1260 C   0  0  1  0  0  0  0  0  0  0  0  0
  188.9250  176.7610  147.0810 C   0  0  0  0  0  2  0  0  0  0  0  0
  189.4530  176.1630  144.7060 C   0  0  1  0  0  3  0  0  0  0  0  0
  190.9330  176.5000  144.4820 C   0  0  0  0  0  2  0  0  0  0  0  0
  186.6590  179.1250  144.1470 C   0  0  0  0  0  2  0  0  0  0  0  0
  188.5340  178.1130  142.1340 N   0  0  0  0  0  0  0  0  0  0  0  0
  188.7010  177.6920  137.9100 C   0  0  0  0  0  0  0  0  0  0  0  0
  187.5390  178.3800  139.9140 C   0  0  0  0  0  3  0  0  0  0  0  0
  191.1880  176.9130  140.9650 Cl  0  0  0  0  0  0  0  0  0  0  0  0
  188.7580  177.5350  136.1690 Cl  0  0  0  0  0  0  0  0  0  0  0  0
  187.5810  178.2520  138.5240 C   0  0  0  0  0  3  0  0  0  0  0  0
  189.7500  177.3920  140.0760 C   0  0  0  0  0  0  0  0  0  0  0  0
  188.6120  177.9460  140.7070 C   0  0  0  0  0  0  0  0  0  0  0  0
  189.7840  177.2710  138.6830 C   0  0  0  0  0  3  0  0  0  0  0  0
  189.0660  179.3100  142.7840 C   0  0  0  0  0  2  0  0  0  0  0  0
  190.5570  179.1630  143.0220 C   0  0  0  0  0  1  0  0  0  0  0  0
  185.1710  178.0320  142.4620 C   0  0  0  0  0  2  0  0  0  0  0  0
  183.7390  178.4210  142.3300 C   0  0  0  0  0  0  0  0  0  0  0  0
  181.6630  179.1460  143.3480 C   0  0  0  0  0  3  0  0  0  0  0  0
  183.0100  178.7890  143.4660 C   0  0  0  0  0  3  0  0  0  0  0  0
  181.0450  179.1360  142.0950 C   0  0  0  0  0  3  0  0  0  0  0  0
  181.7710  178.7660  140.9580 C   0  0  0  0  0  3  0  0  0  0  0  0
  183.1180  178.4070  141.0770 C   0  0  0  0  0  3  0  0  0  0  0  0
  2  3  1  0  0  0  0
  3 10  1  1  0  0  0
  4  6  1  0  0  0  0
  5 14  1  1  0  0  0
  5  8  1  0  0  0  0
  5  9  1  0  0  0  0
  6  1  1  0  0  0  0
  7 25  1  6  0  0  0
  7  9  1  0  0  0  0
  7 13  1  0  0  0  0
  9 13  1  1  0  0  0
  9  2  1  0  0  0  0
 10  1  1  0  0  0  0
 11  8  1  6  0  0  0
 11  3  1  0  0  0  0
 12 11  1  0  0  0  0
 12  4  1  0  0  0  0
 14 23  1  0  0  0  0
 15 19  2  0  0  0  0
 15 22  1  0  0  0  0
 16 21  2  0  0  0  0
 18 15  1  0  0  0  0
 19 16  1  0  0  0  0
 20 21  1  0  0  0  0
 20 17  1  0  0  0  0
 21 14  1  0  0  0  0
 22 20  2  0  0  0  0
 23 24  1  0  0  0  0
 26 25  1  0  0  0  0
 26 28  1  0  0  0  0
 27 28  2  0  0  0  0
 29 27  1  0  0  0  0
 30 31  1  0  0  0  0
 30 29  2  0  0  0  0
 31 26  2  0  0  0  0
M  END
>  <MODEL>
8

>  <REMARK>
 VINA RESULT:      -6.9      2.256      6.842
  Name = 
  5 active torsions:
  status: ('A' for Active; 'I' for Inactive)
    1  A    between atoms: C_5  and  C_30
    2  A    between atoms: C_7  and  N_9
    3  A    between atoms: N_9  and  C_15
    4  A    between atoms: N_9  and  C_22
    5  A    between atoms: C_17  and  C_30
                            x       y       z     vdW  Elec       q    Type
                         _______ _______ _______ _____ _____    ______ ____

>  <TORSDO>
F 5

$$$$
=
 OpenBabel10272400353D

 31 35  0  0  1  0  0  0  0  0999 V2000
  189.6970  176.8180  137.4180 C   0  0  0  0  0  2  0  0  0  0  0  0
  187.6630  178.7880  139.7860 O   0  0  0  0  0  0  0  0  0  0  0  0
  188.7510  177.9560  139.4700 C   0  0  1  0  0  3  0  0  0  0  0  0
  191.0670  176.1630  139.3810 C   0  0  0  0  0  2  0  0  0  0  0  0
  188.3770  178.6230  142.2000 C   0  0  1  0  0  3  0  0  0  0  0  0
  191.1130  176.6800  137.9530 C   0  0  0  0  0  2  0  0  0  0  0  0
  185.8910  179.0200  141.4360 C   0  0  1  0  0  3  0  0  0  0  0  0
  189.7310  179.0290  141.6000 C   0  0  0  0  0  2  0  0  0  0  0  0
  187.2920  178.5030  141.1100 C   0  0  1  0  0  0  0  0  0  0  0  0
  189.0020  178.0560  137.9700 C   0  0  0  0  0  2  0  0  0  0  0  0
  190.0250  178.3900  140.2330 C   0  0  1  0  0  3  0  0  0  0  0  0
  191.0900  177.2980  140.4040 C   0  0  0  0  0  2  0  0  0  0  0  0
  186.1430  177.5250  141.2690 C   0  0  0  0  0  2  0  0  0  0  0  0
  188.4710  177.4300  143.0480 N   0  0  0  0  0  0  0  0  0  0  0  0
  188.0470  177.8530  147.2540 C   0  0  0  0  0  0  0  0  0  0  0  0
  187.1030  177.3930  145.0780 C   0  0  0  0  0  3  0  0  0  0  0  0
  191.0920  178.0810  144.6460 Cl  0  0  0  0  0  0  0  0  0  0  0  0
  187.8570  178.0130  148.9860 Cl  0  0  0  0  0  0  0  0  0  0  0  0
  186.9490  177.5250  146.4590 C   0  0  0  0  0  3  0  0  0  0  0  0
  189.4650  177.9120  145.2870 C   0  0  0  0  0  0  0  0  0  0  0  0
  188.3530  177.5930  144.4730 C   0  0  0  0  0  0  0  0  0  0  0  0
  189.3010  178.0380  146.6700 C   0  0  0  0  0  3  0  0  0  0  0  0
  188.6070  176.1030  142.4490 C   0  0  0  0  0  2  0  0  0  0  0  0
  189.8540  175.4130  142.9710 C   0  0  0  0  0  1  0  0  0  0  0  0
  185.6950  179.3530  142.9130 C   0  0  0  0  0  2  0  0  0  0  0  0
  184.2820  179.1240  143.3270 C   0  0  0  0  0  0  0  0  0  0  0  0
  181.9540  178.7960  142.7400 C   0  0  0  0  0  3  0  0  0  0  0  0
  183.2830  179.0020  142.3560 C   0  0  0  0  0  3  0  0  0  0  0  0
  181.6240  178.7110  144.0960 C   0  0  0  0  0  3  0  0  0  0  0  0
  182.6210  178.8360  145.0690 C   0  0  0  0  0  3  0  0  0  0  0  0
  183.9500  179.0430  144.6840 C   0  0  0  0  0  3  0  0  0  0  0  0
  1  6  1  0  0  0  0
  1 10  1  0  0  0  0
  2  9  1  0  0  0  0
  3 10  1  6  0  0  0
  3  2  1  0  0  0  0
  3 11  1  0  0  0  0
  4 12  1  0  0  0  0
  5 14  1  6  0  0  0
  6  4  1  0  0  0  0
  7 25  1  1  0  0  0
  8  5  1  0  0  0  0
  9 13  1  6  0  0  0
  9  7  1  0  0  0  0
  9  5  1  0  0  0  0
 11 12  1  1  0  0  0
 11  8  1  0  0  0  0
 13  7  1  0  0  0  0
 14 21  1  0  0  0  0
 15 18  1  0  0  0  0
 16 19  1  0  0  0  0
 17 20  1  0  0  0  0
 19 15  2  0  0  0  0
 20 22  2  0  0  0  0
 21 16  2  0  0  0  0
 21 20  1  0  0  0  0
 22 15  1  0  0  0  0
 23 24  1  0  0  0  0
 23 14  1  0  0  0  0
 25 26  1  0  0  0  0
 26 31  1  0  0  0  0
 27 29  2  0  0  0  0
 28 27  1  0  0  0  0
 28 26  2  0  0  0  0
 29 30  1  0  0  0  0
 31 30  2  0  0  0  0
M  END
>  <MODEL>
9

>  <REMARK>
 VINA RESULT:      -6.7      1.904      6.419
  Name = 
  5 active torsions:
  status: ('A' for Active; 'I' for Inactive)
    1  A    between atoms: C_5  and  C_30
    2  A    between atoms: C_7  and  N_9
    3  A    between atoms: N_9  and  C_15
    4  A    between atoms: N_9  and  C_22
    5  A    between atoms: C_17  and  C_30
                            x       y       z     vdW  Elec       q    Type
                         _______ _______ _______ _____ _____    ______ ____

>  <TORSDO>
F 5

$$$$
