=
 OpenBabel10272401003D

 27 31  0  0  1  0  0  0  0  0999 V2000
  188.7830  177.7070  137.0700 C   0  0  2  0  0  0  0  0  0  0  0  0
  187.6180  177.8940  139.2850 C   0  0  0  0  0  0  0  0  0  0  0  0
  189.9720  177.3810  139.1760 O   0  0  0  0  0  0  0  0  0  0  0  0
  187.8930  177.8790  143.6040 C   0  0  0  0  0  2  0  0  0  0  0  0
  188.9980  177.1210  145.6920 C   0  0  0  0  0  1  0  0  0  0  0  0
  186.6980  178.5360  140.0240 C   0  0  0  0  0  3  0  0  0  0  0  0
  189.8920  176.4150  142.0310 C   0  0  0  0  0  2  0  0  0  0  0  0
  191.7620  175.3520  137.7210 C   0  0  0  0  0  1  0  0  0  0  0  0
  190.1090  176.7250  143.5080 C   0  0  0  0  0  2  0  0  0  0  0  0
  190.9140  176.4600  135.6570 C   0  0  0  0  0  2  0  0  0  0  0  0
  188.7900  177.1460  139.9090 C   0  0  1  0  0  3  0  0  0  0  0  0
  187.4150  177.7390  137.7980 C   0  0  2  0  0  3  0  0  0  0  0  0
  188.7680  176.7980  144.2310 C   0  0  2  0  0  3  0  0  0  0  0  0
  187.6680  177.5870  142.1230 C   0  0  2  0  0  3  0  0  0  0  0  0
  189.3040  179.1370  136.9890 C   0  0  0  0  0  1  0  0  0  0  0  0
  189.0130  177.4870  141.3860 C   0  0  1  0  0  3  0  0  0  0  0  0
  191.1020  176.6020  137.1730 C   0  0  1  0  0  3  0  0  0  0  0  0
  186.8480  178.7140  141.5090 C   0  0  0  0  0  2  0  0  0  0  0  0
  189.5440  176.0660  135.3320 N   0  0  0  0  0  2  0  0  0  0  0  0
  188.6530  177.1950  135.6170 C   0  0  0  0  0  2  0  0  0  0  0  0
  189.7690  176.8350  137.8930 C   0  0  2  0  0  3  0  0  0  0  0  0
  184.8380  174.3900  136.9530 C   0  0  0  0  0  3  0  0  0  0  0  0
  186.5290  176.5540  137.5050 C   0  0  0  0  0  0  0  0  0  0  0  0
  187.0360  175.2450  137.4940 C   0  0  0  0  0  3  0  0  0  0  0  0
  186.1910  174.1660  137.2180 C   0  0  0  0  0  3  0  0  0  0  0  0
  184.3280  175.6920  136.9660 C   0  0  0  0  0  3  0  0  0  0  0  0
  185.1730  176.7710  137.2420 C   0  0  0  0  0  3  0  0  0  0  0  0
  1 15  1  6  0  0  0
  1 12  1  0  0  0  0
  1 21  1  0  0  0  0
  2 11  1  0  0  0  0
  2  6  2  0  0  0  0
  4 13  1  0  0  0  0
  6 18  1  0  0  0  0
  7  9  1  0  0  0  0
  9 13  1  0  0  0  0
 10 17  1  0  0  0  0
 11  3  1  6  0  0  0
 11 16  1  0  0  0  0
 12 23  1  1  0  0  0
 12  2  1  0  0  0  0
 13  5  1  1  0  0  0
 14 18  1  6  0  0  0
 14  4  1  0  0  0  0
 16  7  1  1  0  0  0
 16 14  1  0  0  0  0
 17  8  1  1  0  0  0
 17 21  1  0  0  0  0
 19 20  1  0  0  0  0
 19 10  1  0  0  0  0
 20  1  1  0  0  0  0
 21  3  1  1  0  0  0
 22 26  2  0  0  0  0
 22 25  1  0  0  0  0
 24 23  1  0  0  0  0
 25 24  2  0  0  0  0
 26 27  1  0  0  0  0
 27 23  2  0  0  0  0
M  END
>  <MODEL>
1

>  <REMARK>
 VINA RESULT:      -6.9      0.000      0.000
  Name = 
  1 active torsions:
  status: ('A' for Active; 'I' for Inactive)
    1  A    between atoms: C_9  and  C_15
                            x       y       z     vdW  Elec       q    Type
                         _______ _______ _______ _____ _____    ______ ____

>  <TORSDO>
F 1

$$$$
=
 OpenBabel10272401003D

 27 31  0  0  1  0  0  0  0  0999 V2000
  188.2640  178.0880  137.4240 C   0  0  2  0  0  0  0  0  0  0  0  0
  186.0190  178.3770  138.5090 C   0  0  0  0  0  0  0  0  0  0  0  0
  188.0340  178.3980  139.8330 O   0  0  0  0  0  0  0  0  0  0  0  0
  183.7390  179.1500  142.1050 C   0  0  0  0  0  2  0  0  0  0  0  0
  183.4910  179.0230  144.5710 C   0  0  0  0  0  1  0  0  0  0  0  0
  184.7880  178.9090  138.4290 C   0  0  0  0  0  3  0  0  0  0  0  0
  186.4000  177.9330  142.3240 C   0  0  0  0  0  2  0  0  0  0  0  0
  190.5090  176.6120  140.1840 C   0  0  0  0  0  1  0  0  0  0  0  0
  185.6920  178.5270  143.5360 C   0  0  0  0  0  2  0  0  0  0  0  0
  190.9200  177.1360  137.7830 C   0  0  0  0  0  2  0  0  0  0  0  0
  186.6730  178.0290  139.8410 C   0  0  1  0  0  3  0  0  0  0  0  0
  186.7300  177.9320  137.2550 C   0  0  2  0  0  3  0  0  0  0  0  0
  184.1810  178.4160  143.3680 C   0  0  2  0  0  3  0  0  0  0  0  0
  184.4420  178.5700  140.8810 C   0  0  2  0  0  3  0  0  0  0  0  0
  188.6050  179.5650  137.2590 C   0  0  0  0  0  1  0  0  0  0  0  0
  185.9670  178.6540  141.0480 C   0  0  1  0  0  3  0  0  0  0  0  0
  190.1800  177.5700  139.0560 C   0  0  1  0  0  3  0  0  0  0  0  0
  184.0320  179.3620  139.6470 C   0  0  0  0  0  2  0  0  0  0  0  0
  190.0330  176.3940  136.8880 N   0  0  0  0  0  2  0  0  0  0  0  0
  189.0450  177.3240  136.3320 C   0  0  0  0  0  2  0  0  0  0  0  0
  188.6630  177.6120  138.8460 C   0  0  2  0  0  3  0  0  0  0  0  0
  185.4370  173.9940  136.0770 C   0  0  0  0  0  3  0  0  0  0  0  0
  186.2890  176.5460  136.8590 C   0  0  0  0  0  0  0  0  0  0  0  0
  186.7230  175.4090  137.5590 C   0  0  0  0  0  3  0  0  0  0  0  0
  186.2970  174.1360  137.1680 C   0  0  0  0  0  3  0  0  0  0  0  0
  185.0000  175.1230  135.3770 C   0  0  0  0  0  3  0  0  0  0  0  0
  185.4260  176.3960  135.7680 C   0  0  0  0  0  3  0  0  0  0  0  0
  1 15  1  6  0  0  0
  1 21  1  0  0  0  0
  3 11  1  0  0  0  0
  4 13  1  0  0  0  0
  6  2  2  0  0  0  0
  6 18  1  0  0  0  0
  7  9  1  0  0  0  0
 10 17  1  0  0  0  0
 11  2  1  6  0  0  0
 11 16  1  0  0  0  0
 12 23  1  1  0  0  0
 12  1  1  0  0  0  0
 12  2  1  0  0  0  0
 13  9  1  0  0  0  0
 13  5  1  1  0  0  0
 14 18  1  6  0  0  0
 14 16  1  0  0  0  0
 14  4  1  0  0  0  0
 16  7  1  1  0  0  0
 17  8  1  1  0  0  0
 19 10  1  0  0  0  0
 20 19  1  0  0  0  0
 20  1  1  0  0  0  0
 21 17  1  0  0  0  0
 21  3  1  1  0  0  0
 22 25  1  0  0  0  0
 23 24  1  0  0  0  0
 25 24  2  0  0  0  0
 26 27  1  0  0  0  0
 26 22  2  0  0  0  0
 27 23  2  0  0  0  0
M  END
>  <MODEL>
2

>  <REMARK>
 VINA RESULT:      -6.8      1.903      2.783
  Name = 
  1 active torsions:
  status: ('A' for Active; 'I' for Inactive)
    1  A    between atoms: C_9  and  C_15
                            x       y       z     vdW  Elec       q    Type
                         _______ _______ _______ _____ _____    ______ ____

>  <TORSDO>
F 1

$$$$
=
 OpenBabel10272401003D

 27 31  0  0  1  0  0  0  0  0999 V2000
  183.5510  178.8350  138.9640 C   0  0  2  0  0  0  0  0  0  0  0  0
  183.1550  178.7110  141.4400 C   0  0  0  0  0  0  0  0  0  0  0  0
  185.3980  178.7730  140.5570 O   0  0  0  0  0  0  0  0  0  0  0  0
  184.8090  178.7050  145.4380 C   0  0  0  0  0  2  0  0  0  0  0  0
  186.6690  178.2040  147.0020 C   0  0  0  0  0  1  0  0  0  0  0  0
  182.4050  179.1050  142.4820 C   0  0  0  0  0  3  0  0  0  0  0  0
  186.4620  177.7790  143.1970 C   0  0  0  0  0  2  0  0  0  0  0  0
  187.0220  177.2480  138.4420 C   0  0  0  0  0  1  0  0  0  0  0  0
  187.0720  178.1130  144.5540 C   0  0  0  0  0  2  0  0  0  0  0  0
  185.3290  178.1490  136.8520 C   0  0  0  0  0  2  0  0  0  0  0  0
  184.6000  178.2550  141.5980 C   0  0  1  0  0  3  0  0  0  0  0  0
  182.5210  178.5300  140.0820 C   0  0  2  0  0  3  0  0  0  0  0  0
  186.0560  177.8560  145.6620 C   0  0  2  0  0  3  0  0  0  0  0  0
  184.1870  178.3870  144.0810 C   0  0  2  0  0  3  0  0  0  0  0  0
  183.6870  180.3490  138.8520 C   0  0  0  0  0  1  0  0  0  0  0  0
  185.2080  178.6200  142.9560 C   0  0  1  0  0  3  0  0  0  0  0  0
  185.9610  178.3120  138.2410 C   0  0  1  0  0  3  0  0  0  0  0  0
  182.9850  179.2940  143.8570 C   0  0  0  0  0  2  0  0  0  0  0  0
  184.0500  177.4450  136.9370 N   0  0  0  0  0  2  0  0  0  0  0  0
  183.0730  178.3250  137.5850 C   0  0  0  0  0  2  0  0  0  0  0  0
  184.9170  178.2110  139.3580 C   0  0  2  0  0  3  0  0  0  0  0  0
  180.7200  174.6290  139.7550 C   0  0  0  0  0  3  0  0  0  0  0  0
  181.8730  177.1730  139.9760 C   0  0  0  0  0  0  0  0  0  0  0  0
  180.5570  176.9520  140.4120 C   0  0  0  0  0  3  0  0  0  0  0  0
  179.9830  175.6820  140.3010 C   0  0  0  0  0  3  0  0  0  0  0  0
  182.0310  174.8440  139.3180 C   0  0  0  0  0  3  0  0  0  0  0  0
  182.6050  176.1140  139.4280 C   0  0  0  0  0  3  0  0  0  0  0  0
  1 15  1  6  0  0  0
  1 21  1  0  0  0  0
  1 12  1  0  0  0  0
  2 11  1  0  0  0  0
  2  6  2  0  0  0  0
  4 13  1  0  0  0  0
  6 18  1  0  0  0  0
  7  9  1  0  0  0  0
  9 13  1  0  0  0  0
 10 19  1  0  0  0  0
 10 17  1  0  0  0  0
 11  3  1  6  0  0  0
 11 16  1  0  0  0  0
 12 23  1  6  0  0  0
 12  2  1  0  0  0  0
 13  5  1  1  0  0  0
 14 18  1  6  0  0  0
 14  4  1  0  0  0  0
 16  7  1  1  0  0  0
 16 14  1  0  0  0  0
 17  8  1  1  0  0  0
 17 21  1  0  0  0  0
 19 20  1  0  0  0  0
 20  1  1  0  0  0  0
 21  3  1  1  0  0  0
 22 25  1  0  0  0  0
 23 24  1  0  0  0  0
 25 24  2  0  0  0  0
 26 27  1  0  0  0  0
 26 22  2  0  0  0  0
 27 23  2  0  0  0  0
M  END
>  <MODEL>
3

>  <REMARK>
 VINA RESULT:      -6.4      3.583      5.024
  Name = 
  1 active torsions:
  status: ('A' for Active; 'I' for Inactive)
    1  A    between atoms: C_9  and  C_15
                            x       y       z     vdW  Elec       q    Type
                         _______ _______ _______ _____ _____    ______ ____

>  <TORSDO>
F 1

$$$$
=
 OpenBabel10272401003D

 27 31  0  0  1  0  0  0  0  0999 V2000
  189.5510  176.2980  135.6150 C   0  0  2  0  0  0  0  0  0  0  0  0
  188.5130  176.9290  137.8120 C   0  0  0  0  0  0  0  0  0  0  0  0
  190.9100  176.8920  137.5530 O   0  0  0  0  0  0  0  0  0  0  0  0
  189.0500  178.3190  141.8740 C   0  0  0  0  0  2  0  0  0  0  0  0
  190.4270  178.4890  143.9310 C   0  0  0  0  0  1  0  0  0  0  0  0
  187.5170  177.5700  138.4450 C   0  0  0  0  0  3  0  0  0  0  0  0
  191.2320  176.8710  140.5500 C   0  0  0  0  0  2  0  0  0  0  0  0
  193.0280  174.9160  136.5310 C   0  0  0  0  0  1  0  0  0  0  0  0
  191.4630  177.6640  141.8320 C   0  0  0  0  0  2  0  0  0  0  0  0
  191.8210  175.1280  134.3620 C   0  0  0  0  0  2  0  0  0  0  0  0
  189.8630  176.6660  138.4690 C   0  0  1  0  0  3  0  0  0  0  0  0
  188.2600  176.2790  136.4740 C   0  0  2  0  0  3  0  0  0  0  0  0
  190.1890  177.6880  142.6700 C   0  0  2  0  0  3  0  0  0  0  0  0
  188.8080  177.5400  140.5850 C   0  0  2  0  0  3  0  0  0  0  0  0
  189.7210  177.7060  135.0550 C   0  0  0  0  0  1  0  0  0  0  0  0
  190.0920  177.4880  139.7410 C   0  0  1  0  0  3  0  0  0  0  0  0
  192.0640  175.7720  135.7330 C   0  0  1  0  0  3  0  0  0  0  0  0
  187.7130  178.2290  139.7820 C   0  0  0  0  0  2  0  0  0  0  0  0
  190.5620  174.3860  134.3460 N   0  0  0  0  0  2  0  0  0  0  0  0
  189.4530  175.3430  134.4040 C   0  0  0  0  0  2  0  0  0  0  0  0
  190.7610  175.9440  136.5210 C   0  0  2  0  0  3  0  0  0  0  0  0
  186.4810  172.3870  136.9800 C   0  0  0  0  0  3  0  0  0  0  0  0
  187.6570  174.9100  136.6550 C   0  0  0  0  0  0  0  0  0  0  0  0
  188.4490  173.7950  136.9700 C   0  0  0  0  0  3  0  0  0  0  0  0
  187.8610  172.5370  137.1320 C   0  0  0  0  0  3  0  0  0  0  0  0
  185.6870  173.4950  136.6680 C   0  0  0  0  0  3  0  0  0  0  0  0
  186.2750  174.7530  136.5070 C   0  0  0  0  0  3  0  0  0  0  0  0
  1 15  1  6  0  0  0
  1 12  1  0  0  0  0
  1 21  1  0  0  0  0
  2  6  2  0  0  0  0
  2 11  1  0  0  0  0
  4 13  1  0  0  0  0
  6 18  1  0  0  0  0
  7  9  1  0  0  0  0
  9 13  1  0  0  0  0
 10 17  1  0  0  0  0
 11  3  1  6  0  0  0
 11 16  1  0  0  0  0
 12 23  1  1  0  0  0
 12  2  1  0  0  0  0
 13  5  1  1  0  0  0
 14 18  1  6  0  0  0
 14  4  1  0  0  0  0
 16  7  1  1  0  0  0
 16 14  1  0  0  0  0
 17 21  1  0  0  0  0
 17  8  1  1  0  0  0
 19 10  1  0  0  0  0
 19 20  1  0  0  0  0
 20  1  1  0  0  0  0
 21  3  1  1  0  0  0
 22 25  1  0  0  0  0
 23 24  1  0  0  0  0
 24 25  2  0  0  0  0
 26 22  2  0  0  0  0
 27 23  2  0  0  0  0
 27 26  1  0  0  0  0
M  END
>  <MODEL>
4

>  <REMARK>
 VINA RESULT:      -6.2      1.612      2.173
  Name = 
  1 active torsions:
  status: ('A' for Active; 'I' for Inactive)
    1  A    between atoms: C_9  and  C_15
                            x       y       z     vdW  Elec       q    Type
                         _______ _______ _______ _____ _____    ______ ____

>  <TORSDO>
F 1

$$$$
=
 OpenBabel10272401003D

 27 31  0  0  1  0  0  0  0  0999 V2000
  187.2480  177.4830  136.5490 C   0  0  2  0  0  0  0  0  0  0  0  0
  184.7610  177.2660  136.8170 C   0  0  0  0  0  0  0  0  0  0  0  0
  186.0870  178.3640  138.5050 O   0  0  0  0  0  0  0  0  0  0  0  0
  181.2110  178.1830  139.1140 C   0  0  0  0  0  2  0  0  0  0  0  0
  180.1150  178.6850  141.2830 C   0  0  0  0  0  1  0  0  0  0  0  0
  183.5570  177.2880  136.2220 C   0  0  0  0  0  3  0  0  0  0  0  0
  183.8140  178.0880  140.4670 C   0  0  0  0  0  2  0  0  0  0  0  0
  188.6070  177.7340  140.1450 C   0  0  0  0  0  1  0  0  0  0  0  0
  182.5930  178.7170  141.1290 C   0  0  0  0  0  2  0  0  0  0  0  0
  189.7320  177.6620  137.9230 C   0  0  0  0  0  2  0  0  0  0  0  0
  184.9450  177.5620  138.3000 C   0  0  1  0  0  3  0  0  0  0  0  0
  185.9660  176.7600  136.0620 C   0  0  2  0  0  3  0  0  0  0  0  0
  181.3200  178.0420  140.6290 C   0  0  2  0  0  3  0  0  0  0  0  0
  182.4280  177.5630  138.4350 C   0  0  2  0  0  3  0  0  0  0  0  0
  187.2680  178.8740  135.9240 C   0  0  0  0  0  1  0  0  0  0  0  0
  183.7210  178.2180  138.9460 C   0  0  1  0  0  3  0  0  0  0  0  0
  188.4980  178.1530  138.6920 C   0  0  1  0  0  3  0  0  0  0  0  0
  182.3240  177.7760  136.9300 C   0  0  0  0  0  2  0  0  0  0  0  0
  189.4360  176.4360  137.1840 N   0  0  0  0  0  2  0  0  0  0  0  0
  188.5310  176.7630  136.0780 C   0  0  0  0  0  2  0  0  0  0  0  0
  187.1990  177.6020  138.0960 C   0  0  2  0  0  3  0  0  0  0  0  0
  186.1850  172.4580  136.1910 C   0  0  0  0  0  3  0  0  0  0  0  0
  186.0390  175.2560  136.1270 C   0  0  0  0  0  0  0  0  0  0  0  0
  185.9210  174.5680  137.3460 C   0  0  0  0  0  3  0  0  0  0  0  0
  185.9940  173.1730  137.3760 C   0  0  0  0  0  3  0  0  0  0  0  0
  186.3020  173.1380  134.9750 C   0  0  0  0  0  3  0  0  0  0  0  0
  186.2290  174.5340  134.9450 C   0  0  0  0  0  3  0  0  0  0  0  0
  1 15  1  6  0  0  0
  1 21  1  0  0  0  0
  4 13  1  0  0  0  0
  6  2  2  0  0  0  0
  6 18  1  0  0  0  0
  7  9  1  0  0  0  0
 10 17  1  0  0  0  0
 11  2  1  6  0  0  0
 11  3  1  0  0  0  0
 11 16  1  0  0  0  0
 12 23  1  1  0  0  0
 12  1  1  0  0  0  0
 12  2  1  0  0  0  0
 13  9  1  0  0  0  0
 13  5  1  1  0  0  0
 14 18  1  6  0  0  0
 14 16  1  0  0  0  0
 14  4  1  0  0  0  0
 16  7  1  1  0  0  0
 17  8  1  1  0  0  0
 19 10  1  0  0  0  0
 20  1  1  0  0  0  0
 20 19  1  0  0  0  0
 21  3  1  6  0  0  0
 21 17  1  0  0  0  0
 22 25  1  0  0  0  0
 23 24  1  0  0  0  0
 24 25  2  0  0  0  0
 26 22  2  0  0  0  0
 27 26  1  0  0  0  0
 27 23  2  0  0  0  0
M  END
>  <MODEL>
5

>  <REMARK>
 VINA RESULT:      -5.9      2.733      4.873
  Name = 
  1 active torsions:
  status: ('A' for Active; 'I' for Inactive)
    1  A    between atoms: C_9  and  C_15
                            x       y       z     vdW  Elec       q    Type
                         _______ _______ _______ _____ _____    ______ ____

>  <TORSDO>
F 1

$$$$
=
 OpenBabel10272401003D

 27 31  0  0  1  0  0  0  0  0999 V2000
  188.5660  177.3200  137.3210 C   0  0  2  0  0  0  0  0  0  0  0  0
  186.2410  177.0250  136.4220 C   0  0  0  0  0  0  0  0  0  0  0  0
  186.6310  178.3300  138.4120 O   0  0  0  0  0  0  0  0  0  0  0  0
  182.0350  178.0020  136.6960 C   0  0  0  0  0  2  0  0  0  0  0  0
  180.0560  178.6560  138.0430 C   0  0  0  0  0  1  0  0  0  0  0  0
  185.4550  176.9420  135.3360 C   0  0  0  0  0  3  0  0  0  0  0  0
  183.7030  178.1410  139.1060 C   0  0  0  0  0  2  0  0  0  0  0  0
  188.0890  177.9590  141.0900 C   0  0  0  0  0  1  0  0  0  0  0  0
  182.3180  178.7770  139.0570 C   0  0  0  0  0  2  0  0  0  0  0  0
  190.1210  177.7300  139.6670 C   0  0  0  0  0  2  0  0  0  0  0  0
  185.7120  177.4650  137.7820 C   0  0  1  0  0  3  0  0  0  0  0  0
  187.6560  176.5020  136.3690 C   0  0  2  0  0  3  0  0  0  0  0  0
  181.4220  178.0060  138.0940 C   0  0  2  0  0  3  0  0  0  0  0  0
  183.4240  177.3720  136.7280 C   0  0  2  0  0  3  0  0  0  0  0  0
  188.8840  178.6470  136.6400 C   0  0  0  0  0  1  0  0  0  0  0  0
  184.3320  178.1260  137.7130 C   0  0  1  0  0  3  0  0  0  0  0  0
  188.6750  178.2380  139.7190 C   0  0  1  0  0  3  0  0  0  0  0  0
  184.0370  177.4410  135.3360 C   0  0  0  0  0  2  0  0  0  0  0  0
  190.1970  176.4290  139.0050 N   0  0  0  0  0  2  0  0  0  0  0  0
  189.9160  176.6140  137.5770 C   0  0  0  0  0  2  0  0  0  0  0  0
  187.8010  177.5800  138.6470 C   0  0  2  0  0  3  0  0  0  0  0  0
  187.7810  172.2480  137.0470 C   0  0  0  0  0  3  0  0  0  0  0  0
  187.6800  175.0150  136.6140 C   0  0  0  0  0  0  0  0  0  0  0  0
  186.5960  174.3520  137.2110 C   0  0  0  0  0  3  0  0  0  0  0  0
  186.6490  172.9710  137.4270 C   0  0  0  0  0  3  0  0  0  0  0  0
  188.8630  172.9040  136.4500 C   0  0  0  0  0  3  0  0  0  0  0  0
  188.8110  174.2840  136.2350 C   0  0  0  0  0  3  0  0  0  0  0  0
  1 15  1  6  0  0  0
  1 20  1  0  0  0  0
  1 21  1  0  0  0  0
  4 14  1  0  0  0  0
  4 13  1  0  0  0  0
  6  2  2  0  0  0  0
  9  7  1  0  0  0  0
 10 17  1  0  0  0  0
 11  2  1  6  0  0  0
 11  3  1  0  0  0  0
 12  2  1  0  0  0  0
 12 23  1  1  0  0  0
 12  1  1  0  0  0  0
 13  5  1  6  0  0  0
 13  9  1  0  0  0  0
 14 18  1  6  0  0  0
 14 16  1  0  0  0  0
 16 11  1  0  0  0  0
 16  7  1  1  0  0  0
 17  8  1  1  0  0  0
 18  6  1  0  0  0  0
 19 10  1  0  0  0  0
 20 19  1  0  0  0  0
 21  3  1  6  0  0  0
 21 17  1  0  0  0  0
 22 25  1  0  0  0  0
 23 24  1  0  0  0  0
 24 25  2  0  0  0  0
 26 22  2  0  0  0  0
 27 26  1  0  0  0  0
 27 23  2  0  0  0  0
M  END
>  <MODEL>
6

>  <REMARK>
 VINA RESULT:      -5.9      2.390      5.472
  Name = 
  1 active torsions:
  status: ('A' for Active; 'I' for Inactive)
    1  A    between atoms: C_9  and  C_15
                            x       y       z     vdW  Elec       q    Type
                         _______ _______ _______ _____ _____    ______ ____

>  <TORSDO>
F 1

$$$$
=
 OpenBabel10272401003D

 27 31  0  0  1  0  0  0  0  0999 V2000
  181.4550  178.0930  139.7650 C   0  0  2  0  0  0  0  0  0  0  0  0
  182.7880  177.9130  137.6450 C   0  0  0  0  0  0  0  0  0  0  0  0
  183.8500  177.6240  139.7910 O   0  0  0  0  0  0  0  0  0  0  0  0
  186.5790  177.0660  135.7400 C   0  0  0  0  0  2  0  0  0  0  0  0
  189.0600  177.0280  135.7950 C   0  0  0  0  0  1  0  0  0  0  0  0
  182.8250  177.4940  136.3700 C   0  0  0  0  0  3  0  0  0  0  0  0
  186.5470  178.0360  138.5100 C   0  0  0  0  0  2  0  0  0  0  0  0
  184.0080  179.1650  142.4440 C   0  0  0  0  0  1  0  0  0  0  0  0
  187.7970  177.4140  137.8960 C   0  0  0  0  0  2  0  0  0  0  0  0
  181.5460  178.7900  142.5210 C   0  0  0  0  0  2  0  0  0  0  0  0
  184.0490  178.1040  138.4800 C   0  0  1  0  0  3  0  0  0  0  0  0
  181.4870  178.3900  138.2440 C   0  0  2  0  0  3  0  0  0  0  0  0
  187.8230  177.6630  136.3930 C   0  0  2  0  0  3  0  0  0  0  0  0
  185.3180  177.6750  136.3450 C   0  0  2  0  0  3  0  0  0  0  0  0
  181.1550  176.6100  139.9470 C   0  0  0  0  0  1  0  0  0  0  0  0
  185.2900  177.4510  137.8660 C   0  0  1  0  0  3  0  0  0  0  0  0
  182.8690  178.3250  141.8990 C   0  0  1  0  0  3  0  0  0  0  0  0
  184.0950  177.0150  135.7230 C   0  0  0  0  0  2  0  0  0  0  0  0
  180.8160  179.6680  141.6090 N   0  0  0  0  0  2  0  0  0  0  0  0
  180.3270  178.8690  140.4810 C   0  0  0  0  0  2  0  0  0  0  0  0
  182.8460  178.4260  140.3700 C   0  0  2  0  0  3  0  0  0  0  0  0
  180.7310  182.5000  137.1920 C   0  0  0  0  0  3  0  0  0  0  0  0
  181.2380  179.8340  137.8880 C   0  0  0  0  0  0  0  0  0  0  0  0
  181.9880  180.8710  138.4650 C   0  0  0  0  0  3  0  0  0  0  0  0
  181.7340  182.2010  138.1170 C   0  0  0  0  0  3  0  0  0  0  0  0
  179.9830  181.4700  136.6130 C   0  0  0  0  0  3  0  0  0  0  0  0
  180.2370  180.1400  136.9610 C   0  0  0  0  0  3  0  0  0  0  0  0
  1 15  1  1  0  0  0
  1 21  1  0  0  0  0
  1 20  1  0  0  0  0
  2 12  1  0  0  0  0
  4 14  1  0  0  0  0
  4 13  1  0  0  0  0
  6  2  2  0  0  0  0
  9  7  1  0  0  0  0
 11  2  1  6  0  0  0
 11  3  1  0  0  0  0
 12 23  1  1  0  0  0
 12  1  1  0  0  0  0
 13  5  1  6  0  0  0
 13  9  1  0  0  0  0
 14 18  1  6  0  0  0
 14 16  1  0  0  0  0
 16 11  1  0  0  0  0
 16  7  1  1  0  0  0
 17  8  1  1  0  0  0
 17 10  1  0  0  0  0
 18  6  1  0  0  0  0
 19 10  1  0  0  0  0
 20 19  1  0  0  0  0
 21  3  1  6  0  0  0
 21 17  1  0  0  0  0
 22 25  1  0  0  0  0
 23 24  1  0  0  0  0
 25 24  2  0  0  0  0
 26 27  1  0  0  0  0
 26 22  2  0  0  0  0
 27 23  2  0  0  0  0
M  END
>  <MODEL>
7

>  <REMARK>
 VINA RESULT:      -5.8      4.699      7.840
  Name = 
  1 active torsions:
  status: ('A' for Active; 'I' for Inactive)
    1  A    between atoms: C_9  and  C_15
                            x       y       z     vdW  Elec       q    Type
                         _______ _______ _______ _____ _____    ______ ____

>  <TORSDO>
F 1

$$$$
=
 OpenBabel10272401003D

 27 31  0  0  1  0  0  0  0  0999 V2000
  184.3670  176.7740  135.5730 C   0  0  2  0  0  0  0  0  0  0  0  0
  183.1210  176.8370  137.7520 C   0  0  0  0  0  0  0  0  0  0  0  0
  185.1520  178.1040  137.4620 O   0  0  0  0  0  0  0  0  0  0  0  0
  182.7530  178.4810  141.7380 C   0  0  0  0  0  2  0  0  0  0  0  0
  183.7830  179.4720  143.7650 C   0  0  0  0  0  1  0  0  0  0  0  0
  181.9280  176.8570  138.3680 C   0  0  0  0  0  3  0  0  0  0  0  0
  185.3900  178.4030  140.4530 C   0  0  0  0  0  2  0  0  0  0  0  0
  188.0210  177.5630  136.5060 C   0  0  0  0  0  1  0  0  0  0  0  0
  185.1310  179.2510  141.6930 C   0  0  0  0  0  2  0  0  0  0  0  0
  186.9250  176.9790  134.3460 C   0  0  0  0  0  2  0  0  0  0  0  0
  184.3860  177.3850  138.4030 C   0  0  1  0  0  3  0  0  0  0  0  0
  183.2840  176.0930  136.4490 C   0  0  2  0  0  3  0  0  0  0  0  0
  184.0400  178.6130  142.5460 C   0  0  2  0  0  3  0  0  0  0  0  0
  182.9950  177.6380  140.4890 C   0  0  2  0  0  3  0  0  0  0  0  0
  183.7470  178.0180  134.9450 C   0  0  0  0  0  1  0  0  0  0  0  0
  184.1100  178.2570  139.6310 C   0  0  1  0  0  3  0  0  0  0  0  0
  186.7560  177.7140  135.6820 C   0  0  1  0  0  3  0  0  0  0  0  0
  181.7120  177.5770  139.6700 C   0  0  0  0  0  2  0  0  0  0  0  0
  186.2770  175.6690  134.3820 N   0  0  0  0  0  2  0  0  0  0  0  0
  184.8240  175.8660  134.4100 C   0  0  0  0  0  2  0  0  0  0  0  0
  185.5600  177.1820  136.4780 C   0  0  2  0  0  3  0  0  0  0  0  0
  183.9230  171.8880  137.1430 C   0  0  0  0  0  3  0  0  0  0  0  0
  183.5250  174.6260  136.7030 C   0  0  0  0  0  0  0  0  0  0  0  0
  184.6410  174.1810  137.4280 C   0  0  0  0  0  3  0  0  0  0  0  0
  184.8390  172.8140  137.6470 C   0  0  0  0  0  3  0  0  0  0  0  0
  182.8090  172.3270  136.4210 C   0  0  0  0  0  3  0  0  0  0  0  0
  182.6110  173.6930  136.2030 C   0  0  0  0  0  3  0  0  0  0  0  0
  1 15  1  6  0  0  0
  1 12  1  0  0  0  0
  1 21  1  0  0  0  0
  2  6  2  0  0  0  0
  2 11  1  0  0  0  0
  4 13  1  0  0  0  0
  6 18  1  0  0  0  0
  7  9  1  0  0  0  0
  9 13  1  0  0  0  0
 10 19  1  0  0  0  0
 10 17  1  0  0  0  0
 11  3  1  6  0  0  0
 11 16  1  0  0  0  0
 12 23  1  1  0  0  0
 12  2  1  0  0  0  0
 13  5  1  1  0  0  0
 14 18  1  6  0  0  0
 14  4  1  0  0  0  0
 16  7  1  1  0  0  0
 16 14  1  0  0  0  0
 17 21  1  0  0  0  0
 17  8  1  1  0  0  0
 19 20  1  0  0  0  0
 20  1  1  0  0  0  0
 21  3  1  1  0  0  0
 22 25  1  0  0  0  0
 23 24  1  0  0  0  0
 24 25  2  0  0  0  0
 26 22  2  0  0  0  0
 27 26  1  0  0  0  0
 27 23  2  0  0  0  0
M  END
>  <MODEL>
8

>  <REMARK>
 VINA RESULT:      -5.6      3.286      4.686
  Name = 
  1 active torsions:
  status: ('A' for Active; 'I' for Inactive)
    1  A    between atoms: C_9  and  C_15
                            x       y       z     vdW  Elec       q    Type
                         _______ _______ _______ _____ _____    ______ ____

>  <TORSDO>
F 1

$$$$
=
 OpenBabel10272401003D

 27 31  0  0  1  0  0  0  0  0999 V2000
  187.2980  176.8450  135.3730 C   0  0  2  0  0  0  0  0  0  0  0  0
  185.4750  177.1550  137.0700 C   0  0  0  0  0  0  0  0  0  0  0  0
  187.7000  177.9810  137.4950 O   0  0  0  0  0  0  0  0  0  0  0  0
  184.2120  178.8290  140.8550 C   0  0  0  0  0  2  0  0  0  0  0  0
  184.7330  179.5840  143.1610 C   0  0  0  0  0  1  0  0  0  0  0  0
  184.1770  177.4170  137.2950 C   0  0  0  0  0  3  0  0  0  0  0  0
  187.0500  178.2160  140.4290 C   0  0  0  0  0  2  0  0  0  0  0  0
  190.5620  176.8670  137.4210 C   0  0  0  0  0  1  0  0  0  0  0  0
  186.5890  179.0960  141.5860 C   0  0  0  0  0  2  0  0  0  0  0  0
  190.0990  176.5250  134.9960 C   0  0  0  0  0  2  0  0  0  0  0  0
  186.5550  177.4310  138.1090 C   0  0  1  0  0  3  0  0  0  0  0  0
  185.8870  176.3960  135.8320 C   0  0  2  0  0  3  0  0  0  0  0  0
  185.1850  178.6930  142.0230 C   0  0  2  0  0  3  0  0  0  0  0  0
  184.6620  177.9570  139.6860 C   0  0  2  0  0  3  0  0  0  0  0  0
  187.1570  178.1900  134.6700 C   0  0  0  0  0  1  0  0  0  0  0  0
  186.0860  178.3370  139.2500 C   0  0  1  0  0  3  0  0  0  0  0  0
  189.6700  177.2750  136.2640 C   0  0  1  0  0  3  0  0  0  0  0  0
  183.7110  178.1620  138.5140 C   0  0  0  0  0  2  0  0  0  0  0  0
  189.2320  175.3750  134.7470 N   0  0  0  0  0  2  0  0  0  0  0  0
  187.9090  175.8650  134.3460 C   0  0  0  0  0  2  0  0  0  0  0  0
  188.2070  176.9970  136.6230 C   0  0  2  0  0  3  0  0  0  0  0  0
  185.4570  172.1470  136.4050 C   0  0  0  0  0  3  0  0  0  0  0  0
  185.7480  174.9110  136.0500 C   0  0  0  0  0  0  0  0  0  0  0  0
  186.3810  174.2650  137.1240 C   0  0  0  0  0  3  0  0  0  0  0  0
  186.2350  172.8850  137.2990 C   0  0  0  0  0  3  0  0  0  0  0  0
  184.8230  172.7860  135.3350 C   0  0  0  0  0  3  0  0  0  0  0  0
  184.9690  174.1660  135.1590 C   0  0  0  0  0  3  0  0  0  0  0  0
  1 15  1  6  0  0  0
  1 12  1  0  0  0  0
  1 21  1  0  0  0  0
  2  6  2  0  0  0  0
  3 11  1  0  0  0  0
  4 13  1  0  0  0  0
  6 18  1  0  0  0  0
  7  9  1  0  0  0  0
  9 13  1  0  0  0  0
 10 17  1  0  0  0  0
 11  2  1  6  0  0  0
 11 16  1  0  0  0  0
 12 23  1  1  0  0  0
 12  2  1  0  0  0  0
 13  5  1  1  0  0  0
 14 18  1  6  0  0  0
 14  4  1  0  0  0  0
 16 14  1  0  0  0  0
 16  7  1  1  0  0  0
 17 21  1  0  0  0  0
 17  8  1  1  0  0  0
 19 10  1  0  0  0  0
 20 19  1  0  0  0  0
 20  1  1  0  0  0  0
 21  3  1  1  0  0  0
 22 25  1  0  0  0  0
 23 24  1  0  0  0  0
 24 25  2  0  0  0  0
 26 22  2  0  0  0  0
 27 26  1  0  0  0  0
 27 23  2  0  0  0  0
M  END
>  <MODEL>
9

>  <REMARK>
 VINA RESULT:      -5.6      2.214      3.210
  Name = 
  1 active torsions:
  status: ('A' for Active; 'I' for Inactive)
    1  A    between atoms: C_9  and  C_15
                            x       y       z     vdW  Elec       q    Type
                         _______ _______ _______ _____ _____    ______ ____

>  <TORSDO>
F 1

$$$$
