=
 OpenBabel10272400093D

 34 39  0  0  1  0  0  0  0  0999 V2000
  186.5460  177.9660  145.4000 N   0  0  0  0  0  0  0  0  0  0  0  0
  184.8010  178.7280  143.8510 C   0  0  0  0  0  0  0  0  0  0  0  0
  187.0570  178.1390  143.1370 C   0  0  0  0  0  0  0  0  0  0  0  0
  187.7870  178.7300  140.8660 O   0  0  0  0  0  0  0  0  0  0  0  0
  184.2920  178.2420  146.2970 C   0  0  0  0  0  2  0  0  0  0  0  0
  188.8600  176.3210  143.5080 C   0  0  2  0  0  3  0  0  0  0  0  0
  190.8300  175.0350  142.9930 O   0  0  0  0  0  1  0  0  0  0  0  0
  183.8680  178.9830  145.0090 C   0  0  0  0  0  2  0  0  0  0  0  0
  185.5110  179.1480  141.5630 C   0  0  0  0  0  3  0  0  0  0  0  0
  190.7360  177.1640  141.8700 C   0  0  2  0  0  3  0  0  0  0  0  0
  186.0760  178.2250  144.1020 C   0  0  0  0  0  0  0  0  0  0  0  0
  192.5670  177.7810  143.2640 F   0  0  0  0  0  0  0  0  0  0  0  0
  190.0960  177.8220  140.6380 C   0  0  2  0  0  3  0  0  0  0  0  0
  188.6060  177.6530  140.5510 C   0  0  0  0  0  0  0  0  0  0  0  0
  185.8000  178.3840  146.5800 C   0  0  0  0  0  2  0  0  0  0  0  0
  188.3840  177.7820  143.7990 C   0  0  2  0  0  0  0  0  0  0  0  0
  189.9540  175.9930  142.4770 C   0  0  2  0  0  3  0  0  0  0  0  0
  187.9570  177.8400  145.2510 C   0  0  0  0  0  0  0  0  0  0  0  0
  184.5180  179.1900  142.5590 C   0  0  0  0  0  3  0  0  0  0  0  0
  190.4990  178.3570  143.9910 O   0  0  0  0  0  0  0  0  0  0  0  0
  191.3120  178.1830  142.8620 C   0  0  2  0  0  3  0  0  0  0  0  0
  189.3400  178.7850  143.5290 O   0  0  0  0  0  0  0  0  0  0  0  0
  188.0940  176.5280  140.2920 O   0  0  0  0  0  0  0  0  0  0  0  0
  187.7970  175.4120  143.4220 O   0  0  0  0  0  1  0  0  0  0  0  0
  186.7960  178.6410  141.8440 C   0  0  0  0  0  0  0  0  0  0  0  0
  188.7470  177.7710  146.2310 O   0  0  0  0  0  0  0  0  0  0  0  0
  190.8320  177.4690  139.3440 C   0  0  0  0  0  2  0  0  0  0  0  0
  188.6440  178.3220  136.4770 C   0  0  0  0  0  2  0  0  0  0  0  0
  189.9070  177.1990  138.2520 N   0  0  0  0  0  0  0  0  0  0  0  0
  189.5720  178.5010  137.6770 C   0  0  0  0  0  2  0  0  0  0  0  0
  190.3460  176.7180  135.9040 O   0  0  0  0  0  0  0  0  0  0  0  0
  190.3730  174.8980  137.4940 C   0  0  0  0  0  1  0  0  0  0  0  0
  190.6300  176.3790  137.2550 C   0  0  2  0  0  3  0  0  0  0  0  0
  188.9740  177.0090  135.7740 C   0  0  0  0  0  2  0  0  0  0  0  0
  1 15  1  0  0  0  0
  2 11  1  0  0  0  0
  2  8  1  0  0  0  0
  3 16  1  0  0  0  0
  3 11  2  0  0  0  0
  4 25  1  0  0  0  0
  5 15  1  0  0  0  0
  6 24  1  6  0  0  0
  6 16  1  0  0  0  0
  8  5  1  0  0  0  0
  9 25  2  0  0  0  0
  9 19  1  0  0  0  0
 10 17  1  0  0  0  0
 10 21  1  0  0  0  0
 11  1  1  0  0  0  0
 13 10  1  0  0  0  0
 14 13  1  0  0  0  0
 14  4  1  0  0  0  0
 16 18  1  0  0  0  0
 17  7  1  0  0  0  0
 17  6  1  0  0  0  0
 18  1  1  0  0  0  0
 18 26  2  0  0  0  0
 19  2  2  0  0  0  0
 21 12  1  0  0  0  0
 21 20  1  0  0  0  0
 22 16  1  0  0  0  0
 22 20  1  0  0  0  0
 23 14  2  0  0  0  0
 25  3  1  0  0  0  0
 27 13  1  0  0  0  0
 28 30  1  0  0  0  0
 29 27  1  0  0  0  0
 30 29  1  0  0  0  0
 31 33  1  0  0  0  0
 33 32  1  0  0  0  0
 33 29  1  0  0  0  0
 34 31  1  0  0  0  0
 34 28  1  0  0  0  0
M  END
>  <MODEL>
1

>  <REMARK>
 VINA RESULT:      -8.8      0.000      0.000
  Name = 
  2 active torsions:
  status: ('A' for Active; 'I' for Inactive)
    1  A    between atoms: C_3  and  N_13
    2  A    between atoms: C_3  and  C_17
                            x       y       z     vdW  Elec       q    Type
                         _______ _______ _______ _____ _____    ______ ____

>  <TORSDO>
F 2

$$$$
=
 OpenBabel10272400093D

 34 39  0  0  1  0  0  0  0  0999 V2000
  180.8920  178.0840  141.8580 N   0  0  0  0  0  0  0  0  0  0  0  0
  182.6650  179.0190  143.2730 C   0  0  0  0  0  0  0  0  0  0  0  0
  183.0310  178.3080  140.9700 C   0  0  0  0  0  0  0  0  0  0  0  0
  185.3310  178.0900  140.1330 O   0  0  0  0  0  0  0  0  0  0  0  0
  180.2370  178.9750  144.0350 C   0  0  0  0  0  2  0  0  0  0  0  0
  181.9340  178.4660  138.6310 C   0  0  2  0  0  3  0  0  0  0  0  0
  181.8560  178.3870  136.2250 O   0  0  0  0  0  1  0  0  0  0  0  0
  181.7230  179.0540  144.4510 C   0  0  0  0  0  2  0  0  0  0  0  0
  184.9170  178.9460  142.3550 C   0  0  0  0  0  3  0  0  0  0  0  0
  183.7150  177.1870  137.1790 C   0  0  2  0  0  3  0  0  0  0  0  0
  182.2020  178.5530  142.0440 C   0  0  0  0  0  0  0  0  0  0  0  0
  182.6120  175.2210  136.4090 F   0  0  0  0  0  0  0  0  0  0  0  0
  185.1230  177.4430  137.7370 C   0  0  2  0  0  3  0  0  0  0  0  0
  185.1830  178.4900  138.8110 C   0  0  0  0  0  0  0  0  0  0  0  0
  179.9860  177.8790  142.9800 C   0  0  0  0  0  2  0  0  0  0  0  0
  182.2430  177.5810  139.8830 C   0  0  2  0  0  0  0  0  0  0  0  0
  182.7270  178.3520  137.3170 C   0  0  2  0  0  3  0  0  0  0  0  0
  180.9380  177.3720  140.6240 C   0  0  0  0  0  0  0  0  0  0  0  0
  184.0440  179.2220  143.4230 C   0  0  0  0  0  3  0  0  0  0  0  0
  182.2250  175.8250  138.5580 O   0  0  0  0  0  0  0  0  0  0  0  0
  183.1760  175.7940  137.5280 C   0  0  2  0  0  3  0  0  0  0  0  0
  182.8500  176.3390  139.6000 O   0  0  0  0  0  0  0  0  0  0  0  0
  185.0030  179.7100  138.5400 O   0  0  0  0  0  0  0  0  0  0  0  0
  181.6950  179.8070  138.9610 O   0  0  0  0  0  1  0  0  0  0  0  0
  184.4240  178.4680  141.1250 C   0  0  0  0  0  0  0  0  0  0  0  0
  179.9850  176.6630  140.2050 O   0  0  0  0  0  0  0  0  0  0  0  0
  186.1590  177.6390  136.6280 C   0  0  0  0  0  2  0  0  0  0  0  0
  188.9210  175.1720  136.7870 C   0  0  0  0  0  2  0  0  0  0  0  0
  187.4690  177.1330  137.0160 N   0  0  0  0  0  0  0  0  0  0  0  0
  187.5510  175.7750  136.4820 C   0  0  0  0  0  2  0  0  0  0  0  0
  189.6140  177.2880  135.8720 O   0  0  0  0  0  0  0  0  0  0  0  0
  188.9220  179.1060  137.3050 C   0  0  0  0  0  1  0  0  0  0  0  0
  188.4830  177.9930  136.3650 C   0  0  2  0  0  3  0  0  0  0  0  0
  189.9710  176.2780  136.7860 C   0  0  0  0  0  2  0  0  0  0  0  0
  1 11  1  0  0  0  0
  1 15  1  0  0  0  0
  2 19  1  0  0  0  0
  2  8  1  0  0  0  0
  3 25  2  0  0  0  0
  3 11  1  0  0  0  0
  4 25  1  0  0  0  0
  5  8  1  0  0  0  0
  6 24  1  1  0  0  0
  6 16  1  0  0  0  0
  7 17  1  0  0  0  0
  9 19  2  0  0  0  0
 10 17  1  0  0  0  0
 10 21  1  0  0  0  0
 10 13  1  0  0  0  0
 11  2  2  0  0  0  0
 12 21  1  0  0  0  0
 13 14  1  0  0  0  0
 14  4  1  0  0  0  0
 15  5  1  0  0  0  0
 16 18  1  0  0  0  0
 16  3  1  0  0  0  0
 17  6  1  0  0  0  0
 18  1  1  0  0  0  0
 20 22  1  0  0  0  0
 21 20  1  0  0  0  0
 22 16  1  0  0  0  0
 23 14  2  0  0  0  0
 25  9  1  0  0  0  0
 26 18  2  0  0  0  0
 27 29  1  0  0  0  0
 27 13  1  0  0  0  0
 30 28  1  0  0  0  0
 30 29  1  0  0  0  0
 31 33  1  0  0  0  0
 31 34  1  0  0  0  0
 33 29  1  0  0  0  0
 33 32  1  0  0  0  0
 34 28  1  0  0  0  0
M  END
>  <MODEL>
2

>  <REMARK>
 VINA RESULT:      -7.4      4.521      6.523
  Name = 
  2 active torsions:
  status: ('A' for Active; 'I' for Inactive)
    1  A    between atoms: C_3  and  N_13
    2  A    between atoms: C_3  and  C_17
                            x       y       z     vdW  Elec       q    Type
                         _______ _______ _______ _____ _____    ______ ____

>  <TORSDO>
F 2

$$$$
=
 OpenBabel10272400093D

 34 39  0  0  1  0  0  0  0  0999 V2000
  186.6800  178.3480  139.5890 N   0  0  0  0  0  0  0  0  0  0  0  0
  188.1270  178.0920  141.5540 C   0  0  0  0  0  0  0  0  0  0  0  0
  188.7370  177.2920  139.3340 C   0  0  0  0  0  0  0  0  0  0  0  0
  190.6610  175.7820  139.0910 O   0  0  0  0  0  0  0  0  0  0  0  0
  185.9830  179.4600  141.6470 C   0  0  0  0  0  2  0  0  0  0  0  0
  188.7040  178.0450  136.8590 C   0  0  2  0  0  3  0  0  0  0  0  0
  189.3490  178.0170  134.5380 O   0  0  0  0  0  1  0  0  0  0  0  0
  187.0480  178.6690  142.4380 C   0  0  0  0  0  2  0  0  0  0  0  0
  190.1180  176.7290  141.2470 C   0  0  0  0  0  3  0  0  0  0  0  0
  189.8340  175.9670  135.7100 C   0  0  2  0  0  3  0  0  0  0  0  0
  187.8940  177.9740  140.1860 C   0  0  0  0  0  0  0  0  0  0  0  0
  188.1380  174.9960  134.3460 F   0  0  0  0  0  0  0  0  0  0  0  0
  190.8910  175.3650  136.6460 C   0  0  2  0  0  3  0  0  0  0  0  0
  191.1780  176.1890  137.8680 C   0  0  0  0  0  0  0  0  0  0  0  0
  185.5150  178.7070  140.3870 C   0  0  0  0  0  2  0  0  0  0  0  0
  188.0660  177.1490  137.9710 C   0  0  2  0  0  0  0  0  0  0  0  0
  189.6650  177.4890  135.7930 C   0  0  2  0  0  3  0  0  0  0  0  0
  186.7090  177.7340  138.3030 C   0  0  0  0  0  0  0  0  0  0  0  0
  189.2600  177.4620  142.0870 C   0  0  0  0  0  3  0  0  0  0  0  0
  187.5000  175.7210  136.3960 O   0  0  0  0  0  0  0  0  0  0  0  0
  188.5410  175.1430  135.6550 C   0  0  2  0  0  3  0  0  0  0  0  0
  187.9420  175.7830  137.6370 O   0  0  0  0  0  0  0  0  0  0  0  0
  191.7940  177.2890  137.7800 O   0  0  0  0  0  0  0  0  0  0  0  0
  189.1520  179.2790  137.3480 O   0  0  0  0  0  1  0  0  0  0  0  0
  189.8570  176.6180  139.8670 C   0  0  0  0  0  0  0  0  0  0  0  0
  185.7110  177.7050  137.5340 O   0  0  0  0  0  0  0  0  0  0  0  0
  192.1480  174.9230  135.8930 C   0  0  0  0  0  2  0  0  0  0  0  0
  193.4160  171.4550  136.2220 C   0  0  0  0  0  2  0  0  0  0  0  0
  192.8100  173.8070  136.5550 N   0  0  0  0  0  0  0  0  0  0  0  0
  192.6960  172.6710  135.6410 C   0  0  0  0  0  2  0  0  0  0  0  0
  195.1440  173.1080  136.4990 O   0  0  0  0  0  0  0  0  0  0  0  0
  194.4660  174.7910  138.0950 C   0  0  0  0  0  1  0  0  0  0  0  0
  194.2330  174.1770  136.7230 C   0  0  2  0  0  3  0  0  0  0  0  0
  194.6140  171.9210  137.0420 C   0  0  0  0  0  2  0  0  0  0  0  0
  1 11  1  0  0  0  0
  1 15  1  0  0  0  0
  2 19  1  0  0  0  0
  2  8  1  0  0  0  0
  3 25  2  0  0  0  0
  3 11  1  0  0  0  0
  4 25  1  0  0  0  0
  5  8  1  0  0  0  0
  6 24  1  1  0  0  0
  6 16  1  0  0  0  0
  7 17  1  0  0  0  0
  9 19  2  0  0  0  0
 10 17  1  0  0  0  0
 10 13  1  0  0  0  0
 11  2  2  0  0  0  0
 12 21  1  0  0  0  0
 13 14  1  0  0  0  0
 14  4  1  0  0  0  0
 15  5  1  0  0  0  0
 16 18  1  0  0  0  0
 16  3  1  0  0  0  0
 17  6  1  0  0  0  0
 18  1  1  0  0  0  0
 20 22  1  0  0  0  0
 21 10  1  0  0  0  0
 21 20  1  0  0  0  0
 22 16  1  0  0  0  0
 23 14  2  0  0  0  0
 25  9  1  0  0  0  0
 26 18  2  0  0  0  0
 27 29  1  0  0  0  0
 27 13  1  0  0  0  0
 28 34  1  0  0  0  0
 29 33  1  0  0  0  0
 30 28  1  0  0  0  0
 30 29  1  0  0  0  0
 31 33  1  0  0  0  0
 31 34  1  0  0  0  0
 33 32  1  0  0  0  0
M  END
>  <MODEL>
3

>  <REMARK>
 VINA RESULT:      -7.1      3.639      6.289
  Name = 
  2 active torsions:
  status: ('A' for Active; 'I' for Inactive)
    1  A    between atoms: C_3  and  N_13
    2  A    between atoms: C_3  and  C_17
                            x       y       z     vdW  Elec       q    Type
                         _______ _______ _______ _____ _____    ______ ____

>  <TORSDO>
F 2

$$$$
=
 OpenBabel10272400093D

 34 39  0  0  1  0  0  0  0  0999 V2000
  191.1730  174.7110  136.5060 N   0  0  0  0  0  0  0  0  0  0  0  0
  189.6640  173.1070  135.4240 C   0  0  0  0  0  0  0  0  0  0  0  0
  188.8810  175.1030  136.5840 C   0  0  0  0  0  0  0  0  0  0  0  0
  186.4880  175.3310  137.0930 O   0  0  0  0  0  0  0  0  0  0  0  0
  192.1920  172.9340  135.1790 C   0  0  0  0  0  2  0  0  0  0  0  0
  189.4200  177.6230  136.8120 C   0  0  2  0  0  3  0  0  0  0  0  0
  188.9820  179.9300  137.3460 O   0  0  0  0  0  1  0  0  0  0  0  0
  190.8320  172.2040  135.1090 C   0  0  0  0  0  2  0  0  0  0  0  0
  187.2870  173.4490  135.8040 C   0  0  0  0  0  3  0  0  0  0  0  0
  187.5050  178.3770  138.4480 C   0  0  2  0  0  3  0  0  0  0  0  0
  189.8940  174.3090  136.0890 C   0  0  0  0  0  0  0  0  0  0  0  0
  188.6070  179.0300  140.4570 F   0  0  0  0  0  0  0  0  0  0  0  0
  186.2340  177.5610  138.1740 C   0  0  2  0  0  3  0  0  0  0  0  0
  186.3040  176.7000  136.9460 C   0  0  0  0  0  0  0  0  0  0  0  0
  192.3170  173.8120  136.4400 C   0  0  0  0  0  2  0  0  0  0  0  0
  189.4820  176.1990  137.4570 C   0  0  2  0  0  0  0  0  0  0  0  0
  188.3770  178.6770  137.2220 C   0  0  2  0  0  3  0  0  0  0  0  0
  190.9310  175.7580  137.4430 C   0  0  0  0  0  0  0  0  0  0  0  0
  188.3390  172.6770  135.2780 C   0  0  0  0  0  3  0  0  0  0  0  0
  189.3890  177.1680  139.4310 O   0  0  0  0  0  0  0  0  0  0  0  0
  188.2450  177.9280  139.7150 C   0  0  2  0  0  3  0  0  0  0  0  0
  188.9570  176.1150  138.7640 O   0  0  0  0  0  0  0  0  0  0  0  0
  186.2960  177.2130  135.7920 O   0  0  0  0  0  0  0  0  0  0  0  0
  189.5890  177.5950  135.4210 O   0  0  0  0  0  1  0  0  0  0  0  0
  187.5450  174.6580  136.4790 C   0  0  0  0  0  0  0  0  0  0  0  0
  191.8380  176.2570  138.1620 O   0  0  0  0  0  0  0  0  0  0  0  0
  184.9670  178.4160  138.2550 C   0  0  0  0  0  2  0  0  0  0  0  0
  183.9570  178.6210  141.8160 C   0  0  0  0  0  2  0  0  0  0  0  0
  184.1720  178.0920  139.4320 N   0  0  0  0  0  0  0  0  0  0  0  0
  184.7610  178.8470  140.5370 C   0  0  0  0  0  2  0  0  0  0  0  0
  182.1590  179.1510  140.3060 O   0  0  0  0  0  0  0  0  0  0  0  0
  181.9380  177.4450  138.6100 C   0  0  0  0  0  1  0  0  0  0  0  0
  182.7940  178.5680  139.1760 C   0  0  2  0  0  3  0  0  0  0  0  0
  182.4890  178.4140  141.4610 C   0  0  0  0  0  2  0  0  0  0  0  0
  1 18  1  0  0  0  0
  2 11  1  0  0  0  0
  3 16  1  0  0  0  0
  5 15  1  0  0  0  0
  6 24  1  6  0  0  0
  6 17  1  0  0  0  0
  6 16  1  0  0  0  0
  8  5  1  0  0  0  0
  8  2  1  0  0  0  0
  9 25  2  0  0  0  0
 10 21  1  0  0  0  0
 11  1  1  0  0  0  0
 11  3  2  0  0  0  0
 13 27  1  0  0  0  0
 13 10  1  0  0  0  0
 14  4  1  0  0  0  0
 14 13  1  0  0  0  0
 15  1  1  0  0  0  0
 16 22  1  0  0  0  0
 17  7  1  0  0  0  0
 17 10  1  0  0  0  0
 18 16  1  0  0  0  0
 18 26  2  0  0  0  0
 19  2  2  0  0  0  0
 19  9  1  0  0  0  0
 20 21  1  0  0  0  0
 21 12  1  0  0  0  0
 22 20  1  0  0  0  0
 23 14  2  0  0  0  0
 25  3  1  0  0  0  0
 25  4  1  0  0  0  0
 27 29  1  0  0  0  0
 29 30  1  0  0  0  0
 30 28  1  0  0  0  0
 31 34  1  0  0  0  0
 32 33  1  0  0  0  0
 33 29  1  0  0  0  0
 33 31  1  0  0  0  0
 34 28  1  0  0  0  0
M  END
>  <MODEL>
4

>  <REMARK>
 VINA RESULT:      -7.0      3.582      8.186
  Name = 
  2 active torsions:
  status: ('A' for Active; 'I' for Inactive)
    1  A    between atoms: C_3  and  N_13
    2  A    between atoms: C_3  and  C_17
                            x       y       z     vdW  Elec       q    Type
                         _______ _______ _______ _____ _____    ______ ____

>  <TORSDO>
F 2

$$$$
=
 OpenBabel10272400093D

 34 39  0  0  1  0  0  0  0  0999 V2000
  184.3960  178.0950  138.9420 N   0  0  0  0  0  0  0  0  0  0  0  0
  185.4770  178.7880  141.0330 C   0  0  0  0  0  0  0  0  0  0  0  0
  186.7110  177.9400  139.1100 C   0  0  0  0  0  0  0  0  0  0  0  0
  189.0750  177.3250  139.3800 O   0  0  0  0  0  0  0  0  0  0  0  0
  182.9920  179.1610  140.6310 C   0  0  0  0  0  2  0  0  0  0  0  0
  186.8130  178.1810  136.5360 C   0  0  2  0  0  3  0  0  0  0  0  0
  187.8040  178.0220  134.3460 O   0  0  0  0  0  1  0  0  0  0  0  0
  184.1280  179.0180  141.6680 C   0  0  0  0  0  2  0  0  0  0  0  0
  187.8570  178.3220  141.2130 C   0  0  0  0  0  3  0  0  0  0  0  0
  188.8240  176.5790  135.9840 C   0  0  2  0  0  3  0  0  0  0  0  0
  185.5410  178.3550  139.7110 C   0  0  0  0  0  0  0  0  0  0  0  0
  187.8820  174.7850  134.7300 F   0  0  0  0  0  0  0  0  0  0  0  0
  189.8570  176.6280  137.1200 C   0  0  2  0  0  3  0  0  0  0  0  0
  189.5980  177.6930  138.1460 C   0  0  0  0  0  0  0  0  0  0  0  0
  183.0650  178.0800  139.5350 C   0  0  0  0  0  2  0  0  0  0  0  0
  186.3860  177.3070  137.7600 C   0  0  2  0  0  0  0  0  0  0  0  0
  188.0790  177.8910  135.7100 C   0  0  2  0  0  3  0  0  0  0  0  0
  184.8730  177.3370  137.8330 C   0  0  0  0  0  0  0  0  0  0  0  0
  186.6560  178.7740  141.7900 C   0  0  0  0  0  3  0  0  0  0  0  0
  186.6790  175.5260  136.5020 O   0  0  0  0  0  0  0  0  0  0  0  0
  187.9710  175.3040  136.0030 C   0  0  2  0  0  3  0  0  0  0  0  0
  186.8480  175.9740  137.7310 O   0  0  0  0  0  0  0  0  0  0  0  0
  189.7560  178.9150  137.8690 O   0  0  0  0  0  0  0  0  0  0  0  0
  186.6700  179.5540  136.7740 O   0  0  0  0  0  1  0  0  0  0  0  0
  187.8950  177.8810  139.8760 C   0  0  0  0  0  0  0  0  0  0  0  0
  184.1060  176.7740  137.0070 O   0  0  0  0  0  0  0  0  0  0  0  0
  191.2950  176.6130  136.5970 C   0  0  0  0  0  2  0  0  0  0  0  0
  193.4610  173.6350  137.0220 C   0  0  0  0  0  2  0  0  0  0  0  0
  192.1260  175.6680  137.3300 N   0  0  0  0  0  0  0  0  0  0  0  0
  192.5300  174.6500  136.3610 C   0  0  0  0  0  2  0  0  0  0  0  0
  194.5300  175.6730  137.7290 O   0  0  0  0  0  0  0  0  0  0  0  0
  193.0960  176.9150  139.2250 C   0  0  0  0  0  1  0  0  0  0  0  0
  193.3160  176.4080  137.8080 C   0  0  2  0  0  3  0  0  0  0  0  0
  194.2910  174.3340  138.0940 C   0  0  0  0  0  2  0  0  0  0  0  0
  1 15  1  0  0  0  0
  1 11  1  0  0  0  0
  2  8  1  0  0  0  0
  2 19  1  0  0  0  0
  3 11  1  0  0  0  0
  3 25  2  0  0  0  0
  4 25  1  0  0  0  0
  5  8  1  0  0  0  0
  6 24  1  1  0  0  0
  6 16  1  0  0  0  0
  7 17  1  0  0  0  0
  9 19  2  0  0  0  0
 10 21  1  0  0  0  0
 10 13  1  0  0  0  0
 11  2  2  0  0  0  0
 12 21  1  0  0  0  0
 13 14  1  0  0  0  0
 14  4  1  0  0  0  0
 15  5  1  0  0  0  0
 16 18  1  0  0  0  0
 16  3  1  0  0  0  0
 17 10  1  0  0  0  0
 17  6  1  0  0  0  0
 18  1  1  0  0  0  0
 20 22  1  0  0  0  0
 21 20  1  0  0  0  0
 22 16  1  0  0  0  0
 23 14  2  0  0  0  0
 25  9  1  0  0  0  0
 26 18  2  0  0  0  0
 27 13  1  0  0  0  0
 27 29  1  0  0  0  0
 28 34  1  0  0  0  0
 29 33  1  0  0  0  0
 30 28  1  0  0  0  0
 30 29  1  0  0  0  0
 31 33  1  0  0  0  0
 31 34  1  0  0  0  0
 33 32  1  0  0  0  0
M  END
>  <MODEL>
5

>  <REMARK>
 VINA RESULT:      -6.5      3.701      6.032
  Name = 
  2 active torsions:
  status: ('A' for Active; 'I' for Inactive)
    1  A    between atoms: C_3  and  N_13
    2  A    between atoms: C_3  and  C_17
                            x       y       z     vdW  Elec       q    Type
                         _______ _______ _______ _____ _____    ______ ____

>  <TORSDO>
F 2

$$$$
=
 OpenBabel10272400093D

 34 39  0  0  1  0  0  0  0  0999 V2000
  186.3680  178.4120  141.7190 N   0  0  0  0  0  0  0  0  0  0  0  0
  187.6850  177.5540  143.6030 C   0  0  0  0  0  0  0  0  0  0  0  0
  188.4350  177.4360  141.2870 C   0  0  0  0  0  0  0  0  0  0  0  0
  190.3670  176.0250  140.7230 O   0  0  0  0  0  0  0  0  0  0  0  0
  185.5430  178.8780  143.9690 C   0  0  0  0  0  2  0  0  0  0  0  0
  188.5630  178.8900  139.1510 C   0  0  2  0  0  3  0  0  0  0  0  0
  189.3570  179.5380  136.9710 O   0  0  0  0  0  1  0  0  0  0  0  0
  186.5530  177.8650  144.5510 C   0  0  0  0  0  2  0  0  0  0  0  0
  189.6880  176.3010  143.0260 C   0  0  0  0  0  3  0  0  0  0  0  0
  189.7600  177.2240  137.5060 C   0  0  2  0  0  3  0  0  0  0  0  0
  187.5400  177.8520  142.2500 C   0  0  0  0  0  0  0  0  0  0  0  0
  188.1530  176.7370  135.8150 F   0  0  0  0  0  0  0  0  0  0  0  0
  190.7530  176.3480  138.2830 C   0  0  2  0  0  3  0  0  0  0  0  0
  190.9620  176.7660  139.7100 C   0  0  0  0  0  0  0  0  0  0  0  0
  185.1550  178.5430  142.5150 C   0  0  0  0  0  2  0  0  0  0  0  0
  187.8530  177.7180  139.9050 C   0  0  2  0  0  0  0  0  0  0  0  0
  189.5900  178.6550  138.0290 C   0  0  2  0  0  3  0  0  0  0  0  0
  186.4780  178.2080  140.3130 C   0  0  0  0  0  0  0  0  0  0  0  0
  188.7790  176.7700  143.9920 C   0  0  0  0  0  3  0  0  0  0  0  0
  187.3860  176.8350  137.9450 O   0  0  0  0  0  0  0  0  0  0  0  0
  188.4710  176.4800  137.1300 C   0  0  2  0  0  3  0  0  0  0  0  0
  187.7470  176.5170  139.1730 O   0  0  0  0  0  0  0  0  0  0  0  0
  191.5860  177.8280  139.9910 O   0  0  0  0  0  0  0  0  0  0  0  0
  188.9820  179.9130  140.0120 O   0  0  0  0  0  1  0  0  0  0  0  0
  189.5160  176.6100  141.6620 C   0  0  0  0  0  0  0  0  0  0  0  0
  185.5320  178.4290  139.5110 O   0  0  0  0  0  0  0  0  0  0  0  0
  192.0550  176.1220  137.5100 C   0  0  0  0  0  2  0  0  0  0  0  0
  191.6860  172.8310  135.8460 C   0  0  0  0  0  2  0  0  0  0  0  0
  192.3150  174.7060  137.2940 N   0  0  0  0  0  0  0  0  0  0  0  0
  191.4440  174.2990  136.1930 C   0  0  0  0  0  2  0  0  0  0  0  0
  193.9630  173.6120  135.8690 O   0  0  0  0  0  0  0  0  0  0  0  0
  194.6110  174.2880  138.0970 C   0  0  0  0  0  1  0  0  0  0  0  0
  193.7330  174.5770  136.8880 C   0  0  2  0  0  3  0  0  0  0  0  0
  193.1490  172.4860  136.1000 C   0  0  0  0  0  2  0  0  0  0  0  0
  1 11  1  0  0  0  0
  1 15  1  0  0  0  0
  2 19  1  0  0  0  0
  2  8  1  0  0  0  0
  3 25  2  0  0  0  0
  3 11  1  0  0  0  0
  4 25  1  0  0  0  0
  5  8  1  0  0  0  0
  6 16  1  0  0  0  0
  6 24  1  1  0  0  0
  7 17  1  0  0  0  0
  9 19  2  0  0  0  0
 10 17  1  0  0  0  0
 10 13  1  0  0  0  0
 11  2  2  0  0  0  0
 12 21  1  0  0  0  0
 13 14  1  0  0  0  0
 14 23  2  0  0  0  0
 14  4  1  0  0  0  0
 15  5  1  0  0  0  0
 16 18  1  0  0  0  0
 16  3  1  0  0  0  0
 17  6  1  0  0  0  0
 18  1  1  0  0  0  0
 20 22  1  0  0  0  0
 21 10  1  0  0  0  0
 21 20  1  0  0  0  0
 22 16  1  0  0  0  0
 25  9  1  0  0  0  0
 26 18  2  0  0  0  0
 27 13  1  0  0  0  0
 28 34  1  0  0  0  0
 28 30  1  0  0  0  0
 29 27  1  0  0  0  0
 30 29  1  0  0  0  0
 31 34  1  0  0  0  0
 31 33  1  0  0  0  0
 33 29  1  0  0  0  0
 33 32  1  0  0  0  0
M  END
>  <MODEL>
6

>  <REMARK>
 VINA RESULT:      -6.2      2.724      4.880
  Name = 
  2 active torsions:
  status: ('A' for Active; 'I' for Inactive)
    1  A    between atoms: C_3  and  N_13
    2  A    between atoms: C_3  and  C_17
                            x       y       z     vdW  Elec       q    Type
                         _______ _______ _______ _____ _____    ______ ____

>  <TORSDO>
F 2

$$$$
=
 OpenBabel10272400093D

 34 39  0  0  1  0  0  0  0  0999 V2000
  186.2690  178.4870  139.9110 N   0  0  0  0  0  0  0  0  0  0  0  0
  187.1960  178.2620  142.1720 C   0  0  0  0  0  0  0  0  0  0  0  0
  188.3350  177.4500  140.1750 C   0  0  0  0  0  0  0  0  0  0  0  0
  190.2730  175.9590  140.4240 O   0  0  0  0  0  0  0  0  0  0  0  0
  185.0830  179.6080  141.7260 C   0  0  0  0  0  2  0  0  0  0  0  0
  188.9000  178.1840  137.7600 C   0  0  2  0  0  3  0  0  0  0  0  0
  190.0920  178.1440  135.6670 O   0  0  0  0  0  1  0  0  0  0  0  0
  185.9300  178.8340  142.7600 C   0  0  0  0  0  2  0  0  0  0  0  0
  189.2130  176.9170  142.3730 C   0  0  0  0  0  3  0  0  0  0  0  0
  190.2930  176.1090  136.9410 C   0  0  2  0  0  3  0  0  0  0  0  0
  187.3050  178.1310  140.7890 C   0  0  0  0  0  0  0  0  0  0  0  0
  188.9900  175.1090  135.2160 F   0  0  0  0  0  0  0  0  0  0  0  0
  191.0960  175.5250  138.1130 C   0  0  2  0  0  3  0  0  0  0  0  0
  191.0690  176.3630  139.3600 C   0  0  0  0  0  0  0  0  0  0  0  0
  184.9420  178.8400  140.3970 C   0  0  0  0  0  2  0  0  0  0  0  0
  188.0180  177.2900  138.6920 C   0  0  2  0  0  0  0  0  0  0  0  0
  190.0970  177.6300  136.9660 C   0  0  2  0  0  3  0  0  0  0  0  0
  186.6160  177.8640  138.6770 C   0  0  0  0  0  0  0  0  0  0  0  0
  188.1700  177.6480  142.9710 C   0  0  0  0  0  3  0  0  0  0  0  0
  187.8650  175.8440  137.0410 O   0  0  0  0  0  0  0  0  0  0  0  0
  189.0600  175.2710  136.5820 C   0  0  2  0  0  3  0  0  0  0  0  0
  187.9910  175.9210  138.3520 O   0  0  0  0  0  0  0  0  0  0  0  0
  191.6790  177.4670  139.4130 O   0  0  0  0  0  0  0  0  0  0  0  0
  189.2050  179.4260  138.3310 O   0  0  0  0  0  1  0  0  0  0  0  0
  189.2970  176.7930  140.9720 C   0  0  0  0  0  0  0  0  0  0  0  0
  185.8360  177.8170  137.6880 O   0  0  0  0  0  0  0  0  0  0  0  0
  192.5020  175.0900  137.6930 C   0  0  0  0  0  2  0  0  0  0  0  0
  194.5990  177.2620  135.5430 C   0  0  0  0  0  2  0  0  0  0  0  0
  192.9160  175.7290  136.4520 N   0  0  0  0  0  0  0  0  0  0  0  0
  194.0480  176.5860  136.7980 C   0  0  0  0  0  2  0  0  0  0  0  0
  194.5050  174.9880  134.7590 O   0  0  0  0  0  0  0  0  0  0  0  0
  192.2160  174.2250  134.6260 C   0  0  0  0  0  1  0  0  0  0  0  0
  193.3590  174.6570  135.5330 C   0  0  2  0  0  3  0  0  0  0  0  0
  194.4190  176.3330  134.3480 C   0  0  0  0  0  2  0  0  0  0  0  0
  1 15  1  0  0  0  0
  1 11  1  0  0  0  0
  2  8  1  0  0  0  0
  2 19  1  0  0  0  0
  3 11  1  0  0  0  0
  3 25  2  0  0  0  0
  4 25  1  0  0  0  0
  5  8  1  0  0  0  0
  6 24  1  1  0  0  0
  6 16  1  0  0  0  0
  7 17  1  0  0  0  0
  9 19  2  0  0  0  0
 10 17  1  0  0  0  0
 10 13  1  0  0  0  0
 11  2  2  0  0  0  0
 12 21  1  0  0  0  0
 13 14  1  0  0  0  0
 14 23  2  0  0  0  0
 14  4  1  0  0  0  0
 15  5  1  0  0  0  0
 16  3  1  0  0  0  0
 17  6  1  0  0  0  0
 18 16  1  0  0  0  0
 18  1  1  0  0  0  0
 20 22  1  0  0  0  0
 21 10  1  0  0  0  0
 21 20  1  0  0  0  0
 22 16  1  0  0  0  0
 25  9  1  0  0  0  0
 26 18  2  0  0  0  0
 27 13  1  0  0  0  0
 28 30  1  0  0  0  0
 29 30  1  0  0  0  0
 29 27  1  0  0  0  0
 31 33  1  0  0  0  0
 32 33  1  0  0  0  0
 33 29  1  0  0  0  0
 34 31  1  0  0  0  0
 34 28  1  0  0  0  0
M  END
>  <MODEL>
7

>  <REMARK>
 VINA RESULT:      -6.0      3.068      5.395
  Name = 
  2 active torsions:
  status: ('A' for Active; 'I' for Inactive)
    1  A    between atoms: C_3  and  N_13
    2  A    between atoms: C_3  and  C_17
                            x       y       z     vdW  Elec       q    Type
                         _______ _______ _______ _____ _____    ______ ____

>  <TORSDO>
F 2

$$$$
=
 OpenBabel10272400093D

 34 39  0  0  1  0  0  0  0  0999 V2000
  191.4030  176.3460  137.9240 N   0  0  0  0  0  0  0  0  0  0  0  0
  191.3450  174.2350  136.6730 C   0  0  0  0  0  0  0  0  0  0  0  0
  189.4060  175.6920  136.9240 C   0  0  0  0  0  0  0  0  0  0  0  0
  187.1850  174.8500  136.2950 O   0  0  0  0  0  0  0  0  0  0  0  0
  193.5240  175.1880  137.5790 C   0  0  0  0  0  2  0  0  0  0  0  0
  188.7590  178.1950  136.8120 C   0  0  2  0  0  3  0  0  0  0  0  0
  187.2740  180.0790  136.5950 O   0  0  0  0  0  1  0  0  0  0  0  0
  192.7630  173.9350  137.0920 C   0  0  0  0  0  2  0  0  0  0  0  0
  189.1540  173.5020  135.9120 C   0  0  0  0  0  3  0  0  0  0  0  0
  186.1730  178.0420  137.2630 C   0  0  2  0  0  3  0  0  0  0  0  0
  190.7470  175.4210  137.0960 C   0  0  0  0  0  0  0  0  0  0  0  0
  185.8280  179.1250  139.3580 F   0  0  0  0  0  0  0  0  0  0  0  0
  185.6130  176.7480  136.6540 C   0  0  2  0  0  3  0  0  0  0  0  0
  186.5870  175.9980  135.7920 C   0  0  0  0  0  0  0  0  0  0  0  0
  192.6820  176.0390  138.5490 C   0  0  0  0  0  2  0  0  0  0  0  0
  189.0420  176.9470  137.7120 C   0  0  2  0  0  0  0  0  0  0  0  0
  187.3350  178.6860  136.4970 C   0  0  2  0  0  3  0  0  0  0  0  0
  190.3620  177.1860  138.4160 C   0  0  0  0  0  0  0  0  0  0  0  0
  190.5330  173.2670  136.0680 C   0  0  0  0  0  3  0  0  0  0  0  0
  187.6510  177.7890  139.1940 O   0  0  0  0  0  0  0  0  0  0  0  0
  186.3210  177.9710  138.7890 C   0  0  2  0  0  3  0  0  0  0  0  0
  188.0330  176.6480  138.6510 O   0  0  0  0  0  0  0  0  0  0  0  0
  186.9390  176.4480  134.6650 O   0  0  0  0  0  0  0  0  0  0  0  0
  189.5710  178.2350  135.6710 O   0  0  0  0  0  1  0  0  0  0  0  0
  188.5720  174.7060  136.3550 C   0  0  0  0  0  0  0  0  0  0  0  0
  190.5410  178.0370  139.3280 O   0  0  0  0  0  0  0  0  0  0  0  0
  184.2470  176.9610  135.9970 C   0  0  0  0  0  2  0  0  0  0  0  0
  182.6080  175.2640  138.8560 C   0  0  0  0  0  2  0  0  0  0  0  0
  183.1550  176.6500  136.9100 N   0  0  0  0  0  0  0  0  0  0  0  0
  183.6660  175.6200  137.8130 C   0  0  0  0  0  2  0  0  0  0  0  0
  182.5570  177.6630  139.0440 O   0  0  0  0  0  0  0  0  0  0  0  0
  181.7310  178.6620  137.0050 C   0  0  0  0  0  1  0  0  0  0  0  0
  182.8550  177.8830  137.6720 C   0  0  2  0  0  3  0  0  0  0  0  0
  181.7730  176.5000  139.1720 C   0  0  0  0  0  2  0  0  0  0  0  0
  1 18  1  0  0  0  0
  1 15  1  0  0  0  0
  2  8  1  0  0  0  0
  2 11  1  0  0  0  0
  3 11  2  0  0  0  0
  3 16  1  0  0  0  0
  4 25  1  0  0  0  0
  5 15  1  0  0  0  0
  6 24  1  6  0  0  0
  6 16  1  0  0  0  0
  8  5  1  0  0  0  0
  9 19  1  0  0  0  0
  9 25  2  0  0  0  0
 10 21  1  0  0  0  0
 11  1  1  0  0  0  0
 13 10  1  0  0  0  0
 14  4  1  0  0  0  0
 14 13  1  0  0  0  0
 16 18  1  0  0  0  0
 16 22  1  0  0  0  0
 17  7  1  0  0  0  0
 17  6  1  0  0  0  0
 17 10  1  0  0  0  0
 18 26  2  0  0  0  0
 19  2  2  0  0  0  0
 21 20  1  0  0  0  0
 21 12  1  0  0  0  0
 22 20  1  0  0  0  0
 23 14  2  0  0  0  0
 25  3  1  0  0  0  0
 27 13  1  0  0  0  0
 27 29  1  0  0  0  0
 28 34  1  0  0  0  0
 29 33  1  0  0  0  0
 29 30  1  0  0  0  0
 30 28  1  0  0  0  0
 31 34  1  0  0  0  0
 32 33  1  0  0  0  0
 33 31  1  0  0  0  0
M  END
>  <MODEL>
8

>  <REMARK>
 VINA RESULT:      -6.0      4.700      8.115
  Name = 
  2 active torsions:
  status: ('A' for Active; 'I' for Inactive)
    1  A    between atoms: C_3  and  N_13
    2  A    between atoms: C_3  and  C_17
                            x       y       z     vdW  Elec       q    Type
                         _______ _______ _______ _____ _____    ______ ____

>  <TORSDO>
F 2

$$$$
=
 OpenBabel10272400093D

 34 39  0  0  1  0  0  0  0  0999 V2000
  192.2820  175.5410  135.4960 N   0  0  0  0  0  0  0  0  0  0  0  0
  194.1200  175.3100  137.1070 C   0  0  0  0  0  0  0  0  0  0  0  0
  191.9330  176.2110  137.6970 C   0  0  0  0  0  0  0  0  0  0  0  0
  191.6480  177.3480  139.8570 O   0  0  0  0  0  0  0  0  0  0  0  0
  194.2890  174.3680  134.7480 C   0  0  0  0  0  2  0  0  0  0  0  0
  189.4140  175.7430  137.3330 C   0  0  2  0  0  3  0  0  0  0  0  0
  187.0560  175.8940  137.7980 O   0  0  0  0  0  1  0  0  0  0  0  0
  195.0450  174.8570  136.0040 C   0  0  0  0  0  2  0  0  0  0  0  0
  193.7520  176.2980  139.2990 C   0  0  0  0  0  3  0  0  0  0  0  0
  188.3550  177.6800  138.7610 C   0  0  2  0  0  3  0  0  0  0  0  0
  192.7950  175.6130  136.8010 C   0  0  0  0  0  0  0  0  0  0  0  0
  187.2470  179.0930  137.1940 F   0  0  0  0  0  0  0  0  0  0  0  0
  189.2390  177.9700  139.9830 C   0  0  2  0  0  3  0  0  0  0  0  0
  190.3500  176.9820  140.1920 C   0  0  0  0  0  0  0  0  0  0  0  0
  193.1500  175.3260  134.3460 C   0  0  0  0  0  2  0  0  0  0  0  0
  190.6560  176.6210  136.9680 C   0  0  2  0  0  0  0  0  0  0  0  0
  188.3180  176.2170  138.3040 C   0  0  2  0  0  3  0  0  0  0  0  0
  191.0590  176.2700  135.5500 C   0  0  0  0  0  0  0  0  0  0  0  0
  194.5990  175.6550  138.3780 C   0  0  0  0  0  3  0  0  0  0  0  0
  189.2740  178.2890  136.5790 O   0  0  0  0  0  0  0  0  0  0  0  0
  188.4950  178.7350  137.6560 C   0  0  2  0  0  3  0  0  0  0  0  0
  190.4590  178.0130  137.0910 O   0  0  0  0  0  0  0  0  0  0  0  0
  190.1080  175.8020  140.5710 O   0  0  0  0  0  0  0  0  0  0  0  0
  189.7480  174.4020  137.5650 O   0  0  0  0  0  1  0  0  0  0  0  0
  192.4170  176.6010  138.9640 C   0  0  0  0  0  0  0  0  0  0  0  0
  190.3920  176.5690  134.5240 O   0  0  0  0  0  0  0  0  0  0  0  0
  188.4150  178.2450  141.2430 C   0  0  0  0  0  2  0  0  0  0  0  0
  190.7350  178.6250  144.1080 C   0  0  0  0  0  2  0  0  0  0  0  0
  189.1170  177.8280  142.4490 N   0  0  0  0  0  0  0  0  0  0  0  0
  189.9920  178.9410  142.8120 C   0  0  0  0  0  2  0  0  0  0  0  0
  188.4940  178.0730  144.7930 O   0  0  0  0  0  0  0  0  0  0  0  0
  187.6710  176.1650  143.5590 C   0  0  0  0  0  1  0  0  0  0  0  0
  188.0980  177.6240  143.5030 C   0  0  2  0  0  3  0  0  0  0  0  0
  189.8520  177.7590  144.9990 C   0  0  0  0  0  2  0  0  0  0  0  0
  1 18  1  0  0  0  0
  1 11  1  0  0  0  0
  2 19  1  0  0  0  0
  3 25  2  0  0  0  0
  4 14  1  0  0  0  0
  5  8  1  0  0  0  0
  6 24  1  1  0  0  0
  6 17  1  0  0  0  0
  7 17  1  0  0  0  0
  8  2  1  0  0  0  0
 10 13  1  0  0  0  0
 11  2  2  0  0  0  0
 11  3  1  0  0  0  0
 12 21  1  0  0  0  0
 13 14  1  0  0  0  0
 13 27  1  0  0  0  0
 14 23  2  0  0  0  0
 15  5  1  0  0  0  0
 15  1  1  0  0  0  0
 16 22  1  0  0  0  0
 16  6  1  0  0  0  0
 16  3  1  0  0  0  0
 17 10  1  0  0  0  0
 18 16  1  0  0  0  0
 19  9  2  0  0  0  0
 20 22  1  0  0  0  0
 20 21  1  0  0  0  0
 21 10  1  0  0  0  0
 25  9  1  0  0  0  0
 25  4  1  0  0  0  0
 26 18  2  0  0  0  0
 27 29  1  0  0  0  0
 28 34  1  0  0  0  0
 29 30  1  0  0  0  0
 29 33  1  0  0  0  0
 30 28  1  0  0  0  0
 31 34  1  0  0  0  0
 33 32  1  0  0  0  0
 33 31  1  0  0  0  0
M  END
>  <MODEL>
9

>  <REMARK>
 VINA RESULT:      -5.9      2.900      8.491
  Name = 
  2 active torsions:
  status: ('A' for Active; 'I' for Inactive)
    1  A    between atoms: C_3  and  N_13
    2  A    between atoms: C_3  and  C_17
                            x       y       z     vdW  Elec       q    Type
                         _______ _______ _______ _____ _____    ______ ____

>  <TORSDO>
F 2

$$$$
