=
 OpenBabel10272400133D

 31 35  0  0  1  0  0  0  0  0999 V2000
  190.5010  176.9080  146.0500 C   0  0  0  0  0  0  0  0  0  0  0  0
  187.9100  177.6480  143.3410 C   0  0  0  0  0  0  0  0  0  0  0  0
  186.6570  177.7950  144.0060 C   0  0  0  0  0  0  0  0  0  0  0  0
  186.0970  178.3490  146.3490 C   0  0  0  0  0  3  0  0  0  0  0  0
  189.1720  177.2240  144.0300 C   0  0  0  0  0  0  0  0  0  0  0  0
  191.6000  176.5270  145.2810 C   0  0  0  0  0  3  0  0  0  0  0  0
  186.4510  177.2630  145.3920 C   0  0  0  0  0  2  0  0  0  0  0  0
  189.2260  177.7230  141.2460 N   0  0  0  0  0  0  0  0  0  0  0  0
  190.6030  176.9420  147.4690 N   0  0  0  0  0  1  0  0  0  0  0  0
  185.6660  178.6210  141.9490 C   0  0  0  0  0  3  0  0  0  0  0  0
  184.9620  179.0390  146.2630 C   0  0  0  0  0  3  0  0  0  0  0  0
  190.2320  176.8060  141.7710 C   0  0  0  0  0  2  0  0  0  0  0  0
  187.9920  177.9420  141.9600 C   0  0  0  0  0  0  0  0  0  0  0  0
  189.3020  177.2600  145.4280 C   0  0  0  0  0  3  0  0  0  0  0  0
  183.9670  178.8840  145.1870 C   0  0  0  0  0  3  0  0  0  0  0  0
  190.3020  176.8660  143.2620 C   0  0  0  0  0  0  0  0  0  0  0  0
  191.4990  176.5050  143.8890 C   0  0  0  0  0  3  0  0  0  0  0  0
  186.8690  178.4330  141.2840 C   0  0  0  0  0  3  0  0  0  0  0  0
  185.5460  178.3180  143.3030 C   0  0  0  0  0  0  0  0  0  0  0  0
  184.2210  178.5640  143.9130 C   0  0  0  0  0  3  0  0  0  0  0  0
  189.4530  178.2800  139.9170 C   0  0  0  0  0  2  0  0  0  0  0  0
  190.3790  176.7430  138.3450 O   0  0  0  0  0  1  0  0  0  0  0  0
  189.1740  177.2410  138.8430 C   0  0  2  0  0  3  0  0  0  0  0  0
  188.3760  177.8800  137.7200 C   0  0  0  0  0  2  0  0  0  0  0  0
  185.2180  175.6110  137.0040 C   0  0  0  0  0  0  0  0  0  0  0  0
  185.6090  179.0170  138.1830 O   0  0  0  0  0  1  0  0  0  0  0  0
  184.3520  174.4700  136.6080 C   0  0  0  0  0  1  0  0  0  0  0  0
  186.9010  175.5980  136.9760 S   0  0  0  0  0  0  0  0  0  0  0  0
  185.8140  177.7180  137.7360 C   0  0  0  0  0  0  0  0  0  0  0  0
  187.0760  177.1730  137.5380 C   0  0  0  0  0  0  0  0  0  0  0  0
  184.7590  176.8460  137.4420 C   0  0  0  0  0  3  0  0  0  0  0  0
  1  9  1  0  0  0  0
  2  3  1  0  0  0  0
  2  5  1  0  0  0  0
  3  7  1  0  0  0  0
  5 14  2  0  0  0  0
  6  1  2  0  0  0  0
  7  4  1  0  0  0  0
  8 12  1  0  0  0  0
  8 13  1  0  0  0  0
 10 19  1  0  0  0  0
 11  4  2  0  0  0  0
 12 16  1  0  0  0  0
 13  2  2  0  0  0  0
 14  1  1  0  0  0  0
 15 11  1  0  0  0  0
 16 17  2  0  0  0  0
 16  5  1  0  0  0  0
 17  6  1  0  0  0  0
 18 10  2  0  0  0  0
 18 13  1  0  0  0  0
 19 20  1  0  0  0  0
 19  3  2  0  0  0  0
 20 15  2  0  0  0  0
 21  8  1  0  0  0  0
 23 22  1  6  0  0  0
 23 21  1  0  0  0  0
 24 23  1  0  0  0  0
 25 31  2  0  0  0  0
 27 25  1  0  0  0  0
 28 25  1  0  0  0  0
 28 30  1  0  0  0  0
 29 26  1  0  0  0  0
 30 24  1  0  0  0  0
 30 29  2  0  0  0  0
 31 29  1  0  0  0  0
M  END
>  <MODEL>
1

>  <REMARK>
 VINA RESULT:     -10.6      0.000      0.000
  Name = 
  4 active torsions:
  status: ('A' for Active; 'I' for Inactive)
    1  A    between atoms: C_3  and  C_9
    2  A    between atoms: C_3  and  C_22
    3  A    between atoms: C_9  and  C_23
    4  A    between atoms: N_15  and  C_23
                            x       y       z     vdW  Elec       q    Type
                         _______ _______ _______ _____ _____    ______ ____

>  <TORSDO>
F 4

$$$$
=
 OpenBabel10272400133D

 31 35  0  0  1  0  0  0  0  0999 V2000
  190.4850  176.9210  146.3770 C   0  0  0  0  0  0  0  0  0  0  0  0
  188.0390  177.5180  143.5020 C   0  0  0  0  0  0  0  0  0  0  0  0
  186.7630  177.7480  144.0950 C   0  0  0  0  0  0  0  0  0  0  0  0
  186.1160  178.4960  146.3610 C   0  0  0  0  0  3  0  0  0  0  0  0
  189.2560  177.1160  144.2790 C   0  0  0  0  0  0  0  0  0  0  0  0
  191.6050  176.4540  145.6910 C   0  0  0  0  0  3  0  0  0  0  0  0
  186.4800  177.3300  145.5060 C   0  0  0  0  0  2  0  0  0  0  0  0
  189.4480  177.3970  141.4710 N   0  0  0  0  0  0  0  0  0  0  0  0
  190.5240  177.0620  147.7920 N   0  0  0  0  0  1  0  0  0  0  0  0
  185.8890  178.4390  141.9380 C   0  0  0  0  0  3  0  0  0  0  0  0
  185.0070  179.2060  146.1700 C   0  0  0  0  0  3  0  0  0  0  0  0
  190.4020  176.4980  142.1090 C   0  0  0  0  0  2  0  0  0  0  0  0
  188.1900  177.7020  142.1080 C   0  0  0  0  0  0  0  0  0  0  0  0
  189.3250  177.2560  145.6750 C   0  0  0  0  0  3  0  0  0  0  0  0
  184.0560  178.9940  145.0640 C   0  0  0  0  0  3  0  0  0  0  0  0
  190.4080  176.6710  143.5940 C   0  0  0  0  0  0  0  0  0  0  0  0
  191.5650  176.3270  144.3010 C   0  0  0  0  0  3  0  0  0  0  0  0
  187.1140  178.1690  141.3460 C   0  0  0  0  0  3  0  0  0  0  0  0
  185.7000  178.2440  143.3040 C   0  0  0  0  0  0  0  0  0  0  0  0
  184.3570  178.5710  143.8310 C   0  0  0  0  0  3  0  0  0  0  0  0
  189.7500  177.8440  140.1150 C   0  0  0  0  0  2  0  0  0  0  0  0
  192.0490  177.3060  139.7710 O   0  0  0  0  0  1  0  0  0  0  0  0
  190.7490  176.9100  139.4520 C   0  0  2  0  0  3  0  0  0  0  0  0
  190.5530  176.9510  137.9460 C   0  0  0  0  0  2  0  0  0  0  0  0
  187.7360  174.3930  136.8700 C   0  0  0  0  0  0  0  0  0  0  0  0
  191.2910  174.0500  137.4910 O   0  0  0  0  0  1  0  0  0  0  0  0
  186.4220  173.8010  136.5090 C   0  0  0  0  0  1  0  0  0  0  0  0
  187.9920  176.0160  137.2390 S   0  0  0  0  0  0  0  0  0  0  0  0
  189.9960  174.5230  137.3260 C   0  0  0  0  0  0  0  0  0  0  0  0
  189.6430  175.8530  137.5100 C   0  0  0  0  0  0  0  0  0  0  0  0
  188.9300  173.6910  136.9610 C   0  0  0  0  0  3  0  0  0  0  0  0
  1  9  1  0  0  0  0
  2  3  1  0  0  0  0
  2  5  1  0  0  0  0
  3  7  1  0  0  0  0
  5 14  1  0  0  0  0
  6  1  1  0  0  0  0
  7  4  1  0  0  0  0
  8 13  1  0  0  0  0
  8 12  1  0  0  0  0
 10 19  1  0  0  0  0
 11  4  2  0  0  0  0
 12 16  1  0  0  0  0
 13  2  2  0  0  0  0
 14  1  2  0  0  0  0
 15 11  1  0  0  0  0
 16  5  2  0  0  0  0
 16 17  1  0  0  0  0
 17  6  2  0  0  0  0
 18 10  2  0  0  0  0
 18 13  1  0  0  0  0
 19 20  1  0  0  0  0
 19  3  2  0  0  0  0
 20 15  2  0  0  0  0
 21  8  1  0  0  0  0
 23 22  1  6  0  0  0
 23 21  1  0  0  0  0
 24 23  1  0  0  0  0
 25 31  2  0  0  0  0
 25 28  1  0  0  0  0
 27 25  1  0  0  0  0
 28 30  1  0  0  0  0
 29 26  1  0  0  0  0
 29 30  2  0  0  0  0
 30 24  1  0  0  0  0
 31 29  1  0  0  0  0
M  END
>  <MODEL>
2

>  <REMARK>
 VINA RESULT:     -10.2      1.880      2.209
  Name = 
  4 active torsions:
  status: ('A' for Active; 'I' for Inactive)
    1  A    between atoms: C_3  and  C_9
    2  A    between atoms: C_3  and  C_22
    3  A    between atoms: C_9  and  C_23
    4  A    between atoms: N_15  and  C_23
                            x       y       z     vdW  Elec       q    Type
                         _______ _______ _______ _____ _____    ______ ____

>  <TORSDO>
F 4

$$$$
=
 OpenBabel10272400133D

 31 35  0  0  1  0  0  0  0  0999 V2000
  190.6480  176.8980  145.4550 C   0  0  0  0  0  0  0  0  0  0  0  0
  187.7740  177.6860  143.0620 C   0  0  0  0  0  0  0  0  0  0  0  0
  186.6030  177.8210  143.8640 C   0  0  0  0  0  0  0  0  0  0  0  0
  186.3080  178.3360  146.2650 C   0  0  0  0  0  3  0  0  0  0  0  0
  189.1040  177.2500  143.6000 C   0  0  0  0  0  0  0  0  0  0  0  0
  191.6540  176.5300  144.5620 C   0  0  0  0  0  3  0  0  0  0  0  0
  186.5500  177.2660  145.2550 C   0  0  0  0  0  2  0  0  0  0  0  0
  188.8500  177.7960  140.8360 N   0  0  0  0  0  0  0  0  0  0  0  0
  190.9060  176.9080  146.8530 N   0  0  0  0  0  1  0  0  0  0  0  0
  185.3920  178.6830  141.9450 C   0  0  0  0  0  3  0  0  0  0  0  0
  185.1720  179.0270  146.3160 C   0  0  0  0  0  3  0  0  0  0  0  0
  189.9060  176.8700  141.2300 C   0  0  0  0  0  2  0  0  0  0  0  0
  187.7030  178.0030  141.6860 C   0  0  0  0  0  0  0  0  0  0  0  0
  189.3880  177.2610  144.9760 C   0  0  0  0  0  3  0  0  0  0  0  0
  184.0630  178.8910  145.3550 C   0  0  0  0  0  3  0  0  0  0  0  0
  190.1410  176.9050  142.7060 C   0  0  0  0  0  0  0  0  0  0  0  0
  191.3990  176.5320  143.1900 C   0  0  0  0  0  3  0  0  0  0  0  0
  186.5140  178.5060  141.1470 C   0  0  0  0  0  3  0  0  0  0  0  0
  185.4220  178.3570  143.2980 C   0  0  0  0  0  0  0  0  0  0  0  0
  184.1730  178.5920  144.0550 C   0  0  0  0  0  3  0  0  0  0  0  0
  188.9300  178.3760  139.4990 C   0  0  0  0  0  2  0  0  0  0  0  0
  190.0180  177.9660  137.4160 O   0  0  0  0  0  1  0  0  0  0  0  0
  189.3840  177.3360  138.4890 C   0  0  2  0  0  3  0  0  0  0  0  0
  188.1780  176.5590  137.9900 C   0  0  0  0  0  2  0  0  0  0  0  0
  189.5940  173.8900  135.4380 C   0  0  0  0  0  0  0  0  0  0  0  0
  187.2960  176.6730  135.0960 O   0  0  0  0  0  1  0  0  0  0  0  0
  190.3520  172.7570  134.8470 C   0  0  0  0  0  1  0  0  0  0  0  0
  189.6540  174.3480  137.0570 S   0  0  0  0  0  0  0  0  0  0  0  0
  188.1770  175.7080  135.5680 C   0  0  0  0  0  0  0  0  0  0  0  0
  188.5760  175.6280  136.8950 C   0  0  0  0  0  0  0  0  0  0  0  0
  188.7410  174.7320  134.7380 C   0  0  0  0  0  3  0  0  0  0  0  0
  1  9  1  0  0  0  0
  2  5  1  0  0  0  0
  2  3  1  0  0  0  0
  3  7  1  0  0  0  0
  4 11  2  0  0  0  0
  5 14  2  0  0  0  0
  6  1  2  0  0  0  0
  7  4  1  0  0  0  0
  8 12  1  0  0  0  0
  8 13  1  0  0  0  0
 10 19  1  0  0  0  0
 12 16  1  0  0  0  0
 13  2  2  0  0  0  0
 14  1  1  0  0  0  0
 15 11  1  0  0  0  0
 16 17  2  0  0  0  0
 16  5  1  0  0  0  0
 17  6  1  0  0  0  0
 18 13  1  0  0  0  0
 18 10  2  0  0  0  0
 19  3  2  0  0  0  0
 19 20  1  0  0  0  0
 20 15  2  0  0  0  0
 21  8  1  0  0  0  0
 23 22  1  6  0  0  0
 23 21  1  0  0  0  0
 24 23  1  0  0  0  0
 25 28  1  0  0  0  0
 26 29  1  0  0  0  0
 27 25  1  0  0  0  0
 29 30  2  0  0  0  0
 30 28  1  0  0  0  0
 30 24  1  0  0  0  0
 31 25  2  0  0  0  0
 31 29  1  0  0  0  0
M  END
>  <MODEL>
3

>  <REMARK>
 VINA RESULT:      -9.9      1.998      2.197
  Name = 
  4 active torsions:
  status: ('A' for Active; 'I' for Inactive)
    1  A    between atoms: C_3  and  C_9
    2  A    between atoms: C_3  and  C_22
    3  A    between atoms: C_9  and  C_23
    4  A    between atoms: N_15  and  C_23
                            x       y       z     vdW  Elec       q    Type
                         _______ _______ _______ _____ _____    ______ ____

>  <TORSDO>
F 4

$$$$
=
 OpenBabel10272400133D

 31 35  0  0  1  0  0  0  0  0999 V2000
  190.4890  176.9170  145.7880 C   0  0  0  0  0  0  0  0  0  0  0  0
  187.9410  177.6780  143.0440 C   0  0  0  0  0  0  0  0  0  0  0  0
  186.6770  177.8170  143.6900 C   0  0  0  0  0  0  0  0  0  0  0  0
  186.0790  178.3500  146.0290 C   0  0  0  0  0  3  0  0  0  0  0  0
  189.1920  177.2500  143.7500 C   0  0  0  0  0  0  0  0  0  0  0  0
  191.6000  176.5440  145.0330 C   0  0  0  0  0  3  0  0  0  0  0  0
  186.4490  177.2730  145.0680 C   0  0  0  0  0  2  0  0  0  0  0  0
  189.2900  177.7740  140.9710 N   0  0  0  0  0  0  0  0  0  0  0  0
  190.5680  176.9380  147.2080 N   0  0  0  0  0  1  0  0  0  0  0  0
  185.7180  178.6610  141.6260 C   0  0  0  0  0  3  0  0  0  0  0  0
  184.9450  179.0390  145.9310 C   0  0  0  0  0  3  0  0  0  0  0  0
  190.2880  176.8530  141.5040 C   0  0  0  0  0  2  0  0  0  0  0  0
  188.0440  177.9850  141.6670 C   0  0  0  0  0  0  0  0  0  0  0  0
  189.2990  177.2730  145.1500 C   0  0  0  0  0  3  0  0  0  0  0  0
  183.9670  178.8930  144.8380 C   0  0  0  0  0  3  0  0  0  0  0  0
  190.3350  176.9000  142.9970 C   0  0  0  0  0  0  0  0  0  0  0  0
  191.5220  176.5340  143.6400 C   0  0  0  0  0  3  0  0  0  0  0  0
  186.9320  178.4810  140.9780 C   0  0  0  0  0  3  0  0  0  0  0  0
  185.5770  178.3460  142.9750 C   0  0  0  0  0  0  0  0  0  0  0  0
  184.2420  178.5840  143.5650 C   0  0  0  0  0  3  0  0  0  0  0  0
  189.5380  178.3430  139.6510 C   0  0  0  0  0  2  0  0  0  0  0  0
  188.2170  176.6830  138.5600 O   0  0  0  0  0  1  0  0  0  0  0  0
  189.4860  177.2640  138.5820 C   0  0  2  0  0  3  0  0  0  0  0  0
  190.5320  176.2050  138.8840 C   0  0  0  0  0  2  0  0  0  0  0  0
  192.8780  175.8240  135.7250 C   0  0  0  0  0  0  0  0  0  0  0  0
  193.4490  176.9820  139.1130 O   0  0  0  0  0  1  0  0  0  0  0  0
  193.3800  175.5160  134.3600 C   0  0  0  0  0  1  0  0  0  0  0  0
  191.2890  175.6090  136.2380 S   0  0  0  0  0  0  0  0  0  0  0  0
  192.8960  176.5030  137.9310 C   0  0  0  0  0  0  0  0  0  0  0  0
  191.5570  176.1620  137.8030 C   0  0  0  0  0  0  0  0  0  0  0  0
  193.6500  176.3200  136.7660 C   0  0  0  0  0  3  0  0  0  0  0  0
  1  9  1  0  0  0  0
  2  3  1  0  0  0  0
  2  5  1  0  0  0  0
  3  7  1  0  0  0  0
  5 14  2  0  0  0  0
  6  1  2  0  0  0  0
  7  4  1  0  0  0  0
  8 12  1  0  0  0  0
  8 13  1  0  0  0  0
 10 19  1  0  0  0  0
 11  4  2  0  0  0  0
 12 16  1  0  0  0  0
 13  2  2  0  0  0  0
 14  1  1  0  0  0  0
 15 11  1  0  0  0  0
 16 17  2  0  0  0  0
 16  5  1  0  0  0  0
 17  6  1  0  0  0  0
 18 10  2  0  0  0  0
 18 13  1  0  0  0  0
 19 20  1  0  0  0  0
 19  3  2  0  0  0  0
 20 15  2  0  0  0  0
 21  8  1  0  0  0  0
 23 22  1  1  0  0  0
 23 24  1  0  0  0  0
 23 21  1  0  0  0  0
 25 28  1  0  0  0  0
 25 31  2  0  0  0  0
 27 25  1  0  0  0  0
 28 30  1  0  0  0  0
 29 26  1  0  0  0  0
 30 29  2  0  0  0  0
 30 24  1  0  0  0  0
 31 29  1  0  0  0  0
M  END
>  <MODEL>
4

>  <REMARK>
 VINA RESULT:      -9.8      2.230      3.603
  Name = 
  4 active torsions:
  status: ('A' for Active; 'I' for Inactive)
    1  A    between atoms: C_3  and  C_9
    2  A    between atoms: C_3  and  C_22
    3  A    between atoms: C_9  and  C_23
    4  A    between atoms: N_15  and  C_23
                            x       y       z     vdW  Elec       q    Type
                         _______ _______ _______ _____ _____    ______ ____

>  <TORSDO>
F 4

$$$$
=
 OpenBabel10272400133D

 31 35  0  0  1  0  0  0  0  0999 V2000
  185.0920  178.4870  144.6400 C   0  0  0  0  0  0  0  0  0  0  0  0
  188.6300  177.7060  143.4260 C   0  0  0  0  0  0  0  0  0  0  0  0
  189.4430  177.5910  144.5920 C   0  0  0  0  0  0  0  0  0  0  0  0
  188.8760  177.1040  146.9490 C   0  0  0  0  0  3  0  0  0  0  0  0
  187.1940  178.1330  143.4550 C   0  0  0  0  0  0  0  0  0  0  0  0
  184.4640  178.8350  143.4450 C   0  0  0  0  0  3  0  0  0  0  0  0
  188.9980  178.1610  145.9050 C   0  0  0  0  0  2  0  0  0  0  0  0
  188.4110  177.5600  140.9660 N   0  0  0  0  0  0  0  0  0  0  0  0
  184.3570  178.4890  145.8580 N   0  0  0  0  0  1  0  0  0  0  0  0
  191.2600  176.7210  143.2350 C   0  0  0  0  0  3  0  0  0  0  0  0
  189.9250  176.4260  147.4070 C   0  0  0  0  0  3  0  0  0  0  0  0
  187.2780  178.4790  140.9500 C   0  0  0  0  0  2  0  0  0  0  0  0
  189.1850  177.3740  142.1680 C   0  0  0  0  0  0  0  0  0  0  0  0
  186.4420  178.1330  144.6420 C   0  0  0  0  0  3  0  0  0  0  0  0
  191.3010  176.5640  146.8980 C   0  0  0  0  0  3  0  0  0  0  0  0
  186.5370  178.4570  142.2470 C   0  0  0  0  0  0  0  0  0  0  0  0
  185.1870  178.8220  142.2510 C   0  0  0  0  0  3  0  0  0  0  0  0
  190.4910  176.8780  142.0910 C   0  0  0  0  0  3  0  0  0  0  0  0
  190.7520  177.0620  144.4870 C   0  0  0  0  0  0  0  0  0  0  0  0
  191.6550  176.8470  145.6380 C   0  0  0  0  0  3  0  0  0  0  0  0
  188.8110  176.9660  139.6950 C   0  0  0  0  0  2  0  0  0  0  0  0
  189.0510  179.1830  138.8460 O   0  0  0  0  0  1  0  0  0  0  0  0
  189.6700  177.9320  138.8970 C   0  0  2  0  0  3  0  0  0  0  0  0
  189.8600  177.3940  137.4890 C   0  0  0  0  0  2  0  0  0  0  0  0
  192.7720  174.7200  137.5680 C   0  0  0  0  0  0  0  0  0  0  0  0
  189.2330  174.5110  136.8090 O   0  0  0  0  0  1  0  0  0  0  0  0
  194.1070  174.0810  137.6990 C   0  0  0  0  0  1  0  0  0  0  0  0
  192.4540  176.3510  137.8330 S   0  0  0  0  0  0  0  0  0  0  0  0
  190.5090  174.9320  137.1590 C   0  0  0  0  0  0  0  0  0  0  0  0
  190.8100  176.2450  137.4950 C   0  0  0  0  0  0  0  0  0  0  0  0
  191.6050  174.0630  137.2010 C   0  0  0  0  0  3  0  0  0  0  0  0
  1 14  1  0  0  0  0
  1  9  1  0  0  0  0
  2  5  1  0  0  0  0
  2  3  1  0  0  0  0
  3  7  1  0  0  0  0
  4 11  2  0  0  0  0
  5 14  2  0  0  0  0
  6  1  2  0  0  0  0
  7  4  1  0  0  0  0
  8 13  1  0  0  0  0
 10 19  1  0  0  0  0
 12  8  1  0  0  0  0
 12 16  1  0  0  0  0
 13  2  2  0  0  0  0
 15 11  1  0  0  0  0
 16 17  2  0  0  0  0
 16  5  1  0  0  0  0
 17  6  1  0  0  0  0
 18 13  1  0  0  0  0
 18 10  2  0  0  0  0
 19  3  2  0  0  0  0
 19 20  1  0  0  0  0
 20 15  2  0  0  0  0
 21  8  1  0  0  0  0
 23 22  1  6  0  0  0
 23 21  1  0  0  0  0
 24 30  1  0  0  0  0
 24 23  1  0  0  0  0
 25 27  1  0  0  0  0
 25 28  1  0  0  0  0
 26 29  1  0  0  0  0
 29 31  1  0  0  0  0
 29 30  2  0  0  0  0
 30 28  1  0  0  0  0
 31 25  2  0  0  0  0
M  END
>  <MODEL>
5

>  <REMARK>
 VINA RESULT:      -9.7      2.667      5.181
  Name = 
  4 active torsions:
  status: ('A' for Active; 'I' for Inactive)
    1  A    between atoms: C_3  and  C_9
    2  A    between atoms: C_3  and  C_22
    3  A    between atoms: C_9  and  C_23
    4  A    between atoms: N_15  and  C_23
                            x       y       z     vdW  Elec       q    Type
                         _______ _______ _______ _____ _____    ______ ____

>  <TORSDO>
F 4

$$$$
=
 OpenBabel10272400133D

 31 35  0  0  1  0  0  0  0  0999 V2000
  185.0590  178.4890  145.3360 C   0  0  0  0  0  0  0  0  0  0  0  0
  188.4520  177.7630  143.7330 C   0  0  0  0  0  0  0  0  0  0  0  0
  189.3710  177.5570  144.8040 C   0  0  0  0  0  0  0  0  0  0  0  0
  189.0240  176.9100  147.1650 C   0  0  0  0  0  3  0  0  0  0  0  0
  187.0310  178.2000  143.9310 C   0  0  0  0  0  0  0  0  0  0  0  0
  184.3250  178.9270  144.2350 C   0  0  0  0  0  3  0  0  0  0  0  0
  189.0630  178.0370  146.1900 C   0  0  0  0  0  2  0  0  0  0  0  0
  187.9940  177.7950  141.3020 N   0  0  0  0  0  0  0  0  0  0  0  0
  184.4440  178.4110  146.6160 N   0  0  0  0  0  1  0  0  0  0  0  0
  191.0340  176.7700  143.2200 C   0  0  0  0  0  3  0  0  0  0  0  0
  190.1010  176.1910  147.4710 C   0  0  0  0  0  3  0  0  0  0  0  0
  186.8800  178.7230  141.4590 C   0  0  0  0  0  2  0  0  0  0  0  0
  188.8770  177.5170  142.4070 C   0  0  0  0  0  0  0  0  0  0  0  0
  186.3970  178.1220  145.1820 C   0  0  0  0  0  3  0  0  0  0  0  0
  191.4240  176.3520  146.8410 C   0  0  0  0  0  3  0  0  0  0  0  0
  186.2670  178.6160  142.8180 C   0  0  0  0  0  0  0  0  0  0  0  0
  184.9290  178.9920  142.9780 C   0  0  0  0  0  3  0  0  0  0  0  0
  190.1610  177.0150  142.1690 C   0  0  0  0  0  3  0  0  0  0  0  0
  190.6540  177.0250  144.5350 C   0  0  0  0  0  0  0  0  0  0  0  0
  191.6600  176.7210  145.5760 C   0  0  0  0  0  3  0  0  0  0  0  0
  188.2610  177.2890  139.9590 C   0  0  0  0  0  2  0  0  0  0  0  0
  187.4470  178.7150  138.2280 O   0  0  0  0  0  1  0  0  0  0  0  0
  188.5710  178.4310  139.0060 C   0  0  2  0  0  3  0  0  0  0  0  0
  189.7320  178.0380  138.1090 C   0  0  0  0  0  2  0  0  0  0  0  0
  188.5620  174.8220  136.1290 C   0  0  0  0  0  0  0  0  0  0  0  0
  191.1310  175.4020  138.6200 O   0  0  0  0  0  1  0  0  0  0  0  0
  187.8230  173.9070  135.2210 C   0  0  0  0  0  1  0  0  0  0  0  0
  188.2520  176.4670  136.2990 S   0  0  0  0  0  0  0  0  0  0  0  0
  190.0950  175.5290  137.7040 C   0  0  0  0  0  0  0  0  0  0  0  0
  189.4560  176.7330  137.4420 C   0  0  0  0  0  0  0  0  0  0  0  0
  189.6020  174.4450  136.9680 C   0  0  0  0  0  3  0  0  0  0  0  0
  1  9  1  0  0  0  0
  2  5  1  0  0  0  0
  2  3  1  0  0  0  0
  3  7  1  0  0  0  0
  4 11  2  0  0  0  0
  5 14  2  0  0  0  0
  6  1  2  0  0  0  0
  7  4  1  0  0  0  0
  8 12  1  0  0  0  0
  8 13  1  0  0  0  0
 10 19  1  0  0  0  0
 12 16  1  0  0  0  0
 13  2  2  0  0  0  0
 14  1  1  0  0  0  0
 15 11  1  0  0  0  0
 16 17  2  0  0  0  0
 16  5  1  0  0  0  0
 17  6  1  0  0  0  0
 18 13  1  0  0  0  0
 18 10  2  0  0  0  0
 19  3  2  0  0  0  0
 19 20  1  0  0  0  0
 20 15  2  0  0  0  0
 21  8  1  0  0  0  0
 23 22  1  6  0  0  0
 23 21  1  0  0  0  0
 24 23  1  0  0  0  0
 25 28  1  0  0  0  0
 25 31  2  0  0  0  0
 27 25  1  0  0  0  0
 28 30  1  0  0  0  0
 29 26  1  0  0  0  0
 30 29  2  0  0  0  0
 30 24  1  0  0  0  0
 31 29  1  0  0  0  0
M  END
>  <MODEL>
6

>  <REMARK>
 VINA RESULT:      -9.5      2.055      4.590
  Name = 
  4 active torsions:
  status: ('A' for Active; 'I' for Inactive)
    1  A    between atoms: C_3  and  C_9
    2  A    between atoms: C_3  and  C_22
    3  A    between atoms: C_9  and  C_23
    4  A    between atoms: N_15  and  C_23
                            x       y       z     vdW  Elec       q    Type
                         _______ _______ _______ _____ _____    ______ ____

>  <TORSDO>
F 4

$$$$
=
 OpenBabel10272400133D

 31 35  0  0  1  0  0  0  0  0999 V2000
  185.2940  178.4240  142.9540 C   0  0  0  0  0  0  0  0  0  0  0  0
  189.0570  177.7800  143.1320 C   0  0  0  0  0  0  0  0  0  0  0  0
  189.3890  177.6930  144.5160 C   0  0  0  0  0  0  0  0  0  0  0  0
  188.0130  177.1790  146.5050 C   0  0  0  0  0  3  0  0  0  0  0  0
  187.6950  178.1530  142.6260 C   0  0  0  0  0  0  0  0  0  0  0  0
  185.1360  178.7510  141.6080 C   0  0  0  0  0  3  0  0  0  0  0  0
  188.4720  178.2420  145.5670 C   0  0  0  0  0  2  0  0  0  0  0  0
  189.7610  177.6330  140.7640 N   0  0  0  0  0  0  0  0  0  0  0  0
  184.1630  178.3950  143.8160 N   0  0  0  0  0  1  0  0  0  0  0  0
  191.6060  176.8970  143.9300 C   0  0  0  0  0  3  0  0  0  0  0  0
  188.8450  176.5390  147.3250 C   0  0  0  0  0  3  0  0  0  0  0  0
  188.6810  178.5080  140.3230 C   0  0  0  0  0  2  0  0  0  0  0  0
  190.0460  177.4730  142.1690 C   0  0  0  0  0  0  0  0  0  0  0  0
  186.5610  178.1210  143.4550 C   0  0  0  0  0  3  0  0  0  0  0  0
  190.3060  176.7310  147.3540 C   0  0  0  0  0  3  0  0  0  0  0  0
  187.5160  178.4550  141.2590 C   0  0  0  0  0  0  0  0  0  0  0  0
  186.2470  178.7680  140.7630 C   0  0  0  0  0  3  0  0  0  0  0  0
  191.3060  177.0270  142.5820 C   0  0  0  0  0  3  0  0  0  0  0  0
  190.6620  177.2140  144.9040 C   0  0  0  0  0  0  0  0  0  0  0  0
  191.0860  177.0310  146.3090 C   0  0  0  0  0  3  0  0  0  0  0  0
  190.6210  177.0580  139.7360 C   0  0  0  0  0  2  0  0  0  0  0  0
  190.5450  175.0380  138.4670 O   0  0  0  0  0  1  0  0  0  0  0  0
  189.8150  176.1850  138.7880 C   0  0  2  0  0  3  0  0  0  0  0  0
  189.5040  176.9670  137.5240 C   0  0  0  0  0  2  0  0  0  0  0  0
  185.7530  176.1510  136.5770 C   0  0  0  0  0  0  0  0  0  0  0  0
  187.5820  179.2500  137.0150 O   0  0  0  0  0  1  0  0  0  0  0  0
  184.5000  175.4230  136.2480 C   0  0  0  0  0  1  0  0  0  0  0  0
  187.2160  175.4190  136.9720 S   0  0  0  0  0  0  0  0  0  0  0  0
  187.1930  177.9190  136.9390 C   0  0  0  0  0  0  0  0  0  0  0  0
  188.0550  176.8600  137.1890 C   0  0  0  0  0  0  0  0  0  0  0  0
  185.8920  177.5320  136.5970 C   0  0  0  0  0  3  0  0  0  0  0  0
  1 14  1  0  0  0  0
  1  9  1  0  0  0  0
  2  3  1  0  0  0  0
  3 19  2  0  0  0  0
  3  7  1  0  0  0  0
  4 11  2  0  0  0  0
  5  2  1  0  0  0  0
  5 14  2  0  0  0  0
  6  1  2  0  0  0  0
  7  4  1  0  0  0  0
  8 13  1  0  0  0  0
 10 19  1  0  0  0  0
 11 15  1  0  0  0  0
 12  8  1  0  0  0  0
 12 16  1  0  0  0  0
 13 18  1  0  0  0  0
 13  2  2  0  0  0  0
 16  5  1  0  0  0  0
 17 16  2  0  0  0  0
 17  6  1  0  0  0  0
 18 10  2  0  0  0  0
 19 20  1  0  0  0  0
 20 15  2  0  0  0  0
 21  8  1  0  0  0  0
 23 22  1  6  0  0  0
 23 21  1  0  0  0  0
 24 23  1  0  0  0  0
 25 31  2  0  0  0  0
 25 28  1  0  0  0  0
 27 25  1  0  0  0  0
 28 30  1  0  0  0  0
 29 26  1  0  0  0  0
 29 30  2  0  0  0  0
 30 24  1  0  0  0  0
 31 29  1  0  0  0  0
M  END
>  <MODEL>
7

>  <REMARK>
 VINA RESULT:      -9.5      1.821      4.046
  Name = 
  4 active torsions:
  status: ('A' for Active; 'I' for Inactive)
    1  A    between atoms: C_3  and  C_9
    2  A    between atoms: C_3  and  C_22
    3  A    between atoms: C_9  and  C_23
    4  A    between atoms: N_15  and  C_23
                            x       y       z     vdW  Elec       q    Type
                         _______ _______ _______ _____ _____    ______ ____

>  <TORSDO>
F 4

$$$$
=
 OpenBabel10272400133D

 31 35  0  0  1  0  0  0  0  0999 V2000
  187.6290  178.1760  137.7540 C   0  0  0  0  0  0  0  0  0  0  0  0
  187.0310  178.0260  141.5250 C   0  0  0  0  0  0  0  0  0  0  0  0
  185.7090  178.5110  141.7460 C   0  0  0  0  0  0  0  0  0  0  0  0
  183.7460  178.6700  140.2520 C   0  0  0  0  0  3  0  0  0  0  0  0
  187.7080  178.0380  140.1870 C   0  0  0  0  0  0  0  0  0  0  0  0
  189.0020  177.9430  137.6850 C   0  0  0  0  0  3  0  0  0  0  0  0
  185.0020  179.3300  140.7090 C   0  0  0  0  0  2  0  0  0  0  0  0
  189.1160  177.0490  142.4320 N   0  0  0  0  0  0  0  0  0  0  0  0
  186.8800  178.3700  136.5610 N   0  0  0  0  0  1  0  0  0  0  0  0
  185.8290  177.7740  144.0570 C   0  0  0  0  0  3  0  0  0  0  0  0
  182.7030  178.4800  141.0560 C   0  0  0  0  0  3  0  0  0  0  0  0
  189.9160  177.5750  141.3320 C   0  0  0  0  0  2  0  0  0  0  0  0
  187.7490  177.4710  142.6110 C   0  0  0  0  0  0  0  0  0  0  0  0
  186.9890  178.2160  138.9940 C   0  0  0  0  0  3  0  0  0  0  0  0
  182.6800  178.8120  142.4920 C   0  0  0  0  0  3  0  0  0  0  0  0
  189.0920  177.7720  140.1010 C   0  0  0  0  0  0  0  0  0  0  0  0
  189.7320  177.7430  138.8580 C   0  0  0  0  0  3  0  0  0  0  0  0
  187.1340  177.3450  143.8610 C   0  0  0  0  0  3  0  0  0  0  0  0
  185.1040  178.3470  143.0150 C   0  0  0  0  0  0  0  0  0  0  0  0
  183.7200  178.7620  143.3330 C   0  0  0  0  0  3  0  0  0  0  0  0
  189.7950  176.2090  143.4140 C   0  0  0  0  0  2  0  0  0  0  0  0
  191.9820  175.3120  143.7350 O   0  0  0  0  0  1  0  0  0  0  0  0
  191.2900  176.4810  143.4110 C   0  0  2  0  0  3  0  0  0  0  0  0
  191.6070  177.5650  144.4260 C   0  0  0  0  0  2  0  0  0  0  0  0
  189.2060  177.4170  147.5640 C   0  0  0  0  0  0  0  0  0  0  0  0
  192.3570  175.8070  146.7740 O   0  0  0  0  0  1  0  0  0  0  0  0
  188.0770  177.6640  148.4980 C   0  0  0  0  0  1  0  0  0  0  0  0
  189.3670  178.1180  146.0420 S   0  0  0  0  0  0  0  0  0  0  0  0
  191.1900  176.5610  146.7510 C   0  0  0  0  0  0  0  0  0  0  0  0
  190.8210  177.3560  145.6750 C   0  0  0  0  0  0  0  0  0  0  0  0
  190.2870  176.5840  147.8200 C   0  0  0  0  0  3  0  0  0  0  0  0
  1 14  1  0  0  0  0
  2  3  2  0  0  0  0
  2 13  1  0  0  0  0
  3 19  1  0  0  0  0
  4  7  1  0  0  0  0
  4 11  2  0  0  0  0
  5  2  1  0  0  0  0
  6  1  2  0  0  0  0
  6 17  1  0  0  0  0
  7  3  1  0  0  0  0
  8 13  1  0  0  0  0
  8 21  1  0  0  0  0
  9  1  1  0  0  0  0
 11 15  1  0  0  0  0
 12  8  1  0  0  0  0
 13 18  2  0  0  0  0
 14  5  2  0  0  0  0
 15 20  2  0  0  0  0
 16  5  1  0  0  0  0
 16 12  1  0  0  0  0
 17 16  2  0  0  0  0
 18 10  1  0  0  0  0
 19 20  1  0  0  0  0
 19 10  2  0  0  0  0
 23 21  1  0  0  0  0
 23 22  1  1  0  0  0
 23 24  1  0  0  0  0
 24 30  1  0  0  0  0
 25 31  2  0  0  0  0
 25 27  1  0  0  0  0
 28 25  1  0  0  0  0
 29 26  1  0  0  0  0
 29 31  1  0  0  0  0
 30 28  1  0  0  0  0
 30 29  2  0  0  0  0
M  END
>  <MODEL>
8

>  <REMARK>
 VINA RESULT:      -8.9      3.246      6.980
  Name = 
  4 active torsions:
  status: ('A' for Active; 'I' for Inactive)
    1  A    between atoms: C_3  and  C_9
    2  A    between atoms: C_3  and  C_22
    3  A    between atoms: C_9  and  C_23
    4  A    between atoms: N_15  and  C_23
                            x       y       z     vdW  Elec       q    Type
                         _______ _______ _______ _____ _____    ______ ____

>  <TORSDO>
F 4

$$$$
=
 OpenBabel10272400133D

 31 35  0  0  1  0  0  0  0  0999 V2000
  189.4640  177.3820  146.6000 C   0  0  0  0  0  0  0  0  0  0  0  0
  187.6370  177.7640  143.2650 C   0  0  0  0  0  0  0  0  0  0  0  0
  186.2530  177.9160  143.5750 C   0  0  0  0  0  0  0  0  0  0  0  0
  185.1030  178.6530  145.6360 C   0  0  0  0  0  3  0  0  0  0  0  0
  188.6880  177.4590  144.2890 C   0  0  0  0  0  0  0  0  0  0  0  0
  190.7290  176.9820  146.1740 C   0  0  0  0  0  3  0  0  0  0  0  0
  185.7100  177.5020  144.9090 C   0  0  0  0  0  2  0  0  0  0  0  0
  189.4420  177.7090  141.5730 N   0  0  0  0  0  0  0  0  0  0  0  0
  189.1990  177.5470  147.9880 N   0  0  0  0  0  1  0  0  0  0  0  0
  185.8040  178.5120  141.2650 C   0  0  0  0  0  3  0  0  0  0  0  0
  184.0150  179.2820  145.1990 C   0  0  0  0  0  3  0  0  0  0  0  0
  190.2980  176.8870  142.4220 C   0  0  0  0  0  2  0  0  0  0  0  0
  188.0620  177.9370  141.9280 C   0  0  0  0  0  0  0  0  0  0  0  0
  188.4560  177.6250  145.6640 C   0  0  0  0  0  3  0  0  0  0  0  0
  183.3300  178.9880  143.9270 C   0  0  0  0  0  3  0  0  0  0  0  0
  189.9840  177.0830  143.8700 C   0  0  0  0  0  0  0  0  0  0  0  0
  190.9870  176.8310  144.8100 C   0  0  0  0  0  3  0  0  0  0  0  0
  187.1410  178.3170  140.9470 C   0  0  0  0  0  3  0  0  0  0  0  0
  185.3480  178.3260  142.5680 C   0  0  0  0  0  0  0  0  0  0  0  0
  183.9070  178.5670  142.7960 C   0  0  0  0  0  3  0  0  0  0  0  0
  189.9900  178.1550  140.2970 C   0  0  0  0  0  2  0  0  0  0  0  0
  191.4780  177.4030  138.5890 O   0  0  0  0  0  1  0  0  0  0  0  0
  190.5010  176.9730  139.4900 C   0  0  2  0  0  3  0  0  0  0  0  0
  189.3450  176.3420  138.7330 C   0  0  0  0  0  2  0  0  0  0  0  0
  190.6780  174.7830  135.3520 C   0  0  0  0  0  0  0  0  0  0  0  0
  189.4060  178.0600  136.2410 O   0  0  0  0  0  1  0  0  0  0  0  0
  191.2440  173.8430  134.3510 C   0  0  0  0  0  1  0  0  0  0  0  0
  190.3840  174.4090  136.9670 S   0  0  0  0  0  0  0  0  0  0  0  0
  189.8210  176.7340  136.2410 C   0  0  0  0  0  0  0  0  0  0  0  0
  189.7800  175.9260  137.3690 C   0  0  0  0  0  0  0  0  0  0  0  0
  190.3210  176.1010  135.0980 C   0  0  0  0  0  3  0  0  0  0  0  0
  1  9  1  0  0  0  0
  2  3  1  0  0  0  0
  2  5  1  0  0  0  0
  3  7  1  0  0  0  0
  5 14  1  0  0  0  0
  6  1  1  0  0  0  0
  7  4  1  0  0  0  0
  8 13  1  0  0  0  0
  8 12  1  0  0  0  0
 10 19  1  0  0  0  0
 11  4  2  0  0  0  0
 12 16  1  0  0  0  0
 13  2  2  0  0  0  0
 14  1  2  0  0  0  0
 15 11  1  0  0  0  0
 16  5  2  0  0  0  0
 16 17  1  0  0  0  0
 17  6  2  0  0  0  0
 18 10  2  0  0  0  0
 18 13  1  0  0  0  0
 19 20  1  0  0  0  0
 19  3  2  0  0  0  0
 20 15  2  0  0  0  0
 21  8  1  0  0  0  0
 23 22  1  6  0  0  0
 23 21  1  0  0  0  0
 24 23  1  0  0  0  0
 25 28  1  0  0  0  0
 27 25  1  0  0  0  0
 28 30  1  0  0  0  0
 29 26  1  0  0  0  0
 29 30  2  0  0  0  0
 30 24  1  0  0  0  0
 31 25  2  0  0  0  0
 31 29  1  0  0  0  0
M  END
>  <MODEL>
9

>  <REMARK>
 VINA RESULT:      -8.9      2.153      2.614
  Name = 
  4 active torsions:
  status: ('A' for Active; 'I' for Inactive)
    1  A    between atoms: C_3  and  C_9
    2  A    between atoms: C_3  and  C_22
    3  A    between atoms: C_9  and  C_23
    4  A    between atoms: N_15  and  C_23
                            x       y       z     vdW  Elec       q    Type
                         _______ _______ _______ _____ _____    ______ ____

>  <TORSDO>
F 4

$$$$
