=
 OpenBabel10272400463D

 25 28  0  0  1  0  0  0  0  0999 V2000
  187.4840  177.7870  145.6390 C   0  0  0  0  0  0  0  0  0  0  0  0
  188.7560  177.2590  145.3380 C   0  0  0  0  0  0  0  0  0  0  0  0
  188.0740  177.8840  147.9910 C   0  0  0  0  0  3  0  0  0  0  0  0
  186.4070  178.0580  144.7720 C   0  0  0  0  0  0  0  0  0  0  0  0
  184.0690  178.7150  143.3830 C   0  0  0  0  0  3  0  0  0  0  0  0
  189.3090  177.4040  147.6840 N   0  0  0  0  0  0  0  0  0  0  0  0
  185.2890  178.5550  145.4400 C   0  0  0  0  0  0  0  0  0  0  0  0
  184.1130  178.8880  144.7740 C   0  0  0  0  0  3  0  0  0  0  0  0
  191.0750  176.6930  146.1210 C   0  0  0  0  0  0  0  0  0  0  0  0
  191.9160  176.1230  147.2100 C   0  0  0  0  0  1  0  0  0  0  0  0
  189.2190  176.7250  143.6790 S   0  0  0  0  0  0  0  0  0  0  0  0
  185.1880  178.2180  142.6910 C   0  0  0  0  0  3  0  0  0  0  0  0
  187.1650  178.0850  146.9620 C   0  0  0  0  0  0  0  0  0  0  0  0
  185.5900  178.6720  147.0930 S   0  0  0  0  0  0  0  0  0  0  0  0
  191.5970  176.8450  144.9400 N   0  0  0  0  0  0  0  0  0  0  0  0
  186.3630  177.8880  143.3830 C   0  0  0  0  0  3  0  0  0  0  0  0
  190.8770  177.4610  143.8270 C   0  0  1  0  0  3  0  0  0  0  0  0
  189.6790  177.1020  146.4010 C   0  0  0  0  0  0  0  0  0  0  0  0
  191.6600  177.2940  142.5310 C   0  0  0  0  0  2  0  0  0  0  0  0
  190.8560  176.7340  141.5360 O   0  0  0  0  0  0  0  0  0  0  0  0
  191.3200  177.3030  140.3490 C   0  0  0  0  0  2  0  0  0  0  0  0
  190.2270  177.2620  139.2740 C   0  0  0  0  0  2  0  0  0  0  0  0
  189.3780  178.4620  139.2230 N   0  0  0  0  0  0  0  0  0  0  0  0
  189.0210  178.7600  137.8440 C   0  0  0  0  0  1  0  0  0  0  0  0
  188.1520  178.2520  139.9800 C   0  0  0  0  0  1  0  0  0  0  0  0
  1 13  1  0  0  0  0
  2  1  2  0  0  0  0
  2 18  1  0  0  0  0
  4  7  1  0  0  0  0
  4  1  1  0  0  0  0
  5  8  1  0  0  0  0
  6  3  1  0  0  0  0
  7 14  1  0  0  0  0
  8  7  2  0  0  0  0
  9 18  1  0  0  0  0
  9 10  1  0  0  0  0
 11 17  1  0  0  0  0
 11  2  1  0  0  0  0
 12  5  2  0  0  0  0
 12 16  1  0  0  0  0
 13 14  1  0  0  0  0
 13  3  2  0  0  0  0
 15  9  2  0  0  0  0
 16  4  2  0  0  0  0
 17 19  1  6  0  0  0
 17 15  1  0  0  0  0
 18  6  2  0  0  0  0
 20 19  1  0  0  0  0
 21 20  1  0  0  0  0
 22 21  1  0  0  0  0
 23 22  1  0  0  0  0
 23 25  1  0  0  0  0
 24 23  1  0  0  0  0
M  END
>  <MODEL>
1

>  <REMARK>
 VINA RESULT:      -9.4      0.000      0.000
  Name = 
  5 active torsions:
  status: ('A' for Active; 'I' for Inactive)
    1  A    between atoms: N_2  and  C_21
    2  A    between atoms: C_6  and  O_15
    3  A    between atoms: C_6  and  C_23
    4  A    between atoms: O_15  and  C_25
    5  A    between atoms: C_21  and  C_25
                            x       y       z     vdW  Elec       q    Type
                         _______ _______ _______ _____ _____    ______ ____

>  <TORSDO>
F 5

$$$$
=
 OpenBabel10272400463D

 25 28  0  0  1  0  0  0  0  0999 V2000
  187.4490  177.8040  145.5860 C   0  0  0  0  0  0  0  0  0  0  0  0
  188.7080  177.2720  145.2440 C   0  0  0  0  0  0  0  0  0  0  0  0
  188.1180  177.9020  147.9170 C   0  0  0  0  0  3  0  0  0  0  0  0
  186.3440  178.0780  144.7560 C   0  0  0  0  0  0  0  0  0  0  0  0
  183.9620  178.7410  143.4460 C   0  0  0  0  0  3  0  0  0  0  0  0
  189.3410  177.4180  147.5690 N   0  0  0  0  0  0  0  0  0  0  0  0
  185.2500  178.5790  145.4610 C   0  0  0  0  0  0  0  0  0  0  0  0
  184.0540  178.9150  144.8340 C   0  0  0  0  0  3  0  0  0  0  0  0
  191.0500  176.7000  145.9490 C   0  0  0  0  0  0  0  0  0  0  0  0
  191.9250  176.1280  147.0090 C   0  0  0  0  0  1  0  0  0  0  0  0
  189.1130  176.7340  143.5710 S   0  0  0  0  0  0  0  0  0  0  0  0
  185.0550  178.2390  142.7170 C   0  0  0  0  0  3  0  0  0  0  0  0
  187.1760  178.1050  146.9190 C   0  0  0  0  0  0  0  0  0  0  0  0
  185.6080  178.6980  147.1020 S   0  0  0  0  0  0  0  0  0  0  0  0
  191.5330  176.8480  144.7500 N   0  0  0  0  0  0  0  0  0  0  0  0
  186.2520  177.9060  143.3700 C   0  0  0  0  0  3  0  0  0  0  0  0
  190.7770  177.4650  143.6610 C   0  0  1  0  0  3  0  0  0  0  0  0
  189.6660  177.1130  146.2750 C   0  0  0  0  0  0  0  0  0  0  0  0
  191.5160  177.2930  142.3400 C   0  0  0  0  0  2  0  0  0  0  0  0
  190.6960  176.6770  141.3910 O   0  0  0  0  0  0  0  0  0  0  0  0
  191.0410  177.2840  140.1830 C   0  0  0  0  0  2  0  0  0  0  0  0
  190.2660  176.6460  139.0240 C   0  0  0  0  0  2  0  0  0  0  0  0
  190.8830  175.4290  138.4750 N   0  0  0  0  0  0  0  0  0  0  0  0
  190.0970  174.9340  137.3550 C   0  0  0  0  0  1  0  0  0  0  0  0
  192.2320  175.7090  138.0020 C   0  0  0  0  0  1  0  0  0  0  0  0
  1 13  1  0  0  0  0
  2  1  2  0  0  0  0
  2 18  1  0  0  0  0
  4  7  1  0  0  0  0
  4  1  1  0  0  0  0
  5  8  1  0  0  0  0
  6  3  1  0  0  0  0
  7 14  1  0  0  0  0
  8  7  2  0  0  0  0
  9 18  1  0  0  0  0
  9 10  1  0  0  0  0
 11 17  1  0  0  0  0
 11  2  1  0  0  0  0
 12 16  1  0  0  0  0
 12  5  2  0  0  0  0
 13 14  1  0  0  0  0
 13  3  2  0  0  0  0
 15  9  2  0  0  0  0
 16  4  2  0  0  0  0
 17 19  1  6  0  0  0
 17 15  1  0  0  0  0
 18  6  2  0  0  0  0
 20 19  1  0  0  0  0
 21 20  1  0  0  0  0
 22 21  1  0  0  0  0
 23 22  1  0  0  0  0
 24 23  1  0  0  0  0
 25 23  1  0  0  0  0
M  END
>  <MODEL>
2

>  <REMARK>
 VINA RESULT:      -9.0      1.098      1.497
  Name = 
  5 active torsions:
  status: ('A' for Active; 'I' for Inactive)
    1  A    between atoms: N_2  and  C_21
    2  A    between atoms: C_6  and  O_15
    3  A    between atoms: C_6  and  C_23
    4  A    between atoms: O_15  and  C_25
    5  A    between atoms: C_21  and  C_25
                            x       y       z     vdW  Elec       q    Type
                         _______ _______ _______ _____ _____    ______ ____

>  <TORSDO>
F 5

$$$$
=
 OpenBabel10272400463D

 25 28  0  0  1  0  0  0  0  0999 V2000
  186.0820  178.4750  142.4780 C   0  0  0  0  0  0  0  0  0  0  0  0
  187.3570  178.3220  141.8980 C   0  0  0  0  0  0  0  0  0  0  0  0
  185.1180  178.8330  140.2800 C   0  0  0  0  0  3  0  0  0  0  0  0
  185.7130  178.4310  143.8380 C   0  0  0  0  0  0  0  0  0  0  0  0
  184.6030  178.4190  146.4060 C   0  0  0  0  0  3  0  0  0  0  0  0
  186.3490  178.6520  139.7290 N   0  0  0  0  0  0  0  0  0  0  0  0
  184.3500  178.6550  144.0340 C   0  0  0  0  0  0  0  0  0  0  0  0
  183.7730  178.6550  145.3010 C   0  0  0  0  0  3  0  0  0  0  0  0
  188.7430  178.0870  139.8170 C   0  0  0  0  0  0  0  0  0  0  0  0
  188.9830  178.5510  138.4220 C   0  0  0  0  0  1  0  0  0  0  0  0
  188.8530  178.1110  142.8820 S   0  0  0  0  0  0  0  0  0  0  0  0
  185.9790  178.1880  146.2270 C   0  0  0  0  0  3  0  0  0  0  0  0
  184.9860  178.7330  141.6580 C   0  0  0  0  0  0  0  0  0  0  0  0
  183.5740  178.9100  142.5620 S   0  0  0  0  0  0  0  0  0  0  0  0
  189.6700  177.3980  140.4160 N   0  0  0  0  0  0  0  0  0  0  0  0
  186.5400  178.1920  144.9410 C   0  0  0  0  0  3  0  0  0  0  0  0
  189.5020  176.8380  141.7550 C   0  0  1  0  0  3  0  0  0  0  0  0
  187.4570  178.3880  140.4860 C   0  0  0  0  0  0  0  0  0  0  0  0
  190.8240  176.2840  142.2680 C   0  0  0  0  0  2  0  0  0  0  0  0
  190.6380  175.5880  143.4650 O   0  0  0  0  0  0  0  0  0  0  0  0
  191.7730  175.8820  144.2230 C   0  0  0  0  0  2  0  0  0  0  0  0
  191.5250  177.1160  145.0990 C   0  0  0  0  0  2  0  0  0  0  0  0
  191.6750  176.8780  146.5420 N   0  0  0  0  0  0  0  0  0  0  0  0
  190.3720  176.9160  147.1900 C   0  0  0  0  0  1  0  0  0  0  0  0
  192.2710  175.5710  146.7850 C   0  0  0  0  0  1  0  0  0  0  0  0
  1  4  1  0  0  0  0
  2  1  1  0  0  0  0
  2 11  1  0  0  0  0
  3 13  1  0  0  0  0
  4  7  2  0  0  0  0
  4 16  1  0  0  0  0
  6  3  2  0  0  0  0
  6 18  1  0  0  0  0
  7  8  1  0  0  0  0
  8  5  2  0  0  0  0
  9 15  2  0  0  0  0
  9 18  1  0  0  0  0
 10  9  1  0  0  0  0
 12  5  1  0  0  0  0
 13  1  2  0  0  0  0
 13 14  1  0  0  0  0
 14  7  1  0  0  0  0
 15 17  1  0  0  0  0
 16 12  2  0  0  0  0
 17 19  1  1  0  0  0
 17 11  1  0  0  0  0
 18  2  2  0  0  0  0
 19 20  1  0  0  0  0
 20 21  1  0  0  0  0
 21 22  1  0  0  0  0
 22 23  1  0  0  0  0
 23 25  1  0  0  0  0
 23 24  1  0  0  0  0
M  END
>  <MODEL>
3

>  <REMARK>
 VINA RESULT:      -8.5      1.803      5.500
  Name = 
  5 active torsions:
  status: ('A' for Active; 'I' for Inactive)
    1  A    between atoms: N_2  and  C_21
    2  A    between atoms: C_6  and  O_15
    3  A    between atoms: C_6  and  C_23
    4  A    between atoms: O_15  and  C_25
    5  A    between atoms: C_21  and  C_25
                            x       y       z     vdW  Elec       q    Type
                         _______ _______ _______ _____ _____    ______ ____

>  <TORSDO>
F 5

$$$$
=
 OpenBabel10272400463D

 25 28  0  0  1  0  0  0  0  0999 V2000
  189.3420  177.4410  144.1010 C   0  0  0  0  0  0  0  0  0  0  0  0
  188.5730  177.5260  142.9230 C   0  0  0  0  0  0  0  0  0  0  0  0
  191.3590  177.1950  142.7730 C   0  0  0  0  0  3  0  0  0  0  0  0
  188.9180  177.4790  145.4440 C   0  0  0  0  0  0  0  0  0  0  0  0
  188.4670  177.5050  148.2060 C   0  0  0  0  0  3  0  0  0  0  0  0
  190.6090  177.3090  141.6440 N   0  0  0  0  0  0  0  0  0  0  0  0
  189.9720  177.3380  146.3470 C   0  0  0  0  0  0  0  0  0  0  0  0
  189.7750  177.3460  147.7250 C   0  0  0  0  0  3  0  0  0  0  0  0
  188.5130  177.7170  140.4200 C   0  0  0  0  0  0  0  0  0  0  0  0
  189.0930  177.2700  139.1230 C   0  0  0  0  0  1  0  0  0  0  0  0
  186.7720  177.6180  142.9430 S   0  0  0  0  0  0  0  0  0  0  0  0
  187.3920  177.6510  147.3110 C   0  0  0  0  0  3  0  0  0  0  0  0
  190.7220  177.2720  144.0040 C   0  0  0  0  0  0  0  0  0  0  0  0
  191.4330  177.1670  145.5290 S   0  0  0  0  0  0  0  0  0  0  0  0
  187.3660  178.3320  140.4150 N   0  0  0  0  0  0  0  0  0  0  0  0
  187.6140  177.6390  145.9250 C   0  0  0  0  0  3  0  0  0  0  0  0
  186.7500  178.8720  141.6250 C   0  0  1  0  0  3  0  0  0  0  0  0
  189.2530  177.4850  141.6810 C   0  0  0  0  0  0  0  0  0  0  0  0
  185.3260  179.3280  141.3370 C   0  0  0  0  0  2  0  0  0  0  0  0
  185.1440  179.5490  139.9690 O   0  0  0  0  0  0  0  0  0  0  0  0
  183.8230  179.1710  139.7250 C   0  0  0  0  0  2  0  0  0  0  0  0
  183.2390  178.4500  140.9450 C   0  0  0  0  0  2  0  0  0  0  0  0
  181.7700  178.4580  141.0120 N   0  0  0  0  0  0  0  0  0  0  0  0
  181.3330  178.9790  142.2980 C   0  0  0  0  0  1  0  0  0  0  0  0
  181.2160  179.3010  139.9610 C   0  0  0  0  0  1  0  0  0  0  0  0
  1  4  1  0  0  0  0
  2 11  1  0  0  0  0
  2  1  1  0  0  0  0
  3 13  1  0  0  0  0
  4 16  2  0  0  0  0
  4  7  1  0  0  0  0
  6 18  1  0  0  0  0
  6  3  2  0  0  0  0
  7  8  2  0  0  0  0
  8  5  1  0  0  0  0
  9 18  1  0  0  0  0
 10  9  1  0  0  0  0
 12  5  2  0  0  0  0
 13  1  2  0  0  0  0
 13 14  1  0  0  0  0
 14  7  1  0  0  0  0
 15  9  2  0  0  0  0
 15 17  1  0  0  0  0
 16 12  1  0  0  0  0
 17 19  1  6  0  0  0
 17 11  1  0  0  0  0
 18  2  2  0  0  0  0
 20 19  1  0  0  0  0
 21 20  1  0  0  0  0
 21 22  1  0  0  0  0
 22 23  1  0  0  0  0
 23 24  1  0  0  0  0
 25 23  1  0  0  0  0
M  END
>  <MODEL>
4

>  <REMARK>
 VINA RESULT:      -8.2      2.866      6.010
  Name = 
  5 active torsions:
  status: ('A' for Active; 'I' for Inactive)
    1  A    between atoms: N_2  and  C_21
    2  A    between atoms: C_6  and  O_15
    3  A    between atoms: C_6  and  C_23
    4  A    between atoms: O_15  and  C_25
    5  A    between atoms: C_21  and  C_25
                            x       y       z     vdW  Elec       q    Type
                         _______ _______ _______ _____ _____    ______ ____

>  <TORSDO>
F 5

$$$$
=
 OpenBabel10272400463D

 25 28  0  0  1  0  0  0  0  0999 V2000
  189.3740  177.4370  144.1350 C   0  0  0  0  0  0  0  0  0  0  0  0
  188.6150  177.5110  142.9500 C   0  0  0  0  0  0  0  0  0  0  0  0
  191.4020  177.1770  142.8270 C   0  0  0  0  0  3  0  0  0  0  0  0
  188.9390  177.4870  145.4750 C   0  0  0  0  0  0  0  0  0  0  0  0
  188.4660  177.5390  148.2320 C   0  0  0  0  0  3  0  0  0  0  0  0
  190.6610  177.2810  141.6900 N   0  0  0  0  0  0  0  0  0  0  0  0
  189.9850  177.3550  146.3870 C   0  0  0  0  0  0  0  0  0  0  0  0
  189.7770  177.3760  147.7630 C   0  0  0  0  0  3  0  0  0  0  0  0
  188.5750  177.6790  140.4450 C   0  0  0  0  0  0  0  0  0  0  0  0
  189.1660  177.2190  139.1570 C   0  0  0  0  0  1  0  0  0  0  0  0
  186.8140  177.6040  142.9550 S   0  0  0  0  0  0  0  0  0  0  0  0
  187.3980  177.6780  147.3270 C   0  0  0  0  0  3  0  0  0  0  0  0
  190.7550  177.2670  144.0510 C   0  0  0  0  0  0  0  0  0  0  0  0
  191.4530  177.1750  145.5830 S   0  0  0  0  0  0  0  0  0  0  0  0
  187.4290  178.2940  140.4240 N   0  0  0  0  0  0  0  0  0  0  0  0
  187.6310  177.6530  145.9430 C   0  0  0  0  0  3  0  0  0  0  0  0
  186.8030  178.8460  141.6250 C   0  0  1  0  0  3  0  0  0  0  0  0
  189.3050  177.4580  141.7140 C   0  0  0  0  0  0  0  0  0  0  0  0
  185.3820  179.3000  141.3200 C   0  0  0  0  0  2  0  0  0  0  0  0
  185.1940  179.4500  139.9440 O   0  0  0  0  0  0  0  0  0  0  0  0
  184.1070  178.6270  139.6460 C   0  0  0  0  0  2  0  0  0  0  0  0
  184.1200  178.2390  138.1630 C   0  0  0  0  0  2  0  0  0  0  0  0
  185.1560  177.2610  137.7990 N   0  0  0  0  0  0  0  0  0  0  0  0
  184.5620  176.1590  137.0590 C   0  0  0  0  0  1  0  0  0  0  0  0
  186.1730  177.8830  136.9610 C   0  0  0  0  0  1  0  0  0  0  0  0
  1  4  1  0  0  0  0
  2 11  1  0  0  0  0
  2  1  1  0  0  0  0
  3 13  1  0  0  0  0
  4 16  2  0  0  0  0
  4  7  1  0  0  0  0
  6 18  1  0  0  0  0
  6  3  2  0  0  0  0
  7  8  2  0  0  0  0
  8  5  1  0  0  0  0
  9 18  1  0  0  0  0
 10  9  1  0  0  0  0
 12  5  2  0  0  0  0
 13  1  2  0  0  0  0
 13 14  1  0  0  0  0
 14  7  1  0  0  0  0
 15  9  2  0  0  0  0
 15 17  1  0  0  0  0
 16 12  1  0  0  0  0
 17 19  1  6  0  0  0
 17 11  1  0  0  0  0
 18  2  2  0  0  0  0
 20 19  1  0  0  0  0
 21 20  1  0  0  0  0
 22 21  1  0  0  0  0
 23 22  1  0  0  0  0
 24 23  1  0  0  0  0
 25 23  1  0  0  0  0
M  END
>  <MODEL>
5

>  <REMARK>
 VINA RESULT:      -8.0      2.711      5.480
  Name = 
  5 active torsions:
  status: ('A' for Active; 'I' for Inactive)
    1  A    between atoms: N_2  and  C_21
    2  A    between atoms: C_6  and  O_15
    3  A    between atoms: C_6  and  C_23
    4  A    between atoms: O_15  and  C_25
    5  A    between atoms: C_21  and  C_25
                            x       y       z     vdW  Elec       q    Type
                         _______ _______ _______ _____ _____    ______ ____

>  <TORSDO>
F 5

$$$$
=
 OpenBabel10272400463D

 25 28  0  0  1  0  0  0  0  0999 V2000
  186.4290  178.1640  144.7110 C   0  0  0  0  0  0  0  0  0  0  0  0
  185.4560  178.5520  143.7670 C   0  0  0  0  0  0  0  0  0  0  0  0
  184.7690  178.2820  146.4780 C   0  0  0  0  0  3  0  0  0  0  0  0
  187.7960  177.8850  144.5150 C   0  0  0  0  0  0  0  0  0  0  0  0
  190.5240  177.2660  144.5260 C   0  0  0  0  0  3  0  0  0  0  0  0
  183.8330  178.6250  145.5520 N   0  0  0  0  0  0  0  0  0  0  0  0
  188.4540  177.5560  145.6990 C   0  0  0  0  0  0  0  0  0  0  0  0
  189.8110  177.2450  145.7330 C   0  0  0  0  0  3  0  0  0  0  0  0
  183.0420  179.0150  143.2540 C   0  0  0  0  0  0  0  0  0  0  0  0
  181.7680  179.6330  143.7150 C   0  0  0  0  0  1  0  0  0  0  0  0
  185.8520  178.8600  142.0350 S   0  0  0  0  0  0  0  0  0  0  0  0
  189.8770  177.5920  143.3210 C   0  0  0  0  0  3  0  0  0  0  0  0
  186.0670  178.0410  146.0510 C   0  0  0  0  0  0  0  0  0  0  0  0
  187.3880  177.5990  147.0010 S   0  0  0  0  0  0  0  0  0  0  0  0
  183.1640  178.6920  141.9990 N   0  0  0  0  0  0  0  0  0  0  0  0
  188.5080  177.9030  143.3100 C   0  0  0  0  0  3  0  0  0  0  0  0
  184.3440  178.0160  141.4650 C   0  0  1  0  0  3  0  0  0  0  0  0
  184.1300  178.7520  144.2230 C   0  0  0  0  0  0  0  0  0  0  0  0
  184.2890  177.9750  139.9440 C   0  0  0  0  0  2  0  0  0  0  0  0
  185.2210  178.8570  139.3910 O   0  0  0  0  0  0  0  0  0  0  0  0
  185.5220  178.3120  138.1420 C   0  0  0  0  0  2  0  0  0  0  0  0
  186.9430  177.7370  138.1370 C   0  0  0  0  0  2  0  0  0  0  0  0
  187.9980  178.7180  138.4330 N   0  0  0  0  0  0  0  0  0  0  0  0
  188.7990  178.2620  139.5590 C   0  0  0  0  0  1  0  0  0  0  0  0
  188.8750  178.8870  137.2830 C   0  0  0  0  0  1  0  0  0  0  0  0
  1 13  2  0  0  0  0
  2 18  2  0  0  0  0
  2  1  1  0  0  0  0
  4  1  1  0  0  0  0
  4  7  1  0  0  0  0
  5  8  1  0  0  0  0
  6  3  2  0  0  0  0
  7  8  2  0  0  0  0
  7 14  1  0  0  0  0
  9 10  1  0  0  0  0
  9 18  1  0  0  0  0
 11  2  1  0  0  0  0
 12  5  2  0  0  0  0
 13  3  1  0  0  0  0
 13 14  1  0  0  0  0
 15  9  2  0  0  0  0
 16 12  1  0  0  0  0
 16  4  2  0  0  0  0
 17 19  1  6  0  0  0
 17 15  1  0  0  0  0
 17 11  1  0  0  0  0
 18  6  1  0  0  0  0
 20 19  1  0  0  0  0
 21 20  1  0  0  0  0
 22 21  1  0  0  0  0
 22 23  1  0  0  0  0
 23 24  1  0  0  0  0
 25 23  1  0  0  0  0
M  END
>  <MODEL>
6

>  <REMARK>
 VINA RESULT:      -7.6      2.819      5.503
  Name = 
  5 active torsions:
  status: ('A' for Active; 'I' for Inactive)
    1  A    between atoms: N_2  and  C_21
    2  A    between atoms: C_6  and  O_15
    3  A    between atoms: C_6  and  C_23
    4  A    between atoms: O_15  and  C_25
    5  A    between atoms: C_21  and  C_25
                            x       y       z     vdW  Elec       q    Type
                         _______ _______ _______ _____ _____    ______ ____

>  <TORSDO>
F 5

$$$$
=
 OpenBabel10272400463D

 25 28  0  0  1  0  0  0  0  0999 V2000
  185.4510  178.5250  141.0580 C   0  0  0  0  0  0  0  0  0  0  0  0
  186.8410  178.4100  140.8500 C   0  0  0  0  0  0  0  0  0  0  0  0
  185.0890  178.5520  138.6580 C   0  0  0  0  0  3  0  0  0  0  0  0
  184.7380  178.6050  142.2700 C   0  0  0  0  0  0  0  0  0  0  0  0
  182.9890  178.7940  144.4460 C   0  0  0  0  0  3  0  0  0  0  0  0
  186.4290  178.4100  138.4710 N   0  0  0  0  0  0  0  0  0  0  0  0
  183.3630  178.7390  142.0790 C   0  0  0  0  0  0  0  0  0  0  0  0
  182.4710  178.8360  143.1440 C   0  0  0  0  0  3  0  0  0  0  0  0
  188.7390  178.0550  139.2450 C   0  0  0  0  0  0  0  0  0  0  0  0
  189.3170  178.3760  137.9100 C   0  0  0  0  0  1  0  0  0  0  0  0
  188.0310  178.4350  142.2050 S   0  0  0  0  0  0  0  0  0  0  0  0
  184.3720  178.6570  144.6590 C   0  0  0  0  0  3  0  0  0  0  0  0
  184.6010  178.5980  139.9560 C   0  0  0  0  0  0  0  0  0  0  0  0
  182.9930  178.7610  140.4370 S   0  0  0  0  0  0  0  0  0  0  0  0
  189.5060  177.5150  140.1470 N   0  0  0  0  0  0  0  0  0  0  0  0
  185.2530  178.5610  143.5710 C   0  0  0  0  0  3  0  0  0  0  0  0
  189.0160  177.0990  141.4590 C   0  0  1  0  0  3  0  0  0  0  0  0
  187.3090  178.3240  139.5160 C   0  0  0  0  0  0  0  0  0  0  0  0
  190.1800  176.7160  142.3630 C   0  0  0  0  0  2  0  0  0  0  0  0
  189.7180  176.2880  143.6100 O   0  0  0  0  0  0  0  0  0  0  0  0
  190.3850  177.1000  144.5290 C   0  0  0  0  0  2  0  0  0  0  0  0
  189.4400  177.5100  145.6640 C   0  0  0  0  0  2  0  0  0  0  0  0
  189.7200  176.8610  146.9540 N   0  0  0  0  0  0  0  0  0  0  0  0
  191.1490  176.6220  147.0910 C   0  0  0  0  0  1  0  0  0  0  0  0
  189.2880  177.7080  148.0570 C   0  0  0  0  0  1  0  0  0  0  0  0
  1  4  1  0  0  0  0
  2  1  1  0  0  0  0
  2 11  1  0  0  0  0
  3 13  1  0  0  0  0
  4 16  1  0  0  0  0
  5 12  1  0  0  0  0
  6  3  2  0  0  0  0
  6 18  1  0  0  0  0
  7  4  2  0  0  0  0
  7  8  1  0  0  0  0
  8  5  2  0  0  0  0
  9 18  1  0  0  0  0
  9 15  2  0  0  0  0
 10  9  1  0  0  0  0
 13 14  1  0  0  0  0
 13  1  2  0  0  0  0
 14  7  1  0  0  0  0
 15 17  1  0  0  0  0
 16 12  2  0  0  0  0
 17 11  1  0  0  0  0
 17 19  1  1  0  0  0
 18  2  2  0  0  0  0
 19 20  1  0  0  0  0
 20 21  1  0  0  0  0
 21 22  1  0  0  0  0
 22 23  1  0  0  0  0
 23 24  1  0  0  0  0
 23 25  1  0  0  0  0
M  END
>  <MODEL>
7

>  <REMARK>
 VINA RESULT:      -7.4      2.195      6.099
  Name = 
  5 active torsions:
  status: ('A' for Active; 'I' for Inactive)
    1  A    between atoms: N_2  and  C_21
    2  A    between atoms: C_6  and  O_15
    3  A    between atoms: C_6  and  C_23
    4  A    between atoms: O_15  and  C_25
    5  A    between atoms: C_21  and  C_25
                            x       y       z     vdW  Elec       q    Type
                         _______ _______ _______ _____ _____    ______ ____

>  <TORSDO>
F 5

$$$$
=
 OpenBabel10272400463D

 25 28  0  0  1  0  0  0  0  0999 V2000
  186.9020  178.1130  143.1790 C   0  0  0  0  0  0  0  0  0  0  0  0
  186.7610  178.4520  141.8180 C   0  0  0  0  0  0  0  0  0  0  0  0
  184.5110  178.3810  143.4980 C   0  0  0  0  0  3  0  0  0  0  0  0
  188.0710  177.7970  143.8990 C   0  0  0  0  0  0  0  0  0  0  0  0
  190.1480  177.1330  145.6530 C   0  0  0  0  0  3  0  0  0  0  0  0
  184.3840  178.6760  142.1760 N   0  0  0  0  0  0  0  0  0  0  0  0
  187.8200  177.5400  145.2470 C   0  0  0  0  0  0  0  0  0  0  0  0
  188.8350  177.2090  146.1400 C   0  0  0  0  0  3  0  0  0  0  0  0
  185.2350  178.9200  139.8790 C   0  0  0  0  0  0  0  0  0  0  0  0
  183.9920  179.5910  139.4080 C   0  0  0  0  0  1  0  0  0  0  0  0
  188.1730  178.6340  140.7110 S   0  0  0  0  0  0  0  0  0  0  0  0
  190.4190  177.3870  144.2970 C   0  0  0  0  0  3  0  0  0  0  0  0
  185.7730  178.0890  143.9950 C   0  0  0  0  0  0  0  0  0  0  0  0
  186.1780  177.6900  145.5830 S   0  0  0  0  0  0  0  0  0  0  0  0
  186.0980  178.5090  138.9970 N   0  0  0  0  0  0  0  0  0  0  0  0
  189.3810  177.7200  143.4130 C   0  0  0  0  0  3  0  0  0  0  0  0
  187.3120  177.7780  139.3550 C   0  0  1  0  0  3  0  0  0  0  0  0
  185.4570  178.7060  141.3270 C   0  0  0  0  0  0  0  0  0  0  0  0
  188.2210  177.6330  138.1420 C   0  0  0  0  0  2  0  0  0  0  0  0
  189.4890  178.1590  138.4080 O   0  0  0  0  0  0  0  0  0  0  0  0
  190.3740  177.2470  137.8320 C   0  0  0  0  0  2  0  0  0  0  0  0
  190.6630  176.0960  138.8010 C   0  0  0  0  0  2  0  0  0  0  0  0
  191.0000  174.8210  138.1500 N   0  0  0  0  0  0  0  0  0  0  0  0
  190.0430  174.5340  137.0920 C   0  0  0  0  0  1  0  0  0  0  0  0
  192.3310  174.8840  137.5610 C   0  0  0  0  0  1  0  0  0  0  0  0
  1  4  1  0  0  0  0
  1 13  2  0  0  0  0
  2  1  1  0  0  0  0
  3 13  1  0  0  0  0
  4  7  1  0  0  0  0
  5  8  1  0  0  0  0
  6  3  2  0  0  0  0
  7 14  1  0  0  0  0
  7  8  2  0  0  0  0
  9 18  1  0  0  0  0
 10  9  1  0  0  0  0
 11  2  1  0  0  0  0
 12  5  2  0  0  0  0
 13 14  1  0  0  0  0
 15 17  1  0  0  0  0
 15  9  2  0  0  0  0
 16  4  2  0  0  0  0
 16 12  1  0  0  0  0
 17 19  1  6  0  0  0
 17 11  1  0  0  0  0
 18  2  2  0  0  0  0
 18  6  1  0  0  0  0
 19 20  1  0  0  0  0
 21 20  1  0  0  0  0
 21 22  1  0  0  0  0
 23 22  1  0  0  0  0
 24 23  1  0  0  0  0
 25 23  1  0  0  0  0
M  END
>  <MODEL>
8

>  <REMARK>
 VINA RESULT:      -7.3      2.742      5.477
  Name = 
  5 active torsions:
  status: ('A' for Active; 'I' for Inactive)
    1  A    between atoms: N_2  and  C_21
    2  A    between atoms: C_6  and  O_15
    3  A    between atoms: C_6  and  C_23
    4  A    between atoms: O_15  and  C_25
    5  A    between atoms: C_21  and  C_25
                            x       y       z     vdW  Elec       q    Type
                         _______ _______ _______ _____ _____    ______ ____

>  <TORSDO>
F 5

$$$$
=
 OpenBabel10272400463D

 25 28  0  0  1  0  0  0  0  0999 V2000
  188.1110  177.6120  142.4250 C   0  0  0  0  0  0  0  0  0  0  0  0
  186.8660  178.1350  142.8290 C   0  0  0  0  0  0  0  0  0  0  0  0
  188.5560  176.8980  144.7020 C   0  0  0  0  0  3  0  0  0  0  0  0
  188.7070  177.6200  141.1480 C   0  0  0  0  0  0  0  0  0  0  0  0
  190.2030  177.4480  138.7900 C   0  0  0  0  0  3  0  0  0  0  0  0
  187.3380  177.3780  145.0730 N   0  0  0  0  0  0  0  0  0  0  0  0
  189.9690  177.0260  141.1380 C   0  0  0  0  0  0  0  0  0  0  0  0
  190.7340  176.9290  139.9790 C   0  0  0  0  0  3  0  0  0  0  0  0
  185.1300  178.3710  144.6280 C   0  0  0  0  0  0  0  0  0  0  0  0
  184.8600  178.6080  146.0740 C   0  0  0  0  0  1  0  0  0  0  0  0
  185.7860  179.0460  141.7090 S   0  0  0  0  0  0  0  0  0  0  0  0
  188.9300  178.0480  138.7800 C   0  0  0  0  0  3  0  0  0  0  0  0
  188.9350  177.0060  143.3720 C   0  0  0  0  0  0  0  0  0  0  0  0
  190.3800  176.4820  142.6770 S   0  0  0  0  0  0  0  0  0  0  0  0
  184.1520  178.4960  143.7790 N   0  0  0  0  0  0  0  0  0  0  0  0
  188.1760  178.1360  139.9610 C   0  0  0  0  0  3  0  0  0  0  0  0
  184.2990  178.2160  142.3520 C   0  0  1  0  0  3  0  0  0  0  0  0
  186.4850  177.9740  144.1840 C   0  0  0  0  0  0  0  0  0  0  0  0
  183.0580  178.6650  141.5930 C   0  0  0  0  0  2  0  0  0  0  0  0
  183.3840  179.0300  140.2840 O   0  0  0  0  0  0  0  0  0  0  0  0
  182.5650  178.2320  139.4830 C   0  0  0  0  0  2  0  0  0  0  0  0
  183.3900  177.1360  138.7990 C   0  0  0  0  0  2  0  0  0  0  0  0
  182.9130  175.7680  139.0500 N   0  0  0  0  0  0  0  0  0  0  0  0
  181.5010  175.7900  139.4020 C   0  0  0  0  0  1  0  0  0  0  0  0
  183.0770  174.9440  137.8600 C   0  0  0  0  0  1  0  0  0  0  0  0
  1  2  2  0  0  0  0
  1 13  1  0  0  0  0
  2 18  1  0  0  0  0
  3  6  1  0  0  0  0
  4  1  1  0  0  0  0
  5  8  1  0  0  0  0
  7  4  1  0  0  0  0
  7 14  1  0  0  0  0
  8  7  2  0  0  0  0
  9 10  1  0  0  0  0
 11 17  1  0  0  0  0
 11  2  1  0  0  0  0
 12  5  2  0  0  0  0
 12 16  1  0  0  0  0
 13  3  2  0  0  0  0
 14 13  1  0  0  0  0
 15  9  2  0  0  0  0
 16  4  2  0  0  0  0
 17 19  1  6  0  0  0
 17 15  1  0  0  0  0
 18  9  1  0  0  0  0
 18  6  2  0  0  0  0
 20 19  1  0  0  0  0
 21 20  1  0  0  0  0
 22 23  1  0  0  0  0
 22 21  1  0  0  0  0
 23 24  1  0  0  0  0
 25 23  1  0  0  0  0
M  END
>  <MODEL>
9

>  <REMARK>
 VINA RESULT:      -7.0      3.563      6.350
  Name = 
  5 active torsions:
  status: ('A' for Active; 'I' for Inactive)
    1  A    between atoms: N_2  and  C_21
    2  A    between atoms: C_6  and  O_15
    3  A    between atoms: C_6  and  C_23
    4  A    between atoms: O_15  and  C_25
    5  A    between atoms: C_21  and  C_25
                            x       y       z     vdW  Elec       q    Type
                         _______ _______ _______ _____ _____    ______ ____

>  <TORSDO>
F 5

$$$$
