=
 OpenBabel10272414583D

 37 39  0  0  1  0  0  0  0  0999 V2000
  189.2690  178.1620  136.2550 C   0  0  0  0  0  2  0  0  0  0  0  0
  188.2050  174.0790  134.7960 C   0  0  0  0  0  3  0  0  0  0  0  0
  189.5890  177.4090  137.5530 C   0  0  2  0  0  3  0  0  0  0  0  0
  188.8920  175.1490  135.3770 C   0  0  0  0  0  0  0  0  0  0  0  0
  188.8980  176.4560  134.6560 C   0  0  0  0  0  2  0  0  0  0  0  0
  189.5420  174.9740  136.6180 C   0  0  0  0  0  0  0  0  0  0  0  0
  188.8070  172.6590  136.6570 C   0  0  0  0  0  3  0  0  0  0  0  0
  188.2480  177.4750  135.4710 N   0  0  0  0  0  0  0  0  0  0  0  0
  189.4950  173.7240  137.2440 C   0  0  0  0  0  3  0  0  0  0  0  0
  190.3140  176.0690  137.3070 C   0  0  1  0  0  3  0  0  0  0  0  0
  188.1590  172.8290  135.4320 C   0  0  0  0  0  0  0  0  0  0  0  0
  187.4790  171.7460  134.8710 O   0  0  0  0  0  0  0  0  0  0  0  0
  186.1360  171.4240  135.2070 C   0  0  0  0  0  1  0  0  0  0  0  0
  188.8400  177.2440  140.2120 S   0  0  0  0  0  1  0  0  0  0  0  0
  188.3580  177.2360  138.4540 C   0  0  1  0  0  3  0  0  0  0  0  0
  187.3460  178.3510  138.2170 C   0  0  0  0  0  2  0  0  0  0  0  0
  185.6560  176.5680  137.5170 C   0  0  0  0  0  1  0  0  0  0  0  0
  185.9160  177.8370  138.3390 C   0  0  2  0  0  3  0  0  0  0  0  0
  185.0420  179.8070  139.2830 O   0  0  0  0  0  0  0  0  0  0  0  0
  184.9240  178.9280  138.2070 N   0  0  0  0  0  0  0  0  0  0  0  0
  183.9220  179.0410  139.2600 C   0  0  2  0  0  0  0  0  0  0  0  0
  182.6880  179.8270  138.8660 C   0  0  0  0  0  1  0  0  0  0  0  0
  184.5540  178.2750  141.6690 C   0  0  0  0  0  1  0  0  0  0  0  0
  183.1360  177.0470  140.2620 O   0  0  0  0  0  0  0  0  0  0  0  0
  183.8450  178.0330  140.3770 C   0  0  0  0  0  0  0  0  0  0  0  0
  187.5640  178.4380  134.6020 C   0  0  0  0  0  2  0  0  0  0  0  0
  186.0600  178.1870  134.4720 C   0  0  0  0  0  1  0  0  0  0  0  0
  191.8160  176.1210  136.9770 C   0  0  1  0  0  3  0  0  0  0  0  0
  192.7250  175.9720  138.1670 C   0  0  0  0  0  0  0  0  0  0  0  0
  193.6660  175.0270  138.1460 C   0  0  0  0  0  2  0  0  0  0  0  0
  194.0130  177.0480  139.9950 C   0  0  0  0  0  1  0  0  0  0  0  0
  192.6570  176.9210  139.3250 C   0  0  0  0  0  2  0  0  0  0  0  0
  192.1930  175.1680  135.8470 C   0  0  0  0  0  2  0  0  0  0  0  0
  192.8050  175.9350  134.6900 C   0  0  0  0  0  2  0  0  0  0  0  0
  194.1970  176.3930  135.0710 C   0  0  0  0  0  2  0  0  0  0  0  0
  195.7800  177.9080  134.8240 C   0  0  0  0  0  1  0  0  0  0  0  0
  194.5200  177.5430  134.3520 O   0  0  0  0  0  0  0  0  0  0  0  0
  1  3  1  0  0  0  0
  2  4  2  0  0  0  0
  2 11  1  0  0  0  0
  3 15  1  6  0  0  0
  4  6  1  0  0  0  0
  5  4  1  0  0  0  0
  5  8  1  0  0  0  0
  6  9  2  0  0  0  0
  6 10  1  0  0  0  0
  7  9  1  0  0  0  0
  8  1  1  0  0  0  0
 10 28  1  6  0  0  0
 10  3  1  0  0  0  0
 11  7  2  0  0  0  0
 12 13  1  0  0  0  0
 12 11  1  0  0  0  0
 15 14  1  1  0  0  0
 16 18  1  0  0  0  0
 16 15  1  0  0  0  0
 18 17  1  6  0  0  0
 20 18  1  0  0  0  0
 20 21  1  0  0  0  0
 20 19  1  0  0  0  0
 21 22  1  6  0  0  0
 21 19  1  0  0  0  0
 21 25  1  0  0  0  0
 24 25  2  0  0  0  0
 25 23  1  0  0  0  0
 26  8  1  0  0  0  0
 27 26  1  0  0  0  0
 28 33  1  6  0  0  0
 28 29  1  0  0  0  0
 29 32  1  0  0  0  0
 30 29  2  0  0  0  0
 32 31  1  0  0  0  0
 34 35  1  0  0  0  0
 34 33  1  0  0  0  0
 37 36  1  0  0  0  0
 37 35  1  0  0  0  0
M  END
>  <MODEL>
1

>  <REMARK>
 VINA RESULT:      -3.9      0.000      0.000
  Name = 
  14 active torsions:
  status: ('A' for Active; 'I' for Inactive)
    1  A    between atoms: C_1  and  C_12
    2  A    between atoms: C_1  and  C_36
    3  A    between atoms: O_3  and  C_32
    4  A    between atoms: N_6  and  C_37
    5  A    between atoms: C_8  and  C_35
    6  A    between atoms: C_10  and  C_14
    7  A    between atoms: C_14  and  C_27
    8  A    between atoms: C_17  and  C_26
    9  A    between atoms: C_17  and  C_33
   10  A    between atoms: C_22  and  N_24
   11  A    between atoms: C_26  and  O_34
   12  A    between atoms: C_27  and  C_37
   13  A    between atoms: C_29  and  C_36
   14  A    between atoms: C_33  and  C_36
                            x       y       z     vdW  Elec       q    Type
                         _______ _______ _______ _____ _____    ______ ____

>  <TORSDO>
F 14

$$$$
=
 OpenBabel10272414583D

 37 39  0  0  1  0  0  0  0  0999 V2000
  184.3680  177.6160  136.7150 C   0  0  0  0  0  2  0  0  0  0  0  0
  184.9290  178.8300  140.9740 C   0  0  0  0  0  3  0  0  0  0  0  0
  182.9590  177.2530  137.2010 C   0  0  2  0  0  3  0  0  0  0  0  0
  184.4010  178.6900  139.6870 C   0  0  0  0  0  0  0  0  0  0  0  0
  185.3370  178.7890  138.5280 C   0  0  0  0  0  2  0  0  0  0  0  0
  183.0200  178.4500  139.5180 C   0  0  0  0  0  0  0  0  0  0  0  0
  182.7320  178.5060  141.9290 C   0  0  0  0  0  3  0  0  0  0  0  0
  185.3490  177.5310  137.7920 N   0  0  0  0  0  0  0  0  0  0  0  0
  182.1980  178.3640  140.6460 C   0  0  0  0  0  3  0  0  0  0  0  0
  182.3680  178.3000  138.1680 C   0  0  1  0  0  3  0  0  0  0  0  0
  184.0980  178.7390  142.1010 C   0  0  0  0  0  0  0  0  0  0  0  0
  184.6040  178.8740  143.3970 O   0  0  0  0  0  0  0  0  0  0  0  0
  183.7680  178.9430  144.5440 C   0  0  0  0  0  1  0  0  0  0  0  0
  181.7020  175.7650  139.1680 S   0  0  0  0  0  1  0  0  0  0  0  0
  182.8820  175.8330  137.7800 C   0  0  1  0  0  3  0  0  0  0  0  0
  182.4490  174.8310  136.7170 C   0  0  0  0  0  2  0  0  0  0  0  0
  184.1800  174.9220  134.8410 C   0  0  0  0  0  1  0  0  0  0  0  0
  183.6510  174.1600  136.0630 C   0  0  2  0  0  3  0  0  0  0  0  0
  183.4000  172.0890  137.1520 O   0  0  0  0  0  0  0  0  0  0  0  0
  183.4490  172.7020  135.9000 N   0  0  0  0  0  0  0  0  0  0  0  0
  184.5030  171.8290  136.4050 C   0  0  2  0  0  0  0  0  0  0  0  0
  184.4920  170.4320  135.8170 C   0  0  0  0  0  1  0  0  0  0  0  0
  187.0040  172.5090  136.1310 C   0  0  0  0  0  1  0  0  0  0  0  0
  185.7950  172.8310  138.1140 O   0  0  0  0  0  0  0  0  0  0  0  0
  185.7790  172.3930  136.9770 C   0  0  0  0  0  0  0  0  0  0  0  0
  186.6830  177.3050  137.2260 C   0  0  0  0  0  2  0  0  0  0  0  0
  187.8050  177.9890  138.0090 C   0  0  0  0  0  1  0  0  0  0  0  0
  181.8130  179.6000  137.5590 C   0  0  1  0  0  3  0  0  0  0  0  0
  180.9410  179.4020  136.3480 C   0  0  0  0  0  0  0  0  0  0  0  0
  181.0920  180.2190  135.3050 C   0  0  0  0  0  2  0  0  0  0  0  0
  180.0600  177.6000  134.8880 C   0  0  0  0  0  1  0  0  0  0  0  0
  179.9830  178.2540  136.2560 C   0  0  0  0  0  2  0  0  0  0  0  0
  181.1470  180.4890  138.6040 C   0  0  0  0  0  2  0  0  0  0  0  0
  181.4620  181.9490  138.3350 C   0  0  0  0  0  2  0  0  0  0  0  0
  180.1790  182.6930  138.0310 C   0  0  0  0  0  2  0  0  0  0  0  0
  180.9800  183.8400  136.3280 C   0  0  0  0  0  1  0  0  0  0  0  0
  180.4810  183.9900  137.6210 O   0  0  0  0  0  0  0  0  0  0  0  0
  1  3  1  0  0  0  0
  1  8  1  0  0  0  0
  2 11  1  0  0  0  0
  3 15  1  1  0  0  0
  3 10  1  0  0  0  0
  4  2  2  0  0  0  0
  5  4  1  0  0  0  0
  6  4  1  0  0  0  0
  6  9  2  0  0  0  0
  7 11  2  0  0  0  0
  8  5  1  0  0  0  0
  9  7  1  0  0  0  0
 10 28  1  6  0  0  0
 10  6  1  0  0  0  0
 11 12  1  0  0  0  0
 12 13  1  0  0  0  0
 15 14  1  1  0  0  0
 16 15  1  0  0  0  0
 18 17  1  6  0  0  0
 18 16  1  0  0  0  0
 20 18  1  0  0  0  0
 20 21  1  0  0  0  0
 20 19  1  0  0  0  0
 21 22  1  6  0  0  0
 21 25  1  0  0  0  0
 21 19  1  0  0  0  0
 23 25  1  0  0  0  0
 25 24  2  0  0  0  0
 26  8  1  0  0  0  0
 26 27  1  0  0  0  0
 28 33  1  1  0  0  0
 29 28  1  0  0  0  0
 30 29  2  0  0  0  0
 31 32  1  0  0  0  0
 32 29  1  0  0  0  0
 34 33  1  0  0  0  0
 35 34  1  0  0  0  0
 36 37  1  0  0  0  0
 37 35  1  0  0  0  0
M  END
>  <MODEL>
2

>  <REMARK>
 VINA RESULT:      -3.8      4.335      9.696
  Name = 
  14 active torsions:
  status: ('A' for Active; 'I' for Inactive)
    1  A    between atoms: C_1  and  C_12
    2  A    between atoms: C_1  and  C_36
    3  A    between atoms: O_3  and  C_32
    4  A    between atoms: N_6  and  C_37
    5  A    between atoms: C_8  and  C_35
    6  A    between atoms: C_10  and  C_14
    7  A    between atoms: C_14  and  C_27
    8  A    between atoms: C_17  and  C_26
    9  A    between atoms: C_17  and  C_33
   10  A    between atoms: C_22  and  N_24
   11  A    between atoms: C_26  and  O_34
   12  A    between atoms: C_27  and  C_37
   13  A    between atoms: C_29  and  C_36
   14  A    between atoms: C_33  and  C_36
                            x       y       z     vdW  Elec       q    Type
                         _______ _______ _______ _____ _____    ______ ____

>  <TORSDO>
F 14

$$$$
=
 OpenBabel10272414583D

 37 39  0  0  1  0  0  0  0  0999 V2000
  189.3510  178.1640  137.0260 C   0  0  0  0  0  2  0  0  0  0  0  0
  187.2470  174.3420  136.0790 C   0  0  0  0  0  3  0  0  0  0  0  0
  190.2870  177.2350  137.8100 C   0  0  2  0  0  3  0  0  0  0  0  0
  188.2440  175.3070  136.2480 C   0  0  0  0  0  0  0  0  0  0  0  0
  187.9600  176.6990  135.7910 C   0  0  0  0  0  2  0  0  0  0  0  0
  189.4700  174.9500  136.8500 C   0  0  0  0  0  0  0  0  0  0  0  0
  188.6720  172.6690  137.0870 C   0  0  0  0  0  3  0  0  0  0  0  0
  188.0030  177.6130  136.9260 N   0  0  0  0  0  0  0  0  0  0  0  0
  189.6720  173.6290  137.2600 C   0  0  0  0  0  3  0  0  0  0  0  0
  190.6010  175.9250  137.0580 C   0  0  1  0  0  3  0  0  0  0  0  0
  187.4550  173.0180  136.4970 C   0  0  0  0  0  0  0  0  0  0  0  0
  186.4730  172.0370  136.3390 O   0  0  0  0  0  0  0  0  0  0  0  0
  185.1860  172.3170  135.8050 C   0  0  0  0  0  1  0  0  0  0  0  0
  191.1230  176.2510  140.2580 S   0  0  0  0  0  1  0  0  0  0  0  0
  189.7930  176.9690  139.2400 C   0  0  1  0  0  3  0  0  0  0  0  0
  189.3090  178.2560  139.8990 C   0  0  0  0  0  2  0  0  0  0  0  0
  187.1490  178.4090  141.2540 C   0  0  0  0  0  1  0  0  0  0  0  0
  188.6200  177.9730  141.2280 C   0  0  2  0  0  3  0  0  0  0  0  0
  190.2230  177.3020  142.8150 O   0  0  0  0  0  0  0  0  0  0  0  0
  189.4540  178.3820  142.3810 N   0  0  0  0  0  0  0  0  0  0  0  0
  189.2210  177.6910  143.6440 C   0  0  2  0  0  0  0  0  0  0  0  0
  189.7300  178.4300  144.8640 C   0  0  0  0  0  1  0  0  0  0  0  0
  186.9060  176.9810  144.6090 C   0  0  0  0  0  1  0  0  0  0  0  0
  188.1670  175.6270  143.1680 O   0  0  0  0  0  0  0  0  0  0  0  0
  188.1160  176.6760  143.7880 C   0  0  0  0  0  0  0  0  0  0  0  0
  187.0410  178.7000  136.7200 C   0  0  0  0  0  2  0  0  0  0  0  0
  185.6670  178.4280  137.3360 C   0  0  0  0  0  1  0  0  0  0  0  0
  191.6330  175.9860  135.9180 C   0  0  1  0  0  3  0  0  0  0  0  0
  193.0640  175.8460  136.3600 C   0  0  0  0  0  0  0  0  0  0  0  0
  194.0020  176.5700  135.7490 C   0  0  0  0  0  2  0  0  0  0  0  0
  194.9390  174.7570  137.5670 C   0  0  0  0  0  1  0  0  0  0  0  0
  193.4390  174.9870  137.5300 C   0  0  0  0  0  2  0  0  0  0  0  0
  191.2910  175.0340  134.7770 C   0  0  0  0  0  2  0  0  0  0  0  0
  192.4460  174.0860  134.5150 C   0  0  0  0  0  2  0  0  0  0  0  0
  191.9770  172.6590  134.7010 C   0  0  0  0  0  2  0  0  0  0  0  0
  194.1540  172.6300  134.3470 C   0  0  0  0  0  1  0  0  0  0  0  0
  193.0730  171.7990  134.6440 O   0  0  0  0  0  0  0  0  0  0  0  0
  1  3  1  0  0  0  0
  2  4  2  0  0  0  0
  2 11  1  0  0  0  0
  3 15  1  1  0  0  0
  4  6  1  0  0  0  0
  5  4  1  0  0  0  0
  5  8  1  0  0  0  0
  6 10  1  0  0  0  0
  6  9  2  0  0  0  0
  7  9  1  0  0  0  0
  8  1  1  0  0  0  0
 10 28  1  6  0  0  0
 10  3  1  0  0  0  0
 11  7  2  0  0  0  0
 12 11  1  0  0  0  0
 13 12  1  0  0  0  0
 15 16  1  0  0  0  0
 15 14  1  1  0  0  0
 16 18  1  0  0  0  0
 18 17  1  6  0  0  0
 18 20  1  0  0  0  0
 19 21  1  0  0  0  0
 20 19  1  0  0  0  0
 20 21  1  0  0  0  0
 21 25  1  0  0  0  0
 21 22  1  1  0  0  0
 24 25  2  0  0  0  0
 25 23  1  0  0  0  0
 26  8  1  0  0  0  0
 26 27  1  0  0  0  0
 28 33  1  6  0  0  0
 28 29  1  0  0  0  0
 29 32  1  0  0  0  0
 30 29  2  0  0  0  0
 32 31  1  0  0  0  0
 34 35  1  0  0  0  0
 34 33  1  0  0  0  0
 36 37  1  0  0  0  0
 37 35  1  0  0  0  0
M  END
>  <MODEL>
3

>  <REMARK>
 VINA RESULT:      -3.7      2.983      3.704
  Name = 
  14 active torsions:
  status: ('A' for Active; 'I' for Inactive)
    1  A    between atoms: C_1  and  C_12
    2  A    between atoms: C_1  and  C_36
    3  A    between atoms: O_3  and  C_32
    4  A    between atoms: N_6  and  C_37
    5  A    between atoms: C_8  and  C_35
    6  A    between atoms: C_10  and  C_14
    7  A    between atoms: C_14  and  C_27
    8  A    between atoms: C_17  and  C_26
    9  A    between atoms: C_17  and  C_33
   10  A    between atoms: C_22  and  N_24
   11  A    between atoms: C_26  and  O_34
   12  A    between atoms: C_27  and  C_37
   13  A    between atoms: C_29  and  C_36
   14  A    between atoms: C_33  and  C_36
                            x       y       z     vdW  Elec       q    Type
                         _______ _______ _______ _____ _____    ______ ____

>  <TORSDO>
F 14

$$$$
=
 OpenBabel10272414583D

 37 39  0  0  1  0  0  0  0  0999 V2000
  187.9790  174.3790  137.3000 C   0  0  0  0  0  2  0  0  0  0  0  0
  183.7810  174.6680  135.8090 C   0  0  0  0  0  3  0  0  0  0  0  0
  188.1290  175.7230  136.5750 C   0  0  2  0  0  3  0  0  0  0  0  0
  185.0080  174.9770  136.4040 C   0  0  0  0  0  0  0  0  0  0  0  0
  185.6530  173.9430  137.2660 C   0  0  0  0  0  2  0  0  0  0  0  0
  185.6030  176.2350  136.1690 C   0  0  0  0  0  0  0  0  0  0  0  0
  183.7230  176.8430  134.7570 C   0  0  0  0  0  3  0  0  0  0  0  0
  186.9370  173.5540  136.6960 N   0  0  0  0  0  0  0  0  0  0  0  0
  184.9480  177.1590  135.3470 C   0  0  0  0  0  3  0  0  0  0  0  0
  186.9160  176.6540  136.7790 C   0  0  1  0  0  3  0  0  0  0  0  0
  183.1320  175.5980  134.9840 C   0  0  0  0  0  0  0  0  0  0  0  0
  181.9060  175.3110  134.3780 O   0  0  0  0  0  0  0  0  0  0  0  0
  180.8240  176.2320  134.3580 C   0  0  0  0  0  1  0  0  0  0  0  0
  188.9170  177.1620  134.3460 S   0  0  0  0  0  1  0  0  0  0  0  0
  188.4780  175.5570  135.0890 C   0  0  1  0  0  3  0  0  0  0  0  0
  189.6460  174.5950  134.9050 C   0  0  0  0  0  2  0  0  0  0  0  0
  191.6420  176.1300  134.4780 C   0  0  0  0  0  1  0  0  0  0  0  0
  190.9400  175.1810  135.4580 C   0  0  2  0  0  3  0  0  0  0  0  0
  191.3740  173.9580  137.4210 O   0  0  0  0  0  0  0  0  0  0  0  0
  191.7830  174.1480  136.1020 N   0  0  0  0  0  0  0  0  0  0  0  0
  192.5770  174.5650  137.2520 C   0  0  2  0  0  0  0  0  0  0  0  0
  193.7400  173.6500  137.5730 C   0  0  0  0  0  1  0  0  0  0  0  0
  191.5980  176.5160  138.6760 C   0  0  0  0  0  1  0  0  0  0  0  0
  193.5050  176.7400  137.3290 O   0  0  0  0  0  0  0  0  0  0  0  0
  192.6070  176.0040  137.7010 C   0  0  0  0  0  0  0  0  0  0  0  0
  187.1980  172.1410  136.9890 C   0  0  0  0  0  2  0  0  0  0  0  0
  187.8500  171.3850  135.8300 C   0  0  0  0  0  1  0  0  0  0  0  0
  186.8070  177.4000  138.1210 C   0  0  1  0  0  3  0  0  0  0  0  0
  188.1150  177.9100  138.6620 C   0  0  0  0  0  0  0  0  0  0  0  0
  188.7410  178.8950  138.0150 C   0  0  0  0  0  2  0  0  0  0  0  0
  189.0850  178.5610  140.8510 C   0  0  0  0  0  1  0  0  0  0  0  0
  188.6750  177.4050  139.9570 C   0  0  0  0  0  2  0  0  0  0  0  0
  185.7370  178.4870  138.0930 C   0  0  0  0  0  2  0  0  0  0  0  0
  184.5730  178.1060  138.9880 C   0  0  0  0  0  2  0  0  0  0  0  0
  184.2560  179.2580  139.9180 C   0  0  0  0  0  2  0  0  0  0  0  0
  182.4270  179.8880  138.8610 C   0  0  0  0  0  1  0  0  0  0  0  0
  182.8750  179.3630  140.0720 O   0  0  0  0  0  0  0  0  0  0  0  0
  2  4  1  0  0  0  0
  3 15  1  6  0  0  0
  3 10  1  0  0  0  0
  3  1  1  0  0  0  0
  4  5  1  0  0  0  0
  6  4  2  0  0  0  0
  6 10  1  0  0  0  0
  7 11  1  0  0  0  0
  7  9  2  0  0  0  0
  8 26  1  0  0  0  0
  8  5  1  0  0  0  0
  8  1  1  0  0  0  0
  9  6  1  0  0  0  0
 10 28  1  1  0  0  0
 11  2  2  0  0  0  0
 12 11  1  0  0  0  0
 13 12  1  0  0  0  0
 15 14  1  1  0  0  0
 16 15  1  0  0  0  0
 16 18  1  0  0  0  0
 18 17  1  6  0  0  0
 18 20  1  0  0  0  0
 20 21  1  0  0  0  0
 20 19  1  0  0  0  0
 21 19  1  0  0  0  0
 21 22  1  1  0  0  0
 21 25  1  0  0  0  0
 24 25  2  0  0  0  0
 25 23  1  0  0  0  0
 27 26  1  0  0  0  0
 28 33  1  6  0  0  0
 28 29  1  0  0  0  0
 29 32  1  0  0  0  0
 30 29  2  0  0  0  0
 32 31  1  0  0  0  0
 33 34  1  0  0  0  0
 34 35  1  0  0  0  0
 35 37  1  0  0  0  0
 36 37  1  0  0  0  0
M  END
>  <MODEL>
4

>  <REMARK>
 VINA RESULT:      -3.5      2.739      7.480
  Name = 
  14 active torsions:
  status: ('A' for Active; 'I' for Inactive)
    1  A    between atoms: C_1  and  C_12
    2  A    between atoms: C_1  and  C_36
    3  A    between atoms: O_3  and  C_32
    4  A    between atoms: N_6  and  C_37
    5  A    between atoms: C_8  and  C_35
    6  A    between atoms: C_10  and  C_14
    7  A    between atoms: C_14  and  C_27
    8  A    between atoms: C_17  and  C_26
    9  A    between atoms: C_17  and  C_33
   10  A    between atoms: C_22  and  N_24
   11  A    between atoms: C_26  and  O_34
   12  A    between atoms: C_27  and  C_37
   13  A    between atoms: C_29  and  C_36
   14  A    between atoms: C_33  and  C_36
                            x       y       z     vdW  Elec       q    Type
                         _______ _______ _______ _____ _____    ______ ____

>  <TORSDO>
F 14

$$$$
=
 OpenBabel10272414583D

 37 39  0  0  1  0  0  0  0  0999 V2000
  190.7490  174.5570  138.0350 C   0  0  0  0  0  2  0  0  0  0  0  0
  187.4490  176.5110  135.7490 C   0  0  0  0  0  3  0  0  0  0  0  0
  191.2320  176.0030  138.2070 C   0  0  2  0  0  3  0  0  0  0  0  0
  188.3740  176.1990  136.7510 C   0  0  0  0  0  0  0  0  0  0  0  0
  188.5900  174.7620  137.0870 C   0  0  0  0  0  2  0  0  0  0  0  0
  189.0780  177.2360  137.4010 C   0  0  0  0  0  0  0  0  0  0  0  0
  187.9070  178.8670  136.0340 C   0  0  0  0  0  3  0  0  0  0  0  0
  189.9720  174.3900  136.8110 N   0  0  0  0  0  0  0  0  0  0  0  0
  188.8330  178.5640  137.0350 C   0  0  0  0  0  3  0  0  0  0  0  0
  190.0810  176.9900  138.4980 C   0  0  1  0  0  3  0  0  0  0  0  0
  187.2110  177.8450  135.3860 C   0  0  0  0  0  0  0  0  0  0  0  0
  186.2930  178.1790  134.3870 O   0  0  0  0  0  0  0  0  0  0  0  0
  184.9710  177.6560  134.3520 C   0  0  0  0  0  1  0  0  0  0  0  0
  193.7790  176.9140  137.6230 S   0  0  0  0  0  1  0  0  0  0  0  0
  192.1090  176.4760  137.0390 C   0  0  1  0  0  3  0  0  0  0  0  0
  192.2290  175.3930  135.9730 C   0  0  0  0  0  2  0  0  0  0  0  0
  194.2490  175.7150  134.4430 C   0  0  0  0  0  1  0  0  0  0  0  0
  193.6870  175.0420  135.7010 C   0  0  2  0  0  3  0  0  0  0  0  0
  193.9370  173.2420  137.1970 O   0  0  0  0  0  0  0  0  0  0  0  0
  193.9410  173.5900  135.8470 N   0  0  0  0  0  0  0  0  0  0  0  0
  195.1420  173.1990  136.5750 C   0  0  2  0  0  0  0  0  0  0  0  0
  195.6060  171.7830  136.3020 C   0  0  0  0  0  1  0  0  0  0  0  0
  197.1870  174.7630  136.1640 C   0  0  0  0  0  1  0  0  0  0  0  0
  196.0130  174.6890  138.1930 O   0  0  0  0  0  0  0  0  0  0  0  0
  196.1260  174.2280  137.0700 C   0  0  0  0  0  0  0  0  0  0  0  0
  190.0290  172.9890  136.3800 C   0  0  0  0  0  2  0  0  0  0  0  0
  188.6820  172.4390  135.9050 C   0  0  0  0  0  1  0  0  0  0  0  0
  189.5110  177.0200  139.9270 C   0  0  1  0  0  3  0  0  0  0  0  0
  190.5470  176.9470  141.0170 C   0  0  0  0  0  0  0  0  0  0  0  0
  191.6520  177.6850  140.9060 C   0  0  0  0  0  2  0  0  0  0  0  0
  191.2720  176.5690  143.3590 C   0  0  0  0  0  1  0  0  0  0  0  0
  190.3160  176.1420  142.2600 C   0  0  0  0  0  2  0  0  0  0  0  0
  188.5400  178.1770  140.1380 C   0  0  0  0  0  2  0  0  0  0  0  0
  187.7640  177.9870  141.4280 C   0  0  0  0  0  2  0  0  0  0  0  0
  186.6480  179.0080  141.4980 C   0  0  0  0  0  2  0  0  0  0  0  0
  184.5900  178.9130  140.7140 C   0  0  0  0  0  1  0  0  0  0  0  0
  185.9220  178.9840  140.3080 O   0  0  0  0  0  0  0  0  0  0  0  0
  1  3  1  0  0  0  0
  2  4  1  0  0  0  0
  3 15  1  6  0  0  0
  3 10  1  0  0  0  0
  4  5  1  0  0  0  0
  4  6  2  0  0  0  0
  6 10  1  0  0  0  0
  7  9  2  0  0  0  0
  8  5  1  0  0  0  0
  8  1  1  0  0  0  0
  9  6  1  0  0  0  0
 10 28  1  1  0  0  0
 11  2  2  0  0  0  0
 11  7  1  0  0  0  0
 12 11  1  0  0  0  0
 13 12  1  0  0  0  0
 15 14  1  1  0  0  0
 16 15  1  0  0  0  0
 18 17  1  6  0  0  0
 18 20  1  0  0  0  0
 18 16  1  0  0  0  0
 20 21  1  0  0  0  0
 20 19  1  0  0  0  0
 21 22  1  6  0  0  0
 21 25  1  0  0  0  0
 21 19  1  0  0  0  0
 23 25  1  0  0  0  0
 25 24  2  0  0  0  0
 26  8  1  0  0  0  0
 27 26  1  0  0  0  0
 28 33  1  1  0  0  0
 28 29  1  0  0  0  0
 29 32  1  0  0  0  0
 30 29  2  0  0  0  0
 32 31  1  0  0  0  0
 33 34  1  0  0  0  0
 34 35  1  0  0  0  0
 37 36  1  0  0  0  0
 37 35  1  0  0  0  0
M  END
>  <MODEL>
5

>  <REMARK>
 VINA RESULT:      -3.3      2.918      7.954
  Name = 
  14 active torsions:
  status: ('A' for Active; 'I' for Inactive)
    1  A    between atoms: C_1  and  C_12
    2  A    between atoms: C_1  and  C_36
    3  A    between atoms: O_3  and  C_32
    4  A    between atoms: N_6  and  C_37
    5  A    between atoms: C_8  and  C_35
    6  A    between atoms: C_10  and  C_14
    7  A    between atoms: C_14  and  C_27
    8  A    between atoms: C_17  and  C_26
    9  A    between atoms: C_17  and  C_33
   10  A    between atoms: C_22  and  N_24
   11  A    between atoms: C_26  and  O_34
   12  A    between atoms: C_27  and  C_37
   13  A    between atoms: C_29  and  C_36
   14  A    between atoms: C_33  and  C_36
                            x       y       z     vdW  Elec       q    Type
                         _______ _______ _______ _____ _____    ______ ____

>  <TORSDO>
F 14

$$$$
=
 OpenBabel10272414583D

 37 39  0  0  1  0  0  0  0  0999 V2000
  185.4760  177.4900  135.1870 C   0  0  0  0  0  2  0  0  0  0  0  0
  183.9680  173.3290  135.7760 C   0  0  0  0  0  3  0  0  0  0  0  0
  186.4050  177.1160  136.3490 C   0  0  2  0  0  3  0  0  0  0  0  0
  184.8160  174.4260  135.5960 C   0  0  0  0  0  0  0  0  0  0  0  0
  184.4330  175.4520  134.5820 C   0  0  0  0  0  2  0  0  0  0  0  0
  185.9890  174.5400  136.3740 C   0  0  0  0  0  0  0  0  0  0  0  0
  185.4370  172.4520  137.4850 C   0  0  0  0  0  3  0  0  0  0  0  0
  184.2250  176.7390  135.2340 N   0  0  0  0  0  0  0  0  0  0  0  0
  186.2880  173.5460  137.3100 C   0  0  0  0  0  3  0  0  0  0  0  0
  186.9630  175.6820  136.2350 C   0  0  1  0  0  3  0  0  0  0  0  0
  184.2730  172.3370  136.7210 C   0  0  0  0  0  0  0  0  0  0  0  0
  183.4410  171.2330  136.9180 O   0  0  0  0  0  0  0  0  0  0  0  0
  182.0340  171.2860  136.7220 C   0  0  0  0  0  1  0  0  0  0  0  0
  186.9990  178.0290  138.8930 S   0  0  0  0  0  1  0  0  0  0  0  0
  185.7660  177.3730  137.7220 C   0  0  1  0  0  3  0  0  0  0  0  0
  184.6150  178.3660  137.6120 C   0  0  0  0  0  2  0  0  0  0  0  0
  183.1540  176.4140  138.3720 C   0  0  0  0  0  1  0  0  0  0  0  0
  183.4190  177.9230  138.4460 C   0  0  2  0  0  3  0  0  0  0  0  0
  182.3570  179.9230  139.0880 O   0  0  0  0  0  0  0  0  0  0  0  0
  182.2510  178.8130  138.2510 N   0  0  0  0  0  0  0  0  0  0  0  0
  181.3850  179.0290  139.4050 C   0  0  2  0  0  0  0  0  0  0  0  0
  179.9980  179.5310  139.0600 C   0  0  0  0  0  1  0  0  0  0  0  0
  182.6570  178.7810  141.6670 C   0  0  0  0  0  1  0  0  0  0  0  0
  180.9060  177.3630  141.0150 O   0  0  0  0  0  0  0  0  0  0  0  0
  181.6190  178.3020  140.7050 C   0  0  0  0  0  0  0  0  0  0  0  0
  183.1770  177.4840  134.5280 C   0  0  0  0  0  2  0  0  0  0  0  0
  181.7590  177.1160  134.9700 C   0  0  0  0  0  1  0  0  0  0  0  0
  188.1180  175.4430  135.2460 C   0  0  1  0  0  3  0  0  0  0  0  0
  189.4880  175.4620  135.8670 C   0  0  0  0  0  0  0  0  0  0  0  0
  190.5460  175.6900  135.0880 C   0  0  0  0  0  2  0  0  0  0  0  0
  190.4240  176.5280  137.9030 C   0  0  0  0  0  1  0  0  0  0  0  0
  189.6760  175.3290  137.3480 C   0  0  0  0  0  2  0  0  0  0  0  0
  187.8970  174.2010  134.3880 C   0  0  0  0  0  2  0  0  0  0  0  0
  188.8120  173.0780  134.8390 C   0  0  0  0  0  2  0  0  0  0  0  0
  188.1370  171.7470  134.5830 C   0  0  0  0  0  2  0  0  0  0  0  0
  187.9690  169.6710  135.3060 C   0  0  0  0  0  1  0  0  0  0  0  0
  188.1720  170.9780  135.7450 O   0  0  0  0  0  0  0  0  0  0  0  0
  1  8  1  0  0  0  0
  1  3  1  0  0  0  0
  2 11  1  0  0  0  0
  3 15  1  1  0  0  0
  4  2  2  0  0  0  0
  4  6  1  0  0  0  0
  5  8  1  0  0  0  0
  5  4  1  0  0  0  0
  6  9  2  0  0  0  0
  9  7  1  0  0  0  0
 10 28  1  6  0  0  0
 10  3  1  0  0  0  0
 10  6  1  0  0  0  0
 11 12  1  0  0  0  0
 11  7  2  0  0  0  0
 13 12  1  0  0  0  0
 15 14  1  1  0  0  0
 16 15  1  0  0  0  0
 16 18  1  0  0  0  0
 18 17  1  6  0  0  0
 19 21  1  0  0  0  0
 20 18  1  0  0  0  0
 20 19  1  0  0  0  0
 20 21  1  0  0  0  0
 21 22  1  6  0  0  0
 21 25  1  0  0  0  0
 25 24  2  0  0  0  0
 25 23  1  0  0  0  0
 26 27  1  0  0  0  0
 26  8  1  0  0  0  0
 28 33  1  1  0  0  0
 28 29  1  0  0  0  0
 29 32  1  0  0  0  0
 30 29  2  0  0  0  0
 32 31  1  0  0  0  0
 33 34  1  0  0  0  0
 35 34  1  0  0  0  0
 35 37  1  0  0  0  0
 36 37  1  0  0  0  0
M  END
>  <MODEL>
6

>  <REMARK>
 VINA RESULT:      -3.1      2.772      4.436
  Name = 
  14 active torsions:
  status: ('A' for Active; 'I' for Inactive)
    1  A    between atoms: C_1  and  C_12
    2  A    between atoms: C_1  and  C_36
    3  A    between atoms: O_3  and  C_32
    4  A    between atoms: N_6  and  C_37
    5  A    between atoms: C_8  and  C_35
    6  A    between atoms: C_10  and  C_14
    7  A    between atoms: C_14  and  C_27
    8  A    between atoms: C_17  and  C_26
    9  A    between atoms: C_17  and  C_33
   10  A    between atoms: C_22  and  N_24
   11  A    between atoms: C_26  and  O_34
   12  A    between atoms: C_27  and  C_37
   13  A    between atoms: C_29  and  C_36
   14  A    between atoms: C_33  and  C_36
                            x       y       z     vdW  Elec       q    Type
                         _______ _______ _______ _____ _____    ______ ____

>  <TORSDO>
F 14

$$$$
=
 OpenBabel10272414583D

 37 39  0  0  1  0  0  0  0  0999 V2000
  187.2140  178.3140  137.0940 C   0  0  0  0  0  2  0  0  0  0  0  0
  184.5130  174.7600  137.1590 C   0  0  0  0  0  3  0  0  0  0  0  0
  188.2830  177.2720  137.4510 C   0  0  2  0  0  3  0  0  0  0  0  0
  185.5900  175.6100  136.8900 C   0  0  0  0  0  0  0  0  0  0  0  0
  185.2950  177.0350  136.5590 C   0  0  0  0  0  2  0  0  0  0  0  0
  186.9090  175.1110  136.9500 C   0  0  0  0  0  0  0  0  0  0  0  0
  186.0370  172.9220  137.5370 C   0  0  0  0  0  3  0  0  0  0  0  0
  185.8910  177.9110  137.5610 N   0  0  0  0  0  0  0  0  0  0  0  0
  187.1180  173.7660  137.2710 C   0  0  0  0  0  3  0  0  0  0  0  0
  188.1240  175.9550  136.6630 C   0  0  1  0  0  3  0  0  0  0  0  0
  184.7310  173.4120  137.4830 C   0  0  0  0  0  0  0  0  0  0  0  0
  183.6700  172.5440  137.7560 O   0  0  0  0  0  0  0  0  0  0  0  0
  183.2880  171.4970  136.8740 C   0  0  0  0  0  1  0  0  0  0  0  0
  189.9330  176.1560  139.3720 S   0  0  0  0  0  1  0  0  0  0  0  0
  188.3840  177.0250  138.9640 C   0  0  1  0  0  3  0  0  0  0  0  0
  188.3390  178.3380  139.7370 C   0  0  0  0  0  2  0  0  0  0  0  0
  186.9170  178.2730  141.8570 C   0  0  0  0  0  1  0  0  0  0  0  0
  188.3100  178.0950  141.2410 C   0  0  2  0  0  3  0  0  0  0  0  0
  190.5860  177.9940  141.8300 O   0  0  0  0  0  0  0  0  0  0  0  0
  189.4330  178.7710  141.9310 N   0  0  0  0  0  0  0  0  0  0  0  0
  190.0280  178.0740  143.0650 C   0  0  2  0  0  0  0  0  0  0  0  0
  190.8160  178.9650  144.0030 C   0  0  0  0  0  1  0  0  0  0  0  0
  189.8490  175.4770  142.9290 C   0  0  0  0  0  1  0  0  0  0  0  0
  188.7390  176.7580  144.5500 O   0  0  0  0  0  0  0  0  0  0  0  0
  189.4610  176.7700  143.5660 C   0  0  0  0  0  0  0  0  0  0  0  0
  185.0490  179.0980  137.7400 C   0  0  0  0  0  2  0  0  0  0  0  0
  184.0040  178.9470  138.8460 C   0  0  0  0  0  1  0  0  0  0  0  0
  188.6060  175.9360  135.2020 C   0  0  1  0  0  3  0  0  0  0  0  0
  190.0180  176.4160  135.0020 C   0  0  0  0  0  0  0  0  0  0  0  0
  190.2210  177.5960  134.4140 C   0  0  0  0  0  2  0  0  0  0  0  0
  191.9330  176.4550  136.5800 C   0  0  0  0  0  1  0  0  0  0  0  0
  191.1880  175.6450  135.5340 C   0  0  0  0  0  2  0  0  0  0  0  0
  188.3600  174.5890  134.5300 C   0  0  0  0  0  2  0  0  0  0  0  0
  189.5150  173.6440  134.8010 C   0  0  0  0  0  2  0  0  0  0  0  0
  189.1410  172.2490  134.3470 C   0  0  0  0  0  2  0  0  0  0  0  0
  187.5280  170.9440  135.0930 C   0  0  0  0  0  1  0  0  0  0  0  0
  187.7540  172.1120  134.3660 O   0  0  0  0  0  0  0  0  0  0  0  0
  1  3  1  0  0  0  0
  1  8  1  0  0  0  0
  2 11  1  0  0  0  0
  3 15  1  1  0  0  0
  4  6  1  0  0  0  0
  4  2  2  0  0  0  0
  5  4  1  0  0  0  0
  5  8  1  0  0  0  0
  6  9  2  0  0  0  0
  8 26  1  0  0  0  0
  9  7  1  0  0  0  0
 10 28  1  6  0  0  0
 10  6  1  0  0  0  0
 10  3  1  0  0  0  0
 11  7  2  0  0  0  0
 11 12  1  0  0  0  0
 13 12  1  0  0  0  0
 15 14  1  6  0  0  0
 15 16  1  0  0  0  0
 16 18  1  0  0  0  0
 18 17  1  1  0  0  0
 18 20  1  0  0  0  0
 19 20  1  0  0  0  0
 19 21  1  0  0  0  0
 20 21  1  0  0  0  0
 21 25  1  0  0  0  0
 21 22  1  1  0  0  0
 23 25  1  0  0  0  0
 25 24  2  0  0  0  0
 26 27  1  0  0  0  0
 28 33  1  1  0  0  0
 29 28  1  0  0  0  0
 29 32  1  0  0  0  0
 30 29  2  0  0  0  0
 32 31  1  0  0  0  0
 33 34  1  0  0  0  0
 35 37  1  0  0  0  0
 35 34  1  0  0  0  0
 37 36  1  0  0  0  0
M  END
>  <MODEL>
7

>  <REMARK>
 VINA RESULT:      -3.1      3.033      5.056
  Name = 
  14 active torsions:
  status: ('A' for Active; 'I' for Inactive)
    1  A    between atoms: C_1  and  C_12
    2  A    between atoms: C_1  and  C_36
    3  A    between atoms: O_3  and  C_32
    4  A    between atoms: N_6  and  C_37
    5  A    between atoms: C_8  and  C_35
    6  A    between atoms: C_10  and  C_14
    7  A    between atoms: C_14  and  C_27
    8  A    between atoms: C_17  and  C_26
    9  A    between atoms: C_17  and  C_33
   10  A    between atoms: C_22  and  N_24
   11  A    between atoms: C_26  and  O_34
   12  A    between atoms: C_27  and  C_37
   13  A    between atoms: C_29  and  C_36
   14  A    between atoms: C_33  and  C_36
                            x       y       z     vdW  Elec       q    Type
                         _______ _______ _______ _____ _____    ______ ____

>  <TORSDO>
F 14

$$$$
=
 OpenBabel10272414583D

 37 39  0  0  1  0  0  0  0  0999 V2000
  193.5580  174.8460  134.5910 C   0  0  0  0  0  2  0  0  0  0  0  0
  192.8040  177.1260  138.3550 C   0  0  0  0  0  3  0  0  0  0  0  0
  192.4380  173.9490  135.1330 C   0  0  2  0  0  3  0  0  0  0  0  0
  192.6140  176.4470  137.1480 C   0  0  0  0  0  0  0  0  0  0  0  0
  193.5550  176.7300  136.0250 C   0  0  0  0  0  2  0  0  0  0  0  0
  191.5600  175.5150  137.0270 C   0  0  0  0  0  0  0  0  0  0  0  0
  190.9110  175.9750  139.3210 C   0  0  0  0  0  3  0  0  0  0  0  0
  194.2810  175.5160  135.6680 N   0  0  0  0  0  0  0  0  0  0  0  0
  190.7150  175.2920  138.1190 C   0  0  0  0  0  3  0  0  0  0  0  0
  191.2770  174.7500  135.7590 C   0  0  1  0  0  3  0  0  0  0  0  0
  191.9540  176.8940  139.4470 C   0  0  0  0  0  0  0  0  0  0  0  0
  192.1260  177.5610  140.6630 O   0  0  0  0  0  0  0  0  0  0  0  0
  191.9010  176.9370  141.9200 C   0  0  0  0  0  1  0  0  0  0  0  0
  192.1400  171.2680  135.7510 S   0  0  0  0  0  1  0  0  0  0  0  0
  192.9600  172.8610  136.0830 C   0  0  1  0  0  3  0  0  0  0  0  0
  194.4660  172.6800  135.9330 C   0  0  0  0  0  2  0  0  0  0  0  0
  195.0300  173.4700  138.2960 C   0  0  0  0  0  1  0  0  0  0  0  0
  195.1190  172.3360  137.2660 C   0  0  2  0  0  3  0  0  0  0  0  0
  196.3760  170.7270  136.0950 O   0  0  0  0  0  0  0  0  0  0  0  0
  196.4480  171.7070  137.0840 N   0  0  0  0  0  0  0  0  0  0  0  0
  196.5480  170.2800  137.3650 C   0  0  2  0  0  0  0  0  0  0  0  0
  197.9580  169.7920  137.6240 C   0  0  0  0  0  1  0  0  0  0  0  0
  194.5770  168.6100  137.0160 C   0  0  0  0  0  1  0  0  0  0  0  0
  195.1150  169.5450  139.0990 O   0  0  0  0  0  0  0  0  0  0  0  0
  195.3740  169.5060  137.9080 C   0  0  0  0  0  0  0  0  0  0  0  0
  195.6300  175.8650  135.2130 C   0  0  0  0  0  2  0  0  0  0  0  0
  195.7780  177.3310  134.7990 C   0  0  0  0  0  1  0  0  0  0  0  0
  190.2710  175.4140  134.8030 C   0  0  1  0  0  3  0  0  0  0  0  0
  188.9020  174.7880  134.8010 C   0  0  0  0  0  0  0  0  0  0  0  0
  187.8640  175.5100  134.3760 C   0  0  0  0  0  2  0  0  0  0  0  0
  188.0340  173.2370  136.5310 C   0  0  0  0  0  1  0  0  0  0  0  0
  188.7000  173.3510  135.1720 C   0  0  0  0  0  2  0  0  0  0  0  0
  190.2080  176.9260  134.9880 C   0  0  0  0  0  2  0  0  0  0  0  0
  188.9950  177.3080  135.8150 C   0  0  0  0  0  2  0  0  0  0  0  0
  189.3530  178.4550  136.7350 C   0  0  0  0  0  2  0  0  0  0  0  0
  187.2670  178.1080  137.3570 C   0  0  0  0  0  1  0  0  0  0  0  0
  188.1920  179.1230  137.1170 O   0  0  0  0  0  0  0  0  0  0  0  0
  1  3  1  0  0  0  0
  1  8  1  0  0  0  0
  2 11  1  0  0  0  0
  3 10  1  0  0  0  0
  3 15  1  1  0  0  0
  4  2  2  0  0  0  0
  5  4  1  0  0  0  0
  6  4  1  0  0  0  0
  6  9  2  0  0  0  0
  7 11  2  0  0  0  0
  8  5  1  0  0  0  0
  9  7  1  0  0  0  0
 10 28  1  6  0  0  0
 10  6  1  0  0  0  0
 11 12  1  0  0  0  0
 12 13  1  0  0  0  0
 15 14  1  6  0  0  0
 16 15  1  0  0  0  0
 16 18  1  0  0  0  0
 18 17  1  1  0  0  0
 19 20  1  0  0  0  0
 19 21  1  0  0  0  0
 20 18  1  0  0  0  0
 20 21  1  0  0  0  0
 21 22  1  1  0  0  0
 21 25  1  0  0  0  0
 23 25  1  0  0  0  0
 25 24  2  0  0  0  0
 26  8  1  0  0  0  0
 27 26  1  0  0  0  0
 28 33  1  1  0  0  0
 29 28  1  0  0  0  0
 29 32  1  0  0  0  0
 30 29  2  0  0  0  0
 32 31  1  0  0  0  0
 33 34  1  0  0  0  0
 34 35  1  0  0  0  0
 35 37  1  0  0  0  0
 37 36  1  0  0  0  0
M  END
>  <MODEL>
8

>  <REMARK>
 VINA RESULT:      -2.7      4.110      9.056
  Name = 
  14 active torsions:
  status: ('A' for Active; 'I' for Inactive)
    1  A    between atoms: C_1  and  C_12
    2  A    between atoms: C_1  and  C_36
    3  A    between atoms: O_3  and  C_32
    4  A    between atoms: N_6  and  C_37
    5  A    between atoms: C_8  and  C_35
    6  A    between atoms: C_10  and  C_14
    7  A    between atoms: C_14  and  C_27
    8  A    between atoms: C_17  and  C_26
    9  A    between atoms: C_17  and  C_33
   10  A    between atoms: C_22  and  N_24
   11  A    between atoms: C_26  and  O_34
   12  A    between atoms: C_27  and  C_37
   13  A    between atoms: C_29  and  C_36
   14  A    between atoms: C_33  and  C_36
                            x       y       z     vdW  Elec       q    Type
                         _______ _______ _______ _____ _____    ______ ____

>  <TORSDO>
F 14

$$$$
=
 OpenBabel10272414583D

 37 39  0  0  1  0  0  0  0  0999 V2000
  189.3630  177.6410  135.5270 C   0  0  0  0  0  2  0  0  0  0  0  0
  187.1100  173.7920  135.3240 C   0  0  0  0  0  3  0  0  0  0  0  0
  190.1150  176.9240  136.6550 C   0  0  2  0  0  3  0  0  0  0  0  0
  188.1480  174.7270  135.3760 C   0  0  0  0  0  0  0  0  0  0  0  0
  188.0350  175.9530  134.5320 C   0  0  0  0  0  2  0  0  0  0  0  0
  189.2560  174.4990  136.2220 C   0  0  0  0  0  0  0  0  0  0  0  0
  188.2590  172.4010  136.9330 C   0  0  0  0  0  3  0  0  0  0  0  0
  188.0010  177.1380  135.3810 N   0  0  0  0  0  0  0  0  0  0  0  0
  189.2990  173.3310  136.9910 C   0  0  0  0  0  3  0  0  0  0  0  0
  190.4210  175.4480  136.3290 C   0  0  1  0  0  3  0  0  0  0  0  0
  187.1600  172.6250  136.1010 C   0  0  0  0  0  0  0  0  0  0  0  0
  186.1340  171.6770  136.0650 O   0  0  0  0  0  0  0  0  0  0  0  0
  185.8800  170.8620  134.9290 C   0  0  0  0  0  1  0  0  0  0  0  0
  187.6460  176.6850  137.8830 S   0  0  0  0  0  1  0  0  0  0  0  0
  189.4210  177.0760  138.0170 C   0  0  1  0  0  3  0  0  0  0  0  0
  190.0500  176.1570  139.0570 C   0  0  0  0  0  2  0  0  0  0  0  0
  192.0470  177.4960  139.9200 C   0  0  0  0  0  1  0  0  0  0  0  0
  190.6430  176.9530  140.2140 C   0  0  2  0  0  3  0  0  0  0  0  0
  189.1110  175.9390  141.6850 O   0  0  0  0  0  0  0  0  0  0  0  0
  190.4560  176.2630  141.5110 N   0  0  0  0  0  0  0  0  0  0  0  0
  189.5970  176.9180  142.4910 C   0  0  2  0  0  0  0  0  0  0  0  0
  189.8040  176.4490  143.9160 C   0  0  0  0  0  1  0  0  0  0  0  0
  187.6550  178.4130  141.6030 C   0  0  0  0  0  1  0  0  0  0  0  0
  189.5960  179.2820  142.5920 O   0  0  0  0  0  0  0  0  0  0  0  0
  189.0060  178.2790  142.2260 C   0  0  0  0  0  0  0  0  0  0  0  0
  187.1600  178.1660  134.7580 C   0  0  0  0  0  2  0  0  0  0  0  0
  185.7680  177.6660  134.3700 C   0  0  0  0  0  1  0  0  0  0  0  0
  191.5940  175.1570  135.3760 C   0  0  1  0  0  3  0  0  0  0  0  0
  192.9410  175.0820  136.0430 C   0  0  0  0  0  0  0  0  0  0  0  0
  193.9980  175.6080  135.4230 C   0  0  0  0  0  2  0  0  0  0  0  0
  194.3940  174.9970  138.0520 C   0  0  0  0  0  1  0  0  0  0  0  0
  193.0980  174.5200  137.4230 C   0  0  0  0  0  2  0  0  0  0  0  0
  191.3290  173.9460  134.4860 C   0  0  0  0  0  2  0  0  0  0  0  0
  192.0950  172.7390  134.9940 C   0  0  0  0  0  2  0  0  0  0  0  0
  191.5150  171.4820  134.3830 C   0  0  0  0  0  2  0  0  0  0  0  0
  193.5270  170.9890  135.1380 C   0  0  0  0  0  1  0  0  0  0  0  0
  192.4920  170.4890  134.3480 O   0  0  0  0  0  0  0  0  0  0  0  0
  1  3  1  0  0  0  0
  2  4  2  0  0  0  0
  2 11  1  0  0  0  0
  3 15  1  1  0  0  0
  4  6  1  0  0  0  0
  5  4  1  0  0  0  0
  5  8  1  0  0  0  0
  6 10  1  0  0  0  0
  6  9  2  0  0  0  0
  7  9  1  0  0  0  0
  8  1  1  0  0  0  0
 10 28  1  6  0  0  0
 10  3  1  0  0  0  0
 11  7  2  0  0  0  0
 12 11  1  0  0  0  0
 13 12  1  0  0  0  0
 15 14  1  6  0  0  0
 15 16  1  0  0  0  0
 16 18  1  0  0  0  0
 18 17  1  6  0  0  0
 18 20  1  0  0  0  0
 19 21  1  0  0  0  0
 20 19  1  0  0  0  0
 20 21  1  0  0  0  0
 21 22  1  1  0  0  0
 23 25  1  0  0  0  0
 25 21  1  0  0  0  0
 25 24  2  0  0  0  0
 26  8  1  0  0  0  0
 27 26  1  0  0  0  0
 28 33  1  1  0  0  0
 28 29  1  0  0  0  0
 29 32  1  0  0  0  0
 30 29  2  0  0  0  0
 32 31  1  0  0  0  0
 33 34  1  0  0  0  0
 35 34  1  0  0  0  0
 37 35  1  0  0  0  0
 37 36  1  0  0  0  0
M  END
>  <MODEL>
9

>  <REMARK>
 VINA RESULT:      -2.6      2.845      4.060
  Name = 
  14 active torsions:
  status: ('A' for Active; 'I' for Inactive)
    1  A    between atoms: C_1  and  C_12
    2  A    between atoms: C_1  and  C_36
    3  A    between atoms: O_3  and  C_32
    4  A    between atoms: N_6  and  C_37
    5  A    between atoms: C_8  and  C_35
    6  A    between atoms: C_10  and  C_14
    7  A    between atoms: C_14  and  C_27
    8  A    between atoms: C_17  and  C_26
    9  A    between atoms: C_17  and  C_33
   10  A    between atoms: C_22  and  N_24
   11  A    between atoms: C_26  and  O_34
   12  A    between atoms: C_27  and  C_37
   13  A    between atoms: C_29  and  C_36
   14  A    between atoms: C_33  and  C_36
                            x       y       z     vdW  Elec       q    Type
                         _______ _______ _______ _____ _____    ______ ____

>  <TORSDO>
F 14

$$$$
