=
 OpenBabel10272414213D

 43 48  0  0  1  0  0  0  0  0999 V2000
  181.4690  178.8360  143.2300 C   0  0  0  0  0  0  0  0  0  0  0  0
  184.9440  178.4660  139.6060 C   0  0  0  0  0  0  0  0  0  0  0  0
  187.3920  178.5550  140.8690 C   0  0  0  0  0  0  0  0  0  0  0  0
  182.6060  178.6380  141.1020 C   0  0  0  0  0  0  0  0  0  0  0  0
  182.7000  178.8790  143.8920 C   0  0  0  0  0  3  0  0  0  0  0  0
  179.9820  178.9470  144.1460 Cl  0  0  0  0  0  0  0  0  0  0  0  0
  183.8540  178.6810  141.7670 C   0  0  0  0  0  0  0  0  0  0  0  0
  181.4220  178.7180  141.8390 C   0  0  0  0  0  3  0  0  0  0  0  0
  183.8890  178.8030  143.1630 C   0  0  0  0  0  3  0  0  0  0  0  0
  186.2520  178.6380  141.6010 N   0  0  0  0  0  0  0  0  0  0  0  0
  185.0300  178.5980  141.0060 C   0  0  0  0  0  0  0  0  0  0  0  0
  183.6840  178.4330  138.9980 C   0  0  0  0  0  3  0  0  0  0  0  0
  186.1350  178.3620  138.8700 C   0  0  0  0  0  0  0  0  0  0  0  0
  187.3270  178.4140  139.5200 N   0  0  0  0  0  0  0  0  0  0  0  0
  182.5550  178.5190  139.7500 N   0  0  0  0  0  0  0  0  0  0  0  0
  186.1310  178.1610  137.0790 S   0  0  0  0  0  0  0  0  0  0  0  0
  189.7880  176.8140  135.6520 C   0  0  0  0  0  2  0  0  0  0  0  0
  189.4410  175.3950  135.5830 N   0  0  0  0  0  0  0  0  0  0  0  0
  187.4880  175.7350  137.0210 C   0  0  0  0  0  2  0  0  0  0  0  0
  188.5200  177.6580  135.7450 C   0  0  0  0  0  2  0  0  0  0  0  0
  187.7120  177.2450  136.9750 C   0  0  0  0  0  3  0  0  0  0  0  0
  188.8220  175.0150  136.8530 C   0  0  0  0  0  2  0  0  0  0  0  0
  191.6950  175.3600  136.1700 O   0  0  0  0  0  1  0  0  0  0  0  0
  190.6930  174.6650  135.4910 C   0  0  0  0  0  2  0  0  0  0  0  0
  188.7110  178.5430  141.5510 C   0  0  0  0  0  2  0  0  0  0  0  0
  189.0110  177.2390  141.9530 O   0  0  0  0  0  0  0  0  0  0  0  0
  190.3960  177.2250  142.1500 C   0  0  2  0  0  3  0  0  0  0  0  0
  190.4430  176.1970  139.9970 O   0  0  0  0  0  1  0  0  0  0  0  0
  191.1150  177.1040  140.8170 C   0  0  0  0  0  2  0  0  0  0  0  0
  190.7930  176.0820  143.0820 C   0  0  0  0  0  2  0  0  0  0  0  0
  191.5560  176.5720  144.2310 N   0  0  0  0  0  0  0  0  0  0  0  0
  191.2630  176.9880  146.5400 N   0  0  0  0  0  2  0  0  0  0  0  0
  192.0960  175.4280  144.9380 C   0  0  0  0  0  2  0  0  0  0  0  0
  190.7040  177.2480  145.2180 C   0  0  1  0  0  0  0  0  0  0  0  0
  190.7240  178.6100  144.9710 F   0  0  0  0  0  0  0  0  0  0  0  0
  192.0580  175.7770  146.4050 C   0  0  0  0  0  2  0  0  0  0  0  0
  189.3530  176.7630  145.1720 O   0  0  0  0  0  0  0  0  0  0  0  0
  188.2680  177.3640  145.8240 C   0  0  0  0  0  0  0  0  0  0  0  0
  187.2220  178.3280  147.7950 C   0  0  0  0  0  3  0  0  0  0  0  0
  185.9880  178.1880  145.7180 C   0  0  0  0  0  3  0  0  0  0  0  0
  186.0530  178.5550  147.0650 C   0  0  0  0  0  3  0  0  0  0  0  0
  187.0920  177.5930  145.1020 C   0  0  0  0  0  3  0  0  0  0  0  0
  188.3270  177.7360  147.1770 C   0  0  0  0  0  3  0  0  0  0  0  0
  1  5  1  0  0  0  0
  1  6  1  0  0  0  0
  2 11  1  0  0  0  0
  3 25  1  0  0  0  0
  3 10  2  0  0  0  0
  4  7  1  0  0  0  0
  4  8  1  0  0  0  0
  7  9  1  0  0  0  0
  8  1  2  0  0  0  0
  9  5  2  0  0  0  0
 11 10  1  0  0  0  0
 11  7  2  0  0  0  0
 12  2  2  0  0  0  0
 12 15  1  0  0  0  0
 13 14  2  0  0  0  0
 13  2  1  0  0  0  0
 14  3  1  0  0  0  0
 15  4  2  0  0  0  0
 16 13  1  0  0  0  0
 17 20  1  0  0  0  0
 18 17  1  0  0  0  0
 18 22  1  0  0  0  0
 20 21  1  0  0  0  0
 21 19  1  0  0  0  0
 21 16  1  0  0  0  0
 22 19  1  0  0  0  0
 24 18  1  0  0  0  0
 24 23  1  0  0  0  0
 25 26  1  0  0  0  0
 26 27  1  0  0  0  0
 27 29  1  6  0  0  0
 27 30  1  0  0  0  0
 28 29  1  0  0  0  0
 30 31  1  0  0  0  0
 31 33  1  0  0  0  0
 31 34  1  0  0  0  0
 33 36  1  0  0  0  0
 34 35  1  6  0  0  0
 34 32  1  0  0  0  0
 36 32  1  0  0  0  0
 37 34  1  0  0  0  0
 37 38  1  0  0  0  0
 38 43  1  0  0  0  0
 40 41  2  0  0  0  0
 41 39  1  0  0  0  0
 42 40  1  0  0  0  0
 42 38  2  0  0  0  0
 43 39  2  0  0  0  0
M  END
>  <MODEL>
1

>  <REMARK>
 VINA RESULT:      -9.4      0.000      0.000
  Name = 
  11 active torsions:
  status: ('A' for Active; 'I' for Inactive)
    1  A    between atoms: S_1  and  C_34
    2  A    between atoms: S_1  and  C_35
    3  A    between atoms: C_2  and  O_6
    4  A    between atoms: C_2  and  C_13
    5  A    between atoms: C_3  and  N_4
    6  A    between atoms: C_3  and  C_12
    7  A    between atoms: O_6  and  C_12
    8  A    between atoms: C_11  and  O_14
    9  A    between atoms: C_12  and  C_17
   10  A    between atoms: O_14  and  C_22
   11  A    between atoms: N_19  and  C_37
                            x       y       z     vdW  Elec       q    Type
                         _______ _______ _______ _____ _____    ______ ____

>  <TORSDO>
F 11

$$$$
=
 OpenBabel10272414213D

 43 48  0  0  1  0  0  0  0  0999 V2000
  181.4240  178.8730  143.1870 C   0  0  0  0  0  0  0  0  0  0  0  0
  184.7240  178.3760  139.4170 C   0  0  0  0  0  0  0  0  0  0  0  0
  187.2290  178.5690  140.5500 C   0  0  0  0  0  0  0  0  0  0  0  0
  182.4590  178.5860  141.0180 C   0  0  0  0  0  0  0  0  0  0  0  0
  182.6850  178.9690  143.7840 C   0  0  0  0  0  3  0  0  0  0  0  0
  179.9820  179.0060  144.1690 Cl  0  0  0  0  0  0  0  0  0  0  0  0
  183.7370  178.6830  141.6160 C   0  0  0  0  0  0  0  0  0  0  0  0
  181.3110  178.6840  141.8080 C   0  0  0  0  0  3  0  0  0  0  0  0
  183.8380  178.8750  143.0020 C   0  0  0  0  0  3  0  0  0  0  0  0
  186.1250  178.6710  141.3340 N   0  0  0  0  0  0  0  0  0  0  0  0
  184.8760  178.5810  140.8020 C   0  0  0  0  0  0  0  0  0  0  0  0
  183.4360  178.2920  138.8750 C   0  0  0  0  0  3  0  0  0  0  0  0
  185.8790  178.2550  138.6290 C   0  0  0  0  0  0  0  0  0  0  0  0
  187.1000  178.3590  139.2150 N   0  0  0  0  0  0  0  0  0  0  0  0
  182.3450  178.3980  139.6770 N   0  0  0  0  0  0  0  0  0  0  0  0
  185.7910  177.9640  136.8530 S   0  0  0  0  0  0  0  0  0  0  0  0
  187.8010  174.3370  136.6870 C   0  0  0  0  0  2  0  0  0  0  0  0
  186.9820  173.7260  135.6410 N   0  0  0  0  0  0  0  0  0  0  0  0
  185.2180  175.3950  135.9570 C   0  0  0  0  0  2  0  0  0  0  0  0
  187.5910  175.8480  136.7000 C   0  0  0  0  0  2  0  0  0  0  0  0
  186.1140  176.1640  136.9260 C   0  0  0  0  0  3  0  0  0  0  0  0
  185.5750  173.9130  135.9970 C   0  0  0  0  0  2  0  0  0  0  0  0
  188.0320  172.0010  136.8010 O   0  0  0  0  0  1  0  0  0  0  0  0
  187.2420  172.2980  135.6900 C   0  0  0  0  0  2  0  0  0  0  0  0
  188.5800  178.6130  141.1660 C   0  0  0  0  0  2  0  0  0  0  0  0
  188.7400  177.5080  142.0050 O   0  0  0  0  0  0  0  0  0  0  0  0
  190.0970  177.1750  141.9170 C   0  0  2  0  0  3  0  0  0  0  0  0
  191.7280  177.1490  140.1760 O   0  0  0  0  0  1  0  0  0  0  0  0
  190.4380  176.7310  140.5050 C   0  0  0  0  0  2  0  0  0  0  0  0
  190.4470  176.0820  142.9250 C   0  0  0  0  0  2  0  0  0  0  0  0
  191.3220  176.5930  143.9810 N   0  0  0  0  0  0  0  0  0  0  0  0
  191.2800  177.0090  146.3080 N   0  0  0  0  0  2  0  0  0  0  0  0
  191.9630  175.4630  144.6240 C   0  0  0  0  0  2  0  0  0  0  0  0
  190.5710  177.2520  145.0570 C   0  0  1  0  0  0  0  0  0  0  0  0
  190.5340  178.6140  144.8090 F   0  0  0  0  0  0  0  0  0  0  0  0
  192.0810  175.8160  146.0860 C   0  0  0  0  0  2  0  0  0  0  0  0
  189.2350  176.7380  145.1620 O   0  0  0  0  0  0  0  0  0  0  0  0
  188.1730  177.4000  145.7940 C   0  0  0  0  0  0  0  0  0  0  0  0
  187.0670  178.2640  147.7790 C   0  0  0  0  0  3  0  0  0  0  0  0
  186.0330  178.5290  145.6060 C   0  0  0  0  0  3  0  0  0  0  0  0
  186.0110  178.7280  146.9900 C   0  0  0  0  0  3  0  0  0  0  0  0
  187.1100  177.8650  145.0130 C   0  0  0  0  0  3  0  0  0  0  0  0
  188.1460  177.6040  147.1830 C   0  0  0  0  0  3  0  0  0  0  0  0
  1  5  1  0  0  0  0
  1  6  1  0  0  0  0
  2 11  1  0  0  0  0
  3 25  1  0  0  0  0
  3 10  2  0  0  0  0
  4  7  1  0  0  0  0
  4  8  1  0  0  0  0
  7  9  1  0  0  0  0
  8  1  2  0  0  0  0
  9  5  2  0  0  0  0
 11 10  1  0  0  0  0
 11  7  2  0  0  0  0
 12  2  2  0  0  0  0
 12 15  1  0  0  0  0
 13 14  2  0  0  0  0
 13  2  1  0  0  0  0
 14  3  1  0  0  0  0
 15  4  2  0  0  0  0
 16 21  1  0  0  0  0
 16 13  1  0  0  0  0
 17 20  1  0  0  0  0
 18 24  1  0  0  0  0
 18 22  1  0  0  0  0
 18 17  1  0  0  0  0
 19 22  1  0  0  0  0
 19 21  1  0  0  0  0
 20 21  1  0  0  0  0
 24 23  1  0  0  0  0
 25 26  1  0  0  0  0
 27 29  1  6  0  0  0
 27 26  1  0  0  0  0
 27 30  1  0  0  0  0
 28 29  1  0  0  0  0
 30 31  1  0  0  0  0
 31 33  1  0  0  0  0
 31 34  1  0  0  0  0
 33 36  1  0  0  0  0
 34 35  1  6  0  0  0
 34 37  1  0  0  0  0
 34 32  1  0  0  0  0
 36 32  1  0  0  0  0
 37 38  1  0  0  0  0
 38 43  1  0  0  0  0
 40 41  2  0  0  0  0
 41 39  1  0  0  0  0
 42 40  1  0  0  0  0
 42 38  2  0  0  0  0
 43 39  2  0  0  0  0
M  END
>  <MODEL>
2

>  <REMARK>
 VINA RESULT:      -8.8      1.269      1.496
  Name = 
  11 active torsions:
  status: ('A' for Active; 'I' for Inactive)
    1  A    between atoms: S_1  and  C_34
    2  A    between atoms: S_1  and  C_35
    3  A    between atoms: C_2  and  O_6
    4  A    between atoms: C_2  and  C_13
    5  A    between atoms: C_3  and  N_4
    6  A    between atoms: C_3  and  C_12
    7  A    between atoms: O_6  and  C_12
    8  A    between atoms: C_11  and  O_14
    9  A    between atoms: C_12  and  C_17
   10  A    between atoms: O_14  and  C_22
   11  A    between atoms: N_19  and  C_37
                            x       y       z     vdW  Elec       q    Type
                         _______ _______ _______ _____ _____    ______ ____

>  <TORSDO>
F 11

$$$$
=
 OpenBabel10272414213D

 43 48  0  0  1  0  0  0  0  0999 V2000
  188.3810  177.6450  147.0590 C   0  0  0  0  0  0  0  0  0  0  0  0
  189.9080  177.4540  142.2660 C   0  0  0  0  0  0  0  0  0  0  0  0
  187.6970  178.0310  140.7250 C   0  0  0  0  0  0  0  0  0  0  0  0
  189.6890  177.3970  145.0370 C   0  0  0  0  0  0  0  0  0  0  0  0
  187.2480  177.9440  146.2970 C   0  0  0  0  0  3  0  0  0  0  0  0
  188.2710  177.5970  148.8050 Cl  0  0  0  0  0  0  0  0  0  0  0  0
  188.5460  177.7000  144.2620 C   0  0  0  0  0  0  0  0  0  0  0  0
  189.5980  177.3700  146.4310 C   0  0  0  0  0  3  0  0  0  0  0  0
  187.3290  177.9710  144.9030 C   0  0  0  0  0  3  0  0  0  0  0  0
  187.5880  178.0050  142.0780 N   0  0  0  0  0  0  0  0  0  0  0  0
  188.6620  177.7220  142.8630 C   0  0  0  0  0  0  0  0  0  0  0  0
  191.0070  177.1560  143.0790 C   0  0  0  0  0  3  0  0  0  0  0  0
  190.0030  177.5050  140.8660 C   0  0  0  0  0  0  0  0  0  0  0  0
  188.8940  177.7870  140.1320 N   0  0  0  0  0  0  0  0  0  0  0  0
  190.8760  177.1330  144.4310 N   0  0  0  0  0  0  0  0  0  0  0  0
  191.5580  177.2050  140.0070 S   0  0  0  0  0  0  0  0  0  0  0  0
  191.2150  174.5850  136.8070 C   0  0  0  0  0  2  0  0  0  0  0  0
  190.8690  175.5830  135.7950 N   0  0  0  0  0  0  0  0  0  0  0  0
  190.3190  177.2340  137.5190 C   0  0  0  0  0  2  0  0  0  0  0  0
  191.8250  175.2680  138.0280 C   0  0  0  0  0  2  0  0  0  0  0  0
  190.8380  176.2860  138.5980 C   0  0  0  0  0  3  0  0  0  0  0  0
  189.8000  176.4250  136.3340 C   0  0  0  0  0  2  0  0  0  0  0  0
  188.9600  175.1990  134.5160 O   0  0  0  0  0  1  0  0  0  0  0  0
  190.3040  174.8560  134.6720 C   0  0  0  0  0  2  0  0  0  0  0  0
  186.5220  178.4000  139.8950 C   0  0  0  0  0  2  0  0  0  0  0  0
  186.8470  178.2490  138.5440 O   0  0  0  0  0  0  0  0  0  0  0  0
  185.7320  177.6330  137.9660 C   0  0  2  0  0  3  0  0  0  0  0  0
  186.8990  178.3950  136.0280 O   0  0  0  0  0  1  0  0  0  0  0  0
  185.9290  177.4920  136.4650 C   0  0  0  0  0  2  0  0  0  0  0  0
  184.4630  178.4270  138.2690 C   0  0  0  0  0  2  0  0  0  0  0  0
  183.2780  177.5670  138.2400 N   0  0  0  0  0  0  0  0  0  0  0  0
  181.1670  177.3770  139.2900 N   0  0  0  0  0  2  0  0  0  0  0  0
  182.3060  178.1660  137.3460 C   0  0  0  0  0  2  0  0  0  0  0  0
  182.5980  177.5120  139.5410 C   0  0  1  0  0  0  0  0  0  0  0  0
  183.0480  176.4020  140.2360 F   0  0  0  0  0  0  0  0  0  0  0  0
  180.9500  177.8890  137.9460 C   0  0  0  0  0  2  0  0  0  0  0  0
  182.8340  178.7000  140.3130 O   0  0  0  0  0  0  0  0  0  0  0  0
  182.8310  178.7540  141.7130 C   0  0  0  0  0  0  0  0  0  0  0  0
  181.6810  178.9460  143.8460 C   0  0  0  0  0  3  0  0  0  0  0  0
  184.0910  178.7250  143.7880 C   0  0  0  0  0  3  0  0  0  0  0  0
  182.9050  178.8620  144.5150 C   0  0  0  0  0  3  0  0  0  0  0  0
  184.0520  178.6730  142.3910 C   0  0  0  0  0  3  0  0  0  0  0  0
  181.6430  178.8900  142.4500 C   0  0  0  0  0  3  0  0  0  0  0  0
  1  6  1  0  0  0  0
  2 11  2  0  0  0  0
  2 12  1  0  0  0  0
  3 10  2  0  0  0  0
  4  8  2  0  0  0  0
  5  1  2  0  0  0  0
  7  9  2  0  0  0  0
  7  4  1  0  0  0  0
  8  1  1  0  0  0  0
  9  5  1  0  0  0  0
 10 11  1  0  0  0  0
 11  7  1  0  0  0  0
 12 15  2  0  0  0  0
 13  2  1  0  0  0  0
 14  3  1  0  0  0  0
 14 13  2  0  0  0  0
 15  4  1  0  0  0  0
 16 13  1  0  0  0  0
 17 20  1  0  0  0  0
 18 22  1  0  0  0  0
 18 17  1  0  0  0  0
 19 21  1  0  0  0  0
 20 21  1  0  0  0  0
 21 16  1  0  0  0  0
 22 19  1  0  0  0  0
 23 24  1  0  0  0  0
 24 18  1  0  0  0  0
 25  3  1  0  0  0  0
 26 25  1  0  0  0  0
 27 29  1  6  0  0  0
 27 30  1  0  0  0  0
 27 26  1  0  0  0  0
 28 29  1  0  0  0  0
 31 30  1  0  0  0  0
 31 34  1  0  0  0  0
 32 34  1  0  0  0  0
 33 36  1  0  0  0  0
 33 31  1  0  0  0  0
 34 35  1  1  0  0  0
 34 37  1  0  0  0  0
 36 32  1  0  0  0  0
 37 38  1  0  0  0  0
 38 42  2  0  0  0  0
 38 43  1  0  0  0  0
 39 41  1  0  0  0  0
 40 41  2  0  0  0  0
 42 40  1  0  0  0  0
 43 39  2  0  0  0  0
M  END
>  <MODEL>
3

>  <REMARK>
 VINA RESULT:      -8.7      3.036      6.866
  Name = 
  11 active torsions:
  status: ('A' for Active; 'I' for Inactive)
    1  A    between atoms: S_1  and  C_34
    2  A    between atoms: S_1  and  C_35
    3  A    between atoms: C_2  and  O_6
    4  A    between atoms: C_2  and  C_13
    5  A    between atoms: C_3  and  N_4
    6  A    between atoms: C_3  and  C_12
    7  A    between atoms: O_6  and  C_12
    8  A    between atoms: C_11  and  O_14
    9  A    between atoms: C_12  and  C_17
   10  A    between atoms: O_14  and  C_22
   11  A    between atoms: N_19  and  C_37
                            x       y       z     vdW  Elec       q    Type
                         _______ _______ _______ _____ _____    ______ ____

>  <TORSDO>
F 11

$$$$
=
 OpenBabel10272414213D

 43 48  0  0  1  0  0  0  0  0999 V2000
  184.8630  178.5180  145.3200 C   0  0  0  0  0  0  0  0  0  0  0  0
  182.5300  178.8440  140.8700 C   0  0  0  0  0  0  0  0  0  0  0  0
  184.4190  178.2320  138.9590 C   0  0  0  0  0  0  0  0  0  0  0  0
  183.2310  178.8420  143.5610 C   0  0  0  0  0  0  0  0  0  0  0  0
  185.8350  178.2010  144.3670 C   0  0  0  0  0  3  0  0  0  0  0  0
  185.2760  178.5290  147.0200 Cl  0  0  0  0  0  0  0  0  0  0  0  0
  184.2110  178.5210  142.5940 C   0  0  0  0  0  0  0  0  0  0  0  0
  183.5640  178.8400  144.9180 C   0  0  0  0  0  3  0  0  0  0  0  0
  185.5120  178.2030  143.0090 C   0  0  0  0  0  3  0  0  0  0  0  0
  184.7630  178.2290  140.2720 N   0  0  0  0  0  0  0  0  0  0  0  0
  183.8530  178.5290  141.2370 C   0  0  0  0  0  0  0  0  0  0  0  0
  181.6000  179.1580  141.8670 C   0  0  0  0  0  3  0  0  0  0  0  0
  182.1910  178.8220  139.5080 C   0  0  0  0  0  0  0  0  0  0  0  0
  183.1460  178.5220  138.5880 N   0  0  0  0  0  0  0  0  0  0  0  0
  181.9660  179.1510  143.1750 N   0  0  0  0  0  0  0  0  0  0  0  0
  180.5200  179.1830  138.9380 S   0  0  0  0  0  0  0  0  0  0  0  0
  181.1370  183.0190  137.4770 C   0  0  0  0  0  2  0  0  0  0  0  0
  180.2520  182.9130  136.3180 N   0  0  0  0  0  0  0  0  0  0  0  0
  180.2060  180.4700  136.4940 C   0  0  0  0  0  2  0  0  0  0  0  0
  180.8220  181.9100  138.4780 C   0  0  0  0  0  2  0  0  0  0  0  0
  180.9820  180.5470  137.8080 C   0  0  0  0  0  3  0  0  0  0  0  0
  180.5650  181.6660  135.6180 C   0  0  0  0  0  2  0  0  0  0  0  0
  181.3800  184.9400  136.1060 O   0  0  0  0  0  1  0  0  0  0  0  0
  180.6090  183.9990  135.4220 C   0  0  0  0  0  2  0  0  0  0  0  0
  185.4190  177.8460  137.9310 C   0  0  0  0  0  2  0  0  0  0  0  0
  186.2910  178.9150  137.7110 O   0  0  0  0  0  0  0  0  0  0  0  0
  187.4780  178.3330  137.2550 C   0  0  2  0  0  3  0  0  0  0  0  0
  186.8960  178.4790  134.9450 O   0  0  0  0  0  1  0  0  0  0  0  0
  187.2290  177.5790  135.9580 C   0  0  0  0  0  2  0  0  0  0  0  0
  188.0600  177.4000  138.3150 C   0  0  0  0  0  2  0  0  0  0  0  0
  189.4480  177.0470  138.0090 N   0  0  0  0  0  0  0  0  0  0  0  0
  191.2360  175.8100  138.9390 N   0  0  0  0  0  2  0  0  0  0  0  0
  189.4520  175.7530  137.3550 C   0  0  0  0  0  2  0  0  0  0  0  0
  190.2530  176.8500  139.2210 C   0  0  1  0  0  0  0  0  0  0  0  0
  190.9090  178.0320  139.5210 F   0  0  0  0  0  0  0  0  0  0  0  0
  190.6930  175.0390  137.8320 C   0  0  0  0  0  2  0  0  0  0  0  0
  189.4430  176.4460  140.3360 O   0  0  0  0  0  0  0  0  0  0  0  0
  189.6550  176.8450  141.6620 C   0  0  0  0  0  0  0  0  0  0  0  0
  189.4000  178.4300  143.4870 C   0  0  0  0  0  3  0  0  0  0  0  0
  190.6170  176.3680  143.8390 C   0  0  0  0  0  3  0  0  0  0  0  0
  190.1260  177.5820  144.3270 C   0  0  0  0  0  3  0  0  0  0  0  0
  190.3840  176.0040  142.5100 C   0  0  0  0  0  3  0  0  0  0  0  0
  189.1630  178.0630  142.1590 C   0  0  0  0  0  3  0  0  0  0  0  0
  1  6  1  0  0  0  0
  2 11  2  0  0  0  0
  2 12  1  0  0  0  0
  3 10  2  0  0  0  0
  4  8  2  0  0  0  0
  5  1  2  0  0  0  0
  7  9  2  0  0  0  0
  7  4  1  0  0  0  0
  8  1  1  0  0  0  0
  9  5  1  0  0  0  0
 10 11  1  0  0  0  0
 11  7  1  0  0  0  0
 12 15  2  0  0  0  0
 13  2  1  0  0  0  0
 14  3  1  0  0  0  0
 14 13  2  0  0  0  0
 15  4  1  0  0  0  0
 16 13  1  0  0  0  0
 17 20  1  0  0  0  0
 18 17  1  0  0  0  0
 19 21  1  0  0  0  0
 21 20  1  0  0  0  0
 21 16  1  0  0  0  0
 22 18  1  0  0  0  0
 22 19  1  0  0  0  0
 24 23  1  0  0  0  0
 24 18  1  0  0  0  0
 25  3  1  0  0  0  0
 26 25  1  0  0  0  0
 27 29  1  6  0  0  0
 27 26  1  0  0  0  0
 27 30  1  0  0  0  0
 28 29  1  0  0  0  0
 31 30  1  0  0  0  0
 31 34  1  0  0  0  0
 32 34  1  0  0  0  0
 33 36  1  0  0  0  0
 33 31  1  0  0  0  0
 34 35  1  1  0  0  0
 34 37  1  0  0  0  0
 36 32  1  0  0  0  0
 37 38  1  0  0  0  0
 38 43  2  0  0  0  0
 38 42  1  0  0  0  0
 39 41  2  0  0  0  0
 40 41  1  0  0  0  0
 42 40  2  0  0  0  0
 43 39  1  0  0  0  0
M  END
>  <MODEL>
4

>  <REMARK>
 VINA RESULT:      -8.6      3.746      6.579
  Name = 
  11 active torsions:
  status: ('A' for Active; 'I' for Inactive)
    1  A    between atoms: S_1  and  C_34
    2  A    between atoms: S_1  and  C_35
    3  A    between atoms: C_2  and  O_6
    4  A    between atoms: C_2  and  C_13
    5  A    between atoms: C_3  and  N_4
    6  A    between atoms: C_3  and  C_12
    7  A    between atoms: O_6  and  C_12
    8  A    between atoms: C_11  and  O_14
    9  A    between atoms: C_12  and  C_17
   10  A    between atoms: O_14  and  C_22
   11  A    between atoms: N_19  and  C_37
                            x       y       z     vdW  Elec       q    Type
                         _______ _______ _______ _____ _____    ______ ____

>  <TORSDO>
F 11

$$$$
=
 OpenBabel10272414213D

 43 48  0  0  1  0  0  0  0  0999 V2000
  182.0160  178.2570  137.5490 C   0  0  0  0  0  0  0  0  0  0  0  0
  186.6820  176.5440  136.7460 C   0  0  0  0  0  0  0  0  0  0  0  0
  188.3000  177.8160  138.5790 C   0  0  0  0  0  0  0  0  0  0  0  0
  183.9560  177.0920  136.6880 C   0  0  0  0  0  0  0  0  0  0  0  0
  182.8180  178.9100  138.4900 C   0  0  0  0  0  3  0  0  0  0  0  0
  180.2990  178.5850  137.4860 Cl  0  0  0  0  0  0  0  0  0  0  0  0
  184.7720  177.7500  137.6380 C   0  0  0  0  0  0  0  0  0  0  0  0
  182.5840  177.3520  136.6490 C   0  0  0  0  0  3  0  0  0  0  0  0
  184.1910  178.6590  138.5350 C   0  0  0  0  0  3  0  0  0  0  0  0
  186.9700  178.0850  138.5530 N   0  0  0  0  0  0  0  0  0  0  0  0
  186.1470  177.4730  137.6590 C   0  0  0  0  0  0  0  0  0  0  0  0
  185.8320  175.9240  135.8230 C   0  0  0  0  0  3  0  0  0  0  0  0
  188.0580  176.2670  136.8030 C   0  0  0  0  0  0  0  0  0  0  0  0
  188.8310  176.9140  137.7140 N   0  0  0  0  0  0  0  0  0  0  0  0
  184.5040  176.2080  135.8140 N   0  0  0  0  0  0  0  0  0  0  0  0
  188.8330  175.0750  135.6970 S   0  0  0  0  0  0  0  0  0  0  0  0
  192.8800  175.9360  136.0270 C   0  0  0  0  0  2  0  0  0  0  0  0
  193.3330  174.5700  136.2870 N   0  0  0  0  0  0  0  0  0  0  0  0
  191.0560  173.8500  136.8330 C   0  0  0  0  0  2  0  0  0  0  0  0
  191.4720  175.9160  135.4370 C   0  0  0  0  0  2  0  0  0  0  0  0
  190.5170  175.2130  136.4000 C   0  0  0  0  0  3  0  0  0  0  0  0
  192.4870  174.0030  137.3380 C   0  0  0  0  0  2  0  0  0  0  0  0
  194.6430  175.4300  138.0110 O   0  0  0  0  0  1  0  0  0  0  0  0
  194.6730  174.6750  136.8370 C   0  0  0  0  0  2  0  0  0  0  0  0
  189.1640  178.4560  139.6040 C   0  0  0  0  0  2  0  0  0  0  0  0
  188.9430  177.8440  140.8400 O   0  0  0  0  0  0  0  0  0  0  0  0
  190.2150  177.6650  141.3950 C   0  0  2  0  0  3  0  0  0  0  0  0
  192.4850  177.6330  140.6600 O   0  0  0  0  0  1  0  0  0  0  0  0
  191.1960  177.2190  140.3230 C   0  0  0  0  0  2  0  0  0  0  0  0
  190.1650  176.6510  142.5350 C   0  0  0  0  0  2  0  0  0  0  0  0
  190.9630  177.0970  143.6790 N   0  0  0  0  0  0  0  0  0  0  0  0
  190.8270  177.1960  146.0370 N   0  0  0  0  0  2  0  0  0  0  0  0
  191.6950  175.9560  144.1930 C   0  0  0  0  0  2  0  0  0  0  0  0
  190.1270  177.5360  144.8040 C   0  0  1  0  0  0  0  0  0  0  0  0
  189.9640  178.9090  144.7320 F   0  0  0  0  0  0  0  0  0  0  0  0
  191.7440  176.1230  145.6910 C   0  0  0  0  0  2  0  0  0  0  0  0
  188.8440  176.8910  144.7940 O   0  0  0  0  0  0  0  0  0  0  0  0
  187.6530  177.4790  145.2390 C   0  0  0  0  0  0  0  0  0  0  0  0
  186.2240  178.3520  147.0010 C   0  0  0  0  0  3  0  0  0  0  0  0
  185.4570  178.3670  144.7050 C   0  0  0  0  0  3  0  0  0  0  0  0
  185.2390  178.6520  146.0560 C   0  0  0  0  0  3  0  0  0  0  0  0
  186.6600  177.7810  144.3000 C   0  0  0  0  0  3  0  0  0  0  0  0
  187.4280  177.7690  146.5940 C   0  0  0  0  0  3  0  0  0  0  0  0
  1  5  1  0  0  0  0
  2 13  1  0  0  0  0
  2 11  1  0  0  0  0
  3 25  1  0  0  0  0
  4  7  1  0  0  0  0
  5  9  2  0  0  0  0
  6  1  1  0  0  0  0
  7 11  2  0  0  0  0
  7  9  1  0  0  0  0
  8  4  1  0  0  0  0
  8  1  2  0  0  0  0
 10  3  2  0  0  0  0
 11 10  1  0  0  0  0
 12  2  2  0  0  0  0
 13 14  2  0  0  0  0
 14  3  1  0  0  0  0
 15 12  1  0  0  0  0
 15  4  2  0  0  0  0
 16 21  1  0  0  0  0
 16 13  1  0  0  0  0
 17 18  1  0  0  0  0
 18 24  1  0  0  0  0
 18 22  1  0  0  0  0
 19 22  1  0  0  0  0
 20 17  1  0  0  0  0
 20 21  1  0  0  0  0
 21 19  1  0  0  0  0
 24 23  1  0  0  0  0
 25 26  1  0  0  0  0
 26 27  1  0  0  0  0
 27 29  1  6  0  0  0
 27 30  1  0  0  0  0
 29 28  1  0  0  0  0
 30 31  1  0  0  0  0
 31 33  1  0  0  0  0
 31 34  1  0  0  0  0
 33 36  1  0  0  0  0
 34 35  1  6  0  0  0
 34 32  1  0  0  0  0
 36 32  1  0  0  0  0
 37 34  1  0  0  0  0
 37 38  1  0  0  0  0
 38 43  1  0  0  0  0
 40 41  2  0  0  0  0
 41 39  1  0  0  0  0
 42 40  1  0  0  0  0
 42 38  2  0  0  0  0
 43 39  2  0  0  0  0
M  END
>  <MODEL>
5

>  <REMARK>
 VINA RESULT:      -8.5      2.300      3.303
  Name = 
  11 active torsions:
  status: ('A' for Active; 'I' for Inactive)
    1  A    between atoms: S_1  and  C_34
    2  A    between atoms: S_1  and  C_35
    3  A    between atoms: C_2  and  O_6
    4  A    between atoms: C_2  and  C_13
    5  A    between atoms: C_3  and  N_4
    6  A    between atoms: C_3  and  C_12
    7  A    between atoms: O_6  and  C_12
    8  A    between atoms: C_11  and  O_14
    9  A    between atoms: C_12  and  C_17
   10  A    between atoms: O_14  and  C_22
   11  A    between atoms: N_19  and  C_37
                            x       y       z     vdW  Elec       q    Type
                         _______ _______ _______ _____ _____    ______ ____

>  <TORSDO>
F 11

$$$$
=
 OpenBabel10272414213D

 43 48  0  0  1  0  0  0  0  0999 V2000
  190.9930  176.7200  146.0320 C   0  0  0  0  0  0  0  0  0  0  0  0
  189.5250  177.7410  141.3250 C   0  0  0  0  0  0  0  0  0  0  0  0
  186.9150  178.6090  141.4990 C   0  0  0  0  0  0  0  0  0  0  0  0
  190.8980  177.0080  143.6300 C   0  0  0  0  0  0  0  0  0  0  0  0
  189.6710  177.1620  146.1430 C   0  0  0  0  0  3  0  0  0  0  0  0
  191.8790  176.2480  147.4640 Cl  0  0  0  0  0  0  0  0  0  0  0  0
  189.5600  177.4560  143.7370 C   0  0  0  0  0  0  0  0  0  0  0  0
  191.6040  176.6410  144.7780 C   0  0  0  0  0  3  0  0  0  0  0  0
  188.9560  177.5280  145.0010 C   0  0  0  0  0  3  0  0  0  0  0  0
  187.5830  178.2530  142.6260 N   0  0  0  0  0  0  0  0  0  0  0  0
  188.8710  177.8200  142.5700 C   0  0  0  0  0  0  0  0  0  0  0  0
  190.8480  177.2870  141.2740 C   0  0  0  0  0  3  0  0  0  0  0  0
  188.8210  178.1330  140.1750 C   0  0  0  0  0  0  0  0  0  0  0  0
  187.5330  178.5520  140.2920 N   0  0  0  0  0  0  0  0  0  0  0  0
  191.4980  176.9340  142.4130 N   0  0  0  0  0  0  0  0  0  0  0  0
  189.5770  178.0960  138.5400 S   0  0  0  0  0  0  0  0  0  0  0  0
  189.5140  174.2540  136.9690 C   0  0  0  0  0  2  0  0  0  0  0  0
  188.3970  174.4570  136.0470 N   0  0  0  0  0  0  0  0  0  0  0  0
  187.7250  176.5060  137.2080 C   0  0  0  0  0  2  0  0  0  0  0  0
  190.0770  175.6020  137.4110 C   0  0  0  0  0  2  0  0  0  0  0  0
  188.9780  176.4290  138.0780 C   0  0  0  0  0  3  0  0  0  0  0  0
  187.3090  175.1010  136.7850 C   0  0  0  0  0  2  0  0  0  0  0  0
  188.9950  172.2420  135.6460 O   0  0  0  0  0  1  0  0  0  0  0  0
  187.9240  173.1360  135.6720 C   0  0  0  0  0  2  0  0  0  0  0  0
  185.5290  179.1340  141.5960 C   0  0  0  0  0  2  0  0  0  0  0  0
  185.1000  179.5380  140.3290 O   0  0  0  0  0  0  0  0  0  0  0  0
  183.8830  178.8790  140.1260 C   0  0  2  0  0  3  0  0  0  0  0  0
  181.9820  178.7910  141.5670 O   0  0  0  0  0  1  0  0  0  0  0  0
  183.3170  178.4000  141.4530 C   0  0  0  0  0  2  0  0  0  0  0  0
  184.0630  177.7060  139.1640 C   0  0  0  0  0  2  0  0  0  0  0  0
  183.5780  178.0390  137.8230 N   0  0  0  0  0  0  0  0  0  0  0  0
  182.1420  177.1630  136.1610 N   0  0  0  0  0  2  0  0  0  0  0  0
  182.3080  178.7240  137.9580 C   0  0  0  0  0  2  0  0  0  0  0  0
  183.2690  176.8420  137.0290 C   0  0  1  0  0  0  0  0  0  0  0  0
  184.3700  176.5220  136.2530 F   0  0  0  0  0  0  0  0  0  0  0  0
  181.4600  178.2810  136.7910 C   0  0  0  0  0  2  0  0  0  0  0  0
  182.9210  175.7280  137.8650 O   0  0  0  0  0  0  0  0  0  0  0  0
  183.0610  174.3820  137.4990 C   0  0  0  0  0  0  0  0  0  0  0  0
  182.1760  172.3060  136.5970 C   0  0  0  0  0  3  0  0  0  0  0  0
  184.4750  172.4150  137.3460 C   0  0  0  0  0  3  0  0  0  0  0  0
  183.4140  171.6900  136.7970 C   0  0  0  0  0  3  0  0  0  0  0  0
  184.2960  173.7560  137.6970 C   0  0  0  0  0  3  0  0  0  0  0  0
  181.9990  173.6480  136.9450 C   0  0  0  0  0  3  0  0  0  0  0  0
  1  5  1  0  0  0  0
  1  6  1  0  0  0  0
  2 11  1  0  0  0  0
  3 25  1  0  0  0  0
  3 10  2  0  0  0  0
  4  7  1  0  0  0  0
  4  8  1  0  0  0  0
  7  9  1  0  0  0  0
  8  1  2  0  0  0  0
  9  5  2  0  0  0  0
 11 10  1  0  0  0  0
 11  7  2  0  0  0  0
 12  2  2  0  0  0  0
 12 15  1  0  0  0  0
 13 14  2  0  0  0  0
 13  2  1  0  0  0  0
 14  3  1  0  0  0  0
 15  4  2  0  0  0  0
 16 13  1  0  0  0  0
 17 20  1  0  0  0  0
 18 22  1  0  0  0  0
 18 17  1  0  0  0  0
 19 21  1  0  0  0  0
 20 21  1  0  0  0  0
 21 16  1  0  0  0  0
 22 19  1  0  0  0  0
 23 24  1  0  0  0  0
 24 18  1  0  0  0  0
 26 25  1  0  0  0  0
 27 30  1  6  0  0  0
 27 26  1  0  0  0  0
 27 29  1  0  0  0  0
 29 28  1  0  0  0  0
 31 33  1  0  0  0  0
 31 30  1  0  0  0  0
 32 36  1  0  0  0  0
 32 34  1  0  0  0  0
 34 35  1  6  0  0  0
 34 31  1  0  0  0  0
 34 37  1  0  0  0  0
 36 33  1  0  0  0  0
 38 42  1  0  0  0  0
 38 37  1  0  0  0  0
 39 41  2  0  0  0  0
 39 43  1  0  0  0  0
 40 42  2  0  0  0  0
 41 40  1  0  0  0  0
 43 38  2  0  0  0  0
M  END
>  <MODEL>
6

>  <REMARK>
 VINA RESULT:      -8.4      3.982      8.273
  Name = 
  11 active torsions:
  status: ('A' for Active; 'I' for Inactive)
    1  A    between atoms: S_1  and  C_34
    2  A    between atoms: S_1  and  C_35
    3  A    between atoms: C_2  and  O_6
    4  A    between atoms: C_2  and  C_13
    5  A    between atoms: C_3  and  N_4
    6  A    between atoms: C_3  and  C_12
    7  A    between atoms: O_6  and  C_12
    8  A    between atoms: C_11  and  O_14
    9  A    between atoms: C_12  and  C_17
   10  A    between atoms: O_14  and  C_22
   11  A    between atoms: N_19  and  C_37
                            x       y       z     vdW  Elec       q    Type
                         _______ _______ _______ _____ _____    ______ ____

>  <TORSDO>
F 11

$$$$
=
 OpenBabel10272414213D

 43 48  0  0  1  0  0  0  0  0999 V2000
  187.3540  177.8240  146.4430 C   0  0  0  0  0  0  0  0  0  0  0  0
  183.3940  178.8400  143.5050 C   0  0  0  0  0  0  0  0  0  0  0  0
  184.2480  178.4960  140.9070 C   0  0  0  0  0  0  0  0  0  0  0  0
  185.1620  178.4270  145.6110 C   0  0  0  0  0  0  0  0  0  0  0  0
  187.8070  177.6400  145.1340 C   0  0  0  0  0  3  0  0  0  0  0  0
  188.4450  177.5760  147.7880 Cl  0  0  0  0  0  0  0  0  0  0  0  0
  185.6150  178.2420  144.2840 C   0  0  0  0  0  0  0  0  0  0  0  0
  186.0350  178.2190  146.6820 C   0  0  0  0  0  3  0  0  0  0  0  0
  186.9420  177.8480  144.0570 C   0  0  0  0  0  3  0  0  0  0  0  0
  185.1130  178.2920  141.9340 N   0  0  0  0  0  0  0  0  0  0  0  0
  184.7200  178.4560  143.2260 C   0  0  0  0  0  0  0  0  0  0  0  0
  182.9970  179.0140  144.8350 C   0  0  0  0  0  3  0  0  0  0  0  0
  182.5110  179.0260  142.4280 C   0  0  0  0  0  0  0  0  0  0  0  0
  182.9630  178.8530  141.1580 N   0  0  0  0  0  0  0  0  0  0  0  0
  183.8790  178.8070  145.8480 N   0  0  0  0  0  0  0  0  0  0  0  0
  180.7880  179.4890  142.6820 S   0  0  0  0  0  0  0  0  0  0  0  0
  180.1240  177.1600  139.3110 C   0  0  0  0  0  2  0  0  0  0  0  0
  180.7560  178.0580  138.3460 N   0  0  0  0  0  0  0  0  0  0  0  0
  180.6910  179.9190  139.9370 C   0  0  0  0  0  2  0  0  0  0  0  0
  180.5630  177.5210  140.7270 C   0  0  0  0  0  2  0  0  0  0  0  0
  180.1950  178.9730  141.0290 C   0  0  0  0  0  3  0  0  0  0  0  0
  180.2380  179.4080  138.5730 C   0  0  0  0  0  2  0  0  0  0  0  0
  181.2180  178.0410  136.0630 O   0  0  0  0  0  1  0  0  0  0  0  0
  180.2940  177.6470  137.0320 C   0  0  0  0  0  2  0  0  0  0  0  0
  184.6890  178.2540  139.5100 C   0  0  0  0  0  2  0  0  0  0  0  0
  186.0130  178.6760  139.3650 O   0  0  0  0  0  0  0  0  0  0  0  0
  186.4720  178.0510  138.2000 C   0  0  2  0  0  3  0  0  0  0  0  0
  185.7190  177.3010  136.0630 O   0  0  0  0  0  1  0  0  0  0  0  0
  185.2970  177.5660  137.3670 C   0  0  0  0  0  2  0  0  0  0  0  0
  187.4020  176.8890  138.5460 C   0  0  0  0  0  2  0  0  0  0  0  0
  188.7820  177.1780  138.1530 N   0  0  0  0  0  0  0  0  0  0  0  0
  190.9490  177.2230  139.0980 N   0  0  0  0  0  2  0  0  0  0  0  0
  189.4230  175.9270  137.8000 C   0  0  0  0  0  2  0  0  0  0  0  0
  189.5810  177.7000  139.2700 C   0  0  1  0  0  0  0  0  0  0  0  0
  189.5690  179.0830  139.2220 F   0  0  0  0  0  0  0  0  0  0  0  0
  190.8550  176.0380  138.2610 C   0  0  0  0  0  2  0  0  0  0  0  0
  189.0780  177.2500  140.5370 O   0  0  0  0  0  0  0  0  0  0  0  0
  189.8210  177.2200  141.7250 C   0  0  0  0  0  0  0  0  0  0  0  0
  190.9530  176.0250  143.5130 C   0  0  0  0  0  3  0  0  0  0  0  0
  190.9130  178.4450  143.5140 C   0  0  0  0  0  3  0  0  0  0  0  0
  191.3020  177.2400  144.1070 C   0  0  0  0  0  3  0  0  0  0  0  0
  190.1730  178.4330  142.3280 C   0  0  0  0  0  3  0  0  0  0  0  0
  190.2170  176.0140  142.3250 C   0  0  0  0  0  3  0  0  0  0  0  0
  1  8  1  0  0  0  0
  1  6  1  0  0  0  0
  2 12  1  0  0  0  0
  3 14  1  0  0  0  0
  3 10  2  0  0  0  0
  4 15  1  0  0  0  0
  4  8  2  0  0  0  0
  5  1  2  0  0  0  0
  7  4  1  0  0  0  0
  9  7  2  0  0  0  0
  9  5  1  0  0  0  0
 10 11  1  0  0  0  0
 11  2  2  0  0  0  0
 11  7  1  0  0  0  0
 12 15  2  0  0  0  0
 13 16  1  0  0  0  0
 13  2  1  0  0  0  0
 14 13  2  0  0  0  0
 17 20  1  0  0  0  0
 18 22  1  0  0  0  0
 18 17  1  0  0  0  0
 19 21  1  0  0  0  0
 20 21  1  0  0  0  0
 21 16  1  0  0  0  0
 22 19  1  0  0  0  0
 23 24  1  0  0  0  0
 24 18  1  0  0  0  0
 25  3  1  0  0  0  0
 26 25  1  0  0  0  0
 27 29  1  1  0  0  0
 27 30  1  0  0  0  0
 27 26  1  0  0  0  0
 28 29  1  0  0  0  0
 31 30  1  0  0  0  0
 31 34  1  0  0  0  0
 32 34  1  0  0  0  0
 33 31  1  0  0  0  0
 33 36  1  0  0  0  0
 34 35  1  6  0  0  0
 34 37  1  0  0  0  0
 36 32  1  0  0  0  0
 37 38  1  0  0  0  0
 38 43  2  0  0  0  0
 38 42  1  0  0  0  0
 39 41  2  0  0  0  0
 40 41  1  0  0  0  0
 42 40  2  0  0  0  0
 43 39  1  0  0  0  0
M  END
>  <MODEL>
7

>  <REMARK>
 VINA RESULT:      -8.4      3.348      6.678
  Name = 
  11 active torsions:
  status: ('A' for Active; 'I' for Inactive)
    1  A    between atoms: S_1  and  C_34
    2  A    between atoms: S_1  and  C_35
    3  A    between atoms: C_2  and  O_6
    4  A    between atoms: C_2  and  C_13
    5  A    between atoms: C_3  and  N_4
    6  A    between atoms: C_3  and  C_12
    7  A    between atoms: O_6  and  C_12
    8  A    between atoms: C_11  and  O_14
    9  A    between atoms: C_12  and  C_17
   10  A    between atoms: O_14  and  C_22
   11  A    between atoms: N_19  and  C_37
                            x       y       z     vdW  Elec       q    Type
                         _______ _______ _______ _____ _____    ______ ____

>  <TORSDO>
F 11

$$$$
=
 OpenBabel10272414213D

 43 48  0  0  1  0  0  0  0  0999 V2000
  184.7230  178.8060  139.6880 C   0  0  0  0  0  0  0  0  0  0  0  0
  189.1600  177.2380  137.9000 C   0  0  0  0  0  0  0  0  0  0  0  0
  190.9080  177.2670  140.0310 C   0  0  0  0  0  0  0  0  0  0  0  0
  186.5170  178.0230  138.2640 C   0  0  0  0  0  0  0  0  0  0  0  0
  185.5910  178.8240  140.7840 C   0  0  0  0  0  3  0  0  0  0  0  0
  183.0560  179.2980  139.8870 Cl  0  0  0  0  0  0  0  0  0  0  0  0
  187.4000  178.0390  139.3700 C   0  0  0  0  0  0  0  0  0  0  0  0
  185.1850  178.4080  138.4310 C   0  0  0  0  0  3  0  0  0  0  0  0
  186.9250  178.4430  140.6260 C   0  0  0  0  0  3  0  0  0  0  0  0
  189.6180  177.6490  140.2120 N   0  0  0  0  0  0  0  0  0  0  0  0
  188.7340  177.6470  139.1780 C   0  0  0  0  0  0  0  0  0  0  0  0
  188.2480  177.2450  136.8390 C   0  0  0  0  0  3  0  0  0  0  0  0
  190.4940  176.8290  137.7390 C   0  0  0  0  0  0  0  0  0  0  0  0
  191.3330  176.8590  138.8080 N   0  0  0  0  0  0  0  0  0  0  0  0
  186.9620  177.6330  137.0410 N   0  0  0  0  0  0  0  0  0  0  0  0
  191.1300  176.2620  136.1520 S   0  0  0  0  0  0  0  0  0  0  0  0
  195.1910  175.4110  136.2230 C   0  0  0  0  0  2  0  0  0  0  0  0
  195.0710  174.0000  136.5920 N   0  0  0  0  0  0  0  0  0  0  0  0
  192.7480  174.3160  137.3010 C   0  0  0  0  0  2  0  0  0  0  0  0
  193.8550  175.9290  135.6990 C   0  0  0  0  0  2  0  0  0  0  0  0
  192.7750  175.7460  136.7650 C   0  0  0  0  0  3  0  0  0  0  0  0
  194.1530  173.9030  137.7270 C   0  0  0  0  0  2  0  0  0  0  0  0
  196.2330  172.8190  138.2290 O   0  0  0  0  0  1  0  0  0  0  0  0
  196.3780  173.5840  137.0710 C   0  0  0  0  0  2  0  0  0  0  0  0
  191.8370  177.2250  141.1890 C   0  0  0  0  0  2  0  0  0  0  0  0
  191.3400  178.0430  142.2070 O   0  0  0  0  0  0  0  0  0  0  0  0
  191.1430  177.1910  143.2990 C   0  0  2  0  0  3  0  0  0  0  0  0
  189.2230  175.7860  143.1190 O   0  0  0  0  0  1  0  0  0  0  0  0
  190.5860  175.8570  142.8300 C   0  0  0  0  0  2  0  0  0  0  0  0
  190.2080  177.8350  144.3210 C   0  0  0  0  0  2  0  0  0  0  0  0
  190.7680  177.7670  145.6710 N   0  0  0  0  0  0  0  0  0  0  0  0
  190.3020  176.7670  147.7630 N   0  0  0  0  0  2  0  0  0  0  0  0
  191.5880  176.5740  145.7620 C   0  0  0  0  0  2  0  0  0  0  0  0
  189.7310  177.5810  146.6950 C   0  0  1  0  0  0  0  0  0  0  0  0
  189.3740  178.8190  147.2020 F   0  0  0  0  0  0  0  0  0  0  0  0
  191.4090  176.0410  147.1620 C   0  0  0  0  0  2  0  0  0  0  0  0
  188.5740  176.9190  146.1630 O   0  0  0  0  0  0  0  0  0  0  0  0
  187.3340  177.5350  145.9420 C   0  0  0  0  0  0  0  0  0  0  0  0
  185.5560  178.3010  144.4740 C   0  0  0  0  0  3  0  0  0  0  0  0
  185.3840  178.6490  146.8630 C   0  0  0  0  0  3  0  0  0  0  0  0
  184.8510  178.7860  145.5780 C   0  0  0  0  0  3  0  0  0  0  0  0
  186.6230  178.0270  147.0420 C   0  0  0  0  0  3  0  0  0  0  0  0
  186.7930  177.6750  144.6540 C   0  0  0  0  0  3  0  0  0  0  0  0
  1  6  1  0  0  0  0
  1  5  1  0  0  0  0
  2 11  1  0  0  0  0
  3 10  2  0  0  0  0
  3 25  1  0  0  0  0
  4  8  1  0  0  0  0
  4  7  1  0  0  0  0
  7  9  1  0  0  0  0
  8  1  2  0  0  0  0
  9  5  2  0  0  0  0
 11  7  2  0  0  0  0
 11 10  1  0  0  0  0
 12 15  1  0  0  0  0
 12  2  2  0  0  0  0
 13  2  1  0  0  0  0
 13 14  2  0  0  0  0
 14  3  1  0  0  0  0
 15  4  2  0  0  0  0
 16 21  1  0  0  0  0
 16 13  1  0  0  0  0
 17 18  1  0  0  0  0
 18 24  1  0  0  0  0
 18 22  1  0  0  0  0
 19 22  1  0  0  0  0
 20 17  1  0  0  0  0
 20 21  1  0  0  0  0
 21 19  1  0  0  0  0
 24 23  1  0  0  0  0
 25 26  1  0  0  0  0
 26 27  1  0  0  0  0
 27 29  1  6  0  0  0
 27 30  1  0  0  0  0
 29 28  1  0  0  0  0
 30 31  1  0  0  0  0
 31 33  1  0  0  0  0
 31 34  1  0  0  0  0
 33 36  1  0  0  0  0
 34 35  1  1  0  0  0
 34 32  1  0  0  0  0
 36 32  1  0  0  0  0
 37 34  1  0  0  0  0
 38 37  1  0  0  0  0
 38 42  1  0  0  0  0
 39 43  1  0  0  0  0
 39 41  2  0  0  0  0
 40 42  2  0  0  0  0
 41 40  1  0  0  0  0
 43 38  2  0  0  0  0
M  END
>  <MODEL>
8

>  <REMARK>
 VINA RESULT:      -8.3      2.678      4.027
  Name = 
  11 active torsions:
  status: ('A' for Active; 'I' for Inactive)
    1  A    between atoms: S_1  and  C_34
    2  A    between atoms: S_1  and  C_35
    3  A    between atoms: C_2  and  O_6
    4  A    between atoms: C_2  and  C_13
    5  A    between atoms: C_3  and  N_4
    6  A    between atoms: C_3  and  C_12
    7  A    between atoms: O_6  and  C_12
    8  A    between atoms: C_11  and  O_14
    9  A    between atoms: C_12  and  C_17
   10  A    between atoms: O_14  and  C_22
   11  A    between atoms: N_19  and  C_37
                            x       y       z     vdW  Elec       q    Type
                         _______ _______ _______ _____ _____    ______ ____

>  <TORSDO>
F 11

$$$$
=
 OpenBabel10272414213D

 43 48  0  0  1  0  0  0  0  0999 V2000
  191.1060  176.6050  146.5960 C   0  0  0  0  0  0  0  0  0  0  0  0
  187.2070  178.0390  143.7520 C   0  0  0  0  0  0  0  0  0  0  0  0
  188.1550  178.2130  141.1700 C   0  0  0  0  0  0  0  0  0  0  0  0
  188.9210  177.2900  145.8090 C   0  0  0  0  0  0  0  0  0  0  0  0
  191.6070  176.6830  145.2930 C   0  0  0  0  0  3  0  0  0  0  0  0
  192.1630  176.1410  147.9110 Cl  0  0  0  0  0  0  0  0  0  0  0  0
  189.4230  177.3700  144.4890 C   0  0  0  0  0  0  0  0  0  0  0  0
  189.7680  176.9100  146.8540 C   0  0  0  0  0  3  0  0  0  0  0  0
  190.7690  177.0650  144.2430 C   0  0  0  0  0  3  0  0  0  0  0  0
  188.9930  177.8460  142.1720 N   0  0  0  0  0  0  0  0  0  0  0  0
  188.5540  177.7530  143.4560 C   0  0  0  0  0  0  0  0  0  0  0  0
  186.7630  177.9490  145.0760 C   0  0  0  0  0  3  0  0  0  0  0  0
  186.3530  178.3980  142.6970 C   0  0  0  0  0  0  0  0  0  0  0  0
  186.8500  178.4800  141.4350 N   0  0  0  0  0  0  0  0  0  0  0  0
  187.6190  177.5810  146.0640 N   0  0  0  0  0  0  0  0  0  0  0  0
  184.6080  178.7550  142.9670 S   0  0  0  0  0  0  0  0  0  0  0  0
  183.9320  178.7600  138.8710 C   0  0  0  0  0  2  0  0  0  0  0  0
  182.4720  178.7240  138.9310 N   0  0  0  0  0  0  0  0  0  0  0  0
  182.5200  178.0300  141.2800 C   0  0  0  0  0  2  0  0  0  0  0  0
  184.5000  179.1910  140.2210 C   0  0  0  0  0  2  0  0  0  0  0  0
  184.0340  178.2270  141.3110 C   0  0  0  0  0  3  0  0  0  0  0  0
  182.0800  177.6670  139.8660 C   0  0  0  0  0  2  0  0  0  0  0  0
  182.7500  177.2110  137.1820 O   0  0  0  0  0  1  0  0  0  0  0  0
  182.0120  178.3130  137.6160 C   0  0  0  0  0  2  0  0  0  0  0  0
  188.6480  178.2510  139.7690 C   0  0  0  0  0  2  0  0  0  0  0  0
  187.5640  178.4130  138.9030 O   0  0  0  0  0  0  0  0  0  0  0  0
  187.9530  177.7970  137.7090 C   0  0  2  0  0  3  0  0  0  0  0  0
  187.4800  179.8550  136.5960 O   0  0  0  0  0  1  0  0  0  0  0  0
  187.2820  178.4760  136.5250 C   0  0  0  0  0  2  0  0  0  0  0  0
  187.6140  176.3080  137.7380 C   0  0  0  0  0  2  0  0  0  0  0  0
  187.6810  175.7210  136.3990 N   0  0  0  0  0  0  0  0  0  0  0  0
  188.8540  174.0310  135.2340 N   0  0  0  0  0  2  0  0  0  0  0  0
  186.8240  174.5520  136.3740 C   0  0  0  0  0  2  0  0  0  0  0  0
  189.0200  175.2040  136.0850 C   0  0  1  0  0  0  0  0  0  0  0  0
  189.7250  176.1750  135.3950 F   0  0  0  0  0  0  0  0  0  0  0  0
  187.5090  173.5420  135.4870 C   0  0  0  0  0  2  0  0  0  0  0  0
  189.7360  174.8300  137.2720 O   0  0  0  0  0  0  0  0  0  0  0  0
  191.1020  175.0580  137.4820 C   0  0  0  0  0  0  0  0  0  0  0  0
  192.9470  176.4250  138.2790 C   0  0  0  0  0  3  0  0  0  0  0  0
  193.3890  174.2750  137.2590 C   0  0  0  0  0  3  0  0  0  0  0  0
  193.8540  175.4460  137.8640 C   0  0  0  0  0  3  0  0  0  0  0  0
  192.0180  174.0840  137.0680 C   0  0  0  0  0  3  0  0  0  0  0  0
  191.5760  176.2320  138.0910 C   0  0  0  0  0  3  0  0  0  0  0  0
  1  8  1  0  0  0  0
  1  6  1  0  0  0  0
  2 12  1  0  0  0  0
  3 14  1  0  0  0  0
  3 10  2  0  0  0  0
  4 15  1  0  0  0  0
  4  8  2  0  0  0  0
  5  1  2  0  0  0  0
  7  4  1  0  0  0  0
  9  7  2  0  0  0  0
  9  5  1  0  0  0  0
 10 11  1  0  0  0  0
 11  2  2  0  0  0  0
 11  7  1  0  0  0  0
 12 15  2  0  0  0  0
 13 16  1  0  0  0  0
 13  2  1  0  0  0  0
 14 13  2  0  0  0  0
 17 18  1  0  0  0  0
 17 20  1  0  0  0  0
 18 22  1  0  0  0  0
 19 21  1  0  0  0  0
 20 21  1  0  0  0  0
 21 16  1  0  0  0  0
 22 19  1  0  0  0  0
 23 24  1  0  0  0  0
 24 18  1  0  0  0  0
 25  3  1  0  0  0  0
 26 25  1  0  0  0  0
 27 29  1  6  0  0  0
 27 30  1  0  0  0  0
 27 26  1  0  0  0  0
 29 28  1  0  0  0  0
 31 30  1  0  0  0  0
 32 36  1  0  0  0  0
 32 34  1  0  0  0  0
 33 31  1  0  0  0  0
 34 35  1  6  0  0  0
 34 31  1  0  0  0  0
 34 37  1  0  0  0  0
 36 33  1  0  0  0  0
 37 38  1  0  0  0  0
 38 43  1  0  0  0  0
 40 41  2  0  0  0  0
 41 39  1  0  0  0  0
 42 40  1  0  0  0  0
 42 38  2  0  0  0  0
 43 39  2  0  0  0  0
M  END
>  <MODEL>
9

>  <REMARK>
 VINA RESULT:      -8.3      3.576      8.201
  Name = 
  11 active torsions:
  status: ('A' for Active; 'I' for Inactive)
    1  A    between atoms: S_1  and  C_34
    2  A    between atoms: S_1  and  C_35
    3  A    between atoms: C_2  and  O_6
    4  A    between atoms: C_2  and  C_13
    5  A    between atoms: C_3  and  N_4
    6  A    between atoms: C_3  and  C_12
    7  A    between atoms: O_6  and  C_12
    8  A    between atoms: C_11  and  O_14
    9  A    between atoms: C_12  and  C_17
   10  A    between atoms: O_14  and  C_22
   11  A    between atoms: N_19  and  C_37
                            x       y       z     vdW  Elec       q    Type
                         _______ _______ _______ _____ _____    ______ ____

>  <TORSDO>
F 11

$$$$
