=
 OpenBabel10272400583D

 27 31  0  0  1  0  0  0  0  0999 V2000
  187.3400  177.8440  142.6990 N   0  0  0  0  0  2  0  0  0  0  0  0
  188.9950  177.6470  140.9180 C   0  0  0  0  0  0  0  0  0  0  0  0
  187.0120  178.6840  139.9080 N   0  0  0  0  0  2  0  0  0  0  0  0
  189.3000  175.3940  137.8010 N   0  0  0  0  0  0  0  0  0  0  0  0
  187.4650  175.0440  136.1420 N   0  0  0  0  0  1  0  0  0  0  0  0
  190.1750  176.8150  140.7910 N   0  0  0  0  0  0  0  0  0  0  0  0
  187.7540  177.0420  137.5000 C   0  0  0  0  0  0  0  0  0  0  0  0
  183.7640  179.2330  141.2960 C   0  0  0  0  0  3  0  0  0  0  0  0
  186.6070  177.8040  136.9270 C   0  0  0  0  0  1  0  0  0  0  0  0
  183.8330  178.4970  142.4770 C   0  0  0  0  0  0  0  0  0  0  0  0
  188.7620  177.5740  138.4650 C   0  0  2  0  0  3  0  0  0  0  0  0
  188.6550  178.2570  142.2380 C   0  0  2  0  0  3  0  0  0  0  0  0
  188.1500  175.8420  137.1040 C   0  0  0  0  0  0  0  0  0  0  0  0
  189.6460  176.3780  138.5650 C   0  0  0  0  0  0  0  0  0  0  0  0
  186.2110  178.1370  142.1250 C   0  0  0  0  0  0  0  0  0  0  0  0
  188.2320  177.9230  139.8360 C   0  0  0  0  0  0  0  0  0  0  0  0
  184.8940  179.3550  140.4870 C   0  0  0  0  0  3  0  0  0  0  0  0
  190.4680  176.1990  139.7110 N   0  0  0  0  0  0  0  0  0  0  0  0
  182.6220  178.3300  143.3220 C   0  0  0  0  0  1  0  0  0  0  0  0
  185.0530  177.9680  142.8940 C   0  0  0  0  0  3  0  0  0  0  0  0
  186.1110  178.7680  140.8500 C   0  0  0  0  0  0  0  0  0  0  0  0
  191.5670  177.5580  145.3250 C   0  0  0  0  0  3  0  0  0  0  0  0
  189.6860  178.0140  143.3000 C   0  0  0  0  0  0  0  0  0  0  0  0
  190.8740  178.7610  143.3420 C   0  0  0  0  0  3  0  0  0  0  0  0
  191.8130  178.5300  144.3520 C   0  0  0  0  0  3  0  0  0  0  0  0
  190.3820  176.8160  145.2890 C   0  0  0  0  0  3  0  0  0  0  0  0
  189.4430  177.0460  144.2800 C   0  0  0  0  0  3  0  0  0  0  0  0
  2 12  1  0  0  0  0
  3 21  1  0  0  0  0
  4 14  2  0  0  0  0
  5 13  1  0  0  0  0
  6  2  1  0  0  0  0
  8 10  1  0  0  0  0
  9  7  1  0  0  0  0
 10 20  2  0  0  0  0
 10 19  1  0  0  0  0
 11  7  1  6  0  0  0
 11 14  1  0  0  0  0
 11 16  1  0  0  0  0
 12  1  1  0  0  0  0
 12 23  1  1  0  0  0
 13  7  2  0  0  0  0
 13  4  1  0  0  0  0
 14 18  1  0  0  0  0
 15  1  1  0  0  0  0
 15 20  1  0  0  0  0
 16  3  1  0  0  0  0
 16  2  2  0  0  0  0
 17 21  1  0  0  0  0
 17  8  2  0  0  0  0
 18  6  2  0  0  0  0
 21 15  2  0  0  0  0
 23 24  2  0  0  0  0
 23 27  1  0  0  0  0
 24 25  1  0  0  0  0
 25 22  2  0  0  0  0
 26 22  1  0  0  0  0
 27 26  2  0  0  0  0
M  END
>  <MODEL>
1

>  <REMARK>
 VINA RESULT:      -8.6      0.000      0.000
  Name = 
  1 active torsions:
  status: ('A' for Active; 'I' for Inactive)
    1  A    between atoms: C_9  and  C_15
                            x       y       z     vdW  Elec       q    Type
                         _______ _______ _______ _____ _____    ______ ____

>  <TORSDO>
F 1

$$$$
=
 OpenBabel10272400583D

 27 31  0  0  1  0  0  0  0  0999 V2000
  186.1900  177.7490  142.7550 N   0  0  0  0  0  2  0  0  0  0  0  0
  188.4690  177.7320  141.8830 C   0  0  0  0  0  0  0  0  0  0  0  0
  187.0850  178.8360  140.1820 N   0  0  0  0  0  2  0  0  0  0  0  0
  190.2280  175.7750  139.0620 N   0  0  0  0  0  0  0  0  0  0  0  0
  189.3320  175.5600  136.7390 N   0  0  0  0  0  1  0  0  0  0  0  0
  189.6230  176.9270  142.2280 N   0  0  0  0  0  0  0  0  0  0  0  0
  188.8930  177.4280  138.2340 C   0  0  0  0  0  0  0  0  0  0  0  0
  183.5350  179.2230  140.0230 C   0  0  0  0  0  3  0  0  0  0  0  0
  188.0800  178.2280  137.2730 C   0  0  0  0  0  1  0  0  0  0  0  0
  183.1130  178.3840  141.0510 C   0  0  0  0  0  0  0  0  0  0  0  0
  189.3450  177.8800  139.5840 C   0  0  2  0  0  3  0  0  0  0  0  0
  187.5520  178.2150  142.9580 C   0  0  2  0  0  3  0  0  0  0  0  0
  189.4820  176.2730  137.9630 C   0  0  0  0  0  0  0  0  0  0  0  0
  190.1520  176.6890  139.9730 C   0  0  0  0  0  0  0  0  0  0  0  0
  185.4180  178.0810  141.7640 C   0  0  0  0  0  0  0  0  0  0  0  0
  188.2480  178.0980  140.6000 C   0  0  0  0  0  0  0  0  0  0  0  0
  184.8980  179.4300  139.8110 C   0  0  0  0  0  3  0  0  0  0  0  0
  190.3930  176.4150  141.3470 N   0  0  0  0  0  0  0  0  0  0  0  0
  181.6630  178.1280  141.2560 C   0  0  0  0  0  1  0  0  0  0  0  0
  184.0490  177.8310  141.9240 C   0  0  0  0  0  3  0  0  0  0  0  0
  185.8590  178.8250  140.6300 C   0  0  0  0  0  0  0  0  0  0  0  0
  188.8480  177.3070  146.9580 C   0  0  0  0  0  3  0  0  0  0  0  0
  188.0200  177.8870  144.3450 C   0  0  0  0  0  0  0  0  0  0  0  0
  189.3820  177.9390  144.6820 C   0  0  0  0  0  3  0  0  0  0  0  0
  189.7930  177.6470  145.9860 C   0  0  0  0  0  3  0  0  0  0  0  0
  187.4900  177.2600  146.6260 C   0  0  0  0  0  3  0  0  0  0  0  0
  187.0780  177.5520  145.3230 C   0  0  0  0  0  3  0  0  0  0  0  0
  1 12  1  0  0  0  0
  2  6  1  0  0  0  0
  2 12  1  0  0  0  0
  3 16  1  0  0  0  0
  3 21  1  0  0  0  0
  4 14  2  0  0  0  0
  5 13  1  0  0  0  0
  8 10  1  0  0  0  0
  9  7  1  0  0  0  0
 10 19  1  0  0  0  0
 10 20  2  0  0  0  0
 11  7  1  6  0  0  0
 11 14  1  0  0  0  0
 11 16  1  0  0  0  0
 12 23  1  1  0  0  0
 13  7  2  0  0  0  0
 13  4  1  0  0  0  0
 14 18  1  0  0  0  0
 15 20  1  0  0  0  0
 15  1  1  0  0  0  0
 16  2  2  0  0  0  0
 17  8  2  0  0  0  0
 17 21  1  0  0  0  0
 18  6  2  0  0  0  0
 21 15  2  0  0  0  0
 23 24  2  0  0  0  0
 23 27  1  0  0  0  0
 24 25  1  0  0  0  0
 25 22  2  0  0  0  0
 26 22  1  0  0  0  0
 27 26  2  0  0  0  0
M  END
>  <MODEL>
2

>  <REMARK>
 VINA RESULT:      -8.3      1.385      1.767
  Name = 
  1 active torsions:
  status: ('A' for Active; 'I' for Inactive)
    1  A    between atoms: C_9  and  C_15
                            x       y       z     vdW  Elec       q    Type
                         _______ _______ _______ _____ _____    ______ ____

>  <TORSDO>
F 1

$$$$
=
 OpenBabel10272400583D

 27 31  0  0  1  0  0  0  0  0999 V2000
  184.6650  178.0390  142.4060 N   0  0  0  0  0  2  0  0  0  0  0  0
  187.0680  178.2390  142.0370 C   0  0  0  0  0  0  0  0  0  0  0  0
  185.9820  179.1410  140.0290 N   0  0  0  0  0  2  0  0  0  0  0  0
  189.5740  176.3990  139.7530 N   0  0  0  0  0  0  0  0  0  0  0  0
  189.2250  176.0240  137.3070 N   0  0  0  0  0  1  0  0  0  0  0  0
  188.1940  177.5710  142.6580 N   0  0  0  0  0  0  0  0  0  0  0  0
  188.2950  177.8770  138.5800 C   0  0  0  0  0  0  0  0  0  0  0  0
  182.5290  179.1460  139.1050 C   0  0  0  0  0  3  0  0  0  0  0  0
  187.6340  178.5590  137.4290 C   0  0  0  0  0  1  0  0  0  0  0  0
  181.9790  178.2960  140.0620 C   0  0  0  0  0  0  0  0  0  0  0  0
  188.4000  178.4130  139.9700 C   0  0  2  0  0  3  0  0  0  0  0  0
  185.8990  178.6530  142.8690 C   0  0  2  0  0  3  0  0  0  0  0  0
  189.0380  176.7840  138.4980 C   0  0  0  0  0  0  0  0  0  0  0  0
  189.2160  177.3260  140.5800 C   0  0  0  0  0  0  0  0  0  0  0  0
  184.0950  178.2600  141.2590 C   0  0  0  0  0  0  0  0  0  0  0  0
  187.0940  178.5420  140.7200 C   0  0  0  0  0  0  0  0  0  0  0  0
  183.8790  179.4900  139.1750 C   0  0  0  0  0  3  0  0  0  0  0  0
  189.1810  177.1180  141.9860 N   0  0  0  0  0  0  0  0  0  0  0  0
  180.5510  177.8940  139.9680 C   0  0  0  0  0  1  0  0  0  0  0  0
  182.7550  177.8700  141.1390 C   0  0  0  0  0  3  0  0  0  0  0  0
  184.6950  179.0130  140.2080 C   0  0  0  0  0  0  0  0  0  0  0  0
  186.4140  178.0280  147.0930 C   0  0  0  0  0  3  0  0  0  0  0  0
  186.0870  178.4160  144.3370 C   0  0  0  0  0  0  0  0  0  0  0  0
  187.2740  177.8580  144.8360 C   0  0  0  0  0  3  0  0  0  0  0  0
  187.4360  177.6630  146.2110 C   0  0  0  0  0  3  0  0  0  0  0  0
  185.2320  178.5900  146.6000 C   0  0  0  0  0  3  0  0  0  0  0  0
  185.0710  178.7850  145.2250 C   0  0  0  0  0  3  0  0  0  0  0  0
  1 12  1  0  0  0  0
  2  6  1  0  0  0  0
  2 12  1  0  0  0  0
  3 21  1  0  0  0  0
  3 16  1  0  0  0  0
  4 14  2  0  0  0  0
  5 13  1  0  0  0  0
  8 17  2  0  0  0  0
  8 10  1  0  0  0  0
  9  7  1  0  0  0  0
 10 20  2  0  0  0  0
 11  7  1  6  0  0  0
 11 14  1  0  0  0  0
 11 16  1  0  0  0  0
 12 23  1  1  0  0  0
 13  7  2  0  0  0  0
 13  4  1  0  0  0  0
 14 18  1  0  0  0  0
 15  1  1  0  0  0  0
 16  2  2  0  0  0  0
 17 21  1  0  0  0  0
 18  6  2  0  0  0  0
 19 10  1  0  0  0  0
 20 15  1  0  0  0  0
 21 15  2  0  0  0  0
 23 24  2  0  0  0  0
 23 27  1  0  0  0  0
 24 25  1  0  0  0  0
 25 22  2  0  0  0  0
 26 22  1  0  0  0  0
 27 26  2  0  0  0  0
M  END
>  <MODEL>
3

>  <REMARK>
 VINA RESULT:      -8.2      2.006      3.070
  Name = 
  1 active torsions:
  status: ('A' for Active; 'I' for Inactive)
    1  A    between atoms: C_9  and  C_15
                            x       y       z     vdW  Elec       q    Type
                         _______ _______ _______ _____ _____    ______ ____

>  <TORSDO>
F 1

$$$$
=
 OpenBabel10272400583D

 27 31  0  0  1  0  0  0  0  0999 V2000
  187.0540  177.8320  141.8910 N   0  0  0  0  0  2  0  0  0  0  0  0
  185.6320  178.3040  139.9660 C   0  0  0  0  0  0  0  0  0  0  0  0
  184.5050  179.2830  141.9150 N   0  0  0  0  0  2  0  0  0  0  0  0
  182.2210  176.9500  138.7780 N   0  0  0  0  0  0  0  0  0  0  0  0
  180.1990  176.7780  140.2370 N   0  0  0  0  0  1  0  0  0  0  0  0
  185.5600  177.6940  138.6530 N   0  0  0  0  0  0  0  0  0  0  0  0
  181.9900  178.3990  140.5230 C   0  0  0  0  0  0  0  0  0  0  0  0
  185.3160  179.0330  145.3870 C   0  0  0  0  0  3  0  0  0  0  0  0
  181.3840  179.1190  141.6800 C   0  0  0  0  0  1  0  0  0  0  0  0
  186.2980  178.0450  145.3780 C   0  0  0  0  0  0  0  0  0  0  0  0
  183.2250  178.8070  139.7900 C   0  0  2  0  0  3  0  0  0  0  0  0
  186.9610  178.5180  140.6120 C   0  0  2  0  0  3  0  0  0  0  0  0
  181.4260  177.3980  139.8640 C   0  0  0  0  0  0  0  0  0  0  0  0
  183.2330  177.7520  138.7370 C   0  0  0  0  0  0  0  0  0  0  0  0
  186.3490  178.1040  142.9480 C   0  0  0  0  0  0  0  0  0  0  0  0
  184.5090  178.7330  140.5840 C   0  0  1  0  0  3  0  0  0  0  0  0
  184.7900  179.5010  144.1830 C   0  0  0  0  0  3  0  0  0  0  0  0
  184.4500  177.4080  138.0880 N   0  0  0  0  0  2  0  0  0  0  0  0
  186.8330  177.5150  146.6590 C   0  0  0  0  0  1  0  0  0  0  0  0
  186.8200  177.5970  144.1650 C   0  0  0  0  0  3  0  0  0  0  0  0
  185.2470  179.0110  142.9540 C   0  0  0  0  0  0  0  0  0  0  0  0
  190.3360  177.5010  138.1480 C   0  0  0  0  0  3  0  0  0  0  0  0
  188.1250  178.1620  139.7370 C   0  0  0  0  0  0  0  0  0  0  0  0
  188.2550  178.7020  138.4480 C   0  0  0  0  0  3  0  0  0  0  0  0
  189.3580  178.3690  137.6550 C   0  0  0  0  0  3  0  0  0  0  0  0
  190.2120  176.9660  139.4350 C   0  0  0  0  0  3  0  0  0  0  0  0
  189.1100  177.2980  140.2270 C   0  0  0  0  0  3  0  0  0  0  0  0
  1 15  1  0  0  0  0
  2 12  1  0  0  0  0
  3 21  1  0  0  0  0
  4 13  1  0  0  0  0
  6  2  2  0  0  0  0
  7  9  1  0  0  0  0
 10  8  1  0  0  0  0
 10 19  1  0  0  0  0
 11 14  1  6  0  0  0
 11  7  1  0  0  0  0
 11 16  1  0  0  0  0
 12 23  1  6  0  0  0
 12  1  1  0  0  0  0
 13  5  1  0  0  0  0
 13  7  2  0  0  0  0
 14  4  2  0  0  0  0
 15 21  2  0  0  0  0
 15 20  1  0  0  0  0
 16  2  1  6  0  0  0
 16  3  1  0  0  0  0
 17  8  2  0  0  0  0
 18  6  1  0  0  0  0
 18 14  1  0  0  0  0
 20 10  2  0  0  0  0
 21 17  1  0  0  0  0
 22 26  1  0  0  0  0
 23 27  1  0  0  0  0
 24 23  2  0  0  0  0
 25 22  2  0  0  0  0
 25 24  1  0  0  0  0
 26 27  2  0  0  0  0
M  END
>  <MODEL>
4

>  <REMARK>
 VINA RESULT:      -7.4      2.773      5.286
  Name = 
  1 active torsions:
  status: ('A' for Active; 'I' for Inactive)
    1  A    between atoms: C_9  and  C_15
                            x       y       z     vdW  Elec       q    Type
                         _______ _______ _______ _____ _____    ______ ____

>  <TORSDO>
F 1

$$$$
=
 OpenBabel10272400583D

 27 31  0  0  1  0  0  0  0  0999 V2000
  189.2560  176.9590  140.6840 N   0  0  0  0  0  2  0  0  0  0  0  0
  187.3200  178.3960  140.3110 C   0  0  0  0  0  0  0  0  0  0  0  0
  188.1010  178.8660  142.5890 N   0  0  0  0  0  2  0  0  0  0  0  0
  183.7000  178.3880  141.6420 N   0  0  0  0  0  0  0  0  0  0  0  0
  183.0980  178.1980  144.0600 N   0  0  0  0  0  1  0  0  0  0  0  0
  186.2400  178.3200  139.3480 N   0  0  0  0  0  0  0  0  0  0  0  0
  185.1710  179.1460  143.2100 C   0  0  0  0  0  0  0  0  0  0  0  0
  190.6260  177.2330  144.5230 C   0  0  0  0  0  3  0  0  0  0  0  0
  185.7360  179.5360  144.5340 C   0  0  0  0  0  1  0  0  0  0  0  0
  190.8950  176.1090  143.7450 C   0  0  0  0  0  0  0  0  0  0  0  0
  185.7570  179.4810  141.8770 C   0  0  2  0  0  3  0  0  0  0  0  0
  188.7120  178.0510  139.8930 C   0  0  2  0  0  3  0  0  0  0  0  0
  183.9800  178.6010  143.0160 C   0  0  0  0  0  0  0  0  0  0  0  0
  184.7040  178.8920  141.0030 C   0  0  0  0  0  0  0  0  0  0  0  0
  189.5080  177.0020  141.9580 C   0  0  0  0  0  0  0  0  0  0  0  0
  187.0870  178.8330  141.5680 C   0  0  1  0  0  3  0  0  0  0  0  0
  189.7370  178.2030  144.0580 C   0  0  0  0  0  3  0  0  0  0  0  0
  185.0190  178.5200  139.6670 N   0  0  0  0  0  2  0  0  0  0  0  0
  191.8090  175.0540  144.2530 C   0  0  0  0  0  1  0  0  0  0  0  0
  190.3510  176.0050  142.4650 C   0  0  0  0  0  3  0  0  0  0  0  0
  189.1210  178.0810  142.8070 C   0  0  0  0  0  0  0  0  0  0  0  0
  189.1490  177.1730  135.7050 C   0  0  0  0  0  3  0  0  0  0  0  0
  188.8500  177.7600  138.4280 C   0  0  0  0  0  0  0  0  0  0  0  0
  188.9150  178.7970  137.4850 C   0  0  0  0  0  3  0  0  0  0  0  0
  189.0620  178.5030  136.1260 C   0  0  0  0  0  3  0  0  0  0  0  0
  189.0900  176.1370  136.6420 C   0  0  0  0  0  3  0  0  0  0  0  0
  188.9430  176.4310  138.0010 C   0  0  0  0  0  3  0  0  0  0  0  0
  1 15  1  0  0  0  0
  3 21  1  0  0  0  0
  4 13  1  0  0  0  0
  6 18  1  0  0  0  0
  6  2  2  0  0  0  0
  7  9  1  0  0  0  0
 10 19  1  0  0  0  0
 10  8  2  0  0  0  0
 11 14  1  6  0  0  0
 11  7  1  0  0  0  0
 12 23  1  6  0  0  0
 12  2  1  0  0  0  0
 12  1  1  0  0  0  0
 13  7  2  0  0  0  0
 13  5  1  0  0  0  0
 14  4  2  0  0  0  0
 15 20  2  0  0  0  0
 15 21  1  0  0  0  0
 16  2  1  6  0  0  0
 16 11  1  0  0  0  0
 16  3  1  0  0  0  0
 17  8  1  0  0  0  0
 18 14  1  0  0  0  0
 20 10  1  0  0  0  0
 21 17  2  0  0  0  0
 22 25  2  0  0  0  0
 22 26  1  0  0  0  0
 24 23  2  0  0  0  0
 25 24  1  0  0  0  0
 26 27  2  0  0  0  0
 27 23  1  0  0  0  0
M  END
>  <MODEL>
5

>  <REMARK>
 VINA RESULT:      -7.4      1.801      6.448
  Name = 
  1 active torsions:
  status: ('A' for Active; 'I' for Inactive)
    1  A    between atoms: C_9  and  C_15
                            x       y       z     vdW  Elec       q    Type
                         _______ _______ _______ _____ _____    ______ ____

>  <TORSDO>
F 1

$$$$
=
 OpenBabel10272400583D

 27 31  0  0  1  0  0  0  0  0999 V2000
  187.1490  177.8360  141.6810 N   0  0  0  0  0  2  0  0  0  0  0  0
  185.9840  178.2980  139.5880 C   0  0  0  0  0  0  0  0  0  0  0  0
  184.6820  179.3890  141.3590 N   0  0  0  0  0  2  0  0  0  0  0  0
  182.6790  177.0440  138.0450 N   0  0  0  0  0  0  0  0  0  0  0  0
  180.4940  177.0050  139.2570 N   0  0  0  0  0  1  0  0  0  0  0  0
  186.0390  177.6470  138.2940 N   0  0  0  0  0  0  0  0  0  0  0  0
  182.3100  178.5610  139.7060 C   0  0  0  0  0  0  0  0  0  0  0  0
  185.0680  179.2280  144.9090 C   0  0  0  0  0  3  0  0  0  0  0  0
  181.6050  179.3450  140.7610 C   0  0  0  0  0  1  0  0  0  0  0  0
  185.9990  178.2010  145.0460 C   0  0  0  0  0  0  0  0  0  0  0  0
  183.6400  178.8920  139.1130 C   0  0  2  0  0  3  0  0  0  0  0  0
  187.2360  178.4810  140.3810 C   0  0  2  0  0  3  0  0  0  0  0  0
  181.7830  177.5610  139.0150 C   0  0  0  0  0  0  0  0  0  0  0  0
  183.7240  177.8020  138.1000 C   0  0  0  0  0  0  0  0  0  0  0  0
  186.3370  178.1730  142.6380 C   0  0  0  0  0  0  0  0  0  0  0  0
  184.8170  178.7940  140.0550 C   0  0  1  0  0  3  0  0  0  0  0  0
  184.7080  179.6740  143.6370 C   0  0  0  0  0  3  0  0  0  0  0  0
  184.9920  177.3870  137.6100 N   0  0  0  0  0  2  0  0  0  0  0  0
  186.3560  177.6940  146.3960 C   0  0  0  0  0  1  0  0  0  0  0  0
  186.6390  177.6900  143.9170 C   0  0  0  0  0  3  0  0  0  0  0  0
  185.2840  179.1240  142.4870 C   0  0  0  0  0  0  0  0  0  0  0  0
  190.7640  177.2250  138.2630 C   0  0  0  0  0  3  0  0  0  0  0  0
  188.4780  178.0460  139.6600 C   0  0  0  0  0  0  0  0  0  0  0  0
  189.4190  177.2080  140.2770 C   0  0  0  0  0  3  0  0  0  0  0  0
  190.5600  176.8000  139.5790 C   0  0  0  0  0  3  0  0  0  0  0  0
  189.8250  178.0560  137.6440 C   0  0  0  0  0  3  0  0  0  0  0  0
  188.6840  178.4630  138.3400 C   0  0  0  0  0  3  0  0  0  0  0  0
  1 15  1  0  0  0  0
  2 12  1  0  0  0  0
  3 21  1  0  0  0  0
  4 14  2  0  0  0  0
  4 13  1  0  0  0  0
  6  2  2  0  0  0  0
  7  9  1  0  0  0  0
  8 10  1  0  0  0  0
 10 19  1  0  0  0  0
 11 14  1  6  0  0  0
 11  7  1  0  0  0  0
 11 16  1  0  0  0  0
 12 23  1  6  0  0  0
 12  1  1  0  0  0  0
 13  5  1  0  0  0  0
 13  7  2  0  0  0  0
 15 20  1  0  0  0  0
 16  2  1  6  0  0  0
 16  3  1  0  0  0  0
 17  8  2  0  0  0  0
 18 14  1  0  0  0  0
 18  6  1  0  0  0  0
 20 10  2  0  0  0  0
 21 15  2  0  0  0  0
 21 17  1  0  0  0  0
 22 25  1  0  0  0  0
 23 24  1  0  0  0  0
 25 24  2  0  0  0  0
 26 22  2  0  0  0  0
 26 27  1  0  0  0  0
 27 23  2  0  0  0  0
M  END
>  <MODEL>
6

>  <REMARK>
 VINA RESULT:      -7.3      2.756      4.985
  Name = 
  1 active torsions:
  status: ('A' for Active; 'I' for Inactive)
    1  A    between atoms: C_9  and  C_15
                            x       y       z     vdW  Elec       q    Type
                         _______ _______ _______ _____ _____    ______ ____

>  <TORSDO>
F 1

$$$$
=
 OpenBabel10272400583D

 27 31  0  0  1  0  0  0  0  0999 V2000
  191.5140  176.7140  139.5520 N   0  0  0  0  0  2  0  0  0  0  0  0
  189.0940  177.0070  139.4460 C   0  0  0  0  0  0  0  0  0  0  0  0
  189.6770  175.4210  137.6660 N   0  0  0  0  0  2  0  0  0  0  0  0
  186.7320  178.7880  136.9710 N   0  0  0  0  0  0  0  0  0  0  0  0
  186.8070  178.4760  134.4930 N   0  0  0  0  0  1  0  0  0  0  0  0
  188.2300  178.0510  139.9600 N   0  0  0  0  0  0  0  0  0  0  0  0
  187.4990  176.8140  136.1290 C   0  0  0  0  0  0  0  0  0  0  0  0
  192.8900  174.3780  136.4970 C   0  0  0  0  0  3  0  0  0  0  0  0
  187.8360  175.7410  135.1490 C   0  0  0  0  0  1  0  0  0  0  0  0
  193.7330  175.2760  137.1470 C   0  0  0  0  0  0  0  0  0  0  0  0
  187.4800  176.6650  137.6150 C   0  0  2  0  0  3  0  0  0  0  0  0
  190.2550  176.5380  140.2600 C   0  0  2  0  0  3  0  0  0  0  0  0
  186.9960  178.0000  135.8220 C   0  0  0  0  0  0  0  0  0  0  0  0
  187.0020  178.0280  137.9810 C   0  0  0  0  0  0  0  0  0  0  0  0
  191.8590  176.0970  138.4620 C   0  0  0  0  0  0  0  0  0  0  0  0
  188.8220  176.4130  138.2630 C   0  0  0  0  0  0  0  0  0  0  0  0
  191.5210  174.3910  136.7660 C   0  0  0  0  0  3  0  0  0  0  0  0
  187.2740  178.5510  139.2750 N   0  0  0  0  0  0  0  0  0  0  0  0
  195.1860  175.2940  136.8350 C   0  0  0  0  0  1  0  0  0  0  0  0
  193.2210  176.1180  138.1340 C   0  0  0  0  0  3  0  0  0  0  0  0
  190.9750  175.2790  137.6990 C   0  0  0  0  0  0  0  0  0  0  0  0
  190.5180  178.2880  144.1800 C   0  0  0  0  0  3  0  0  0  0  0  0
  190.3280  177.1560  141.6240 C   0  0  0  0  0  0  0  0  0  0  0  0
  189.2390  177.0920  142.5080 C   0  0  0  0  0  3  0  0  0  0  0  0
  189.3350  177.6590  143.7830 C   0  0  0  0  0  3  0  0  0  0  0  0
  191.6070  178.3490  143.3040 C   0  0  0  0  0  3  0  0  0  0  0  0
  191.5120  177.7820  142.0300 C   0  0  0  0  0  3  0  0  0  0  0  0
  1 12  1  0  0  0  0
  2  6  1  0  0  0  0
  2 12  1  0  0  0  0
  3 21  1  0  0  0  0
  3 16  1  0  0  0  0
  4 14  2  0  0  0  0
  5 13  1  0  0  0  0
  8 17  2  0  0  0  0
  8 10  1  0  0  0  0
  9  7  1  0  0  0  0
 10 20  2  0  0  0  0
 11  7  1  6  0  0  0
 11 14  1  0  0  0  0
 11 16  1  0  0  0  0
 12 23  1  1  0  0  0
 13  7  2  0  0  0  0
 13  4  1  0  0  0  0
 14 18  1  0  0  0  0
 15  1  1  0  0  0  0
 16  2  2  0  0  0  0
 17 21  1  0  0  0  0
 18  6  2  0  0  0  0
 19 10  1  0  0  0  0
 20 15  1  0  0  0  0
 21 15  2  0  0  0  0
 23 27  2  0  0  0  0
 23 24  1  0  0  0  0
 24 25  2  0  0  0  0
 25 22  1  0  0  0  0
 26 22  2  0  0  0  0
 27 26  1  0  0  0  0
M  END
>  <MODEL>
7

>  <REMARK>
 VINA RESULT:      -7.2      2.664      5.901
  Name = 
  1 active torsions:
  status: ('A' for Active; 'I' for Inactive)
    1  A    between atoms: C_9  and  C_15
                            x       y       z     vdW  Elec       q    Type
                         _______ _______ _______ _____ _____    ______ ____

>  <TORSDO>
F 1

$$$$
=
 OpenBabel10272400583D

 27 31  0  0  1  0  0  0  0  0999 V2000
  186.1390  178.0840  140.3500 N   0  0  0  0  0  2  0  0  0  0  0  0
  187.2050  178.3370  142.5290 C   0  0  0  0  0  0  0  0  0  0  0  0
  188.9520  178.7410  140.8530 N   0  0  0  0  0  2  0  0  0  0  0  0
  189.7280  176.2080  144.5240 N   0  0  0  0  0  0  0  0  0  0  0  0
  191.8620  175.3140  143.5780 N   0  0  0  0  0  1  0  0  0  0  0  0
  186.8170  177.8770  143.8480 N   0  0  0  0  0  0  0  0  0  0  0  0
  190.7400  177.3350  142.8210 C   0  0  0  0  0  0  0  0  0  0  0  0
  188.8420  178.3590  137.3000 C   0  0  0  0  0  3  0  0  0  0  0  0
  191.7610  177.7250  141.8050 C   0  0  0  0  0  1  0  0  0  0  0  0
  187.6290  177.6970  137.1240 C   0  0  0  0  0  0  0  0  0  0  0  0
  189.5610  178.1530  143.2330 C   0  0  2  0  0  3  0  0  0  0  0  0
  186.1670  178.8490  141.5860 C   0  0  2  0  0  3  0  0  0  0  0  0
  190.8280  176.2930  143.6320 C   0  0  0  0  0  0  0  0  0  0  0  0
  189.0180  177.2640  144.2980 C   0  0  0  0  0  0  0  0  0  0  0  0
  187.0960  178.0290  139.4730 C   0  0  0  0  0  0  0  0  0  0  0  0
  188.5080  178.3620  142.1680 C   0  0  0  0  0  0  0  0  0  0  0  0
  189.2230  178.7860  138.5730 C   0  0  0  0  0  3  0  0  0  0  0  0
  187.6470  177.3510  144.6640 N   0  0  0  0  0  0  0  0  0  0  0  0
  187.2380  177.2050  135.7780 C   0  0  0  0  0  1  0  0  0  0  0  0
  186.7570  177.5490  138.2020 C   0  0  0  0  0  3  0  0  0  0  0  0
  188.3950  178.5800  139.6830 C   0  0  0  0  0  0  0  0  0  0  0  0
  182.2090  179.1110  143.2500 C   0  0  0  0  0  3  0  0  0  0  0  0
  184.7940  178.9330  142.1850 C   0  0  0  0  0  0  0  0  0  0  0  0
  184.5950  179.4590  143.4710 C   0  0  0  0  0  3  0  0  0  0  0  0
  183.3040  179.5450  144.0020 C   0  0  0  0  0  3  0  0  0  0  0  0
  182.4040  178.5910  141.9660 C   0  0  0  0  0  3  0  0  0  0  0  0
  183.6930  178.5050  141.4350 C   0  0  0  0  0  3  0  0  0  0  0  0
  1 12  1  0  0  0  0
  2  6  1  0  0  0  0
  3 16  1  0  0  0  0
  5 13  1  0  0  0  0
  6 18  2  0  0  0  0
  7 11  1  0  0  0  0
  7 13  2  0  0  0  0
  8 17  1  0  0  0  0
  9  7  1  0  0  0  0
 10  8  2  0  0  0  0
 10 20  1  0  0  0  0
 11 16  1  6  0  0  0
 11 14  1  0  0  0  0
 12 23  1  1  0  0  0
 12  2  1  0  0  0  0
 13  4  1  0  0  0  0
 14  4  2  0  0  0  0
 14 18  1  0  0  0  0
 15 21  1  0  0  0  0
 15  1  1  0  0  0  0
 16  2  2  0  0  0  0
 17 21  2  0  0  0  0
 19 10  1  0  0  0  0
 20 15  2  0  0  0  0
 21  3  1  0  0  0  0
 22 25  1  0  0  0  0
 23 24  1  0  0  0  0
 24 25  2  0  0  0  0
 26 22  2  0  0  0  0
 27 26  1  0  0  0  0
 27 23  2  0  0  0  0
M  END
>  <MODEL>
8

>  <REMARK>
 VINA RESULT:      -7.1      1.992      6.041
  Name = 
  1 active torsions:
  status: ('A' for Active; 'I' for Inactive)
    1  A    between atoms: C_9  and  C_15
                            x       y       z     vdW  Elec       q    Type
                         _______ _______ _______ _____ _____    ______ ____

>  <TORSDO>
F 1

$$$$
=
 OpenBabel10272400583D

 27 31  0  0  1  0  0  0  0  0999 V2000
  191.0830  177.3170  144.8250 N   0  0  0  0  0  2  0  0  0  0  0  0
  189.0680  177.1880  146.1940 C   0  0  0  0  0  0  0  0  0  0  0  0
  188.3920  176.5940  143.9110 N   0  0  0  0  0  2  0  0  0  0  0  0
  185.8970  179.3650  146.4800 N   0  0  0  0  0  0  0  0  0  0  0  0
  184.5270  180.1050  144.5250 N   0  0  0  0  0  1  0  0  0  0  0  0
  188.7480  177.7600  147.4870 N   0  0  0  0  0  0  0  0  0  0  0  0
  185.8660  178.0760  144.6000 C   0  0  0  0  0  0  0  0  0  0  0  0
  190.2650  176.7120  140.8690 C   0  0  0  0  0  3  0  0  0  0  0  0
  185.4880  177.5720  143.2470 C   0  0  0  0  0  1  0  0  0  0  0  0
  191.4060  177.4040  141.2660 C   0  0  0  0  0  0  0  0  0  0  0  0
  186.6780  177.3360  145.6120 C   0  0  2  0  0  3  0  0  0  0  0  0
  190.4370  176.6460  145.9420 C   0  0  2  0  0  3  0  0  0  0  0  0
  185.3900  179.1720  145.1690 C   0  0  0  0  0  0  0  0  0  0  0  0
  186.6190  178.3220  146.7270 C   0  0  0  0  0  0  0  0  0  0  0  0
  190.6920  177.2690  143.5860 C   0  0  0  0  0  0  0  0  0  0  0  0
  188.1210  177.0880  145.2360 C   0  0  0  0  0  0  0  0  0  0  0  0
  189.2970  176.3680  141.8130 C   0  0  0  0  0  3  0  0  0  0  0  0
  187.6240  178.3140  147.7330 N   0  0  0  0  0  0  0  0  0  0  0  0
  192.4210  177.8080  140.2580 C   0  0  0  0  0  1  0  0  0  0  0  0
  191.6230  177.6650  142.6180 C   0  0  0  0  0  3  0  0  0  0  0  0
  189.4600  176.6870  143.1660 C   0  0  0  0  0  0  0  0  0  0  0  0
  192.9760  176.6230  149.4130 C   0  0  0  0  0  3  0  0  0  0  0  0
  191.3260  176.6590  147.1490 C   0  0  0  0  0  0  0  0  0  0  0  0
  191.2340  177.6820  148.1060 C   0  0  0  0  0  3  0  0  0  0  0  0
  192.0600  177.6630  149.2350 C   0  0  0  0  0  3  0  0  0  0  0  0
  193.0660  175.5990  148.4640 C   0  0  0  0  0  3  0  0  0  0  0  0
  192.2400  175.6170  147.3360 C   0  0  0  0  0  3  0  0  0  0  0  0
  1 12  1  0  0  0  0
  2  6  1  0  0  0  0
  3 16  1  0  0  0  0
  4 14  2  0  0  0  0
  5 13  1  0  0  0  0
  6 18  2  0  0  0  0
  7 13  2  0  0  0  0
  8 10  2  0  0  0  0
  8 17  1  0  0  0  0
  9  7  1  0  0  0  0
 10 20  1  0  0  0  0
 11  7  1  6  0  0  0
 11 14  1  0  0  0  0
 12  2  1  0  0  0  0
 12 23  1  1  0  0  0
 13  4  1  0  0  0  0
 14 18  1  0  0  0  0
 15  1  1  0  0  0  0
 16 11  1  0  0  0  0
 16  2  2  0  0  0  0
 17 21  2  0  0  0  0
 19 10  1  0  0  0  0
 20 15  2  0  0  0  0
 21 15  1  0  0  0  0
 21  3  1  0  0  0  0
 23 27  2  0  0  0  0
 23 24  1  0  0  0  0
 24 25  2  0  0  0  0
 25 22  1  0  0  0  0
 26 22  2  0  0  0  0
 27 26  1  0  0  0  0
M  END
>  <MODEL>
9

>  <REMARK>
 VINA RESULT:      -7.1      3.417      6.730
  Name = 
  1 active torsions:
  status: ('A' for Active; 'I' for Inactive)
    1  A    between atoms: C_9  and  C_15
                            x       y       z     vdW  Elec       q    Type
                         _______ _______ _______ _____ _____    ______ ____

>  <TORSDO>
F 1

$$$$
