=
 OpenBabel10272414543D

 37 42  0  0  1  0  0  0  0  0999 V2000
  184.3000  175.4120  136.3990 C   0  0  2  0  0  3  0  0  0  0  0  0
  182.8380  177.5430  137.4590 C   0  0  0  0  0  2  0  0  0  0  0  0
  186.4760  176.5420  137.3300 C   0  0  1  0  0  3  0  0  0  0  0  0
  185.5620  177.7730  137.6410 C   0  0  1  0  0  3  0  0  0  0  0  0
  184.2110  177.1790  137.9580 C   0  0  2  0  0  3  0  0  0  0  0  0
  185.8490  175.5000  136.3510 C   0  0  0  0  0  2  0  0  0  0  0  0
  183.7900  176.8540  136.5150 C   0  0  1  0  0  3  0  0  0  0  0  0
  191.7500  176.1990  138.3780 O   0  0  0  0  0  0  0  0  0  0  0  0
  187.8690  176.8580  136.9380 N   0  0  1  0  0  0  0  0  0  0  0  0
  190.1650  175.7340  136.6510 C   0  0  1  0  0  3  0  0  0  0  0  0
  188.7990  175.7770  137.3710 C   0  0  1  0  0  3  0  0  0  0  0  0
  189.9640  175.9820  135.1680 C   0  0  0  0  0  2  0  0  0  0  0  0
  188.8880  175.6140  138.7770 O   0  0  0  0  0  0  0  0  0  0  0  0
  190.3580  176.8560  140.2140 C   0  0  0  0  0  2  0  0  0  0  0  0
  187.0710  178.2630  135.0750 C   0  0  0  0  0  1  0  0  0  0  0  0
  189.2480  177.2330  134.9820 N   0  0  0  0  0  2  0  0  0  0  0  0
  189.0820  176.8650  139.3900 C   0  0  0  0  0  2  0  0  0  0  0  0
  187.8880  177.0430  135.4720 C   0  0  1  0  0  3  0  0  0  0  0  0
  191.1930  176.7120  137.2040 C   0  0  0  0  0  2  0  0  0  0  0  0
  191.5520  177.1970  139.3350 C   0  0  0  0  0  2  0  0  0  0  0  0
  183.7520  174.4100  137.4370 C   0  0  2  0  0  3  0  0  0  0  0  0
  184.7100  173.2430  137.6400 C   0  0  0  0  0  2  0  0  0  0  0  0
  185.1120  171.6070  135.8300 C   0  0  0  0  0  1  0  0  0  0  0  0
  184.1760  172.0030  136.9510 C   0  0  0  0  0  2  0  0  0  0  0  0
  182.4110  173.8660  136.9670 C   0  0  0  0  0  2  0  0  0  0  0  0
  180.1520  174.4820  137.0260 C   0  0  0  0  0  2  0  0  0  0  0  0
  181.3540  174.3120  137.8570 N   0  0  0  0  0  0  0  0  0  0  0  0
  180.3150  173.2730  137.8210 C   0  0  0  0  0  2  0  0  0  0  0  0
  186.0740  178.5330  138.8530 C   0  0  0  0  0  2  0  0  0  0  0  0
  184.9110  179.0480  139.6810 C   0  0  0  0  0  2  0  0  0  0  0  0
  186.4400  178.3960  141.5510 C   0  0  0  0  0  3  0  0  0  0  0  0
  185.1660  178.7900  141.1250 C   0  0  0  0  0  0  0  0  0  0  0  0
  184.1250  178.9060  142.0520 C   0  0  0  0  0  3  0  0  0  0  0  0
  183.2530  178.7630  144.3890 C   0  0  0  0  0  1  0  0  0  0  0  0
  185.6330  178.2460  143.8300 C   0  0  0  0  0  3  0  0  0  0  0  0
  184.3590  178.6380  143.4050 C   0  0  0  0  0  0  0  0  0  0  0  0
  186.6730  178.1260  142.9030 C   0  0  0  0  0  3  0  0  0  0  0  0
  1  7  1  0  0  0  0
  1 21  1  1  0  0  0
  3  6  1  6  0  0  0
  3  4  1  0  0  0  0
  4  5  1  0  0  0  0
  4 29  1  1  0  0  0
  5  2  1  6  0  0  0
  6  1  1  0  0  0  0
  7  2  1  1  0  0  0
  7  5  1  0  0  0  0
  8 20  1  0  0  0  0
  9  3  1  6  0  0  0
  9 11  1  0  0  0  0
 10 12  1  6  0  0  0
 10 19  1  0  0  0  0
 10 11  1  0  0  0  0
 11 13  1  1  0  0  0
 13 17  1  0  0  0  0
 16 12  1  0  0  0  0
 16 18  1  0  0  0  0
 17 14  1  0  0  0  0
 18 15  1  1  0  0  0
 18  9  1  0  0  0  0
 19  8  1  0  0  0  0
 20 14  1  0  0  0  0
 21 25  1  6  0  0  0
 21 22  1  0  0  0  0
 23 24  1  0  0  0  0
 24 22  1  0  0  0  0
 25 27  1  0  0  0  0
 26 28  1  0  0  0  0
 26 27  1  0  0  0  0
 28 27  1  0  0  0  0
 29 30  1  0  0  0  0
 30 32  1  0  0  0  0
 31 37  1  0  0  0  0
 32 31  2  0  0  0  0
 32 33  1  0  0  0  0
 33 36  2  0  0  0  0
 36 35  1  0  0  0  0
 36 34  1  0  0  0  0
 37 35  2  0  0  0  0
M  END
>  <MODEL>
1

>  <REMARK>
 VINA RESULT:      -6.1      0.000      0.000
  Name = 
  9 active torsions:
  status: ('A' for Active; 'I' for Inactive)
    1  A    between atoms: C_1  and  C_33
    2  A    between atoms: N_4  and  C_10
    3  A    between atoms: C_5  and  C_23
    4  A    between atoms: C_5  and  C_33
    5  A    between atoms: C_6  and  C_31
    6  A    between atoms: C_14  and  C_37
    7  A    between atoms: C_17  and  N_26
    8  A    between atoms: C_17  and  C_33
    9  A    between atoms: C_31  and  C_37
                            x       y       z     vdW  Elec       q    Type
                         _______ _______ _______ _____ _____    ______ ____

>  <TORSDO>
F 9

$$$$
=
 OpenBabel10272414543D

 37 42  0  0  1  0  0  0  0  0999 V2000
  185.1170  177.8140  137.6430 C   0  0  2  0  0  3  0  0  0  0  0  0
  183.6080  179.3670  139.4080 C   0  0  0  0  0  2  0  0  0  0  0  0
  187.0460  177.8050  139.4210 C   0  0  1  0  0  3  0  0  0  0  0  0
  186.1890  178.8710  140.1820 C   0  0  1  0  0  3  0  0  0  0  0  0
  184.7570  178.5100  139.8670 C   0  0  2  0  0  3  0  0  0  0  0  0
  186.6230  177.5740  137.9370 C   0  0  0  0  0  2  0  0  0  0  0  0
  184.7190  179.0660  138.4350 C   0  0  1  0  0  3  0  0  0  0  0  0
  191.5690  177.0230  142.2420 O   0  0  0  0  0  0  0  0  0  0  0  0
  188.5140  177.9640  139.5300 N   0  0  1  0  0  0  0  0  0  0  0  0
  190.6310  176.6100  140.0830 C   0  0  1  0  0  3  0  0  0  0  0  0
  189.1150  176.8260  140.2830 C   0  0  1  0  0  3  0  0  0  0  0  0
  190.9790  176.7880  138.6170 C   0  0  0  0  0  2  0  0  0  0  0  0
  188.6990  176.7390  141.6360 O   0  0  0  0  0  0  0  0  0  0  0  0
  189.7140  177.9180  143.4650 C   0  0  0  0  0  2  0  0  0  0  0  0
  188.5620  179.3260  137.4740 C   0  0  0  0  0  1  0  0  0  0  0  0
  190.5120  178.0890  138.1660 N   0  0  0  0  0  2  0  0  0  0  0  0
  188.8070  177.9990  142.2500 C   0  0  0  0  0  2  0  0  0  0  0  0
  189.0540  178.0580  138.1580 C   0  0  1  0  0  3  0  0  0  0  0  0
  191.5080  177.5170  140.9360 C   0  0  0  0  0  2  0  0  0  0  0  0
  191.1670  178.0910  143.0480 C   0  0  0  0  0  2  0  0  0  0  0  0
  184.2240  176.5710  137.8410 C   0  0  2  0  0  3  0  0  0  0  0  0
  184.8980  175.3140  137.3030 C   0  0  0  0  0  2  0  0  0  0  0  0
  185.0070  172.8790  137.7190 C   0  0  0  0  0  1  0  0  0  0  0  0
  184.0960  174.0870  137.6890 C   0  0  0  0  0  2  0  0  0  0  0  0
  182.9030  176.7670  137.1130 C   0  0  0  0  0  2  0  0  0  0  0  0
  182.1070  176.6320  134.9140 C   0  0  0  0  0  2  0  0  0  0  0  0
  183.1460  177.2370  135.7600 N   0  0  0  0  0  0  0  0  0  0  0  0
  181.9570  178.0070  135.3680 C   0  0  0  0  0  2  0  0  0  0  0  0
  186.4150  178.7740  141.6810 C   0  0  0  0  0  2  0  0  0  0  0  0
  185.2700  178.0230  142.3380 C   0  0  0  0  0  2  0  0  0  0  0  0
  184.2690  178.7810  144.5020 C   0  0  0  0  0  3  0  0  0  0  0  0
  185.3370  178.1920  143.8150 C   0  0  0  0  0  0  0  0  0  0  0  0
  186.4830  177.7970  144.5140 C   0  0  0  0  0  3  0  0  0  0  0  0
  187.7730  177.5580  146.6400 C   0  0  0  0  0  1  0  0  0  0  0  0
  185.4880  178.5660  146.5840 C   0  0  0  0  0  3  0  0  0  0  0  0
  186.5570  177.9800  145.8980 C   0  0  0  0  0  0  0  0  0  0  0  0
  184.3440  178.9650  145.8850 C   0  0  0  0  0  3  0  0  0  0  0  0
  1 21  1  1  0  0  0
  1  6  1  0  0  0  0
  1  7  1  0  0  0  0
  3  6  1  6  0  0  0
  3  4  1  0  0  0  0
  4 29  1  1  0  0  0
  5  2  1  1  0  0  0
  5  4  1  0  0  0  0
  7  2  1  6  0  0  0
  7  5  1  0  0  0  0
  8 20  1  0  0  0  0
  9  3  1  6  0  0  0
  9 11  1  0  0  0  0
 10 12  1  6  0  0  0
 10 11  1  0  0  0  0
 10 19  1  0  0  0  0
 11 13  1  1  0  0  0
 13 17  1  0  0  0  0
 16 12  1  0  0  0  0
 17 14  1  0  0  0  0
 18 15  1  1  0  0  0
 18 16  1  0  0  0  0
 18  9  1  0  0  0  0
 19  8  1  0  0  0  0
 20 14  1  0  0  0  0
 21 25  1  6  0  0  0
 22 24  1  0  0  0  0
 22 21  1  0  0  0  0
 24 23  1  0  0  0  0
 26 28  1  0  0  0  0
 26 27  1  0  0  0  0
 27 25  1  0  0  0  0
 28 27  1  0  0  0  0
 29 30  1  0  0  0  0
 30 32  1  0  0  0  0
 31 37  1  0  0  0  0
 32 31  2  0  0  0  0
 32 33  1  0  0  0  0
 33 36  2  0  0  0  0
 36 35  1  0  0  0  0
 36 34  1  0  0  0  0
 37 35  2  0  0  0  0
M  END
>  <MODEL>
2

>  <REMARK>
 VINA RESULT:      -6.0      2.109      3.306
  Name = 
  9 active torsions:
  status: ('A' for Active; 'I' for Inactive)
    1  A    between atoms: C_1  and  C_33
    2  A    between atoms: N_4  and  C_10
    3  A    between atoms: C_5  and  C_23
    4  A    between atoms: C_5  and  C_33
    5  A    between atoms: C_6  and  C_31
    6  A    between atoms: C_14  and  C_37
    7  A    between atoms: C_17  and  N_26
    8  A    between atoms: C_17  and  C_33
    9  A    between atoms: C_31  and  C_37
                            x       y       z     vdW  Elec       q    Type
                         _______ _______ _______ _____ _____    ______ ____

>  <TORSDO>
F 9

$$$$
=
 OpenBabel10272414543D

 37 42  0  0  1  0  0  0  0  0999 V2000
  186.0430  175.9410  136.5220 C   0  0  2  0  0  3  0  0  0  0  0  0
  184.9650  178.0920  137.9410 C   0  0  0  0  0  2  0  0  0  0  0  0
  188.3830  176.5380  137.5440 C   0  0  1  0  0  3  0  0  0  0  0  0
  187.6900  177.8390  138.0690 C   0  0  1  0  0  3  0  0  0  0  0  0
  186.2600  177.4330  138.3340 C   0  0  2  0  0  3  0  0  0  0  0  0
  187.5850  175.7790  136.4390 C   0  0  0  0  0  2  0  0  0  0  0  0
  185.7830  177.4100  136.8730 C   0  0  1  0  0  3  0  0  0  0  0  0
  193.5820  176.1320  138.9010 O   0  0  0  0  0  0  0  0  0  0  0  0
  189.8070  176.6770  137.1620 N   0  0  1  0  0  0  0  0  0  0  0  0
  192.0310  175.3860  137.2430 C   0  0  1  0  0  3  0  0  0  0  0  0
  190.6460  175.6680  137.8670 C   0  0  1  0  0  3  0  0  0  0  0  0
  191.8990  175.3080  135.7340 C   0  0  0  0  0  2  0  0  0  0  0  0
  190.6750  175.8170  139.2770 O   0  0  0  0  0  0  0  0  0  0  0  0
  192.1740  177.2610  140.4760 C   0  0  0  0  0  2  0  0  0  0  0  0
  189.1710  177.6750  134.9980 C   0  0  0  0  0  1  0  0  0  0  0  0
  191.2760  176.5250  135.2420 N   0  0  0  0  0  2  0  0  0  0  0  0
  190.9310  177.1600  139.6090 C   0  0  0  0  0  2  0  0  0  0  0  0
  189.8900  176.5290  135.6940 C   0  0  1  0  0  3  0  0  0  0  0  0
  193.1030  176.4020  137.6170 C   0  0  0  0  0  2  0  0  0  0  0  0
  193.4190  177.3280  139.6030 C   0  0  0  0  0  2  0  0  0  0  0  0
  185.3410  174.8930  137.4110 C   0  0  2  0  0  3  0  0  0  0  0  0
  186.0750  173.5580  137.3800 C   0  0  0  0  0  2  0  0  0  0  0  0
  186.0840  171.8630  135.5790 C   0  0  0  0  0  1  0  0  0  0  0  0
  185.2430  172.5220  136.6510 C   0  0  0  0  0  2  0  0  0  0  0  0
  183.9160  174.6790  136.9240 C   0  0  0  0  0  2  0  0  0  0  0  0
  181.9020  175.8130  137.3060 C   0  0  0  0  0  2  0  0  0  0  0  0
  182.9740  175.0530  137.9650 N   0  0  0  0  0  0  0  0  0  0  0  0
  181.6980  174.4070  137.6230 C   0  0  0  0  0  2  0  0  0  0  0  0
  188.3300  178.3060  139.3660 C   0  0  0  0  0  2  0  0  0  0  0  0
  187.2690  178.5020  140.4340 C   0  0  0  0  0  2  0  0  0  0  0  0
  187.0340  177.4640  142.6980 C   0  0  0  0  0  3  0  0  0  0  0  0
  187.8250  178.1490  141.7690 C   0  0  0  0  0  0  0  0  0  0  0  0
  189.1270  178.5350  142.1090 C   0  0  0  0  0  3  0  0  0  0  0  0
  191.0230  178.6350  143.7320 C   0  0  0  0  0  1  0  0  0  0  0  0
  188.8500  177.5390  144.3000 C   0  0  0  0  0  3  0  0  0  0  0  0
  189.6400  178.2270  143.3730 C   0  0  0  0  0  0  0  0  0  0  0  0
  187.5480  177.1570  143.9620 C   0  0  0  0  0  3  0  0  0  0  0  0
  1  7  1  0  0  0  0
  1 21  1  1  0  0  0
  3  6  1  6  0  0  0
  3  4  1  0  0  0  0
  4  5  1  0  0  0  0
  4 29  1  1  0  0  0
  5  2  1  1  0  0  0
  6  1  1  0  0  0  0
  7  2  1  1  0  0  0
  7  5  1  0  0  0  0
  8 20  1  0  0  0  0
  9  3  1  1  0  0  0
  9 11  1  0  0  0  0
 10 12  1  6  0  0  0
 10 19  1  0  0  0  0
 10 11  1  0  0  0  0
 11 13  1  1  0  0  0
 13 17  1  0  0  0  0
 16 18  1  0  0  0  0
 16 12  1  0  0  0  0
 17 14  1  0  0  0  0
 18 15  1  6  0  0  0
 18  9  1  0  0  0  0
 19  8  1  0  0  0  0
 20 14  1  0  0  0  0
 21 25  1  6  0  0  0
 22 21  1  0  0  0  0
 23 24  1  0  0  0  0
 24 22  1  0  0  0  0
 25 27  1  0  0  0  0
 26 28  1  0  0  0  0
 26 27  1  0  0  0  0
 28 27  1  0  0  0  0
 29 30  1  0  0  0  0
 30 32  1  0  0  0  0
 31 37  1  0  0  0  0
 32 33  1  0  0  0  0
 32 31  2  0  0  0  0
 33 36  2  0  0  0  0
 36 34  1  0  0  0  0
 36 35  1  0  0  0  0
 37 35  2  0  0  0  0
M  END
>  <MODEL>
3

>  <REMARK>
 VINA RESULT:      -5.9      1.750      2.609
  Name = 
  9 active torsions:
  status: ('A' for Active; 'I' for Inactive)
    1  A    between atoms: C_1  and  C_33
    2  A    between atoms: N_4  and  C_10
    3  A    between atoms: C_5  and  C_23
    4  A    between atoms: C_5  and  C_33
    5  A    between atoms: C_6  and  C_31
    6  A    between atoms: C_14  and  C_37
    7  A    between atoms: C_17  and  N_26
    8  A    between atoms: C_17  and  C_33
    9  A    between atoms: C_31  and  C_37
                            x       y       z     vdW  Elec       q    Type
                         _______ _______ _______ _____ _____    ______ ____

>  <TORSDO>
F 9

$$$$
=
 OpenBabel10272414543D

 37 42  0  0  1  0  0  0  0  0999 V2000
  188.8810  178.2460  139.4980 C   0  0  2  0  0  3  0  0  0  0  0  0
  191.4080  177.0630  139.6120 C   0  0  0  0  0  2  0  0  0  0  0  0
  188.1790  176.4010  137.7720 C   0  0  1  0  0  3  0  0  0  0  0  0
  189.6940  176.0090  137.7530 C   0  0  1  0  0  3  0  0  0  0  0  0
  190.1870  176.3160  139.1460 C   0  0  2  0  0  3  0  0  0  0  0  0
  187.8780  177.7970  138.4010 C   0  0  0  0  0  2  0  0  0  0  0  0
  190.2740  177.8430  138.9990 C   0  0  1  0  0  3  0  0  0  0  0  0
  184.2170  174.0440  134.9820 O   0  0  0  0  0  0  0  0  0  0  0  0
  187.4560  176.2360  136.4900 N   0  0  1  0  0  0  0  0  0  0  0  0
  185.0670  176.2080  135.5350 C   0  0  1  0  0  3  0  0  0  0  0  0
  186.0140  175.9480  136.7280 C   0  0  1  0  0  3  0  0  0  0  0  0
  185.4560  177.5060  134.8530 C   0  0  0  0  0  2  0  0  0  0  0  0
  185.7670  174.7220  137.3960 O   0  0  0  0  0  0  0  0  0  0  0  0
  185.5680  172.5850  136.3180 C   0  0  0  0  0  2  0  0  0  0  0  0
  189.1080  177.6530  135.3290 C   0  0  0  0  0  1  0  0  0  0  0  0
  186.8600  177.4540  134.4820 N   0  0  0  0  0  2  0  0  0  0  0  0
  186.5010  173.6900  136.7830 C   0  0  0  0  0  2  0  0  0  0  0  0
  187.6450  177.4780  135.7100 C   0  0  1  0  0  3  0  0  0  0  0  0
  185.0290  175.0790  134.5120 C   0  0  0  0  0  2  0  0  0  0  0  0
  185.0250  172.9050  134.9330 C   0  0  0  0  0  2  0  0  0  0  0  0
  188.5100  177.7890  140.9250 C   0  0  2  0  0  3  0  0  0  0  0  0
  187.0530  178.1010  141.2450 C   0  0  0  0  0  2  0  0  0  0  0  0
  185.3680  178.3010  143.0450 C   0  0  0  0  0  1  0  0  0  0  0  0
  186.7820  177.8700  142.7190 C   0  0  0  0  0  2  0  0  0  0  0  0
  189.3960  178.4980  141.9370 C   0  0  0  0  0  2  0  0  0  0  0  0
  191.3310  178.1630  143.2140 C   0  0  0  0  0  2  0  0  0  0  0  0
  190.0880  177.5230  142.7620 N   0  0  0  0  0  0  0  0  0  0  0  0
  190.1820  178.1070  144.1070 C   0  0  0  0  0  2  0  0  0  0  0  0
  189.8640  174.5250  137.4730 C   0  0  0  0  0  2  0  0  0  0  0  0
  190.6350  174.3200  136.1820 C   0  0  0  0  0  2  0  0  0  0  0  0
  192.5840  175.7700  135.5820 C   0  0  0  0  0  3  0  0  0  0  0  0
  192.0510  174.7410  136.3670 C   0  0  0  0  0  0  0  0  0  0  0  0
  192.8610  174.0830  137.3000 C   0  0  0  0  0  3  0  0  0  0  0  0
  195.0560  173.7640  138.4480 C   0  0  0  0  0  1  0  0  0  0  0  0
  194.7290  175.4910  136.6730 C   0  0  0  0  0  3  0  0  0  0  0  0
  194.1980  174.4610  137.4560 C   0  0  0  0  0  0  0  0  0  0  0  0
  193.9220  176.1460  135.7370 C   0  0  0  0  0  3  0  0  0  0  0  0
  1 21  1  1  0  0  0
  3  6  1  6  0  0  0
  4 29  1  1  0  0  0
  4  3  1  0  0  0  0
  4  5  1  0  0  0  0
  5  2  1  6  0  0  0
  6  1  1  0  0  0  0
  7  5  1  0  0  0  0
  7  1  1  0  0  0  0
  7  2  1  1  0  0  0
  9 11  1  0  0  0  0
  9  3  1  1  0  0  0
 10 19  1  6  0  0  0
 10 11  1  0  0  0  0
 11 13  1  6  0  0  0
 12 10  1  0  0  0  0
 14 17  1  0  0  0  0
 16 12  1  0  0  0  0
 16 18  1  0  0  0  0
 17 13  1  0  0  0  0
 18 15  1  6  0  0  0
 18  9  1  0  0  0  0
 19  8  1  0  0  0  0
 20  8  1  0  0  0  0
 20 14  1  0  0  0  0
 21 22  1  1  0  0  0
 21 25  1  0  0  0  0
 22 24  1  0  0  0  0
 24 23  1  0  0  0  0
 25 27  1  0  0  0  0
 26 28  1  0  0  0  0
 27 26  1  0  0  0  0
 27 28  1  0  0  0  0
 30 32  1  0  0  0  0
 30 29  1  0  0  0  0
 31 37  2  0  0  0  0
 31 32  1  0  0  0  0
 32 33  2  0  0  0  0
 33 36  1  0  0  0  0
 35 36  2  0  0  0  0
 36 34  1  0  0  0  0
 37 35  1  0  0  0  0
M  END
>  <MODEL>
4

>  <REMARK>
 VINA RESULT:      -5.9      2.633      8.044
  Name = 
  9 active torsions:
  status: ('A' for Active; 'I' for Inactive)
    1  A    between atoms: C_1  and  C_33
    2  A    between atoms: N_4  and  C_10
    3  A    between atoms: C_5  and  C_23
    4  A    between atoms: C_5  and  C_33
    5  A    between atoms: C_6  and  C_31
    6  A    between atoms: C_14  and  C_37
    7  A    between atoms: C_17  and  N_26
    8  A    between atoms: C_17  and  C_33
    9  A    between atoms: C_31  and  C_37
                            x       y       z     vdW  Elec       q    Type
                         _______ _______ _______ _____ _____    ______ ____

>  <TORSDO>
F 9

$$$$
=
 OpenBabel10272414543D

 37 42  0  0  1  0  0  0  0  0999 V2000
  189.6990  176.5490  135.0460 C   0  0  2  0  0  3  0  0  0  0  0  0
  189.3200  178.2850  137.2010 C   0  0  0  0  0  2  0  0  0  0  0  0
  191.5420  175.3250  136.4540 C   0  0  1  0  0  3  0  0  0  0  0  0
  191.3930  176.5130  137.4630 C   0  0  1  0  0  3  0  0  0  0  0  0
  189.9440  176.9240  137.3600 C   0  0  2  0  0  3  0  0  0  0  0  0
  190.9170  175.5860  135.0490 C   0  0  0  0  0  2  0  0  0  0  0  0
  190.0420  177.6790  136.0250 C   0  0  1  0  0  3  0  0  0  0  0  0
  196.8660  176.1220  136.2360 O   0  0  0  0  0  0  0  0  0  0  0  0
  192.9040  174.7580  136.3270 N   0  0  1  0  0  0  0  0  0  0  0  0
  195.2230  174.8680  137.4350 C   0  0  1  0  0  3  0  0  0  0  0  0
  193.8900  175.5700  137.0940 C   0  0  1  0  0  3  0  0  0  0  0  0
  194.9480  173.4410  137.8710 C   0  0  0  0  0  2  0  0  0  0  0  0
  194.0480  176.8960  136.6180 O   0  0  0  0  0  0  0  0  0  0  0  0
  195.5360  177.5540  134.8510 C   0  0  0  0  0  2  0  0  0  0  0  0
  191.9740  172.5130  135.9000 C   0  0  0  0  0  1  0  0  0  0  0  0
  194.1800  172.7630  136.8400 N   0  0  0  0  0  2  0  0  0  0  0  0
  194.2250  176.8840  135.2230 C   0  0  0  0  0  2  0  0  0  0  0  0
  192.8510  173.3610  136.8100 C   0  0  1  0  0  3  0  0  0  0  0  0
  196.2400  174.8750  136.3010 C   0  0  0  0  0  2  0  0  0  0  0  0
  196.6770  176.5500  134.9200 C   0  0  0  0  0  2  0  0  0  0  0  0
  188.3380  175.8530  135.2570 C   0  0  2  0  0  3  0  0  0  0  0  0
  188.4240  174.3630  134.9500 C   0  0  0  0  0  2  0  0  0  0  0  0
  188.5770  172.9660  136.9850 C   0  0  0  0  0  1  0  0  0  0  0  0
  187.6300  173.5740  135.9730 C   0  0  0  0  0  2  0  0  0  0  0  0
  187.2940  176.4810  134.3460 C   0  0  0  0  0  2  0  0  0  0  0  0
  185.1810  177.2620  134.9860 C   0  0  0  0  0  2  0  0  0  0  0  0
  186.6180  177.5650  135.0380 N   0  0  0  0  0  0  0  0  0  0  0  0
  185.9390  176.9610  136.1930 C   0  0  0  0  0  2  0  0  0  0  0  0
  191.6880  176.0560  138.8820 C   0  0  0  0  0  2  0  0  0  0  0  0
  191.9440  177.2560  139.7770 C   0  0  0  0  0  2  0  0  0  0  0  0
  189.6800  177.4030  140.8300 C   0  0  0  0  0  3  0  0  0  0  0  0
  191.0570  177.1930  140.9700 C   0  0  0  0  0  0  0  0  0  0  0  0
  191.6030  176.9610  142.2380 C   0  0  0  0  0  3  0  0  0  0  0  0
  191.3520  176.6800  144.7070 C   0  0  0  0  0  1  0  0  0  0  0  0
  189.3960  177.1360  143.2210 C   0  0  0  0  0  3  0  0  0  0  0  0
  190.7720  176.9290  143.3620 C   0  0  0  0  0  0  0  0  0  0  0  0
  188.8500  177.3710  141.9560 C   0  0  0  0  0  3  0  0  0  0  0  0
  1  6  1  0  0  0  0
  1 21  1  1  0  0  0
  1  7  1  0  0  0  0
  3  6  1  6  0  0  0
  3  4  1  0  0  0  0
  4 29  1  1  0  0  0
  5  2  1  1  0  0  0
  5  4  1  0  0  0  0
  7  2  1  1  0  0  0
  7  5  1  0  0  0  0
  8 19  1  0  0  0  0
  9  3  1  1  0  0  0
  9 18  1  0  0  0  0
  9 11  1  0  0  0  0
 10 19  1  6  0  0  0
 10 12  1  0  0  0  0
 11 13  1  6  0  0  0
 11 10  1  0  0  0  0
 14 20  1  0  0  0  0
 14 17  1  0  0  0  0
 16 12  1  0  0  0  0
 17 13  1  0  0  0  0
 18 15  1  6  0  0  0
 18 16  1  0  0  0  0
 20  8  1  0  0  0  0
 21 25  1  6  0  0  0
 22 21  1  0  0  0  0
 22 24  1  0  0  0  0
 24 23  1  0  0  0  0
 25 27  1  0  0  0  0
 26 27  1  0  0  0  0
 26 28  1  0  0  0  0
 27 28  1  0  0  0  0
 29 30  1  0  0  0  0
 30 32  1  0  0  0  0
 31 32  2  0  0  0  0
 31 37  1  0  0  0  0
 32 33  1  0  0  0  0
 33 36  2  0  0  0  0
 35 36  1  0  0  0  0
 36 34  1  0  0  0  0
 37 35  2  0  0  0  0
M  END
>  <MODEL>
5

>  <REMARK>
 VINA RESULT:      -5.5      3.549      5.997
  Name = 
  9 active torsions:
  status: ('A' for Active; 'I' for Inactive)
    1  A    between atoms: C_1  and  C_33
    2  A    between atoms: N_4  and  C_10
    3  A    between atoms: C_5  and  C_23
    4  A    between atoms: C_5  and  C_33
    5  A    between atoms: C_6  and  C_31
    6  A    between atoms: C_14  and  C_37
    7  A    between atoms: C_17  and  N_26
    8  A    between atoms: C_17  and  C_33
    9  A    between atoms: C_31  and  C_37
                            x       y       z     vdW  Elec       q    Type
                         _______ _______ _______ _____ _____    ______ ____

>  <TORSDO>
F 9

$$$$
=
 OpenBabel10272414543D

 37 42  0  0  1  0  0  0  0  0999 V2000
  189.9040  176.8260  138.0910 C   0  0  2  0  0  3  0  0  0  0  0  0
  188.0470  178.8010  137.4190 C   0  0  0  0  0  2  0  0  0  0  0  0
  189.2340  177.1580  140.6050 C   0  0  1  0  0  3  0  0  0  0  0  0
  188.4280  178.4030  140.1030 C   0  0  1  0  0  3  0  0  0  0  0  0
  187.9760  178.0320  138.7110 C   0  0  2  0  0  3  0  0  0  0  0  0
  190.2750  176.6040  139.5830 C   0  0  0  0  0  2  0  0  0  0  0  0
  189.3220  178.2420  137.9990 C   0  0  1  0  0  3  0  0  0  0  0  0
  188.7580  176.5630  145.9390 O   0  0  0  0  0  0  0  0  0  0  0  0
  189.8350  177.2830  141.9530 N   0  0  1  0  0  0  0  0  0  0  0  0
  190.1730  175.9360  144.1190 C   0  0  1  0  0  3  0  0  0  0  0  0
  189.3210  176.2200  142.8620 C   0  0  1  0  0  3  0  0  0  0  0  0
  191.6440  175.9360  143.7440 C   0  0  0  0  0  2  0  0  0  0  0  0
  187.9290  176.3000  143.1220 O   0  0  0  0  0  0  0  0  0  0  0  0
  186.9260  177.6470  144.8390 C   0  0  0  0  0  2  0  0  0  0  0  0
  191.8210  178.4000  141.0080 C   0  0  0  0  0  1  0  0  0  0  0  0
  191.9730  177.1900  143.0880 N   0  0  0  0  0  2  0  0  0  0  0  0
  187.5840  177.6180  143.4700 C   0  0  0  0  0  2  0  0  0  0  0  0
  191.3030  177.2040  141.7930 C   0  0  1  0  0  3  0  0  0  0  0  0
  189.9340  176.9070  145.2680 C   0  0  0  0  0  2  0  0  0  0  0  0
  187.9860  177.7270  145.9290 C   0  0  0  0  0  2  0  0  0  0  0  0
  189.0540  175.6970  137.4730 C   0  0  2  0  0  3  0  0  0  0  0  0
  189.7740  174.3560  137.5480 C   0  0  0  0  0  2  0  0  0  0  0  0
  192.1590  174.1610  136.9210 C   0  0  0  0  0  1  0  0  0  0  0  0
  190.7430  174.2190  136.3890 C   0  0  0  0  0  2  0  0  0  0  0  0
  188.7620  176.0150  136.0140 C   0  0  0  0  0  2  0  0  0  0  0  0
  187.0280  176.5250  134.5250 C   0  0  0  0  0  2  0  0  0  0  0  0
  187.3700  175.7290  135.7120 N   0  0  0  0  0  0  0  0  0  0  0  0
  187.3520  175.1130  134.3770 C   0  0  0  0  0  2  0  0  0  0  0  0
  187.2120  178.6480  140.9800 C   0  0  0  0  0  2  0  0  0  0  0  0
  185.9670  178.7910  140.1230 C   0  0  0  0  0  2  0  0  0  0  0  0
  183.5070  178.4520  140.4300 C   0  0  0  0  0  3  0  0  0  0  0  0
  184.7550  178.7600  140.9860 C   0  0  0  0  0  0  0  0  0  0  0  0
  184.8540  179.0770  142.3460 C   0  0  0  0  0  3  0  0  0  0  0  0
  183.8180  179.4070  144.5940 C   0  0  0  0  0  1  0  0  0  0  0  0
  182.4650  178.7630  142.5950 C   0  0  0  0  0  3  0  0  0  0  0  0
  183.7110  179.0740  143.1500 C   0  0  0  0  0  0  0  0  0  0  0  0
  182.3640  178.4510  141.2360 C   0  0  0  0  0  3  0  0  0  0  0  0
  1 21  1  1  0  0  0
  1  6  1  0  0  0  0
  3  6  1  6  0  0  0
  4  3  1  0  0  0  0
  4 29  1  1  0  0  0
  5  2  1  6  0  0  0
  5  4  1  0  0  0  0
  7  2  1  6  0  0  0
  7  1  1  0  0  0  0
  7  5  1  0  0  0  0
  9  3  1  6  0  0  0
  9 11  1  0  0  0  0
 10 12  1  6  0  0  0
 10 19  1  0  0  0  0
 11 13  1  1  0  0  0
 11 10  1  0  0  0  0
 13 17  1  0  0  0  0
 14 20  1  0  0  0  0
 16 12  1  0  0  0  0
 17 14  1  0  0  0  0
 18 15  1  6  0  0  0
 18  9  1  0  0  0  0
 18 16  1  0  0  0  0
 19  8  1  0  0  0  0
 20  8  1  0  0  0  0
 21 25  1  6  0  0  0
 21 22  1  0  0  0  0
 24 23  1  0  0  0  0
 24 22  1  0  0  0  0
 26 27  1  0  0  0  0
 27 25  1  0  0  0  0
 28 26  1  0  0  0  0
 28 27  1  0  0  0  0
 30 29  1  0  0  0  0
 30 32  1  0  0  0  0
 31 32  2  0  0  0  0
 31 37  1  0  0  0  0
 32 33  1  0  0  0  0
 33 36  2  0  0  0  0
 35 36  1  0  0  0  0
 36 34  1  0  0  0  0
 37 35  2  0  0  0  0
M  END
>  <MODEL>
6

>  <REMARK>
 VINA RESULT:      -5.5      3.304      5.797
  Name = 
  9 active torsions:
  status: ('A' for Active; 'I' for Inactive)
    1  A    between atoms: C_1  and  C_33
    2  A    between atoms: N_4  and  C_10
    3  A    between atoms: C_5  and  C_23
    4  A    between atoms: C_5  and  C_33
    5  A    between atoms: C_6  and  C_31
    6  A    between atoms: C_14  and  C_37
    7  A    between atoms: C_17  and  N_26
    8  A    between atoms: C_17  and  C_33
    9  A    between atoms: C_31  and  C_37
                            x       y       z     vdW  Elec       q    Type
                         _______ _______ _______ _____ _____    ______ ____

>  <TORSDO>
F 9

$$$$
=
 OpenBabel10272414543D

 37 42  0  0  1  0  0  0  0  0999 V2000
  184.2760  176.7150  137.1780 C   0  0  2  0  0  3  0  0  0  0  0  0
  183.9950  178.7750  139.0430 C   0  0  0  0  0  2  0  0  0  0  0  0
  186.8730  176.8830  137.4980 C   0  0  1  0  0  3  0  0  0  0  0  0
  186.5690  178.1780  138.3220 C   0  0  1  0  0  3  0  0  0  0  0  0
  185.2300  177.9180  138.9670 C   0  0  2  0  0  3  0  0  0  0  0  0
  185.6860  176.3790  136.6200 C   0  0  0  0  0  2  0  0  0  0  0  0
  184.3580  178.1470  137.7220 C   0  0  1  0  0  3  0  0  0  0  0  0
  192.0670  175.5030  137.1050 O   0  0  0  0  0  0  0  0  0  0  0  0
  188.1330  176.8970  136.7190 N   0  0  1  0  0  0  0  0  0  0  0  0
  190.0020  175.3210  135.9180 C   0  0  1  0  0  3  0  0  0  0  0  0
  188.9280  175.6630  136.9740 C   0  0  1  0  0  3  0  0  0  0  0  0
  189.4410  175.5620  134.5290 C   0  0  0  0  0  2  0  0  0  0  0  0
  189.3780  175.5250  138.3110 O   0  0  0  0  0  0  0  0  0  0  0  0
  191.3990  176.4820  139.1870 C   0  0  0  0  0  2  0  0  0  0  0  0
  187.1200  178.3810  135.0300 C   0  0  0  0  0  1  0  0  0  0  0  0
  188.9490  176.9270  134.4380 N   0  0  0  0  0  2  0  0  0  0  0  0
  189.9680  176.7270  138.7410 C   0  0  0  0  0  2  0  0  0  0  0  0
  187.7720  177.0320  135.2920 C   0  0  1  0  0  3  0  0  0  0  0  0
  191.3090  176.0850  136.0870 C   0  0  0  0  0  2  0  0  0  0  0  0
  192.3380  176.5480  137.9920 C   0  0  0  0  0  2  0  0  0  0  0  0
  183.7030  175.6520  138.1390 C   0  0  2  0  0  3  0  0  0  0  0  0
  184.1210  174.2470  137.7240 C   0  0  0  0  0  2  0  0  0  0  0  0
  183.3620  172.1610  136.6330 C   0  0  0  0  0  1  0  0  0  0  0  0
  183.0670  173.6340  136.8240 C   0  0  0  0  0  2  0  0  0  0  0  0
  182.1830  175.7300  138.1420 C   0  0  0  0  0  2  0  0  0  0  0  0
  180.8120  176.8360  139.6860 C   0  0  0  0  0  2  0  0  0  0  0  0
  181.6860  175.6670  139.5050 N   0  0  0  0  0  0  0  0  0  0  0  0
  180.2250  175.5320  139.4090 C   0  0  0  0  0  2  0  0  0  0  0  0
  187.6170  178.3880  139.4030 C   0  0  0  0  0  2  0  0  0  0  0  0
  186.9500  178.7600  140.7160 C   0  0  0  0  0  2  0  0  0  0  0  0
  186.8930  177.5930  142.9280 C   0  0  0  0  0  3  0  0  0  0  0  0
  187.6370  178.0710  141.8420 C   0  0  0  0  0  0  0  0  0  0  0  0
  189.0290  177.9340  141.8360 C   0  0  0  0  0  3  0  0  0  0  0  0
  191.1550  177.1640  142.8980 C   0  0  0  0  0  1  0  0  0  0  0  0
  188.9320  176.8310  143.9900 C   0  0  0  0  0  3  0  0  0  0  0  0
  189.6760  177.3110  142.9070 C   0  0  0  0  0  0  0  0  0  0  0  0
  187.5410  176.9720  144.0000 C   0  0  0  0  0  3  0  0  0  0  0  0
  1  7  1  0  0  0  0
  1 21  1  1  0  0  0
  3  6  1  6  0  0  0
  3  4  1  0  0  0  0
  4  5  1  0  0  0  0
  4 29  1  1  0  0  0
  5  2  1  1  0  0  0
  6  1  1  0  0  0  0
  7  5  1  0  0  0  0
  7  2  1  1  0  0  0
  8 20  1  0  0  0  0
  9 11  1  0  0  0  0
  9  3  1  1  0  0  0
 10 12  1  6  0  0  0
 10 19  1  0  0  0  0
 10 11  1  0  0  0  0
 11 13  1  1  0  0  0
 13 17  1  0  0  0  0
 16 12  1  0  0  0  0
 16 18  1  0  0  0  0
 17 14  1  0  0  0  0
 18 15  1  1  0  0  0
 18  9  1  0  0  0  0
 19  8  1  0  0  0  0
 20 14  1  0  0  0  0
 21 22  1  6  0  0  0
 21 25  1  0  0  0  0
 23 24  1  0  0  0  0
 24 22  1  0  0  0  0
 25 27  1  0  0  0  0
 27 26  1  0  0  0  0
 28 27  1  0  0  0  0
 28 26  1  0  0  0  0
 29 30  1  0  0  0  0
 30 32  1  0  0  0  0
 31 37  1  0  0  0  0
 32 31  2  0  0  0  0
 33 32  1  0  0  0  0
 33 36  2  0  0  0  0
 34 36  1  0  0  0  0
 35 37  2  0  0  0  0
 36 35  1  0  0  0  0
M  END
>  <MODEL>
7

>  <REMARK>
 VINA RESULT:      -5.4      1.554      2.482
  Name = 
  9 active torsions:
  status: ('A' for Active; 'I' for Inactive)
    1  A    between atoms: C_1  and  C_33
    2  A    between atoms: N_4  and  C_10
    3  A    between atoms: C_5  and  C_23
    4  A    between atoms: C_5  and  C_33
    5  A    between atoms: C_6  and  C_31
    6  A    between atoms: C_14  and  C_37
    7  A    between atoms: C_17  and  N_26
    8  A    between atoms: C_17  and  C_33
    9  A    between atoms: C_31  and  C_37
                            x       y       z     vdW  Elec       q    Type
                         _______ _______ _______ _____ _____    ______ ____

>  <TORSDO>
F 9

$$$$
=
 OpenBabel10272414543D

 37 42  0  0  1  0  0  0  0  0999 V2000
  185.8080  178.9840  140.5130 C   0  0  2  0  0  3  0  0  0  0  0  0
  187.9660  178.9450  142.2860 C   0  0  0  0  0  2  0  0  0  0  0  0
  187.1710  177.3910  138.9380 C   0  0  1  0  0  3  0  0  0  0  0  0
  188.3770  177.6670  139.8970 C   0  0  1  0  0  3  0  0  0  0  0  0
  187.7490  177.8700  141.2550 C   0  0  2  0  0  3  0  0  0  0  0  0
  185.9800  178.3870  139.0900 C   0  0  0  0  0  2  0  0  0  0  0  0
  187.2200  179.2940  141.0230 C   0  0  1  0  0  3  0  0  0  0  0  0
  186.8470  174.3820  134.4800 O   0  0  0  0  0  0  0  0  0  0  0  0
  187.5170  177.1990  137.5100 N   0  0  1  0  0  0  0  0  0  0  0  0
  186.4280  176.6030  135.2570 C   0  0  1  0  0  3  0  0  0  0  0  0
  186.4310  176.4710  136.7960 C   0  0  1  0  0  3  0  0  0  0  0  0
  186.7280  178.0390  134.8710 C   0  0  0  0  0  2  0  0  0  0  0  0
  186.2170  175.1470  137.2560 O   0  0  0  0  0  0  0  0  0  0  0  0
  187.4210  173.2140  136.4910 C   0  0  0  0  0  2  0  0  0  0  0  0
  188.9800  179.1840  137.5550 C   0  0  0  0  0  1  0  0  0  0  0  0
  187.9770  178.4520  135.4890 N   0  0  0  0  0  2  0  0  0  0  0  0
  187.4460  174.4690  137.3460 C   0  0  0  0  0  2  0  0  0  0  0  0
  187.7550  178.5360  136.9270 C   0  0  1  0  0  3  0  0  0  0  0  0
  187.3970  175.6640  134.5490 C   0  0  0  0  0  2  0  0  0  0  0  0
  187.8070  173.5490  135.0580 C   0  0  0  0  0  2  0  0  0  0  0  0
  184.9140  178.1450  141.4510 C   0  0  2  0  0  3  0  0  0  0  0  0
  183.6600  177.6600  140.7340 C   0  0  0  0  0  2  0  0  0  0  0  0
  181.3470  178.2390  140.0770 C   0  0  0  0  0  1  0  0  0  0  0  0
  182.5410  178.6700  140.9010 C   0  0  0  0  0  2  0  0  0  0  0  0
  184.4990  178.9830  142.6500 C   0  0  0  0  0  2  0  0  0  0  0  0
  185.1330  179.1600  144.8980 C   0  0  0  0  0  2  0  0  0  0  0  0
  184.6630  178.2160  143.8730 N   0  0  0  0  0  0  0  0  0  0  0  0
  183.7250  178.7880  144.8510 C   0  0  0  0  0  2  0  0  0  0  0  0
  189.3120  176.4710  139.9470 C   0  0  0  0  0  2  0  0  0  0  0  0
  190.7170  176.9170  140.3120 C   0  0  0  0  0  2  0  0  0  0  0  0
  190.4860  175.8540  142.5650 C   0  0  0  0  0  3  0  0  0  0  0  0
  190.8640  176.9590  141.7920 C   0  0  0  0  0  0  0  0  0  0  0  0
  191.3450  178.1160  142.4160 C   0  0  0  0  0  3  0  0  0  0  0  0
  191.9710  179.3920  144.4700 C   0  0  0  0  0  1  0  0  0  0  0  0
  191.0830  177.0590  144.5800 C   0  0  0  0  0  3  0  0  0  0  0  0
  191.4580  178.1640  143.8090 C   0  0  0  0  0  0  0  0  0  0  0  0
  190.5980  175.9040  143.9580 C   0  0  0  0  0  3  0  0  0  0  0  0
  1  7  1  0  0  0  0
  1 21  1  1  0  0  0
  3  6  1  6  0  0  0
  3  4  1  0  0  0  0
  4 29  1  1  0  0  0
  4  5  1  0  0  0  0
  5  2  1  1  0  0  0
  6  1  1  0  0  0  0
  7  5  1  0  0  0  0
  7  2  1  1  0  0  0
  8 19  1  0  0  0  0
  8 20  1  0  0  0  0
  9  3  1  1  0  0  0
 10 19  1  6  0  0  0
 10 11  1  0  0  0  0
 11 13  1  6  0  0  0
 11  9  1  0  0  0  0
 12 10  1  0  0  0  0
 12 16  1  0  0  0  0
 13 17  1  0  0  0  0
 14 17  1  0  0  0  0
 16 18  1  0  0  0  0
 18  9  1  0  0  0  0
 18 15  1  1  0  0  0
 20 14  1  0  0  0  0
 21 22  1  6  0  0  0
 21 25  1  0  0  0  0
 22 24  1  0  0  0  0
 23 24  1  0  0  0  0
 25 27  1  0  0  0  0
 27 28  1  0  0  0  0
 27 26  1  0  0  0  0
 28 26  1  0  0  0  0
 29 30  1  0  0  0  0
 30 32  1  0  0  0  0
 31 37  1  0  0  0  0
 32 33  1  0  0  0  0
 32 31  2  0  0  0  0
 33 36  2  0  0  0  0
 36 34  1  0  0  0  0
 36 35  1  0  0  0  0
 37 35  2  0  0  0  0
M  END
>  <MODEL>
8

>  <REMARK>
 VINA RESULT:      -5.2      2.805      5.876
  Name = 
  9 active torsions:
  status: ('A' for Active; 'I' for Inactive)
    1  A    between atoms: C_1  and  C_33
    2  A    between atoms: N_4  and  C_10
    3  A    between atoms: C_5  and  C_23
    4  A    between atoms: C_5  and  C_33
    5  A    between atoms: C_6  and  C_31
    6  A    between atoms: C_14  and  C_37
    7  A    between atoms: C_17  and  N_26
    8  A    between atoms: C_17  and  C_33
    9  A    between atoms: C_31  and  C_37
                            x       y       z     vdW  Elec       q    Type
                         _______ _______ _______ _____ _____    ______ ____

>  <TORSDO>
F 9

$$$$
=
 OpenBabel10272414543D

 37 42  0  0  1  0  0  0  0  0999 V2000
  187.6160  176.3970  136.1670 C   0  0  2  0  0  3  0  0  0  0  0  0
  188.2570  173.6820  136.3090 C   0  0  0  0  0  2  0  0  0  0  0  0
  185.1730  175.7800  136.8940 C   0  0  1  0  0  3  0  0  0  0  0  0
  185.6130  174.2920  136.6860 C   0  0  1  0  0  3  0  0  0  0  0  0
  187.0810  174.2730  137.0390 C   0  0  2  0  0  3  0  0  0  0  0  0
  186.1290  176.8340  136.2540 C   0  0  0  0  0  2  0  0  0  0  0  0
  187.6070  174.9220  135.7490 C   0  0  1  0  0  3  0  0  0  0  0  0
  180.3980  177.7290  138.4520 O   0  0  0  0  0  0  0  0  0  0  0  0
  183.7610  176.0840  136.5680 N   0  0  1  0  0  0  0  0  0  0  0  0
  182.0400  177.9890  136.7360 C   0  0  1  0  0  3  0  0  0  0  0  0
  183.2950  177.2920  137.3060 C   0  0  1  0  0  3  0  0  0  0  0  0
  182.1330  178.0420  135.2220 C   0  0  0  0  0  2  0  0  0  0  0  0
  183.2740  177.1410  138.7150 O   0  0  0  0  0  0  0  0  0  0  0  0
  181.4530  176.2060  139.9710 C   0  0  0  0  0  2  0  0  0  0  0  0
  183.9830  174.9670  134.3800 C   0  0  0  0  0  1  0  0  0  0  0  0
  182.3380  176.6990  134.7060 N   0  0  0  0  0  2  0  0  0  0  0  0
  182.6340  175.9350  139.0560 C   0  0  0  0  0  2  0  0  0  0  0  0
  183.6730  176.2690  135.1040 C   0  0  1  0  0  3  0  0  0  0  0  0
  180.7240  177.3420  137.1500 C   0  0  0  0  0  2  0  0  0  0  0  0
  180.2150  176.5310  139.1470 C   0  0  0  0  0  2  0  0  0  0  0  0
  188.4560  176.7460  137.4150 C   0  0  2  0  0  3  0  0  0  0  0  0
  187.7480  177.7750  138.2880 C   0  0  0  0  0  2  0  0  0  0  0  0
  188.7170  177.6650  140.5610 C   0  0  0  0  0  1  0  0  0  0  0  0
  188.7350  178.4130  139.2460 C   0  0  0  0  0  2  0  0  0  0  0  0
  189.8010  177.3120  136.9860 C   0  0  0  0  0  2  0  0  0  0  0  0
  191.8860  176.5380  137.7210 C   0  0  0  0  0  2  0  0  0  0  0  0
  190.7630  176.2350  136.8220 N   0  0  0  0  0  0  0  0  0  0  0  0
  190.8740  175.5750  138.1310 C   0  0  0  0  0  2  0  0  0  0  0  0
  184.8570  173.3690  137.6260 C   0  0  0  0  0  2  0  0  0  0  0  0
  184.6250  172.0220  136.9660 C   0  0  0  0  0  2  0  0  0  0  0  0
  182.2710  172.8700  136.9710 C   0  0  0  0  0  3  0  0  0  0  0  0
  183.1890  171.8790  136.6030 C   0  0  0  0  0  0  0  0  0  0  0  0
  182.7480  170.7360  135.9260 C   0  0  0  0  0  3  0  0  0  0  0  0
  180.9280  169.3770  134.8870 C   0  0  0  0  0  1  0  0  0  0  0  0
  180.4790  171.5820  135.9740 C   0  0  0  0  0  3  0  0  0  0  0  0
  181.3940  170.5900  135.6080 C   0  0  0  0  0  0  0  0  0  0  0  0
  180.9180  172.7220  136.6540 C   0  0  0  0  0  3  0  0  0  0  0  0
  1  6  1  0  0  0  0
  1 21  1  1  0  0  0
  3  6  1  6  0  0  0
  4  3  1  0  0  0  0
  4  5  1  0  0  0  0
  4 29  1  1  0  0  0
  5  2  1  6  0  0  0
  7  1  1  0  0  0  0
  7  2  1  1  0  0  0
  7  5  1  0  0  0  0
  8 20  1  0  0  0  0
  9  3  1  6  0  0  0
  9 11  1  0  0  0  0
 10 12  1  6  0  0  0
 10 19  1  0  0  0  0
 10 11  1  0  0  0  0
 11 13  1  1  0  0  0
 13 17  1  0  0  0  0
 16 18  1  0  0  0  0
 16 12  1  0  0  0  0
 17 14  1  0  0  0  0
 18 15  1  6  0  0  0
 18  9  1  0  0  0  0
 19  8  1  0  0  0  0
 20 14  1  0  0  0  0
 21 25  1  6  0  0  0
 21 22  1  0  0  0  0
 22 24  1  0  0  0  0
 24 23  1  0  0  0  0
 26 28  1  0  0  0  0
 27 25  1  0  0  0  0
 27 26  1  0  0  0  0
 27 28  1  0  0  0  0
 30 29  1  0  0  0  0
 32 30  1  0  0  0  0
 32 31  2  0  0  0  0
 33 32  1  0  0  0  0
 34 36  1  0  0  0  0
 35 37  2  0  0  0  0
 36 33  2  0  0  0  0
 36 35  1  0  0  0  0
 37 31  1  0  0  0  0
M  END
>  <MODEL>
9

>  <REMARK>
 VINA RESULT:      -5.1      2.928      8.078
  Name = 
  9 active torsions:
  status: ('A' for Active; 'I' for Inactive)
    1  A    between atoms: C_1  and  C_33
    2  A    between atoms: N_4  and  C_10
    3  A    between atoms: C_5  and  C_23
    4  A    between atoms: C_5  and  C_33
    5  A    between atoms: C_6  and  C_31
    6  A    between atoms: C_14  and  C_37
    7  A    between atoms: C_17  and  N_26
    8  A    between atoms: C_17  and  C_33
    9  A    between atoms: C_31  and  C_37
                            x       y       z     vdW  Elec       q    Type
                         _______ _______ _______ _____ _____    ______ ____

>  <TORSDO>
F 9

$$$$
