=
 OpenBabel10272400173D

 31 33  0  0  1  0  0  0  0  0999 V2000
  189.7680  176.9020  138.3370 C   0  0  0  0  0  0  0  0  0  0  0  0
  190.9190  176.5020  137.6230 C   0  0  0  0  0  0  0  0  0  0  0  0
  191.2340  174.7480  135.9150 C   0  0  0  0  0  3  0  0  0  0  0  0
  190.8310  176.1600  136.1640 C   0  0  0  0  0  2  0  0  0  0  0  0
  192.2340  176.9300  139.5660 N   0  0  0  0  0  0  0  0  0  0  0  0
  192.4730  174.3070  136.1300 C   0  0  0  0  0  3  0  0  0  0  0  0
  189.9130  177.2950  139.6770 C   0  0  0  0  0  0  0  0  0  0  0  0
  193.5610  175.1120  136.7110 C   0  0  0  0  0  3  0  0  0  0  0  0
  191.1490  177.3090  140.2400 N   0  0  0  0  0  0  0  0  0  0  0  0
  192.1650  176.4980  138.2830 C   0  0  0  0  0  0  0  0  0  0  0  0
  193.4250  176.0660  137.6420 C   0  0  0  0  0  3  0  0  0  0  0  0
  188.7210  177.6550  140.5080 C   0  0  2  0  0  3  0  0  0  0  0  0
  188.4670  179.0250  140.4220 O   0  0  0  0  0  1  0  0  0  0  0  0
  186.7610  177.9030  142.5290 N   0  0  0  0  0  2  0  0  0  0  0  0
  188.4490  176.9610  144.2070 C   0  0  0  0  0  1  0  0  0  0  0  0
  188.0780  177.4070  142.8340 C   0  0  0  0  0  0  0  0  0  0  0  0
  188.9630  177.2800  141.8960 N   0  0  0  0  0  0  0  0  0  0  0  0
  184.8770  178.6190  145.7000 C   0  0  0  0  0  0  0  0  0  0  0  0
  183.3880  178.8500  143.8050 C   0  0  0  0  0  3  0  0  0  0  0  0
  185.0880  178.6610  147.0370 F   0  0  0  0  0  0  0  0  0  0  0  0
  185.9250  178.2910  144.8360 C   0  0  0  0  0  3  0  0  0  0  0  0
  184.4360  178.5160  142.9420 C   0  0  0  0  0  3  0  0  0  0  0  0
  185.7100  178.2290  143.4510 C   0  0  0  0  0  0  0  0  0  0  0  0
  183.6090  178.9020  145.1850 C   0  0  0  0  0  3  0  0  0  0  0  0
  188.3910  176.9220  137.7190 C   0  0  1  0  0  3  0  0  0  0  0  0
  188.2960  177.9200  136.5700 C   0  0  0  0  0  2  0  0  0  0  0  0
  187.6560  179.1490  137.0130 N   0  0  0  0  0  2  0  0  0  0  0  0
  186.5480  178.7890  137.7060 O   0  0  0  0  0  1  0  0  0  0  0  0
  187.9410  175.5250  137.3170 C   0  0  0  0  0  2  0  0  0  0  0  0
  185.3680  175.5190  136.8740 C   0  0  0  0  0  1  0  0  0  0  0  0
  186.8640  175.6210  135.8570 S   0  0  0  0  0  0  0  0  0  0  0  0
  1  7  1  0  0  0  0
  2 10  1  0  0  0  0
  2  1  2  0  0  0  0
  3  6  2  0  0  0  0
  3  4  1  0  0  0  0
  4  2  1  0  0  0  0
  5  9  1  0  0  0  0
  6  8  1  0  0  0  0
  7  9  2  0  0  0  0
  7 12  1  0  0  0  0
  8 11  2  0  0  0  0
 10  5  2  0  0  0  0
 11 10  1  0  0  0  0
 12 13  1  1  0  0  0
 12 17  1  0  0  0  0
 14 16  1  0  0  0  0
 14 23  1  0  0  0  0
 16 15  1  0  0  0  0
 17 16  2  0  0  0  0
 18 20  1  0  0  0  0
 19 24  2  0  0  0  0
 21 18  2  0  0  0  0
 22 23  2  0  0  0  0
 22 19  1  0  0  0  0
 23 21  1  0  0  0  0
 24 18  1  0  0  0  0
 25 26  1  6  0  0  0
 25  1  1  0  0  0  0
 26 27  1  0  0  0  0
 27 28  1  0  0  0  0
 29 25  1  0  0  0  0
 31 30  1  0  0  0  0
 31 29  1  0  0  0  0
M  END
>  <MODEL>
1

>  <REMARK>
 VINA RESULT:      -7.8      0.000      0.000
  Name = 
  8 active torsions:
  status: ('A' for Active; 'I' for Inactive)
    1  A    between atoms: N_2  and  C_25
    2  A    between atoms: N_3  and  C_22
    3  A    between atoms: C_4  and  C_12
    4  A    between atoms: C_12  and  C_25
    5  A    between atoms: C_12  and  C_27
    6  A    between atoms: C_15  and  C_21
    7  A    between atoms: C_15  and  N_23
    8  A    between atoms: C_27  and  S_28
                            x       y       z     vdW  Elec       q    Type
                         _______ _______ _______ _____ _____    ______ ____

>  <TORSDO>
F 8

$$$$
=
 OpenBabel10272400173D

 31 33  0  0  1  0  0  0  0  0999 V2000
  190.2390  176.4210  137.6450 C   0  0  0  0  0  0  0  0  0  0  0  0
  191.0830  176.1750  136.5400 C   0  0  0  0  0  0  0  0  0  0  0  0
  190.8260  174.6440  134.6200 C   0  0  0  0  0  3  0  0  0  0  0  0
  190.5060  175.9920  135.1660 C   0  0  0  0  0  2  0  0  0  0  0  0
  192.9760  176.4630  137.9620 N   0  0  0  0  0  0  0  0  0  0  0  0
  192.0730  174.2600  134.3460 C   0  0  0  0  0  3  0  0  0  0  0  0
  190.8270  176.6700  138.8960 C   0  0  0  0  0  0  0  0  0  0  0  0
  193.2780  175.0610  134.6210 C   0  0  0  0  0  3  0  0  0  0  0  0
  192.1810  176.6980  139.0050 N   0  0  0  0  0  0  0  0  0  0  0  0
  192.4790  176.1740  136.7330 C   0  0  0  0  0  0  0  0  0  0  0  0
  193.4510  175.8940  135.6550 C   0  0  0  0  0  3  0  0  0  0  0  0
  189.9860  176.8610  140.1190 C   0  0  2  0  0  3  0  0  0  0  0  0
  189.7190  178.2170  140.3160 O   0  0  0  0  0  1  0  0  0  0  0  0
  188.9290  176.9810  142.7380 N   0  0  0  0  0  2  0  0  0  0  0  0
  191.0190  175.7650  143.5790 C   0  0  0  0  0  1  0  0  0  0  0  0
  190.2150  176.3840  142.4860 C   0  0  0  0  0  0  0  0  0  0  0  0
  190.6820  176.3170  141.2790 N   0  0  0  0  0  0  0  0  0  0  0  0
  188.4500  177.8490  146.3620 C   0  0  0  0  0  0  0  0  0  0  0  0
  186.2920  177.4870  145.3240 C   0  0  0  0  0  3  0  0  0  0  0  0
  189.1890  178.1490  147.4560 F   0  0  0  0  0  0  0  0  0  0  0  0
  189.0800  177.5820  145.1430 C   0  0  0  0  0  3  0  0  0  0  0  0
  186.9240  177.2150  144.1080 C   0  0  0  0  0  3  0  0  0  0  0  0
  188.3220  177.2550  144.0090 C   0  0  0  0  0  0  0  0  0  0  0  0
  187.0560  177.8050  146.4520 C   0  0  0  0  0  3  0  0  0  0  0  0
  188.7330  176.4250  137.5370 C   0  0  1  0  0  3  0  0  0  0  0  0
  188.2240  177.5980  136.7070 C   0  0  0  0  0  2  0  0  0  0  0  0
  187.9100  178.7310  137.5630 N   0  0  0  0  0  2  0  0  0  0  0  0
  188.8920  179.6470  137.3800 O   0  0  0  0  0  1  0  0  0  0  0  0
  188.2070  175.0860  137.0400 C   0  0  0  0  0  2  0  0  0  0  0  0
  186.2470  173.3850  137.3110 C   0  0  0  0  0  1  0  0  0  0  0  0
  186.3960  175.1450  136.9120 S   0  0  0  0  0  0  0  0  0  0  0  0
  1  7  1  0  0  0  0
  2 10  1  0  0  0  0
  2  1  2  0  0  0  0
  3  4  1  0  0  0  0
  4  2  1  0  0  0  0
  5  9  1  0  0  0  0
  6  3  2  0  0  0  0
  6  8  1  0  0  0  0
  7  9  2  0  0  0  0
  7 12  1  0  0  0  0
  8 11  2  0  0  0  0
 10  5  2  0  0  0  0
 11 10  1  0  0  0  0
 12 13  1  1  0  0  0
 12 17  1  0  0  0  0
 14 23  1  0  0  0  0
 16 14  1  0  0  0  0
 16 15  1  0  0  0  0
 17 16  2  0  0  0  0
 18 24  1  0  0  0  0
 18 20  1  0  0  0  0
 19 24  2  0  0  0  0
 21 18  2  0  0  0  0
 22 19  1  0  0  0  0
 23 22  2  0  0  0  0
 23 21  1  0  0  0  0
 25 26  1  6  0  0  0
 25  1  1  0  0  0  0
 26 27  1  0  0  0  0
 28 27  1  0  0  0  0
 29 25  1  0  0  0  0
 31 29  1  0  0  0  0
 31 30  1  0  0  0  0
M  END
>  <MODEL>
2

>  <REMARK>
 VINA RESULT:      -7.2      1.784      2.254
  Name = 
  8 active torsions:
  status: ('A' for Active; 'I' for Inactive)
    1  A    between atoms: N_2  and  C_25
    2  A    between atoms: N_3  and  C_22
    3  A    between atoms: C_4  and  C_12
    4  A    between atoms: C_12  and  C_25
    5  A    between atoms: C_12  and  C_27
    6  A    between atoms: C_15  and  C_21
    7  A    between atoms: C_15  and  N_23
    8  A    between atoms: C_27  and  S_28
                            x       y       z     vdW  Elec       q    Type
                         _______ _______ _______ _____ _____    ______ ____

>  <TORSDO>
F 8

$$$$
=
 OpenBabel10272400173D

 31 33  0  0  1  0  0  0  0  0999 V2000
  183.0430  177.5620  138.1920 C   0  0  0  0  0  0  0  0  0  0  0  0
  182.8740  176.5560  137.2150 C   0  0  0  0  0  0  0  0  0  0  0  0
  181.3370  174.6260  137.1330 C   0  0  0  0  0  3  0  0  0  0  0  0
  181.5000  176.0780  136.8440 C   0  0  0  0  0  2  0  0  0  0  0  0
  185.2240  176.5960  136.8110 N   0  0  0  0  0  0  0  0  0  0  0  0
  182.0340  173.6860  136.4960 C   0  0  0  0  0  3  0  0  0  0  0  0
  184.3400  178.0380  138.4460 C   0  0  0  0  0  0  0  0  0  0  0  0
  183.0950  173.9510  135.5090 C   0  0  0  0  0  3  0  0  0  0  0  0
  185.3850  177.5460  137.7310 N   0  0  0  0  0  0  0  0  0  0  0  0
  184.0080  176.0590  136.5430 C   0  0  0  0  0  0  0  0  0  0  0  0
  183.9480  174.9840  135.5290 C   0  0  0  0  0  3  0  0  0  0  0  0
  184.5930  179.0470  139.5220 C   0  0  2  0  0  3  0  0  0  0  0  0
  184.3980  180.3390  139.0310 O   0  0  0  0  0  1  0  0  0  0  0  0
  185.2010  178.5200  142.2320 N   0  0  0  0  0  2  0  0  0  0  0  0
  187.6870  178.5280  141.6210 C   0  0  0  0  0  1  0  0  0  0  0  0
  186.2490  178.6790  141.2580 C   0  0  0  0  0  0  0  0  0  0  0  0
  185.9580  178.9020  140.0140 N   0  0  0  0  0  0  0  0  0  0  0  0
  186.5440  177.6900  145.6410 C   0  0  0  0  0  0  0  0  0  0  0  0
  184.4360  178.8590  145.8660 C   0  0  0  0  0  3  0  0  0  0  0  0
  187.6110  177.0760  146.2080 F   0  0  0  0  0  0  0  0  0  0  0  0
  186.4460  177.7800  144.2500 C   0  0  0  0  0  3  0  0  0  0  0  0
  184.3360  178.9430  144.4740 C   0  0  0  0  0  3  0  0  0  0  0  0
  185.3370  178.4010  143.6560 C   0  0  0  0  0  0  0  0  0  0  0  0
  185.5420  178.2330  146.4500 C   0  0  0  0  0  3  0  0  0  0  0  0
  181.8900  178.1420  138.9740 C   0  0  1  0  0  3  0  0  0  0  0  0
  180.8630  178.8090  138.0660 C   0  0  0  0  0  2  0  0  0  0  0  0
  181.2440  180.1850  137.7890 N   0  0  0  0  0  2  0  0  0  0  0  0
  180.9920  180.8980  138.9130 O   0  0  0  0  0  1  0  0  0  0  0  0
  181.2670  177.1060  139.8980 C   0  0  0  0  0  2  0  0  0  0  0  0
  181.5480  178.8480  141.8220 C   0  0  0  0  0  1  0  0  0  0  0  0
  180.1700  177.9260  141.0920 S   0  0  0  0  0  0  0  0  0  0  0  0
  1  7  1  0  0  0  0
  1 25  1  0  0  0  0
  2  1  2  0  0  0  0
  4  3  1  0  0  0  0
  4  2  1  0  0  0  0
  5  9  1  0  0  0  0
  6  3  2  0  0  0  0
  7 12  1  0  0  0  0
  8 11  2  0  0  0  0
  8  6  1  0  0  0  0
  9  7  2  0  0  0  0
 10  5  2  0  0  0  0
 10  2  1  0  0  0  0
 11 10  1  0  0  0  0
 12 13  1  6  0  0  0
 12 17  1  0  0  0  0
 14 23  1  0  0  0  0
 16 15  1  0  0  0  0
 16 14  1  0  0  0  0
 17 16  2  0  0  0  0
 18 20  1  0  0  0  0
 18 24  1  0  0  0  0
 19 24  2  0  0  0  0
 21 18  2  0  0  0  0
 22 19  1  0  0  0  0
 23 21  1  0  0  0  0
 23 22  2  0  0  0  0
 25 26  1  6  0  0  0
 25 29  1  0  0  0  0
 27 26  1  0  0  0  0
 27 28  1  0  0  0  0
 29 31  1  0  0  0  0
 31 30  1  0  0  0  0
M  END
>  <MODEL>
3

>  <REMARK>
 VINA RESULT:      -7.1      4.668      6.431
  Name = 
  8 active torsions:
  status: ('A' for Active; 'I' for Inactive)
    1  A    between atoms: N_2  and  C_25
    2  A    between atoms: N_3  and  C_22
    3  A    between atoms: C_4  and  C_12
    4  A    between atoms: C_12  and  C_25
    5  A    between atoms: C_12  and  C_27
    6  A    between atoms: C_15  and  C_21
    7  A    between atoms: C_15  and  N_23
    8  A    between atoms: C_27  and  S_28
                            x       y       z     vdW  Elec       q    Type
                         _______ _______ _______ _____ _____    ______ ____

>  <TORSDO>
F 8

$$$$
=
 OpenBabel10272400173D

 31 33  0  0  1  0  0  0  0  0999 V2000
  186.8800  178.1300  143.9930 C   0  0  0  0  0  0  0  0  0  0  0  0
  187.3840  178.2010  145.3100 C   0  0  0  0  0  0  0  0  0  0  0  0
  188.9330  176.7150  146.5300 C   0  0  0  0  0  3  0  0  0  0  0  0
  188.8200  177.8690  145.5950 C   0  0  0  0  0  2  0  0  0  0  0  0
  185.2830  179.0670  146.0350 N   0  0  0  0  0  0  0  0  0  0  0  0
  188.5050  176.7700  147.7910 C   0  0  0  0  0  3  0  0  0  0  0  0
  185.5540  178.5320  143.7610 C   0  0  0  0  0  0  0  0  0  0  0  0
  187.8030  177.9170  148.3900 C   0  0  0  0  0  3  0  0  0  0  0  0
  184.8060  179.0030  144.7930 N   0  0  0  0  0  0  0  0  0  0  0  0
  186.5390  178.6570  146.3420 C   0  0  0  0  0  0  0  0  0  0  0  0
  186.9530  178.7380  147.7590 C   0  0  0  0  0  3  0  0  0  0  0  0
  184.9380  178.4070  142.4020 C   0  0  2  0  0  3  0  0  0  0  0  0
  185.3040  179.4910  141.6030 O   0  0  0  0  0  1  0  0  0  0  0  0
  183.1930  178.7090  140.1990 N   0  0  0  0  0  2  0  0  0  0  0  0
  181.2140  178.3980  141.7930 C   0  0  0  0  0  1  0  0  0  0  0  0
  182.6770  178.5050  141.5280 C   0  0  0  0  0  0  0  0  0  0  0  0
  183.4870  178.3500  142.5280 N   0  0  0  0  0  0  0  0  0  0  0  0
  181.3430  180.6060  137.5360 C   0  0  0  0  0  0  0  0  0  0  0  0
  181.4410  178.2620  136.9380 C   0  0  0  0  0  3  0  0  0  0  0  0
  180.9460  181.8710  137.2580 F   0  0  0  0  0  0  0  0  0  0  0  0
  182.0540  180.3370  138.7080 C   0  0  0  0  0  3  0  0  0  0  0  0
  182.1480  177.9940  138.1140 C   0  0  0  0  0  3  0  0  0  0  0  0
  182.4550  179.0270  139.0100 C   0  0  0  0  0  0  0  0  0  0  0  0
  181.0390  179.5700  136.6480 C   0  0  0  0  0  3  0  0  0  0  0  0
  187.7050  177.6390  142.8280 C   0  0  1  0  0  3  0  0  0  0  0  0
  188.6430  178.7180  142.3000 C   0  0  0  0  0  2  0  0  0  0  0  0
  188.1940  179.1950  141.0020 N   0  0  0  0  0  2  0  0  0  0  0  0
  188.0100  178.1010  140.2220 O   0  0  0  0  0  1  0  0  0  0  0  0
  188.4330  176.3470  143.1670 C   0  0  0  0  0  2  0  0  0  0  0  0
  190.9480  175.8390  143.6490 C   0  0  0  0  0  1  0  0  0  0  0  0
  189.9550  176.2220  142.1830 S   0  0  0  0  0  0  0  0  0  0  0  0
  1  2  1  0  0  0  0
  2  4  1  0  0  0  0
  2 10  2  0  0  0  0
  3  6  2  0  0  0  0
  4  3  1  0  0  0  0
  5 10  1  0  0  0  0
  6  8  1  0  0  0  0
  7  1  2  0  0  0  0
  7  9  1  0  0  0  0
  9  5  2  0  0  0  0
 10 11  1  0  0  0  0
 11  8  2  0  0  0  0
 12 13  1  6  0  0  0
 12 17  1  0  0  0  0
 12  7  1  0  0  0  0
 14 16  1  0  0  0  0
 16 15  1  0  0  0  0
 16 17  2  0  0  0  0
 18 21  1  0  0  0  0
 19 22  2  0  0  0  0
 20 18  1  0  0  0  0
 21 23  2  0  0  0  0
 22 23  1  0  0  0  0
 23 14  1  0  0  0  0
 24 19  1  0  0  0  0
 24 18  2  0  0  0  0
 25 26  1  1  0  0  0
 25 29  1  0  0  0  0
 25  1  1  0  0  0  0
 27 26  1  0  0  0  0
 28 27  1  0  0  0  0
 31 29  1  0  0  0  0
 31 30  1  0  0  0  0
M  END
>  <MODEL>
4

>  <REMARK>
 VINA RESULT:      -7.1      4.892      8.017
  Name = 
  8 active torsions:
  status: ('A' for Active; 'I' for Inactive)
    1  A    between atoms: N_2  and  C_25
    2  A    between atoms: N_3  and  C_22
    3  A    between atoms: C_4  and  C_12
    4  A    between atoms: C_12  and  C_25
    5  A    between atoms: C_12  and  C_27
    6  A    between atoms: C_15  and  C_21
    7  A    between atoms: C_15  and  N_23
    8  A    between atoms: C_27  and  S_28
                            x       y       z     vdW  Elec       q    Type
                         _______ _______ _______ _____ _____    ______ ____

>  <TORSDO>
F 8

$$$$
=
 OpenBabel10272400173D

 31 33  0  0  1  0  0  0  0  0999 V2000
  189.1050  175.9560  137.4810 C   0  0  0  0  0  0  0  0  0  0  0  0
  189.4250  175.0190  136.4740 C   0  0  0  0  0  0  0  0  0  0  0  0
  187.9800  173.5270  135.1390 C   0  0  0  0  0  3  0  0  0  0  0  0
  188.5650  174.8920  135.2500 C   0  0  0  0  0  2  0  0  0  0  0  0
  191.4230  174.4760  137.6570 N   0  0  0  0  0  0  0  0  0  0  0  0
  188.7280  172.4400  134.9490 C   0  0  0  0  0  3  0  0  0  0  0  0
  189.9850  176.1000  138.5660 C   0  0  0  0  0  0  0  0  0  0  0  0
  190.2000  172.4300  134.9110 C   0  0  0  0  0  3  0  0  0  0  0  0
  191.1250  175.3610  138.6060 N   0  0  0  0  0  0  0  0  0  0  0  0
  190.6010  174.2530  136.6010 C   0  0  0  0  0  0  0  0  0  0  0  0
  191.0110  173.2210  135.6260 C   0  0  0  0  0  3  0  0  0  0  0  0
  189.6640  177.0200  139.7020 C   0  0  2  0  0  3  0  0  0  0  0  0
  190.1010  178.3150  139.4150 O   0  0  0  0  0  1  0  0  0  0  0  0
  188.4470  177.1810  142.2480 N   0  0  0  0  0  2  0  0  0  0  0  0
  190.5210  176.0650  143.2510 C   0  0  0  0  0  1  0  0  0  0  0  0
  189.7650  176.6220  142.0930 C   0  0  0  0  0  0  0  0  0  0  0  0
  190.3060  176.5360  140.9180 N   0  0  0  0  0  0  0  0  0  0  0  0
  187.7030  177.8030  145.8780 C   0  0  0  0  0  0  0  0  0  0  0  0
  185.6720  178.0470  144.5830 C   0  0  0  0  0  3  0  0  0  0  0  0
  188.3420  177.8230  147.0720 F   0  0  0  0  0  0  0  0  0  0  0  0
  188.4120  177.5090  144.7100 C   0  0  0  0  0  3  0  0  0  0  0  0
  186.3820  177.7480  143.4160 C   0  0  0  0  0  3  0  0  0  0  0  0
  187.7540  177.4720  143.4710 C   0  0  0  0  0  0  0  0  0  0  0  0
  186.3340  178.0760  145.8150 C   0  0  0  0  0  3  0  0  0  0  0  0
  187.8600  176.8080  137.4380 C   0  0  1  0  0  3  0  0  0  0  0  0
  187.9330  177.8720  136.3490 C   0  0  0  0  0  2  0  0  0  0  0  0
  188.2000  179.1780  136.9300 N   0  0  0  0  0  2  0  0  0  0  0  0
  187.1590  179.9790  136.5950 O   0  0  0  0  0  1  0  0  0  0  0  0
  186.6050  175.9530  137.3340 C   0  0  0  0  0  2  0  0  0  0  0  0
  184.7860  177.6730  138.0720 C   0  0  0  0  0  1  0  0  0  0  0  0
  185.2850  176.8940  136.5150 S   0  0  0  0  0  0  0  0  0  0  0  0
  1  7  1  0  0  0  0
  2 10  1  0  0  0  0
  2  1  2  0  0  0  0
  3  4  1  0  0  0  0
  4  2  1  0  0  0  0
  5  9  1  0  0  0  0
  6  3  2  0  0  0  0
  7  9  2  0  0  0  0
  7 12  1  0  0  0  0
  8  6  1  0  0  0  0
  8 11  2  0  0  0  0
 10  5  2  0  0  0  0
 11 10  1  0  0  0  0
 12 13  1  6  0  0  0
 12 17  1  0  0  0  0
 14 23  1  0  0  0  0
 16 14  1  0  0  0  0
 16 15  1  0  0  0  0
 17 16  2  0  0  0  0
 18 20  1  0  0  0  0
 19 24  2  0  0  0  0
 21 18  2  0  0  0  0
 22 23  2  0  0  0  0
 22 19  1  0  0  0  0
 23 21  1  0  0  0  0
 24 18  1  0  0  0  0
 25 26  1  6  0  0  0
 25  1  1  0  0  0  0
 26 27  1  0  0  0  0
 28 27  1  0  0  0  0
 29 25  1  0  0  0  0
 31 29  1  0  0  0  0
 31 30  1  0  0  0  0
M  END
>  <MODEL>
5

>  <REMARK>
 VINA RESULT:      -6.9      1.879      2.586
  Name = 
  8 active torsions:
  status: ('A' for Active; 'I' for Inactive)
    1  A    between atoms: N_2  and  C_25
    2  A    between atoms: N_3  and  C_22
    3  A    between atoms: C_4  and  C_12
    4  A    between atoms: C_12  and  C_25
    5  A    between atoms: C_12  and  C_27
    6  A    between atoms: C_15  and  C_21
    7  A    between atoms: C_15  and  N_23
    8  A    between atoms: C_27  and  S_28
                            x       y       z     vdW  Elec       q    Type
                         _______ _______ _______ _____ _____    ______ ____

>  <TORSDO>
F 8

$$$$
=
 OpenBabel10272400173D

 31 33  0  0  1  0  0  0  0  0999 V2000
  189.5740  177.6770  139.7930 C   0  0  0  0  0  0  0  0  0  0  0  0
  189.4910  177.5630  141.1980 C   0  0  0  0  0  0  0  0  0  0  0  0
  190.3300  175.8170  142.7290 C   0  0  0  0  0  3  0  0  0  0  0  0
  190.6640  177.0680  141.9930 C   0  0  0  0  0  2  0  0  0  0  0  0
  187.3180  178.5420  141.1180 N   0  0  0  0  0  0  0  0  0  0  0  0
  189.4210  175.7800  143.7030 C   0  0  0  0  0  3  0  0  0  0  0  0
  188.4820  178.2250  139.0990 C   0  0  0  0  0  0  0  0  0  0  0  0
  188.5850  176.9190  144.1150 C   0  0  0  0  0  3  0  0  0  0  0  0
  187.3960  178.6540  139.7930 N   0  0  0  0  0  0  0  0  0  0  0  0
  188.3150  177.9860  141.8500 C   0  0  0  0  0  0  0  0  0  0  0  0
  188.1090  177.8780  143.3100 C   0  0  0  0  0  3  0  0  0  0  0  0
  188.4800  178.3020  137.6040 C   0  0  2  0  0  3  0  0  0  0  0  0
  189.0630  179.4970  137.1800 O   0  0  0  0  0  1  0  0  0  0  0  0
  187.1960  175.8430  137.0580 N   0  0  0  0  0  2  0  0  0  0  0  0
  185.1040  177.1490  136.3730 C   0  0  0  0  0  1  0  0  0  0  0  0
  186.5170  177.0950  136.8440 C   0  0  0  0  0  0  0  0  0  0  0  0
  187.1090  178.2160  137.1150 N   0  0  0  0  0  0  0  0  0  0  0  0
  185.2910  172.6060  136.9790 C   0  0  0  0  0  0  0  0  0  0  0  0
  186.9600  172.6050  135.2250 C   0  0  0  0  0  3  0  0  0  0  0  0
  184.2860  171.9850  137.6430 F   0  0  0  0  0  0  0  0  0  0  0  0
  185.7010  173.8850  137.3680 C   0  0  0  0  0  3  0  0  0  0  0  0
  187.3720  173.8810  135.6190 C   0  0  0  0  0  3  0  0  0  0  0  0
  186.7500  174.5280  136.6950 C   0  0  0  0  0  0  0  0  0  0  0  0
  185.9170  171.9680  135.9060 C   0  0  0  0  0  3  0  0  0  0  0  0
  190.7860  177.2350  139.0080 C   0  0  1  0  0  3  0  0  0  0  0  0
  192.0860  177.5810  139.7240 C   0  0  0  0  0  2  0  0  0  0  0  0
  193.2150  176.9400  139.0690 N   0  0  0  0  0  2  0  0  0  0  0  0
  194.2380  176.9390  139.9580 O   0  0  0  0  0  1  0  0  0  0  0  0
  190.6990  175.7630  138.6340 C   0  0  0  0  0  2  0  0  0  0  0  0
  191.8970  174.1150  137.0020 C   0  0  0  0  0  1  0  0  0  0  0  0
  190.8410  175.5770  136.8320 S   0  0  0  0  0  0  0  0  0  0  0  0
  1  2  1  0  0  0  0
  2 10  2  0  0  0  0
  2  4  1  0  0  0  0
  3  6  2  0  0  0  0
  4  3  1  0  0  0  0
  5 10  1  0  0  0  0
  6  8  1  0  0  0  0
  7  9  1  0  0  0  0
  7  1  2  0  0  0  0
  9  5  2  0  0  0  0
 10 11  1  0  0  0  0
 11  8  2  0  0  0  0
 12 13  1  1  0  0  0
 12  7  1  0  0  0  0
 15 16  1  0  0  0  0
 16 14  1  0  0  0  0
 16 17  2  0  0  0  0
 17 12  1  0  0  0  0
 18 21  1  0  0  0  0
 18 20  1  0  0  0  0
 19 22  2  0  0  0  0
 19 24  1  0  0  0  0
 22 23  1  0  0  0  0
 23 14  1  0  0  0  0
 23 21  2  0  0  0  0
 24 18  2  0  0  0  0
 25 29  1  1  0  0  0
 25 26  1  0  0  0  0
 25  1  1  0  0  0  0
 27 26  1  0  0  0  0
 27 28  1  0  0  0  0
 31 30  1  0  0  0  0
 31 29  1  0  0  0  0
M  END
>  <MODEL>
6

>  <REMARK>
 VINA RESULT:      -6.9      3.176      7.022
  Name = 
  8 active torsions:
  status: ('A' for Active; 'I' for Inactive)
    1  A    between atoms: N_2  and  C_25
    2  A    between atoms: N_3  and  C_22
    3  A    between atoms: C_4  and  C_12
    4  A    between atoms: C_12  and  C_25
    5  A    between atoms: C_12  and  C_27
    6  A    between atoms: C_15  and  C_21
    7  A    between atoms: C_15  and  N_23
    8  A    between atoms: C_27  and  S_28
                            x       y       z     vdW  Elec       q    Type
                         _______ _______ _______ _____ _____    ______ ____

>  <TORSDO>
F 8

$$$$
=
 OpenBabel10272400173D

 31 33  0  0  1  0  0  0  0  0999 V2000
  190.7920  176.4100  137.4970 C   0  0  0  0  0  0  0  0  0  0  0  0
  191.8150  176.1340  136.5630 C   0  0  0  0  0  0  0  0  0  0  0  0
  191.9140  174.5050  134.7100 C   0  0  0  0  0  3  0  0  0  0  0  0
  191.4820  175.8690  135.1240 C   0  0  0  0  0  2  0  0  0  0  0  0
  193.4350  176.5420  138.2640 N   0  0  0  0  0  0  0  0  0  0  0  0
  193.1960  174.1410  134.6700 C   0  0  0  0  0  3  0  0  0  0  0  0
  191.1560  176.7360  138.8130 C   0  0  0  0  0  0  0  0  0  0  0  0
  194.3220  174.9870  135.1000 C   0  0  0  0  0  3  0  0  0  0  0  0
  192.4720  176.8060  139.1460 N   0  0  0  0  0  0  0  0  0  0  0  0
  193.1580  176.1800  136.9880 C   0  0  0  0  0  0  0  0  0  0  0  0
  194.3030  175.8740  136.1030 C   0  0  0  0  0  3  0  0  0  0  0  0
  190.1170  176.9640  139.8660 C   0  0  2  0  0  3  0  0  0  0  0  0
  189.7360  178.3070  139.8880 O   0  0  0  0  0  1  0  0  0  0  0  0
  188.6150  177.1430  142.2540 N   0  0  0  0  0  2  0  0  0  0  0  0
  190.6320  176.2180  143.5300 C   0  0  0  0  0  1  0  0  0  0  0  0
  189.9750  176.6720  142.2710 C   0  0  0  0  0  0  0  0  0  0  0  0
  190.6490  176.5770  141.1670 N   0  0  0  0  0  0  0  0  0  0  0  0
  185.6260  178.0300  144.3510 C   0  0  0  0  0  0  0  0  0  0  0  0
  187.5330  177.6290  145.7890 C   0  0  0  0  0  3  0  0  0  0  0  0
  184.3210  178.3590  144.1990 F   0  0  0  0  0  0  0  0  0  0  0  0
  186.4160  177.7600  143.2300 C   0  0  0  0  0  3  0  0  0  0  0  0
  188.3220  177.3650  144.6650 C   0  0  0  0  0  3  0  0  0  0  0  0
  187.7720  177.4340  143.3790 C   0  0  0  0  0  0  0  0  0  0  0  0
  186.1830  177.9610  145.6310 C   0  0  0  0  0  3  0  0  0  0  0  0
  189.3260  176.3690  137.1380 C   0  0  1  0  0  3  0  0  0  0  0  0
  188.9710  177.3980  136.0710 C   0  0  0  0  0  2  0  0  0  0  0  0
  189.0380  178.7430  136.6170 N   0  0  0  0  0  2  0  0  0  0  0  0
  187.7750  179.0900  136.9680 O   0  0  0  0  0  1  0  0  0  0  0  0
  188.8850  174.9620  136.7610 C   0  0  0  0  0  2  0  0  0  0  0  0
  186.2900  175.0580  137.0210 C   0  0  0  0  0  1  0  0  0  0  0  0
  187.4600  175.0430  135.6380 S   0  0  0  0  0  0  0  0  0  0  0  0
  1  7  1  0  0  0  0
  2 10  1  0  0  0  0
  2  1  2  0  0  0  0
  3  4  1  0  0  0  0
  4  2  1  0  0  0  0
  5  9  1  0  0  0  0
  6  3  2  0  0  0  0
  6  8  1  0  0  0  0
  7  9  2  0  0  0  0
  7 12  1  0  0  0  0
  8 11  2  0  0  0  0
 10  5  2  0  0  0  0
 11 10  1  0  0  0  0
 12 13  1  1  0  0  0
 12 17  1  0  0  0  0
 14 16  1  0  0  0  0
 14 23  1  0  0  0  0
 16 15  1  0  0  0  0
 17 16  2  0  0  0  0
 18 24  1  0  0  0  0
 20 18  1  0  0  0  0
 21 23  1  0  0  0  0
 21 18  2  0  0  0  0
 22 19  1  0  0  0  0
 23 22  2  0  0  0  0
 24 19  2  0  0  0  0
 25 26  1  6  0  0  0
 25  1  1  0  0  0  0
 26 27  1  0  0  0  0
 27 28  1  0  0  0  0
 29 25  1  0  0  0  0
 31 29  1  0  0  0  0
 31 30  1  0  0  0  0
M  END
>  <MODEL>
7

>  <REMARK>
 VINA RESULT:      -6.9      1.397      2.058
  Name = 
  8 active torsions:
  status: ('A' for Active; 'I' for Inactive)
    1  A    between atoms: N_2  and  C_25
    2  A    between atoms: N_3  and  C_22
    3  A    between atoms: C_4  and  C_12
    4  A    between atoms: C_12  and  C_25
    5  A    between atoms: C_12  and  C_27
    6  A    between atoms: C_15  and  C_21
    7  A    between atoms: C_15  and  N_23
    8  A    between atoms: C_27  and  S_28
                            x       y       z     vdW  Elec       q    Type
                         _______ _______ _______ _____ _____    ______ ____

>  <TORSDO>
F 8

$$$$
=
 OpenBabel10272400173D

 31 33  0  0  1  0  0  0  0  0999 V2000
  187.2660  178.1580  140.1790 C   0  0  0  0  0  0  0  0  0  0  0  0
  188.0940  177.9320  141.3000 C   0  0  0  0  0  0  0  0  0  0  0  0
  189.9230  176.3120  141.6580 C   0  0  0  0  0  3  0  0  0  0  0  0
  189.5580  177.6540  141.1230 C   0  0  0  0  0  2  0  0  0  0  0  0
  186.2430  178.4140  142.7250 N   0  0  0  0  0  0  0  0  0  0  0  0
  189.8360  176.0100  142.9530 C   0  0  0  0  0  3  0  0  0  0  0  0
  185.9210  178.4990  140.3970 C   0  0  0  0  0  0  0  0  0  0  0  0
  189.3010  176.9070  143.9900 C   0  0  0  0  0  3  0  0  0  0  0  0
  185.4610  178.6300  141.6680 N   0  0  0  0  0  0  0  0  0  0  0  0
  187.5400  178.0410  142.5920 C   0  0  0  0  0  0  0  0  0  0  0  0
  188.3070  177.7910  143.8310 C   0  0  0  0  0  3  0  0  0  0  0  0
  184.9750  178.6750  139.2500 C   0  0  2  0  0  3  0  0  0  0  0  0
  184.7370  180.0320  139.0230 O   0  0  0  0  0  1  0  0  0  0  0  0
  184.2020  176.2730  137.9760 N   0  0  0  0  0  2  0  0  0  0  0  0
  182.0510  176.2930  139.3650 C   0  0  0  0  0  1  0  0  0  0  0  0
  183.3480  176.9010  138.9520 C   0  0  0  0  0  0  0  0  0  0  0  0
  183.7210  177.9920  139.5430 N   0  0  0  0  0  0  0  0  0  0  0  0
  183.8990  172.7640  136.6670 C   0  0  0  0  0  0  0  0  0  0  0  0
  182.9170  174.3070  135.0800 C   0  0  0  0  0  3  0  0  0  0  0  0
  184.2240  171.4990  137.0250 F   0  0  0  0  0  0  0  0  0  0  0  0
  184.2180  173.8340  137.5090 C   0  0  0  0  0  3  0  0  0  0  0  0
  183.2420  175.3760  135.9210 C   0  0  0  0  0  3  0  0  0  0  0  0
  183.8990  175.1480  137.1380 C   0  0  0  0  0  0  0  0  0  0  0  0
  183.2460  173.0000  135.4550 C   0  0  0  0  0  3  0  0  0  0  0  0
  187.7670  178.0480  138.7590 C   0  0  1  0  0  3  0  0  0  0  0  0
  189.0390  178.8570  138.5380 C   0  0  0  0  0  2  0  0  0  0  0  0
  188.8750  179.7710  137.4190 N   0  0  0  0  0  2  0  0  0  0  0  0
  187.6140  179.6010  136.9530 O   0  0  0  0  0  1  0  0  0  0  0  0
  187.9180  176.5940  138.3340 C   0  0  0  0  0  2  0  0  0  0  0  0
  188.8320  176.2360  135.9150 C   0  0  0  0  0  1  0  0  0  0  0  0
  189.5490  176.3420  137.5750 S   0  0  0  0  0  0  0  0  0  0  0  0
  1  7  2  0  0  0  0
  1  2  1  0  0  0  0
  2 10  2  0  0  0  0
  3  6  2  0  0  0  0
  4  2  1  0  0  0  0
  4  3  1  0  0  0  0
  6  8  1  0  0  0  0
  7  9  1  0  0  0  0
  9  5  2  0  0  0  0
 10  5  1  0  0  0  0
 10 11  1  0  0  0  0
 11  8  2  0  0  0  0
 12 13  1  1  0  0  0
 12 17  1  0  0  0  0
 12  7  1  0  0  0  0
 14 16  1  0  0  0  0
 16 15  1  0  0  0  0
 16 17  2  0  0  0  0
 18 20  1  0  0  0  0
 18 21  1  0  0  0  0
 19 24  1  0  0  0  0
 19 22  2  0  0  0  0
 22 23  1  0  0  0  0
 23 21  2  0  0  0  0
 23 14  1  0  0  0  0
 24 18  2  0  0  0  0
 25 29  1  1  0  0  0
 25  1  1  0  0  0  0
 26 25  1  0  0  0  0
 27 26  1  0  0  0  0
 28 27  1  0  0  0  0
 30 31  1  0  0  0  0
 31 29  1  0  0  0  0
M  END
>  <MODEL>
8

>  <REMARK>
 VINA RESULT:      -6.8      3.715      6.640
  Name = 
  8 active torsions:
  status: ('A' for Active; 'I' for Inactive)
    1  A    between atoms: N_2  and  C_25
    2  A    between atoms: N_3  and  C_22
    3  A    between atoms: C_4  and  C_12
    4  A    between atoms: C_12  and  C_25
    5  A    between atoms: C_12  and  C_27
    6  A    between atoms: C_15  and  C_21
    7  A    between atoms: C_15  and  N_23
    8  A    between atoms: C_27  and  S_28
                            x       y       z     vdW  Elec       q    Type
                         _______ _______ _______ _____ _____    ______ ____

>  <TORSDO>
F 8

$$$$
=
 OpenBabel10272400173D

 31 33  0  0  1  0  0  0  0  0999 V2000
  186.4830  178.2070  142.9970 C   0  0  0  0  0  0  0  0  0  0  0  0
  186.7720  178.3920  144.3670 C   0  0  0  0  0  0  0  0  0  0  0  0
  188.1150  177.0340  145.9320 C   0  0  0  0  0  3  0  0  0  0  0  0
  188.1460  178.1080  144.9000 C   0  0  0  0  0  2  0  0  0  0  0  0
  184.5800  179.2770  144.6790 N   0  0  0  0  0  0  0  0  0  0  0  0
  187.4930  177.1830  147.1020 C   0  0  0  0  0  3  0  0  0  0  0  0
  185.2090  178.5660  142.5280 C   0  0  0  0  0  0  0  0  0  0  0  0
  186.7010  178.3620  147.4880 C   0  0  0  0  0  3  0  0  0  0  0  0
  184.3050  179.1060  143.3870 N   0  0  0  0  0  0  0  0  0  0  0  0
  185.7730  178.9150  145.2130 C   0  0  0  0  0  0  0  0  0  0  0  0
  185.9580  179.1150  146.6650 C   0  0  0  0  0  3  0  0  0  0  0  0
  184.8160  178.3230  141.1040 C   0  0  2  0  0  3  0  0  0  0  0  0
  184.9730  179.4880  140.3520 O   0  0  0  0  0  1  0  0  0  0  0  0
  183.6910  177.0690  138.8340 N   0  0  0  0  0  2  0  0  0  0  0  0
  181.4710  176.8940  140.0970 C   0  0  0  0  0  1  0  0  0  0  0  0
  182.8970  177.3210  140.0080 C   0  0  0  0  0  0  0  0  0  0  0  0
  183.4280  177.8800  141.0500 N   0  0  0  0  0  0  0  0  0  0  0  0
  182.7700  174.7870  135.9950 C   0  0  0  0  0  0  0  0  0  0  0  0
  182.3430  177.0840  135.3570 C   0  0  0  0  0  3  0  0  0  0  0  0
  182.7620  173.4660  135.6950 F   0  0  0  0  0  0  0  0  0  0  0  0
  183.2190  175.2190  137.2460 C   0  0  0  0  0  3  0  0  0  0  0  0
  182.7980  177.5140  136.6070 C   0  0  0  0  0  3  0  0  0  0  0  0
  183.2440  176.5860  137.5580 C   0  0  0  0  0  0  0  0  0  0  0  0
  182.3280  175.7190  135.0510 C   0  0  0  0  0  3  0  0  0  0  0  0
  187.4840  177.6390  142.0210 C   0  0  1  0  0  3  0  0  0  0  0  0
  188.2910  178.7320  141.3310 C   0  0  0  0  0  2  0  0  0  0  0  0
  188.0710  178.6990  139.8940 N   0  0  0  0  0  2  0  0  0  0  0  0
  189.2920  178.7380  139.3070 O   0  0  0  0  0  1  0  0  0  0  0  0
  188.3660  176.5870  142.6770 C   0  0  0  0  0  2  0  0  0  0  0  0
  190.7970  176.0200  143.4390 C   0  0  0  0  0  1  0  0  0  0  0  0
  190.0140  176.6020  141.9130 S   0  0  0  0  0  0  0  0  0  0  0  0
  1  2  1  0  0  0  0
  2  4  1  0  0  0  0
  2 10  2  0  0  0  0
  3  6  2  0  0  0  0
  4  3  1  0  0  0  0
  5 10  1  0  0  0  0
  6  8  1  0  0  0  0
  7  1  2  0  0  0  0
  7  9  1  0  0  0  0
  9  5  2  0  0  0  0
 10 11  1  0  0  0  0
 11  8  2  0  0  0  0
 12 13  1  6  0  0  0
 12  7  1  0  0  0  0
 14 16  1  0  0  0  0
 16 15  1  0  0  0  0
 16 17  2  0  0  0  0
 17 12  1  0  0  0  0
 18 21  1  0  0  0  0
 19 22  2  0  0  0  0
 20 18  1  0  0  0  0
 21 23  2  0  0  0  0
 22 23  1  0  0  0  0
 23 14  1  0  0  0  0
 24 19  1  0  0  0  0
 24 18  2  0  0  0  0
 25 26  1  1  0  0  0
 25 29  1  0  0  0  0
 25  1  1  0  0  0  0
 27 26  1  0  0  0  0
 28 27  1  0  0  0  0
 31 29  1  0  0  0  0
 31 30  1  0  0  0  0
M  END
>  <MODEL>
9

>  <REMARK>
 VINA RESULT:      -6.6      4.698      8.184
  Name = 
  8 active torsions:
  status: ('A' for Active; 'I' for Inactive)
    1  A    between atoms: N_2  and  C_25
    2  A    between atoms: N_3  and  C_22
    3  A    between atoms: C_4  and  C_12
    4  A    between atoms: C_12  and  C_25
    5  A    between atoms: C_12  and  C_27
    6  A    between atoms: C_15  and  C_21
    7  A    between atoms: C_15  and  N_23
    8  A    between atoms: C_27  and  S_28
                            x       y       z     vdW  Elec       q    Type
                         _______ _______ _______ _____ _____    ______ ____

>  <TORSDO>
F 8

$$$$
