=
 OpenBabel10272400583D

 27 31  0  0  1  0  0  0  0  0999 V2000
  190.5330  178.7320  143.8390 C   0  0  0  0  0  2  0  0  0  0  0  0
  188.5240  177.9600  145.0320 C   0  0  0  0  0  0  0  0  0  0  0  0
  187.9880  177.8370  142.5910 O   0  0  0  0  0  0  0  0  0  0  0  0
  184.3820  178.3590  145.8750 C   0  0  0  0  0  3  0  0  0  0  0  0
  183.9210  179.1010  143.5740 C   0  0  0  0  0  2  0  0  0  0  0  0
  188.0470  178.0080  146.3050 N   0  0  0  0  0  0  0  0  0  0  0  0
  185.2050  178.4030  143.1050 C   0  0  1  0  0  3  0  0  0  0  0  0
  190.4350  176.7620  140.0510 C   0  0  0  0  0  0  0  0  0  0  0  0
  185.6970  179.1790  141.8950 C   0  0  0  0  0  1  0  0  0  0  0  0
  190.4090  175.9610  138.4940 Cl  0  0  0  0  0  0  0  0  0  0  0  0
  186.2540  178.3080  144.2140 C   0  0  0  0  0  0  0  0  0  0  0  0
  189.9410  177.8660  144.8400 N   0  0  0  0  0  0  0  0  0  0  0  0
  183.4870  178.6780  144.9440 C   0  0  0  0  0  3  0  0  0  0  0  0
  185.8130  178.2980  145.5530 C   0  0  0  0  0  0  0  0  0  0  0  0
  190.4660  178.0460  142.5330 C   0  0  0  0  0  0  0  0  0  0  0  0
  187.6240  178.0570  143.9380 C   0  0  0  0  0  0  0  0  0  0  0  0
  189.2410  176.9910  140.7380 C   0  0  0  0  0  3  0  0  0  0  0  0
  186.7300  178.1470  146.5840 C   0  0  0  0  0  3  0  0  0  0  0  0
  191.6480  177.1730  140.6040 C   0  0  0  0  0  3  0  0  0  0  0  0
  191.6610  177.8150  141.8430 C   0  0  0  0  0  3  0  0  0  0  0  0
  189.2390  177.6240  141.9870 C   0  0  0  0  0  0  0  0  0  0  0  0
  192.4110  175.2660  147.1330 C   0  0  0  0  0  3  0  0  0  0  0  0
  190.7680  176.9740  145.6170 C   0  0  0  0  0  0  0  0  0  0  0  0
  191.4700  175.9240  145.0020 C   0  0  0  0  0  3  0  0  0  0  0  0
  192.2850  175.0740  145.7550 C   0  0  0  0  0  3  0  0  0  0  0  0
  191.7230  176.3100  147.7570 C   0  0  0  0  0  3  0  0  0  0  0  0
  190.9090  177.1590  147.0030 C   0  0  0  0  0  3  0  0  0  0  0  0
  1 12  1  0  0  0  0
  2  6  1  0  0  0  0
  3 16  1  0  0  0  0
  5 13  1  0  0  0  0
  6 18  2  0  0  0  0
  7  9  1  6  0  0  0
  7  5  1  0  0  0  0
  7 11  1  0  0  0  0
  8 19  2  0  0  0  0
  8 17  1  0  0  0  0
 10  8  1  0  0  0  0
 11 14  2  0  0  0  0
 12  2  1  0  0  0  0
 12 23  1  0  0  0  0
 13  4  2  0  0  0  0
 14  4  1  0  0  0  0
 14 18  1  0  0  0  0
 15  1  1  0  0  0  0
 16 11  1  0  0  0  0
 16  2  2  0  0  0  0
 17 21  2  0  0  0  0
 19 20  1  0  0  0  0
 20 15  2  0  0  0  0
 21 15  1  0  0  0  0
 21  3  1  0  0  0  0
 22 26  1  0  0  0  0
 23 27  1  0  0  0  0
 24 23  2  0  0  0  0
 24 25  1  0  0  0  0
 25 22  2  0  0  0  0
 27 26  2  0  0  0  0
M  END
>  <MODEL>
1

>  <REMARK>
 VINA RESULT:     -10.5      0.000      0.000
  Name = 
  1 active torsions:
  status: ('A' for Active; 'I' for Inactive)
    1  A    between atoms: C_9  and  N_15
                            x       y       z     vdW  Elec       q    Type
                         _______ _______ _______ _____ _____    ______ ____

>  <TORSDO>
F 1

$$$$
=
 OpenBabel10272400583D

 27 31  0  0  1  0  0  0  0  0999 V2000
  187.4270  179.3470  141.1070 C   0  0  0  0  0  2  0  0  0  0  0  0
  188.4840  177.8440  142.7440 C   0  0  0  0  0  0  0  0  0  0  0  0
  186.0640  177.9800  143.3670 O   0  0  0  0  0  0  0  0  0  0  0  0
  189.4210  176.8930  146.7750 C   0  0  0  0  0  3  0  0  0  0  0  0
  187.2910  177.8420  147.5600 C   0  0  0  0  0  2  0  0  0  0  0  0
  189.7500  177.5410  143.1390 N   0  0  0  0  0  0  0  0  0  0  0  0
  186.6950  177.6300  146.1620 C   0  0  1  0  0  3  0  0  0  0  0  0
  183.3520  178.0890  140.8720 C   0  0  0  0  0  0  0  0  0  0  0  0
  185.6360  178.7050  145.9800 C   0  0  0  0  0  1  0  0  0  0  0  0
  181.6790  177.5850  140.7630 Cl  0  0  0  0  0  0  0  0  0  0  0  0
  187.7600  177.6580  145.0650 C   0  0  0  0  0  0  0  0  0  0  0  0
  188.2650  178.1940  141.3720 N   0  0  0  0  0  0  0  0  0  0  0  0
  188.5690  177.0920  147.7760 C   0  0  0  0  0  3  0  0  0  0  0  0
  189.0800  177.2990  145.4050 C   0  0  0  0  0  0  0  0  0  0  0  0
  186.0210  178.8970  141.0550 C   0  0  0  0  0  0  0  0  0  0  0  0
  187.4320  177.8590  143.6980 C   0  0  0  0  0  0  0  0  0  0  0  0
  184.0790  177.8490  142.0390 C   0  0  0  0  0  3  0  0  0  0  0  0
  190.0600  177.2480  144.4240 C   0  0  0  0  0  3  0  0  0  0  0  0
  183.9580  178.7330  139.7920 C   0  0  0  0  0  3  0  0  0  0  0  0
  185.2900  179.1370  139.8860 C   0  0  0  0  0  3  0  0  0  0  0  0
  185.4200  178.2380  142.1450 C   0  0  0  0  0  0  0  0  0  0  0  0
  190.0570  176.0660  138.1500 C   0  0  0  0  0  3  0  0  0  0  0  0
  188.8660  177.4600  140.2830 C   0  0  0  0  0  0  0  0  0  0  0  0
  188.1420  177.1930  139.1090 C   0  0  0  0  0  3  0  0  0  0  0  0
  188.7330  176.4990  138.0500 C   0  0  0  0  0  3  0  0  0  0  0  0
  190.7910  176.3310  139.3090 C   0  0  0  0  0  3  0  0  0  0  0  0
  190.1990  177.0250  140.3680 C   0  0  0  0  0  3  0  0  0  0  0  0
  1 12  1  0  0  0  0
  2  6  2  0  0  0  0
  2 16  1  0  0  0  0
  3 16  1  0  0  0  0
  4 13  2  0  0  0  0
  5 13  1  0  0  0  0
  6 18  1  0  0  0  0
  7  9  1  6  0  0  0
  7  5  1  0  0  0  0
  8 17  1  0  0  0  0
 10  8  1  0  0  0  0
 11 14  1  0  0  0  0
 11  7  1  0  0  0  0
 12  2  1  0  0  0  0
 14  4  1  0  0  0  0
 15  1  1  0  0  0  0
 15 21  1  0  0  0  0
 16 11  2  0  0  0  0
 17 21  2  0  0  0  0
 18 14  2  0  0  0  0
 19 20  1  0  0  0  0
 19  8  2  0  0  0  0
 20 15  2  0  0  0  0
 21  3  1  0  0  0  0
 22 26  1  0  0  0  0
 23 27  1  0  0  0  0
 23 12  1  0  0  0  0
 24 23  2  0  0  0  0
 25 22  2  0  0  0  0
 25 24  1  0  0  0  0
 26 27  2  0  0  0  0
M  END
>  <MODEL>
2

>  <REMARK>
 VINA RESULT:      -9.0      2.548      5.705
  Name = 
  1 active torsions:
  status: ('A' for Active; 'I' for Inactive)
    1  A    between atoms: C_9  and  N_15
                            x       y       z     vdW  Elec       q    Type
                         _______ _______ _______ _____ _____    ______ ____

>  <TORSDO>
F 1

$$$$
=
 OpenBabel10272400583D

 27 31  0  0  1  0  0  0  0  0999 V2000
  189.4470  178.7410  138.3670 C   0  0  0  0  0  2  0  0  0  0  0  0
  189.4000  177.5320  140.5090 C   0  0  0  0  0  0  0  0  0  0  0  0
  187.0140  177.8820  139.8420 O   0  0  0  0  0  0  0  0  0  0  0  0
  188.1840  177.3200  144.5730 C   0  0  0  0  0  3  0  0  0  0  0  0
  186.0770  178.4880  144.0680 C   0  0  0  0  0  2  0  0  0  0  0  0
  190.2770  177.2570  141.5130 N   0  0  0  0  0  0  0  0  0  0  0  0
  186.1930  178.0400  142.6050 C   0  0  1  0  0  3  0  0  0  0  0  0
  185.8490  177.6300  136.3530 C   0  0  0  0  0  0  0  0  0  0  0  0
  185.4940  179.1040  141.7740 C   0  0  0  0  0  1  0  0  0  0  0  0
  184.3790  177.1830  135.5140 Cl  0  0  0  0  0  0  0  0  0  0  0  0
  187.6450  177.8170  142.1780 C   0  0  0  0  0  0  0  0  0  0  0  0
  189.9050  177.6250  139.1720 N   0  0  0  0  0  0  0  0  0  0  0  0
  186.9920  177.7390  144.9880 C   0  0  0  0  0  3  0  0  0  0  0  0
  188.5880  177.4740  143.1690 C   0  0  0  0  0  0  0  0  0  0  0  0
  188.1900  178.3470  137.7000 C   0  0  0  0  0  0  0  0  0  0  0  0
  188.0330  177.7700  140.8130 C   0  0  0  0  0  0  0  0  0  0  0  0
  185.8980  177.5850  137.7470 C   0  0  0  0  0  3  0  0  0  0  0  0
  189.9000  177.2000  142.8120 C   0  0  0  0  0  3  0  0  0  0  0  0
  186.9710  178.0330  135.6280 C   0  0  0  0  0  3  0  0  0  0  0  0
  188.1390  178.3930  136.3020 C   0  0  0  0  0  3  0  0  0  0  0  0
  187.0660  177.9310  138.4380 C   0  0  0  0  0  0  0  0  0  0  0  0
  192.7000  174.8510  137.5570 C   0  0  0  0  0  3  0  0  0  0  0  0
  190.8510  176.6750  138.6360 C   0  0  0  0  0  0  0  0  0  0  0  0
  190.4110  175.5050  137.9950 C   0  0  0  0  0  3  0  0  0  0  0  0
  191.3300  174.5970  137.4600 C   0  0  0  0  0  3  0  0  0  0  0  0
  193.1510  176.0130  138.1870 C   0  0  0  0  0  3  0  0  0  0  0  0
  192.2320  176.9200  138.7210 C   0  0  0  0  0  3  0  0  0  0  0  0
  1 12  1  0  0  0  0
  2 16  2  0  0  0  0
  2  6  1  0  0  0  0
  3 16  1  0  0  0  0
  4 13  2  0  0  0  0
  5 13  1  0  0  0  0
  6 18  2  0  0  0  0
  7  9  1  6  0  0  0
  7  5  1  0  0  0  0
  8 17  1  0  0  0  0
 10  8  1  0  0  0  0
 11  7  1  0  0  0  0
 11 14  2  0  0  0  0
 12  2  1  0  0  0  0
 14  4  1  0  0  0  0
 15  1  1  0  0  0  0
 15 21  1  0  0  0  0
 16 11  1  0  0  0  0
 17 21  2  0  0  0  0
 18 14  1  0  0  0  0
 19 20  1  0  0  0  0
 19  8  2  0  0  0  0
 20 15  2  0  0  0  0
 21  3  1  0  0  0  0
 22 26  1  0  0  0  0
 23 27  1  0  0  0  0
 23 12  1  0  0  0  0
 24 23  2  0  0  0  0
 25 22  2  0  0  0  0
 25 24  1  0  0  0  0
 26 27  2  0  0  0  0
M  END
>  <MODEL>
3

>  <REMARK>
 VINA RESULT:      -8.7      3.307      5.706
  Name = 
  1 active torsions:
  status: ('A' for Active; 'I' for Inactive)
    1  A    between atoms: C_9  and  N_15
                            x       y       z     vdW  Elec       q    Type
                         _______ _______ _______ _____ _____    ______ ____

>  <TORSDO>
F 1

$$$$
=
 OpenBabel10272400583D

 27 31  0  0  1  0  0  0  0  0999 V2000
  189.3660  179.0720  142.5310 C   0  0  0  0  0  2  0  0  0  0  0  0
  188.4060  178.0420  140.5130 C   0  0  0  0  0  0  0  0  0  0  0  0
  190.4720  176.7380  141.0590 O   0  0  0  0  0  0  0  0  0  0  0  0
  188.8030  176.8800  136.4480 C   0  0  0  0  0  3  0  0  0  0  0  0
  191.1880  176.3620  136.7640 C   0  0  0  0  0  2  0  0  0  0  0  0
  187.4820  178.3760  139.5720 N   0  0  0  0  0  0  0  0  0  0  0  0
  190.9370  176.1770  138.2660 C   0  0  1  0  0  3  0  0  0  0  0  0
  191.4850  175.9380  144.5130 C   0  0  0  0  0  0  0  0  0  0  0  0
  192.2370  176.5380  138.9660 C   0  0  0  0  0  1  0  0  0  0  0  0
  192.3570  174.6630  145.3370 Cl  0  0  0  0  0  0  0  0  0  0  0  0
  189.7480  177.0010  138.7640 C   0  0  0  0  0  0  0  0  0  0  0  0
  188.2130  178.5110  141.8530 N   0  0  0  0  0  0  0  0  0  0  0  0
  189.9290  176.3750  135.9530 C   0  0  0  0  0  3  0  0  0  0  0  0
  188.7310  177.3310  137.8440 C   0  0  0  0  0  0  0  0  0  0  0  0
  190.0990  177.9710  143.1880 C   0  0  0  0  0  0  0  0  0  0  0  0
  189.5520  177.2900  140.1400 C   0  0  0  0  0  0  0  0  0  0  0  0
  191.2920  175.8710  143.1310 C   0  0  0  0  0  3  0  0  0  0  0  0
  187.6060  178.0200  138.2720 C   0  0  0  0  0  3  0  0  0  0  0  0
  190.9840  177.0210  145.2350 C   0  0  0  0  0  3  0  0  0  0  0  0
  190.2940  178.0360  144.5720 C   0  0  0  0  0  3  0  0  0  0  0  0
  190.5920  176.8760  142.4530 C   0  0  0  0  0  0  0  0  0  0  0  0
  184.4280  178.4140  143.7980 C   0  0  0  0  0  3  0  0  0  0  0  0
  186.9290  178.4640  142.5100 C   0  0  0  0  0  0  0  0  0  0  0  0
  186.8180  178.0360  143.8440 C   0  0  0  0  0  3  0  0  0  0  0  0
  185.5760  178.0090  144.4830 C   0  0  0  0  0  3  0  0  0  0  0  0
  184.5240  178.8480  142.4730 C   0  0  0  0  0  3  0  0  0  0  0  0
  185.7670  178.8740  141.8350 C   0  0  0  0  0  3  0  0  0  0  0  0
  1 15  1  0  0  0  0
  2 12  1  0  0  0  0
  3 21  1  0  0  0  0
  4 14  1  0  0  0  0
  5  7  1  0  0  0  0
  6  2  2  0  0  0  0
  7 11  1  0  0  0  0
  7  9  1  1  0  0  0
  8 19  1  0  0  0  0
  8 10  1  0  0  0  0
 11 16  2  0  0  0  0
 12 23  1  0  0  0  0
 12  1  1  0  0  0  0
 13  4  2  0  0  0  0
 13  5  1  0  0  0  0
 14 18  2  0  0  0  0
 14 11  1  0  0  0  0
 15 20  1  0  0  0  0
 16  2  1  0  0  0  0
 16  3  1  0  0  0  0
 17  8  2  0  0  0  0
 18  6  1  0  0  0  0
 20 19  2  0  0  0  0
 21 17  1  0  0  0  0
 21 15  2  0  0  0  0
 22 25  1  0  0  0  0
 23 24  1  0  0  0  0
 24 25  2  0  0  0  0
 26 22  2  0  0  0  0
 27 26  1  0  0  0  0
 27 23  2  0  0  0  0
M  END
>  <MODEL>
4

>  <REMARK>
 VINA RESULT:      -8.2      2.703      6.703
  Name = 
  1 active torsions:
  status: ('A' for Active; 'I' for Inactive)
    1  A    between atoms: C_9  and  N_15
                            x       y       z     vdW  Elec       q    Type
                         _______ _______ _______ _____ _____    ______ ____

>  <TORSDO>
F 1

$$$$
=
 OpenBabel10272400583D

 27 31  0  0  1  0  0  0  0  0999 V2000
  183.5920  177.2080  138.9180 C   0  0  0  0  0  2  0  0  0  0  0  0
  183.2030  178.5480  140.9460 C   0  0  0  0  0  0  0  0  0  0  0  0
  185.6840  178.3080  140.7220 O   0  0  0  0  0  0  0  0  0  0  0  0
  183.6790  179.0860  145.1310 C   0  0  0  0  0  3  0  0  0  0  0  0
  185.8980  178.0240  145.0780 C   0  0  0  0  0  2  0  0  0  0  0  0
  182.1520  178.8290  141.7630 N   0  0  0  0  0  0  0  0  0  0  0  0
  186.0160  178.3720  143.5880 C   0  0  1  0  0  3  0  0  0  0  0  0
  187.4250  178.4160  137.4740 C   0  0  0  0  0  0  0  0  0  0  0  0
  186.9030  177.3050  142.9680 C   0  0  0  0  0  1  0  0  0  0  0  0
  188.9940  178.9010  136.8680 Cl  0  0  0  0  0  0  0  0  0  0  0  0
  184.6520  178.4770  142.9050 C   0  0  0  0  0  0  0  0  0  0  0  0
  182.9440  178.3410  139.5520 N   0  0  0  0  0  0  0  0  0  0  0  0
  184.8000  178.7690  145.7720 C   0  0  0  0  0  3  0  0  0  0  0  0
  183.5340  178.8200  143.6940 C   0  0  0  0  0  0  0  0  0  0  0  0
  184.9240  177.6380  138.4490 C   0  0  0  0  0  0  0  0  0  0  0  0
  184.5060  178.4150  141.4950 C   0  0  0  0  0  0  0  0  0  0  0  0
  187.1310  178.5440  138.8330 C   0  0  0  0  0  3  0  0  0  0  0  0
  182.2920  178.9900  143.1000 C   0  0  0  0  0  3  0  0  0  0  0  0
  186.4690  177.9000  136.5990 C   0  0  0  0  0  3  0  0  0  0  0  0
  185.2210  177.5100  137.0880 C   0  0  0  0  0  3  0  0  0  0  0  0
  185.8800  178.1690  139.3370 C   0  0  0  0  0  0  0  0  0  0  0  0
  180.3530  180.8450  137.2850 C   0  0  0  0  0  3  0  0  0  0  0  0
  182.0590  179.1950  138.7960 C   0  0  0  0  0  0  0  0  0  0  0  0
  182.3120  180.5720  138.6810 C   0  0  0  0  0  3  0  0  0  0  0  0
  181.4630  181.3930  137.9330 C   0  0  0  0  0  3  0  0  0  0  0  0
  180.0940  179.4750  137.3850 C   0  0  0  0  0  3  0  0  0  0  0  0
  180.9430  178.6560  138.1340 C   0  0  0  0  0  3  0  0  0  0  0  0
  1 12  1  0  0  0  0
  2 16  2  0  0  0  0
  2  6  1  0  0  0  0
  3 16  1  0  0  0  0
  4 13  2  0  0  0  0
  5 13  1  0  0  0  0
  6 18  2  0  0  0  0
  7  9  1  6  0  0  0
  7  5  1  0  0  0  0
  8 17  1  0  0  0  0
 10  8  1  0  0  0  0
 11  7  1  0  0  0  0
 11 14  2  0  0  0  0
 12  2  1  0  0  0  0
 14  4  1  0  0  0  0
 15  1  1  0  0  0  0
 15 21  1  0  0  0  0
 16 11  1  0  0  0  0
 17 21  2  0  0  0  0
 18 14  1  0  0  0  0
 19 20  1  0  0  0  0
 19  8  2  0  0  0  0
 20 15  2  0  0  0  0
 21  3  1  0  0  0  0
 22 26  2  0  0  0  0
 22 25  1  0  0  0  0
 23 12  1  0  0  0  0
 24 23  1  0  0  0  0
 25 24  2  0  0  0  0
 26 27  1  0  0  0  0
 27 23  2  0  0  0  0
M  END
>  <MODEL>
5

>  <REMARK>
 VINA RESULT:      -8.1      4.350      8.064
  Name = 
  1 active torsions:
  status: ('A' for Active; 'I' for Inactive)
    1  A    between atoms: C_9  and  N_15
                            x       y       z     vdW  Elec       q    Type
                         _______ _______ _______ _____ _____    ______ ____

>  <TORSDO>
F 1

$$$$
=
 OpenBabel10272400583D

 27 31  0  0  1  0  0  0  0  0999 V2000
  187.8000  176.4790  142.8350 C   0  0  0  0  0  2  0  0  0  0  0  0
  188.9800  177.4590  140.9110 C   0  0  0  0  0  0  0  0  0  0  0  0
  186.6320  178.3210  140.8150 O   0  0  0  0  0  0  0  0  0  0  0  0
  189.3110  178.0260  136.7150 C   0  0  0  0  0  3  0  0  0  0  0  0
  186.8630  178.0290  136.4590 C   0  0  0  0  0  2  0  0  0  0  0  0
  190.1420  177.2340  140.2400 N   0  0  0  0  0  0  0  0  0  0  0  0
  186.7220  178.4380  137.9320 C   0  0  1  0  0  3  0  0  0  0  0  0
  184.7180  179.2670  143.8200 C   0  0  0  0  0  0  0  0  0  0  0  0
  185.3910  177.8780  138.4070 C   0  0  0  0  0  1  0  0  0  0  0  0
  183.4500  180.4000  144.2370 Cl  0  0  0  0  0  0  0  0  0  0  0  0
  187.9010  177.9640  138.7830 C   0  0  0  0  0  0  0  0  0  0  0  0
  188.9470  177.2020  142.3200 N   0  0  0  0  0  0  0  0  0  0  0  0
  188.2530  178.2060  135.9300 C   0  0  0  0  0  3  0  0  0  0  0  0
  189.1460  177.7670  138.1510 C   0  0  0  0  0  0  0  0  0  0  0  0
  186.7370  177.4560  143.1450 C   0  0  0  0  0  0  0  0  0  0  0  0
  187.8270  177.8860  140.1990 C   0  0  0  0  0  0  0  0  0  0  0  0
  185.2060  179.2150  142.5130 C   0  0  0  0  0  3  0  0  0  0  0  0
  190.2540  177.4000  138.9010 C   0  0  0  0  0  3  0  0  0  0  0  0
  185.2390  178.4140  144.7930 C   0  0  0  0  0  3  0  0  0  0  0  0
  186.2460  177.5090  144.4540 C   0  0  0  0  0  3  0  0  0  0  0  0
  186.2240  178.3210  142.1590 C   0  0  0  0  0  0  0  0  0  0  0  0
  192.0580  178.4110  144.9610 C   0  0  0  0  0  3  0  0  0  0  0  0
  190.0120  177.6110  143.2040 C   0  0  0  0  0  0  0  0  0  0  0  0
  190.4710  178.9390  143.2120 C   0  0  0  0  0  3  0  0  0  0  0  0
  191.4890  179.3360  144.0830 C   0  0  0  0  0  3  0  0  0  0  0  0
  191.6060  177.0890  144.9700 C   0  0  0  0  0  3  0  0  0  0  0  0
  190.5880  176.6930  144.0980 C   0  0  0  0  0  3  0  0  0  0  0  0
  1 15  1  0  0  0  0
  2 12  1  0  0  0  0
  3 21  1  0  0  0  0
  4 14  1  0  0  0  0
  5  7  1  0  0  0  0
  6  2  1  0  0  0  0
  7  9  1  1  0  0  0
  7 11  1  0  0  0  0
  8 10  1  0  0  0  0
  8 19  1  0  0  0  0
 11 16  1  0  0  0  0
 12  1  1  0  0  0  0
 12 23  1  0  0  0  0
 13  5  1  0  0  0  0
 13  4  2  0  0  0  0
 14 11  2  0  0  0  0
 14 18  1  0  0  0  0
 15 20  1  0  0  0  0
 16  3  1  0  0  0  0
 16  2  2  0  0  0  0
 17  8  2  0  0  0  0
 18  6  2  0  0  0  0
 20 19  2  0  0  0  0
 21 17  1  0  0  0  0
 21 15  2  0  0  0  0
 22 26  1  0  0  0  0
 23 24  2  0  0  0  0
 23 27  1  0  0  0  0
 24 25  1  0  0  0  0
 25 22  2  0  0  0  0
 27 26  2  0  0  0  0
M  END
>  <MODEL>
6

>  <REMARK>
 VINA RESULT:      -7.9      3.139      5.960
  Name = 
  1 active torsions:
  status: ('A' for Active; 'I' for Inactive)
    1  A    between atoms: C_9  and  N_15
                            x       y       z     vdW  Elec       q    Type
                         _______ _______ _______ _____ _____    ______ ____

>  <TORSDO>
F 1

$$$$
=
 OpenBabel10272400583D

 27 31  0  0  1  0  0  0  0  0999 V2000
  189.8710  178.6390  143.9240 C   0  0  0  0  0  2  0  0  0  0  0  0
  188.3380  178.1060  142.0740 C   0  0  0  0  0  0  0  0  0  0  0  0
  190.2960  176.5660  141.8370 O   0  0  0  0  0  0  0  0  0  0  0  0
  187.6090  177.7460  137.9050 C   0  0  0  0  0  3  0  0  0  0  0  0
  189.9180  176.9950  137.5030 C   0  0  0  0  0  2  0  0  0  0  0  0
  187.2660  178.6900  141.4740 N   0  0  0  0  0  0  0  0  0  0  0  0
  190.0100  176.5350  138.9640 C   0  0  1  0  0  3  0  0  0  0  0  0
  191.9940  175.0210  144.7220 C   0  0  0  0  0  0  0  0  0  0  0  0
  191.4740  176.6500  139.3580 C   0  0  0  0  0  1  0  0  0  0  0  0
  192.8720  173.5450  145.0620 Cl  0  0  0  0  0  0  0  0  0  0  0  0
  189.0860  177.3330  139.8850 C   0  0  0  0  0  0  0  0  0  0  0  0
  188.5290  178.3150  143.4780 N   0  0  0  0  0  0  0  0  0  0  0  0
  188.5140  177.2650  137.0580 C   0  0  0  0  0  3  0  0  0  0  0  0
  187.9290  177.9160  139.3290 C   0  0  0  0  0  0  0  0  0  0  0  0
  190.5970  177.3770  144.1690 C   0  0  0  0  0  0  0  0  0  0  0  0
  189.2600  177.3580  141.2940 C   0  0  0  0  0  0  0  0  0  0  0  0
  191.4720  175.2440  143.4460 C   0  0  0  0  0  3  0  0  0  0  0  0
  187.0320  178.5920  140.1440 C   0  0  0  0  0  3  0  0  0  0  0  0
  191.8180  175.9740  145.7250 C   0  0  0  0  0  3  0  0  0  0  0  0
  191.1210  177.1510  145.4460 C   0  0  0  0  0  3  0  0  0  0  0  0
  190.7600  176.4140  143.1540 C   0  0  0  0  0  0  0  0  0  0  0  0
  185.3310  178.0400  146.2730 C   0  0  0  0  0  3  0  0  0  0  0  0
  187.4430  178.2360  144.4250 C   0  0  0  0  0  0  0  0  0  0  0  0
  186.1060  178.2780  143.9930 C   0  0  0  0  0  3  0  0  0  0  0  0
  185.0570  178.1820  144.9110 C   0  0  0  0  0  3  0  0  0  0  0  0
  186.6550  177.9910  146.7170 C   0  0  0  0  0  3  0  0  0  0  0  0
  187.7040  178.0860  145.7980 C   0  0  0  0  0  3  0  0  0  0  0  0
  1 15  1  0  0  0  0
  2 12  1  0  0  0  0
  3 21  1  0  0  0  0
  4 14  1  0  0  0  0
  5  7  1  0  0  0  0
  6  2  1  0  0  0  0
  7  9  1  1  0  0  0
  7 11  1  0  0  0  0
  8 10  1  0  0  0  0
  8 19  1  0  0  0  0
 11 16  1  0  0  0  0
 12  1  1  0  0  0  0
 12 23  1  0  0  0  0
 13  5  1  0  0  0  0
 13  4  2  0  0  0  0
 14 11  2  0  0  0  0
 14 18  1  0  0  0  0
 15 20  1  0  0  0  0
 16  3  1  0  0  0  0
 16  2  2  0  0  0  0
 17  8  2  0  0  0  0
 18  6  2  0  0  0  0
 20 19  2  0  0  0  0
 21 17  1  0  0  0  0
 21 15  2  0  0  0  0
 22 26  1  0  0  0  0
 23 27  1  0  0  0  0
 24 23  2  0  0  0  0
 24 25  1  0  0  0  0
 25 22  2  0  0  0  0
 27 26  2  0  0  0  0
M  END
>  <MODEL>
7

>  <REMARK>
 VINA RESULT:      -7.6      2.323      5.641
  Name = 
  1 active torsions:
  status: ('A' for Active; 'I' for Inactive)
    1  A    between atoms: C_9  and  N_15
                            x       y       z     vdW  Elec       q    Type
                         _______ _______ _______ _____ _____    ______ ____

>  <TORSDO>
F 1

$$$$
=
 OpenBabel10272400583D

 27 31  0  0  1  0  0  0  0  0999 V2000
  188.7910  179.1900  140.9260 C   0  0  0  0  0  2  0  0  0  0  0  0
  187.0010  178.3700  142.4020 C   0  0  0  0  0  0  0  0  0  0  0  0
  186.1740  178.0800  140.0580 O   0  0  0  0  0  0  0  0  0  0  0  0
  182.9780  178.5750  143.7470 C   0  0  0  0  0  3  0  0  0  0  0  0
  182.1870  179.1580  141.4910 C   0  0  0  0  0  2  0  0  0  0  0  0
  186.6830  178.4620  143.7220 N   0  0  0  0  0  0  0  0  0  0  0  0
  183.4450  178.5110  140.8960 C   0  0  1  0  0  3  0  0  0  0  0  0
  188.3490  177.0080  137.2810 C   0  0  0  0  0  0  0  0  0  0  0  0
  183.7310  179.2450  139.5960 C   0  0  0  0  0  1  0  0  0  0  0  0
  188.1820  176.1210  135.7810 Cl  0  0  0  0  0  0  0  0  0  0  0  0
  184.6280  178.5400  141.8640 C   0  0  0  0  0  0  0  0  0  0  0  0
  188.3850  178.3480  142.0360 N   0  0  0  0  0  0  0  0  0  0  0  0
  181.9560  178.7880  142.9230 C   0  0  0  0  0  3  0  0  0  0  0  0
  184.3590  178.5790  143.2480 C   0  0  0  0  0  0  0  0  0  0  0  0
  188.6070  178.4290  139.6740 C   0  0  0  0  0  0  0  0  0  0  0  0
  185.9660  178.3530  141.4280 C   0  0  0  0  0  0  0  0  0  0  0  0
  187.2380  177.2060  138.1030 C   0  0  0  0  0  3  0  0  0  0  0  0
  185.4040  178.5400  144.1590 C   0  0  0  0  0  3  0  0  0  0  0  0
  189.5930  177.5190  137.6550 C   0  0  0  0  0  3  0  0  0  0  0  0
  189.7190  178.2300  138.8490 C   0  0  0  0  0  3  0  0  0  0  0  0
  187.3510  177.9060  139.3100 C   0  0  0  0  0  0  0  0  0  0  0  0
  191.2870  176.0130  144.0960 C   0  0  0  0  0  3  0  0  0  0  0  0
  189.3580  177.5510  142.7430 C   0  0  0  0  0  0  0  0  0  0  0  0
  189.4950  176.1780  142.4770 C   0  0  0  0  0  3  0  0  0  0  0  0
  190.4520  175.4130  143.1500 C   0  0  0  0  0  3  0  0  0  0  0  0
  191.1660  177.3790  144.3660 C   0  0  0  0  0  3  0  0  0  0  0  0
  190.2090  178.1420  143.6920 C   0  0  0  0  0  3  0  0  0  0  0  0
  1 12  1  0  0  0  0
  2  6  1  0  0  0  0
  3 16  1  0  0  0  0
  5 13  1  0  0  0  0
  6 18  2  0  0  0  0
  7  9  1  6  0  0  0
  7  5  1  0  0  0  0
  7 11  1  0  0  0  0
  8 19  2  0  0  0  0
  8 17  1  0  0  0  0
 10  8  1  0  0  0  0
 11 14  2  0  0  0  0
 12  2  1  0  0  0  0
 12 23  1  0  0  0  0
 13  4  2  0  0  0  0
 14  4  1  0  0  0  0
 14 18  1  0  0  0  0
 15  1  1  0  0  0  0
 16 11  1  0  0  0  0
 16  2  2  0  0  0  0
 17 21  2  0  0  0  0
 19 20  1  0  0  0  0
 20 15  2  0  0  0  0
 21 15  1  0  0  0  0
 21  3  1  0  0  0  0
 22 26  1  0  0  0  0
 23 27  1  0  0  0  0
 24 23  2  0  0  0  0
 24 25  1  0  0  0  0
 25 22  2  0  0  0  0
 27 26  2  0  0  0  0
M  END
>  <MODEL>
8

>  <REMARK>
 VINA RESULT:      -7.6      2.240      3.173
  Name = 
  1 active torsions:
  status: ('A' for Active; 'I' for Inactive)
    1  A    between atoms: C_9  and  N_15
                            x       y       z     vdW  Elec       q    Type
                         _______ _______ _______ _____ _____    ______ ____

>  <TORSDO>
F 1

$$$$
