=
 OpenBabel10272415343D

 34 37  0  0  1  0  0  0  0  0999 V2000
  183.2110  177.9960  137.0940 C   0  0  2  0  0  3  0  0  0  0  0  0
  180.6470  173.6210  136.0160 C   0  0  0  0  0  1  0  0  0  0  0  0
  181.5460  176.3660  136.0290 C   0  0  0  0  0  2  0  0  0  0  0  0
  184.9660  177.2490  135.4940 C   0  0  0  0  0  2  0  0  0  0  0  0
  183.9120  177.1880  134.3810 C   0  0  0  0  0  2  0  0  0  0  0  0
  182.1750  177.7730  135.9800 C   0  0  2  0  0  3  0  0  0  0  0  0
  184.3320  176.9720  136.8610 C   0  0  2  0  0  3  0  0  0  0  0  0
  182.7710  178.0690  134.6670 N   0  0  0  0  0  2  0  0  0  0  0  0
  182.0480  173.9190  136.4590 C   0  0  0  0  0  0  0  0  0  0  0  0
  182.9180  172.8840  136.8980 C   0  0  0  0  0  0  0  0  0  0  0  0
  184.2020  173.2180  137.3430 C   0  0  0  0  0  3  0  0  0  0  0  0
  182.4950  175.2590  136.4550 C   0  0  0  0  0  0  0  0  0  0  0  0
  184.6400  174.5390  137.3490 C   0  0  0  0  0  3  0  0  0  0  0  0
  183.7980  175.5630  136.9140 C   0  0  0  0  0  0  0  0  0  0  0  0
  183.7320  177.7330  139.4350 C   0  0  1  0  0  3  0  0  0  0  0  0
  184.0400  180.2030  139.1020 O   0  0  0  0  0  0  0  0  0  0  0  0
  181.8520  179.0910  138.8570 C   0  0  2  0  0  3  0  0  0  0  0  0
  182.6330  177.8980  138.4590 N   0  0  1  0  0  0  0  0  0  0  0  0
  180.6070  179.2080  138.1120 N   0  0  0  0  0  1  0  0  0  0  0  0
  182.2310  181.4220  138.3680 O   0  0  0  0  0  0  0  0  0  0  0  0
  184.5570  179.0170  139.7160 C   0  0  2  0  0  3  0  0  0  0  0  0
  182.6960  180.3200  138.7640 C   0  0  0  0  0  0  0  0  0  0  0  0
  183.2310  177.2240  140.6330 O   0  0  0  0  0  1  0  0  0  0  0  0
  185.8980  178.8320  139.3350 O   0  0  0  0  0  0  0  0  0  0  0  0
  186.6510  178.4730  140.4760 C   0  0  2  0  0  3  0  0  0  0  0  0
  186.0570  179.0540  141.7520 C   0  0  0  0  0  1  0  0  0  0  0  0
  188.0270  178.8330  140.3500 O   0  0  0  0  0  0  0  0  0  0  0  0
  188.8000  178.4410  139.2560 C   0  0  0  0  0  0  0  0  0  0  0  0
  189.0010  179.2310  138.2920 O   0  0  0  0  0  0  0  0  0  0  0  0
  189.3830  177.0960  139.2480 C   0  0  0  0  0  3  0  0  0  0  0  0
  190.3130  176.7670  140.0860 N   0  0  0  0  0  2  0  0  0  0  0  0
  182.5480  171.4460  136.9010 C   0  0  0  0  0  0  0  0  0  0  0  0
  181.6650  170.9990  137.6780 O   0  0  0  0  0  1  0  0  0  0  0  0
  183.1610  170.5690  136.0090 O   0  0  0  0  0  0  0  0  0  0  0  0
  1 18  1  1  0  0  0
  2  9  1  0  0  0  0
  3 12  1  0  0  0  0
  5  8  1  0  0  0  0
  5  4  1  0  0  0  0
  6  3  1  6  0  0  0
  6  1  1  0  0  0  0
  7  4  1  6  0  0  0
  7 14  1  0  0  0  0
  7  1  1  0  0  0  0
  8  6  1  0  0  0  0
  9 10  1  0  0  0  0
 10 32  1  0  0  0  0
 10 11  2  0  0  0  0
 11 13  1  0  0  0  0
 12  9  2  0  0  0  0
 12 14  1  0  0  0  0
 14 13  2  0  0  0  0
 15 21  1  0  0  0  0
 15 23  1  1  0  0  0
 16 21  1  0  0  0  0
 17 19  1  6  0  0  0
 18 17  1  0  0  0  0
 18 15  1  0  0  0  0
 20 22  2  0  0  0  0
 22 17  1  0  0  0  0
 22 16  1  0  0  0  0
 24 21  1  0  0  0  0
 24 25  1  0  0  0  0
 25 26  1  0  0  0  0
 27 25  1  0  0  0  0
 28 27  1  0  0  0  0
 29 28  2  0  0  0  0
 30 28  1  0  0  0  0
 30 31  2  0  0  0  0
 32 33  1  0  0  0  0
 34 32  2  0  0  0  0
M  END
>  <MODEL>
1

>  <REMARK>
 VINA RESULT:      -5.5      0.000      0.000
  Name = 
  7 active torsions:
  status: ('A' for Active; 'I' for Inactive)
    1  A    between atoms: C_1  and  N_9
    2  A    between atoms: C_3  and  C_25
    3  A    between atoms: C_7  and  O_16
    4  A    between atoms: C_7  and  O_21
    5  A    between atoms: C_11  and  O_21
    6  A    between atoms: C_11  and  C_26
    7  A    between atoms: O_16  and  C_28
                            x       y       z     vdW  Elec       q    Type
                         _______ _______ _______ _____ _____    ______ ____

>  <TORSDO>
F 7

$$$$
=
 OpenBabel10272415343D

 34 37  0  0  1  0  0  0  0  0999 V2000
  184.4180  176.8650  137.6760 C   0  0  2  0  0  3  0  0  0  0  0  0
  180.5190  179.6820  135.7440 C   0  0  0  0  0  1  0  0  0  0  0  0
  182.2380  177.4800  136.4800 C   0  0  0  0  0  2  0  0  0  0  0  0
  183.2260  176.8890  139.8620 C   0  0  0  0  0  2  0  0  0  0  0  0
  182.0110  176.2310  139.1960 C   0  0  0  0  0  2  0  0  0  0  0  0
  183.1210  176.3450  137.0350 C   0  0  2  0  0  3  0  0  0  0  0  0
  183.9970  177.7520  138.8580 C   0  0  2  0  0  3  0  0  0  0  0  0
  182.3920  175.4890  137.9860 N   0  0  0  0  0  2  0  0  0  0  0  0
  181.4200  179.8370  136.9320 C   0  0  0  0  0  0  0  0  0  0  0  0
  181.4620  181.0500  137.6710 C   0  0  0  0  0  0  0  0  0  0  0  0
  182.3520  181.1600  138.7470 C   0  0  0  0  0  3  0  0  0  0  0  0
  182.2530  178.7580  137.3020 C   0  0  0  0  0  0  0  0  0  0  0  0
  183.1800  180.1020  139.1070 C   0  0  0  0  0  3  0  0  0  0  0  0
  183.1430  178.9040  138.3930 C   0  0  0  0  0  0  0  0  0  0  0  0
  186.4070  178.2130  137.4670 C   0  0  1  0  0  3  0  0  0  0  0  0
  187.3510  175.8860  137.5060 O   0  0  0  0  0  0  0  0  0  0  0  0
  185.8930  176.6990  135.6900 C   0  0  2  0  0  3  0  0  0  0  0  0
  185.2990  177.5810  136.7190 N   0  0  1  0  0  0  0  0  0  0  0  0
  184.9030  176.2160  134.7390 N   0  0  0  0  0  1  0  0  0  0  0  0
  186.6710  174.4230  135.8640 O   0  0  0  0  0  0  0  0  0  0  0  0
  187.5020  177.2330  137.9680 C   0  0  2  0  0  3  0  0  0  0  0  0
  186.6620  175.5920  136.3340 C   0  0  0  0  0  0  0  0  0  0  0  0
  186.9920  179.2150  136.6930 O   0  0  0  0  0  1  0  0  0  0  0  0
  187.5670  177.2480  139.3720 O   0  0  0  0  0  0  0  0  0  0  0  0
  188.5870  178.1420  139.7730 C   0  0  2  0  0  3  0  0  0  0  0  0
  189.8660  177.9350  138.9730 C   0  0  0  0  0  1  0  0  0  0  0  0
  188.8490  178.0690  141.1740 O   0  0  0  0  0  0  0  0  0  0  0  0
  187.8240  178.0150  142.1200 C   0  0  0  0  0  0  0  0  0  0  0  0
  186.7890  178.7250  141.9890 O   0  0  0  0  0  0  0  0  0  0  0  0
  187.9670  177.1120  143.2660 C   0  0  0  0  0  3  0  0  0  0  0  0
  188.6900  176.0420  143.1860 N   0  0  0  0  0  2  0  0  0  0  0  0
  180.5970  182.2210  137.3790 C   0  0  0  0  0  0  0  0  0  0  0  0
  179.9840  182.8270  138.2960 O   0  0  0  0  0  1  0  0  0  0  0  0
  180.4760  182.6860  136.0720 O   0  0  0  0  0  0  0  0  0  0  0  0
  1 18  1  6  0  0  0
  1  7  1  0  0  0  0
  2  9  1  0  0  0  0
  3 12  1  0  0  0  0
  5  4  1  0  0  0  0
  6  3  1  1  0  0  0
  6  1  1  0  0  0  0
  6  8  1  0  0  0  0
  7  4  1  1  0  0  0
  8  5  1  0  0  0  0
  9 12  2  0  0  0  0
  9 10  1  0  0  0  0
 10 11  2  0  0  0  0
 11 13  1  0  0  0  0
 12 14  1  0  0  0  0
 14  7  1  0  0  0  0
 14 13  2  0  0  0  0
 15 23  1  6  0  0  0
 15 21  1  0  0  0  0
 16 21  1  0  0  0  0
 17 19  1  1  0  0  0
 17 22  1  0  0  0  0
 17 18  1  0  0  0  0
 18 15  1  0  0  0  0
 20 22  2  0  0  0  0
 21 24  1  0  0  0  0
 22 16  1  0  0  0  0
 24 25  1  0  0  0  0
 25 27  1  0  0  0  0
 26 25  1  0  0  0  0
 27 28  1  0  0  0  0
 28 30  1  0  0  0  0
 29 28  2  0  0  0  0
 31 30  2  0  0  0  0
 32 10  1  0  0  0  0
 32 33  1  0  0  0  0
 34 32  2  0  0  0  0
M  END
>  <MODEL>
2

>  <REMARK>
 VINA RESULT:      -5.3      2.814      5.837
  Name = 
  7 active torsions:
  status: ('A' for Active; 'I' for Inactive)
    1  A    between atoms: C_1  and  N_9
    2  A    between atoms: C_3  and  C_25
    3  A    between atoms: C_7  and  O_16
    4  A    between atoms: C_7  and  O_21
    5  A    between atoms: C_11  and  O_21
    6  A    between atoms: C_11  and  C_26
    7  A    between atoms: O_16  and  C_28
                            x       y       z     vdW  Elec       q    Type
                         _______ _______ _______ _____ _____    ______ ____

>  <TORSDO>
F 7

$$$$
=
 OpenBabel10272415343D

 34 37  0  0  1  0  0  0  0  0999 V2000
  187.9230  176.6440  136.8670 C   0  0  2  0  0  3  0  0  0  0  0  0
  188.2760  177.9330  141.8750 C   0  0  0  0  0  1  0  0  0  0  0  0
  188.9220  177.3050  139.1310 C   0  0  0  0  0  2  0  0  0  0  0  0
  187.4330  179.0370  136.3840 C   0  0  0  0  0  2  0  0  0  0  0  0
  188.7720  179.4290  137.0210 C   0  0  0  0  0  2  0  0  0  0  0  0
  189.1780  177.1080  137.6230 C   0  0  2  0  0  3  0  0  0  0  0  0
  186.8790  177.7600  137.0240 C   0  0  2  0  0  3  0  0  0  0  0  0
  189.7330  178.3170  136.9920 N   0  0  0  0  0  2  0  0  0  0  0  0
  187.2310  178.1440  140.8220 C   0  0  0  0  0  0  0  0  0  0  0  0
  185.9320  178.6130  141.1580 C   0  0  0  0  0  0  0  0  0  0  0  0
  184.9760  178.7530  140.1440 C   0  0  0  0  0  3  0  0  0  0  0  0
  187.5470  177.8500  139.4780 C   0  0  0  0  0  0  0  0  0  0  0  0
  185.2840  178.4550  138.8200 C   0  0  0  0  0  3  0  0  0  0  0  0
  186.5580  178.0000  138.4780 C   0  0  0  0  0  0  0  0  0  0  0  0
  185.9950  175.1950  136.9340 C   0  0  1  0  0  3  0  0  0  0  0  0
  186.9520  174.6940  134.6660 O   0  0  0  0  0  0  0  0  0  0  0  0
  188.1510  174.1760  136.7580 C   0  0  2  0  0  3  0  0  0  0  0  0
  187.4140  175.3270  137.3280 N   0  0  1  0  0  0  0  0  0  0  0  0
  189.5040  174.0730  137.2850 N   0  0  0  0  0  1  0  0  0  0  0  0
  189.1040  173.8840  134.5620 O   0  0  0  0  0  0  0  0  0  0  0  0
  185.7580  174.9220  135.4230 C   0  0  2  0  0  3  0  0  0  0  0  0
  188.1150  174.2240  135.2650 C   0  0  0  0  0  0  0  0  0  0  0  0
  185.3810  174.1990  137.6930 O   0  0  0  0  0  1  0  0  0  0  0  0
  185.0240  175.9730  134.8460 O   0  0  0  0  0  0  0  0  0  0  0  0
  183.7030  175.9370  135.3490 C   0  0  2  0  0  3  0  0  0  0  0  0
  182.7320  175.3300  134.3460 C   0  0  0  0  0  1  0  0  0  0  0  0
  183.2520  177.2240  135.7740 O   0  0  0  0  0  0  0  0  0  0  0  0
  182.4030  177.3890  136.8690 C   0  0  0  0  0  0  0  0  0  0  0  0
  181.8960  178.5160  137.1270 O   0  0  0  0  0  0  0  0  0  0  0  0
  182.1010  176.2270  137.7110 C   0  0  0  0  0  3  0  0  0  0  0  0
  182.7970  175.9730  138.7720 N   0  0  0  0  0  2  0  0  0  0  0  0
  185.5220  178.9830  142.5360 C   0  0  0  0  0  0  0  0  0  0  0  0
  185.3450  180.1850  142.8660 O   0  0  0  0  0  0  0  0  0  0  0  0
  185.2980  177.9890  143.4850 O   0  0  0  0  0  1  0  0  0  0  0  0
  1  7  1  0  0  0  0
  1 18  1  1  0  0  0
  1  6  1  0  0  0  0
  3 12  1  0  0  0  0
  4  5  1  0  0  0  0
  6  3  1  1  0  0  0
  7  4  1  1  0  0  0
  7 14  1  0  0  0  0
  8  5  1  0  0  0  0
  8  6  1  0  0  0  0
  9 10  1  0  0  0  0
  9  2  1  0  0  0  0
 10 32  1  0  0  0  0
 11 10  2  0  0  0  0
 12  9  2  0  0  0  0
 13 11  1  0  0  0  0
 14 13  2  0  0  0  0
 14 12  1  0  0  0  0
 15 18  1  0  0  0  0
 15 23  1  1  0  0  0
 16 22  1  0  0  0  0
 16 21  1  0  0  0  0
 17 19  1  6  0  0  0
 17 18  1  0  0  0  0
 20 22  2  0  0  0  0
 21 15  1  0  0  0  0
 22 17  1  0  0  0  0
 24 25  1  0  0  0  0
 24 21  1  0  0  0  0
 25 27  1  0  0  0  0
 26 25  1  0  0  0  0
 27 28  1  0  0  0  0
 28 29  2  0  0  0  0
 28 30  1  0  0  0  0
 30 31  2  0  0  0  0
 32 33  2  0  0  0  0
 32 34  1  0  0  0  0
M  END
>  <MODEL>
3

>  <REMARK>
 VINA RESULT:      -5.0      3.116      7.445
  Name = 
  7 active torsions:
  status: ('A' for Active; 'I' for Inactive)
    1  A    between atoms: C_1  and  N_9
    2  A    between atoms: C_3  and  C_25
    3  A    between atoms: C_7  and  O_16
    4  A    between atoms: C_7  and  O_21
    5  A    between atoms: C_11  and  O_21
    6  A    between atoms: C_11  and  C_26
    7  A    between atoms: O_16  and  C_28
                            x       y       z     vdW  Elec       q    Type
                         _______ _______ _______ _____ _____    ______ ____

>  <TORSDO>
F 7

$$$$
=
 OpenBabel10272415343D

 34 37  0  0  1  0  0  0  0  0999 V2000
  183.5800  177.2610  136.7390 C   0  0  2  0  0  3  0  0  0  0  0  0
  182.6540  172.7380  134.3810 C   0  0  0  0  0  1  0  0  0  0  0  0
  182.8830  175.5590  134.9550 C   0  0  0  0  0  2  0  0  0  0  0  0
  185.9540  177.0400  136.0210 C   0  0  0  0  0  2  0  0  0  0  0  0
  185.4960  176.9730  134.5590 C   0  0  0  0  0  2  0  0  0  0  0  0
  183.1720  177.0400  135.2740 C   0  0  2  0  0  3  0  0  0  0  0  0
  184.8810  176.4710  136.9550 C   0  0  2  0  0  3  0  0  0  0  0  0
  184.1860  177.6130  134.3720 N   0  0  0  0  0  2  0  0  0  0  0  0
  183.6490  173.1860  135.4090 C   0  0  0  0  0  0  0  0  0  0  0  0
  184.4490  172.2490  136.1180 C   0  0  0  0  0  0  0  0  0  0  0  0
  185.3330  172.7150  137.0990 C   0  0  0  0  0  3  0  0  0  0  0  0
  183.7720  174.5660  135.6830 C   0  0  0  0  0  0  0  0  0  0  0  0
  185.4490  174.0730  137.3770 C   0  0  0  0  0  3  0  0  0  0  0  0
  184.6740  175.0030  136.6820 C   0  0  0  0  0  0  0  0  0  0  0  0
  183.0980  176.8560  139.0680 C   0  0  1  0  0  3  0  0  0  0  0  0
  182.8750  179.3520  138.9110 O   0  0  0  0  0  0  0  0  0  0  0  0
  181.3680  177.8060  137.7190 C   0  0  2  0  0  3  0  0  0  0  0  0
  182.5210  176.8770  137.7070 N   0  0  1  0  0  0  0  0  0  0  0  0
  180.5770  177.7200  136.5000 N   0  0  0  0  0  1  0  0  0  0  0  0
  181.3090  180.2020  137.4540 O   0  0  0  0  0  0  0  0  0  0  0  0
  183.3640  178.2540  139.6890 C   0  0  2  0  0  3  0  0  0  0  0  0
  181.8250  179.1980  138.0130 C   0  0  0  0  0  0  0  0  0  0  0  0
  182.2810  176.1120  139.9190 O   0  0  0  0  0  1  0  0  0  0  0  0
  184.7370  178.4250  139.9400 O   0  0  0  0  0  0  0  0  0  0  0  0
  184.9670  178.2850  141.3280 C   0  0  2  0  0  3  0  0  0  0  0  0
  183.7700  178.7450  142.1490 C   0  0  0  0  0  1  0  0  0  0  0  0
  186.1560  178.9560  141.7490 O   0  0  0  0  0  0  0  0  0  0  0  0
  187.4140  178.3590  141.6660 C   0  0  0  0  0  0  0  0  0  0  0  0
  188.0530  178.3510  140.5780 O   0  0  0  0  0  0  0  0  0  0  0  0
  187.9860  177.7470  142.8690 C   0  0  0  0  0  3  0  0  0  0  0  0
  188.1590  176.4670  142.9490 N   0  0  0  0  0  2  0  0  0  0  0  0
  184.4140  170.7860  135.8690 C   0  0  0  0  0  0  0  0  0  0  0  0
  185.2520  170.2310  135.1110 O   0  0  0  0  0  0  0  0  0  0  0  0
  183.4600  169.9950  136.5050 O   0  0  0  0  0  1  0  0  0  0  0  0
  1  7  1  0  0  0  0
  1 18  1  1  0  0  0
  2  9  1  0  0  0  0
  3 12  1  0  0  0  0
  5  4  1  0  0  0  0
  6  3  1  6  0  0  0
  6  1  1  0  0  0  0
  7  4  1  6  0  0  0
  8  5  1  0  0  0  0
  8  6  1  0  0  0  0
  9 12  2  0  0  0  0
  9 10  1  0  0  0  0
 10 11  2  0  0  0  0
 11 13  1  0  0  0  0
 12 14  1  0  0  0  0
 14  7  1  0  0  0  0
 14 13  2  0  0  0  0
 15 21  1  0  0  0  0
 15 23  1  1  0  0  0
 16 21  1  0  0  0  0
 17 19  1  6  0  0  0
 17 22  1  0  0  0  0
 18 17  1  0  0  0  0
 18 15  1  0  0  0  0
 20 22  2  0  0  0  0
 21 24  1  0  0  0  0
 22 16  1  0  0  0  0
 24 25  1  0  0  0  0
 25 27  1  0  0  0  0
 25 26  1  0  0  0  0
 28 27  1  0  0  0  0
 28 30  1  0  0  0  0
 29 28  2  0  0  0  0
 30 31  2  0  0  0  0
 32 10  1  0  0  0  0
 32 34  1  0  0  0  0
 33 32  2  0  0  0  0
M  END
>  <MODEL>
4

>  <REMARK>
 VINA RESULT:      -4.9      1.785      2.052
  Name = 
  7 active torsions:
  status: ('A' for Active; 'I' for Inactive)
    1  A    between atoms: C_1  and  N_9
    2  A    between atoms: C_3  and  C_25
    3  A    between atoms: C_7  and  O_16
    4  A    between atoms: C_7  and  O_21
    5  A    between atoms: C_11  and  O_21
    6  A    between atoms: C_11  and  C_26
    7  A    between atoms: O_16  and  C_28
                            x       y       z     vdW  Elec       q    Type
                         _______ _______ _______ _____ _____    ______ ____

>  <TORSDO>
F 7

$$$$
=
 OpenBabel10272415343D

 34 37  0  0  1  0  0  0  0  0999 V2000
  187.6320  174.8530  135.8980 C   0  0  2  0  0  3  0  0  0  0  0  0
  187.5510  178.5220  139.5590 C   0  0  0  0  0  1  0  0  0  0  0  0
  188.3930  176.7590  137.4320 C   0  0  0  0  0  2  0  0  0  0  0  0
  186.6040  176.5100  134.3490 C   0  0  0  0  0  2  0  0  0  0  0  0
  187.7960  177.4470  134.5760 C   0  0  0  0  0  2  0  0  0  0  0  0
  188.7240  175.8920  136.2000 C   0  0  2  0  0  3  0  0  0  0  0  0
  186.3510  175.6420  135.5860 C   0  0  2  0  0  3  0  0  0  0  0  0
  188.9930  176.7090  135.0040 N   0  0  0  0  0  2  0  0  0  0  0  0
  186.5100  177.9450  138.6470 C   0  0  0  0  0  0  0  0  0  0  0  0
  185.1300  178.2250  138.8340 C   0  0  0  0  0  0  0  0  0  0  0  0
  184.1930  177.6280  137.9820 C   0  0  0  0  0  3  0  0  0  0  0  0
  186.9200  177.0920  137.5980 C   0  0  0  0  0  0  0  0  0  0  0  0
  184.5940  176.7800  136.9540 C   0  0  0  0  0  3  0  0  0  0  0  0
  185.9470  176.5020  136.7570 C   0  0  0  0  0  0  0  0  0  0  0  0
  186.0840  173.2890  136.8840 C   0  0  1  0  0  3  0  0  0  0  0  0
  187.1150  171.9210  135.0480 O   0  0  0  0  0  0  0  0  0  0  0  0
  188.4130  172.7580  136.9710 C   0  0  2  0  0  3  0  0  0  0  0  0
  187.4380  173.8710  136.9950 N   0  0  1  0  0  0  0  0  0  0  0  0
  189.7570  173.1940  137.3190 N   0  0  0  0  0  1  0  0  0  0  0  0
  189.3940  171.6010  135.0970 O   0  0  0  0  0  0  0  0  0  0  0  0
  185.9050  172.2600  135.7350 C   0  0  2  0  0  3  0  0  0  0  0  0
  188.3580  172.0470  135.6580 C   0  0  0  0  0  0  0  0  0  0  0  0
  185.7150  172.7060  138.0970 O   0  0  0  0  0  1  0  0  0  0  0  0
  184.9490  172.7180  134.8110 O   0  0  0  0  0  0  0  0  0  0  0  0
  183.7170  172.0760  135.0750 C   0  0  2  0  0  3  0  0  0  0  0  0
  182.7710  172.9700  135.8640 C   0  0  0  0  0  1  0  0  0  0  0  0
  183.8910  170.8200  135.7310 O   0  0  0  0  0  0  0  0  0  0  0  0
  183.2200  169.6680  135.3200 C   0  0  0  0  0  0  0  0  0  0  0  0
  181.9580  169.6270  135.3100 O   0  0  0  0  0  0  0  0  0  0  0  0
  184.0060  168.5070  134.8920 C   0  0  0  0  0  3  0  0  0  0  0  0
  185.2410  168.6340  134.5290 N   0  0  0  0  0  2  0  0  0  0  0  0
  184.6120  179.1380  139.8840 C   0  0  0  0  0  0  0  0  0  0  0  0
  184.1150  180.2580  139.5910 O   0  0  0  0  0  0  0  0  0  0  0  0
  184.6420  178.7490  141.2200 O   0  0  0  0  0  1  0  0  0  0  0  0
  1  6  1  0  0  0  0
  1 18  1  1  0  0  0
  3 12  1  0  0  0  0
  4  5  1  0  0  0  0
  5  8  1  0  0  0  0
  6  3  1  1  0  0  0
  7  4  1  6  0  0  0
  7  1  1  0  0  0  0
  7 14  1  0  0  0  0
  8  6  1  0  0  0  0
  9 10  1  0  0  0  0
  9  2  1  0  0  0  0
 10 32  1  0  0  0  0
 11 10  2  0  0  0  0
 12  9  2  0  0  0  0
 13 11  1  0  0  0  0
 14 13  2  0  0  0  0
 14 12  1  0  0  0  0
 15 18  1  0  0  0  0
 15 23  1  1  0  0  0
 16 22  1  0  0  0  0
 16 21  1  0  0  0  0
 17 18  1  0  0  0  0
 17 19  1  6  0  0  0
 20 22  2  0  0  0  0
 21 15  1  0  0  0  0
 22 17  1  0  0  0  0
 24 25  1  0  0  0  0
 24 21  1  0  0  0  0
 25 27  1  0  0  0  0
 25 26  1  0  0  0  0
 28 27  1  0  0  0  0
 29 28  2  0  0  0  0
 30 28  1  0  0  0  0
 31 30  2  0  0  0  0
 32 34  1  0  0  0  0
 33 32  2  0  0  0  0
M  END
>  <MODEL>
5

>  <REMARK>
 VINA RESULT:      -4.6      3.436      8.147
  Name = 
  7 active torsions:
  status: ('A' for Active; 'I' for Inactive)
    1  A    between atoms: C_1  and  N_9
    2  A    between atoms: C_3  and  C_25
    3  A    between atoms: C_7  and  O_16
    4  A    between atoms: C_7  and  O_21
    5  A    between atoms: C_11  and  O_21
    6  A    between atoms: C_11  and  C_26
    7  A    between atoms: O_16  and  C_28
                            x       y       z     vdW  Elec       q    Type
                         _______ _______ _______ _____ _____    ______ ____

>  <TORSDO>
F 7

$$$$
=
 OpenBabel10272415343D

 34 37  0  0  1  0  0  0  0  0999 V2000
  190.0230  176.8660  137.3720 C   0  0  2  0  0  3  0  0  0  0  0  0
  185.3790  174.5620  137.3480 C   0  0  0  0  0  1  0  0  0  0  0  0
  187.5480  176.4030  137.8470 C   0  0  0  0  0  2  0  0  0  0  0  0
  189.4090  177.9120  135.1970 C   0  0  0  0  0  2  0  0  0  0  0  0
  188.1870  178.5570  135.8630 C   0  0  0  0  0  2  0  0  0  0  0  0
  188.7070  177.4150  137.9460 C   0  0  2  0  0  3  0  0  0  0  0  0
  189.7680  176.5890  135.8820 C   0  0  2  0  0  3  0  0  0  0  0  0
  188.3740  178.7020  137.3130 N   0  0  0  0  0  2  0  0  0  0  0  0
  186.5060  174.6320  136.3620 C   0  0  0  0  0  0  0  0  0  0  0  0
  186.5360  173.7920  135.2160 C   0  0  0  0  0  0  0  0  0  0  0  0
  187.6320  173.8650  134.3470 C   0  0  0  0  0  3  0  0  0  0  0  0
  187.5630  175.5400  136.5970 C   0  0  0  0  0  0  0  0  0  0  0  0
  188.6780  174.7520  134.5820 C   0  0  0  0  0  3  0  0  0  0  0  0
  188.6560  175.5870  135.7010 C   0  0  0  0  0  0  0  0  0  0  0  0
  191.5550  175.0060  137.2660 C   0  0  1  0  0  3  0  0  0  0  0  0
  193.0290  176.8540  138.1130 O   0  0  0  0  0  0  0  0  0  0  0  0
  191.1230  175.9750  139.4080 C   0  0  2  0  0  3  0  0  0  0  0  0
  190.5210  175.6660  138.0910 N   0  0  1  0  0  0  0  0  0  0  0  0
  190.1300  176.4030  140.3820 N   0  0  0  0  0  1  0  0  0  0  0  0
  192.4500  177.8670  140.0970 O   0  0  0  0  0  0  0  0  0  0  0  0
  192.9260  175.7330  137.2280 C   0  0  2  0  0  3  0  0  0  0  0  0
  192.2390  176.9560  139.2530 C   0  0  0  0  0  0  0  0  0  0  0  0
  191.7330  173.6890  137.6910 O   0  0  0  0  0  1  0  0  0  0  0  0
  193.2300  176.1360  135.9150 O   0  0  0  0  0  0  0  0  0  0  0  0
  194.6220  176.3630  135.8180 C   0  0  2  0  0  3  0  0  0  0  0  0
  194.9800  177.1580  134.5700 C   0  0  0  0  0  1  0  0  0  0  0  0
  195.3720  175.1500  135.8780 O   0  0  0  0  0  0  0  0  0  0  0  0
  196.4010  174.9570  136.8020 C   0  0  0  0  0  0  0  0  0  0  0  0
  197.5390  175.4700  136.6150 O   0  0  0  0  0  0  0  0  0  0  0  0
  196.1330  174.1550  137.9990 C   0  0  0  0  0  3  0  0  0  0  0  0
  195.9900  174.7130  139.1580 N   0  0  0  0  0  2  0  0  0  0  0  0
  185.4530  172.8370  134.8690 C   0  0  0  0  0  0  0  0  0  0  0  0
  185.5860  171.6000  135.0600 O   0  0  0  0  0  1  0  0  0  0  0  0
  184.2500  173.3090  134.3500 O   0  0  0  0  0  0  0  0  0  0  0  0
  1  6  1  0  0  0  0
  1 18  1  1  0  0  0
  4  5  1  0  0  0  0
  5  8  1  0  0  0  0
  6  3  1  6  0  0  0
  7  4  1  6  0  0  0
  7  1  1  0  0  0  0
  8  6  1  0  0  0  0
  9 12  1  0  0  0  0
  9  2  1  0  0  0  0
 10  9  2  0  0  0  0
 11 13  2  0  0  0  0
 11 10  1  0  0  0  0
 12  3  1  0  0  0  0
 13 14  1  0  0  0  0
 14  7  1  0  0  0  0
 14 12  2  0  0  0  0
 15 23  1  1  0  0  0
 15 18  1  0  0  0  0
 16 22  1  0  0  0  0
 17 19  1  1  0  0  0
 18 17  1  0  0  0  0
 21 15  1  0  0  0  0
 21 16  1  0  0  0  0
 22 17  1  0  0  0  0
 22 20  2  0  0  0  0
 24 21  1  0  0  0  0
 25 27  1  0  0  0  0
 25 24  1  0  0  0  0
 26 25  1  0  0  0  0
 27 28  1  0  0  0  0
 28 30  1  0  0  0  0
 29 28  2  0  0  0  0
 30 31  2  0  0  0  0
 32 33  1  0  0  0  0
 32 10  1  0  0  0  0
 34 32  2  0  0  0  0
M  END
>  <MODEL>
6

>  <REMARK>
 VINA RESULT:      -4.6      4.799      7.539
  Name = 
  7 active torsions:
  status: ('A' for Active; 'I' for Inactive)
    1  A    between atoms: C_1  and  N_9
    2  A    between atoms: C_3  and  C_25
    3  A    between atoms: C_7  and  O_16
    4  A    between atoms: C_7  and  O_21
    5  A    between atoms: C_11  and  O_21
    6  A    between atoms: C_11  and  C_26
    7  A    between atoms: O_16  and  C_28
                            x       y       z     vdW  Elec       q    Type
                         _______ _______ _______ _____ _____    ______ ____

>  <TORSDO>
F 7

$$$$
=
 OpenBabel10272415343D

 34 37  0  0  1  0  0  0  0  0999 V2000
  189.4590  177.0080  137.3710 C   0  0  2  0  0  3  0  0  0  0  0  0
  184.6560  175.0570  137.3690 C   0  0  0  0  0  1  0  0  0  0  0  0
  186.9570  176.7370  137.8480 C   0  0  0  0  0  2  0  0  0  0  0  0
  188.9280  178.0670  135.1810 C   0  0  0  0  0  2  0  0  0  0  0  0
  187.7570  178.8100  135.8360 C   0  0  0  0  0  2  0  0  0  0  0  0
  188.1880  177.6620  137.9360 C   0  0  2  0  0  3  0  0  0  0  0  0
  189.1860  176.7310  135.8850 C   0  0  2  0  0  3  0  0  0  0  0  0
  187.9530  178.9610  137.2850 N   0  0  0  0  0  2  0  0  0  0  0  0
  185.7860  175.0300  136.3840 C   0  0  0  0  0  0  0  0  0  0  0  0
  185.7540  174.1750  135.2500 C   0  0  0  0  0  0  0  0  0  0  0  0
  186.8530  174.1540  134.3830 C   0  0  0  0  0  3  0  0  0  0  0  0
  186.9070  175.8590  136.6090 C   0  0  0  0  0  0  0  0  0  0  0  0
  187.9630  174.9630  134.6080 C   0  0  0  0  0  3  0  0  0  0  0  0
  188.0020  175.8120  135.7150 C   0  0  0  0  0  0  0  0  0  0  0  0
  190.7760  174.9900  137.2560 C   0  0  1  0  0  3  0  0  0  0  0  0
  192.4830  176.6930  137.9570 O   0  0  0  0  0  0  0  0  0  0  0  0
  190.5680  176.0660  139.3800 C   0  0  2  0  0  3  0  0  0  0  0  0
  189.8660  175.7840  138.1080 N   0  0  1  0  0  0  0  0  0  0  0  0
  189.6810  176.6300  140.3870 N   0  0  0  0  0  1  0  0  0  0  0  0
  192.1250  177.8230  139.9300 O   0  0  0  0  0  0  0  0  0  0  0  0
  192.2130  175.5630  137.1200 C   0  0  2  0  0  3  0  0  0  0  0  0
  191.7720  176.9150  139.1320 C   0  0  0  0  0  0  0  0  0  0  0  0
  190.8360  173.6760  137.7190 O   0  0  0  0  0  1  0  0  0  0  0  0
  192.4860  175.8900  135.7800 O   0  0  0  0  0  0  0  0  0  0  0  0
  193.5240  175.0550  135.3090 C   0  0  2  0  0  3  0  0  0  0  0  0
  194.1650  174.2580  136.4370 C   0  0  0  0  0  1  0  0  0  0  0  0
  194.5130  175.7830  134.5790 O   0  0  0  0  0  0  0  0  0  0  0  0
  195.4180  176.6400  135.2070 C   0  0  0  0  0  0  0  0  0  0  0  0
  195.0130  177.6630  135.8250 O   0  0  0  0  0  0  0  0  0  0  0  0
  196.8490  176.3280  135.1420 C   0  0  0  0  0  3  0  0  0  0  0  0
  197.5430  176.1550  136.2200 N   0  0  0  0  0  2  0  0  0  0  0  0
  184.6030  173.2990  134.9140 C   0  0  0  0  0  0  0  0  0  0  0  0
  183.5620  173.7620  134.3800 O   0  0  0  0  0  0  0  0  0  0  0  0
  184.6760  171.9300  135.1610 O   0  0  0  0  0  1  0  0  0  0  0  0
  1  6  1  0  0  0  0
  1 18  1  1  0  0  0
  4  5  1  0  0  0  0
  5  8  1  0  0  0  0
  6  3  1  6  0  0  0
  7  4  1  6  0  0  0
  7  1  1  0  0  0  0
  8  6  1  0  0  0  0
  9 12  1  0  0  0  0
  9  2  1  0  0  0  0
 10  9  2  0  0  0  0
 11 13  2  0  0  0  0
 11 10  1  0  0  0  0
 12  3  1  0  0  0  0
 13 14  1  0  0  0  0
 14  7  1  0  0  0  0
 14 12  2  0  0  0  0
 15 23  1  1  0  0  0
 15 18  1  0  0  0  0
 16 22  1  0  0  0  0
 17 19  1  1  0  0  0
 18 17  1  0  0  0  0
 21 15  1  0  0  0  0
 21 16  1  0  0  0  0
 22 17  1  0  0  0  0
 22 20  2  0  0  0  0
 24 21  1  0  0  0  0
 25 24  1  0  0  0  0
 25 26  1  0  0  0  0
 27 28  1  0  0  0  0
 27 25  1  0  0  0  0
 28 29  2  0  0  0  0
 30 28  1  0  0  0  0
 30 31  2  0  0  0  0
 32 34  1  0  0  0  0
 32 10  1  0  0  0  0
 33 32  2  0  0  0  0
M  END
>  <MODEL>
7

>  <REMARK>
 VINA RESULT:      -4.5      4.395      7.105
  Name = 
  7 active torsions:
  status: ('A' for Active; 'I' for Inactive)
    1  A    between atoms: C_1  and  N_9
    2  A    between atoms: C_3  and  C_25
    3  A    between atoms: C_7  and  O_16
    4  A    between atoms: C_7  and  O_21
    5  A    between atoms: C_11  and  O_21
    6  A    between atoms: C_11  and  C_26
    7  A    between atoms: O_16  and  C_28
                            x       y       z     vdW  Elec       q    Type
                         _______ _______ _______ _____ _____    ______ ____

>  <TORSDO>
F 7

$$$$
=
 OpenBabel10272415343D

 34 37  0  0  1  0  0  0  0  0999 V2000
  187.2200  175.6410  136.2010 C   0  0  2  0  0  3  0  0  0  0  0  0
  182.3800  175.5480  134.3460 C   0  0  0  0  0  1  0  0  0  0  0  0
  185.2600  175.4890  134.5580 C   0  0  0  0  0  2  0  0  0  0  0  0
  186.9600  173.2220  136.7330 C   0  0  0  0  0  2  0  0  0  0  0  0
  186.6710  172.9380  135.2550 C   0  0  0  0  0  2  0  0  0  0  0  0
  186.7790  175.3170  134.7640 C   0  0  2  0  0  3  0  0  0  0  0  0
  186.5050  174.6340  137.1150 C   0  0  2  0  0  3  0  0  0  0  0  0
  187.2410  173.9730  134.3810 N   0  0  0  0  0  2  0  0  0  0  0  0
  182.9990  175.1370  135.6480 C   0  0  0  0  0  0  0  0  0  0  0  0
  182.1960  174.8120  136.7750 C   0  0  0  0  0  0  0  0  0  0  0  0
  182.8220  174.4760  137.9810 C   0  0  0  0  0  3  0  0  0  0  0  0
  184.4070  175.0960  135.7510 C   0  0  0  0  0  0  0  0  0  0  0  0
  184.2090  174.4440  138.0880 C   0  0  0  0  0  3  0  0  0  0  0  0
  185.0070  174.7550  136.9860 C   0  0  0  0  0  0  0  0  0  0  0  0
  187.4920  177.2790  137.9500 C   0  0  1  0  0  3  0  0  0  0  0  0
  189.6990  177.4090  136.7590 O   0  0  0  0  0  0  0  0  0  0  0  0
  187.5710  178.0420  135.6860 C   0  0  2  0  0  3  0  0  0  0  0  0
  186.9530  177.0480  136.5930 N   0  0  1  0  0  0  0  0  0  0  0  0
  186.9330  178.0660  134.3780 N   0  0  0  0  0  1  0  0  0  0  0  0
  189.6860  177.9740  134.5280 O   0  0  0  0  0  0  0  0  0  0  0  0
  189.0390  177.3960  138.0300 C   0  0  2  0  0  3  0  0  0  0  0  0
  189.0470  177.8230  135.6030 C   0  0  0  0  0  0  0  0  0  0  0  0
  186.9060  178.4150  138.5080 O   0  0  0  0  0  1  0  0  0  0  0  0
  189.5670  176.3660  138.8280 O   0  0  0  0  0  0  0  0  0  0  0  0
  190.2410  176.9430  139.9290 C   0  0  2  0  0  3  0  0  0  0  0  0
  191.7090  177.2030  139.6200 C   0  0  0  0  0  1  0  0  0  0  0  0
  190.1050  176.1610  141.1160 O   0  0  0  0  0  0  0  0  0  0  0  0
  189.9400  176.7430  142.3740 C   0  0  0  0  0  0  0  0  0  0  0  0
  190.8940  176.7720  143.2000 O   0  0  0  0  0  0  0  0  0  0  0  0
  188.6420  177.3300  142.7170 C   0  0  0  0  0  3  0  0  0  0  0  0
  187.7110  176.6170  143.2650 N   0  0  0  0  0  2  0  0  0  0  0  0
  180.7120  174.7920  136.7480 C   0  0  0  0  0  0  0  0  0  0  0  0
  180.0380  175.8230  137.0050 O   0  0  0  0  0  1  0  0  0  0  0  0
  180.0390  173.6220  136.4030 O   0  0  0  0  0  0  0  0  0  0  0  0
  1 18  1  1  0  0  0
  1  7  1  0  0  0  0
  2  9  1  0  0  0  0
  3 12  1  0  0  0  0
  5  4  1  0  0  0  0
  6  3  1  1  0  0  0
  6  1  1  0  0  0  0
  7  4  1  6  0  0  0
  8  6  1  0  0  0  0
  8  5  1  0  0  0  0
  9 12  2  0  0  0  0
  9 10  1  0  0  0  0
 10 11  2  0  0  0  0
 11 13  1  0  0  0  0
 12 14  1  0  0  0  0
 14  7  1  0  0  0  0
 14 13  2  0  0  0  0
 15 21  1  0  0  0  0
 15 23  1  6  0  0  0
 16 21  1  0  0  0  0
 17 19  1  6  0  0  0
 17 18  1  0  0  0  0
 18 15  1  0  0  0  0
 20 22  2  0  0  0  0
 21 24  1  0  0  0  0
 22 17  1  0  0  0  0
 22 16  1  0  0  0  0
 24 25  1  0  0  0  0
 25 27  1  0  0  0  0
 26 25  1  0  0  0  0
 27 28  1  0  0  0  0
 28 30  1  0  0  0  0
 28 29  2  0  0  0  0
 30 31  2  0  0  0  0
 32 10  1  0  0  0  0
 32 33  1  0  0  0  0
 34 32  2  0  0  0  0
M  END
>  <MODEL>
8

>  <REMARK>
 VINA RESULT:      -4.4      3.306      4.799
  Name = 
  7 active torsions:
  status: ('A' for Active; 'I' for Inactive)
    1  A    between atoms: C_1  and  N_9
    2  A    between atoms: C_3  and  C_25
    3  A    between atoms: C_7  and  O_16
    4  A    between atoms: C_7  and  O_21
    5  A    between atoms: C_11  and  O_21
    6  A    between atoms: C_11  and  C_26
    7  A    between atoms: O_16  and  C_28
                            x       y       z     vdW  Elec       q    Type
                         _______ _______ _______ _____ _____    ______ ____

>  <TORSDO>
F 7

$$$$
=
 OpenBabel10272415343D

 34 37  0  0  1  0  0  0  0  0999 V2000
  187.2950  175.9630  136.2470 C   0  0  2  0  0  3  0  0  0  0  0  0
  182.7730  177.6520  134.3570 C   0  0  0  0  0  1  0  0  0  0  0  0
  185.3360  176.3510  134.6420 C   0  0  0  0  0  2  0  0  0  0  0  0
  186.0390  174.1060  137.3300 C   0  0  0  0  0  2  0  0  0  0  0  0
  185.5270  173.6630  135.9550 C   0  0  0  0  0  2  0  0  0  0  0  0
  186.6330  175.5650  134.9180 C   0  0  2  0  0  3  0  0  0  0  0  0
  186.2910  175.6170  137.3580 C   0  0  2  0  0  3  0  0  0  0  0  0
  186.4190  174.1080  134.8740 N   0  0  0  0  0  2  0  0  0  0  0  0
  183.2560  177.3060  135.7330 C   0  0  0  0  0  0  0  0  0  0  0  0
  182.4940  177.6350  136.8860 C   0  0  0  0  0  0  0  0  0  0  0  0
  183.0080  177.3290  138.1520 C   0  0  0  0  0  3  0  0  0  0  0  0
  184.5040  176.6590  135.8750 C   0  0  0  0  0  0  0  0  0  0  0  0
  184.2410  176.7000  138.2940 C   0  0  0  0  0  3  0  0  0  0  0  0
  184.9960  176.3670  137.1690 C   0  0  0  0  0  0  0  0  0  0  0  0
  187.6630  177.8620  137.6890 C   0  0  1  0  0  3  0  0  0  0  0  0
  189.8270  176.6070  137.9090 O   0  0  0  0  0  0  0  0  0  0  0  0
  189.0860  177.6160  135.7840 C   0  0  2  0  0  3  0  0  0  0  0  0
  187.7130  177.3880  136.2900 N   0  0  1  0  0  0  0  0  0  0  0  0
  189.1840  177.4130  134.3460 N   0  0  0  0  0  1  0  0  0  0  0  0
  191.0600  176.2480  135.9980 O   0  0  0  0  0  0  0  0  0  0  0  0
  188.8120  177.3450  138.5970 C   0  0  2  0  0  3  0  0  0  0  0  0
  190.0660  176.7900  136.5510 C   0  0  0  0  0  0  0  0  0  0  0  0
  187.6330  179.2560  137.7180 O   0  0  0  0  0  1  0  0  0  0  0  0
  188.2930  176.5700  139.6490 O   0  0  0  0  0  0  0  0  0  0  0  0
  188.6990  177.1390  140.8780 C   0  0  2  0  0  3  0  0  0  0  0  0
  188.2350  178.5830  141.0130 C   0  0  0  0  0  1  0  0  0  0  0  0
  190.1090  177.0400  141.0800 O   0  0  0  0  0  0  0  0  0  0  0  0
  190.6670  176.8720  142.3480 C   0  0  0  0  0  0  0  0  0  0  0  0
  190.5680  175.7690  142.9540 O   0  0  0  0  0  0  0  0  0  0  0  0
  191.3800  177.9960  142.9620 C   0  0  0  0  0  3  0  0  0  0  0  0
  191.5290  178.0710  144.2450 N   0  0  0  0  0  2  0  0  0  0  0  0
  181.1570  178.2800  136.8300 C   0  0  0  0  0  0  0  0  0  0  0  0
  180.1000  177.6050  136.9350 O   0  0  0  0  0  1  0  0  0  0  0  0
  181.0570  179.6610  136.6900 O   0  0  0  0  0  0  0  0  0  0  0  0
  1 18  1  6  0  0  0
  1  7  1  0  0  0  0
  2  9  1  0  0  0  0
  3 12  1  0  0  0  0
  5  4  1  0  0  0  0
  6  3  1  1  0  0  0
  6  1  1  0  0  0  0
  7  4  1  6  0  0  0
  8  6  1  0  0  0  0
  8  5  1  0  0  0  0
  9 12  2  0  0  0  0
  9 10  1  0  0  0  0
 10 11  2  0  0  0  0
 11 13  1  0  0  0  0
 12 14  1  0  0  0  0
 14  7  1  0  0  0  0
 14 13  2  0  0  0  0
 15 23  1  6  0  0  0
 15 21  1  0  0  0  0
 16 21  1  0  0  0  0
 17 19  1  6  0  0  0
 17 18  1  0  0  0  0
 17 22  1  0  0  0  0
 18 15  1  0  0  0  0
 20 22  2  0  0  0  0
 21 24  1  0  0  0  0
 22 16  1  0  0  0  0
 24 25  1  0  0  0  0
 25 26  1  0  0  0  0
 25 27  1  0  0  0  0
 27 28  1  0  0  0  0
 28 29  2  0  0  0  0
 28 30  1  0  0  0  0
 30 31  2  0  0  0  0
 32 10  1  0  0  0  0
 32 33  1  0  0  0  0
 34 32  2  0  0  0  0
M  END
>  <MODEL>
9

>  <REMARK>
 VINA RESULT:      -4.3      3.489      5.466
  Name = 
  7 active torsions:
  status: ('A' for Active; 'I' for Inactive)
    1  A    between atoms: C_1  and  N_9
    2  A    between atoms: C_3  and  C_25
    3  A    between atoms: C_7  and  O_16
    4  A    between atoms: C_7  and  O_21
    5  A    between atoms: C_11  and  O_21
    6  A    between atoms: C_11  and  C_26
    7  A    between atoms: O_16  and  C_28
                            x       y       z     vdW  Elec       q    Type
                         _______ _______ _______ _____ _____    ______ ____

>  <TORSDO>
F 7

$$$$
