=
 OpenBabel10272401053D

 27 30  0  0  0  0  0  0  0  0999 V2000
  186.9170  178.2410  142.4160 C   0  0  0  0  0  0  0  0  0  0  0  0
  185.4240  178.4480  140.4800 O   0  0  0  0  0  0  0  0  0  0  0  0
  183.3460  178.7630  145.2030 C   0  0  0  0  0  3  0  0  0  0  0  0
  181.2760  179.0670  144.0440 F   0  0  0  0  0  0  0  0  0  0  0  0
  186.7630  178.2700  143.7080 N   0  0  0  0  0  0  0  0  0  0  0  0
  183.2780  178.7770  142.7610 C   0  0  0  0  0  0  0  0  0  0  0  0
  182.5790  178.8810  141.5650 O   0  0  0  0  0  1  0  0  0  0  0  0
  184.6570  178.5760  142.7740 C   0  0  0  0  0  0  0  0  0  0  0  0
  188.2040  178.1040  141.7760 N   0  0  0  0  0  0  0  0  0  0  0  0
  182.6170  178.8700  144.0000 C   0  0  0  0  0  0  0  0  0  0  0  0
  185.3680  178.4680  143.9440 C   0  0  0  0  0  0  0  0  0  0  0  0
  185.6350  178.4350  141.7210 C   0  0  0  0  0  0  0  0  0  0  0  0
  184.7390  178.5590  145.1850 C   0  0  0  0  0  3  0  0  0  0  0  0
  191.5530  176.2830  143.6820 C   0  0  0  0  0  3  0  0  0  0  0  0
  189.3300  177.4820  142.4360 C   0  0  0  0  0  0  0  0  0  0  0  0
  190.3890  178.2660  142.9300 C   0  0  0  0  0  3  0  0  0  0  0  0
  191.4910  177.6710  143.5510 C   0  0  0  0  0  3  0  0  0  0  0  0
  190.5150  175.4890  143.1890 C   0  0  0  0  0  3  0  0  0  0  0  0
  189.4150  176.0840  142.5680 C   0  0  0  0  0  3  0  0  0  0  0  0
  188.3690  178.6090  140.4120 C   0  0  0  0  0  2  0  0  0  0  0  0
  190.3790  175.3920  138.1170 C   0  0  0  0  0  2  0  0  0  0  0  0
  189.4780  175.8580  136.9810 C   0  0  0  0  0  2  0  0  0  0  0  0
  188.8480  177.5030  139.4820 C   0  0  0  0  0  3  0  0  0  0  0  0
  191.1100  176.5410  138.8180 C   0  0  0  0  0  2  0  0  0  0  0  0
  188.0740  176.1130  137.5140 C   0  0  0  0  0  2  0  0  0  0  0  0
  187.9650  177.4500  138.2400 C   0  0  0  0  0  2  0  0  0  0  0  0
  190.2780  177.8050  139.0580 C   0  0  0  0  0  2  0  0  0  0  0  0
  1  5  2  0  0  0  0
  2 12  2  0  0  0  0
  5 11  1  0  0  0  0
  6  8  2  0  0  0  0
  6 10  1  0  0  0  0
  7  6  1  0  0  0  0
  8 11  1  0  0  0  0
  9  1  1  0  0  0  0
  9 15  1  0  0  0  0
 10  4  1  0  0  0  0
 10  3  2  0  0  0  0
 11 13  2  0  0  0  0
 12  1  1  0  0  0  0
 12  8  1  0  0  0  0
 13  3  1  0  0  0  0
 15 19  2  0  0  0  0
 15 16  1  0  0  0  0
 16 17  2  0  0  0  0
 17 14  1  0  0  0  0
 18 14  2  0  0  0  0
 19 18  1  0  0  0  0
 20  9  1  0  0  0  0
 21 24  1  0  0  0  0
 22 25  1  0  0  0  0
 22 21  1  0  0  0  0
 23 20  1  0  0  0  0
 24 27  1  0  0  0  0
 25 26  1  0  0  0  0
 26 23  1  0  0  0  0
 27 23  1  0  0  0  0
M  END
>  <MODEL>
1

>  <REMARK>
 VINA RESULT:      -8.3      0.000      0.000
  Name = 
  3 active torsions:
  status: ('A' for Active; 'I' for Inactive)
    1  A    between atoms: C_1  and  N_15
    2  A    between atoms: C_1  and  C_18
    3  A    between atoms: C_9  and  N_15
                            x       y       z     vdW  Elec       q    Type
                         _______ _______ _______ _____ _____    ______ ____

>  <TORSDO>
F 3

$$$$
=
 OpenBabel10272401053D

 27 30  0  0  0  0  0  0  0  0999 V2000
  188.6100  177.6510  140.8930 C   0  0  0  0  0  0  0  0  0  0  0  0
  186.5250  178.6480  140.0690 O   0  0  0  0  0  0  0  0  0  0  0  0
  190.1320  177.3340  136.6070 C   0  0  0  0  0  3  0  0  0  0  0  0
  188.5750  178.1510  134.9860 F   0  0  0  0  0  0  0  0  0  0  0  0
  189.7030  177.2080  140.3420 N   0  0  0  0  0  0  0  0  0  0  0  0
  187.9660  178.2250  137.3010 C   0  0  0  0  0  0  0  0  0  0  0  0
  186.7320  178.7910  137.0040 O   0  0  0  0  0  1  0  0  0  0  0  0
  188.3360  177.9540  138.6170 C   0  0  0  0  0  0  0  0  0  0  0  0
  188.3600  177.5880  142.3140 N   0  0  0  0  0  0  0  0  0  0  0  0
  188.8850  177.9090  136.2830 C   0  0  0  0  0  0  0  0  0  0  0  0
  189.5510  177.3970  138.9350 C   0  0  0  0  0  0  0  0  0  0  0  0
  187.6630  178.1440  139.8810 C   0  0  0  0  0  0  0  0  0  0  0  0
  190.4780  177.0720  137.9460 C   0  0  0  0  0  3  0  0  0  0  0  0
  191.5510  177.4420  145.1350 C   0  0  0  0  0  3  0  0  0  0  0  0
  189.4320  177.5320  143.2830 C   0  0  0  0  0  0  0  0  0  0  0  0
  189.9500  178.7150  143.8420 C   0  0  0  0  0  3  0  0  0  0  0  0
  191.0000  178.6700  144.7640 C   0  0  0  0  0  3  0  0  0  0  0  0
  191.0550  176.2600  144.5830 C   0  0  0  0  0  3  0  0  0  0  0  0
  190.0060  176.3050  143.6610 C   0  0  0  0  0  3  0  0  0  0  0  0
  186.9740  177.5860  142.7850 C   0  0  0  0  0  2  0  0  0  0  0  0
  187.3620  178.3490  147.1350 C   0  0  0  0  0  2  0  0  0  0  0  0
  185.8680  178.6300  147.0580 C   0  0  0  0  0  2  0  0  0  0  0  0
  186.9010  177.9950  144.2500 C   0  0  0  0  0  3  0  0  0  0  0  0
  187.7670  177.0410  146.4460 C   0  0  0  0  0  2  0  0  0  0  0  0
  185.5690  179.4660  145.8190 C   0  0  0  0  0  2  0  0  0  0  0  0
  185.5450  178.6250  144.5460 C   0  0  0  0  0  2  0  0  0  0  0  0
  187.0680  176.7540  145.1130 C   0  0  0  0  0  2  0  0  0  0  0  0
  1  9  1  0  0  0  0
  3 13  1  0  0  0  0
  4 10  1  0  0  0  0
  5  1  2  0  0  0  0
  6  8  2  0  0  0  0
  7  6  1  0  0  0  0
  8 11  1  0  0  0  0
  8 12  1  0  0  0  0
  9 20  1  0  0  0  0
  9 15  1  0  0  0  0
 10  3  2  0  0  0  0
 10  6  1  0  0  0  0
 11  5  1  0  0  0  0
 12  2  2  0  0  0  0
 12  1  1  0  0  0  0
 13 11  2  0  0  0  0
 15 19  2  0  0  0  0
 15 16  1  0  0  0  0
 16 17  2  0  0  0  0
 17 14  1  0  0  0  0
 18 14  2  0  0  0  0
 19 18  1  0  0  0  0
 20 23  1  0  0  0  0
 22 21  1  0  0  0  0
 23 26  1  0  0  0  0
 23 27  1  0  0  0  0
 24 21  1  0  0  0  0
 25 22  1  0  0  0  0
 26 25  1  0  0  0  0
 27 24  1  0  0  0  0
M  END
>  <MODEL>
2

>  <REMARK>
 VINA RESULT:      -8.0      2.867      6.575
  Name = 
  3 active torsions:
  status: ('A' for Active; 'I' for Inactive)
    1  A    between atoms: C_1  and  N_15
    2  A    between atoms: C_1  and  C_18
    3  A    between atoms: C_9  and  N_15
                            x       y       z     vdW  Elec       q    Type
                         _______ _______ _______ _____ _____    ______ ____

>  <TORSDO>
F 3

$$$$
=
 OpenBabel10272401053D

 27 30  0  0  0  0  0  0  0  0999 V2000
  189.9690  177.4230  141.5560 C   0  0  0  0  0  0  0  0  0  0  0  0
  187.6990  178.1570  142.1280 O   0  0  0  0  0  0  0  0  0  0  0  0
  190.8790  176.8430  145.9860 C   0  0  0  0  0  3  0  0  0  0  0  0
  189.0380  177.3920  147.4110 F   0  0  0  0  0  0  0  0  0  0  0  0
  191.0110  177.0310  142.2310 N   0  0  0  0  0  0  0  0  0  0  0  0
  188.7670  177.6300  145.0430 C   0  0  0  0  0  0  0  0  0  0  0  0
  187.4590  178.0740  145.1930 O   0  0  0  0  0  1  0  0  0  0  0  0
  189.3460  177.5080  143.7810 C   0  0  0  0  0  0  0  0  0  0  0  0
  189.9670  177.5640  140.1190 N   0  0  0  0  0  0  0  0  0  0  0  0
  189.5520  177.2900  146.1600 C   0  0  0  0  0  0  0  0  0  0  0  0
  190.6370  177.0710  143.6090 C   0  0  0  0  0  0  0  0  0  0  0  0
  188.8500  177.7600  142.4490 C   0  0  0  0  0  0  0  0  0  0  0  0
  191.4360  176.7290  144.6990 C   0  0  0  0  0  3  0  0  0  0  0  0
  192.6400  175.4220  137.5840 C   0  0  0  0  0  3  0  0  0  0  0  0
  190.8740  176.8240  139.2700 C   0  0  0  0  0  0  0  0  0  0  0  0
  192.2110  177.2380  139.1240 C   0  0  0  0  0  3  0  0  0  0  0  0
  193.0880  176.5400  138.2890 C   0  0  0  0  0  3  0  0  0  0  0  0
  191.3140  175.0030  137.7100 C   0  0  0  0  0  3  0  0  0  0  0  0
  190.4380  175.7010  138.5440 C   0  0  0  0  0  3  0  0  0  0  0  0
  189.0090  178.4850  139.5040 C   0  0  0  0  0  2  0  0  0  0  0  0
  188.0770  176.8360  135.4960 C   0  0  0  0  0  2  0  0  0  0  0  0
  186.6730  177.3460  135.7880 C   0  0  0  0  0  2  0  0  0  0  0  0
  188.4500  177.9000  138.2140 C   0  0  0  0  0  3  0  0  0  0  0  0
  189.1670  177.8780  135.7710 C   0  0  0  0  0  2  0  0  0  0  0  0
  186.2970  177.0120  137.2260 C   0  0  0  0  0  2  0  0  0  0  0  0
  186.9270  177.9750  138.2270 C   0  0  0  0  0  2  0  0  0  0  0  0
  188.9750  178.7140  137.0410 C   0  0  0  0  0  2  0  0  0  0  0  0
  1  5  2  0  0  0  0
  1 12  1  0  0  0  0
  2 12  2  0  0  0  0
  3 10  1  0  0  0  0
  5 11  1  0  0  0  0
  6  7  1  0  0  0  0
  6 10  2  0  0  0  0
  8  6  1  0  0  0  0
  9  1  1  0  0  0  0
 10  4  1  0  0  0  0
 11  8  2  0  0  0  0
 11 13  1  0  0  0  0
 12  8  1  0  0  0  0
 13  3  2  0  0  0  0
 14 18  2  0  0  0  0
 14 17  1  0  0  0  0
 15  9  1  0  0  0  0
 16 15  1  0  0  0  0
 17 16  2  0  0  0  0
 18 19  1  0  0  0  0
 19 15  2  0  0  0  0
 20  9  1  0  0  0  0
 21 24  1  0  0  0  0
 21 22  1  0  0  0  0
 22 25  1  0  0  0  0
 23 26  1  0  0  0  0
 23 20  1  0  0  0  0
 24 27  1  0  0  0  0
 25 26  1  0  0  0  0
 27 23  1  0  0  0  0
M  END
>  <MODEL>
3

>  <REMARK>
 VINA RESULT:      -7.7      3.481      4.837
  Name = 
  3 active torsions:
  status: ('A' for Active; 'I' for Inactive)
    1  A    between atoms: C_1  and  N_15
    2  A    between atoms: C_1  and  C_18
    3  A    between atoms: C_9  and  N_15
                            x       y       z     vdW  Elec       q    Type
                         _______ _______ _______ _____ _____    ______ ____

>  <TORSDO>
F 3

$$$$
=
 OpenBabel10272401053D

 27 30  0  0  0  0  0  0  0  0999 V2000
  186.8130  177.9050  142.6660 C   0  0  0  0  0  0  0  0  0  0  0  0
  184.7990  178.0650  144.0590 O   0  0  0  0  0  0  0  0  0  0  0  0
  184.3680  179.1440  139.0220 C   0  0  0  0  0  3  0  0  0  0  0  0
  182.0600  179.5320  139.5170 F   0  0  0  0  0  0  0  0  0  0  0  0
  187.0810  178.0920  141.4050 N   0  0  0  0  0  0  0  0  0  0  0  0
  183.5190  178.8670  141.2960 C   0  0  0  0  0  0  0  0  0  0  0  0
  182.4810  178.9010  142.2190 O   0  0  0  0  0  1  0  0  0  0  0  0
  184.8130  178.5180  141.6790 C   0  0  0  0  0  0  0  0  0  0  0  0
  187.7940  177.4550  143.6240 N   0  0  0  0  0  0  0  0  0  0  0  0
  183.3000  179.1860  139.9430 C   0  0  0  0  0  0  0  0  0  0  0  0
  185.8550  178.4790  140.7850 C   0  0  0  0  0  0  0  0  0  0  0  0
  185.3890  178.1420  142.9490 C   0  0  0  0  0  0  0  0  0  0  0  0
  185.6640  178.7880  139.4390 C   0  0  0  0  0  3  0  0  0  0  0  0
  191.9820  178.0380  143.0940 C   0  0  0  0  0  3  0  0  0  0  0  0
  189.2120  177.6640  143.4320 C   0  0  0  0  0  0  0  0  0  0  0  0
  190.0010  176.6780  142.8120 C   0  0  0  0  0  3  0  0  0  0  0  0
  191.3750  176.8650  142.6410 C   0  0  0  0  0  3  0  0  0  0  0  0
  191.2160  179.0230  143.7200 C   0  0  0  0  0  3  0  0  0  0  0  0
  189.8420  178.8360  143.8900 C   0  0  0  0  0  3  0  0  0  0  0  0
  187.3340  176.7670  144.8320 C   0  0  0  0  0  2  0  0  0  0  0  0
  189.5720  178.5470  148.2200 C   0  0  0  0  0  2  0  0  0  0  0  0
  188.2610  178.3680  148.9730 C   0  0  0  0  0  2  0  0  0  0  0  0
  187.8740  177.4500  146.0810 C   0  0  0  0  0  3  0  0  0  0  0  0
  190.0080  177.2890  147.4600 C   0  0  0  0  0  2  0  0  0  0  0  0
  187.0990  178.7910  148.0820 C   0  0  0  0  0  2  0  0  0  0  0  0
  186.7350  177.7190  147.0590 C   0  0  0  0  0  2  0  0  0  0  0  0
  188.8870  176.5300  146.7440 C   0  0  0  0  0  2  0  0  0  0  0  0
  1 12  1  0  0  0  0
  1  9  1  0  0  0  0
  3 13  2  0  0  0  0
  3 10  1  0  0  0  0
  4 10  1  0  0  0  0
  5  1  2  0  0  0  0
  6  8  1  0  0  0  0
  6  7  1  0  0  0  0
  8 12  1  0  0  0  0
  9 20  1  0  0  0  0
 10  6  2  0  0  0  0
 11  5  1  0  0  0  0
 11  8  2  0  0  0  0
 12  2  2  0  0  0  0
 13 11  1  0  0  0  0
 14 18  1  0  0  0  0
 15  9  1  0  0  0  0
 15 19  1  0  0  0  0
 16 15  2  0  0  0  0
 17 16  1  0  0  0  0
 17 14  2  0  0  0  0
 18 19  2  0  0  0  0
 20 23  1  0  0  0  0
 21 22  1  0  0  0  0
 23 27  1  0  0  0  0
 23 26  1  0  0  0  0
 24 21  1  0  0  0  0
 25 22  1  0  0  0  0
 26 25  1  0  0  0  0
 27 24  1  0  0  0  0
M  END
>  <MODEL>
4

>  <REMARK>
 VINA RESULT:      -7.5      2.723      5.621
  Name = 
  3 active torsions:
  status: ('A' for Active; 'I' for Inactive)
    1  A    between atoms: C_1  and  N_15
    2  A    between atoms: C_1  and  C_18
    3  A    between atoms: C_9  and  N_15
                            x       y       z     vdW  Elec       q    Type
                         _______ _______ _______ _____ _____    ______ ____

>  <TORSDO>
F 3

$$$$
=
 OpenBabel10272401053D

 27 30  0  0  0  0  0  0  0  0999 V2000
  189.4390  177.2740  140.0650 C   0  0  0  0  0  0  0  0  0  0  0  0
  187.2990  178.4480  139.8190 O   0  0  0  0  0  0  0  0  0  0  0  0
  188.6930  176.8880  144.5460 C   0  0  0  0  0  3  0  0  0  0  0  0
  186.6280  177.8700  145.2510 F   0  0  0  0  0  0  0  0  0  0  0  0
  190.0990  176.7550  141.0600 N   0  0  0  0  0  0  0  0  0  0  0  0
  187.2130  177.9670  142.9300 C   0  0  0  0  0  0  0  0  0  0  0  0
  186.0420  178.6500  142.6190 O   0  0  0  0  0  1  0  0  0  0  0  0
  188.1420  177.6440  141.9430 C   0  0  0  0  0  0  0  0  0  0  0  0
  189.9420  177.3010  138.7120 N   0  0  0  0  0  0  0  0  0  0  0  0
  187.4980  177.5790  144.2520 C   0  0  0  0  0  0  0  0  0  0  0  0
  189.3040  176.9690  142.2270 C   0  0  0  0  0  0  0  0  0  0  0  0
  188.1770  177.8770  140.5180 C   0  0  0  0  0  0  0  0  0  0  0  0
  189.6120  176.5750  143.5280 C   0  0  0  0  0  3  0  0  0  0  0  0
  192.8200  174.5140  137.2580 C   0  0  0  0  0  3  0  0  0  0  0  0
  190.9160  176.3450  138.2320 C   0  0  0  0  0  0  0  0  0  0  0  0
  192.2870  176.6630  138.2330 C   0  0  0  0  0  3  0  0  0  0  0  0
  193.2320  175.7520  137.7530 C   0  0  0  0  0  3  0  0  0  0  0  0
  191.4630  174.1860  137.2420 C   0  0  0  0  0  3  0  0  0  0  0  0
  190.5180  175.0960  137.7220 C   0  0  0  0  0  3  0  0  0  0  0  0
  189.4440  178.3280  137.7960 C   0  0  0  0  0  2  0  0  0  0  0  0
  187.6080  176.1250  134.4150 C   0  0  0  0  0  2  0  0  0  0  0  0
  186.6750  177.3260  134.3460 C   0  0  0  0  0  2  0  0  0  0  0  0
  188.6030  177.7040  136.6910 C   0  0  0  0  0  3  0  0  0  0  0  0
  189.0880  176.5140  134.4920 C   0  0  0  0  0  2  0  0  0  0  0  0
  186.2520  177.7260  135.7550 C   0  0  0  0  0  2  0  0  0  0  0  0
  187.3330  178.5220  136.4790 C   0  0  0  0  0  2  0  0  0  0  0  0
  189.4110  177.7040  135.4020 C   0  0  0  0  0  2  0  0  0  0  0  0
  1 12  1  0  0  0  0
  1  5  2  0  0  0  0
  2 12  2  0  0  0  0
  5 11  1  0  0  0  0
  6 10  2  0  0  0  0
  7  6  1  0  0  0  0
  8 11  2  0  0  0  0
  8  6  1  0  0  0  0
  9  1  1  0  0  0  0
 10  3  1  0  0  0  0
 10  4  1  0  0  0  0
 11 13  1  0  0  0  0
 12  8  1  0  0  0  0
 13  3  2  0  0  0  0
 14 17  1  0  0  0  0
 15 16  1  0  0  0  0
 15  9  1  0  0  0  0
 17 16  2  0  0  0  0
 18 14  2  0  0  0  0
 18 19  1  0  0  0  0
 19 15  2  0  0  0  0
 20  9  1  0  0  0  0
 21 24  1  0  0  0  0
 22 21  1  0  0  0  0
 22 25  1  0  0  0  0
 23 20  1  0  0  0  0
 24 27  1  0  0  0  0
 25 26  1  0  0  0  0
 26 23  1  0  0  0  0
 27 23  1  0  0  0  0
M  END
>  <MODEL>
5

>  <REMARK>
 VINA RESULT:      -7.3      2.634      4.503
  Name = 
  3 active torsions:
  status: ('A' for Active; 'I' for Inactive)
    1  A    between atoms: C_1  and  N_15
    2  A    between atoms: C_1  and  C_18
    3  A    between atoms: C_9  and  N_15
                            x       y       z     vdW  Elec       q    Type
                         _______ _______ _______ _____ _____    ______ ____

>  <TORSDO>
F 3

$$$$
=
 OpenBabel10272401053D

 27 30  0  0  0  0  0  0  0  0999 V2000
  189.7180  177.6740  140.9360 C   0  0  0  0  0  0  0  0  0  0  0  0
  192.0700  177.2060  141.4560 O   0  0  0  0  0  0  0  0  0  0  0  0
  190.4600  176.4880  136.5960 C   0  0  0  0  0  3  0  0  0  0  0  0
  192.7210  175.8350  136.1660 F   0  0  0  0  0  0  0  0  0  0  0  0
  188.9790  177.6150  139.8660 N   0  0  0  0  0  0  0  0  0  0  0  0
  192.1210  176.4990  138.3880 C   0  0  0  0  0  0  0  0  0  0  0  0
  193.4160  176.2900  138.8470 O   0  0  0  0  0  1  0  0  0  0  0  0
  191.1170  176.9440  139.2450 C   0  0  0  0  0  0  0  0  0  0  0  0
  189.2270  178.1430  142.2100 N   0  0  0  0  0  0  0  0  0  0  0  0
  191.7810  176.2680  137.0420 C   0  0  0  0  0  0  0  0  0  0  0  0
  189.8300  177.1570  138.8130 C   0  0  0  0  0  0  0  0  0  0  0  0
  191.1050  177.2750  140.6510 C   0  0  0  0  0  0  0  0  0  0  0  0
  189.4660  176.9380  137.4860 C   0  0  0  0  0  3  0  0  0  0  0  0
  185.0990  178.0380  143.2660 C   0  0  0  0  0  3  0  0  0  0  0  0
  187.8250  178.0910  142.5620 C   0  0  0  0  0  0  0  0  0  0  0  0
  186.8820  178.8490  141.8450 C   0  0  0  0  0  3  0  0  0  0  0  0
  185.5280  178.8200  142.1920 C   0  0  0  0  0  3  0  0  0  0  0  0
  186.0240  177.2870  143.9950 C   0  0  0  0  0  3  0  0  0  0  0  0
  187.3770  177.3170  143.6480 C   0  0  0  0  0  3  0  0  0  0  0  0
  190.1840  178.6840  143.1770 C   0  0  0  0  0  2  0  0  0  0  0  0
  189.5400  176.5500  147.0090 C   0  0  0  0  0  2  0  0  0  0  0  0
  191.0610  176.5190  147.0640 C   0  0  0  0  0  2  0  0  0  0  0  0
  190.1930  177.8510  144.4510 C   0  0  0  0  0  3  0  0  0  0  0  0
  188.9760  177.9380  146.6860 C   0  0  0  0  0  2  0  0  0  0  0  0
  191.6150  176.1640  145.6890 C   0  0  0  0  0  2  0  0  0  0  0  0
  191.6070  177.3560  144.7370 C   0  0  0  0  0  2  0  0  0  0  0  0
  189.7320  178.7230  145.6100 C   0  0  0  0  0  2  0  0  0  0  0  0
  1  9  1  0  0  0  0
  3 10  2  0  0  0  0
  3 13  1  0  0  0  0
  4 10  1  0  0  0  0
  5  1  2  0  0  0  0
  6  7  1  0  0  0  0
  6  8  2  0  0  0  0
  8 12  1  0  0  0  0
  9 15  1  0  0  0  0
  9 20  1  0  0  0  0
 10  6  1  0  0  0  0
 11  8  1  0  0  0  0
 11  5  1  0  0  0  0
 12  1  1  0  0  0  0
 12  2  2  0  0  0  0
 13 11  2  0  0  0  0
 14 18  1  0  0  0  0
 15 19  1  0  0  0  0
 16 17  1  0  0  0  0
 16 15  2  0  0  0  0
 17 14  2  0  0  0  0
 19 18  2  0  0  0  0
 20 23  1  0  0  0  0
 21 22  1  0  0  0  0
 23 26  1  0  0  0  0
 23 27  1  0  0  0  0
 24 21  1  0  0  0  0
 25 22  1  0  0  0  0
 26 25  1  0  0  0  0
 27 24  1  0  0  0  0
M  END
>  <MODEL>
6

>  <REMARK>
 VINA RESULT:      -7.3      3.912      7.717
  Name = 
  3 active torsions:
  status: ('A' for Active; 'I' for Inactive)
    1  A    between atoms: C_1  and  N_15
    2  A    between atoms: C_1  and  C_18
    3  A    between atoms: C_9  and  N_15
                            x       y       z     vdW  Elec       q    Type
                         _______ _______ _______ _____ _____    ______ ____

>  <TORSDO>
F 3

$$$$
=
 OpenBabel10272401053D

 27 30  0  0  0  0  0  0  0  0999 V2000
  189.7660  177.2470  140.9610 C   0  0  0  0  0  0  0  0  0  0  0  0
  191.9820  177.2880  142.0130 O   0  0  0  0  0  0  0  0  0  0  0  0
  187.8250  177.5320  145.0770 C   0  0  0  0  0  3  0  0  0  0  0  0
  189.4100  177.6170  146.8670 F   0  0  0  0  0  0  0  0  0  0  0  0
  188.5380  177.2860  141.3910 N   0  0  0  0  0  0  0  0  0  0  0  0
  190.2240  177.4620  144.6200 C   0  0  0  0  0  0  0  0  0  0  0  0
  191.5450  177.4660  145.0520 O   0  0  0  0  0  1  0  0  0  0  0  0
  189.9100  177.3830  143.2650 C   0  0  0  0  0  0  0  0  0  0  0  0
  190.1100  177.1040  139.5660 N   0  0  0  0  0  0  0  0  0  0  0  0
  189.1600  177.5390  145.5360 C   0  0  0  0  0  0  0  0  0  0  0  0
  188.6120  177.3780  142.8150 C   0  0  0  0  0  0  0  0  0  0  0  0
  190.7250  177.2940  142.0750 C   0  0  0  0  0  0  0  0  0  0  0  0
  187.5390  177.4510  143.7010 C   0  0  0  0  0  3  0  0  0  0  0  0
  187.4410  178.3210  136.4740 C   0  0  0  0  0  3  0  0  0  0  0  0
  189.2120  177.5060  138.5050 C   0  0  0  0  0  0  0  0  0  0  0  0
  189.3560  178.7600  137.8860 C   0  0  0  0  0  3  0  0  0  0  0  0
  188.4790  179.1640  136.8740 C   0  0  0  0  0  3  0  0  0  0  0  0
  187.2770  177.0770  137.0850 C   0  0  0  0  0  3  0  0  0  0  0  0
  188.1540  176.6740  138.0960 C   0  0  0  0  0  3  0  0  0  0  0  0
  191.4140  176.5380  139.2170 C   0  0  0  0  0  2  0  0  0  0  0  0
  190.7760  174.8080  135.1850 C   0  0  0  0  0  2  0  0  0  0  0  0
  192.2950  174.8420  135.1040 C   0  0  0  0  0  2  0  0  0  0  0  0
  191.4210  176.0470  137.7760 C   0  0  0  0  0  3  0  0  0  0  0  0
  190.2540  174.1880  136.4850 C   0  0  0  0  0  2  0  0  0  0  0  0
  192.8080  176.1640  135.6630 C   0  0  0  0  0  2  0  0  0  0  0  0
  192.8210  176.1800  137.1880 C   0  0  0  0  0  2  0  0  0  0  0  0
  191.0140  174.5810  137.7550 C   0  0  0  0  0  2  0  0  0  0  0  0
  1  5  2  0  0  0  0
  1 12  1  0  0  0  0
  2 12  2  0  0  0  0
  3 10  1  0  0  0  0
  5 11  1  0  0  0  0
  6  7  1  0  0  0  0
  6 10  2  0  0  0  0
  8  6  1  0  0  0  0
  9  1  1  0  0  0  0
 10  4  1  0  0  0  0
 11  8  2  0  0  0  0
 11 13  1  0  0  0  0
 12  8  1  0  0  0  0
 13  3  2  0  0  0  0
 14 17  2  0  0  0  0
 14 18  1  0  0  0  0
 15  9  1  0  0  0  0
 16 15  2  0  0  0  0
 17 16  1  0  0  0  0
 18 19  2  0  0  0  0
 19 15  1  0  0  0  0
 20  9  1  0  0  0  0
 21 24  1  0  0  0  0
 22 21  1  0  0  0  0
 22 25  1  0  0  0  0
 23 20  1  0  0  0  0
 24 27  1  0  0  0  0
 25 26  1  0  0  0  0
 26 23  1  0  0  0  0
 27 23  1  0  0  0  0
M  END
>  <MODEL>
7

>  <REMARK>
 VINA RESULT:      -7.2      3.647      5.506
  Name = 
  3 active torsions:
  status: ('A' for Active; 'I' for Inactive)
    1  A    between atoms: C_1  and  N_15
    2  A    between atoms: C_1  and  C_18
    3  A    between atoms: C_9  and  N_15
                            x       y       z     vdW  Elec       q    Type
                         _______ _______ _______ _____ _____    ______ ____

>  <TORSDO>
F 3

$$$$
=
 OpenBabel10272401053D

 27 30  0  0  0  0  0  0  0  0999 V2000
  185.5880  178.4150  143.9430 C   0  0  0  0  0  0  0  0  0  0  0  0
  185.8670  177.9930  141.5430 O   0  0  0  0  0  0  0  0  0  0  0  0
  181.1110  178.9920  143.3040 C   0  0  0  0  0  3  0  0  0  0  0  0
  180.4400  178.7440  141.0210 F   0  0  0  0  0  0  0  0  0  0  0  0
  184.5820  178.6930  144.7220 N   0  0  0  0  0  0  0  0  0  0  0  0
  182.7570  178.4820  141.5720 C   0  0  0  0  0  0  0  0  0  0  0  0
  183.0890  178.2310  140.2460 O   0  0  0  0  0  1  0  0  0  0  0  0
  183.7300  178.4890  142.5690 C   0  0  0  0  0  0  0  0  0  0  0  0
  186.9510  178.3330  144.4130 N   0  0  0  0  0  0  0  0  0  0  0  0
  181.4260  178.7380  141.9520 C   0  0  0  0  0  0  0  0  0  0  0  0
  183.4250  178.7340  143.8860 C   0  0  0  0  0  0  0  0  0  0  0  0
  185.1570  178.2710  142.5440 C   0  0  0  0  0  0  0  0  0  0  0  0
  182.1150  178.9920  144.2890 C   0  0  0  0  0  3  0  0  0  0  0  0
  187.9360  177.4910  148.4730 C   0  0  0  0  0  3  0  0  0  0  0  0
  187.2750  178.0330  145.7900 C   0  0  0  0  0  0  0  0  0  0  0  0
  186.7620  178.8260  146.8320 C   0  0  0  0  0  3  0  0  0  0  0  0
  187.0870  178.5540  148.1640 C   0  0  0  0  0  3  0  0  0  0  0  0
  188.4620  176.6990  147.4500 C   0  0  0  0  0  3  0  0  0  0  0  0
  188.1370  176.9710  146.1190 C   0  0  0  0  0  3  0  0  0  0  0  0
  188.0380  178.5580  143.4590 C   0  0  0  0  0  2  0  0  0  0  0  0
  191.6660  176.4530  144.8950 C   0  0  0  0  0  2  0  0  0  0  0  0
  191.6800  175.8550  143.4950 C   0  0  0  0  0  2  0  0  0  0  0  0
  189.2270  177.6610  143.7750 C   0  0  0  0  0  3  0  0  0  0  0  0
  191.4900  177.9750  144.8990 C   0  0  0  0  0  2  0  0  0  0  0  0
  190.2640  175.4550  143.0960 C   0  0  0  0  0  2  0  0  0  0  0  0
  189.4300  176.6510  142.6500 C   0  0  0  0  0  2  0  0  0  0  0  0
  190.4740  178.5240  143.8930 C   0  0  0  0  0  2  0  0  0  0  0  0
  1  9  1  0  0  0  0
  1  5  2  0  0  0  0
  2 12  2  0  0  0  0
  3 13  1  0  0  0  0
  4 10  1  0  0  0  0
  6 10  1  0  0  0  0
  6  8  2  0  0  0  0
  7  6  1  0  0  0  0
  8 11  1  0  0  0  0
  9 15  1  0  0  0  0
 10  3  2  0  0  0  0
 11 13  2  0  0  0  0
 11  5  1  0  0  0  0
 12  8  1  0  0  0  0
 12  1  1  0  0  0  0
 15 19  2  0  0  0  0
 15 16  1  0  0  0  0
 16 17  2  0  0  0  0
 17 14  1  0  0  0  0
 18 14  2  0  0  0  0
 19 18  1  0  0  0  0
 20 23  1  0  0  0  0
 20  9  1  0  0  0  0
 21 24  1  0  0  0  0
 22 21  1  0  0  0  0
 23 27  1  0  0  0  0
 25 22  1  0  0  0  0
 26 25  1  0  0  0  0
 26 23  1  0  0  0  0
 27 24  1  0  0  0  0
M  END
>  <MODEL>
8

>  <REMARK>
 VINA RESULT:      -7.1      2.690      4.173
  Name = 
  3 active torsions:
  status: ('A' for Active; 'I' for Inactive)
    1  A    between atoms: C_1  and  N_15
    2  A    between atoms: C_1  and  C_18
    3  A    between atoms: C_9  and  N_15
                            x       y       z     vdW  Elec       q    Type
                         _______ _______ _______ _____ _____    ______ ____

>  <TORSDO>
F 3

$$$$
=
 OpenBabel10272401053D

 27 30  0  0  0  0  0  0  0  0999 V2000
  188.8500  177.6750  140.1830 C   0  0  0  0  0  0  0  0  0  0  0  0
  191.2090  177.0060  140.1140 O   0  0  0  0  0  0  0  0  0  0  0  0
  188.3960  176.4630  135.8110 C   0  0  0  0  0  3  0  0  0  0  0  0
  190.4180  175.6250  134.8460 F   0  0  0  0  0  0  0  0  0  0  0  0
  187.8670  177.6860  139.3290 N   0  0  0  0  0  0  0  0  0  0  0  0
  190.4430  176.3210  137.1380 C   0  0  0  0  0  0  0  0  0  0  0  0
  191.7890  175.9990  137.2660 O   0  0  0  0  0  1  0  0  0  0  0  0
  189.7210  176.8430  138.2100 C   0  0  0  0  0  0  0  0  0  0  0  0
  188.7290  178.1750  141.5330 N   0  0  0  0  0  0  0  0  0  0  0  0
  189.7630  176.1290  135.9210 C   0  0  0  0  0  0  0  0  0  0  0  0
  188.3900  177.1660  138.1060 C   0  0  0  0  0  0  0  0  0  0  0  0
  190.0840  177.1620  139.5700 C   0  0  0  0  0  0  0  0  0  0  0  0
  187.6930  176.9880  136.9120 C   0  0  0  0  0  3  0  0  0  0  0  0
  184.9950  178.4110  143.5750 C   0  0  0  0  0  3  0  0  0  0  0  0
  187.4580  178.2390  142.2200 C   0  0  0  0  0  0  0  0  0  0  0  0
  186.4340  179.0810  141.7490 C   0  0  0  0  0  3  0  0  0  0  0  0
  185.2110  179.1640  142.4190 C   0  0  0  0  0  3  0  0  0  0  0  0
  186.0040  177.5760  144.0610 C   0  0  0  0  0  3  0  0  0  0  0  0
  187.2270  177.4940  143.3910 C   0  0  0  0  0  3  0  0  0  0  0  0
  189.9360  178.6260  142.2260 C   0  0  0  0  0  2  0  0  0  0  0  0
  190.1560  176.5650  146.1450 C   0  0  0  0  0  2  0  0  0  0  0  0
  191.5870  176.2580  145.7240 C   0  0  0  0  0  2  0  0  0  0  0  0
  190.1960  177.7790  143.4640 C   0  0  0  0  0  3  0  0  0  0  0  0
  189.7760  178.0380  145.9620 C   0  0  0  0  0  2  0  0  0  0  0  0
  191.6100  175.8370  144.2600 C   0  0  0  0  0  2  0  0  0  0  0  0
  191.5160  177.0300  143.3140 C   0  0  0  0  0  2  0  0  0  0  0  0
  190.2840  178.6960  144.6750 C   0  0  0  0  0  2  0  0  0  0  0  0
  1  9  1  0  0  0  0
  3 10  2  0  0  0  0
  3 13  1  0  0  0  0
  4 10  1  0  0  0  0
  5  1  2  0  0  0  0
  6  7  1  0  0  0  0
  6  8  2  0  0  0  0
  8 12  1  0  0  0  0
  9 15  1  0  0  0  0
  9 20  1  0  0  0  0
 10  6  1  0  0  0  0
 11  8  1  0  0  0  0
 11  5  1  0  0  0  0
 12  2  2  0  0  0  0
 12  1  1  0  0  0  0
 13 11  2  0  0  0  0
 14 18  1  0  0  0  0
 15 19  1  0  0  0  0
 16 15  2  0  0  0  0
 16 17  1  0  0  0  0
 17 14  2  0  0  0  0
 19 18  2  0  0  0  0
 20 23  1  0  0  0  0
 22 21  1  0  0  0  0
 23 27  1  0  0  0  0
 24 21  1  0  0  0  0
 25 22  1  0  0  0  0
 26 23  1  0  0  0  0
 26 25  1  0  0  0  0
 27 24  1  0  0  0  0
M  END
>  <MODEL>
9

>  <REMARK>
 VINA RESULT:      -7.0      3.570      7.173
  Name = 
  3 active torsions:
  status: ('A' for Active; 'I' for Inactive)
    1  A    between atoms: C_1  and  N_15
    2  A    between atoms: C_1  and  C_18
    3  A    between atoms: C_9  and  N_15
                            x       y       z     vdW  Elec       q    Type
                         _______ _______ _______ _____ _____    ______ ____

>  <TORSDO>
F 3

$$$$
