=
 OpenBabel10272402113D

 32 37  0  0  1  0  0  0  0  0999 V2000
  189.6210  177.3180  143.3210 C   0  0  0  0  0  0  0  0  0  0  0  0
  187.7620  177.6400  144.8650 C   0  0  0  0  0  0  0  0  0  0  0  0
  191.0610  176.9440  143.0540 C   0  0  0  0  0  2  0  0  0  0  0  0
  189.1210  177.3590  144.6420 C   0  0  0  0  0  0  0  0  0  0  0  0
  187.2160  177.6460  146.1670 C   0  0  0  0  0  0  0  0  0  0  0  0
  183.4650  179.2960  143.2150 C   0  0  0  0  0  2  0  0  0  0  0  0
  186.9180  177.8830  143.7650 C   0  0  0  0  0  0  0  0  0  0  0  0
  183.6420  178.4550  145.5350 C   0  0  0  0  0  3  0  0  0  0  0  0
  185.0670  178.1720  145.2960 C   0  0  0  0  0  0  0  0  0  0  0  0
  190.0520  177.2300  145.8290 C   0  0  1  0  0  3  0  0  0  0  0  0
  185.8930  177.9120  146.3420 N   0  0  0  0  0  0  0  0  0  0  0  0
  189.3350  176.5900  147.0140 C   0  0  0  0  0  2  0  0  0  0  0  0
  191.3160  176.4570  145.4860 C   0  0  0  0  0  2  0  0  0  0  0  0
  187.4250  177.8340  142.5040 N   0  0  0  0  0  0  0  0  0  0  0  0
  188.7320  177.5530  142.2460 C   0  0  0  0  0  0  0  0  0  0  0  0
  185.5630  178.1630  143.9790 C   0  0  0  0  0  0  0  0  0  0  0  0
  188.0760  177.3890  147.3760 C   0  0  1  0  0  3  0  0  0  0  0  0
  191.9650  177.1060  144.2740 C   0  0  0  0  0  2  0  0  0  0  0  0
  182.8760  178.9380  144.5540 C   0  0  0  0  0  3  0  0  0  0  0  0
  184.6050  178.3460  142.8300 C   0  0  0  0  0  2  0  0  0  0  0  0
  189.2430  178.2960  138.6430 C   0  0  0  0  0  0  0  0  0  0  0  0
  188.9360  179.1510  137.7720 O   0  0  0  0  0  0  0  0  0  0  0  0
  189.1750  177.4850  140.8770 N   0  0  0  0  0  0  0  0  0  0  0  0
  189.9840  177.2500  138.3050 O   0  0  0  0  0  0  0  0  0  0  0  0
  189.9160  176.4470  140.4820 N   0  0  0  0  0  0  0  0  0  0  0  0
  188.8130  178.4390  139.9650 C   0  0  0  0  0  0  0  0  0  0  0  0
  188.1150  179.4360  140.3040 O   0  0  0  0  0  0  0  0  0  0  0  0
  190.3280  176.3260  139.1940 C   0  0  0  0  0  0  0  0  0  0  0  0
  191.9530  175.2740  137.6840 C   0  0  0  0  0  1  0  0  0  0  0  0
  191.1060  175.2310  138.8210 O   0  0  0  0  0  0  0  0  0  0  0  0
  188.4370  178.7040  148.0510 C   0  0  0  0  0  2  0  0  0  0  0  0
  189.4960  178.5110  148.9380 O   0  0  0  0  0  1  0  0  0  0  0  0
  1  4  1  0  0  0  0
  2  5  1  0  0  0  0
  3  1  1  0  0  0  0
  3 18  1  0  0  0  0
  4  2  2  0  0  0  0
  4 10  1  0  0  0  0
  5 11  2  0  0  0  0
  5 17  1  0  0  0  0
  6 19  1  0  0  0  0
  7 16  1  0  0  0  0
  7  2  1  0  0  0  0
  9  8  1  0  0  0  0
  9 11  1  0  0  0  0
 10 13  1  6  0  0  0
 10 12  1  0  0  0  0
 12 17  1  0  0  0  0
 14  7  2  0  0  0  0
 15 14  1  0  0  0  0
 15  1  2  0  0  0  0
 16  9  2  0  0  0  0
 17 31  1  6  0  0  0
 18 13  1  0  0  0  0
 19  8  2  0  0  0  0
 20  6  1  0  0  0  0
 20 16  1  0  0  0  0
 21 26  1  0  0  0  0
 22 21  2  0  0  0  0
 23 15  1  0  0  0  0
 24 21  1  0  0  0  0
 24 28  1  0  0  0  0
 25 23  1  0  0  0  0
 26 27  2  0  0  0  0
 26 23  1  0  0  0  0
 28 25  2  0  0  0  0
 29 30  1  0  0  0  0
 30 28  1  0  0  0  0
 31 32  1  0  0  0  0
M  END
>  <MODEL>
1

>  <REMARK>
 VINA RESULT:     -10.7      0.000      0.000
  Name = 
  3 active torsions:
  status: ('A' for Active; 'I' for Inactive)
    1  A    between atoms: C_13  and  C_29
    2  A    between atoms: O_15  and  C_26
    3  A    between atoms: N_16  and  C_27
                            x       y       z     vdW  Elec       q    Type
                         _______ _______ _______ _____ _____    ______ ____

>  <TORSDO>
F 3

$$$$
=
 OpenBabel10272402113D

 32 37  0  0  1  0  0  0  0  0999 V2000
  185.7460  178.3180  144.2340 C   0  0  0  0  0  0  0  0  0  0  0  0
  188.1540  177.9420  144.2780 C   0  0  0  0  0  0  0  0  0  0  0  0
  184.4450  178.6020  144.9490 C   0  0  0  0  0  2  0  0  0  0  0  0
  186.9420  178.1340  144.9640 C   0  0  0  0  0  0  0  0  0  0  0  0
  189.3760  177.7990  144.9710 C   0  0  0  0  0  0  0  0  0  0  0  0
  190.5480  176.9020  140.1410 C   0  0  0  0  0  2  0  0  0  0  0  0
  188.1560  177.9270  142.8710 C   0  0  0  0  0  0  0  0  0  0  0  0
  191.8250  177.3910  142.2030 C   0  0  0  0  0  3  0  0  0  0  0  0
  190.5510  177.5840  142.9150 C   0  0  0  0  0  0  0  0  0  0  0  0
  186.9210  178.0170  146.4730 C   0  0  1  0  0  3  0  0  0  0  0  0
  190.5310  177.6240  144.2730 N   0  0  0  0  0  0  0  0  0  0  0  0
  188.2200  178.5430  147.0760 C   0  0  0  0  0  2  0  0  0  0  0  0
  185.7210  178.7200  147.0870 C   0  0  0  0  0  2  0  0  0  0  0  0
  186.9910  178.1090  142.1940 N   0  0  0  0  0  0  0  0  0  0  0  0
  185.7990  178.3120  142.8210 C   0  0  0  0  0  0  0  0  0  0  0  0
  189.3600  177.7350  142.1810 C   0  0  0  0  0  0  0  0  0  0  0  0
  189.4270  177.8110  146.4760 C   0  0  1  0  0  3  0  0  0  0  0  0
  184.4600  178.1960  146.4200 C   0  0  0  0  0  2  0  0  0  0  0  0
  191.8330  177.1180  140.8950 C   0  0  0  0  0  3  0  0  0  0  0  0
  189.4240  177.7970  140.6760 C   0  0  0  0  0  2  0  0  0  0  0  0
  183.5270  179.1630  140.0080 C   0  0  0  0  0  0  0  0  0  0  0  0
  183.5620  179.5230  138.8020 O   0  0  0  0  0  0  0  0  0  0  0  0
  184.6200  178.5330  142.0240 N   0  0  0  0  0  0  0  0  0  0  0  0
  182.3580  179.0020  140.6130 O   0  0  0  0  0  0  0  0  0  0  0  0
  183.4170  178.3950  142.5880 N   0  0  0  0  0  0  0  0  0  0  0  0
  184.7090  178.9270  140.7170 C   0  0  0  0  0  0  0  0  0  0  0  0
  185.8300  179.0660  140.1510 O   0  0  0  0  0  0  0  0  0  0  0  0
  182.2790  178.6240  141.8840 C   0  0  0  0  0  0  0  0  0  0  0  0
  180.8530  178.7660  143.8770 C   0  0  0  0  0  1  0  0  0  0  0  0
  181.0420  178.4620  142.5040 O   0  0  0  0  0  0  0  0  0  0  0  0
  189.5250  176.3870  147.0070 C   0  0  0  0  0  2  0  0  0  0  0  0
  190.8350  176.1120  147.3960 O   0  0  0  0  0  1  0  0  0  0  0  0
  1  3  1  0  0  0  0
  1  4  1  0  0  0  0
  2  4  2  0  0  0  0
  2  5  1  0  0  0  0
  3 18  1  0  0  0  0
  4 10  1  0  0  0  0
  5 17  1  0  0  0  0
  6 20  1  0  0  0  0
  6 19  1  0  0  0  0
  7  2  1  0  0  0  0
  8  9  1  0  0  0  0
  9 11  1  0  0  0  0
 10 12  1  1  0  0  0
 10 13  1  0  0  0  0
 11  5  2  0  0  0  0
 14 15  1  0  0  0  0
 14  7  2  0  0  0  0
 15  1  2  0  0  0  0
 16  7  1  0  0  0  0
 16  9  2  0  0  0  0
 17 31  1  1  0  0  0
 17 12  1  0  0  0  0
 18 13  1  0  0  0  0
 19  8  2  0  0  0  0
 20 16  1  0  0  0  0
 21 24  1  0  0  0  0
 21 26  1  0  0  0  0
 22 21  2  0  0  0  0
 23 25  1  0  0  0  0
 23 15  1  0  0  0  0
 24 28  1  0  0  0  0
 26 23  1  0  0  0  0
 27 26  2  0  0  0  0
 28 30  1  0  0  0  0
 28 25  2  0  0  0  0
 30 29  1  0  0  0  0
 31 32  1  0  0  0  0
M  END
>  <MODEL>
2

>  <REMARK>
 VINA RESULT:      -9.8      2.574      6.080
  Name = 
  3 active torsions:
  status: ('A' for Active; 'I' for Inactive)
    1  A    between atoms: C_13  and  C_29
    2  A    between atoms: O_15  and  C_26
    3  A    between atoms: N_16  and  C_27
                            x       y       z     vdW  Elec       q    Type
                         _______ _______ _______ _____ _____    ______ ____

>  <TORSDO>
F 3

$$$$
=
 OpenBabel10272402113D

 32 37  0  0  1  0  0  0  0  0999 V2000
  187.3080  177.8660  144.1110 C   0  0  0  0  0  0  0  0  0  0  0  0
  189.5970  177.4900  143.3620 C   0  0  0  0  0  0  0  0  0  0  0  0
  186.3020  178.0650  145.2220 C   0  0  0  0  0  2  0  0  0  0  0  0
  188.6650  177.6020  144.4080 C   0  0  0  0  0  0  0  0  0  0  0  0
  190.9680  177.2710  143.6200 C   0  0  0  0  0  0  0  0  0  0  0  0
  190.5570  176.9330  138.5980 C   0  0  0  0  0  2  0  0  0  0  0  0
  189.1630  177.6370  142.0310 C   0  0  0  0  0  0  0  0  0  0  0  0
  192.4250  177.1860  140.2000 C   0  0  0  0  0  3  0  0  0  0  0  0
  191.4410  177.2940  141.2900 C   0  0  0  0  0  0  0  0  0  0  0  0
  189.1070  177.3130  145.8260 C   0  0  1  0  0  3  0  0  0  0  0  0
  191.8430  177.1780  142.5830 N   0  0  0  0  0  0  0  0  0  0  0  0
  190.5470  177.7690  146.0490 C   0  0  0  0  0  2  0  0  0  0  0  0
  188.1810  177.9400  146.8570 C   0  0  0  0  0  2  0  0  0  0  0  0
  187.8530  177.8930  141.7750 N   0  0  0  0  0  0  0  0  0  0  0  0
  186.9210  178.0220  142.7600 C   0  0  0  0  0  0  0  0  0  0  0  0
  190.0870  177.5260  140.9850 C   0  0  0  0  0  0  0  0  0  0  0  0
  191.4830  177.1110  145.0270 C   0  0  1  0  0  3  0  0  0  0  0  0
  186.7590  177.4930  146.5620 C   0  0  0  0  0  2  0  0  0  0  0  0
  192.0190  177.0630  138.9340 C   0  0  0  0  0  3  0  0  0  0  0  0
  189.6850  177.7590  139.5510 C   0  0  0  0  0  2  0  0  0  0  0  0
  183.8990  179.0170  140.8440 C   0  0  0  0  0  0  0  0  0  0  0  0
  183.5490  179.3510  139.6820 O   0  0  0  0  0  0  0  0  0  0  0  0
  185.5610  178.3310  142.3990 N   0  0  0  0  0  0  0  0  0  0  0  0
  182.9970  178.9700  141.8140 O   0  0  0  0  0  0  0  0  0  0  0  0
  184.6160  178.3080  143.3410 N   0  0  0  0  0  0  0  0  0  0  0  0
  185.2300  178.6920  141.1220 C   0  0  0  0  0  0  0  0  0  0  0  0
  186.0980  178.7220  140.2050 O   0  0  0  0  0  0  0  0  0  0  0  0
  183.3270  178.6230  143.0530 C   0  0  0  0  0  0  0  0  0  0  0  0
  180.9850  178.7430  143.7810 C   0  0  0  0  0  1  0  0  0  0  0  0
  182.3660  178.5810  144.0620 O   0  0  0  0  0  0  0  0  0  0  0  0
  191.6910  175.6370  145.3430 C   0  0  0  0  0  2  0  0  0  0  0  0
  192.3110  175.4970  146.5840 O   0  0  0  0  0  1  0  0  0  0  0  0
  1  4  1  0  0  0  0
  1  3  1  0  0  0  0
  2  5  1  0  0  0  0
  2  4  2  0  0  0  0
  3 18  1  0  0  0  0
  4 10  1  0  0  0  0
  5 17  1  0  0  0  0
  6 19  1  0  0  0  0
  6 20  1  0  0  0  0
  7  2  1  0  0  0  0
  8  9  1  0  0  0  0
  9 11  1  0  0  0  0
 10 12  1  6  0  0  0
 10 13  1  0  0  0  0
 11  5  2  0  0  0  0
 14  7  2  0  0  0  0
 14 15  1  0  0  0  0
 15  1  2  0  0  0  0
 16  9  2  0  0  0  0
 16  7  1  0  0  0  0
 17 31  1  1  0  0  0
 17 12  1  0  0  0  0
 18 13  1  0  0  0  0
 19  8  2  0  0  0  0
 20 16  1  0  0  0  0
 21 26  1  0  0  0  0
 21 24  1  0  0  0  0
 22 21  2  0  0  0  0
 23 15  1  0  0  0  0
 23 25  1  0  0  0  0
 24 28  1  0  0  0  0
 26 23  1  0  0  0  0
 27 26  2  0  0  0  0
 28 25  2  0  0  0  0
 28 30  1  0  0  0  0
 29 30  1  0  0  0  0
 31 32  1  0  0  0  0
M  END
>  <MODEL>
3

>  <REMARK>
 VINA RESULT:      -9.8      2.413      6.197
  Name = 
  3 active torsions:
  status: ('A' for Active; 'I' for Inactive)
    1  A    between atoms: C_13  and  C_29
    2  A    between atoms: O_15  and  C_26
    3  A    between atoms: N_16  and  C_27
                            x       y       z     vdW  Elec       q    Type
                         _______ _______ _______ _____ _____    ______ ____

>  <TORSDO>
F 3

$$$$
=
 OpenBabel10272402113D

 32 37  0  0  1  0  0  0  0  0999 V2000
  187.2810  178.2220  142.2610 C   0  0  0  0  0  0  0  0  0  0  0  0
  187.8540  177.9940  144.6190 C   0  0  0  0  0  0  0  0  0  0  0  0
  186.3250  178.6590  141.1750 C   0  0  0  0  0  2  0  0  0  0  0  0
  186.9240  178.3400  143.6230 C   0  0  0  0  0  0  0  0  0  0  0  0
  187.5500  178.1390  145.9900 C   0  0  0  0  0  0  0  0  0  0  0  0
  192.0230  175.7950  145.9270 C   0  0  0  0  0  2  0  0  0  0  0  0
  189.1280  177.5290  144.2430 C   0  0  0  0  0  0  0  0  0  0  0  0
  190.6790  176.9810  147.6320 C   0  0  0  0  0  3  0  0  0  0  0  0
  189.7070  177.3310  146.5840 C   0  0  0  0  0  0  0  0  0  0  0  0
  185.5130  178.7120  144.0270 C   0  0  1  0  0  3  0  0  0  0  0  0
  188.4790  177.8040  146.9260 N   0  0  0  0  0  0  0  0  0  0  0  0
  185.5100  179.4650  145.3550 C   0  0  0  0  0  2  0  0  0  0  0  0
  184.8010  179.5180  142.9520 C   0  0  0  0  0  2  0  0  0  0  0  0
  189.4450  177.4290  142.9250 N   0  0  0  0  0  0  0  0  0  0  0  0
  188.5780  177.7660  141.9300 C   0  0  0  0  0  0  0  0  0  0  0  0
  190.0590  177.1820  145.2300 C   0  0  0  0  0  0  0  0  0  0  0  0
  186.2030  178.6360  146.4440 C   0  0  1  0  0  3  0  0  0  0  0  0
  184.8750  178.7480  141.6440 C   0  0  0  0  0  2  0  0  0  0  0  0
  191.7870  176.3020  147.3240 C   0  0  0  0  0  3  0  0  0  0  0  0
  191.4620  176.7600  144.8760 C   0  0  0  0  0  2  0  0  0  0  0  0
  190.4080  176.7740  138.8540 C   0  0  0  0  0  0  0  0  0  0  0  0
  191.3160  175.9900  138.4710 O   0  0  0  0  0  0  0  0  0  0  0  0
  189.0120  177.6630  140.5600 N   0  0  0  0  0  0  0  0  0  0  0  0
  189.8250  177.5820  137.9800 O   0  0  0  0  0  0  0  0  0  0  0  0
  188.4630  178.4620  139.6420 N   0  0  0  0  0  0  0  0  0  0  0  0
  190.0060  176.7980  140.1930 C   0  0  0  0  0  0  0  0  0  0  0  0
  190.5450  176.0260  141.0350 O   0  0  0  0  0  0  0  0  0  0  0  0
  188.8640  178.4230  138.3450 C   0  0  0  0  0  0  0  0  0  0  0  0
  187.4180  178.7640  136.3910 C   0  0  0  0  0  1  0  0  0  0  0  0
  188.2630  179.2670  137.4130 O   0  0  0  0  0  0  0  0  0  0  0  0
  185.3330  177.4650  146.8790 C   0  0  0  0  0  2  0  0  0  0  0  0
  184.0570  177.9170  147.2150 O   0  0  0  0  0  1  0  0  0  0  0  0
  1  4  1  0  0  0  0
  2  5  1  0  0  0  0
  3 18  1  0  0  0  0
  3  1  1  0  0  0  0
  4 10  1  0  0  0  0
  4  2  2  0  0  0  0
  5 17  1  0  0  0  0
  5 11  2  0  0  0  0
  6 19  1  0  0  0  0
  7  2  1  0  0  0  0
  7 16  1  0  0  0  0
  9 11  1  0  0  0  0
  9  8  1  0  0  0  0
 10 13  1  6  0  0  0
 10 12  1  0  0  0  0
 12 17  1  0  0  0  0
 14  7  2  0  0  0  0
 15  1  2  0  0  0  0
 15 14  1  0  0  0  0
 16  9  2  0  0  0  0
 17 31  1  6  0  0  0
 18 13  1  0  0  0  0
 19  8  2  0  0  0  0
 20 16  1  0  0  0  0
 20  6  1  0  0  0  0
 21 26  1  0  0  0  0
 22 21  2  0  0  0  0
 23 15  1  0  0  0  0
 24 28  1  0  0  0  0
 24 21  1  0  0  0  0
 25 23  1  0  0  0  0
 26 23  1  0  0  0  0
 26 27  2  0  0  0  0
 28 25  2  0  0  0  0
 29 30  1  0  0  0  0
 30 28  1  0  0  0  0
 31 32  1  0  0  0  0
M  END
>  <MODEL>
4

>  <REMARK>
 VINA RESULT:      -9.5      1.760      4.817
  Name = 
  3 active torsions:
  status: ('A' for Active; 'I' for Inactive)
    1  A    between atoms: C_13  and  C_29
    2  A    between atoms: O_15  and  C_26
    3  A    between atoms: N_16  and  C_27
                            x       y       z     vdW  Elec       q    Type
                         _______ _______ _______ _____ _____    ______ ____

>  <TORSDO>
F 3

$$$$
=
 OpenBabel10272402113D

 32 37  0  0  1  0  0  0  0  0999 V2000
  189.5940  177.5230  143.3710 C   0  0  0  0  0  0  0  0  0  0  0  0
  187.6970  177.7790  144.8800 C   0  0  0  0  0  0  0  0  0  0  0  0
  191.0540  177.2120  143.1340 C   0  0  0  0  0  2  0  0  0  0  0  0
  189.0710  177.5590  144.6840 C   0  0  0  0  0  0  0  0  0  0  0  0
  187.1290  177.7780  146.1730 C   0  0  0  0  0  0  0  0  0  0  0  0
  183.3570  179.2140  143.1380 C   0  0  0  0  0  2  0  0  0  0  0  0
  186.8610  177.9690  143.7630 C   0  0  0  0  0  0  0  0  0  0  0  0
  183.5330  178.4140  145.4720 C   0  0  0  0  0  3  0  0  0  0  0  0
  184.9730  178.1930  145.2600 C   0  0  0  0  0  0  0  0  0  0  0  0
  189.9870  177.4890  145.8870 C   0  0  1  0  0  3  0  0  0  0  0  0
  185.7930  177.9860  146.3230 N   0  0  0  0  0  0  0  0  0  0  0  0
  189.2790  176.8320  147.0690 C   0  0  0  0  0  2  0  0  0  0  0  0
  191.2900  176.7700  145.5760 C   0  0  0  0  0  2  0  0  0  0  0  0
  187.3910  177.9260  142.5120 N   0  0  0  0  0  0  0  0  0  0  0  0
  188.7140  177.7020  142.2790 C   0  0  0  0  0  0  0  0  0  0  0  0
  185.4910  178.1900  143.9520 C   0  0  0  0  0  0  0  0  0  0  0  0
  187.9800  177.5770  147.4000 C   0  0  1  0  0  3  0  0  0  0  0  0
  191.9290  177.4310  144.3660 C   0  0  0  0  0  2  0  0  0  0  0  0
  182.7620  178.8480  144.4710 C   0  0  0  0  0  3  0  0  0  0  0  0
  184.5460  178.3130  142.7840 C   0  0  0  0  0  2  0  0  0  0  0  0
  190.5200  176.6920  139.1950 C   0  0  0  0  0  0  0  0  0  0  0  0
  191.3380  175.8270  138.7830 O   0  0  0  0  0  0  0  0  0  0  0  0
  189.1830  177.6360  140.9180 N   0  0  0  0  0  0  0  0  0  0  0  0
  190.0750  177.6240  138.3640 O   0  0  0  0  0  0  0  0  0  0  0  0
  188.7720  178.5570  140.0430 N   0  0  0  0  0  0  0  0  0  0  0  0
  190.0750  176.6790  140.5200 C   0  0  0  0  0  0  0  0  0  0  0  0
  190.4820  175.7900  141.3200 O   0  0  0  0  0  0  0  0  0  0  0  0
  189.2130  178.5540  138.7590 C   0  0  0  0  0  0  0  0  0  0  0  0
  187.9160  179.2000  136.7770 C   0  0  0  0  0  1  0  0  0  0  0  0
  188.7570  179.5270  137.8720 O   0  0  0  0  0  0  0  0  0  0  0  0
  188.2690  178.9170  148.0610 C   0  0  0  0  0  2  0  0  0  0  0  0
  189.3270  178.7870  148.9600 O   0  0  0  0  0  1  0  0  0  0  0  0
  1  4  1  0  0  0  0
  2  5  1  0  0  0  0
  3  1  1  0  0  0  0
  3 18  1  0  0  0  0
  4  2  2  0  0  0  0
  4 10  1  0  0  0  0
  5 11  2  0  0  0  0
  5 17  1  0  0  0  0
  6 19  1  0  0  0  0
  7 16  1  0  0  0  0
  7  2  1  0  0  0  0
  9  8  1  0  0  0  0
  9 11  1  0  0  0  0
 10 13  1  6  0  0  0
 10 12  1  0  0  0  0
 12 17  1  0  0  0  0
 14  7  2  0  0  0  0
 15 14  1  0  0  0  0
 15  1  2  0  0  0  0
 16  9  2  0  0  0  0
 17 31  1  6  0  0  0
 18 13  1  0  0  0  0
 19  8  2  0  0  0  0
 20  6  1  0  0  0  0
 20 16  1  0  0  0  0
 21 26  1  0  0  0  0
 22 21  2  0  0  0  0
 23 15  1  0  0  0  0
 24 28  1  0  0  0  0
 24 21  1  0  0  0  0
 25 23  1  0  0  0  0
 26 23  1  0  0  0  0
 26 27  2  0  0  0  0
 28 25  2  0  0  0  0
 29 30  1  0  0  0  0
 30 28  1  0  0  0  0
 31 32  1  0  0  0  0
M  END
>  <MODEL>
5

>  <REMARK>
 VINA RESULT:      -9.4      0.769      1.922
  Name = 
  3 active torsions:
  status: ('A' for Active; 'I' for Inactive)
    1  A    between atoms: C_13  and  C_29
    2  A    between atoms: O_15  and  C_26
    3  A    between atoms: N_16  and  C_27
                            x       y       z     vdW  Elec       q    Type
                         _______ _______ _______ _____ _____    ______ ____

>  <TORSDO>
F 3

$$$$
=
 OpenBabel10272402113D

 32 37  0  0  1  0  0  0  0  0999 V2000
  186.7680  178.3930  139.8490 C   0  0  0  0  0  0  0  0  0  0  0  0
  187.6690  177.9450  142.0700 C   0  0  0  0  0  0  0  0  0  0  0  0
  186.9220  178.4140  138.3460 C   0  0  0  0  0  2  0  0  0  0  0  0
  187.8530  178.0270  140.6780 C   0  0  0  0  0  0  0  0  0  0  0  0
  188.7150  177.5400  142.9270 C   0  0  0  0  0  0  0  0  0  0  0  0
  184.9980  178.9430  146.0450 C   0  0  0  0  0  2  0  0  0  0  0  0
  186.4060  178.2370  142.6170 C   0  0  0  0  0  0  0  0  0  0  0  0
  187.1040  177.6650  146.2750 C   0  0  0  0  0  3  0  0  0  0  0  0
  187.2920  177.7620  144.8190 C   0  0  0  0  0  0  0  0  0  0  0  0
  189.2410  177.8430  140.1050 C   0  0  1  0  0  3  0  0  0  0  0  0
  188.4970  177.4630  144.2670 N   0  0  0  0  0  0  0  0  0  0  0  0
  190.0280  176.8120  140.9100 C   0  0  0  0  0  2  0  0  0  0  0  0
  189.2100  177.4630  138.6330 C   0  0  0  0  0  2  0  0  0  0  0  0
  185.3800  178.5830  141.7960 N   0  0  0  0  0  0  0  0  0  0  0  0
  185.5130  178.6610  140.4430 C   0  0  0  0  0  0  0  0  0  0  0  0
  186.2160  178.1570  144.0030 C   0  0  0  0  0  0  0  0  0  0  0  0
  190.0840  177.2140  142.3890 C   0  0  1  0  0  3  0  0  0  0  0  0
  188.3770  178.4930  137.8870 C   0  0  0  0  0  2  0  0  0  0  0  0
  186.0110  178.1740  146.8500 C   0  0  0  0  0  3  0  0  0  0  0  0
  184.8610  178.3780  144.6260 C   0  0  0  0  0  2  0  0  0  0  0  0
  182.5090  178.4280  138.2700 C   0  0  0  0  0  0  0  0  0  0  0  0
  181.7700  177.5710  137.7200 O   0  0  0  0  0  0  0  0  0  0  0  0
  184.3620  179.0010  139.6450 N   0  0  0  0  0  0  0  0  0  0  0  0
  182.2600  179.7190  138.0990 O   0  0  0  0  0  0  0  0  0  0  0  0
  184.0730  180.2870  139.4340 N   0  0  0  0  0  0  0  0  0  0  0  0
  183.5900  178.0330  139.0640 C   0  0  0  0  0  0  0  0  0  0  0  0
  183.8330  176.8060  139.2450 O   0  0  0  0  0  0  0  0  0  0  0  0
  183.0170  180.6540  138.6630 C   0  0  0  0  0  0  0  0  0  0  0  0
  181.4540  182.4550  138.0800 C   0  0  0  0  0  1  0  0  0  0  0  0
  182.7420  182.0060  138.4710 O   0  0  0  0  0  0  0  0  0  0  0  0
  191.0240  178.3910  142.6030 C   0  0  0  0  0  2  0  0  0  0  0  0
  191.7840  178.1930  143.7560 O   0  0  0  0  0  1  0  0  0  0  0  0
  1 15  2  0  0  0  0
  1  4  1  0  0  0  0
  2  7  1  0  0  0  0
  2  5  1  0  0  0  0
  3  1  1  0  0  0  0
  4  2  2  0  0  0  0
  5 11  2  0  0  0  0
  6 19  1  0  0  0  0
  7 16  1  0  0  0  0
  8 19  2  0  0  0  0
  9  8  1  0  0  0  0
 10 13  1  6  0  0  0
 10  4  1  0  0  0  0
 10 12  1  0  0  0  0
 11  9  1  0  0  0  0
 12 17  1  0  0  0  0
 14  7  2  0  0  0  0
 15 14  1  0  0  0  0
 16 20  1  0  0  0  0
 16  9  2  0  0  0  0
 17 31  1  6  0  0  0
 17  5  1  0  0  0  0
 18  3  1  0  0  0  0
 18 13  1  0  0  0  0
 20  6  1  0  0  0  0
 21 26  1  0  0  0  0
 22 21  2  0  0  0  0
 23 15  1  0  0  0  0
 24 21  1  0  0  0  0
 24 28  1  0  0  0  0
 25 23  1  0  0  0  0
 26 27  2  0  0  0  0
 26 23  1  0  0  0  0
 28 25  2  0  0  0  0
 29 30  1  0  0  0  0
 30 28  1  0  0  0  0
 31 32  1  0  0  0  0
M  END
>  <MODEL>
6

>  <REMARK>
 VINA RESULT:      -9.3      3.427      5.882
  Name = 
  3 active torsions:
  status: ('A' for Active; 'I' for Inactive)
    1  A    between atoms: C_13  and  C_29
    2  A    between atoms: O_15  and  C_26
    3  A    between atoms: N_16  and  C_27
                            x       y       z     vdW  Elec       q    Type
                         _______ _______ _______ _____ _____    ______ ____

>  <TORSDO>
F 3

$$$$
=
 OpenBabel10272402113D

 32 37  0  0  1  0  0  0  0  0999 V2000
  184.1910  178.6560  142.5430 C   0  0  0  0  0  0  0  0  0  0  0  0
  186.5230  178.2620  143.1340 C   0  0  0  0  0  0  0  0  0  0  0  0
  182.7670  178.9700  142.9420 C   0  0  0  0  0  2  0  0  0  0  0  0
  185.1910  178.4830  143.5270 C   0  0  0  0  0  0  0  0  0  0  0  0
  187.5570  178.1290  144.0850 C   0  0  0  0  0  0  0  0  0  0  0  0
  189.7650  177.0880  139.6640 C   0  0  0  0  0  2  0  0  0  0  0  0
  186.8390  178.2080  141.7630 C   0  0  0  0  0  0  0  0  0  0  0  0
  190.5560  177.6250  141.9460 C   0  0  0  0  0  3  0  0  0  0  0  0
  189.1580  177.8470  142.3500 C   0  0  0  0  0  0  0  0  0  0  0  0
  184.8320  178.4080  144.9950 C   0  0  1  0  0  3  0  0  0  0  0  0
  188.8360  177.9250  143.6670 N   0  0  0  0  0  0  0  0  0  0  0  0
  185.9710  178.9410  145.8590 C   0  0  0  0  0  2  0  0  0  0  0  0
  183.5350  179.1380  145.3080 C   0  0  0  0  0  2  0  0  0  0  0  0
  185.8560  178.3800  140.8390 N   0  0  0  0  0  0  0  0  0  0  0  0
  184.5570  178.6100  141.1780 C   0  0  0  0  0  0  0  0  0  0  0  0
  188.1630  177.9870  141.3650 C   0  0  0  0  0  0  0  0  0  0  0  0
  187.2720  178.1820  145.5630 C   0  0  1  0  0  3  0  0  0  0  0  0
  182.4480  178.6050  144.3890 C   0  0  0  0  0  2  0  0  0  0  0  0
  190.8520  177.3150  140.6810 C   0  0  0  0  0  3  0  0  0  0  0  0
  188.5620  178.0060  139.9120 C   0  0  0  0  0  2  0  0  0  0  0  0
  182.0410  178.0310  138.5090 C   0  0  0  0  0  0  0  0  0  0  0  0
  181.4200  177.0940  137.9420 O   0  0  0  0  0  0  0  0  0  0  0  0
  183.5890  178.8180  140.1330 N   0  0  0  0  0  0  0  0  0  0  0  0
  181.8380  179.2820  138.1220 O   0  0  0  0  0  0  0  0  0  0  0  0
  183.3540  180.0590  139.7000 N   0  0  0  0  0  0  0  0  0  0  0  0
  182.9420  177.7660  139.5450 C   0  0  0  0  0  0  0  0  0  0  0  0
  183.1380  176.5790  139.9310 O   0  0  0  0  0  0  0  0  0  0  0  0
  182.4730  180.2990  138.6940 C   0  0  0  0  0  0  0  0  0  0  0  0
  180.9950  182.0170  137.7500 C   0  0  0  0  0  1  0  0  0  0  0  0
  182.2490  181.6080  138.2740 O   0  0  0  0  0  0  0  0  0  0  0  0
  187.2280  176.7730  146.1390 C   0  0  0  0  0  2  0  0  0  0  0  0
  188.0500  176.6910  147.2620 O   0  0  0  0  0  1  0  0  0  0  0  0
  1  3  1  0  0  0  0
  1  4  1  0  0  0  0
  2  4  2  0  0  0  0
  2  5  1  0  0  0  0
  3 18  1  0  0  0  0
  4 10  1  0  0  0  0
  5 17  1  0  0  0  0
  6 20  1  0  0  0  0
  6 19  1  0  0  0  0
  7  2  1  0  0  0  0
  8  9  1  0  0  0  0
  9 11  1  0  0  0  0
 10 13  1  6  0  0  0
 10 12  1  0  0  0  0
 11  5  2  0  0  0  0
 14 15  1  0  0  0  0
 14  7  2  0  0  0  0
 15  1  2  0  0  0  0
 16  7  1  0  0  0  0
 16  9  2  0  0  0  0
 17 12  1  0  0  0  0
 17 31  1  6  0  0  0
 18 13  1  0  0  0  0
 19  8  2  0  0  0  0
 20 16  1  0  0  0  0
 21 26  1  0  0  0  0
 22 21  2  0  0  0  0
 23 15  1  0  0  0  0
 24 21  1  0  0  0  0
 24 28  1  0  0  0  0
 25 23  1  0  0  0  0
 26 27  2  0  0  0  0
 26 23  1  0  0  0  0
 28 25  2  0  0  0  0
 29 30  1  0  0  0  0
 30 28  1  0  0  0  0
 31 32  1  0  0  0  0
M  END
>  <MODEL>
7

>  <REMARK>
 VINA RESULT:      -9.2      3.407      6.555
  Name = 
  3 active torsions:
  status: ('A' for Active; 'I' for Inactive)
    1  A    between atoms: C_13  and  C_29
    2  A    between atoms: O_15  and  C_26
    3  A    between atoms: N_16  and  C_27
                            x       y       z     vdW  Elec       q    Type
                         _______ _______ _______ _____ _____    ______ ____

>  <TORSDO>
F 3

$$$$
=
 OpenBabel10272402113D

 32 37  0  0  1  0  0  0  0  0999 V2000
  189.5420  177.4740  142.7300 C   0  0  0  0  0  0  0  0  0  0  0  0
  187.7740  178.0320  141.1470 C   0  0  0  0  0  0  0  0  0  0  0  0
  190.9910  177.1690  143.0310 C   0  0  0  0  0  2  0  0  0  0  0  0
  189.1110  177.6800  141.3990 C   0  0  0  0  0  0  0  0  0  0  0  0
  187.3170  178.2900  139.8360 C   0  0  0  0  0  0  0  0  0  0  0  0
  183.1440  178.4150  142.6780 C   0  0  0  0  0  2  0  0  0  0  0  0
  186.8800  178.1680  142.2250 C   0  0  0  0  0  0  0  0  0  0  0  0
  183.7370  179.1310  140.3850 C   0  0  0  0  0  3  0  0  0  0  0  0
  185.1330  178.7520  140.6560 C   0  0  0  0  0  0  0  0  0  0  0  0
  190.0360  177.4050  140.2330 C   0  0  1  0  0  3  0  0  0  0  0  0
  186.0180  178.6380  139.6310 N   0  0  0  0  0  0  0  0  0  0  0  0
  189.7060  178.3160  139.0540 C   0  0  0  0  0  2  0  0  0  0  0  0
  191.5010  177.5350  140.6180 C   0  0  0  0  0  2  0  0  0  0  0  0
  187.3220  177.9670  143.4950 N   0  0  0  0  0  0  0  0  0  0  0  0
  188.6120  177.6380  143.7830 C   0  0  0  0  0  0  0  0  0  0  0  0
  185.5460  178.5180  141.9810 C   0  0  0  0  0  0  0  0  0  0  0  0
  188.2350  178.1610  138.6490 C   0  0  1  0  0  3  0  0  0  0  0  0
  191.7640  176.6460  141.8230 C   0  0  0  0  0  2  0  0  0  0  0  0
  182.8100  179.0190  141.3400 C   0  0  0  0  0  3  0  0  0  0  0  0
  184.5750  178.7570  143.1080 C   0  0  0  0  0  2  0  0  0  0  0  0
  188.5530  177.5230  147.4950 C   0  0  0  0  0  0  0  0  0  0  0  0
  187.7600  177.6700  148.4610 O   0  0  0  0  0  0  0  0  0  0  0  0
  189.0020  177.4800  145.1610 N   0  0  0  0  0  0  0  0  0  0  0  0
  189.8270  177.2400  147.7270 O   0  0  0  0  0  0  0  0  0  0  0  0
  190.2760  177.2040  145.4500 N   0  0  0  0  0  0  0  0  0  0  0  0
  188.1040  177.6530  146.1780 C   0  0  0  0  0  0  0  0  0  0  0  0
  186.8900  177.9120  145.9400 O   0  0  0  0  0  0  0  0  0  0  0  0
  190.6950  177.0780  146.7350 C   0  0  0  0  0  0  0  0  0  0  0  0
  192.4030  175.7220  147.8640 C   0  0  0  0  0  1  0  0  0  0  0  0
  192.0320  176.7830  146.9970 O   0  0  0  0  0  0  0  0  0  0  0  0
  187.9970  176.8330  137.9450 C   0  0  0  0  0  2  0  0  0  0  0  0
  188.7250  176.7850  136.7560 O   0  0  0  0  0  1  0  0  0  0  0  0
  1  3  1  0  0  0  0
  1 15  1  0  0  0  0
  2  4  1  0  0  0  0
  2  7  1  0  0  0  0
  4  1  2  0  0  0  0
  5  2  2  0  0  0  0
  6 20  1  0  0  0  0
  7 14  1  0  0  0  0
  8  9  1  0  0  0  0
  8 19  2  0  0  0  0
  9 16  1  0  0  0  0
 10 12  1  6  0  0  0
 10 13  1  0  0  0  0
 10  4  1  0  0  0  0
 11  5  1  0  0  0  0
 11  9  2  0  0  0  0
 13 18  1  0  0  0  0
 14 15  2  0  0  0  0
 15 23  1  0  0  0  0
 16  7  2  0  0  0  0
 16 20  1  0  0  0  0
 17 31  1  1  0  0  0
 17 12  1  0  0  0  0
 17  5  1  0  0  0  0
 18  3  1  0  0  0  0
 19  6  1  0  0  0  0
 21 24  1  0  0  0  0
 21 22  2  0  0  0  0
 23 25  1  0  0  0  0
 23 26  1  0  0  0  0
 25 28  2  0  0  0  0
 26 21  1  0  0  0  0
 27 26  2  0  0  0  0
 28 30  1  0  0  0  0
 28 24  1  0  0  0  0
 30 29  1  0  0  0  0
 32 31  1  0  0  0  0
M  END
>  <MODEL>
8

>  <REMARK>
 VINA RESULT:      -9.1      2.101      6.330
  Name = 
  3 active torsions:
  status: ('A' for Active; 'I' for Inactive)
    1  A    between atoms: C_13  and  C_29
    2  A    between atoms: O_15  and  C_26
    3  A    between atoms: N_16  and  C_27
                            x       y       z     vdW  Elec       q    Type
                         _______ _______ _______ _____ _____    ______ ____

>  <TORSDO>
F 3

$$$$
=
 OpenBabel10272402113D

 32 37  0  0  1  0  0  0  0  0999 V2000
  187.1300  178.0880  141.6250 C   0  0  0  0  0  0  0  0  0  0  0  0
  188.5650  177.6330  143.5420 C   0  0  0  0  0  0  0  0  0  0  0  0
  186.9060  178.1380  140.1310 C   0  0  0  0  0  2  0  0  0  0  0  0
  188.3960  177.7440  142.1510 C   0  0  0  0  0  0  0  0  0  0  0  0
  189.8020  177.2500  144.1040 C   0  0  0  0  0  0  0  0  0  0  0  0
  186.9360  178.4760  148.0770 C   0  0  0  0  0  2  0  0  0  0  0  0
  187.4690  177.8730  144.3920 C   0  0  0  0  0  0  0  0  0  0  0  0
  189.0680  177.2650  147.7490 C   0  0  0  0  0  3  0  0  0  0  0  0
  188.8870  177.3930  146.2940 C   0  0  0  0  0  0  0  0  0  0  0  0
  189.6040  177.6170  141.2480 C   0  0  1  0  0  3  0  0  0  0  0  0
  189.9260  177.1430  145.4550 N   0  0  0  0  0  0  0  0  0  0  0  0
  190.5950  176.6000  141.8080 C   0  0  0  0  0  2  0  0  0  0  0  0
  189.2190  177.2600  139.8210 C   0  0  0  0  0  2  0  0  0  0  0  0
  186.2620  178.1990  143.8590 N   0  0  0  0  0  0  0  0  0  0  0  0
  186.0540  178.3040  142.5170 C   0  0  0  0  0  0  0  0  0  0  0  0
  187.6310  177.7650  145.7790 C   0  0  0  0  0  0  0  0  0  0  0  0
  191.0040  176.9780  143.2370 C   0  0  1  0  0  3  0  0  0  0  0  0
  188.1980  178.2730  139.3290 C   0  0  0  0  0  2  0  0  0  0  0  0
  188.1380  177.7280  148.5890 C   0  0  0  0  0  3  0  0  0  0  0  0
  186.4670  177.9300  146.7230 C   0  0  0  0  0  2  0  0  0  0  0  0
  182.3920  178.9020  142.3460 C   0  0  0  0  0  0  0  0  0  0  0  0
  181.3740  178.9260  143.0860 O   0  0  0  0  0  0  0  0  0  0  0  0
  184.7320  178.6170  142.0370 N   0  0  0  0  0  0  0  0  0  0  0  0
  182.2680  179.1420  141.0480 O   0  0  0  0  0  0  0  0  0  0  0  0
  184.5510  178.8570  140.7360 N   0  0  0  0  0  0  0  0  0  0  0  0
  183.6550  178.6280  142.8800 C   0  0  0  0  0  0  0  0  0  0  0  0
  183.7900  178.4080  144.1170 O   0  0  0  0  0  0  0  0  0  0  0  0
  183.3180  179.1250  140.2350 C   0  0  0  0  0  0  0  0  0  0  0  0
  182.2000  180.2930  138.3870 C   0  0  0  0  0  1  0  0  0  0  0  0
  183.1690  179.3780  138.8720 O   0  0  0  0  0  0  0  0  0  0  0  0
  191.9340  178.1840  143.2410 C   0  0  0  0  0  2  0  0  0  0  0  0
  191.2900  179.2820  143.8110 O   0  0  0  0  0  1  0  0  0  0  0  0
  1  4  2  0  0  0  0
  1 15  1  0  0  0  0
  2  5  2  0  0  0  0
  2  7  1  0  0  0  0
  3  1  1  0  0  0  0
  4  2  1  0  0  0  0
  5 11  1  0  0  0  0
  6 19  1  0  0  0  0
  7 16  2  0  0  0  0
  8 19  2  0  0  0  0
  9  8  1  0  0  0  0
 10 13  1  6  0  0  0
 10 12  1  0  0  0  0
 10  4  1  0  0  0  0
 11  9  2  0  0  0  0
 12 17  1  0  0  0  0
 14  7  1  0  0  0  0
 15 14  2  0  0  0  0
 16  9  1  0  0  0  0
 16 20  1  0  0  0  0
 17 31  1  6  0  0  0
 17  5  1  0  0  0  0
 18 13  1  0  0  0  0
 18  3  1  0  0  0  0
 20  6  1  0  0  0  0
 21 26  1  0  0  0  0
 21 22  2  0  0  0  0
 23 15  1  0  0  0  0
 23 26  1  0  0  0  0
 24 21  1  0  0  0  0
 25 23  1  0  0  0  0
 26 27  2  0  0  0  0
 28 25  2  0  0  0  0
 28 24  1  0  0  0  0
 29 30  1  0  0  0  0
 30 28  1  0  0  0  0
 31 32  1  0  0  0  0
M  END
>  <MODEL>
9

>  <REMARK>
 VINA RESULT:      -9.0      2.934      5.778
  Name = 
  3 active torsions:
  status: ('A' for Active; 'I' for Inactive)
    1  A    between atoms: C_13  and  C_29
    2  A    between atoms: O_15  and  C_26
    3  A    between atoms: N_16  and  C_27
                            x       y       z     vdW  Elec       q    Type
                         _______ _______ _______ _____ _____    ______ ____

>  <TORSDO>
F 3

$$$$
