=
 OpenBabel10272413533D

 30 34  0  0  1  0  0  0  0  0999 V2000
  186.3310  177.1280  143.1390 N   0  0  0  0  0  2  0  0  0  0  0  0
  184.1770  178.2050  142.6400 C   0  0  0  0  0  0  0  0  0  0  0  0
  186.3050  178.8410  147.1270 C   0  0  0  0  0  2  0  0  0  0  0  0
  187.5990  177.1260  143.8680 C   0  0  2  0  0  3  0  0  0  0  0  0
  187.2150  178.1130  148.1100 C   0  0  0  0  0  2  0  0  0  0  0  0
  183.1350  179.0540  143.0210 C   0  0  0  0  0  3  0  0  0  0  0  0
  184.1340  177.4590  141.0510 Cl  0  0  0  0  0  0  0  0  0  0  0  0
  186.3670  178.2710  145.7270 C   0  0  0  0  0  0  0  0  0  0  0  0
  183.1500  179.6650  144.2760 C   0  0  0  0  0  3  0  0  0  0  0  0
  185.2470  177.9770  143.5180 C   0  0  0  0  0  0  0  0  0  0  0  0
  187.4410  177.5540  145.3080 C   0  0  0  0  0  0  0  0  0  0  0  0
  188.6020  177.9960  147.5060 C   0  0  0  0  0  2  0  0  0  0  0  0
  188.5250  177.1210  146.2630 C   0  0  0  0  0  2  0  0  0  0  0  0
  184.2070  179.4260  145.1570 C   0  0  0  0  0  3  0  0  0  0  0  0
  185.2640  178.5810  144.7850 C   0  0  0  0  0  0  0  0  0  0  0  0
  188.6620  177.9820  143.1610 C   0  0  2  0  0  3  0  0  0  0  0  0
  187.4750  179.0180  140.9110 S   0  0  0  0  0  0  0  0  0  0  0  0
  188.5610  178.0480  141.6600 C   0  0  0  0  0  0  0  0  0  0  0  0
  189.7790  176.5630  139.6210 C   0  0  0  0  0  0  0  0  0  0  0  0
  190.4440  176.3340  140.7290 O   0  0  0  0  0  0  0  0  0  0  0  0
  189.5010  177.3260  140.8710 N   0  0  0  0  0  0  0  0  0  0  0  0
  189.9870  177.7870  138.7040 C   0  0  0  0  0  2  0  0  0  0  0  0
  191.0300  176.7780  138.7440 C   0  0  0  0  0  2  0  0  0  0  0  0
  190.3620  178.9260  144.5880 O   0  0  0  0  0  1  0  0  0  0  0  0
  190.0880  177.8730  143.7140 C   0  0  1  0  0  3  0  0  0  0  0  0
  190.4500  176.5140  144.3300 C   0  0  0  0  0  2  0  0  0  0  0  0
  191.9080  176.3980  144.7620 C   0  0  0  0  0  2  0  0  0  0  0  0
  191.8900  177.0610  147.1680 O   0  0  0  0  0  1  0  0  0  0  0  0
  192.0130  176.0630  146.2110 C   0  0  0  0  0  0  0  0  0  0  0  0
  192.2190  174.8740  146.5660 O   0  0  0  0  0  0  0  0  0  0  0  0
  1 10  1  0  0  0  0
  1  4  1  0  0  0  0
  2  6  2  0  0  0  0
  2 10  1  0  0  0  0
  3  5  1  0  0  0  0
  4 16  1  6  0  0  0
  4 11  1  0  0  0  0
  6  9  1  0  0  0  0
  7  2  1  0  0  0  0
  8  3  1  0  0  0  0
  9 14  2  0  0  0  0
 10 15  2  0  0  0  0
 11  8  2  0  0  0  0
 11 13  1  0  0  0  0
 12  5  1  0  0  0  0
 13 12  1  0  0  0  0
 15 14  1  0  0  0  0
 15  8  1  0  0  0  0
 16 18  1  6  0  0  0
 16 25  1  0  0  0  0
 17 18  2  0  0  0  0
 19 20  1  0  0  0  0
 19 21  1  0  0  0  0
 20 21  1  0  0  0  0
 21 18  1  0  0  0  0
 22 23  1  0  0  0  0
 22 19  1  0  0  0  0
 23 19  1  0  0  0  0
 25 26  1  0  0  0  0
 25 24  1  1  0  0  0
 26 27  1  0  0  0  0
 27 29  1  0  0  0  0
 29 30  2  0  0  0  0
 29 28  1  0  0  0  0
M  END
>  <MODEL>
1

>  <REMARK>
 VINA RESULT:      -8.1      0.000      0.000
  Name = 
  7 active torsions:
  status: ('A' for Active; 'I' for Inactive)
    1  A    between atoms: C_4  and  C_13
    2  A    between atoms: C_7  and  C_15
    3  A    between atoms: C_7  and  C_16
    4  A    between atoms: C_8  and  N_12
    5  A    between atoms: C_8  and  C_13
    6  A    between atoms: C_13  and  C_30
    7  A    between atoms: C_16  and  C_30
                            x       y       z     vdW  Elec       q    Type
                         _______ _______ _______ _____ _____    ______ ____

>  <TORSDO>
F 7

$$$$
=
 OpenBabel10272413533D

 30 34  0  0  1  0  0  0  0  0999 V2000
  186.9880  178.9710  141.0940 N   0  0  0  0  0  2  0  0  0  0  0  0
  188.9970  177.5530  141.1620 C   0  0  0  0  0  0  0  0  0  0  0  0
  185.8590  177.6260  145.0630 C   0  0  0  0  0  2  0  0  0  0  0  0
  185.6090  179.2210  141.5090 C   0  0  2  0  0  3  0  0  0  0  0  0
  184.8840  178.5610  145.7700 C   0  0  0  0  0  2  0  0  0  0  0  0
  189.7780  176.5970  141.8170 C   0  0  0  0  0  3  0  0  0  0  0  0
  189.5090  178.1440  139.5900 Cl  0  0  0  0  0  0  0  0  0  0  0  0
  186.2000  178.0750  143.6580 C   0  0  0  0  0  0  0  0  0  0  0  0
  189.3880  176.1070  143.0640 C   0  0  0  0  0  3  0  0  0  0  0  0
  187.8110  178.0100  141.7560 C   0  0  0  0  0  0  0  0  0  0  0  0
  185.3750  178.9010  142.9670 C   0  0  0  0  0  0  0  0  0  0  0  0
  183.7020  178.8260  144.8560 C   0  0  0  0  0  2  0  0  0  0  0  0
  184.1910  179.5690  143.6210 C   0  0  0  0  0  2  0  0  0  0  0  0
  188.2160  176.5730  143.6640 C   0  0  0  0  0  3  0  0  0  0  0  0
  187.4180  177.5260  143.0140 C   0  0  0  0  0  0  0  0  0  0  0  0
  184.6040  178.4710  140.6200 C   0  0  2  0  0  3  0  0  0  0  0  0
  183.2990  180.0530  138.7930 S   0  0  0  0  0  0  0  0  0  0  0  0
  184.4650  178.9800  139.2100 C   0  0  0  0  0  0  0  0  0  0  0  0
  186.2760  177.5200  137.6510 C   0  0  0  0  0  0  0  0  0  0  0  0
  186.6410  178.7800  137.6060 O   0  0  0  0  0  0  0  0  0  0  0  0
  185.4310  178.5990  138.2370 N   0  0  0  0  0  0  0  0  0  0  0  0
  185.1770  176.8880  136.7700 C   0  0  0  0  0  2  0  0  0  0  0  0
  186.4240  177.2740  136.1350 C   0  0  0  0  0  2  0  0  0  0  0  0
  182.4230  179.1450  141.3980 O   0  0  0  0  0  1  0  0  0  0  0  0
  183.2900  178.0570  141.2950 C   0  0  1  0  0  3  0  0  0  0  0  0
  182.5960  176.8330  140.6800 C   0  0  0  0  0  2  0  0  0  0  0  0
  181.2040  177.1230  140.1280 C   0  0  0  0  0  2  0  0  0  0  0  0
  179.9930  175.6460  138.5220 O   0  0  0  0  0  1  0  0  0  0  0  0
  181.0320  176.5330  138.7700 C   0  0  0  0  0  0  0  0  0  0  0  0
  181.8320  176.8370  137.8480 O   0  0  0  0  0  0  0  0  0  0  0  0
  1  4  1  0  0  0  0
  1 10  1  0  0  0  0
  2 10  2  0  0  0  0
  2  6  1  0  0  0  0
  3  5  1  0  0  0  0
  4 16  1  6  0  0  0
  4 11  1  0  0  0  0
  6  9  2  0  0  0  0
  7  2  1  0  0  0  0
  8  3  1  0  0  0  0
  9 14  1  0  0  0  0
 10 15  1  0  0  0  0
 11 13  1  0  0  0  0
 11  8  2  0  0  0  0
 12  5  1  0  0  0  0
 13 12  1  0  0  0  0
 15  8  1  0  0  0  0
 15 14  2  0  0  0  0
 16 18  1  6  0  0  0
 16 25  1  0  0  0  0
 17 18  2  0  0  0  0
 19 21  1  0  0  0  0
 20 19  1  0  0  0  0
 20 21  1  0  0  0  0
 21 18  1  0  0  0  0
 22 19  1  0  0  0  0
 23 22  1  0  0  0  0
 23 19  1  0  0  0  0
 25 24  1  6  0  0  0
 26 25  1  0  0  0  0
 27 26  1  0  0  0  0
 28 29  1  0  0  0  0
 29 27  1  0  0  0  0
 30 29  2  0  0  0  0
M  END
>  <MODEL>
2

>  <REMARK>
 VINA RESULT:      -8.0      4.248      6.935
  Name = 
  7 active torsions:
  status: ('A' for Active; 'I' for Inactive)
    1  A    between atoms: C_4  and  C_13
    2  A    between atoms: C_7  and  C_15
    3  A    between atoms: C_7  and  C_16
    4  A    between atoms: C_8  and  N_12
    5  A    between atoms: C_8  and  C_13
    6  A    between atoms: C_13  and  C_30
    7  A    between atoms: C_16  and  C_30
                            x       y       z     vdW  Elec       q    Type
                         _______ _______ _______ _____ _____    ______ ____

>  <TORSDO>
F 7

$$$$
=
 OpenBabel10272413533D

 30 34  0  0  1  0  0  0  0  0999 V2000
  186.2290  179.0800  140.9850 N   0  0  0  0  0  2  0  0  0  0  0  0
  188.3000  177.7630  140.8130 C   0  0  0  0  0  0  0  0  0  0  0  0
  185.7190  177.8080  145.1030 C   0  0  0  0  0  2  0  0  0  0  0  0
  184.9080  179.2760  141.5790 C   0  0  2  0  0  3  0  0  0  0  0  0
  184.8020  178.7170  145.9140 C   0  0  0  0  0  2  0  0  0  0  0  0
  189.2110  176.8680  141.3780 C   0  0  0  0  0  3  0  0  0  0  0  0
  188.5630  178.3280  139.1710 Cl  0  0  0  0  0  0  0  0  0  0  0  0
  185.8430  178.2280  143.6550 C   0  0  0  0  0  0  0  0  0  0  0  0
  189.0200  176.3990  142.6790 C   0  0  0  0  0  3  0  0  0  0  0  0
  187.1830  178.1810  141.5520 C   0  0  0  0  0  0  0  0  0  0  0  0
  184.8900  178.9910  143.0620 C   0  0  0  0  0  0  0  0  0  0  0  0
  183.4940  178.8950  145.1640 C   0  0  0  0  0  2  0  0  0  0  0  0
  183.7730  179.6220  143.8560 C   0  0  0  0  0  2  0  0  0  0  0  0
  187.9170  176.8260  143.4210 C   0  0  0  0  0  3  0  0  0  0  0  0
  186.9900  177.7190  142.8640 C   0  0  0  0  0  0  0  0  0  0  0  0
  183.8320  178.4500  140.8550 C   0  0  2  0  0  3  0  0  0  0  0  0
  185.1320  178.8920  138.4760 S   0  0  0  0  0  0  0  0  0  0  0  0
  184.1790  177.9960  139.4620 C   0  0  0  0  0  0  0  0  0  0  0  0
  183.2720  175.8500  137.9070 C   0  0  0  0  0  0  0  0  0  0  0  0
  182.9450  175.6020  139.1530 O   0  0  0  0  0  0  0  0  0  0  0  0
  183.7510  176.7100  139.0260 N   0  0  0  0  0  0  0  0  0  0  0  0
  184.6580  175.5720  137.2860 C   0  0  0  0  0  2  0  0  0  0  0  0
  183.8170  174.4360  137.6170 C   0  0  0  0  0  2  0  0  0  0  0  0
  181.9060  179.5270  139.8820 O   0  0  0  0  0  1  0  0  0  0  0  0
  182.3840  178.9200  141.0440 C   0  0  1  0  0  3  0  0  0  0  0  0
  181.4130  177.8540  141.5700 C   0  0  0  0  0  2  0  0  0  0  0  0
  180.0230  178.3890  141.8960 C   0  0  0  0  0  2  0  0  0  0  0  0
  180.0320  178.7720  144.3620 O   0  0  0  0  0  1  0  0  0  0  0  0
  180.0600  179.2970  143.0770 C   0  0  0  0  0  0  0  0  0  0  0  0
  180.1130  180.5430  142.9090 O   0  0  0  0  0  0  0  0  0  0  0  0
  1 10  1  0  0  0  0
  1  4  1  0  0  0  0
  2  6  2  0  0  0  0
  2 10  1  0  0  0  0
  3  5  1  0  0  0  0
  4 16  1  6  0  0  0
  4 11  1  0  0  0  0
  6  9  1  0  0  0  0
  7  2  1  0  0  0  0
  8  3  1  0  0  0  0
  9 14  2  0  0  0  0
 10 15  2  0  0  0  0
 11  8  2  0  0  0  0
 11 13  1  0  0  0  0
 12  5  1  0  0  0  0
 13 12  1  0  0  0  0
 15 14  1  0  0  0  0
 15  8  1  0  0  0  0
 16 18  1  6  0  0  0
 16 25  1  0  0  0  0
 17 18  2  0  0  0  0
 19 21  1  0  0  0  0
 19 20  1  0  0  0  0
 21 20  1  0  0  0  0
 21 18  1  0  0  0  0
 22 23  1  0  0  0  0
 22 19  1  0  0  0  0
 23 19  1  0  0  0  0
 25 24  1  6  0  0  0
 25 26  1  0  0  0  0
 26 27  1  0  0  0  0
 27 29  1  0  0  0  0
 29 28  1  0  0  0  0
 30 29  2  0  0  0  0
M  END
>  <MODEL>
3

>  <REMARK>
 VINA RESULT:      -7.9      4.521      7.107
  Name = 
  7 active torsions:
  status: ('A' for Active; 'I' for Inactive)
    1  A    between atoms: C_4  and  C_13
    2  A    between atoms: C_7  and  C_15
    3  A    between atoms: C_7  and  C_16
    4  A    between atoms: C_8  and  N_12
    5  A    between atoms: C_8  and  C_13
    6  A    between atoms: C_13  and  C_30
    7  A    between atoms: C_16  and  C_30
                            x       y       z     vdW  Elec       q    Type
                         _______ _______ _______ _____ _____    ______ ____

>  <TORSDO>
F 7

$$$$
=
 OpenBabel10272413533D

 30 34  0  0  1  0  0  0  0  0999 V2000
  187.0310  176.8620  144.4180 N   0  0  0  0  0  2  0  0  0  0  0  0
  186.3310  178.1110  146.4190 C   0  0  0  0  0  0  0  0  0  0  0  0
  191.0870  176.6190  145.9430 C   0  0  0  0  0  2  0  0  0  0  0  0
  188.0760  176.4990  143.4630 C   0  0  2  0  0  3  0  0  0  0  0  0
  191.9120  175.5040  145.3100 C   0  0  0  0  0  2  0  0  0  0  0  0
  186.6540  178.7310  147.6290 C   0  0  0  0  0  3  0  0  0  0  0  0
  184.6700  178.1520  145.8540 Cl  0  0  0  0  0  0  0  0  0  0  0  0
  189.6940  176.7320  145.3620 C   0  0  0  0  0  0  0  0  0  0  0  0
  187.9690  178.7180  148.0960 C   0  0  0  0  0  3  0  0  0  0  0  0
  187.3360  177.4850  145.6670 C   0  0  0  0  0  0  0  0  0  0  0  0
  189.4080  176.2460  144.1280 C   0  0  0  0  0  0  0  0  0  0  0  0
  191.8340  175.6290  143.7990 C   0  0  0  0  0  2  0  0  0  0  0  0
  190.3940  175.4020  143.3600 C   0  0  0  0  0  2  0  0  0  0  0  0
  188.9680  178.0810  147.3550 C   0  0  0  0  0  3  0  0  0  0  0  0
  188.6600  177.4610  146.1350 C   0  0  0  0  0  0  0  0  0  0  0  0
  188.2160  177.5500  142.3490 C   0  0  2  0  0  3  0  0  0  0  0  0
  190.3030  179.1100  143.2170 S   0  0  0  0  0  0  0  0  0  0  0  0
  189.6010  178.1000  142.1350 C   0  0  0  0  0  0  0  0  0  0  0  0
  190.5600  176.6280  139.9530 C   0  0  0  0  0  0  0  0  0  0  0  0
  191.5600  177.3340  140.4260 O   0  0  0  0  0  0  0  0  0  0  0  0
  190.3590  177.6540  141.0160 N   0  0  0  0  0  0  0  0  0  0  0  0
  189.4850  177.1610  138.9820 C   0  0  0  0  0  2  0  0  0  0  0  0
  190.8310  176.9670  138.4730 C   0  0  0  0  0  2  0  0  0  0  0  0
  187.3210  179.4770  141.2080 O   0  0  0  0  0  1  0  0  0  0  0  0
  187.0840  178.5800  142.2510 C   0  0  1  0  0  3  0  0  0  0  0  0
  185.6680  177.9920  142.1840 C   0  0  0  0  0  2  0  0  0  0  0  0
  184.5890  179.0130  141.8390 C   0  0  0  0  0  2  0  0  0  0  0  0
  184.4690  179.9100  139.5130 O   0  0  0  0  0  0  0  0  0  0  0  0
  184.1740  178.8950  140.4120 C   0  0  0  0  0  0  0  0  0  0  0  0
  183.5500  177.8730  140.0230 O   0  0  0  0  0  1  0  0  0  0  0  0
  1 10  1  0  0  0  0
  2  6  1  0  0  0  0
  4 16  1  6  0  0  0
  4 11  1  0  0  0  0
  4  1  1  0  0  0  0
  5  3  1  0  0  0  0
  6  9  2  0  0  0  0
  7  2  1  0  0  0  0
  8  3  1  0  0  0  0
  8 15  1  0  0  0  0
 10 15  1  0  0  0  0
 10  2  2  0  0  0  0
 11  8  2  0  0  0  0
 12  5  1  0  0  0  0
 13 12  1  0  0  0  0
 13 11  1  0  0  0  0
 14  9  1  0  0  0  0
 15 14  2  0  0  0  0
 16 18  1  1  0  0  0
 18 17  2  0  0  0  0
 19 20  1  0  0  0  0
 19 21  1  0  0  0  0
 20 21  1  0  0  0  0
 21 18  1  0  0  0  0
 22 19  1  0  0  0  0
 23 22  1  0  0  0  0
 23 19  1  0  0  0  0
 25 24  1  6  0  0  0
 25 16  1  0  0  0  0
 26 25  1  0  0  0  0
 27 26  1  0  0  0  0
 28 29  2  0  0  0  0
 29 27  1  0  0  0  0
 30 29  1  0  0  0  0
M  END
>  <MODEL>
4

>  <REMARK>
 VINA RESULT:      -7.7      2.539      5.183
  Name = 
  7 active torsions:
  status: ('A' for Active; 'I' for Inactive)
    1  A    between atoms: C_4  and  C_13
    2  A    between atoms: C_7  and  C_15
    3  A    between atoms: C_7  and  C_16
    4  A    between atoms: C_8  and  N_12
    5  A    between atoms: C_8  and  C_13
    6  A    between atoms: C_13  and  C_30
    7  A    between atoms: C_16  and  C_30
                            x       y       z     vdW  Elec       q    Type
                         _______ _______ _______ _____ _____    ______ ____

>  <TORSDO>
F 7

$$$$
=
 OpenBabel10272413533D

 30 34  0  0  1  0  0  0  0  0999 V2000
  187.3420  176.8460  143.2540 N   0  0  0  0  0  2  0  0  0  0  0  0
  185.4250  178.0980  144.1550 C   0  0  0  0  0  0  0  0  0  0  0  0
  189.5700  177.5530  146.9120 C   0  0  0  0  0  2  0  0  0  0  0  0
  188.7850  176.6180  143.2040 C   0  0  2  0  0  3  0  0  0  0  0  0
  190.7190  176.5740  147.1250 C   0  0  0  0  0  2  0  0  0  0  0  0
  184.8590  178.8730  145.1710 C   0  0  0  0  0  3  0  0  0  0  0  0
  184.4820  177.7570  142.7140 Cl  0  0  0  0  0  0  0  0  0  0  0  0
  188.8370  177.3340  145.6060 C   0  0  0  0  0  0  0  0  0  0  0  0
  185.5920  179.1630  146.3230 C   0  0  0  0  0  3  0  0  0  0  0  0
  186.7380  177.6230  144.2900 C   0  0  0  0  0  0  0  0  0  0  0  0
  189.4330  176.6950  144.5670 C   0  0  0  0  0  0  0  0  0  0  0  0
  191.5850  176.5500  145.8790 C   0  0  0  0  0  2  0  0  0  0  0  0
  190.7630  176.0020  144.7200 C   0  0  0  0  0  2  0  0  0  0  0  0
  186.8940  178.6780  146.4650 C   0  0  0  0  0  3  0  0  0  0  0  0
  187.4770  177.9050  145.4500 C   0  0  0  0  0  0  0  0  0  0  0  0
  189.4770  177.5750  142.2200 C   0  0  2  0  0  3  0  0  0  0  0  0
  187.6930  179.5240  141.4690 S   0  0  0  0  0  0  0  0  0  0  0  0
  188.5930  178.1880  141.1670 C   0  0  0  0  0  0  0  0  0  0  0  0
  188.0910  177.7120  138.4530 C   0  0  0  0  0  0  0  0  0  0  0  0
  188.5360  176.5940  138.9760 O   0  0  0  0  0  0  0  0  0  0  0  0
  188.6150  177.6560  139.8470 N   0  0  0  0  0  0  0  0  0  0  0  0
  188.9820  178.8770  137.9710 C   0  0  0  0  0  2  0  0  0  0  0  0
  188.9840  177.6490  137.1970 C   0  0  0  0  0  2  0  0  0  0  0  0
  190.9380  175.7600  141.5960 O   0  0  0  0  0  1  0  0  0  0  0  0
  190.8670  177.1470  141.7330 C   0  0  1  0  0  3  0  0  0  0  0  0
  191.3710  177.8690  140.4750 C   0  0  0  0  0  2  0  0  0  0  0  0
  192.7490  177.4100  140.0090 C   0  0  0  0  0  2  0  0  0  0  0  0
  191.6320  175.8030  138.4610 O   0  0  0  0  0  1  0  0  0  0  0  0
  192.6640  176.6990  138.7010 C   0  0  0  0  0  0  0  0  0  0  0  0
  193.5330  176.9090  137.8160 O   0  0  0  0  0  0  0  0  0  0  0  0
  1 10  1  0  0  0  0
  2 10  2  0  0  0  0
  2  6  1  0  0  0  0
  3  5  1  0  0  0  0
  4 16  1  6  0  0  0
  4  1  1  0  0  0  0
  4 11  1  0  0  0  0
  6  9  2  0  0  0  0
  7  2  1  0  0  0  0
  8  3  1  0  0  0  0
  9 14  1  0  0  0  0
 10 15  1  0  0  0  0
 11 13  1  0  0  0  0
 11  8  2  0  0  0  0
 12  5  1  0  0  0  0
 13 12  1  0  0  0  0
 15  8  1  0  0  0  0
 15 14  2  0  0  0  0
 16 18  1  6  0  0  0
 18 17  2  0  0  0  0
 19 20  1  0  0  0  0
 19 21  1  0  0  0  0
 20 21  1  0  0  0  0
 21 18  1  0  0  0  0
 22 19  1  0  0  0  0
 23 22  1  0  0  0  0
 23 19  1  0  0  0  0
 25 24  1  6  0  0  0
 25 16  1  0  0  0  0
 26 25  1  0  0  0  0
 27 26  1  0  0  0  0
 28 29  1  0  0  0  0
 29 27  1  0  0  0  0
 30 29  2  0  0  0  0
M  END
>  <MODEL>
5

>  <REMARK>
 VINA RESULT:      -7.6      2.089      3.738
  Name = 
  7 active torsions:
  status: ('A' for Active; 'I' for Inactive)
    1  A    between atoms: C_4  and  C_13
    2  A    between atoms: C_7  and  C_15
    3  A    between atoms: C_7  and  C_16
    4  A    between atoms: C_8  and  N_12
    5  A    between atoms: C_8  and  C_13
    6  A    between atoms: C_13  and  C_30
    7  A    between atoms: C_16  and  C_30
                            x       y       z     vdW  Elec       q    Type
                         _______ _______ _______ _____ _____    ______ ____

>  <TORSDO>
F 7

$$$$
=
 OpenBabel10272413533D

 30 34  0  0  1  0  0  0  0  0999 V2000
  186.5680  177.2940  144.5930 N   0  0  0  0  0  2  0  0  0  0  0  0
  186.4720  178.0010  146.9480 C   0  0  0  0  0  0  0  0  0  0  0  0
  190.8860  176.9280  144.8400 C   0  0  0  0  0  2  0  0  0  0  0  0
  187.2990  177.2230  143.3290 C   0  0  2  0  0  3  0  0  0  0  0  0
  191.4860  176.0390  143.7570 C   0  0  0  0  0  2  0  0  0  0  0  0
  187.1280  178.3380  148.1350 C   0  0  0  0  0  3  0  0  0  0  0  0
  184.7190  178.0800  146.8880 Cl  0  0  0  0  0  0  0  0  0  0  0  0
  189.3880  177.0950  144.7090 C   0  0  0  0  0  0  0  0  0  0  0  0
  188.5220  178.2890  148.2050 C   0  0  0  0  0  3  0  0  0  0  0  0
  187.2180  177.6240  145.8210 C   0  0  0  0  0  0  0  0  0  0  0  0
  188.7610  176.8960  143.5220 C   0  0  0  0  0  0  0  0  0  0  0  0
  190.9900  176.5080  142.4020 C   0  0  0  0  0  2  0  0  0  0  0  0
  189.4820  176.3100  142.3340 C   0  0  0  0  0  2  0  0  0  0  0  0
  189.2650  177.8990  147.0880 C   0  0  0  0  0  3  0  0  0  0  0  0
  188.6200  177.5650  145.8880 C   0  0  0  0  0  0  0  0  0  0  0  0
  187.1350  178.5110  142.5060 C   0  0  2  0  0  3  0  0  0  0  0  0
  184.9360  179.6370  143.7040 S   0  0  0  0  0  0  0  0  0  0  0  0
  185.7330  179.0500  142.4000 C   0  0  0  0  0  0  0  0  0  0  0  0
  184.4430  178.4510  139.9870 C   0  0  0  0  0  0  0  0  0  0  0  0
  185.1420  179.5460  139.8010 O   0  0  0  0  0  0  0  0  0  0  0  0
  185.1230  179.1450  141.1170 N   0  0  0  0  0  0  0  0  0  0  0  0
  183.0380  178.3980  140.6240 C   0  0  0  0  0  2  0  0  0  0  0  0
  183.1660  178.9780  139.2990 C   0  0  0  0  0  2  0  0  0  0  0  0
  189.2540  179.0510  141.4870 O   0  0  0  0  0  1  0  0  0  0  0  0
  187.9630  178.5930  141.2170 C   0  0  1  0  0  3  0  0  0  0  0  0
  187.9800  177.3150  140.3660 C   0  0  0  0  0  2  0  0  0  0  0  0
  188.8450  177.4160  139.1140 C   0  0  0  0  0  2  0  0  0  0  0  0
  188.9180  179.5240  137.7820 O   0  0  0  0  0  1  0  0  0  0  0  0
  188.2490  178.3570  138.1240 C   0  0  0  0  0  0  0  0  0  0  0  0
  187.1360  178.0940  137.6000 O   0  0  0  0  0  0  0  0  0  0  0  0
  1 10  1  0  0  0  0
  2  6  1  0  0  0  0
  4 16  1  1  0  0  0
  4 11  1  0  0  0  0
  4  1  1  0  0  0  0
  5  3  1  0  0  0  0
  6  9  2  0  0  0  0
  7  2  1  0  0  0  0
  8  3  1  0  0  0  0
  8 15  1  0  0  0  0
 10 15  1  0  0  0  0
 10  2  2  0  0  0  0
 11  8  2  0  0  0  0
 12  5  1  0  0  0  0
 13 12  1  0  0  0  0
 13 11  1  0  0  0  0
 14  9  1  0  0  0  0
 15 14  2  0  0  0  0
 16 18  1  6  0  0  0
 18 17  2  0  0  0  0
 19 22  1  0  0  0  0
 19 21  1  0  0  0  0
 20 19  1  0  0  0  0
 20 21  1  0  0  0  0
 21 18  1  0  0  0  0
 23 19  1  0  0  0  0
 23 22  1  0  0  0  0
 25 24  1  1  0  0  0
 25 16  1  0  0  0  0
 26 25  1  0  0  0  0
 27 26  1  0  0  0  0
 28 29  1  0  0  0  0
 29 27  1  0  0  0  0
 30 29  2  0  0  0  0
M  END
>  <MODEL>
6

>  <REMARK>
 VINA RESULT:      -7.5      2.890      5.703
  Name = 
  7 active torsions:
  status: ('A' for Active; 'I' for Inactive)
    1  A    between atoms: C_4  and  C_13
    2  A    between atoms: C_7  and  C_15
    3  A    between atoms: C_7  and  C_16
    4  A    between atoms: C_8  and  N_12
    5  A    between atoms: C_8  and  C_13
    6  A    between atoms: C_13  and  C_30
    7  A    between atoms: C_16  and  C_30
                            x       y       z     vdW  Elec       q    Type
                         _______ _______ _______ _____ _____    ______ ____

>  <TORSDO>
F 7

$$$$
=
 OpenBabel10272413533D

 30 34  0  0  1  0  0  0  0  0999 V2000
  189.4800  178.4470  140.5090 N   0  0  0  0  0  2  0  0  0  0  0  0
  191.2050  177.2580  141.7980 C   0  0  0  0  0  0  0  0  0  0  0  0
  186.4930  177.4180  143.4860 C   0  0  0  0  0  2  0  0  0  0  0  0
  188.0790  178.5950  140.1190 C   0  0  2  0  0  3  0  0  0  0  0  0
  185.2630  178.3160  143.4520 C   0  0  0  0  0  2  0  0  0  0  0  0
  191.5620  176.4620  142.8900 C   0  0  0  0  0  3  0  0  0  0  0  0
  192.4410  177.7290  140.6440 Cl  0  0  0  0  0  0  0  0  0  0  0  0
  187.5010  177.7480  142.4060 C   0  0  0  0  0  0  0  0  0  0  0  0
  190.5960  176.0680  143.8170 C   0  0  0  0  0  3  0  0  0  0  0  0
  189.8690  177.6500  141.6290 C   0  0  0  0  0  0  0  0  0  0  0  0
  187.1300  178.4080  141.2800 C   0  0  0  0  0  0  0  0  0  0  0  0
  184.7210  178.3600  142.0350 C   0  0  0  0  0  2  0  0  0  0  0  0
  185.7580  179.0160  141.1320 C   0  0  0  0  0  2  0  0  0  0  0  0
  189.2680  176.4710  143.6580 C   0  0  0  0  0  3  0  0  0  0  0  0
  188.8940  177.2640  142.5630 C   0  0  0  0  0  0  0  0  0  0  0  0
  187.7100  177.6560  138.9590 C   0  0  2  0  0  3  0  0  0  0  0  0
  189.1150  178.6840  136.8350 S   0  0  0  0  0  0  0  0  0  0  0  0
  188.7580  177.4850  137.8930 C   0  0  0  0  0  0  0  0  0  0  0  0
  189.6240  174.8550  137.4680 C   0  0  0  0  0  0  0  0  0  0  0  0
  190.2860  175.3290  138.4980 O   0  0  0  0  0  0  0  0  0  0  0  0
  189.5300  176.2890  137.8650 N   0  0  0  0  0  0  0  0  0  0  0  0
  189.9970  175.1000  135.9900 C   0  0  0  0  0  2  0  0  0  0  0  0
  190.8560  174.2350  136.7780 C   0  0  0  0  0  2  0  0  0  0  0  0
  186.0070  179.0430  137.9610 O   0  0  0  0  0  1  0  0  0  0  0  0
  186.2680  177.7600  138.4440 C   0  0  1  0  0  3  0  0  0  0  0  0
  185.8530  176.6780  137.4380 C   0  0  0  0  0  2  0  0  0  0  0  0
  185.2480  177.2290  136.1510 C   0  0  0  0  0  2  0  0  0  0  0  0
  186.7890  175.9070  134.7000 O   0  0  0  0  0  1  0  0  0  0  0  0
  186.2110  177.1280  135.0180 C   0  0  0  0  0  0  0  0  0  0  0  0
  186.5040  178.1540  134.3510 O   0  0  0  0  0  0  0  0  0  0  0  0
  1 10  1  0  0  0  0
  2  6  1  0  0  0  0
  4 16  1  6  0  0  0
  4  1  1  0  0  0  0
  4 11  1  0  0  0  0
  5  3  1  0  0  0  0
  6  9  2  0  0  0  0
  7  2  1  0  0  0  0
  8 15  1  0  0  0  0
  8  3  1  0  0  0  0
 10  2  2  0  0  0  0
 10 15  1  0  0  0  0
 11  8  2  0  0  0  0
 12  5  1  0  0  0  0
 13 11  1  0  0  0  0
 13 12  1  0  0  0  0
 14  9  1  0  0  0  0
 15 14  2  0  0  0  0
 16 18  1  6  0  0  0
 17 18  2  0  0  0  0
 19 21  1  0  0  0  0
 19 20  1  0  0  0  0
 21 18  1  0  0  0  0
 21 20  1  0  0  0  0
 22 23  1  0  0  0  0
 22 19  1  0  0  0  0
 23 19  1  0  0  0  0
 25 24  1  6  0  0  0
 25 16  1  0  0  0  0
 26 25  1  0  0  0  0
 27 26  1  0  0  0  0
 28 29  1  0  0  0  0
 29 27  1  0  0  0  0
 30 29  2  0  0  0  0
M  END
>  <MODEL>
7

>  <REMARK>
 VINA RESULT:      -7.5      3.816      6.991
  Name = 
  7 active torsions:
  status: ('A' for Active; 'I' for Inactive)
    1  A    between atoms: C_4  and  C_13
    2  A    between atoms: C_7  and  C_15
    3  A    between atoms: C_7  and  C_16
    4  A    between atoms: C_8  and  N_12
    5  A    between atoms: C_8  and  C_13
    6  A    between atoms: C_13  and  C_30
    7  A    between atoms: C_16  and  C_30
                            x       y       z     vdW  Elec       q    Type
                         _______ _______ _______ _____ _____    ______ ____

>  <TORSDO>
F 7

$$$$
=
 OpenBabel10272413533D

 30 34  0  0  1  0  0  0  0  0999 V2000
  188.6290  178.5320  140.4720 N   0  0  0  0  0  2  0  0  0  0  0  0
  190.4730  177.0930  141.2320 C   0  0  0  0  0  0  0  0  0  0  0  0
  186.2840  177.4290  143.9540 C   0  0  0  0  0  2  0  0  0  0  0  0
  187.1970  178.8240  140.4250 C   0  0  2  0  0  3  0  0  0  0  0  0
  185.1670  178.4160  144.2760 C   0  0  0  0  0  2  0  0  0  0  0  0
  190.9830  176.1650  142.1440 C   0  0  0  0  0  3  0  0  0  0  0  0
  191.4650  177.5870  139.8700 Cl  0  0  0  0  0  0  0  0  0  0  0  0
  187.0570  177.7930  142.7050 C   0  0  0  0  0  0  0  0  0  0  0  0
  190.2110  175.7510  143.2310 C   0  0  0  0  0  3  0  0  0  0  0  0
  189.1760  177.5990  141.4040 C   0  0  0  0  0  0  0  0  0  0  0  0
  186.5120  178.5900  141.7510 C   0  0  0  0  0  0  0  0  0  0  0  0
  184.3350  178.6450  143.0270 C   0  0  0  0  0  2  0  0  0  0  0  0
  185.2050  179.3100  141.9710 C   0  0  0  0  0  2  0  0  0  0  0  0
  188.9250  176.2660  143.4120 C   0  0  0  0  0  3  0  0  0  0  0  0
  188.3970  177.1930  142.5000 C   0  0  0  0  0  0  0  0  0  0  0  0
  186.4940  178.0380  139.3060 C   0  0  2  0  0  3  0  0  0  0  0  0
  187.9420  179.0400  137.1970 S   0  0  0  0  0  0  0  0  0  0  0  0
  187.3060  177.8010  138.0600 C   0  0  0  0  0  0  0  0  0  0  0  0
  188.3320  175.5510  136.7440 C   0  0  0  0  0  0  0  0  0  0  0  0
  187.2230  175.1870  137.3460 O   0  0  0  0  0  0  0  0  0  0  0  0
  187.6130  176.4650  137.6770 N   0  0  0  0  0  0  0  0  0  0  0  0
  189.7140  175.6480  137.4240 C   0  0  0  0  0  2  0  0  0  0  0  0
  189.1520  174.3280  137.2030 C   0  0  0  0  0  2  0  0  0  0  0  0
  184.8640  179.7560  138.8470 O   0  0  0  0  0  1  0  0  0  0  0  0
  185.0200  178.3860  139.0650 C   0  0  1  0  0  3  0  0  0  0  0  0
  184.3190  177.5540  137.9820 C   0  0  0  0  0  2  0  0  0  0  0  0
  182.7960  177.5850  138.0650 C   0  0  0  0  0  2  0  0  0  0  0  0
  181.6960  177.8280  140.2920 O   0  0  0  0  0  1  0  0  0  0  0  0
  182.3170  177.0130  139.3550 C   0  0  0  0  0  0  0  0  0  0  0  0
  182.4800  175.7890  139.5970 O   0  0  0  0  0  0  0  0  0  0  0  0
  1 10  1  0  0  0  0
  2 10  2  0  0  0  0
  2  6  1  0  0  0  0
  3  5  1  0  0  0  0
  4 16  1  6  0  0  0
  4  1  1  0  0  0  0
  4 11  1  0  0  0  0
  6  9  2  0  0  0  0
  7  2  1  0  0  0  0
  8  3  1  0  0  0  0
  9 14  1  0  0  0  0
 10 15  1  0  0  0  0
 11 13  1  0  0  0  0
 11  8  2  0  0  0  0
 12  5  1  0  0  0  0
 13 12  1  0  0  0  0
 15  8  1  0  0  0  0
 15 14  2  0  0  0  0
 16 18  1  6  0  0  0
 17 18  2  0  0  0  0
 19 23  1  0  0  0  0
 19 20  1  0  0  0  0
 19 22  1  0  0  0  0
 19 21  1  0  0  0  0
 20 21  1  0  0  0  0
 21 18  1  0  0  0  0
 23 22  1  0  0  0  0
 25 24  1  6  0  0  0
 25 16  1  0  0  0  0
 26 27  1  0  0  0  0
 26 25  1  0  0  0  0
 27 29  1  0  0  0  0
 29 30  2  0  0  0  0
 29 28  1  0  0  0  0
M  END
>  <MODEL>
8

>  <REMARK>
 VINA RESULT:      -7.5      4.158      6.678
  Name = 
  7 active torsions:
  status: ('A' for Active; 'I' for Inactive)
    1  A    between atoms: C_4  and  C_13
    2  A    between atoms: C_7  and  C_15
    3  A    between atoms: C_7  and  C_16
    4  A    between atoms: C_8  and  N_12
    5  A    between atoms: C_8  and  C_13
    6  A    between atoms: C_13  and  C_30
    7  A    between atoms: C_16  and  C_30
                            x       y       z     vdW  Elec       q    Type
                         _______ _______ _______ _____ _____    ______ ____

>  <TORSDO>
F 7

$$$$
=
 OpenBabel10272413533D

 30 34  0  0  1  0  0  0  0  0999 V2000
  186.8090  177.2150  144.7500 N   0  0  0  0  0  2  0  0  0  0  0  0
  186.6630  177.9940  147.0790 C   0  0  0  0  0  0  0  0  0  0  0  0
  191.1020  176.7110  145.1500 C   0  0  0  0  0  2  0  0  0  0  0  0
  187.5780  177.0810  143.5140 C   0  0  2  0  0  3  0  0  0  0  0  0
  191.7060  175.7710  144.1130 C   0  0  0  0  0  2  0  0  0  0  0  0
  187.2920  178.3440  148.2770 C   0  0  0  0  0  3  0  0  0  0  0  0
  184.9170  178.1300  146.9590 Cl  0  0  0  0  0  0  0  0  0  0  0  0
  189.6160  176.9250  144.9650 C   0  0  0  0  0  0  0  0  0  0  0  0
  188.6800  178.2510  148.3940 C   0  0  0  0  0  3  0  0  0  0  0  0
  187.4320  177.5590  145.9890 C   0  0  0  0  0  0  0  0  0  0  0  0
  189.0210  176.7110  143.7640 C   0  0  0  0  0  0  0  0  0  0  0  0
  191.2700  176.2150  142.7290 C   0  0  0  0  0  2  0  0  0  0  0  0
  189.7590  176.0660  142.6170 C   0  0  0  0  0  2  0  0  0  0  0  0
  189.4450  177.8030  147.3140 C   0  0  0  0  0  3  0  0  0  0  0  0
  188.8280  177.4550  146.1040 C   0  0  0  0  0  0  0  0  0  0  0  0
  187.4850  178.3480  142.6480 C   0  0  2  0  0  3  0  0  0  0  0  0
  185.6140  178.6790  140.6650 S   0  0  0  0  0  0  0  0  0  0  0  0
  186.0980  178.7570  142.2280 C   0  0  0  0  0  0  0  0  0  0  0  0
  183.8210  179.7140  143.5490 C   0  0  0  0  0  0  0  0  0  0  0  0
  184.8250  179.7770  144.3930 O   0  0  0  0  0  0  0  0  0  0  0  0
  185.1520  179.1260  143.2260 N   0  0  0  0  0  0  0  0  0  0  0  0
  182.9880  178.4470  143.2620 C   0  0  0  0  0  2  0  0  0  0  0  0
  182.8290  179.0920  144.5530 C   0  0  0  0  0  2  0  0  0  0  0  0
  189.7910  178.8450  142.1450 O   0  0  0  0  0  1  0  0  0  0  0  0
  188.5650  178.5060  141.5700 C   0  0  1  0  0  3  0  0  0  0  0  0
  188.6990  177.3240  140.6000 C   0  0  0  0  0  2  0  0  0  0  0  0
  189.5090  177.6390  139.3470 C   0  0  0  0  0  2  0  0  0  0  0  0
  187.5710  177.6850  137.7760 O   0  0  0  0  0  0  0  0  0  0  0  0
  188.6720  178.3290  138.3260 C   0  0  0  0  0  0  0  0  0  0  0  0
  188.9660  179.4950  137.9570 O   0  0  0  0  0  1  0  0  0  0  0  0
  1 10  1  0  0  0  0
  2  6  1  0  0  0  0
  4 16  1  1  0  0  0
  4 11  1  0  0  0  0
  4  1  1  0  0  0  0
  5  3  1  0  0  0  0
  6  9  2  0  0  0  0
  7  2  1  0  0  0  0
  8  3  1  0  0  0  0
  8 15  1  0  0  0  0
 10 15  1  0  0  0  0
 10  2  2  0  0  0  0
 11  8  2  0  0  0  0
 12  5  1  0  0  0  0
 13 12  1  0  0  0  0
 13 11  1  0  0  0  0
 14  9  1  0  0  0  0
 15 14  2  0  0  0  0
 16 18  1  6  0  0  0
 17 18  2  0  0  0  0
 18 21  1  0  0  0  0
 19 20  1  0  0  0  0
 19 23  1  0  0  0  0
 21 19  1  0  0  0  0
 21 20  1  0  0  0  0
 22 19  1  0  0  0  0
 22 23  1  0  0  0  0
 25 24  1  1  0  0  0
 25 16  1  0  0  0  0
 26 25  1  0  0  0  0
 27 26  1  0  0  0  0
 28 29  2  0  0  0  0
 29 27  1  0  0  0  0
 30 29  1  0  0  0  0
M  END
>  <MODEL>
9

>  <REMARK>
 VINA RESULT:      -7.4      2.486      5.933
  Name = 
  7 active torsions:
  status: ('A' for Active; 'I' for Inactive)
    1  A    between atoms: C_4  and  C_13
    2  A    between atoms: C_7  and  C_15
    3  A    between atoms: C_7  and  C_16
    4  A    between atoms: C_8  and  N_12
    5  A    between atoms: C_8  and  C_13
    6  A    between atoms: C_13  and  C_30
    7  A    between atoms: C_16  and  C_30
                            x       y       z     vdW  Elec       q    Type
                         _______ _______ _______ _____ _____    ______ ____

>  <TORSDO>
F 7

$$$$
