=
 OpenBabel10272413373D

 32 36  0  0  1  0  0  0  0  0999 V2000
  181.6240  178.7410  142.0520 C   0  0  0  0  0  0  0  0  0  0  0  0
  186.3990  178.1590  143.6810 C   0  0  2  0  0  3  0  0  0  0  0  0
  187.8910  177.4310  145.5830 C   0  0  0  0  0  0  0  0  0  0  0  0
  189.2400  177.1010  146.0780 C   0  0  0  0  0  0  0  0  0  0  0  0
  184.0100  178.8860  143.5210 C   0  0  0  0  0  0  0  0  0  0  0  0
  185.2560  178.2620  141.5280 O   0  0  0  0  0  0  0  0  0  0  0  0
  191.8140  176.5570  147.0490 C   0  0  0  0  0  3  0  0  0  0  0  0
  182.8480  178.4710  141.4320 C   0  0  0  0  0  3  0  0  0  0  0  0
  186.5110  178.4710  142.1790 C   0  0  2  0  0  3  0  0  0  0  0  0
  187.5920  177.6180  141.5000 C   0  0  2  0  0  3  0  0  0  0  0  0
  188.9440  178.4510  143.4960 C   0  0  2  0  0  3  0  0  0  0  0  0
  190.6940  176.0530  147.7160 C   0  0  0  0  0  3  0  0  0  0  0  0
  181.6010  179.0930  143.4110 C   0  0  0  0  0  3  0  0  0  0  0  0
  184.0400  178.5490  142.1570 C   0  0  0  0  0  0  0  0  0  0  0  0
  189.4110  176.3260  147.2340 C   0  0  0  0  0  3  0  0  0  0  0  0
  182.7900  179.1680  144.1420 C   0  0  0  0  0  3  0  0  0  0  0  0
  188.8670  177.4350  142.3440 C   0  0  1  0  0  3  0  0  0  0  0  0
  190.2150  178.3660  144.2110 N   0  0  0  0  0  2  0  0  0  0  0  0
  185.2860  179.0050  144.3000 C   0  0  0  0  0  2  0  0  0  0  0  0
  186.8780  176.9590  146.1690 O   0  0  0  0  0  0  0  0  0  0  0  0
  191.6520  177.3280  145.8950 C   0  0  0  0  0  3  0  0  0  0  0  0
  187.7170  178.4060  144.4400 C   0  0  1  0  0  3  0  0  0  0  0  0
  190.3700  177.5930  145.4030 C   0  0  0  0  0  0  0  0  0  0  0  0
  188.9190  177.3450  139.7490 C   0  0  0  0  0  1  0  0  0  0  0  0
  187.9240  178.1780  140.2650 O   0  0  0  0  0  0  0  0  0  0  0  0
  190.2260  175.4740  142.5240 O   0  0  0  0  0  1  0  0  0  0  0  0
  188.9690  175.9960  142.8340 C   0  0  0  0  0  2  0  0  0  0  0  0
  180.4510  178.6550  141.2970 O   0  0  0  0  0  0  0  0  0  0  0  0
  179.9820  179.7220  140.4820 C   0  0  0  0  0  2  0  0  0  0  0  0
  180.1200  179.3520  139.0490 C   0  0  0  0  0  0  0  0  0  0  0  0
  180.3660  178.1610  138.7280 O   0  0  0  0  0  1  0  0  0  0  0  0
  180.0180  180.3290  138.0680 O   0  0  0  0  0  0  0  0  0  0  0  0
  1 13  1  0  0  0  0
  2 19  1  1  0  0  0
  2 22  1  0  0  0  0
  3  4  1  0  0  0  0
  3 20  2  0  0  0  0
  4 15  1  0  0  0  0
  5 16  1  0  0  0  0
  5 19  1  0  0  0  0
  6 14  1  0  0  0  0
  7 12  1  0  0  0  0
  8  1  2  0  0  0  0
  8 14  1  0  0  0  0
  9  6  1  6  0  0  0
  9  2  1  0  0  0  0
 10 25  1  6  0  0  0
 10  9  1  0  0  0  0
 10 17  1  0  0  0  0
 11 18  1  1  0  0  0
 11 22  1  0  0  0  0
 13 16  2  0  0  0  0
 14  5  2  0  0  0  0
 15 12  2  0  0  0  0
 17 27  1  1  0  0  0
 17 11  1  0  0  0  0
 18 23  1  0  0  0  0
 21  7  2  0  0  0  0
 22  3  1  1  0  0  0
 23 21  1  0  0  0  0
 23  4  2  0  0  0  0
 24 25  1  0  0  0  0
 26 27  1  0  0  0  0
 28  1  1  0  0  0  0
 29 28  1  0  0  0  0
 30 29  1  0  0  0  0
 31 30  1  0  0  0  0
 32 30  2  0  0  0  0
M  END
>  <MODEL>
1

>  <REMARK>
 VINA RESULT:      -7.9      0.000      0.000
  Name = 
  5 active torsions:
  status: ('A' for Active; 'I' for Inactive)
    1  A    between atoms: C_1  and  C_10
    2  A    between atoms: C_2  and  O_24
    3  A    between atoms: C_10  and  O_24
    4  A    between atoms: O_13  and  C_15
    5  A    between atoms: C_25  and  C_26
                            x       y       z     vdW  Elec       q    Type
                         _______ _______ _______ _____ _____    ______ ____

>  <TORSDO>
F 5

$$$$
=
 OpenBabel10272413373D

 32 36  0  0  1  0  0  0  0  0999 V2000
  190.0330  176.8230  145.9050 C   0  0  0  0  0  0  0  0  0  0  0  0
  189.6650  177.4340  140.8770 C   0  0  2  0  0  3  0  0  0  0  0  0
  190.3850  176.6010  138.6050 C   0  0  0  0  0  0  0  0  0  0  0  0
  190.2230  176.6210  137.1390 C   0  0  0  0  0  0  0  0  0  0  0  0
  190.6030  177.2250  143.1870 C   0  0  0  0  0  0  0  0  0  0  0  0
  188.3170  177.9790  142.8360 O   0  0  0  0  0  0  0  0  0  0  0  0
  189.9800  176.7200  134.3480 C   0  0  0  0  0  3  0  0  0  0  0  0
  189.0420  177.3030  145.0430 C   0  0  0  0  0  3  0  0  0  0  0  0
  188.5880  178.3500  141.4830 C   0  0  2  0  0  3  0  0  0  0  0  0
  187.2870  178.3150  140.6690 C   0  0  2  0  0  3  0  0  0  0  0  0
  188.9360  178.6940  138.7600 C   0  0  2  0  0  3  0  0  0  0  0  0
  190.5750  175.6130  134.9590 C   0  0  0  0  0  3  0  0  0  0  0  0
  191.3150  176.5520  145.4000 C   0  0  0  0  0  3  0  0  0  0  0  0
  189.3220  177.5120  143.6900 C   0  0  0  0  0  0  0  0  0  0  0  0
  190.6990  175.5640  136.3500 C   0  0  0  0  0  3  0  0  0  0  0  0
  191.5990  176.7560  144.0470 C   0  0  0  0  0  3  0  0  0  0  0  0
  187.5030  178.2880  139.1450 C   0  0  1  0  0  3  0  0  0  0  0  0
  189.1010  178.7990  137.3120 N   0  0  0  0  0  2  0  0  0  0  0  0
  190.9240  177.4760  141.7440 C   0  0  0  0  0  2  0  0  0  0  0  0
  190.9020  175.5920  139.1620 O   0  0  0  0  0  0  0  0  0  0  0  0
  189.5000  177.7760  135.1280 C   0  0  0  0  0  3  0  0  0  0  0  0
  190.0240  177.8180  139.4280 C   0  0  1  0  0  3  0  0  0  0  0  0
  189.6120  177.7240  136.5210 C   0  0  0  0  0  0  0  0  0  0  0  0
  185.2590  178.8610  141.3700 C   0  0  0  0  0  1  0  0  0  0  0  0
  186.4910  179.4100  141.0100 O   0  0  0  0  0  0  0  0  0  0  0  0
  186.2150  177.0780  137.5320 O   0  0  0  0  0  1  0  0  0  0  0  0
  187.1180  176.9250  138.5840 C   0  0  0  0  0  2  0  0  0  0  0  0
  189.7190  176.6270  147.2520 O   0  0  0  0  0  0  0  0  0  0  0  0
  188.4040  176.7980  147.7680 C   0  0  0  0  0  2  0  0  0  0  0  0
  188.2560  178.1770  148.3020 C   0  0  0  0  0  0  0  0  0  0  0  0
  189.2080  178.7180  148.9220 O   0  0  0  0  0  1  0  0  0  0  0  0
  187.0520  178.8520  148.1540 O   0  0  0  0  0  0  0  0  0  0  0  0
  1 28  1  0  0  0  0
  2  9  1  0  0  0  0
  2 19  1  1  0  0  0
  3 20  2  0  0  0  0
  4  3  1  0  0  0  0
  5 14  2  0  0  0  0
  5 16  1  0  0  0  0
  6 14  1  0  0  0  0
  7 12  2  0  0  0  0
  7 21  1  0  0  0  0
  8  1  2  0  0  0  0
  9  6  1  1  0  0  0
 10 25  1  6  0  0  0
 10  9  1  0  0  0  0
 11 18  1  6  0  0  0
 11 17  1  0  0  0  0
 11 22  1  0  0  0  0
 12 15  1  0  0  0  0
 13  1  1  0  0  0  0
 14  8  1  0  0  0  0
 15  4  2  0  0  0  0
 16 13  2  0  0  0  0
 17 27  1  1  0  0  0
 17 10  1  0  0  0  0
 19  5  1  0  0  0  0
 21 23  2  0  0  0  0
 22  3  1  6  0  0  0
 22  2  1  0  0  0  0
 23  4  1  0  0  0  0
 23 18  1  0  0  0  0
 25 24  1  0  0  0  0
 26 27  1  0  0  0  0
 28 29  1  0  0  0  0
 29 30  1  0  0  0  0
 30 31  1  0  0  0  0
 32 30  2  0  0  0  0
M  END
>  <MODEL>
2

>  <REMARK>
 VINA RESULT:      -7.8      3.360      8.455
  Name = 
  5 active torsions:
  status: ('A' for Active; 'I' for Inactive)
    1  A    between atoms: C_1  and  C_10
    2  A    between atoms: C_2  and  O_24
    3  A    between atoms: C_10  and  O_24
    4  A    between atoms: O_13  and  C_15
    5  A    between atoms: C_25  and  C_26
                            x       y       z     vdW  Elec       q    Type
                         _______ _______ _______ _____ _____    ______ ____

>  <TORSDO>
F 5

$$$$
=
 OpenBabel10272413373D

 32 36  0  0  1  0  0  0  0  0999 V2000
  188.1610  177.7520  145.4540 C   0  0  0  0  0  0  0  0  0  0  0  0
  188.9600  177.6410  140.4400 C   0  0  2  0  0  3  0  0  0  0  0  0
  190.2810  176.6140  138.5500 C   0  0  0  0  0  0  0  0  0  0  0  0
  190.4760  176.4190  137.1010 C   0  0  0  0  0  0  0  0  0  0  0  0
  189.3290  177.8600  142.9050 C   0  0  0  0  0  0  0  0  0  0  0  0
  187.1350  178.2610  141.9350 O   0  0  0  0  0  0  0  0  0  0  0  0
  190.9050  176.1160  134.3460 C   0  0  0  0  0  3  0  0  0  0  0  0
  187.3660  177.9820  144.3270 C   0  0  0  0  0  3  0  0  0  0  0  0
  187.6880  178.4830  140.6360 C   0  0  2  0  0  3  0  0  0  0  0  0
  186.6310  178.1720  139.5670 C   0  0  2  0  0  3  0  0  0  0  0  0
  188.6480  178.5050  138.0410 C   0  0  2  0  0  3  0  0  0  0  0  0
  191.4360  175.1850  135.2430 C   0  0  0  0  0  3  0  0  0  0  0  0
  189.5480  177.5840  145.3000 C   0  0  0  0  0  3  0  0  0  0  0  0
  187.9440  178.0450  143.0560 C   0  0  0  0  0  0  0  0  0  0  0  0
  191.2250  175.3370  136.6160 C   0  0  0  0  0  3  0  0  0  0  0  0
  190.1290  177.6420  144.0300 C   0  0  0  0  0  3  0  0  0  0  0  0
  187.2090  177.9720  138.1540 C   0  0  1  0  0  3  0  0  0  0  0  0
  189.1460  178.4380  136.6690 N   0  0  0  0  0  2  0  0  0  0  0  0
  189.9630  177.9590  141.5500 C   0  0  0  0  0  2  0  0  0  0  0  0
  190.7410  175.7630  139.3610 O   0  0  0  0  0  0  0  0  0  0  0  0
  190.1540  177.1950  134.8220 C   0  0  0  0  0  3  0  0  0  0  0  0
  189.6200  177.8720  139.0670 C   0  0  1  0  0  3  0  0  0  0  0  0
  189.9310  177.3430  136.1940 C   0  0  0  0  0  0  0  0  0  0  0  0
  184.5880  178.6820  140.2530 C   0  0  0  0  0  1  0  0  0  0  0  0
  185.6760  179.1910  139.5420 O   0  0  0  0  0  0  0  0  0  0  0  0
  186.4900  176.4060  136.4940 O   0  0  0  0  0  1  0  0  0  0  0  0
  187.1000  176.5090  137.7450 C   0  0  0  0  0  2  0  0  0  0  0  0
  187.5520  177.6960  146.7100 O   0  0  0  0  0  0  0  0  0  0  0  0
  186.1640  177.4380  146.8800 C   0  0  0  0  0  2  0  0  0  0  0  0
  185.4030  178.7100  146.7580 C   0  0  0  0  0  0  0  0  0  0  0  0
  184.3380  178.7440  146.0900 O   0  0  0  0  0  0  0  0  0  0  0  0
  185.8900  179.8680  147.3480 O   0  0  0  0  0  1  0  0  0  0  0  0
  1 28  1  0  0  0  0
  2  9  1  0  0  0  0
  2 19  1  1  0  0  0
  3 20  2  0  0  0  0
  4  3  1  0  0  0  0
  5 14  2  0  0  0  0
  5 16  1  0  0  0  0
  6 14  1  0  0  0  0
  7 21  2  0  0  0  0
  7 12  1  0  0  0  0
  8  1  2  0  0  0  0
  9  6  1  1  0  0  0
 10 25  1  6  0  0  0
 10  9  1  0  0  0  0
 11 18  1  6  0  0  0
 11 17  1  0  0  0  0
 11 22  1  0  0  0  0
 12 15  2  0  0  0  0
 13  1  1  0  0  0  0
 14  8  1  0  0  0  0
 15  4  1  0  0  0  0
 16 13  2  0  0  0  0
 17 27  1  1  0  0  0
 17 10  1  0  0  0  0
 19  5  1  0  0  0  0
 21 23  1  0  0  0  0
 22  3  1  6  0  0  0
 22  2  1  0  0  0  0
 23 18  1  0  0  0  0
 23  4  2  0  0  0  0
 25 24  1  0  0  0  0
 26 27  1  0  0  0  0
 28 29  1  0  0  0  0
 30 29  1  0  0  0  0
 30 32  1  0  0  0  0
 31 30  2  0  0  0  0
M  END
>  <MODEL>
3

>  <REMARK>
 VINA RESULT:      -7.6      3.209      7.617
  Name = 
  5 active torsions:
  status: ('A' for Active; 'I' for Inactive)
    1  A    between atoms: C_1  and  C_10
    2  A    between atoms: C_2  and  O_24
    3  A    between atoms: C_10  and  O_24
    4  A    between atoms: O_13  and  C_15
    5  A    between atoms: C_25  and  C_26
                            x       y       z     vdW  Elec       q    Type
                         _______ _______ _______ _____ _____    ______ ____

>  <TORSDO>
F 5

$$$$
=
 OpenBabel10272413373D

 32 36  0  0  1  0  0  0  0  0999 V2000
  188.1160  177.3740  144.4020 C   0  0  0  0  0  0  0  0  0  0  0  0
  184.5900  178.4440  140.9070 C   0  0  2  0  0  3  0  0  0  0  0  0
  183.8560  178.1480  138.5100 C   0  0  0  0  0  0  0  0  0  0  0  0
  182.8130  178.2940  137.4780 C   0  0  0  0  0  0  0  0  0  0  0  0
  186.7840  178.2530  142.0940 C   0  0  0  0  0  0  0  0  0  0  0  0
  184.6970  178.3140  143.3410 O   0  0  0  0  0  0  0  0  0  0  0  0
  180.8650  178.6500  135.4920 C   0  0  0  0  0  3  0  0  0  0  0  0
  186.7410  177.6300  144.4390 C   0  0  0  0  0  3  0  0  0  0  0  0
  183.9970  178.9110  142.2480 C   0  0  2  0  0  3  0  0  0  0  0  0
  182.5010  178.5800  142.3530 C   0  0  2  0  0  3  0  0  0  0  0  0
  182.5030  179.6680  140.0460 C   0  0  2  0  0  3  0  0  0  0  0  0
  181.8840  177.7100  135.3120 C   0  0  0  0  0  3  0  0  0  0  0  0
  188.8230  177.5670  143.2040 C   0  0  0  0  0  3  0  0  0  0  0  0
  186.0750  178.0760  143.2940 C   0  0  0  0  0  0  0  0  0  0  0  0
  182.8570  177.5340  136.3000 C   0  0  0  0  0  3  0  0  0  0  0  0
  188.1600  178.0090  142.0560 C   0  0  0  0  0  3  0  0  0  0  0  0
  181.7170  178.8040  141.0460 C   0  0  1  0  0  3  0  0  0  0  0  0
  181.7050  179.9920  138.8650 N   0  0  0  0  0  2  0  0  0  0  0  0
  186.0860  178.7620  140.8680 C   0  0  0  0  0  2  0  0  0  0  0  0
  184.7650  177.2840  138.3600 O   0  0  0  0  0  0  0  0  0  0  0  0
  180.8130  179.4080  136.6650 C   0  0  0  0  0  3  0  0  0  0  0  0
  183.8950  179.0900  139.6920 C   0  0  1  0  0  3  0  0  0  0  0  0
  181.7780  179.2250  137.6610 C   0  0  0  0  0  0  0  0  0  0  0  0
  180.8550  178.5610  143.8340 C   0  0  0  0  0  1  0  0  0  0  0  0
  181.9260  179.3330  143.3780 O   0  0  0  0  0  0  0  0  0  0  0  0
  179.9820  177.1730  140.8110 O   0  0  0  0  0  1  0  0  0  0  0  0
  181.2980  177.4650  140.4510 C   0  0  0  0  0  2  0  0  0  0  0  0
  188.7510  176.9310  145.5650 O   0  0  0  0  0  0  0  0  0  0  0  0
  189.7470  177.6950  146.2350 C   0  0  0  0  0  2  0  0  0  0  0  0
  191.0180  176.9250  146.2800 C   0  0  0  0  0  0  0  0  0  0  0  0
  191.6540  176.8220  147.3610 O   0  0  0  0  0  1  0  0  0  0  0  0
  191.5240  176.3540  145.1200 O   0  0  0  0  0  0  0  0  0  0  0  0
  1  8  1  0  0  0  0
  1 28  1  0  0  0  0
  2 19  1  1  0  0  0
  2  9  1  0  0  0  0
  4 23  1  0  0  0  0
  4  3  1  0  0  0  0
  5 14  1  0  0  0  0
  7 21  1  0  0  0  0
  9 10  1  0  0  0  0
  9  6  1  1  0  0  0
 10 25  1  1  0  0  0
 11 18  1  6  0  0  0
 11 17  1  0  0  0  0
 12  7  2  0  0  0  0
 12 15  1  0  0  0  0
 13  1  2  0  0  0  0
 14  6  1  0  0  0  0
 14  8  2  0  0  0  0
 15  4  2  0  0  0  0
 16  5  2  0  0  0  0
 16 13  1  0  0  0  0
 17 27  1  6  0  0  0
 17 10  1  0  0  0  0
 19  5  1  0  0  0  0
 20  3  2  0  0  0  0
 21 23  2  0  0  0  0
 22  3  1  6  0  0  0
 22 11  1  0  0  0  0
 22  2  1  0  0  0  0
 23 18  1  0  0  0  0
 25 24  1  0  0  0  0
 27 26  1  0  0  0  0
 28 29  1  0  0  0  0
 29 30  1  0  0  0  0
 30 31  1  0  0  0  0
 32 30  2  0  0  0  0
M  END
>  <MODEL>
4

>  <REMARK>
 VINA RESULT:      -7.5      2.922      9.435
  Name = 
  5 active torsions:
  status: ('A' for Active; 'I' for Inactive)
    1  A    between atoms: C_1  and  C_10
    2  A    between atoms: C_2  and  O_24
    3  A    between atoms: C_10  and  O_24
    4  A    between atoms: O_13  and  C_15
    5  A    between atoms: C_25  and  C_26
                            x       y       z     vdW  Elec       q    Type
                         _______ _______ _______ _____ _____    ______ ____

>  <TORSDO>
F 5

$$$$
=
 OpenBabel10272413373D

 32 36  0  0  1  0  0  0  0  0999 V2000
  185.9660  177.5250  136.7330 C   0  0  0  0  0  0  0  0  0  0  0  0
  188.1670  177.7970  141.3020 C   0  0  2  0  0  3  0  0  0  0  0  0
  187.8430  177.6160  143.7990 C   0  0  0  0  0  0  0  0  0  0  0  0
  188.4310  177.5380  145.1490 C   0  0  0  0  0  0  0  0  0  0  0  0
  186.6290  178.2110  139.3710 C   0  0  0  0  0  0  0  0  0  0  0  0
  188.8790  177.3600  139.0090 O   0  0  0  0  0  0  0  0  0  0  0  0
  189.5380  177.4780  147.7250 C   0  0  0  0  0  3  0  0  0  0  0  0
  187.2540  177.2790  137.2200 C   0  0  0  0  0  3  0  0  0  0  0  0
  189.3210  177.8280  140.2850 C   0  0  2  0  0  3  0  0  0  0  0  0
  190.5150  176.9860  140.7570 C   0  0  2  0  0  3  0  0  0  0  0  0
  190.1160  178.3290  142.8880 C   0  0  2  0  0  3  0  0  0  0  0  0
  188.2470  176.9890  147.5070 C   0  0  0  0  0  3  0  0  0  0  0  0
  185.0120  178.1250  137.5720 C   0  0  0  0  0  3  0  0  0  0  0  0
  187.5920  177.6260  138.5310 C   0  0  0  0  0  0  0  0  0  0  0  0
  187.6940  177.0200  146.2240 C   0  0  0  0  0  3  0  0  0  0  0  0
  185.3450  178.4690  138.8850 C   0  0  0  0  0  3  0  0  0  0  0  0
  190.8140  177.1100  142.2620 C   0  0  1  0  0  3  0  0  0  0  0  0
  190.5070  178.5230  144.2820 N   0  0  0  0  0  2  0  0  0  0  0  0
  186.9910  178.6170  140.7690 C   0  0  0  0  0  2  0  0  0  0  0  0
  186.6860  177.1540  143.5940 O   0  0  0  0  0  0  0  0  0  0  0  0
  190.2800  177.9920  146.6570 C   0  0  0  0  0  3  0  0  0  0  0  0
  188.5800  178.3300  142.6880 C   0  0  1  0  0  3  0  0  0  0  0  0
  189.7340  178.0140  145.3700 C   0  0  0  0  0  0  0  0  0  0  0  0
  191.7320  176.3770  139.0100 C   0  0  0  0  0  1  0  0  0  0  0  0
  191.6520  177.3340  140.0240 O   0  0  0  0  0  0  0  0  0  0  0  0
  191.5470  175.3670  143.7290 O   0  0  0  0  0  1  0  0  0  0  0  0
  190.4590  175.8110  142.9760 C   0  0  0  0  0  2  0  0  0  0  0  0
  185.6620  177.1670  135.4170 O   0  0  0  0  0  0  0  0  0  0  0  0
  185.8320  175.8440  134.9220 C   0  0  0  0  0  2  0  0  0  0  0  0
  184.9000  174.9250  135.6270 C   0  0  0  0  0  0  0  0  0  0  0  0
  185.3460  173.9070  136.2160 O   0  0  0  0  0  1  0  0  0  0  0  0
  183.5340  175.1700  135.6000 O   0  0  0  0  0  0  0  0  0  0  0  0
  1  8  2  0  0  0  0
  1 13  1  0  0  0  0
  2 19  1  6  0  0  0
  2 22  1  0  0  0  0
  3  4  1  0  0  0  0
  4 23  2  0  0  0  0
  4 15  1  0  0  0  0
  5 19  1  0  0  0  0
  8 14  1  0  0  0  0
  9  6  1  6  0  0  0
  9 10  1  0  0  0  0
  9  2  1  0  0  0  0
 10 25  1  6  0  0  0
 10 17  1  0  0  0  0
 11 18  1  1  0  0  0
 12  7  1  0  0  0  0
 13 16  2  0  0  0  0
 14  6  1  0  0  0  0
 14  5  2  0  0  0  0
 15 12  2  0  0  0  0
 16  5  1  0  0  0  0
 17 11  1  0  0  0  0
 17 27  1  1  0  0  0
 18 23  1  0  0  0  0
 20  3  2  0  0  0  0
 21  7  2  0  0  0  0
 22 11  1  0  0  0  0
 22  3  1  1  0  0  0
 23 21  1  0  0  0  0
 24 25  1  0  0  0  0
 27 26  1  0  0  0  0
 28  1  1  0  0  0  0
 29 28  1  0  0  0  0
 29 30  1  0  0  0  0
 30 31  1  0  0  0  0
 32 30  2  0  0  0  0
M  END
>  <MODEL>
5

>  <REMARK>
 VINA RESULT:      -7.4      3.367      4.508
  Name = 
  5 active torsions:
  status: ('A' for Active; 'I' for Inactive)
    1  A    between atoms: C_1  and  C_10
    2  A    between atoms: C_2  and  O_24
    3  A    between atoms: C_10  and  O_24
    4  A    between atoms: O_13  and  C_15
    5  A    between atoms: C_25  and  C_26
                            x       y       z     vdW  Elec       q    Type
                         _______ _______ _______ _____ _____    ______ ____

>  <TORSDO>
F 5

$$$$
=
 OpenBabel10272413373D

 32 36  0  0  1  0  0  0  0  0999 V2000
  190.6450  177.1800  141.6860 C   0  0  0  0  0  0  0  0  0  0  0  0
  186.1070  178.1450  139.6220 C   0  0  2  0  0  3  0  0  0  0  0  0
  184.5230  177.6550  137.7180 C   0  0  0  0  0  0  0  0  0  0  0  0
  183.1750  177.7720  137.1300 C   0  0  0  0  0  0  0  0  0  0  0  0
  188.5780  177.9110  139.9350 C   0  0  0  0  0  0  0  0  0  0  0  0
  187.1100  178.2630  141.8430 O   0  0  0  0  0  0  0  0  0  0  0  0
  180.6400  178.0660  135.9690 C   0  0  0  0  0  3  0  0  0  0  0  0
  189.3930  177.5430  142.1910 C   0  0  0  0  0  3  0  0  0  0  0  0
  186.0720  178.7930  141.0160 C   0  0  2  0  0  3  0  0  0  0  0  0
  184.7130  178.5910  141.7030 C   0  0  2  0  0  3  0  0  0  0  0  0
  183.8890  179.4280  139.4390 C   0  0  2  0  0  3  0  0  0  0  0  0
  181.4870  177.0370  135.5470 C   0  0  0  0  0  3  0  0  0  0  0  0
  190.8610  177.1920  140.2980 C   0  0  0  0  0  3  0  0  0  0  0  0
  188.3620  177.9160  141.3240 C   0  0  0  0  0  0  0  0  0  0  0  0
  182.7520  176.8920  136.1240 C   0  0  0  0  0  3  0  0  0  0  0  0
  189.8310  177.5600  139.4270 C   0  0  0  0  0  3  0  0  0  0  0  0
  183.5060  178.7360  140.7580 C   0  0  1  0  0  3  0  0  0  0  0  0
  182.7190  179.6860  138.6020 N   0  0  0  0  0  2  0  0  0  0  0  0
  187.4900  178.3410  138.9980 C   0  0  0  0  0  2  0  0  0  0  0  0
  185.2820  176.7140  137.3550 O   0  0  0  0  0  0  0  0  0  0  0  0
  181.0530  178.9450  136.9740 C   0  0  0  0  0  3  0  0  0  0  0  0
  185.0300  178.7100  138.6750 C   0  0  1  0  0  3  0  0  0  0  0  0
  182.3130  178.7940  137.5610 C   0  0  0  0  0  0  0  0  0  0  0  0
  184.0260  178.7420  143.8020 C   0  0  0  0  0  1  0  0  0  0  0  0
  184.5870  179.4890  142.7650 O   0  0  0  0  0  0  0  0  0  0  0  0
  181.4720  177.4770  140.7040 O   0  0  0  0  0  1  0  0  0  0  0  0
  182.8530  177.3780  140.5310 C   0  0  0  0  0  2  0  0  0  0  0  0
  191.6540  176.8140  142.5810 O   0  0  0  0  0  0  0  0  0  0  0  0
  191.4110  175.9960  143.7200 C   0  0  0  0  0  2  0  0  0  0  0  0
  191.6160  176.7950  144.9570 C   0  0  0  0  0  0  0  0  0  0  0  0
  191.6020  178.0520  144.9050 O   0  0  0  0  0  0  0  0  0  0  0  0
  191.8630  176.1530  146.1630 O   0  0  0  0  0  1  0  0  0  0  0  0
  1  8  1  0  0  0  0
  1 28  1  0  0  0  0
  2 19  1  6  0  0  0
  2  9  1  0  0  0  0
  4 23  1  0  0  0  0
  4  3  1  0  0  0  0
  5 14  1  0  0  0  0
  7 21  1  0  0  0  0
  9 10  1  0  0  0  0
  9  6  1  1  0  0  0
 10 25  1  1  0  0  0
 11 18  1  6  0  0  0
 11 17  1  0  0  0  0
 12  7  2  0  0  0  0
 12 15  1  0  0  0  0
 13  1  2  0  0  0  0
 14  6  1  0  0  0  0
 14  8  2  0  0  0  0
 15  4  2  0  0  0  0
 16  5  2  0  0  0  0
 16 13  1  0  0  0  0
 17 27  1  6  0  0  0
 17 10  1  0  0  0  0
 19  5  1  0  0  0  0
 20  3  2  0  0  0  0
 21 23  2  0  0  0  0
 22  3  1  1  0  0  0
 22 11  1  0  0  0  0
 22  2  1  0  0  0  0
 23 18  1  0  0  0  0
 25 24  1  0  0  0  0
 27 26  1  0  0  0  0
 28 29  1  0  0  0  0
 29 30  1  0  0  0  0
 30 32  1  0  0  0  0
 31 30  2  0  0  0  0
M  END
>  <MODEL>
6

>  <REMARK>
 VINA RESULT:      -7.2      3.062      9.533
  Name = 
  5 active torsions:
  status: ('A' for Active; 'I' for Inactive)
    1  A    between atoms: C_1  and  C_10
    2  A    between atoms: C_2  and  O_24
    3  A    between atoms: C_10  and  O_24
    4  A    between atoms: O_13  and  C_15
    5  A    between atoms: C_25  and  C_26
                            x       y       z     vdW  Elec       q    Type
                         _______ _______ _______ _____ _____    ______ ____

>  <TORSDO>
F 5

$$$$
=
 OpenBabel10272413373D

 32 36  0  0  1  0  0  0  0  0999 V2000
  182.6150  178.4360  139.4330 C   0  0  0  0  0  0  0  0  0  0  0  0
  186.7620  178.1600  142.3520 C   0  0  2  0  0  3  0  0  0  0  0  0
  187.6970  177.5380  144.6130 C   0  0  0  0  0  0  0  0  0  0  0  0
  188.8680  177.2950  145.4750 C   0  0  0  0  0  0  0  0  0  0  0  0
  184.4770  178.7370  141.5100 C   0  0  0  0  0  0  0  0  0  0  0  0
  186.2690  178.1800  139.9630 O   0  0  0  0  0  0  0  0  0  0  0  0
  191.0900  176.9170  147.1440 C   0  0  0  0  0  3  0  0  0  0  0  0
  183.9780  178.2390  139.1890 C   0  0  0  0  0  3  0  0  0  0  0  0
  187.2750  178.4710  140.9350 C   0  0  2  0  0  3  0  0  0  0  0  0
  188.5510  177.6820  140.6080 C   0  0  2  0  0  3  0  0  0  0  0  0
  189.2350  178.6090  142.8840 C   0  0  2  0  0  3  0  0  0  0  0  0
  189.8590  176.3480  147.4800 C   0  0  0  0  0  3  0  0  0  0  0  0
  182.1890  178.7930  140.7230 C   0  0  0  0  0  3  0  0  0  0  0  0
  184.9110  178.3950  140.2180 C   0  0  0  0  0  0  0  0  0  0  0  0
  188.7500  176.5380  146.6500 C   0  0  0  0  0  3  0  0  0  0  0  0
  183.1180  178.9460  141.7560 C   0  0  0  0  0  3  0  0  0  0  0  0
  189.5440  177.5840  141.7800 C   0  0  1  0  0  3  0  0  0  0  0  0
  190.2550  178.6070  143.9300 N   0  0  0  0  0  2  0  0  0  0  0  0
  185.4720  178.9400  142.6140 C   0  0  0  0  0  2  0  0  0  0  0  0
  186.5880  177.0060  144.9020 O   0  0  0  0  0  0  0  0  0  0  0  0
  191.2160  177.6700  145.9730 C   0  0  0  0  0  3  0  0  0  0  0  0
  187.7960  178.4940  143.4450 C   0  0  1  0  0  3  0  0  0  0  0  0
  190.1120  177.8510  145.1340 C   0  0  0  0  0  0  0  0  0  0  0  0
  189.7640  177.1810  138.8250 C   0  0  0  0  0  1  0  0  0  0  0  0
  189.1850  178.2550  139.5040 O   0  0  0  0  0  0  0  0  0  0  0  0
  190.9120  175.7340  142.4410 O   0  0  0  0  0  1  0  0  0  0  0  0
  189.5880  176.1560  142.3120 C   0  0  0  0  0  2  0  0  0  0  0  0
  181.7100  178.2730  138.3810 O   0  0  0  0  0  0  0  0  0  0  0  0
  182.1140  177.8890  137.0720 C   0  0  0  0  0  2  0  0  0  0  0  0
  181.6910  176.4880  136.8120 C   0  0  0  0  0  0  0  0  0  0  0  0
  182.4570  175.7030  136.1950 O   0  0  0  0  0  0  0  0  0  0  0  0
  180.4330  176.0580  137.2130 O   0  0  0  0  0  1  0  0  0  0  0  0
  1 13  1  0  0  0  0
  2 19  1  1  0  0  0
  2 22  1  0  0  0  0
  3 20  2  0  0  0  0
  3  4  1  0  0  0  0
  4 15  1  0  0  0  0
  5 16  1  0  0  0  0
  5 19  1  0  0  0  0
  6 14  1  0  0  0  0
  7 12  1  0  0  0  0
  8  1  2  0  0  0  0
  8 14  1  0  0  0  0
  9  6  1  6  0  0  0
  9  2  1  0  0  0  0
 10 25  1  6  0  0  0
 10  9  1  0  0  0  0
 10 17  1  0  0  0  0
 11 22  1  0  0  0  0
 11 18  1  1  0  0  0
 13 16  2  0  0  0  0
 14  5  2  0  0  0  0
 15 12  2  0  0  0  0
 17 27  1  1  0  0  0
 17 11  1  0  0  0  0
 18 23  1  0  0  0  0
 21  7  2  0  0  0  0
 22  3  1  1  0  0  0
 23  4  2  0  0  0  0
 23 21  1  0  0  0  0
 24 25  1  0  0  0  0
 27 26  1  0  0  0  0
 28  1  1  0  0  0  0
 29 28  1  0  0  0  0
 30 29  1  0  0  0  0
 30 32  1  0  0  0  0
 31 30  2  0  0  0  0
M  END
>  <MODEL>
7

>  <REMARK>
 VINA RESULT:      -6.5      1.654      2.119
  Name = 
  5 active torsions:
  status: ('A' for Active; 'I' for Inactive)
    1  A    between atoms: C_1  and  C_10
    2  A    between atoms: C_2  and  O_24
    3  A    between atoms: C_10  and  O_24
    4  A    between atoms: O_13  and  C_15
    5  A    between atoms: C_25  and  C_26
                            x       y       z     vdW  Elec       q    Type
                         _______ _______ _______ _____ _____    ______ ____

>  <TORSDO>
F 5

$$$$
=
 OpenBabel10272413373D

 32 36  0  0  1  0  0  0  0  0999 V2000
  189.6700  177.1930  143.6250 C   0  0  0  0  0  0  0  0  0  0  0  0
  192.0090  176.3540  139.1960 C   0  0  2  0  0  3  0  0  0  0  0  0
  194.1310  175.5970  138.0560 C   0  0  0  0  0  0  0  0  0  0  0  0
  194.8300  175.1960  136.8210 C   0  0  0  0  0  0  0  0  0  0  0  0
  191.4760  177.2320  141.4770 C   0  0  0  0  0  0  0  0  0  0  0  0
  189.7070  176.4550  139.9980 O   0  0  0  0  0  0  0  0  0  0  0  0
  196.1890  174.5170  134.4640 C   0  0  0  0  0  3  0  0  0  0  0  0
  189.2470  176.8200  142.3450 C   0  0  0  0  0  3  0  0  0  0  0  0
  190.5330  176.6040  138.8420 C   0  0  2  0  0  3  0  0  0  0  0  0
  190.0460  175.6570  137.7360 C   0  0  2  0  0  3  0  0  0  0  0  0
  192.1990  176.4700  136.6370 C   0  0  2  0  0  3  0  0  0  0  0  0
  196.6940  174.1120  135.7030 C   0  0  0  0  0  3  0  0  0  0  0  0
  191.0020  177.5940  143.8230 C   0  0  0  0  0  3  0  0  0  0  0  0
  190.1400  176.8450  141.2700 C   0  0  0  0  0  0  0  0  0  0  0  0
  196.0180  174.4520  136.8790 C   0  0  0  0  0  3  0  0  0  0  0  0
  191.8990  177.6160  142.7520 C   0  0  0  0  0  3  0  0  0  0  0  0
  191.0750  175.4200  136.6160 C   0  0  1  0  0  3  0  0  0  0  0  0
  193.0990  176.3250  135.4940 N   0  0  0  0  0  2  0  0  0  0  0  0
  192.4330  177.2940  140.3250 C   0  0  0  0  0  2  0  0  0  0  0  0
  194.5710  175.2140  139.1750 O   0  0  0  0  0  0  0  0  0  0  0  0
  195.0040  175.2550  134.3990 C   0  0  0  0  0  3  0  0  0  0  0  0
  192.9500  176.5400  137.9900 C   0  0  1  0  0  3  0  0  0  0  0  0
  194.3200  175.5870  135.5730 C   0  0  0  0  0  0  0  0  0  0  0  0
  188.0850  175.0170  136.9310 C   0  0  0  0  0  1  0  0  0  0  0  0
  188.8600  176.1500  137.1860 O   0  0  0  0  0  0  0  0  0  0  0  0
  190.9690  173.1940  135.7440 O   0  0  0  0  0  1  0  0  0  0  0  0
  191.6110  173.9960  136.6890 C   0  0  0  0  0  2  0  0  0  0  0  0
  188.7510  177.1580  144.6770 O   0  0  0  0  0  0  0  0  0  0  0  0
  189.0100  177.7530  145.9430 C   0  0  0  0  0  2  0  0  0  0  0  0
  187.7950  177.6590  146.7940 C   0  0  0  0  0  0  0  0  0  0  0  0
  187.8970  177.3200  148.0010 O   0  0  0  0  0  1  0  0  0  0  0  0
  186.5440  177.9070  146.2460 O   0  0  0  0  0  0  0  0  0  0  0  0
  1 13  1  0  0  0  0
  1 28  1  0  0  0  0
  2 19  1  1  0  0  0
  3 20  2  0  0  0  0
  4 15  1  0  0  0  0
  4  3  1  0  0  0  0
  5 16  1  0  0  0  0
  6 14  1  0  0  0  0
  7 12  1  0  0  0  0
  8  1  2  0  0  0  0
  9  2  1  0  0  0  0
  9  6  1  1  0  0  0
 10 25  1  6  0  0  0
 10  9  1  0  0  0  0
 11 18  1  6  0  0  0
 11 22  1  0  0  0  0
 12 15  2  0  0  0  0
 14  5  2  0  0  0  0
 14  8  1  0  0  0  0
 16 13  2  0  0  0  0
 17 11  1  0  0  0  0
 17 27  1  1  0  0  0
 17 10  1  0  0  0  0
 18 23  1  0  0  0  0
 19  5  1  0  0  0  0
 21  7  2  0  0  0  0
 21 23  1  0  0  0  0
 22  3  1  6  0  0  0
 22  2  1  0  0  0  0
 23  4  2  0  0  0  0
 24 25  1  0  0  0  0
 26 27  1  0  0  0  0
 28 29  1  0  0  0  0
 29 30  1  0  0  0  0
 30 31  1  0  0  0  0
 32 30  2  0  0  0  0
M  END
>  <MODEL>
8

>  <REMARK>
 VINA RESULT:      -6.3      5.250      9.163
  Name = 
  5 active torsions:
  status: ('A' for Active; 'I' for Inactive)
    1  A    between atoms: C_1  and  C_10
    2  A    between atoms: C_2  and  O_24
    3  A    between atoms: C_10  and  O_24
    4  A    between atoms: O_13  and  C_15
    5  A    between atoms: C_25  and  C_26
                            x       y       z     vdW  Elec       q    Type
                         _______ _______ _______ _____ _____    ______ ____

>  <TORSDO>
F 5

$$$$
=
 OpenBabel10272413373D

 32 36  0  0  1  0  0  0  0  0999 V2000
  189.0210  178.2230  137.5770 C   0  0  0  0  0  0  0  0  0  0  0  0
  187.9920  177.7380  142.5260 C   0  0  2  0  0  3  0  0  0  0  0  0
  188.8940  177.8840  144.8800 C   0  0  0  0  0  0  0  0  0  0  0  0
  188.6440  177.9020  146.3330 C   0  0  0  0  0  0  0  0  0  0  0  0
  189.0410  177.4470  140.2730 C   0  0  0  0  0  0  0  0  0  0  0  0
  186.7320  178.1840  140.4850 O   0  0  0  0  0  0  0  0  0  0  0  0
  188.1820  177.8480  149.0980 C   0  0  0  0  0  3  0  0  0  0  0  0
  187.8770  178.3890  138.3640 C   0  0  0  0  0  3  0  0  0  0  0  0
  186.6310  177.6660  141.8130 C   0  0  2  0  0  3  0  0  0  0  0  0
  185.5460  178.4330  142.5820 C   0  0  2  0  0  3  0  0  0  0  0  0
  186.5060  177.0680  144.5120 C   0  0  2  0  0  3  0  0  0  0  0  0
  189.3590  178.4110  148.5960 C   0  0  0  0  0  3  0  0  0  0  0  0
  190.1750  177.6580  138.1450 C   0  0  0  0  0  3  0  0  0  0  0  0
  187.8790  177.9980  139.7050 C   0  0  0  0  0  0  0  0  0  0  0  0
  189.5910  178.4350  147.2180 C   0  0  0  0  0  3  0  0  0  0  0  0
  190.1830  177.2690  139.4880 C   0  0  0  0  0  3  0  0  0  0  0  0
  185.6220  178.2620  144.1110 C   0  0  1  0  0  3  0  0  0  0  0  0
  186.4690  176.8250  145.9520 N   0  0  0  0  0  2  0  0  0  0  0  0
  189.0440  176.9930  141.7020 C   0  0  0  0  0  2  0  0  0  0  0  0
  189.9460  178.4110  144.4210 O   0  0  0  0  0  0  0  0  0  0  0  0
  187.2320  177.3180  148.2210 C   0  0  0  0  0  3  0  0  0  0  0  0
  187.9470  177.1550  143.9520 C   0  0  1  0  0  3  0  0  0  0  0  0
  187.4550  177.3520  146.8410 C   0  0  0  0  0  0  0  0  0  0  0  0
  183.3810  178.7870  142.8890 C   0  0  0  0  0  1  0  0  0  0  0  0
  184.2840  178.0400  142.1300 O   0  0  0  0  0  0  0  0  0  0  0  0
  185.2350  179.8810  145.8300 O   0  0  0  0  0  1  0  0  0  0  0  0
  186.0750  179.5620  144.7620 C   0  0  0  0  0  2  0  0  0  0  0  0
  188.9850  178.6240  136.2390 O   0  0  0  0  0  0  0  0  0  0  0  0
  188.8270  177.7050  135.1650 C   0  0  0  0  0  2  0  0  0  0  0  0
  187.3790  177.4980  134.8960 C   0  0  0  0  0  0  0  0  0  0  0  0
  186.7010  178.4150  134.3640 O   0  0  0  0  0  0  0  0  0  0  0  0
  186.7680  176.3100  135.2700 O   0  0  0  0  0  1  0  0  0  0  0  0
  1 13  2  0  0  0  0
  1  8  1  0  0  0  0
  2 19  1  6  0  0  0
  2 22  1  0  0  0  0
  3  4  1  0  0  0  0
  4 23  2  0  0  0  0
  4 15  1  0  0  0  0
  5 19  1  0  0  0  0
  8 14  2  0  0  0  0
  9  6  1  6  0  0  0
  9  2  1  0  0  0  0
  9 10  1  0  0  0  0
 10 25  1  6  0  0  0
 10 17  1  0  0  0  0
 11 18  1  1  0  0  0
 12  7  1  0  0  0  0
 13 16  1  0  0  0  0
 14  5  1  0  0  0  0
 14  6  1  0  0  0  0
 15 12  2  0  0  0  0
 16  5  2  0  0  0  0
 17 11  1  0  0  0  0
 17 27  1  1  0  0  0
 18 23  1  0  0  0  0
 20  3  2  0  0  0  0
 21  7  2  0  0  0  0
 22 11  1  0  0  0  0
 22  3  1  1  0  0  0
 23 21  1  0  0  0  0
 25 24  1  0  0  0  0
 27 26  1  0  0  0  0
 28  1  1  0  0  0  0
 29 28  1  0  0  0  0
 30 29  1  0  0  0  0
 30 32  1  0  0  0  0
 31 30  2  0  0  0  0
M  END
>  <MODEL>
9

>  <REMARK>
 VINA RESULT:      -6.2      2.691      5.784
  Name = 
  5 active torsions:
  status: ('A' for Active; 'I' for Inactive)
    1  A    between atoms: C_1  and  C_10
    2  A    between atoms: C_2  and  O_24
    3  A    between atoms: C_10  and  O_24
    4  A    between atoms: O_13  and  C_15
    5  A    between atoms: C_25  and  C_26
                            x       y       z     vdW  Elec       q    Type
                         _______ _______ _______ _____ _____    ______ ____

>  <TORSDO>
F 5

$$$$
