=
 OpenBabel10272400323D

 31 35  0  0  1  0  0  0  0  0999 V2000
  180.6670  176.7390  137.0880 C   0  0  2  0  0  3  0  0  0  0  0  0
  184.2760  177.2350  137.3320 C   0  0  1  0  0  3  0  0  0  0  0  0
  185.1680  176.0530  136.9660 C   0  0  0  0  0  0  0  0  0  0  0  0
  184.8010  173.7940  136.0140 C   0  0  0  0  0  3  0  0  0  0  0  0
  182.9480  176.8090  137.7880 N   0  0  2  0  0  0  0  0  0  0  0  0
  179.9830  178.8950  138.1150 C   0  0  0  0  0  1  0  0  0  0  0  0
  184.6850  174.6560  137.2240 C   0  0  0  0  0  2  0  0  0  0  0  0
  184.3120  178.5250  139.6750 C   0  0  2  0  0  3  0  0  0  0  0  0
  179.9830  175.4410  137.4720 C   0  0  0  0  0  1  0  0  0  0  0  0
  187.0430  178.0040  136.5980 S   0  0  0  0  0  0  0  0  0  0  0  0
  185.9730  173.4920  135.4590 C   0  0  0  0  0  3  0  0  0  0  0  0
  182.8090  178.1990  139.7450 C   0  0  0  0  0  2  0  0  0  0  0  0
  184.9930  178.0780  138.3910 C   0  0  0  0  0  0  0  0  0  0  0  0
  182.1000  176.4520  136.6590 C   0  0  0  0  0  2  0  0  0  0  0  0
  187.2710  174.0320  135.9030 C   0  0  0  0  0  3  0  0  0  0  0  0
  182.2620  177.9530  138.3540 C   0  0  2  0  0  3  0  0  0  0  0  0
  180.7900  177.6260  138.3120 C   0  0  2  0  0  3  0  0  0  0  0  0
  186.2700  178.4240  138.1710 C   0  0  0  0  0  3  0  0  0  0  0  0
  186.4620  176.2970  136.6570 C   0  0  0  0  0  0  0  0  0  0  0  0
  187.4770  175.2450  136.4300 C   0  0  0  0  0  3  0  0  0  0  0  0
  185.9500  179.9400  141.5280 O   0  0  0  0  0  0  0  0  0  0  0  0
  185.7740  178.7090  141.7420 C   0  0  0  0  0  0  0  0  0  0  0  0
  184.9910  177.9410  140.8240 N   0  0  0  0  0  2  0  0  0  0  0  0
  187.9960  176.9660  145.1060 C   0  0  2  0  0  3  0  0  0  0  0  0
  187.7760  177.4420  142.6600 C   0  0  0  0  0  2  0  0  0  0  0  0
  184.6730  178.8840  144.5030 C   0  0  0  0  0  1  0  0  0  0  0  0
  188.9610  178.1120  145.3650 C   0  0  0  0  0  1  0  0  0  0  0  0
  188.1590  176.3980  143.7040 C   0  0  0  0  0  2  0  0  0  0  0  0
  185.9300  178.1450  144.1780 C   0  0  0  0  0  0  0  0  0  0  0  0
  186.4290  178.0730  142.9160 C   0  0  0  0  0  0  0  0  0  0  0  0
  186.5510  177.4020  145.3340 C   0  0  0  0  0  2  0  0  0  0  0  0
  1  9  1  1  0  0  0
  1 17  1  0  0  0  0
  2  3  1  1  0  0  0
  2  5  1  0  0  0  0
  2 13  1  0  0  0  0
  3  7  1  0  0  0  0
  4  7  1  0  0  0  0
  5 14  1  6  0  0  0
  5 16  1  0  0  0  0
  8 12  1  0  0  0  0
  8 23  1  1  0  0  0
 10 19  1  0  0  0  0
 10 18  1  0  0  0  0
 11 15  1  0  0  0  0
 11  4  2  0  0  0  0
 13  8  1  0  0  0  0
 14  1  1  0  0  0  0
 15 20  2  0  0  0  0
 16 12  1  1  0  0  0
 17  6  1  6  0  0  0
 17 16  1  0  0  0  0
 18 13  2  0  0  0  0
 19  3  2  0  0  0  0
 20 19  1  0  0  0  0
 21 22  2  0  0  0  0
 22 30  1  0  0  0  0
 23 22  1  0  0  0  0
 24 31  1  0  0  0  0
 24 27  1  6  0  0  0
 25 30  1  0  0  0  0
 25 28  1  0  0  0  0
 28 24  1  0  0  0  0
 29 26  1  0  0  0  0
 29 31  1  0  0  0  0
 30 29  2  0  0  0  0
M  END
>  <MODEL>
1

>  <REMARK>
 VINA RESULT:      -7.4      0.000      0.000
  Name = 
  2 active torsions:
  status: ('A' for Active; 'I' for Inactive)
    1  A    between atoms: C_9  and  C_22
    2  A    between atoms: C_15  and  N_23
                            x       y       z     vdW  Elec       q    Type
                         _______ _______ _______ _____ _____    ______ ____

>  <TORSDO>
F 2

$$$$
=
 OpenBabel10272400323D

 31 35  0  0  1  0  0  0  0  0999 V2000
  181.4820  177.2140  137.7790 C   0  0  2  0  0  3  0  0  0  0  0  0
  184.8540  176.3010  136.7140 C   0  0  1  0  0  3  0  0  0  0  0  0
  185.1940  174.8160  136.6790 C   0  0  0  0  0  0  0  0  0  0  0  0
  183.9310  172.7070  136.9990 C   0  0  0  0  0  3  0  0  0  0  0  0
  183.7880  176.6050  137.6770 N   0  0  2  0  0  0  0  0  0  0  0  0
  181.8360  179.6710  137.8730 C   0  0  0  0  0  1  0  0  0  0  0  0
  184.5510  173.8870  137.6670 C   0  0  0  0  0  2  0  0  0  0  0  0
  186.1910  178.1570  138.1010 C   0  0  2  0  0  3  0  0  0  0  0  0
  180.7410  176.4910  138.8860 C   0  0  0  0  0  1  0  0  0  0  0  0
  187.1380  175.6380  134.9450 S   0  0  0  0  0  0  0  0  0  0  0  0
  184.6450  171.8060  136.3270 C   0  0  0  0  0  3  0  0  0  0  0  0
  184.8320  178.4900  138.7440 C   0  0  0  0  0  2  0  0  0  0  0  0
  186.1310  177.0880  137.0210 C   0  0  0  0  0  0  0  0  0  0  0  0
  182.4820  176.2650  137.1300 C   0  0  0  0  0  2  0  0  0  0  0  0
  186.0950  171.9060  136.0820 C   0  0  0  0  0  3  0  0  0  0  0  0
  183.7020  178.0430  137.8380 C   0  0  2  0  0  3  0  0  0  0  0  0
  182.3230  178.3260  138.3770 C   0  0  2  0  0  3  0  0  0  0  0  0
  187.2340  176.8130  136.3090 C   0  0  0  0  0  3  0  0  0  0  0  0
  186.2500  174.4170  135.9330 C   0  0  0  0  0  0  0  0  0  0  0  0
  186.7890  173.0380  135.9200 C   0  0  0  0  0  3  0  0  0  0  0  0
  188.7910  179.2570  138.4840 O   0  0  0  0  0  0  0  0  0  0  0  0
  188.4170  178.3730  139.3040 C   0  0  0  0  0  0  0  0  0  0  0  0
  187.1350  177.7590  139.1370 N   0  0  0  0  0  2  0  0  0  0  0  0
  190.8700  176.9960  142.6770 C   0  0  2  0  0  3  0  0  0  0  0  0
  188.8310  178.1520  141.8000 C   0  0  0  0  0  2  0  0  0  0  0  0
  190.9880  176.9600  138.7950 C   0  0  0  0  0  1  0  0  0  0  0  0
  190.1510  175.6880  142.9660 C   0  0  0  0  0  1  0  0  0  0  0  0
  189.9460  178.1950  142.8400 C   0  0  0  0  0  2  0  0  0  0  0  0
  190.5140  177.3110  140.1670 C   0  0  0  0  0  0  0  0  0  0  0  0
  189.3370  177.9520  140.3920 C   0  0  0  0  0  0  0  0  0  0  0  0
  191.4820  176.9880  141.2790 C   0  0  0  0  0  2  0  0  0  0  0  0
  1 17  1  0  0  0  0
  1  9  1  1  0  0  0
  2  3  1  1  0  0  0
  2 13  1  0  0  0  0
  2  5  1  0  0  0  0
  3  7  1  0  0  0  0
  4  7  1  0  0  0  0
  5 14  1  6  0  0  0
  5 16  1  0  0  0  0
  8 12  1  0  0  0  0
  8 23  1  1  0  0  0
 10 19  1  0  0  0  0
 10 18  1  0  0  0  0
 11  4  2  0  0  0  0
 13  8  1  0  0  0  0
 14  1  1  0  0  0  0
 15 11  1  0  0  0  0
 16 17  1  0  0  0  0
 16 12  1  1  0  0  0
 17  6  1  6  0  0  0
 18 13  2  0  0  0  0
 19  3  2  0  0  0  0
 20 19  1  0  0  0  0
 20 15  2  0  0  0  0
 21 22  2  0  0  0  0
 22 30  1  0  0  0  0
 23 22  1  0  0  0  0
 24 28  1  0  0  0  0
 24 27  1  6  0  0  0
 25 28  1  0  0  0  0
 26 29  1  0  0  0  0
 29 30  2  0  0  0  0
 29 31  1  0  0  0  0
 30 25  1  0  0  0  0
 31 24  1  0  0  0  0
M  END
>  <MODEL>
2

>  <REMARK>
 VINA RESULT:      -7.1      2.252      3.208
  Name = 
  2 active torsions:
  status: ('A' for Active; 'I' for Inactive)
    1  A    between atoms: C_9  and  C_22
    2  A    between atoms: C_15  and  N_23
                            x       y       z     vdW  Elec       q    Type
                         _______ _______ _______ _____ _____    ______ ____

>  <TORSDO>
F 2

$$$$
=
 OpenBabel10272400323D

 31 35  0  0  1  0  0  0  0  0999 V2000
  184.3380  174.9450  134.6150 C   0  0  2  0  0  3  0  0  0  0  0  0
  187.8670  175.5660  135.3180 C   0  0  1  0  0  3  0  0  0  0  0  0
  188.7850  174.3510  135.3960 C   0  0  0  0  0  0  0  0  0  0  0  0
  188.5400  171.9220  134.9650 C   0  0  0  0  0  3  0  0  0  0  0  0
  186.4740  175.2310  135.6400 N   0  0  2  0  0  0  0  0  0  0  0  0
  183.5330  177.2680  134.9710 C   0  0  0  0  0  1  0  0  0  0  0  0
  188.2420  173.0460  135.8990 C   0  0  0  0  0  2  0  0  0  0  0  0
  187.5410  177.3790  137.2580 C   0  0  2  0  0  3  0  0  0  0  0  0
  183.5770  173.7620  135.1820 C   0  0  0  0  0  1  0  0  0  0  0  0
  190.7290  176.2000  134.8820 S   0  0  0  0  0  0  0  0  0  0  0  0
  189.7820  171.5230  134.6980 C   0  0  0  0  0  3  0  0  0  0  0  0
  186.0410  177.0450  137.1580 C   0  0  0  0  0  2  0  0  0  0  0  0
  188.4150  176.6530  136.2460 C   0  0  0  0  0  0  0  0  0  0  0  0
  185.8170  174.5960  134.5070 C   0  0  0  0  0  2  0  0  0  0  0  0
  190.9980  172.1830  135.2040 C   0  0  0  0  0  3  0  0  0  0  0  0
  185.7250  176.4620  135.7960 C   0  0  2  0  0  3  0  0  0  0  0  0
  184.2740  176.1010  135.5950 C   0  0  2  0  0  3  0  0  0  0  0  0
  189.7170  176.9660  136.1620 C   0  0  0  0  0  3  0  0  0  0  0  0
  190.1160  174.5430  135.2530 C   0  0  0  0  0  0  0  0  0  0  0  0
  191.1370  173.4900  135.4520 C   0  0  0  0  0  3  0  0  0  0  0  0
  188.9600  179.2020  138.9250 O   0  0  0  0  0  0  0  0  0  0  0  0
  188.6920  178.0700  139.4130 C   0  0  0  0  0  0  0  0  0  0  0  0
  188.0130  177.1010  138.6080 N   0  0  0  0  0  2  0  0  0  0  0  0
  190.2800  177.2860  143.4320 C   0  0  2  0  0  3  0  0  0  0  0  0
  190.5730  177.3220  140.9480 C   0  0  0  0  0  2  0  0  0  0  0  0
  186.9680  178.4960  141.8030 C   0  0  0  0  0  1  0  0  0  0  0  0
  191.0020  178.6060  143.6570 C   0  0  0  0  0  1  0  0  0  0  0  0
  190.8350  176.5380  142.2300 C   0  0  0  0  0  2  0  0  0  0  0  0
  188.3500  177.9370  141.8910 C   0  0  0  0  0  0  0  0  0  0  0  0
  189.1330  177.7490  140.7960 C   0  0  0  0  0  0  0  0  0  0  0  0
  188.7780  177.5040  143.2710 C   0  0  0  0  0  2  0  0  0  0  0  0
  1  9  1  1  0  0  0
  1 17  1  0  0  0  0
  2  3  1  1  0  0  0
  2  5  1  0  0  0  0
  2 13  1  0  0  0  0
  3  7  1  0  0  0  0
  4  7  1  0  0  0  0
  5 14  1  6  0  0  0
  5 16  1  0  0  0  0
  8 23  1  1  0  0  0
 10 19  1  0  0  0  0
 10 18  1  0  0  0  0
 11  4  2  0  0  0  0
 11 15  1  0  0  0  0
 12  8  1  0  0  0  0
 13  8  1  0  0  0  0
 14  1  1  0  0  0  0
 15 20  2  0  0  0  0
 16 12  1  1  0  0  0
 17  6  1  6  0  0  0
 17 16  1  0  0  0  0
 18 13  2  0  0  0  0
 19  3  2  0  0  0  0
 19 20  1  0  0  0  0
 21 22  2  0  0  0  0
 22 30  1  0  0  0  0
 23 22  1  0  0  0  0
 24 27  1  6  0  0  0
 25 28  1  0  0  0  0
 26 29  1  0  0  0  0
 28 24  1  0  0  0  0
 29 31  1  0  0  0  0
 30 25  1  0  0  0  0
 30 29  2  0  0  0  0
 31 24  1  0  0  0  0
M  END
>  <MODEL>
3

>  <REMARK>
 VINA RESULT:      -6.7      2.933      4.086
  Name = 
  2 active torsions:
  status: ('A' for Active; 'I' for Inactive)
    1  A    between atoms: C_9  and  C_22
    2  A    between atoms: C_15  and  N_23
                            x       y       z     vdW  Elec       q    Type
                         _______ _______ _______ _____ _____    ______ ____

>  <TORSDO>
F 2

$$$$
=
 OpenBabel10272400323D

 31 35  0  0  1  0  0  0  0  0999 V2000
  188.6010  178.5020  140.3140 C   0  0  2  0  0  3  0  0  0  0  0  0
  185.0190  178.7680  139.6540 C   0  0  1  0  0  3  0  0  0  0  0  0
  184.0790  178.6200  140.8450 C   0  0  0  0  0  0  0  0  0  0  0  0
  184.3590  178.4150  143.3000 C   0  0  0  0  0  3  0  0  0  0  0  0
  186.2960  178.0750  139.8640 N   0  0  2  0  0  0  0  0  0  0  0  0
  189.3580  178.5190  137.9480 C   0  0  0  0  0  1  0  0  0  0  0  0
  184.4660  177.7230  141.9830 C   0  0  0  0  0  2  0  0  0  0  0  0
  184.9430  177.2750  137.4360 C   0  0  2  0  0  3  0  0  0  0  0  0
  189.1870  177.5230  141.3120 C   0  0  0  0  0  1  0  0  0  0  0  0
  182.3430  179.9670  139.2230 S   0  0  0  0  0  0  0  0  0  0  0  0
  183.2000  178.8540  143.7870 C   0  0  0  0  0  3  0  0  0  0  0  0
  186.4190  176.9570  137.7380 C   0  0  0  0  0  2  0  0  0  0  0  0
  184.3020  178.2610  138.3990 C   0  0  0  0  0  0  0  0  0  0  0  0
  187.1760  178.8550  140.7220 C   0  0  0  0  0  2  0  0  0  0  0  0
  181.9170  178.7970  143.0650 C   0  0  0  0  0  3  0  0  0  0  0  0
  187.0200  178.0430  138.6080 C   0  0  2  0  0  3  0  0  0  0  0  0
  188.4690  177.8260  138.9620 C   0  0  2  0  0  3  0  0  0  0  0  0
  183.0600  178.7040  138.1530 C   0  0  0  0  0  3  0  0  0  0  0  0
  182.8190  179.0970  140.7310 C   0  0  0  0  0  0  0  0  0  0  0  0
  181.7560  178.8950  141.7400 C   0  0  0  0  0  3  0  0  0  0  0  0
  184.5810  175.5940  135.1630 O   0  0  0  0  0  0  0  0  0  0  0  0
  184.0560  175.2150  136.2460 C   0  0  0  0  0  0  0  0  0  0  0  0
  184.1740  176.0380  137.4110 N   0  0  0  0  0  2  0  0  0  0  0  0
  181.7330  171.4950  135.9980 C   0  0  2  0  0  3  0  0  0  0  0  0
  182.0520  173.9030  135.3980 C   0  0  0  0  0  2  0  0  0  0  0  0
  184.9740  172.7870  137.7050 C   0  0  0  0  0  1  0  0  0  0  0  0
  182.2790  170.9690  134.6800 C   0  0  0  0  0  1  0  0  0  0  0  0
  181.0450  172.8400  135.8270 C   0  0  0  0  0  2  0  0  0  0  0  0
  183.6910  172.8360  136.9420 C   0  0  0  0  0  0  0  0  0  0  0  0
  183.2810  173.9470  136.2750 C   0  0  0  0  0  0  0  0  0  0  0  0
  182.8370  171.5970  137.0480 C   0  0  0  0  0  2  0  0  0  0  0  0
  1 14  1  0  0  0  0
  1  9  1  1  0  0  0
  2 13  1  6  0  0  0
  2  5  1  0  0  0  0
  2  3  1  0  0  0  0
  3  7  1  0  0  0  0
  4 11  2  0  0  0  0
  5 14  1  1  0  0  0
  7  4  1  0  0  0  0
  8 23  1  1  0  0  0
  8 12  1  0  0  0  0
  8 13  1  0  0  0  0
 10 19  1  0  0  0  0
 15 11  1  0  0  0  0
 16 12  1  6  0  0  0
 16 17  1  0  0  0  0
 16  5  1  0  0  0  0
 17  6  1  6  0  0  0
 17  1  1  0  0  0  0
 18 13  2  0  0  0  0
 18 10  1  0  0  0  0
 19  3  2  0  0  0  0
 19 20  1  0  0  0  0
 20 15  2  0  0  0  0
 21 22  2  0  0  0  0
 22 30  1  0  0  0  0
 22 23  1  0  0  0  0
 24 27  1  6  0  0  0
 24 31  1  0  0  0  0
 25 28  1  0  0  0  0
 25 30  1  0  0  0  0
 28 24  1  0  0  0  0
 29 31  1  0  0  0  0
 29 26  1  0  0  0  0
 30 29  2  0  0  0  0
M  END
>  <MODEL>
4

>  <REMARK>
 VINA RESULT:      -6.6      2.806      8.047
  Name = 
  2 active torsions:
  status: ('A' for Active; 'I' for Inactive)
    1  A    between atoms: C_9  and  C_22
    2  A    between atoms: C_15  and  N_23
                            x       y       z     vdW  Elec       q    Type
                         _______ _______ _______ _____ _____    ______ ____

>  <TORSDO>
F 2

$$$$
=
 OpenBabel10272400323D

 31 35  0  0  1  0  0  0  0  0999 V2000
  181.7670  178.0100  138.1110 C   0  0  2  0  0  3  0  0  0  0  0  0
  185.1120  176.8830  137.1800 C   0  0  1  0  0  3  0  0  0  0  0  0
  185.3020  175.3890  136.9420 C   0  0  0  0  0  0  0  0  0  0  0  0
  183.8060  173.4150  136.8330 C   0  0  0  0  0  3  0  0  0  0  0  0
  183.9980  177.1620  138.0940 N   0  0  2  0  0  0  0  0  0  0  0  0
  182.3590  180.3700  138.6130 C   0  0  0  0  0  1  0  0  0  0  0  0
  184.4780  174.4060  137.7210 C   0  0  0  0  0  2  0  0  0  0  0  0
  186.4960  178.3500  138.9370 C   0  0  2  0  0  3  0  0  0  0  0  0
  180.8550  177.2230  139.0330 C   0  0  0  0  0  1  0  0  0  0  0  0
  187.4720  176.2270  135.5110 S   0  0  0  0  0  0  0  0  0  0  0  0
  184.4850  172.5460  136.0860 C   0  0  0  0  0  3  0  0  0  0  0  0
  185.1240  178.7400  139.5170 C   0  0  0  0  0  2  0  0  0  0  0  0
  186.4290  177.4650  137.7030 C   0  0  0  0  0  0  0  0  0  0  0  0
  182.7210  177.0580  137.4030 C   0  0  0  0  0  2  0  0  0  0  0  0
  185.9540  172.5130  135.9720 C   0  0  0  0  0  3  0  0  0  0  0  0
  184.0440  178.5620  138.4690 C   0  0  2  0  0  3  0  0  0  0  0  0
  182.6570  178.9190  138.9380 C   0  0  2  0  0  3  0  0  0  0  0  0
  187.5600  177.1720  137.0440 C   0  0  0  0  0  3  0  0  0  0  0  0
  186.3770  174.9840  136.2260 C   0  0  0  0  0  0  0  0  0  0  0  0
  186.7710  173.5700  136.0420 C   0  0  0  0  0  3  0  0  0  0  0  0
  187.8070  179.6700  141.0960 O   0  0  0  0  0  0  0  0  0  0  0  0
  187.9020  178.4130  141.0510 C   0  0  0  0  0  0  0  0  0  0  0  0
  187.2940  177.7010  139.9680 N   0  0  0  0  0  2  0  0  0  0  0  0
  190.4660  176.5380  144.0850 C   0  0  2  0  0  3  0  0  0  0  0  0
  190.1530  177.5010  141.7970 C   0  0  0  0  0  2  0  0  0  0  0  0
  186.7680  177.6630  143.7010 C   0  0  0  0  0  1  0  0  0  0  0  0
  191.1020  177.7950  144.6570 C   0  0  0  0  0  1  0  0  0  0  0  0
  190.7810  176.3710  142.6060 C   0  0  0  0  0  2  0  0  0  0  0  0
  188.1740  177.3540  143.3050 C   0  0  0  0  0  0  0  0  0  0  0  0
  188.6860  177.7030  142.0950 C   0  0  0  0  0  0  0  0  0  0  0  0
  188.9550  176.5390  144.3060 C   0  0  0  0  0  2  0  0  0  0  0  0
  1 17  1  0  0  0  0
  1  9  1  1  0  0  0
  2  3  1  1  0  0  0
  2 13  1  0  0  0  0
  2  5  1  0  0  0  0
  3  7  1  0  0  0  0
  4  7  1  0  0  0  0
  5 14  1  6  0  0  0
  5 16  1  0  0  0  0
  8 12  1  0  0  0  0
  8 23  1  1  0  0  0
 10 19  1  0  0  0  0
 10 18  1  0  0  0  0
 11  4  2  0  0  0  0
 13  8  1  0  0  0  0
 14  1  1  0  0  0  0
 15 20  2  0  0  0  0
 15 11  1  0  0  0  0
 16 17  1  0  0  0  0
 16 12  1  1  0  0  0
 17  6  1  6  0  0  0
 18 13  2  0  0  0  0
 19  3  2  0  0  0  0
 20 19  1  0  0  0  0
 22 21  2  0  0  0  0
 22 30  1  0  0  0  0
 23 22  1  0  0  0  0
 24 31  1  0  0  0  0
 24 27  1  6  0  0  0
 25 30  1  0  0  0  0
 25 28  1  0  0  0  0
 28 24  1  0  0  0  0
 29 26  1  0  0  0  0
 29 31  1  0  0  0  0
 30 29  2  0  0  0  0
M  END
>  <MODEL>
5

>  <REMARK>
 VINA RESULT:      -6.5      1.517      2.108
  Name = 
  2 active torsions:
  status: ('A' for Active; 'I' for Inactive)
    1  A    between atoms: C_9  and  C_22
    2  A    between atoms: C_15  and  N_23
                            x       y       z     vdW  Elec       q    Type
                         _______ _______ _______ _____ _____    ______ ____

>  <TORSDO>
F 2

$$$$
=
 OpenBabel10272400323D

 31 35  0  0  1  0  0  0  0  0999 V2000
  188.4410  178.4220  140.3250 C   0  0  2  0  0  3  0  0  0  0  0  0
  184.8850  178.7880  139.5780 C   0  0  1  0  0  3  0  0  0  0  0  0
  183.9120  178.6520  140.7440 C   0  0  0  0  0  0  0  0  0  0  0  0
  184.1240  178.4140  143.2020 C   0  0  0  0  0  3  0  0  0  0  0  0
  186.1370  178.0590  139.8130 N   0  0  2  0  0  0  0  0  0  0  0  0
  189.2580  178.4440  137.9790 C   0  0  0  0  0  1  0  0  0  0  0  0
  184.2450  177.7330  141.8820 C   0  0  0  0  0  2  0  0  0  0  0  0
  184.8270  177.3200  137.3430 C   0  0  2  0  0  3  0  0  0  0  0  0
  188.9760  177.4170  141.3270 C   0  0  0  0  0  1  0  0  0  0  0  0
  182.2520  180.0600  139.0940 S   0  0  0  0  0  0  0  0  0  0  0  0
  182.9640  178.8770  143.6650 C   0  0  0  0  0  3  0  0  0  0  0  0
  186.2860  176.9610  137.6790 C   0  0  0  0  0  2  0  0  0  0  0  0
  184.1870  178.3130  138.3010 C   0  0  0  0  0  0  0  0  0  0  0  0
  187.0160  178.8070  140.7010 C   0  0  0  0  0  2  0  0  0  0  0  0
  181.6980  178.8620  142.9100 C   0  0  0  0  0  3  0  0  0  0  0  0
  186.8920  178.0210  138.5750 C   0  0  2  0  0  3  0  0  0  0  0  0
  188.3260  177.7630  138.9630 C   0  0  2  0  0  3  0  0  0  0  0  0
  182.9630  178.7910  138.0290 C   0  0  0  0  0  3  0  0  0  0  0  0
  182.6670  179.1630  140.6040 C   0  0  0  0  0  0  0  0  0  0  0  0
  181.5740  178.9770  141.5830 C   0  0  0  0  0  3  0  0  0  0  0  0
  184.6210  175.5780  135.0970 O   0  0  0  0  0  0  0  0  0  0  0  0
  183.9890  175.2480  136.1380 C   0  0  0  0  0  0  0  0  0  0  0  0
  184.0270  176.1040  137.2840 N   0  0  0  0  0  2  0  0  0  0  0  0
  181.6100  171.5700  136.4610 C   0  0  2  0  0  3  0  0  0  0  0  0
  183.6130  172.9260  137.1000 C   0  0  0  0  0  2  0  0  0  0  0  0
  181.4880  174.9490  134.5500 C   0  0  0  0  0  1  0  0  0  0  0  0
  180.8280  171.9100  137.7200 C   0  0  0  0  0  1  0  0  0  0  0  0
  183.1080  171.5380  136.7200 C   0  0  0  0  0  2  0  0  0  0  0  0
  182.0380  173.8570  135.4090 C   0  0  0  0  0  0  0  0  0  0  0  0
  183.1780  174.0020  136.1340 C   0  0  0  0  0  0  0  0  0  0  0  0
  181.2890  172.5490  135.3350 C   0  0  0  0  0  2  0  0  0  0  0  0
  1 14  1  0  0  0  0
  1  9  1  1  0  0  0
  2 13  1  6  0  0  0
  2  5  1  0  0  0  0
  2  3  1  0  0  0  0
  3  7  1  0  0  0  0
  4 11  2  0  0  0  0
  5 14  1  1  0  0  0
  7  4  1  0  0  0  0
  8 23  1  1  0  0  0
  8 12  1  0  0  0  0
  8 13  1  0  0  0  0
 10 19  1  0  0  0  0
 15 11  1  0  0  0  0
 16 12  1  6  0  0  0
 16 17  1  0  0  0  0
 16  5  1  0  0  0  0
 17  6  1  6  0  0  0
 17  1  1  0  0  0  0
 18 13  2  0  0  0  0
 18 10  1  0  0  0  0
 19  3  2  0  0  0  0
 19 20  1  0  0  0  0
 20 15  2  0  0  0  0
 21 22  2  0  0  0  0
 22 23  1  0  0  0  0
 24 28  1  0  0  0  0
 24 27  1  1  0  0  0
 26 29  1  0  0  0  0
 28 25  1  0  0  0  0
 29 30  2  0  0  0  0
 30 22  1  0  0  0  0
 30 25  1  0  0  0  0
 31 29  1  0  0  0  0
 31 24  1  0  0  0  0
M  END
>  <MODEL>
6

>  <REMARK>
 VINA RESULT:      -6.2      2.836      8.007
  Name = 
  2 active torsions:
  status: ('A' for Active; 'I' for Inactive)
    1  A    between atoms: C_9  and  C_22
    2  A    between atoms: C_15  and  N_23
                            x       y       z     vdW  Elec       q    Type
                         _______ _______ _______ _____ _____    ______ ____

>  <TORSDO>
F 2

$$$$
=
 OpenBabel10272400323D

 31 35  0  0  1  0  0  0  0  0999 V2000
  194.0060  175.3670  136.9960 C   0  0  2  0  0  3  0  0  0  0  0  0
  190.7800  177.0770  137.0940 C   0  0  1  0  0  3  0  0  0  0  0  0
  190.1180  177.2360  138.4570 C   0  0  0  0  0  0  0  0  0  0  0  0
  190.7740  176.7740  140.8030 C   0  0  0  0  0  3  0  0  0  0  0  0
  191.6840  175.9210  137.0460 N   0  0  2  0  0  0  0  0  0  0  0  0
  194.2180  175.2390  134.5240 C   0  0  0  0  0  1  0  0  0  0  0  0
  190.3290  176.1850  139.5080 C   0  0  0  0  0  2  0  0  0  0  0  0
  189.6700  175.8870  134.9710 C   0  0  2  0  0  3  0  0  0  0  0  0
  194.3350  174.1720  137.8690 C   0  0  0  0  0  1  0  0  0  0  0  0
  188.7850  179.2650  137.2070 S   0  0  0  0  0  0  0  0  0  0  0  0
  190.0120  177.6040  141.5130 C   0  0  0  0  0  3  0  0  0  0  0  0
  190.9220  174.9900  134.9640 C   0  0  0  0  0  2  0  0  0  0  0  0
  189.6860  176.9810  136.0270 C   0  0  0  0  0  0  0  0  0  0  0  0
  192.9550  176.2290  137.6860 C   0  0  0  0  0  2  0  0  0  0  0  0
  188.6980  178.1100  141.0760 C   0  0  0  0  0  3  0  0  0  0  0  0
  192.0680  175.6880  135.6680 C   0  0  2  0  0  3  0  0  0  0  0  0
  193.3470  174.8900  135.7150 C   0  0  2  0  0  3  0  0  0  0  0  0
  188.7050  177.8960  136.0370 C   0  0  0  0  0  3  0  0  0  0  0  0
  189.1610  178.1810  138.6000 C   0  0  0  0  0  0  0  0  0  0  0  0
  188.3300  178.3500  139.8130 C   0  0  0  0  0  3  0  0  0  0  0  0
  189.2700  173.9340  137.0060 O   0  0  0  0  0  0  0  0  0  0  0  0
  188.3200  174.1200  136.1960 C   0  0  0  0  0  0  0  0  0  0  0  0
  188.4800  175.0620  135.1310 N   0  0  0  0  0  2  0  0  0  0  0  0
  184.4720  172.0370  136.5840 C   0  0  2  0  0  3  0  0  0  0  0  0
  186.0170  173.8920  137.2440 C   0  0  0  0  0  2  0  0  0  0  0  0
  187.7840  171.6710  134.5880 C   0  0  0  0  0  1  0  0  0  0  0  0
  183.6480  172.8980  135.6400 C   0  0  0  0  0  1  0  0  0  0  0  0
  185.0260  172.8480  137.7470 C   0  0  0  0  0  2  0  0  0  0  0  0
  186.8270  172.1970  135.6070 C   0  0  0  0  0  0  0  0  0  0  0  0
  187.0760  173.3180  136.3340 C   0  0  0  0  0  0  0  0  0  0  0  0
  185.6080  171.3390  135.8400 C   0  0  0  0  0  2  0  0  0  0  0  0
  1 14  1  0  0  0  0
  1  9  1  1  0  0  0
  2 13  1  6  0  0  0
  2  3  1  0  0  0  0
  3 19  2  0  0  0  0
  3  7  1  0  0  0  0
  4 11  2  0  0  0  0
  5  2  1  0  0  0  0
  5 14  1  1  0  0  0
  7  4  1  0  0  0  0
  8 23  1  1  0  0  0
  8 13  1  0  0  0  0
 10 19  1  0  0  0  0
 12  8  1  0  0  0  0
 13 18  2  0  0  0  0
 15 11  1  0  0  0  0
 16 12  1  6  0  0  0
 16 17  1  0  0  0  0
 16  5  1  0  0  0  0
 17  6  1  6  0  0  0
 17  1  1  0  0  0  0
 18 10  1  0  0  0  0
 19 20  1  0  0  0  0
 20 15  2  0  0  0  0
 22 30  1  0  0  0  0
 22 21  2  0  0  0  0
 23 22  1  0  0  0  0
 24 27  1  6  0  0  0
 24 28  1  0  0  0  0
 25 28  1  0  0  0  0
 26 29  1  0  0  0  0
 29 31  1  0  0  0  0
 29 30  2  0  0  0  0
 30 25  1  0  0  0  0
 31 24  1  0  0  0  0
M  END
>  <MODEL>
7

>  <REMARK>
 VINA RESULT:      -6.2      4.372      9.208
  Name = 
  2 active torsions:
  status: ('A' for Active; 'I' for Inactive)
    1  A    between atoms: C_9  and  C_22
    2  A    between atoms: C_15  and  N_23
                            x       y       z     vdW  Elec       q    Type
                         _______ _______ _______ _____ _____    ______ ____

>  <TORSDO>
F 2

$$$$
=
 OpenBabel10272400323D

 31 35  0  0  1  0  0  0  0  0999 V2000
  188.7280  178.5020  140.5380 C   0  0  2  0  0  3  0  0  0  0  0  0
  185.1650  178.9460  139.8770 C   0  0  1  0  0  3  0  0  0  0  0  0
  184.2100  178.7520  141.0490 C   0  0  0  0  0  0  0  0  0  0  0  0
  184.4610  178.3670  143.4850 C   0  0  0  0  0  3  0  0  0  0  0  0
  186.4130  178.1930  140.0460 N   0  0  2  0  0  0  0  0  0  0  0  0
  189.5060  178.6540  138.1840 C   0  0  0  0  0  1  0  0  0  0  0  0
  184.5530  177.7640  142.1250 C   0  0  0  0  0  2  0  0  0  0  0  0
  185.0530  177.6140  137.5600 C   0  0  2  0  0  3  0  0  0  0  0  0
  189.2690  177.4350  141.4700 C   0  0  0  0  0  1  0  0  0  0  0  0
  182.5380  180.2710  139.5140 S   0  0  0  0  0  0  0  0  0  0  0  0
  183.3140  178.8140  143.9950 C   0  0  0  0  0  3  0  0  0  0  0  0
  186.5130  177.2210  137.8490 C   0  0  0  0  0  2  0  0  0  0  0  0
  184.4400  178.5550  138.5860 C   0  0  0  0  0  0  0  0  0  0  0  0
  187.3140  178.8780  140.9610 C   0  0  0  0  0  2  0  0  0  0  0  0
  182.0360  178.8560  143.2630 C   0  0  0  0  0  3  0  0  0  0  0  0
  187.1460  178.2200  138.7960 C   0  0  2  0  0  3  0  0  0  0  0  0
  188.5830  177.9260  139.1420 C   0  0  2  0  0  3  0  0  0  0  0  0
  183.2170  179.0600  138.3640 C   0  0  0  0  0  3  0  0  0  0  0  0
  182.9690  179.2830  140.9610 C   0  0  0  0  0  0  0  0  0  0  0  0
  181.8900  179.0500  141.9470 C   0  0  0  0  0  3  0  0  0  0  0  0
  182.9960  177.1830  135.6350 O   0  0  0  0  0  0  0  0  0  0  0  0
  183.2420  176.2370  136.4330 C   0  0  0  0  0  0  0  0  0  0  0  0
  184.2390  176.4110  137.4450 N   0  0  0  0  0  2  0  0  0  0  0  0
  181.2010  172.3590  136.1350 C   0  0  2  0  0  3  0  0  0  0  0  0
  182.9440  173.9650  135.3350 C   0  0  0  0  0  2  0  0  0  0  0  0
  180.9930  175.5930  138.2750 C   0  0  0  0  0  1  0  0  0  0  0  0
  182.1730  171.5230  136.9510 C   0  0  0  0  0  1  0  0  0  0  0  0
  181.8700  172.9680  134.9120 C   0  0  0  0  0  2  0  0  0  0  0  0
  181.4220  174.6820  137.1730 C   0  0  0  0  0  0  0  0  0  0  0  0
  182.4520  174.9810  136.3380 C   0  0  0  0  0  0  0  0  0  0  0  0
  180.5670  173.4530  136.9900 C   0  0  0  0  0  2  0  0  0  0  0  0
  1 14  1  0  0  0  0
  1  9  1  1  0  0  0
  2 13  1  6  0  0  0
  2  5  1  0  0  0  0
  2  3  1  0  0  0  0
  3  7  1  0  0  0  0
  4 11  2  0  0  0  0
  5 14  1  1  0  0  0
  7  4  1  0  0  0  0
  8 23  1  1  0  0  0
  8 12  1  0  0  0  0
  8 13  1  0  0  0  0
 10 19  1  0  0  0  0
 15 11  1  0  0  0  0
 16 12  1  6  0  0  0
 16 17  1  0  0  0  0
 16  5  1  0  0  0  0
 17  6  1  6  0  0  0
 17  1  1  0  0  0  0
 18 13  2  0  0  0  0
 18 10  1  0  0  0  0
 19  3  2  0  0  0  0
 19 20  1  0  0  0  0
 20 15  2  0  0  0  0
 21 22  2  0  0  0  0
 22 23  1  0  0  0  0
 24 27  1  1  0  0  0
 24 31  1  0  0  0  0
 25 30  1  0  0  0  0
 28 25  1  0  0  0  0
 28 24  1  0  0  0  0
 29 26  1  0  0  0  0
 30 22  1  0  0  0  0
 30 29  2  0  0  0  0
 31 29  1  0  0  0  0
M  END
>  <MODEL>
8

>  <REMARK>
 VINA RESULT:      -5.6      2.693      7.915
  Name = 
  2 active torsions:
  status: ('A' for Active; 'I' for Inactive)
    1  A    between atoms: C_9  and  C_22
    2  A    between atoms: C_15  and  N_23
                            x       y       z     vdW  Elec       q    Type
                         _______ _______ _______ _____ _____    ______ ____

>  <TORSDO>
F 2

$$$$
=
 OpenBabel10272400323D

 31 35  0  0  1  0  0  0  0  0999 V2000
  187.9090  178.3450  141.5390 C   0  0  2  0  0  3  0  0  0  0  0  0
  185.8500  177.5440  138.6310 C   0  0  1  0  0  3  0  0  0  0  0  0
  186.4740  177.7580  137.2570 C   0  0  0  0  0  0  0  0  0  0  0  0
  188.7240  178.3720  136.4150 C   0  0  0  0  0  3  0  0  0  0  0  0
  186.4470  178.4130  139.6530 N   0  0  2  0  0  0  0  0  0  0  0  0
  186.1440  178.0560  143.2630 C   0  0  0  0  0  1  0  0  0  0  0  0
  187.4720  178.8610  137.0620 C   0  0  0  0  0  2  0  0  0  0  0  0
  183.5700  178.6570  139.4790 C   0  0  2  0  0  3  0  0  0  0  0  0
  188.8530  179.5310  141.5820 C   0  0  0  0  0  1  0  0  0  0  0  0
  184.5590  175.9750  136.4740 S   0  0  0  0  0  0  0  0  0  0  0  0
  188.7450  177.8750  135.1800 C   0  0  0  0  0  3  0  0  0  0  0  0
  184.4060  179.1950  140.6550 C   0  0  0  0  0  2  0  0  0  0  0  0
  184.3380  177.7600  138.5210 C   0  0  0  0  0  0  0  0  0  0  0  0
  187.7300  177.8880  140.0970 C   0  0  0  0  0  2  0  0  0  0  0  0
  187.5490  177.6620  134.3460 C   0  0  0  0  0  3  0  0  0  0  0  0
  185.6390  178.3390  140.8550 C   0  0  2  0  0  3  0  0  0  0  0  0
  186.5280  178.7830  141.9890 C   0  0  2  0  0  3  0  0  0  0  0  0
  183.6770  177.1350  137.5350 C   0  0  0  0  0  3  0  0  0  0  0  0
  185.9280  177.1180  136.1970 C   0  0  0  0  0  0  0  0  0  0  0  0
  186.3280  177.3420  134.7910 C   0  0  0  0  0  3  0  0  0  0  0  0
  180.8230  178.9040  138.7640 O   0  0  0  0  0  0  0  0  0  0  0  0
  181.5860  179.8580  138.4470 C   0  0  0  0  0  0  0  0  0  0  0  0
  182.9820  179.7710  138.7480 N   0  0  0  0  0  2  0  0  0  0  0  0
  180.1810  183.5000  136.4310 C   0  0  2  0  0  3  0  0  0  0  0  0
  180.9880  182.3270  138.4900 C   0  0  0  0  0  2  0  0  0  0  0  0
  180.8340  179.7690  135.5670 C   0  0  0  0  0  1  0  0  0  0  0  0
  181.5310  184.1210  136.1110 C   0  0  0  0  0  1  0  0  0  0  0  0
  179.9820  183.3280  137.9300 C   0  0  0  0  0  2  0  0  0  0  0  0
  180.6770  180.9940  136.4080 C   0  0  0  0  0  0  0  0  0  0  0  0
  181.0260  181.0280  137.7210 C   0  0  0  0  0  0  0  0  0  0  0  0
  180.0110  182.1600  135.7190 C   0  0  0  0  0  2  0  0  0  0  0  0
  1  9  1  6  0  0  0
  1 17  1  0  0  0  0
  2  3  1  6  0  0  0
  2  5  1  0  0  0  0
  4  7  1  0  0  0  0
  5 14  1  1  0  0  0
  5 16  1  0  0  0  0
  7  3  1  0  0  0  0
  8 23  1  6  0  0  0
  8 12  1  0  0  0  0
 10 18  1  0  0  0  0
 11  4  2  0  0  0  0
 13  2  1  0  0  0  0
 13  8  1  0  0  0  0
 14  1  1  0  0  0  0
 15 20  2  0  0  0  0
 15 11  1  0  0  0  0
 16 12  1  6  0  0  0
 16 17  1  0  0  0  0
 17  6  1  1  0  0  0
 18 13  2  0  0  0  0
 19 10  1  0  0  0  0
 19  3  2  0  0  0  0
 20 19  1  0  0  0  0
 22 23  1  0  0  0  0
 22 21  2  0  0  0  0
 24 27  1  1  0  0  0
 24 28  1  0  0  0  0
 26 29  1  0  0  0  0
 28 25  1  0  0  0  0
 29 30  2  0  0  0  0
 30 22  1  0  0  0  0
 30 25  1  0  0  0  0
 31 29  1  0  0  0  0
 31 24  1  0  0  0  0
M  END
>  <MODEL>
9

>  <REMARK>
 VINA RESULT:      -4.9      2.833      7.210
  Name = 
  2 active torsions:
  status: ('A' for Active; 'I' for Inactive)
    1  A    between atoms: C_9  and  C_22
    2  A    between atoms: C_15  and  N_23
                            x       y       z     vdW  Elec       q    Type
                         _______ _______ _______ _____ _____    ______ ____

>  <TORSDO>
F 2

$$$$
