=
 OpenBabel10272400213D

 31 34  0  0  1  0  0  0  0  0999 V2000
  190.4450  177.1210  146.6110 C   0  0  0  0  0  0  0  0  0  0  0  0
  188.2590  177.6170  143.4100 C   0  0  0  0  0  0  0  0  0  0  0  0
  186.9080  177.7580  143.8160 C   0  0  0  0  0  0  0  0  0  0  0  0
  185.8810  178.2710  146.0090 C   0  0  0  0  0  3  0  0  0  0  0  0
  189.3390  177.1540  144.3400 C   0  0  0  0  0  0  0  0  0  0  0  0
  191.5940  176.4900  145.9630 C   0  0  0  0  0  3  0  0  0  0  0  0
  186.4470  177.2050  145.1310 C   0  0  0  0  0  2  0  0  0  0  0  0
  190.0060  177.7390  141.5870 C   0  0  2  0  0  3  0  0  0  0  0  0
  190.4510  177.3050  147.8550 O   0  0  0  0  0  0  0  0  0  0  0  0
  186.3560  178.5860  141.6140 C   0  0  0  0  0  3  0  0  0  0  0  0
  184.7760  178.9450  145.7000 C   0  0  0  0  0  3  0  0  0  0  0  0
  190.5560  176.0920  142.1150 S   0  0  0  0  0  0  0  0  0  0  0  0
  188.5930  177.9330  142.0720 C   0  0  0  0  0  0  0  0  0  0  0  0
  189.2780  177.5770  145.7930 C   0  0  0  0  0  2  0  0  0  0  0  0
  184.0230  178.8000  144.4420 C   0  0  0  0  0  3  0  0  0  0  0  0
  190.4460  176.5440  143.8510 C   0  0  0  0  0  0  0  0  0  0  0  0
  191.5710  176.2420  144.6910 N   0  0  0  0  0  0  0  0  0  0  0  0
  187.6420  178.4080  141.2250 N   0  0  0  0  0  0  0  0  0  0  0  0
  185.9570  178.2770  142.9120 C   0  0  0  0  0  0  0  0  0  0  0  0
  184.5340  178.5050  143.2410 C   0  0  0  0  0  3  0  0  0  0  0  0
  190.0850  177.8280  140.1350 N   0  0  0  0  0  2  0  0  0  0  0  0
  189.7730  175.8780  138.9130 O   0  0  0  0  0  1  0  0  0  0  0  0
  190.7050  176.6000  139.6610 C   0  0  1  0  0  3  0  0  0  0  0  0
  193.1460  177.1860  139.6980 C   0  0  0  0  0  1  0  0  0  0  0  0
  191.9410  176.9240  138.8100 C   0  0  1  0  0  3  0  0  0  0  0  0
  191.8980  176.1620  136.5140 O   0  0  0  0  0  1  0  0  0  0  0  0
  192.2980  175.8190  137.8080 C   0  0  1  0  0  3  0  0  0  0  0  0
  193.7840  175.4880  137.8240 C   0  0  0  0  0  2  0  0  0  0  0  0
  193.9810  174.0480  137.8580 N   0  0  0  0  0  0  0  0  0  0  0  0
  194.2010  173.6170  136.4890 C   0  0  0  0  0  1  0  0  0  0  0  0
  195.2250  173.8170  138.5700 C   0  0  0  0  0  1  0  0  0  0  0  0
  1  9  2  0  0  0  0
  2  3  1  0  0  0  0
  2  5  1  0  0  0  0
  3  7  1  0  0  0  0
  5 14  1  0  0  0  0
  6  1  1  0  0  0  0
  7  4  1  0  0  0  0
  8 21  1  6  0  0  0
  8 13  1  0  0  0  0
  8 12  1  0  0  0  0
 10 19  1  0  0  0  0
 11  4  2  0  0  0  0
 12 16  1  0  0  0  0
 13  2  2  0  0  0  0
 14  1  1  0  0  0  0
 15 11  1  0  0  0  0
 16  5  2  0  0  0  0
 16 17  1  0  0  0  0
 17  6  2  0  0  0  0
 18 10  2  0  0  0  0
 18 13  1  0  0  0  0
 19 20  1  0  0  0  0
 19  3  2  0  0  0  0
 20 15  2  0  0  0  0
 23 22  1  6  0  0  0
 23 21  1  0  0  0  0
 25 23  1  0  0  0  0
 25 24  1  1  0  0  0
 27 26  1  6  0  0  0
 27 28  1  0  0  0  0
 27 25  1  0  0  0  0
 28 29  1  0  0  0  0
 29 31  1  0  0  0  0
 30 29  1  0  0  0  0
M  END
>  <MODEL>
1

>  <REMARK>
 VINA RESULT:      -9.3      0.000      0.000
  Name = 
  6 active torsions:
  status: ('A' for Active; 'I' for Inactive)
    1  A    between atoms: N_1  and  C_24
    2  A    between atoms: C_9  and  C_22
    3  A    between atoms: C_9  and  N_23
    4  A    between atoms: C_15  and  N_23
    5  A    between atoms: C_19  and  C_22
    6  A    between atoms: C_19  and  C_24
                            x       y       z     vdW  Elec       q    Type
                         _______ _______ _______ _____ _____    ______ ____

>  <TORSDO>
F 6

$$$$
=
 OpenBabel10272400213D

 31 34  0  0  1  0  0  0  0  0999 V2000
  190.7530  177.1910  144.8470 C   0  0  0  0  0  0  0  0  0  0  0  0
  187.5880  177.9870  142.6980 C   0  0  0  0  0  0  0  0  0  0  0  0
  186.4620  178.0050  143.5610 C   0  0  0  0  0  0  0  0  0  0  0  0
  186.2610  178.1730  146.0210 C   0  0  0  0  0  3  0  0  0  0  0  0
  188.9250  177.4630  143.1250 C   0  0  0  0  0  0  0  0  0  0  0  0
  191.6050  176.7100  143.7610 C   0  0  0  0  0  3  0  0  0  0  0  0
  186.4890  177.2620  144.8620 C   0  0  0  0  0  2  0  0  0  0  0  0
  188.5890  178.4360  140.4220 C   0  0  2  0  0  3  0  0  0  0  0  0
  191.1910  177.2110  146.0260 O   0  0  0  0  0  0  0  0  0  0  0  0
  185.1760  179.0840  141.8230 C   0  0  0  0  0  3  0  0  0  0  0  0
  185.1170  178.8250  146.2110 C   0  0  0  0  0  3  0  0  0  0  0  0
  189.2940  176.7650  140.4910 S   0  0  0  0  0  0  0  0  0  0  0  0
  187.4340  178.4920  141.3860 C   0  0  0  0  0  0  0  0  0  0  0  0
  189.3730  177.6900  144.5540 C   0  0  0  0  0  2  0  0  0  0  0  0
  183.9730  178.8070  145.2810 C   0  0  0  0  0  3  0  0  0  0  0  0
  189.7940  176.9800  142.2040 C   0  0  0  0  0  0  0  0  0  0  0  0
  191.1420  176.6300  142.5530 N   0  0  0  0  0  0  0  0  0  0  0  0
  186.2460  179.0250  140.9940 N   0  0  0  0  0  0  0  0  0  0  0  0
  185.2540  178.5880  143.1220 C   0  0  0  0  0  0  0  0  0  0  0  0
  184.0350  178.6980  143.9490 C   0  0  0  0  0  3  0  0  0  0  0  0
  188.1580  178.7190  139.0600 N   0  0  0  0  0  2  0  0  0  0  0  0
  186.5100  177.2600  138.3160 O   0  0  0  0  0  1  0  0  0  0  0  0
  187.8910  177.4400  138.4180 C   0  0  1  0  0  3  0  0  0  0  0  0
  189.4150  178.6210  136.8100 C   0  0  0  0  0  1  0  0  0  0  0  0
  188.5420  177.3960  137.0290 C   0  0  1  0  0  3  0  0  0  0  0  0
  189.0380  175.5160  135.5890 O   0  0  0  0  0  1  0  0  0  0  0  0
  189.3870  176.1390  136.7900 C   0  0  1  0  0  3  0  0  0  0  0  0
  190.8790  176.4390  136.8080 C   0  0  0  0  0  2  0  0  0  0  0  0
  191.5270  175.7190  137.8920 N   0  0  0  0  0  0  0  0  0  0  0  0
  191.9770  174.4490  137.3500 C   0  0  0  0  0  1  0  0  0  0  0  0
  192.7220  176.4700  138.2330 C   0  0  0  0  0  1  0  0  0  0  0  0
  1  9  2  0  0  0  0
  2  5  1  0  0  0  0
  2  3  1  0  0  0  0
  3  7  1  0  0  0  0
  4 11  2  0  0  0  0
  5 14  1  0  0  0  0
  6  1  1  0  0  0  0
  7  4  1  0  0  0  0
  8 21  1  6  0  0  0
  8 12  1  0  0  0  0
  8 13  1  0  0  0  0
 10 19  1  0  0  0  0
 12 16  1  0  0  0  0
 13  2  2  0  0  0  0
 14  1  1  0  0  0  0
 15 11  1  0  0  0  0
 16 17  1  0  0  0  0
 16  5  2  0  0  0  0
 17  6  2  0  0  0  0
 18 13  1  0  0  0  0
 18 10  2  0  0  0  0
 19  3  2  0  0  0  0
 19 20  1  0  0  0  0
 20 15  2  0  0  0  0
 23 22  1  6  0  0  0
 23 21  1  0  0  0  0
 25 24  1  1  0  0  0
 25 23  1  0  0  0  0
 27 26  1  6  0  0  0
 27 28  1  0  0  0  0
 27 25  1  0  0  0  0
 28 29  1  0  0  0  0
 29 31  1  0  0  0  0
 30 29  1  0  0  0  0
M  END
>  <MODEL>
2

>  <REMARK>
 VINA RESULT:      -9.2      1.951      2.332
  Name = 
  6 active torsions:
  status: ('A' for Active; 'I' for Inactive)
    1  A    between atoms: N_1  and  C_24
    2  A    between atoms: C_9  and  C_22
    3  A    between atoms: C_9  and  N_23
    4  A    between atoms: C_15  and  N_23
    5  A    between atoms: C_19  and  C_22
    6  A    between atoms: C_19  and  C_24
                            x       y       z     vdW  Elec       q    Type
                         _______ _______ _______ _____ _____    ______ ____

>  <TORSDO>
F 6

$$$$
=
 OpenBabel10272400213D

 31 34  0  0  1  0  0  0  0  0999 V2000
  190.6460  177.1490  145.2050 C   0  0  0  0  0  0  0  0  0  0  0  0
  187.7350  177.9420  142.7220 C   0  0  0  0  0  0  0  0  0  0  0  0
  186.5220  177.9680  143.4570 C   0  0  0  0  0  0  0  0  0  0  0  0
  186.0570  178.1530  145.8810 C   0  0  0  0  0  3  0  0  0  0  0  0
  189.0160  177.4160  143.2940 C   0  0  0  0  0  0  0  0  0  0  0  0
  191.6090  176.6590  144.2200 C   0  0  0  0  0  3  0  0  0  0  0  0
  186.4060  177.2340  144.7590 C   0  0  0  0  0  2  0  0  0  0  0  0
  188.9780  178.3740  140.5640 C   0  0  2  0  0  3  0  0  0  0  0  0
  190.9540  177.1760  146.4240 O   0  0  0  0  0  0  0  0  0  0  0  0
  185.4350  179.0400  141.5840 C   0  0  0  0  0  3  0  0  0  0  0  0
  184.9010  178.8090  145.9410 C   0  0  0  0  0  3  0  0  0  0  0  0
  189.6650  176.7010  140.7190 S   0  0  0  0  0  0  0  0  0  0  0  0
  187.7260  178.4390  141.3980 C   0  0  0  0  0  0  0  0  0  0  0  0
  189.3070  177.6510  144.7610 C   0  0  0  0  0  2  0  0  0  0  0  0
  183.8640  178.7890  144.8930 C   0  0  0  0  0  3  0  0  0  0  0  0
  189.9780  176.9250  142.4750 C   0  0  0  0  0  0  0  0  0  0  0  0
  191.2780  176.5730  142.9700 N   0  0  0  0  0  0  0  0  0  0  0  0
  186.5890  178.9720  140.8760 N   0  0  0  0  0  0  0  0  0  0  0  0
  185.3710  178.5530  142.8870 C   0  0  0  0  0  0  0  0  0  0  0  0
  184.0700  178.6710  143.5770 C   0  0  0  0  0  3  0  0  0  0  0  0
  188.6980  178.6490  139.1620 N   0  0  0  0  0  2  0  0  0  0  0  0
  187.4170  177.0280  138.0990 O   0  0  0  0  0  1  0  0  0  0  0  0
  188.7210  177.3740  138.4600 C   0  0  1  0  0  3  0  0  0  0  0  0
  190.9550  176.7970  137.4680 C   0  0  0  0  0  1  0  0  0  0  0  0
  189.6150  177.4700  137.2150 C   0  0  1  0  0  3  0  0  0  0  0  0
  189.1740  177.6710  134.8440 O   0  0  0  0  0  1  0  0  0  0  0  0
  188.9820  176.8530  135.9610 C   0  0  1  0  0  3  0  0  0  0  0  0
  189.5130  175.4540  135.6790 C   0  0  0  0  0  2  0  0  0  0  0  0
  188.5510  174.4530  136.1120 N   0  0  0  0  0  0  0  0  0  0  0  0
  188.0640  173.7880  134.9160 C   0  0  0  0  0  1  0  0  0  0  0  0
  189.2970  173.4590  136.8630 C   0  0  0  0  0  1  0  0  0  0  0  0
  1  9  2  0  0  0  0
  2  5  1  0  0  0  0
  2  3  1  0  0  0  0
  3  7  1  0  0  0  0
  4 11  2  0  0  0  0
  5 14  1  0  0  0  0
  6  1  1  0  0  0  0
  7  4  1  0  0  0  0
  8 21  1  6  0  0  0
  8 12  1  0  0  0  0
  8 13  1  0  0  0  0
 10 19  1  0  0  0  0
 12 16  1  0  0  0  0
 13  2  2  0  0  0  0
 14  1  1  0  0  0  0
 15 11  1  0  0  0  0
 16 17  1  0  0  0  0
 16  5  2  0  0  0  0
 17  6  2  0  0  0  0
 18 13  1  0  0  0  0
 18 10  2  0  0  0  0
 19  3  2  0  0  0  0
 19 20  1  0  0  0  0
 20 15  2  0  0  0  0
 23 22  1  6  0  0  0
 23 21  1  0  0  0  0
 25 24  1  1  0  0  0
 25 23  1  0  0  0  0
 27 26  1  6  0  0  0
 27 25  1  0  0  0  0
 28 27  1  0  0  0  0
 28 29  1  0  0  0  0
 29 31  1  0  0  0  0
 30 29  1  0  0  0  0
M  END
>  <MODEL>
3

>  <REMARK>
 VINA RESULT:      -9.2      2.325      2.691
  Name = 
  6 active torsions:
  status: ('A' for Active; 'I' for Inactive)
    1  A    between atoms: N_1  and  C_24
    2  A    between atoms: C_9  and  C_22
    3  A    between atoms: C_9  and  N_23
    4  A    between atoms: C_15  and  N_23
    5  A    between atoms: C_19  and  C_22
    6  A    between atoms: C_19  and  C_24
                            x       y       z     vdW  Elec       q    Type
                         _______ _______ _______ _____ _____    ______ ____

>  <TORSDO>
F 6

$$$$
=
 OpenBabel10272400213D

 31 34  0  0  1  0  0  0  0  0999 V2000
  185.2520  178.3680  143.0670 C   0  0  0  0  0  0  0  0  0  0  0  0
  189.0360  177.3960  143.0050 C   0  0  0  0  0  0  0  0  0  0  0  0
  189.5190  177.4160  144.3390 C   0  0  0  0  0  0  0  0  0  0  0  0
  188.3560  177.3970  146.5230 C   0  0  0  0  0  3  0  0  0  0  0  0
  187.7050  177.9650  142.6180 C   0  0  0  0  0  0  0  0  0  0  0  0
  185.1410  178.7930  141.6730 C   0  0  0  0  0  3  0  0  0  0  0  0
  188.8290  178.2380  145.3850 C   0  0  0  0  0  2  0  0  0  0  0  0
  189.3990  176.8220  140.5710 C   0  0  2  0  0  3  0  0  0  0  0  0
  184.2480  178.4270  143.8230 O   0  0  0  0  0  0  0  0  0  0  0  0
  191.4880  176.2140  143.6200 C   0  0  0  0  0  3  0  0  0  0  0  0
  189.1880  176.7420  147.3290 C   0  0  0  0  0  3  0  0  0  0  0  0
  188.8440  178.5040  140.1750 S   0  0  0  0  0  0  0  0  0  0  0  0
  189.8490  176.8090  142.0080 C   0  0  0  0  0  0  0  0  0  0  0  0
  186.5490  177.8330  143.5880 C   0  0  0  0  0  2  0  0  0  0  0  0
  190.6520  176.6870  147.1650 C   0  0  0  0  0  3  0  0  0  0  0  0
  187.4910  178.4020  141.3540 C   0  0  0  0  0  0  0  0  0  0  0  0
  186.1850  178.7920  140.9050 N   0  0  0  0  0  0  0  0  0  0  0  0
  191.0360  176.2370  142.3430 N   0  0  0  0  0  0  0  0  0  0  0  0
  190.7460  176.7900  144.6480 C   0  0  0  0  0  0  0  0  0  0  0  0
  191.3220  176.7140  146.0070 C   0  0  0  0  0  3  0  0  0  0  0  0
  190.4820  176.4500  139.6720 N   0  0  0  0  0  2  0  0  0  0  0  0
  191.1760  176.8480  137.4900 O   0  0  0  0  0  1  0  0  0  0  0  0
  190.0550  176.7850  138.3210 C   0  0  1  0  0  3  0  0  0  0  0  0
  187.9230  176.4050  137.0510 C   0  0  0  0  0  1  0  0  0  0  0  0
  189.0620  175.7350  137.8020 C   0  0  1  0  0  3  0  0  0  0  0  0
  190.4330  173.7490  137.6290 O   0  0  0  0  0  1  0  0  0  0  0  0
  189.7060  174.6850  136.8880 C   0  0  1  0  0  3  0  0  0  0  0  0
  188.6790  173.9760  136.0170 C   0  0  0  0  0  2  0  0  0  0  0  0
  188.3570  172.6720  136.5740 N   0  0  0  0  0  0  0  0  0  0  0  0
  186.9850  172.7390  137.0470 C   0  0  0  0  0  1  0  0  0  0  0  0
  188.3670  171.7330  135.4670 C   0  0  0  0  0  1  0  0  0  0  0  0
  1 14  1  0  0  0  0
  1  9  2  0  0  0  0
  2  3  1  0  0  0  0
  3 19  2  0  0  0  0
  3  7  1  0  0  0  0
  4 11  2  0  0  0  0
  5  2  1  0  0  0  0
  5 14  1  0  0  0  0
  6  1  1  0  0  0  0
  7  4  1  0  0  0  0
  8 21  1  6  0  0  0
  8 13  1  0  0  0  0
 10 19  1  0  0  0  0
 12  8  1  0  0  0  0
 12 16  1  0  0  0  0
 13 18  1  0  0  0  0
 13  2  2  0  0  0  0
 15 11  1  0  0  0  0
 16  5  2  0  0  0  0
 17 16  1  0  0  0  0
 17  6  2  0  0  0  0
 18 10  2  0  0  0  0
 19 20  1  0  0  0  0
 20 15  2  0  0  0  0
 23 22  1  6  0  0  0
 23 21  1  0  0  0  0
 25 24  1  6  0  0  0
 25 23  1  0  0  0  0
 27 26  1  1  0  0  0
 27 25  1  0  0  0  0
 28 29  1  0  0  0  0
 28 27  1  0  0  0  0
 29 30  1  0  0  0  0
 31 29  1  0  0  0  0
M  END
>  <MODEL>
4

>  <REMARK>
 VINA RESULT:      -8.8      2.920      4.966
  Name = 
  6 active torsions:
  status: ('A' for Active; 'I' for Inactive)
    1  A    between atoms: N_1  and  C_24
    2  A    between atoms: C_9  and  C_22
    3  A    between atoms: C_9  and  N_23
    4  A    between atoms: C_15  and  N_23
    5  A    between atoms: C_19  and  C_22
    6  A    between atoms: C_19  and  C_24
                            x       y       z     vdW  Elec       q    Type
                         _______ _______ _______ _____ _____    ______ ____

>  <TORSDO>
F 6

$$$$
=
 OpenBabel10272400213D

 31 34  0  0  1  0  0  0  0  0999 V2000
  185.1600  178.3080  143.8680 C   0  0  0  0  0  0  0  0  0  0  0  0
  188.9190  177.4410  143.2400 C   0  0  0  0  0  0  0  0  0  0  0  0
  189.5820  177.4190  144.4930 C   0  0  0  0  0  0  0  0  0  0  0  0
  188.7350  177.2770  146.8140 C   0  0  0  0  0  3  0  0  0  0  0  0
  187.5340  177.9890  143.0670 C   0  0  0  0  0  0  0  0  0  0  0  0
  184.8470  178.7870  142.5230 C   0  0  0  0  0  3  0  0  0  0  0  0
  189.0270  178.1770  145.6610 C   0  0  0  0  0  2  0  0  0  0  0  0
  188.9500  176.9780  140.7550 C   0  0  2  0  0  3  0  0  0  0  0  0
  184.2700  178.3080  144.7580 O   0  0  0  0  0  0  0  0  0  0  0  0
  191.4570  176.3010  143.4560 C   0  0  0  0  0  3  0  0  0  0  0  0
  189.6850  176.6120  147.4670 C   0  0  0  0  0  3  0  0  0  0  0  0
  188.3100  178.6600  140.5160 S   0  0  0  0  0  0  0  0  0  0  0  0
  189.5970  176.9180  142.1140 C   0  0  0  0  0  0  0  0  0  0  0  0
  186.5280  177.7860  144.1800 C   0  0  0  0  0  2  0  0  0  0  0  0
  191.1130  176.6030  147.0990 C   0  0  0  0  0  3  0  0  0  0  0  0
  187.1380  178.4730  141.8650 C   0  0  0  0  0  0  0  0  0  0  0  0
  185.7730  178.8460  141.6190 N   0  0  0  0  0  0  0  0  0  0  0  0
  190.8300  176.3650  142.2560 N   0  0  0  0  0  0  0  0  0  0  0  0
  190.8520  176.8130  144.6010 C   0  0  0  0  0  0  0  0  0  0  0  0
  191.6140  176.6970  145.8620 C   0  0  0  0  0  3  0  0  0  0  0  0
  189.9050  176.6740  139.6990 N   0  0  0  0  0  2  0  0  0  0  0  0
  189.8970  178.1160  137.8780 O   0  0  0  0  0  1  0  0  0  0  0  0
  189.2660  177.0010  138.4330 C   0  0  1  0  0  3  0  0  0  0  0  0
  189.1010  176.2540  136.0410 C   0  0  0  0  0  1  0  0  0  0  0  0
  189.3470  175.8060  137.4720 C   0  0  1  0  0  3  0  0  0  0  0  0
  190.4990  173.6790  137.5350 O   0  0  0  0  0  1  0  0  0  0  0  0
  190.6880  175.0640  137.5330 C   0  0  1  0  0  3  0  0  0  0  0  0
  191.6160  175.4620  136.3950 C   0  0  0  0  0  2  0  0  0  0  0  0
  193.0010  175.4380  136.8390 N   0  0  0  0  0  0  0  0  0  0  0  0
  193.7960  176.0410  135.7840 C   0  0  0  0  0  1  0  0  0  0  0  0
  193.0850  176.3290  137.9820 C   0  0  0  0  0  1  0  0  0  0  0  0
  1 14  1  0  0  0  0
  1  9  2  0  0  0  0
  2  3  1  0  0  0  0
  3 19  2  0  0  0  0
  3  7  1  0  0  0  0
  4 11  2  0  0  0  0
  5  2  1  0  0  0  0
  5 14  1  0  0  0  0
  6  1  1  0  0  0  0
  7  4  1  0  0  0  0
  8 21  1  6  0  0  0
  8 13  1  0  0  0  0
 10 19  1  0  0  0  0
 12  8  1  0  0  0  0
 12 16  1  0  0  0  0
 13 18  1  0  0  0  0
 13  2  2  0  0  0  0
 15 11  1  0  0  0  0
 16  5  2  0  0  0  0
 17 16  1  0  0  0  0
 17  6  2  0  0  0  0
 18 10  2  0  0  0  0
 19 20  1  0  0  0  0
 20 15  2  0  0  0  0
 23 22  1  6  0  0  0
 23 21  1  0  0  0  0
 25 24  1  6  0  0  0
 25 27  1  0  0  0  0
 25 23  1  0  0  0  0
 27 26  1  6  0  0  0
 28 29  1  0  0  0  0
 28 27  1  0  0  0  0
 29 31  1  0  0  0  0
 30 29  1  0  0  0  0
M  END
>  <MODEL>
5

>  <REMARK>
 VINA RESULT:      -8.7      2.153      4.413
  Name = 
  6 active torsions:
  status: ('A' for Active; 'I' for Inactive)
    1  A    between atoms: N_1  and  C_24
    2  A    between atoms: C_9  and  C_22
    3  A    between atoms: C_9  and  N_23
    4  A    between atoms: C_15  and  N_23
    5  A    between atoms: C_19  and  C_22
    6  A    between atoms: C_19  and  C_24
                            x       y       z     vdW  Elec       q    Type
                         _______ _______ _______ _____ _____    ______ ____

>  <TORSDO>
F 6

$$$$
=
 OpenBabel10272400213D

 31 34  0  0  1  0  0  0  0  0999 V2000
  190.4790  177.0640  146.3810 C   0  0  0  0  0  0  0  0  0  0  0  0
  188.1410  177.7170  143.3200 C   0  0  0  0  0  0  0  0  0  0  0  0
  186.8090  177.8240  143.7960 C   0  0  0  0  0  0  0  0  0  0  0  0
  185.8840  178.2050  146.0590 C   0  0  0  0  0  3  0  0  0  0  0  0
  189.2660  177.2130  144.1710 C   0  0  0  0  0  0  0  0  0  0  0  0
  191.5990  176.4810  145.6450 C   0  0  0  0  0  3  0  0  0  0  0  0
  186.4140  177.1950  145.0980 C   0  0  0  0  0  2  0  0  0  0  0  0
  189.7980  177.9560  141.4260 C   0  0  2  0  0  3  0  0  0  0  0  0
  190.5420  177.1800  147.6320 O   0  0  0  0  0  0  0  0  0  0  0  0
  186.1480  178.7680  141.6720 C   0  0  0  0  0  3  0  0  0  0  0  0
  184.7620  178.8860  145.8420 C   0  0  0  0  0  3  0  0  0  0  0  0
  190.3830  176.2870  141.8350 S   0  0  0  0  0  0  0  0  0  0  0  0
  188.4080  178.1100  141.9870 C   0  0  0  0  0  0  0  0  0  0  0  0
  189.2720  177.5550  145.6460 C   0  0  0  0  0  2  0  0  0  0  0  0
  183.9510  178.8050  144.6140 C   0  0  0  0  0  3  0  0  0  0  0  0
  190.3520  176.6410  143.5970 C   0  0  0  0  0  0  0  0  0  0  0  0
  191.5180  176.3040  144.3640 N   0  0  0  0  0  0  0  0  0  0  0  0
  187.4150  178.6230  141.2130 N   0  0  0  0  0  0  0  0  0  0  0  0
  185.8130  178.3840  142.9680 C   0  0  0  0  0  0  0  0  0  0  0  0
  184.4060  178.5810  143.3760 C   0  0  0  0  0  3  0  0  0  0  0  0
  189.8070  178.1270  139.9790 N   0  0  0  0  0  2  0  0  0  0  0  0
  188.7120  176.4200  138.8450 O   0  0  0  0  0  1  0  0  0  0  0  0
  189.9390  176.8020  139.3900 C   0  0  1  0  0  3  0  0  0  0  0  0
  192.4090  176.8420  138.9410 C   0  0  0  0  0  1  0  0  0  0  0  0
  191.0280  176.8090  138.3080 C   0  0  1  0  0  3  0  0  0  0  0  0
  190.8600  174.4070  138.0650 O   0  0  0  0  0  1  0  0  0  0  0  0
  190.9500  175.6080  137.3560 C   0  0  1  0  0  3  0  0  0  0  0  0
  189.7880  175.7250  136.3800 C   0  0  0  0  0  2  0  0  0  0  0  0
  190.1500  176.5860  135.2650 N   0  0  0  0  0  0  0  0  0  0  0  0
  191.2510  175.9420  134.5710 C   0  0  0  0  0  1  0  0  0  0  0  0
  189.0220  176.5750  134.3510 C   0  0  0  0  0  1  0  0  0  0  0  0
  1  9  2  0  0  0  0
  2  3  1  0  0  0  0
  2  5  1  0  0  0  0
  3  7  1  0  0  0  0
  5 14  1  0  0  0  0
  6  1  1  0  0  0  0
  7  4  1  0  0  0  0
  8 21  1  6  0  0  0
  8 12  1  0  0  0  0
  8 13  1  0  0  0  0
 10 19  1  0  0  0  0
 11  4  2  0  0  0  0
 12 16  1  0  0  0  0
 13  2  2  0  0  0  0
 14  1  1  0  0  0  0
 15 11  1  0  0  0  0
 16  5  2  0  0  0  0
 16 17  1  0  0  0  0
 17  6  2  0  0  0  0
 18 10  2  0  0  0  0
 18 13  1  0  0  0  0
 19 20  1  0  0  0  0
 19  3  2  0  0  0  0
 20 15  2  0  0  0  0
 23 22  1  6  0  0  0
 23 21  1  0  0  0  0
 25 24  1  1  0  0  0
 25 23  1  0  0  0  0
 27 26  1  1  0  0  0
 27 25  1  0  0  0  0
 28 27  1  0  0  0  0
 29 28  1  0  0  0  0
 30 29  1  0  0  0  0
 31 29  1  0  0  0  0
M  END
>  <MODEL>
6

>  <REMARK>
 VINA RESULT:      -8.7      1.601      2.141
  Name = 
  6 active torsions:
  status: ('A' for Active; 'I' for Inactive)
    1  A    between atoms: N_1  and  C_24
    2  A    between atoms: C_9  and  C_22
    3  A    between atoms: C_9  and  N_23
    4  A    between atoms: C_15  and  N_23
    5  A    between atoms: C_19  and  C_22
    6  A    between atoms: C_19  and  C_24
                            x       y       z     vdW  Elec       q    Type
                         _______ _______ _______ _____ _____    ______ ____

>  <TORSDO>
F 6

$$$$
=
 OpenBabel10272400213D

 31 34  0  0  1  0  0  0  0  0999 V2000
  185.3020  178.3610  143.9660 C   0  0  0  0  0  0  0  0  0  0  0  0
  189.0230  177.2610  143.5030 C   0  0  0  0  0  0  0  0  0  0  0  0
  189.6500  177.2800  144.7750 C   0  0  0  0  0  0  0  0  0  0  0  0
  188.7350  177.3250  147.0740 C   0  0  0  0  0  3  0  0  0  0  0  0
  187.6760  177.8690  143.2560 C   0  0  0  0  0  0  0  0  0  0  0  0
  185.0510  178.7730  142.5860 C   0  0  0  0  0  3  0  0  0  0  0  0
  189.1060  178.1360  145.8790 C   0  0  0  0  0  2  0  0  0  0  0  0
  189.0950  176.6460  141.0530 C   0  0  2  0  0  3  0  0  0  0  0  0
  184.3900  178.4620  144.8260 O   0  0  0  0  0  0  0  0  0  0  0  0
  191.4880  176.0030  143.8630 C   0  0  0  0  0  3  0  0  0  0  0  0
  189.6290  176.6520  147.7930 C   0  0  0  0  0  3  0  0  0  0  0  0
  188.5550  178.3410  140.6940 S   0  0  0  0  0  0  0  0  0  0  0  0
  189.7010  176.6350  142.4310 C   0  0  0  0  0  0  0  0  0  0  0  0
  186.6300  177.7880  144.3490 C   0  0  0  0  0  2  0  0  0  0  0  0
  191.0630  176.5450  147.4700 C   0  0  0  0  0  3  0  0  0  0  0  0
  187.3380  178.2990  142.0160 C   0  0  0  0  0  0  0  0  0  0  0  0
  186.0040  178.7280  141.7070 N   0  0  0  0  0  0  0  0  0  0  0  0
  190.8990  176.0270  142.6430 N   0  0  0  0  0  0  0  0  0  0  0  0
  190.8820  176.6150  144.9570 C   0  0  0  0  0  0  0  0  0  0  0  0
  191.6020  176.5360  146.2460 C   0  0  0  0  0  3  0  0  0  0  0  0
  190.0610  176.2270  140.0460 N   0  0  0  0  0  2  0  0  0  0  0  0
  191.8830  177.6620  139.9090 O   0  0  0  0  0  1  0  0  0  0  0  0
  190.5910  177.4350  139.4290 C   0  0  1  0  0  3  0  0  0  0  0  0
  190.8530  175.8420  137.5050 C   0  0  0  0  0  1  0  0  0  0  0  0
  190.6040  177.2890  137.9010 C   0  0  1  0  0  3  0  0  0  0  0  0
  189.3540  179.1400  136.9720 O   0  0  0  0  0  1  0  0  0  0  0  0
  189.3100  177.7670  137.2310 C   0  0  1  0  0  3  0  0  0  0  0  0
  189.0120  177.0040  135.9490 C   0  0  0  0  0  2  0  0  0  0  0  0
  187.6400  176.5190  135.9570 N   0  0  0  0  0  0  0  0  0  0  0  0
  187.1810  176.5680  137.3330 C   0  0  0  0  0  1  0  0  0  0  0  0
  186.8530  177.4920  135.2220 C   0  0  0  0  0  1  0  0  0  0  0  0
  1 14  1  0  0  0  0
  1  9  2  0  0  0  0
  2  3  1  0  0  0  0
  3 19  2  0  0  0  0
  3  7  1  0  0  0  0
  4 11  2  0  0  0  0
  5  2  1  0  0  0  0
  5 14  1  0  0  0  0
  6  1  1  0  0  0  0
  7  4  1  0  0  0  0
  8 21  1  6  0  0  0
  8 13  1  0  0  0  0
 10 19  1  0  0  0  0
 12  8  1  0  0  0  0
 12 16  1  0  0  0  0
 13 18  1  0  0  0  0
 13  2  2  0  0  0  0
 15 11  1  0  0  0  0
 16  5  2  0  0  0  0
 17 16  1  0  0  0  0
 17  6  2  0  0  0  0
 18 10  2  0  0  0  0
 19 20  1  0  0  0  0
 20 15  2  0  0  0  0
 23 22  1  1  0  0  0
 23 21  1  0  0  0  0
 25 24  1  1  0  0  0
 25 23  1  0  0  0  0
 27 26  1  6  0  0  0
 27 25  1  0  0  0  0
 28 29  1  0  0  0  0
 28 27  1  0  0  0  0
 29 30  1  0  0  0  0
 31 29  1  0  0  0  0
M  END
>  <MODEL>
7

>  <REMARK>
 VINA RESULT:      -8.6      2.658      5.069
  Name = 
  6 active torsions:
  status: ('A' for Active; 'I' for Inactive)
    1  A    between atoms: N_1  and  C_24
    2  A    between atoms: C_9  and  C_22
    3  A    between atoms: C_9  and  N_23
    4  A    between atoms: C_15  and  N_23
    5  A    between atoms: C_19  and  C_22
    6  A    between atoms: C_19  and  C_24
                            x       y       z     vdW  Elec       q    Type
                         _______ _______ _______ _____ _____    ______ ____

>  <TORSDO>
F 6

$$$$
=
 OpenBabel10272400213D

 31 34  0  0  1  0  0  0  0  0999 V2000
  190.9100  177.0120  146.1320 C   0  0  0  0  0  0  0  0  0  0  0  0
  187.9580  177.5780  143.6340 C   0  0  0  0  0  0  0  0  0  0  0  0
  186.7660  177.7270  144.3870 C   0  0  0  0  0  0  0  0  0  0  0  0
  186.3660  178.2180  146.7790 C   0  0  0  0  0  3  0  0  0  0  0  0
  189.2400  177.0900  144.2380 C   0  0  0  0  0  0  0  0  0  0  0  0
  191.8350  176.3790  145.1940 C   0  0  0  0  0  3  0  0  0  0  0  0
  186.6630  177.1600  145.7710 C   0  0  0  0  0  2  0  0  0  0  0  0
  189.1580  177.7090  141.4130 C   0  0  2  0  0  3  0  0  0  0  0  0
  191.2490  177.1780  147.3320 O   0  0  0  0  0  0  0  0  0  0  0  0
  185.6600  178.5940  142.4200 C   0  0  0  0  0  3  0  0  0  0  0  0
  185.2290  178.9090  146.7840 C   0  0  0  0  0  3  0  0  0  0  0  0
  189.8060  176.0490  141.7570 S   0  0  0  0  0  0  0  0  0  0  0  0
  187.9290  177.9100  142.2600 C   0  0  0  0  0  0  0  0  0  0  0  0
  189.5740  177.4930  145.6590 C   0  0  0  0  0  2  0  0  0  0  0  0
  184.1660  178.7900  145.7700 C   0  0  0  0  0  3  0  0  0  0  0  0
  190.1680  176.4760  143.4650 C   0  0  0  0  0  0  0  0  0  0  0  0
  191.4720  176.1510  143.9710 N   0  0  0  0  0  0  0  0  0  0  0  0
  186.7930  178.4080  141.7010 N   0  0  0  0  0  0  0  0  0  0  0  0
  185.6160  178.2700  143.7740 C   0  0  0  0  0  0  0  0  0  0  0  0
  184.3350  178.5080  144.4730 C   0  0  0  0  0  3  0  0  0  0  0  0
  188.8500  177.8190  139.9940 N   0  0  0  0  0  2  0  0  0  0  0  0
  191.1610  177.6120  140.1050 O   0  0  0  0  0  1  0  0  0  0  0  0
  190.1070  178.0430  139.2960 C   0  0  1  0  0  3  0  0  0  0  0  0
  190.7190  175.9050  138.1310 C   0  0  0  0  0  1  0  0  0  0  0  0
  190.1140  177.2890  137.9590 C   0  0  1  0  0  3  0  0  0  0  0  0
  188.3950  178.2620  136.5620 O   0  0  0  0  0  1  0  0  0  0  0  0
  188.7210  177.1440  137.3340 C   0  0  1  0  0  3  0  0  0  0  0  0
  188.5960  175.8780  136.4970 C   0  0  0  0  0  2  0  0  0  0  0  0
  187.2700  175.7910  135.9060 N   0  0  0  0  0  0  0  0  0  0  0  0
  187.2990  174.6900  134.9590 C   0  0  0  0  0  1  0  0  0  0  0  0
  186.3670  175.3970  136.9720 C   0  0  0  0  0  1  0  0  0  0  0  0
  1  9  2  0  0  0  0
  2  5  1  0  0  0  0
  2  3  1  0  0  0  0
  3  7  1  0  0  0  0
  4 11  2  0  0  0  0
  5 14  1  0  0  0  0
  6  1  1  0  0  0  0
  7  4  1  0  0  0  0
  8 21  1  6  0  0  0
  8 12  1  0  0  0  0
  8 13  1  0  0  0  0
 10 19  1  0  0  0  0
 12 16  1  0  0  0  0
 13  2  2  0  0  0  0
 14  1  1  0  0  0  0
 15 11  1  0  0  0  0
 16 17  1  0  0  0  0
 16  5  2  0  0  0  0
 17  6  2  0  0  0  0
 18 13  1  0  0  0  0
 18 10  2  0  0  0  0
 19  3  2  0  0  0  0
 19 20  1  0  0  0  0
 20 15  2  0  0  0  0
 23 21  1  0  0  0  0
 23 22  1  1  0  0  0
 25 24  1  1  0  0  0
 25 23  1  0  0  0  0
 27 26  1  6  0  0  0
 27 25  1  0  0  0  0
 28 27  1  0  0  0  0
 29 28  1  0  0  0  0
 29 31  1  0  0  0  0
 30 29  1  0  0  0  0
M  END
>  <MODEL>
8

>  <REMARK>
 VINA RESULT:      -8.2      2.252      3.036
  Name = 
  6 active torsions:
  status: ('A' for Active; 'I' for Inactive)
    1  A    between atoms: N_1  and  C_24
    2  A    between atoms: C_9  and  C_22
    3  A    between atoms: C_9  and  N_23
    4  A    between atoms: C_15  and  N_23
    5  A    between atoms: C_19  and  C_22
    6  A    between atoms: C_19  and  C_24
                            x       y       z     vdW  Elec       q    Type
                         _______ _______ _______ _____ _____    ______ ____

>  <TORSDO>
F 6

$$$$
=
 OpenBabel10272400213D

 31 34  0  0  1  0  0  0  0  0999 V2000
  185.7340  178.9680  140.7530 C   0  0  0  0  0  0  0  0  0  0  0  0
  189.1500  177.2500  139.9480 C   0  0  0  0  0  0  0  0  0  0  0  0
  189.1720  176.9380  138.5650 C   0  0  0  0  0  0  0  0  0  0  0  0
  187.8030  177.7360  136.6640 C   0  0  0  0  0  3  0  0  0  0  0  0
  187.9030  177.6770  140.6610 C   0  0  0  0  0  0  0  0  0  0  0  0
  185.7180  178.7000  142.1900 C   0  0  0  0  0  3  0  0  0  0  0  0
  187.8930  176.7750  137.8010 C   0  0  0  0  0  2  0  0  0  0  0  0
  190.3650  177.4200  142.1580 C   0  0  2  0  0  3  0  0  0  0  0  0
  184.7760  179.5850  140.2200 O   0  0  0  0  0  0  0  0  0  0  0  0
  191.5550  176.5650  138.7110 C   0  0  0  0  0  3  0  0  0  0  0  0
  188.6360  177.7040  135.6270 C   0  0  0  0  0  3  0  0  0  0  0  0
  188.9870  176.4960  142.8950 S   0  0  0  0  0  0  0  0  0  0  0  0
  190.3590  177.1550  140.6760 C   0  0  0  0  0  0  0  0  0  0  0  0
  186.9020  178.5400  139.9220 C   0  0  0  0  0  2  0  0  0  0  0  0
  189.7890  176.7940  135.4990 C   0  0  0  0  0  3  0  0  0  0  0  0
  187.7720  177.4670  141.9940 C   0  0  0  0  0  0  0  0  0  0  0  0
  186.6720  178.0130  142.7360 N   0  0  0  0  0  0  0  0  0  0  0  0
  191.5140  176.8240  140.0400 N   0  0  0  0  0  0  0  0  0  0  0  0
  190.3970  176.6230  137.9390 C   0  0  0  0  0  0  0  0  0  0  0  0
  190.5430  176.3240  136.4990 C   0  0  0  0  0  3  0  0  0  0  0  0
  191.6140  176.9880  142.7700 N   0  0  0  0  0  2  0  0  0  0  0  0
  191.9820  175.1040  144.0790 O   0  0  0  0  0  1  0  0  0  0  0  0
  191.2730  176.3050  144.0090 C   0  0  1  0  0  3  0  0  0  0  0  0
  191.4740  178.6640  144.8460 C   0  0  0  0  0  1  0  0  0  0  0  0
  191.6060  177.1950  145.2150 C   0  0  1  0  0  3  0  0  0  0  0  0
  191.4920  176.8900  147.6130 O   0  0  0  0  0  1  0  0  0  0  0  0
  190.7290  176.9140  146.4420 C   0  0  1  0  0  3  0  0  0  0  0  0
  189.5940  177.9180  146.5790 C   0  0  0  0  0  2  0  0  0  0  0  0
  188.4330  177.2890  147.1870 N   0  0  0  0  0  0  0  0  0  0  0  0
  188.2430  177.9130  148.4850 C   0  0  0  0  0  1  0  0  0  0  0  0
  187.2880  177.6630  146.3770 C   0  0  0  0  0  1  0  0  0  0  0  0
  1  6  1  0  0  0  0
  2  5  1  0  0  0  0
  2 13  1  0  0  0  0
  3  2  2  0  0  0  0
  4  7  1  0  0  0  0
  5 16  2  0  0  0  0
  6 17  2  0  0  0  0
  7  3  1  0  0  0  0
  8 21  1  1  0  0  0
  8 12  1  0  0  0  0
  9  1  2  0  0  0  0
 10 18  1  0  0  0  0
 11  4  2  0  0  0  0
 13  8  1  0  0  0  0
 14  5  1  0  0  0  0
 14  1  1  0  0  0  0
 15 11  1  0  0  0  0
 15 20  2  0  0  0  0
 16 17  1  0  0  0  0
 16 12  1  0  0  0  0
 18 13  2  0  0  0  0
 19  3  1  0  0  0  0
 19 10  2  0  0  0  0
 20 19  1  0  0  0  0
 21 23  1  0  0  0  0
 23 22  1  1  0  0  0
 23 25  1  0  0  0  0
 25 24  1  6  0  0  0
 25 27  1  0  0  0  0
 27 28  1  0  0  0  0
 27 26  1  1  0  0  0
 28 29  1  0  0  0  0
 29 30  1  0  0  0  0
 31 29  1  0  0  0  0
M  END
>  <MODEL>
9

>  <REMARK>
 VINA RESULT:      -8.0      2.670      7.704
  Name = 
  6 active torsions:
  status: ('A' for Active; 'I' for Inactive)
    1  A    between atoms: N_1  and  C_24
    2  A    between atoms: C_9  and  C_22
    3  A    between atoms: C_9  and  N_23
    4  A    between atoms: C_15  and  N_23
    5  A    between atoms: C_19  and  C_22
    6  A    between atoms: C_19  and  C_24
                            x       y       z     vdW  Elec       q    Type
                         _______ _______ _______ _____ _____    ______ ____

>  <TORSDO>
F 6

$$$$
