=
 OpenBabel10272413133D

 32 37  0  0  1  0  0  0  0  0999 V2000
  187.7260  177.7790  144.8600 C   0  0  0  0  0  0  0  0  0  0  0  0
  185.8590  178.3930  143.3800 C   0  0  0  0  0  0  0  0  0  0  0  0
  188.2130  177.6070  146.1650 C   0  0  0  0  0  3  0  0  0  0  0  0
  186.3770  178.1550  144.6720 C   0  0  0  0  0  0  0  0  0  0  0  0
  184.5280  178.8470  143.2280 C   0  0  0  0  0  0  0  0  0  0  0  0
  185.1680  179.3890  138.4840 N   0  0  0  0  0  2  0  0  0  0  0  0
  186.6410  178.1670  142.2280 C   0  0  0  0  0  0  0  0  0  0  0  0
  184.1580  179.1720  139.5200 C   0  0  0  0  0  2  0  0  0  0  0  0
  184.7900  178.9410  140.8650 C   0  0  0  0  0  0  0  0  0  0  0  0
  185.5360  178.3210  145.7980 C   0  0  0  0  0  0  0  0  0  0  0  0
  184.0410  179.1080  141.9850 N   0  0  0  0  0  0  0  0  0  0  0  0
  184.2120  178.7340  145.6310 C   0  0  0  0  0  3  0  0  0  0  0  0
  186.0350  178.1120  147.0860 C   0  0  0  0  0  3  0  0  0  0  0  0
  187.9780  177.4850  142.3510 C   0  0  0  0  0  2  0  0  0  0  0  0
  188.6800  177.7640  143.6890 C   0  0  2  0  0  3  0  0  0  0  0  0
  186.0980  178.4270  140.9590 C   0  0  0  0  0  0  0  0  0  0  0  0
  183.7060  179.0010  144.3570 C   0  0  0  0  0  0  0  0  0  0  0  0
  187.3730  177.7550  147.2680 C   0  0  0  0  0  3  0  0  0  0  0  0
  186.0500  178.2260  138.4580 C   0  0  0  0  0  2  0  0  0  0  0  0
  186.9220  178.2170  139.7110 C   0  0  0  0  0  2  0  0  0  0  0  0
  182.2910  179.4640  144.2230 C   0  0  0  0  0  2  0  0  0  0  0  0
  181.4420  178.3620  144.1280 O   0  0  0  0  0  1  0  0  0  0  0  0
  189.8360  176.8820  143.9260 N   0  0  0  0  0  0  0  0  0  0  0  0
  191.0050  177.6840  144.3320 C   0  0  1  0  0  3  0  0  0  0  0  0
  190.8180  179.1530  143.9950 C   0  0  0  0  0  1  0  0  0  0  0  0
  191.5040  177.4490  145.7730 C   0  0  0  0  0  2  0  0  0  0  0  0
  191.8660  175.9980  146.0560 C   0  0  0  0  0  1  0  0  0  0  0  0
  190.0920  175.9970  142.7820 C   0  0  0  0  0  2  0  0  0  0  0  0
  191.2580  176.5220  141.9630 C   0  0  0  0  0  2  0  0  0  0  0  0
  191.6960  176.9200  139.5840 C   0  0  0  0  0  2  0  0  0  0  0  0
  190.5180  176.1670  139.7330 O   0  0  0  0  0  0  0  0  0  0  0  0
  190.7500  177.1700  140.6920 C   0  0  1  0  0  3  0  0  0  0  0  0
  1  3  1  0  0  0  0
  2  4  1  0  0  0  0
  3 18  2  0  0  0  0
  4  1  2  0  0  0  0
  4 10  1  0  0  0  0
  5  2  1  0  0  0  0
  5 17  1  0  0  0  0
  6  8  1  0  0  0  0
  7 14  1  0  0  0  0
  7  2  2  0  0  0  0
  8  9  1  0  0  0  0
  9 16  2  0  0  0  0
  9 11  1  0  0  0  0
 10 13  2  0  0  0  0
 11  5  2  0  0  0  0
 12 10  1  0  0  0  0
 13 18  1  0  0  0  0
 14 15  1  0  0  0  0
 15 23  1  1  0  0  0
 15  1  1  0  0  0  0
 16  7  1  0  0  0  0
 17 12  2  0  0  0  0
 19  6  1  0  0  0  0
 19 20  1  0  0  0  0
 20 16  1  0  0  0  0
 21 17  1  0  0  0  0
 22 21  1  0  0  0  0
 23 24  1  0  0  0  0
 24 25  1  1  0  0  0
 24 26  1  0  0  0  0
 26 27  1  0  0  0  0
 28 23  1  0  0  0  0
 29 28  1  0  0  0  0
 30 31  1  0  0  0  0
 30 32  1  0  0  0  0
 31 32  1  0  0  0  0
 32 29  1  1  0  0  0
M  END
>  <MODEL>
1

>  <REMARK>
 VINA RESULT:      -9.3      0.000      0.000
  Name = 
  7 active torsions:
  status: ('A' for Active; 'I' for Inactive)
    1  A    between atoms: C_3  and  C_22
    2  A    between atoms: C_13  and  C_29
    3  A    between atoms: C_15  and  C_20
    4  A    between atoms: C_15  and  C_26
    5  A    between atoms: N_16  and  C_20
    6  A    between atoms: N_16  and  C_22
    7  A    between atoms: N_16  and  C_27
                            x       y       z     vdW  Elec       q    Type
                         _______ _______ _______ _____ _____    ______ ____

>  <TORSDO>
F 7

$$$$
=
 OpenBabel10272413133D

 32 37  0  0  1  0  0  0  0  0999 V2000
  184.3790  178.5730  142.7610 C   0  0  0  0  0  0  0  0  0  0  0  0
  186.7970  178.1270  142.8000 C   0  0  0  0  0  0  0  0  0  0  0  0
  183.1850  178.7700  143.4720 C   0  0  0  0  0  3  0  0  0  0  0  0
  185.5830  178.3830  143.4740 C   0  0  0  0  0  0  0  0  0  0  0  0
  187.9710  177.8600  143.5430 C   0  0  0  0  0  0  0  0  0  0  0  0
  190.4020  176.8790  139.5010 N   0  0  0  0  0  2  0  0  0  0  0  0
  186.8690  178.1510  141.3920 C   0  0  0  0  0  0  0  0  0  0  0  0
  190.5510  177.3160  140.8890 C   0  0  0  0  0  2  0  0  0  0  0  0
  189.2150  177.5530  141.5370 C   0  0  0  0  0  0  0  0  0  0  0  0
  185.5710  178.4250  144.8880 C   0  0  0  0  0  0  0  0  0  0  0  0
  189.1330  177.5800  142.8920 N   0  0  0  0  0  0  0  0  0  0  0  0
  186.7450  178.1970  145.6090 C   0  0  0  0  0  3  0  0  0  0  0  0
  184.3750  178.6550  145.5740 C   0  0  0  0  0  3  0  0  0  0  0  0
  185.6930  178.6390  140.5890 C   0  0  0  0  0  2  0  0  0  0  0  0
  184.3400  178.3630  141.2660 C   0  0  2  0  0  3  0  0  0  0  0  0
  188.0900  177.8780  140.7540 C   0  0  0  0  0  0  0  0  0  0  0  0
  187.9410  177.9110  144.9470 C   0  0  0  0  0  0  0  0  0  0  0  0
  183.1840  178.8280  144.8660 C   0  0  0  0  0  3  0  0  0  0  0  0
  189.6420  177.8960  138.7820 C   0  0  0  0  0  2  0  0  0  0  0  0
  188.1890  177.8730  139.2480 C   0  0  0  0  0  2  0  0  0  0  0  0
  189.1700  177.6490  145.7550 C   0  0  0  0  0  2  0  0  0  0  0  0
  188.8380  176.9160  146.8940 O   0  0  0  0  0  1  0  0  0  0  0  0
  183.2230  179.0840  140.6310 N   0  0  0  0  0  0  0  0  0  0  0  0
  182.1540  178.1350  140.2700 C   0  0  1  0  0  3  0  0  0  0  0  0
  182.7110  176.7540  139.9720 C   0  0  0  0  0  1  0  0  0  0  0  0
  180.9390  178.1090  141.2210 C   0  0  0  0  0  2  0  0  0  0  0  0
  180.3190  179.4810  141.4440 C   0  0  0  0  0  1  0  0  0  0  0  0
  183.6770  179.9200  139.5130 C   0  0  0  0  0  2  0  0  0  0  0  0
  182.5440  180.1340  138.5240 C   0  0  0  0  0  2  0  0  0  0  0  0
  181.0240  181.7960  137.5560 C   0  0  0  0  0  2  0  0  0  0  0  0
  180.7770  181.6700  138.9340 O   0  0  0  0  0  0  0  0  0  0  0  0
  182.1210  181.5890  138.5250 C   0  0  1  0  0  3  0  0  0  0  0  0
  1  3  2  0  0  0  0
  1  4  1  0  0  0  0
  2  4  2  0  0  0  0
  2  5  1  0  0  0  0
  3 18  1  0  0  0  0
  4 10  1  0  0  0  0
  5 17  2  0  0  0  0
  6  8  1  0  0  0  0
  7  2  1  0  0  0  0
  8  9  1  0  0  0  0
  9 11  2  0  0  0  0
 10 13  1  0  0  0  0
 10 12  2  0  0  0  0
 11  5  1  0  0  0  0
 14 15  1  0  0  0  0
 14  7  1  0  0  0  0
 15 23  1  6  0  0  0
 15  1  1  0  0  0  0
 16  7  2  0  0  0  0
 16  9  1  0  0  0  0
 17 12  1  0  0  0  0
 17 21  1  0  0  0  0
 18 13  2  0  0  0  0
 19 20  1  0  0  0  0
 19  6  1  0  0  0  0
 20 16  1  0  0  0  0
 21 22  1  0  0  0  0
 24 25  1  1  0  0  0
 24 23  1  0  0  0  0
 24 26  1  0  0  0  0
 26 27  1  0  0  0  0
 28 23  1  0  0  0  0
 29 28  1  0  0  0  0
 30 32  1  0  0  0  0
 30 31  1  0  0  0  0
 32 29  1  6  0  0  0
 32 31  1  0  0  0  0
M  END
>  <MODEL>
2

>  <REMARK>
 VINA RESULT:      -8.8      2.576      6.854
  Name = 
  7 active torsions:
  status: ('A' for Active; 'I' for Inactive)
    1  A    between atoms: C_3  and  C_22
    2  A    between atoms: C_13  and  C_29
    3  A    between atoms: C_15  and  C_20
    4  A    between atoms: C_15  and  C_26
    5  A    between atoms: N_16  and  C_20
    6  A    between atoms: N_16  and  C_22
    7  A    between atoms: N_16  and  C_27
                            x       y       z     vdW  Elec       q    Type
                         _______ _______ _______ _____ _____    ______ ____

>  <TORSDO>
F 7

$$$$
=
 OpenBabel10272413133D

 32 37  0  0  1  0  0  0  0  0999 V2000
  189.6660  177.7750  142.1740 C   0  0  0  0  0  0  0  0  0  0  0  0
  187.8100  177.9050  143.7830 C   0  0  0  0  0  0  0  0  0  0  0  0
  191.0340  177.5710  141.9380 C   0  0  0  0  0  3  0  0  0  0  0  0
  189.1680  177.6540  143.4910 C   0  0  0  0  0  0  0  0  0  0  0  0
  187.3580  177.8550  145.1230 C   0  0  0  0  0  0  0  0  0  0  0  0
  182.9970  179.4120  143.7950 N   0  0  0  0  0  2  0  0  0  0  0  0
  186.8830  178.1870  142.7590 C   0  0  0  0  0  0  0  0  0  0  0  0
  183.7170  178.6610  144.8230 C   0  0  0  0  0  2  0  0  0  0  0  0
  185.1560  178.4490  144.4420 C   0  0  0  0  0  0  0  0  0  0  0  0
  190.0490  177.3000  144.5400 C   0  0  0  0  0  0  0  0  0  0  0  0
  186.0560  178.1310  145.4070 N   0  0  0  0  0  0  0  0  0  0  0  0
  189.5820  177.2180  145.8530 C   0  0  0  0  0  3  0  0  0  0  0  0
  191.4020  177.0690  144.2740 C   0  0  0  0  0  3  0  0  0  0  0  0
  187.2900  178.0370  141.3170 C   0  0  0  0  0  2  0  0  0  0  0  0
  188.7820  178.3170  141.0760 C   0  0  2  0  0  3  0  0  0  0  0  0
  185.5420  178.4460  143.0870 C   0  0  0  0  0  0  0  0  0  0  0  0
  188.2470  177.4960  146.1510 C   0  0  0  0  0  0  0  0  0  0  0  0
  191.8930  177.2040  142.9740 C   0  0  0  0  0  3  0  0  0  0  0  0
  183.1050  178.6800  142.5360 C   0  0  0  0  0  2  0  0  0  0  0  0
  184.5350  178.7750  142.0120 C   0  0  0  0  0  2  0  0  0  0  0  0
  187.7910  177.4210  147.5720 C   0  0  0  0  0  2  0  0  0  0  0  0
  188.6790  178.1210  148.3890 O   0  0  0  0  0  1  0  0  0  0  0  0
  189.2360  177.8970  139.7380 N   0  0  0  0  0  0  0  0  0  0  0  0
  188.3470  178.4600  138.7060 C   0  0  1  0  0  3  0  0  0  0  0  0
  189.1320  179.2080  137.6430 C   0  0  0  0  0  1  0  0  0  0  0  0
  187.3060  177.4830  138.1200 C   0  0  0  0  0  2  0  0  0  0  0  0
  185.9910  178.1540  137.7510 C   0  0  0  0  0  1  0  0  0  0  0  0
  189.4010  176.4410  139.6490 C   0  0  0  0  0  2  0  0  0  0  0  0
  190.6590  176.1020  138.8680 C   0  0  0  0  0  2  0  0  0  0  0  0
  191.4730  174.6890  137.0380 C   0  0  0  0  0  2  0  0  0  0  0  0
  190.4660  174.0140  137.7500 O   0  0  0  0  0  0  0  0  0  0  0  0
  190.2940  175.4000  137.5760 C   0  0  1  0  0  3  0  0  0  0  0  0
  1  4  1  0  0  0  0
  2  5  1  0  0  0  0
  3  1  2  0  0  0  0
  3 18  1  0  0  0  0
  4  2  2  0  0  0  0
  4 10  1  0  0  0  0
  5 11  1  0  0  0  0
  5 17  2  0  0  0  0
  6  8  1  0  0  0  0
  7 16  2  0  0  0  0
  7  2  1  0  0  0  0
  9  8  1  0  0  0  0
  9 11  2  0  0  0  0
 10 12  2  0  0  0  0
 12 17  1  0  0  0  0
 13 10  1  0  0  0  0
 14  7  1  0  0  0  0
 15 23  1  6  0  0  0
 15 14  1  0  0  0  0
 15  1  1  0  0  0  0
 16  9  1  0  0  0  0
 17 21  1  0  0  0  0
 18 13  2  0  0  0  0
 19  6  1  0  0  0  0
 20 19  1  0  0  0  0
 20 16  1  0  0  0  0
 21 22  1  0  0  0  0
 24 25  1  6  0  0  0
 24 23  1  0  0  0  0
 26 24  1  0  0  0  0
 27 26  1  0  0  0  0
 28 23  1  0  0  0  0
 29 28  1  0  0  0  0
 30 32  1  0  0  0  0
 30 31  1  0  0  0  0
 32 31  1  0  0  0  0
 32 29  1  1  0  0  0
M  END
>  <MODEL>
3

>  <REMARK>
 VINA RESULT:      -8.6      2.391      5.057
  Name = 
  7 active torsions:
  status: ('A' for Active; 'I' for Inactive)
    1  A    between atoms: C_3  and  C_22
    2  A    between atoms: C_13  and  C_29
    3  A    between atoms: C_15  and  C_20
    4  A    between atoms: C_15  and  C_26
    5  A    between atoms: N_16  and  C_20
    6  A    between atoms: N_16  and  C_22
    7  A    between atoms: N_16  and  C_27
                            x       y       z     vdW  Elec       q    Type
                         _______ _______ _______ _____ _____    ______ ____

>  <TORSDO>
F 7

$$$$
=
 OpenBabel10272413133D

 32 37  0  0  1  0  0  0  0  0999 V2000
  184.4570  178.5490  142.8810 C   0  0  0  0  0  0  0  0  0  0  0  0
  186.8280  178.0110  143.2580 C   0  0  0  0  0  0  0  0  0  0  0  0
  183.1930  178.8320  143.4200 C   0  0  0  0  0  3  0  0  0  0  0  0
  185.5500  178.3520  143.7540 C   0  0  0  0  0  0  0  0  0  0  0  0
  187.8830  177.7410  144.1610 C   0  0  0  0  0  0  0  0  0  0  0  0
  190.7640  176.4360  140.5270 N   0  0  0  0  0  2  0  0  0  0  0  0
  187.0800  177.9520  141.8730 C   0  0  0  0  0  0  0  0  0  0  0  0
  190.7540  176.9460  141.8980 C   0  0  0  0  0  2  0  0  0  0  0  0
  189.3580  177.2710  142.3530 C   0  0  0  0  0  0  0  0  0  0  0  0
  185.3580  178.4750  145.1510 C   0  0  0  0  0  0  0  0  0  0  0  0
  189.1040  177.3790  143.6830 N   0  0  0  0  0  0  0  0  0  0  0  0
  186.4180  178.2420  146.0290 C   0  0  0  0  0  3  0  0  0  0  0  0
  184.0960  178.7900  145.6620 C   0  0  0  0  0  3  0  0  0  0  0  0
  186.0410  178.4400  140.8990 C   0  0  0  0  0  2  0  0  0  0  0  0
  184.6010  178.2560  141.4060 C   0  0  2  0  0  3  0  0  0  0  0  0
  188.3600  177.5960  141.4150 C   0  0  0  0  0  0  0  0  0  0  0  0
  187.6750  177.8720  145.5450 C   0  0  0  0  0  0  0  0  0  0  0  0
  183.0160  178.9700  144.7960 C   0  0  0  0  0  3  0  0  0  0  0  0
  190.1510  177.4410  139.6640 C   0  0  0  0  0  2  0  0  0  0  0  0
  188.6500  177.5010  139.9360 C   0  0  0  0  0  2  0  0  0  0  0  0
  188.7770  177.6080  146.5190 C   0  0  0  0  0  2  0  0  0  0  0  0
  188.2830  176.8830  147.6030 O   0  0  0  0  0  1  0  0  0  0  0  0
  183.6100  178.9830  140.5950 N   0  0  0  0  0  0  0  0  0  0  0  0
  182.4570  178.1090  140.3080 C   0  0  1  0  0  3  0  0  0  0  0  0
  182.8160  176.6420  140.4710 C   0  0  0  0  0  1  0  0  0  0  0  0
  181.1390  178.4950  141.0110 C   0  0  0  0  0  2  0  0  0  0  0  0
  180.5990  179.8500  140.5770 C   0  0  0  0  0  1  0  0  0  0  0  0
  184.2140  179.5800  139.3980 C   0  0  0  0  0  2  0  0  0  0  0  0
  183.8660  178.7580  138.1690 C   0  0  0  0  0  2  0  0  0  0  0  0
  184.6870  176.5930  137.3630 C   0  0  0  0  0  2  0  0  0  0  0  0
  184.8770  177.5730  136.3740 O   0  0  0  0  0  0  0  0  0  0  0  0
  185.0790  177.9760  137.7070 C   0  0  1  0  0  3  0  0  0  0  0  0
  1  3  2  0  0  0  0
  1  4  1  0  0  0  0
  2  4  2  0  0  0  0
  2  5  1  0  0  0  0
  3 18  1  0  0  0  0
  4 10  1  0  0  0  0
  5 17  2  0  0  0  0
  6  8  1  0  0  0  0
  7  2  1  0  0  0  0
  8  9  1  0  0  0  0
  9 11  2  0  0  0  0
 10 13  1  0  0  0  0
 10 12  2  0  0  0  0
 11  5  1  0  0  0  0
 14 15  1  0  0  0  0
 14  7  1  0  0  0  0
 15 23  1  6  0  0  0
 15  1  1  0  0  0  0
 16  7  2  0  0  0  0
 16  9  1  0  0  0  0
 17 12  1  0  0  0  0
 17 21  1  0  0  0  0
 18 13  2  0  0  0  0
 19 20  1  0  0  0  0
 19  6  1  0  0  0  0
 20 16  1  0  0  0  0
 21 22  1  0  0  0  0
 24 25  1  1  0  0  0
 24 23  1  0  0  0  0
 24 26  1  0  0  0  0
 27 26  1  0  0  0  0
 28 23  1  0  0  0  0
 29 28  1  0  0  0  0
 30 32  1  0  0  0  0
 31 30  1  0  0  0  0
 31 32  1  0  0  0  0
 32 29  1  1  0  0  0
M  END
>  <MODEL>
4

>  <REMARK>
 VINA RESULT:      -8.2      2.417      6.252
  Name = 
  7 active torsions:
  status: ('A' for Active; 'I' for Inactive)
    1  A    between atoms: C_3  and  C_22
    2  A    between atoms: C_13  and  C_29
    3  A    between atoms: C_15  and  C_20
    4  A    between atoms: C_15  and  C_26
    5  A    between atoms: N_16  and  C_20
    6  A    between atoms: N_16  and  C_22
    7  A    between atoms: N_16  and  C_27
                            x       y       z     vdW  Elec       q    Type
                         _______ _______ _______ _____ _____    ______ ____

>  <TORSDO>
F 7

$$$$
=
 OpenBabel10272413133D

 32 37  0  0  1  0  0  0  0  0999 V2000
  182.4310  178.7260  141.6000 C   0  0  0  0  0  0  0  0  0  0  0  0
  184.7160  178.5620  142.4960 C   0  0  0  0  0  0  0  0  0  0  0  0
  181.0530  178.8250  141.8450 C   0  0  0  0  0  3  0  0  0  0  0  0
  183.3260  178.7150  142.6930 C   0  0  0  0  0  0  0  0  0  0  0  0
  185.5790  178.4730  143.6140 C   0  0  0  0  0  0  0  0  0  0  0  0
  189.3340  177.5470  140.7410 N   0  0  0  0  0  2  0  0  0  0  0  0
  185.2680  178.5140  141.2000 C   0  0  0  0  0  0  0  0  0  0  0  0
  188.9550  178.0770  142.0510 C   0  0  0  0  0  2  0  0  0  0  0  0
  187.4620  178.1960  142.1840 C   0  0  0  0  0  0  0  0  0  0  0  0
  182.8210  178.8360  144.0090 C   0  0  0  0  0  0  0  0  0  0  0  0
  186.9140  178.2910  143.4230 N   0  0  0  0  0  0  0  0  0  0  0  0
  183.6880  178.7840  145.1020 C   0  0  0  0  0  3  0  0  0  0  0  0
  181.4470  178.9660  144.2260 C   0  0  0  0  0  3  0  0  0  0  0  0
  184.4040  178.8180  140.0050 C   0  0  0  0  0  2  0  0  0  0  0  0
  182.9310  178.4270  140.2070 C   0  0  2  0  0  3  0  0  0  0  0  0
  186.6530  178.3460  141.0410 C   0  0  0  0  0  0  0  0  0  0  0  0
  185.0600  178.6000  144.9130 C   0  0  0  0  0  0  0  0  0  0  0  0
  180.5640  178.9620  143.1440 C   0  0  0  0  0  3  0  0  0  0  0  0
  188.7840  178.4290  139.7170 C   0  0  0  0  0  2  0  0  0  0  0  0
  187.2670  178.2660  139.6640 C   0  0  0  0  0  2  0  0  0  0  0  0
  185.9520  178.5260  146.1100 C   0  0  0  0  0  2  0  0  0  0  0  0
  185.6070  179.5280  147.0170 O   0  0  0  0  0  1  0  0  0  0  0  0
  182.0440  178.9790  139.1680 N   0  0  0  0  0  0  0  0  0  0  0  0
  181.6750  177.9210  138.2090 C   0  0  1  0  0  3  0  0  0  0  0  0
  182.3480  178.1290  136.8640 C   0  0  0  0  0  1  0  0  0  0  0  0
  181.7970  176.4750  138.7340 C   0  0  0  0  0  2  0  0  0  0  0  0
  182.6580  175.5840  137.8510 C   0  0  0  0  0  1  0  0  0  0  0  0
  182.6150  180.1760  138.5390 C   0  0  0  0  0  2  0  0  0  0  0  0
  181.7410  181.3860  138.8230 C   0  0  0  0  0  2  0  0  0  0  0  0
  179.9890  182.8050  137.8610 C   0  0  0  0  0  2  0  0  0  0  0  0
  181.2530  183.2550  137.4400 O   0  0  0  0  0  0  0  0  0  0  0  0
  181.0830  181.8620  137.5440 C   0  0  1  0  0  3  0  0  0  0  0  0
  1  3  2  0  0  0  0
  1  4  1  0  0  0  0
  2  4  2  0  0  0  0
  2  5  1  0  0  0  0
  3 18  1  0  0  0  0
  4 10  1  0  0  0  0
  5 17  2  0  0  0  0
  6  8  1  0  0  0  0
  7  2  1  0  0  0  0
  8  9  1  0  0  0  0
  9 11  2  0  0  0  0
 10 13  1  0  0  0  0
 10 12  2  0  0  0  0
 11  5  1  0  0  0  0
 14 15  1  0  0  0  0
 14  7  1  0  0  0  0
 15 23  1  6  0  0  0
 15  1  1  0  0  0  0
 16  7  2  0  0  0  0
 16  9  1  0  0  0  0
 17 12  1  0  0  0  0
 17 21  1  0  0  0  0
 18 13  2  0  0  0  0
 19  6  1  0  0  0  0
 20 19  1  0  0  0  0
 20 16  1  0  0  0  0
 21 22  1  0  0  0  0
 24 25  1  6  0  0  0
 24 26  1  0  0  0  0
 24 23  1  0  0  0  0
 27 26  1  0  0  0  0
 28 29  1  0  0  0  0
 28 23  1  0  0  0  0
 31 32  1  0  0  0  0
 31 30  1  0  0  0  0
 32 30  1  0  0  0  0
 32 29  1  1  0  0  0
M  END
>  <MODEL>
5

>  <REMARK>
 VINA RESULT:      -8.1      2.976      7.345
  Name = 
  7 active torsions:
  status: ('A' for Active; 'I' for Inactive)
    1  A    between atoms: C_3  and  C_22
    2  A    between atoms: C_13  and  C_29
    3  A    between atoms: C_15  and  C_20
    4  A    between atoms: C_15  and  C_26
    5  A    between atoms: N_16  and  C_20
    6  A    between atoms: N_16  and  C_22
    7  A    between atoms: N_16  and  C_27
                            x       y       z     vdW  Elec       q    Type
                         _______ _______ _______ _____ _____    ______ ____

>  <TORSDO>
F 7

$$$$
=
 OpenBabel10272413133D

 32 37  0  0  1  0  0  0  0  0999 V2000
  187.3280  178.3490  144.7640 C   0  0  0  0  0  0  0  0  0  0  0  0
  185.6160  178.5120  143.0050 C   0  0  0  0  0  0  0  0  0  0  0  0
  187.6420  178.3320  146.1320 C   0  0  0  0  0  3  0  0  0  0  0  0
  185.9750  178.4360  144.3690 C   0  0  0  0  0  0  0  0  0  0  0  0
  184.2590  178.6800  142.6430 C   0  0  0  0  0  0  0  0  0  0  0  0
  185.4710  179.1490  138.0040 N   0  0  0  0  0  2  0  0  0  0  0  0
  186.5870  178.4030  141.9890 C   0  0  0  0  0  0  0  0  0  0  0  0
  184.3820  178.7740  138.9060 C   0  0  0  0  0  2  0  0  0  0  0  0
  184.8420  178.7300  140.3360 C   0  0  0  0  0  0  0  0  0  0  0  0
  184.9610  178.4740  145.3560 C   0  0  0  0  0  0  0  0  0  0  0  0
  183.9190  178.7870  141.3300 N   0  0  0  0  0  0  0  0  0  0  0  0
  183.6220  178.6020  144.9830 C   0  0  0  0  0  3  0  0  0  0  0  0
  185.2970  178.4220  146.7110 C   0  0  0  0  0  3  0  0  0  0  0  0
  187.9980  178.0120  142.3390 C   0  0  0  0  0  2  0  0  0  0  0  0
  188.4280  178.4810  143.7380 C   0  0  2  0  0  3  0  0  0  0  0  0
  186.1970  178.4960  140.6430 C   0  0  0  0  0  0  0  0  0  0  0  0
  183.2650  178.7100  143.6370 C   0  0  0  0  0  0  0  0  0  0  0  0
  186.6370  178.3510  147.0980 C   0  0  0  0  0  3  0  0  0  0  0  0
  186.5570  178.1890  138.1780 C   0  0  0  0  0  2  0  0  0  0  0  0
  187.2190  178.4080  139.5360 C   0  0  0  0  0  2  0  0  0  0  0  0
  181.8230  178.8700  143.2800 C   0  0  0  0  0  2  0  0  0  0  0  0
  181.0250  178.4160  144.3300 O   0  0  0  0  0  1  0  0  0  0  0  0
  189.6870  177.8620  144.1890 N   0  0  0  0  0  0  0  0  0  0  0  0
  190.8040  178.3220  143.3450 C   0  0  1  0  0  3  0  0  0  0  0  0
  191.6980  179.3000  144.0880 C   0  0  0  0  0  1  0  0  0  0  0  0
  191.5900  177.2110  142.6170 C   0  0  0  0  0  2  0  0  0  0  0  0
  191.5730  177.3530  141.1020 C   0  0  0  0  0  1  0  0  0  0  0  0
  189.5760  176.4010  144.2810 C   0  0  0  0  0  2  0  0  0  0  0  0
  190.6630  175.8480  145.1850 C   0  0  0  0  0  2  0  0  0  0  0  0
  191.6170  175.9550  147.4400 C   0  0  0  0  0  2  0  0  0  0  0  0
  191.9820  177.1010  146.7140 O   0  0  0  0  0  0  0  0  0  0  0  0
  190.6830  176.6050  146.4970 C   0  0  1  0  0  3  0  0  0  0  0  0
  1  3  1  0  0  0  0
  2  4  1  0  0  0  0
  3 18  2  0  0  0  0
  4  1  2  0  0  0  0
  4 10  1  0  0  0  0
  5  2  1  0  0  0  0
  5 17  1  0  0  0  0
  6 19  1  0  0  0  0
  6  8  1  0  0  0  0
  7 14  1  0  0  0  0
  7  2  2  0  0  0  0
  8  9  1  0  0  0  0
  9 16  2  0  0  0  0
  9 11  1  0  0  0  0
 10 13  2  0  0  0  0
 11  5  2  0  0  0  0
 12 10  1  0  0  0  0
 13 18  1  0  0  0  0
 14 15  1  0  0  0  0
 15 23  1  1  0  0  0
 15  1  1  0  0  0  0
 16  7  1  0  0  0  0
 17 12  2  0  0  0  0
 19 20  1  0  0  0  0
 20 16  1  0  0  0  0
 21 17  1  0  0  0  0
 21 22  1  0  0  0  0
 23 28  1  0  0  0  0
 24 25  1  1  0  0  0
 24 23  1  0  0  0  0
 26 24  1  0  0  0  0
 27 26  1  0  0  0  0
 28 29  1  0  0  0  0
 31 30  1  0  0  0  0
 32 29  1  6  0  0  0
 32 31  1  0  0  0  0
 32 30  1  0  0  0  0
M  END
>  <MODEL>
6

>  <REMARK>
 VINA RESULT:      -7.9      1.547      2.582
  Name = 
  7 active torsions:
  status: ('A' for Active; 'I' for Inactive)
    1  A    between atoms: C_3  and  C_22
    2  A    between atoms: C_13  and  C_29
    3  A    between atoms: C_15  and  C_20
    4  A    between atoms: C_15  and  C_26
    5  A    between atoms: N_16  and  C_20
    6  A    between atoms: N_16  and  C_22
    7  A    between atoms: N_16  and  C_27
                            x       y       z     vdW  Elec       q    Type
                         _______ _______ _______ _____ _____    ______ ____

>  <TORSDO>
F 7

$$$$
=
 OpenBabel10272413133D

 32 37  0  0  1  0  0  0  0  0999 V2000
  186.5920  178.5440  144.4480 C   0  0  0  0  0  0  0  0  0  0  0  0
  185.6870  178.5150  142.1610 C   0  0  0  0  0  0  0  0  0  0  0  0
  186.3580  178.6510  145.8270 C   0  0  0  0  0  3  0  0  0  0  0  0
  185.4940  178.5640  143.5590 C   0  0  0  0  0  0  0  0  0  0  0  0
  184.5740  178.6180  141.2940 C   0  0  0  0  0  0  0  0  0  0  0  0
  187.4780  178.7230  137.4500 N   0  0  0  0  0  2  0  0  0  0  0  0
  186.9720  178.3440  141.6070 C   0  0  0  0  0  0  0  0  0  0  0  0
  186.1220  178.3980  137.8950 C   0  0  0  0  0  2  0  0  0  0  0  0
  185.9980  178.4870  139.3910 C   0  0  0  0  0  0  0  0  0  0  0  0
  184.1800  178.6600  144.0750 C   0  0  0  0  0  0  0  0  0  0  0  0
  184.7650  178.6050  139.9460 N   0  0  0  0  0  0  0  0  0  0  0  0
  183.0880  178.7240  143.2080 C   0  0  0  0  0  3  0  0  0  0  0  0
  183.9700  178.7320  145.4550 C   0  0  0  0  0  3  0  0  0  0  0  0
  188.1380  178.0190  142.5040 C   0  0  0  0  0  2  0  0  0  0  0  0
  188.0030  178.6150  143.9140 C   0  0  2  0  0  3  0  0  0  0  0  0
  187.1290  178.3130  140.2120 C   0  0  0  0  0  0  0  0  0  0  0  0
  183.2760  178.7080  141.8240 C   0  0  0  0  0  0  0  0  0  0  0  0
  185.0580  178.7260  146.3290 C   0  0  0  0  0  3  0  0  0  0  0  0
  188.4040  177.8080  138.1100 C   0  0  0  0  0  2  0  0  0  0  0  0
  188.4970  178.1570  139.5930 C   0  0  0  0  0  2  0  0  0  0  0  0
  182.0820  178.8030  140.9300 C   0  0  0  0  0  2  0  0  0  0  0  0
  180.9750  179.2240  141.6660 O   0  0  0  0  0  1  0  0  0  0  0  0
  188.9860  178.0680  144.8650 N   0  0  0  0  0  0  0  0  0  0  0  0
  190.3010  177.9420  144.2110 C   0  0  1  0  0  3  0  0  0  0  0  0
  190.9970  179.2880  144.0960 C   0  0  0  0  0  1  0  0  0  0  0  0
  191.2160  176.8300  144.7660 C   0  0  0  0  0  2  0  0  0  0  0  0
  191.6070  175.7940  143.7220 C   0  0  0  0  0  1  0  0  0  0  0  0
  188.5120  176.8250  145.4870 C   0  0  0  0  0  2  0  0  0  0  0  0
  188.9770  176.7510  146.9310 C   0  0  0  0  0  2  0  0  0  0  0  0
  188.2390  178.0380  148.8820 C   0  0  0  0  0  2  0  0  0  0  0  0
  189.6390  178.0970  148.7730 O   0  0  0  0  0  0  0  0  0  0  0  0
  188.9120  178.1230  147.5690 C   0  0  1  0  0  3  0  0  0  0  0  0
  1  3  1  0  0  0  0
  2  4  1  0  0  0  0
  3 18  2  0  0  0  0
  4 10  1  0  0  0  0
  4  1  2  0  0  0  0
  5 17  1  0  0  0  0
  5  2  2  0  0  0  0
  6  8  1  0  0  0  0
  6 19  1  0  0  0  0
  7  2  1  0  0  0  0
  7 14  1  0  0  0  0
  8  9  1  0  0  0  0
  9 11  2  0  0  0  0
  9 16  1  0  0  0  0
 10 13  2  0  0  0  0
 11  5  1  0  0  0  0
 12 10  1  0  0  0  0
 13 18  1  0  0  0  0
 14 15  1  0  0  0  0
 15  1  1  0  0  0  0
 15 23  1  1  0  0  0
 16  7  2  0  0  0  0
 17 12  2  0  0  0  0
 19 20  1  0  0  0  0
 20 16  1  0  0  0  0
 21 22  1  0  0  0  0
 21 17  1  0  0  0  0
 23 28  1  0  0  0  0
 24 25  1  1  0  0  0
 24 26  1  0  0  0  0
 24 23  1  0  0  0  0
 27 26  1  0  0  0  0
 28 29  1  0  0  0  0
 31 30  1  0  0  0  0
 32 29  1  6  0  0  0
 32 31  1  0  0  0  0
 32 30  1  0  0  0  0
M  END
>  <MODEL>
7

>  <REMARK>
 VINA RESULT:      -7.9      2.200      3.487
  Name = 
  7 active torsions:
  status: ('A' for Active; 'I' for Inactive)
    1  A    between atoms: C_3  and  C_22
    2  A    between atoms: C_13  and  C_29
    3  A    between atoms: C_15  and  C_20
    4  A    between atoms: C_15  and  C_26
    5  A    between atoms: N_16  and  C_20
    6  A    between atoms: N_16  and  C_22
    7  A    between atoms: N_16  and  C_27
                            x       y       z     vdW  Elec       q    Type
                         _______ _______ _______ _____ _____    ______ ____

>  <TORSDO>
F 7

$$$$
=
 OpenBabel10272413133D

 32 37  0  0  1  0  0  0  0  0999 V2000
  183.5900  178.5450  142.0840 C   0  0  0  0  0  0  0  0  0  0  0  0
  185.6120  178.2490  143.4530 C   0  0  0  0  0  0  0  0  0  0  0  0
  182.2090  178.7910  142.0230 C   0  0  0  0  0  3  0  0  0  0  0  0
  184.2360  178.5470  143.3400 C   0  0  0  0  0  0  0  0  0  0  0  0
  186.2130  178.1790  144.7310 C   0  0  0  0  0  0  0  0  0  0  0  0
  190.3540  176.6660  142.7890 N   0  0  0  0  0  2  0  0  0  0  0  0
  186.4080  178.0390  142.3090 C   0  0  0  0  0  0  0  0  0  0  0  0
  189.7740  177.3400  143.9510 C   0  0  0  0  0  2  0  0  0  0  0  0
  188.3070  177.6070  143.7560 C   0  0  0  0  0  0  0  0  0  0  0  0
  183.4880  178.8260  144.5080 C   0  0  0  0  0  0  0  0  0  0  0  0
  187.5310  177.8590  144.8410 N   0  0  0  0  0  0  0  0  0  0  0  0
  184.1030  178.7900  145.7610 C   0  0  0  0  0  3  0  0  0  0  0  0
  182.1210  179.1010  144.4190 C   0  0  0  0  0  3  0  0  0  0  0  0
  185.8450  178.3160  140.9410 C   0  0  0  0  0  2  0  0  0  0  0  0
  184.3290  178.0820  140.8500 C   0  0  2  0  0  3  0  0  0  0  0  0
  187.7710  177.7310  142.4590 C   0  0  0  0  0  0  0  0  0  0  0  0
  185.4560  178.4650  145.8800 C   0  0  0  0  0  0  0  0  0  0  0  0
  181.4830  179.0850  143.1770 C   0  0  0  0  0  3  0  0  0  0  0  0
  190.1230  177.5030  141.6150 C   0  0  0  0  0  2  0  0  0  0  0  0
  188.6410  177.4760  141.2520 C   0  0  0  0  0  2  0  0  0  0  0  0
  186.0710  178.4130  147.2410 C   0  0  0  0  0  2  0  0  0  0  0  0
  185.9820  179.6670  147.8460 O   0  0  0  0  0  1  0  0  0  0  0  0
  183.7380  178.6210  139.6130 N   0  0  0  0  0  0  0  0  0  0  0  0
  182.9380  177.5790  138.9430 C   0  0  1  0  0  3  0  0  0  0  0  0
  182.9830  176.2660  139.7050 C   0  0  0  0  0  1  0  0  0  0  0  0
  181.5100  177.9970  138.5340 C   0  0  0  0  0  2  0  0  0  0  0  0
  180.4300  177.0900  139.1060 C   0  0  0  0  0  1  0  0  0  0  0  0
  184.7490  179.2400  138.7480 C   0  0  0  0  0  2  0  0  0  0  0  0
  185.1550  178.2790  137.6440 C   0  0  0  0  0  2  0  0  0  0  0  0
  187.1680  176.9320  137.2660 C   0  0  0  0  0  2  0  0  0  0  0  0
  186.9660  177.8020  136.1810 O   0  0  0  0  0  0  0  0  0  0  0  0
  186.6580  178.3060  137.4580 C   0  0  1  0  0  3  0  0  0  0  0  0
  1  4  1  0  0  0  0
  2  5  1  0  0  0  0
  3  1  2  0  0  0  0
  3 18  1  0  0  0  0
  4  2  2  0  0  0  0
  4 10  1  0  0  0  0
  5 11  1  0  0  0  0
  5 17  2  0  0  0  0
  6  8  1  0  0  0  0
  7 16  2  0  0  0  0
  7  2  1  0  0  0  0
  9  8  1  0  0  0  0
  9 11  2  0  0  0  0
 10 12  2  0  0  0  0
 12 17  1  0  0  0  0
 13 10  1  0  0  0  0
 14  7  1  0  0  0  0
 15 23  1  6  0  0  0
 15 14  1  0  0  0  0
 15  1  1  0  0  0  0
 16  9  1  0  0  0  0
 17 21  1  0  0  0  0
 18 13  2  0  0  0  0
 19  6  1  0  0  0  0
 20 19  1  0  0  0  0
 20 16  1  0  0  0  0
 21 22  1  0  0  0  0
 24 23  1  0  0  0  0
 24 25  1  1  0  0  0
 26 24  1  0  0  0  0
 26 27  1  0  0  0  0
 28 23  1  0  0  0  0
 29 28  1  0  0  0  0
 30 32  1  0  0  0  0
 31 30  1  0  0  0  0
 31 32  1  0  0  0  0
 32 29  1  6  0  0  0
M  END
>  <MODEL>
8

>  <REMARK>
 VINA RESULT:      -7.8      2.113      6.216
  Name = 
  7 active torsions:
  status: ('A' for Active; 'I' for Inactive)
    1  A    between atoms: C_3  and  C_22
    2  A    between atoms: C_13  and  C_29
    3  A    between atoms: C_15  and  C_20
    4  A    between atoms: C_15  and  C_26
    5  A    between atoms: N_16  and  C_20
    6  A    between atoms: N_16  and  C_22
    7  A    between atoms: N_16  and  C_27
                            x       y       z     vdW  Elec       q    Type
                         _______ _______ _______ _____ _____    ______ ____

>  <TORSDO>
F 7

$$$$
=
 OpenBabel10272413133D

 32 37  0  0  1  0  0  0  0  0999 V2000
  187.8190  178.2210  140.9480 C   0  0  0  0  0  0  0  0  0  0  0  0
  188.4390  177.5260  138.6710 C   0  0  0  0  0  0  0  0  0  0  0  0
  186.8650  178.7800  141.8120 C   0  0  0  0  0  3  0  0  0  0  0  0
  187.4920  178.0340  139.5870 C   0  0  0  0  0  0  0  0  0  0  0  0
  188.1080  177.4260  137.3000 C   0  0  0  0  0  0  0  0  0  0  0  0
  192.6100  176.0850  136.2290 N   0  0  0  0  0  2  0  0  0  0  0  0
  189.7100  177.0950  139.1020 C   0  0  0  0  0  0  0  0  0  0  0  0
  191.2210  176.0190  135.7740 C   0  0  0  0  0  2  0  0  0  0  0  0
  190.2800  176.5910  136.7980 C   0  0  0  0  0  0  0  0  0  0  0  0
  186.2000  178.3840  139.1250 C   0  0  0  0  0  0  0  0  0  0  0  0
  189.0340  176.9690  136.4130 N   0  0  0  0  0  0  0  0  0  0  0  0
  185.8750  178.2460  137.7750 C   0  0  0  0  0  3  0  0  0  0  0  0
  185.2560  178.9100  140.0120 C   0  0  0  0  0  3  0  0  0  0  0  0
  190.0090  176.9910  140.5740 C   0  0  0  0  0  2  0  0  0  0  0  0
  189.2390  178.0160  141.4220 C   0  0  2  0  0  3  0  0  0  0  0  0
  190.6340  176.6080  138.1620 C   0  0  0  0  0  0  0  0  0  0  0  0
  186.8190  177.7740  136.8610 C   0  0  0  0  0  0  0  0  0  0  0  0
  185.5880  179.1060  141.3540 C   0  0  0  0  0  3  0  0  0  0  0  0
  192.7100  175.3650  137.4950 C   0  0  0  0  0  2  0  0  0  0  0  0
  192.0100  176.1630  138.5920 C   0  0  0  0  0  2  0  0  0  0  0  0
  186.4390  177.6630  135.4200 C   0  0  0  0  0  2  0  0  0  0  0  0
  185.8180  176.4350  135.1900 O   0  0  0  0  0  1  0  0  0  0  0  0
  189.3070  177.7320  142.8660 N   0  0  0  0  0  0  0  0  0  0  0  0
  190.6970  177.8670  143.3400 C   0  0  1  0  0  3  0  0  0  0  0  0
  190.9040  179.1690  144.0940 C   0  0  0  0  0  1  0  0  0  0  0  0
  191.2710  176.6390  144.0760 C   0  0  0  0  0  2  0  0  0  0  0  0
  191.6070  176.9130  145.5340 C   0  0  0  0  0  1  0  0  0  0  0  0
  188.6890  176.4430  143.2010 C   0  0  0  0  0  2  0  0  0  0  0  0
  187.5220  176.6510  144.1490 C   0  0  0  0  0  2  0  0  0  0  0  0
  186.9110  177.7210  146.2690 C   0  0  0  0  0  2  0  0  0  0  0  0
  188.2250  177.2290  146.3450 O   0  0  0  0  0  0  0  0  0  0  0  0
  187.8290  177.7800  145.1120 C   0  0  1  0  0  3  0  0  0  0  0  0
  1 15  1  0  0  0  0
  1  3  1  0  0  0  0
  2  7  1  0  0  0  0
  2  4  1  0  0  0  0
  4  1  2  0  0  0  0
  5  2  2  0  0  0  0
  6 19  1  0  0  0  0
  7 14  1  0  0  0  0
  8  6  1  0  0  0  0
  8  9  1  0  0  0  0
  9 16  1  0  0  0  0
 10  4  1  0  0  0  0
 10 13  2  0  0  0  0
 11  9  2  0  0  0  0
 11  5  1  0  0  0  0
 12 10  1  0  0  0  0
 13 18  1  0  0  0  0
 14 15  1  0  0  0  0
 15 23  1  1  0  0  0
 16 20  1  0  0  0  0
 16  7  2  0  0  0  0
 17  5  1  0  0  0  0
 17 12  2  0  0  0  0
 18  3  2  0  0  0  0
 19 20  1  0  0  0  0
 21 17  1  0  0  0  0
 22 21  1  0  0  0  0
 23 28  1  0  0  0  0
 23 24  1  0  0  0  0
 24 26  1  0  0  0  0
 24 25  1  1  0  0  0
 26 27  1  0  0  0  0
 28 29  1  0  0  0  0
 30 31  1  0  0  0  0
 32 29  1  6  0  0  0
 32 30  1  0  0  0  0
 32 31  1  0  0  0  0
M  END
>  <MODEL>
9

>  <REMARK>
 VINA RESULT:      -7.8      2.904      6.116
  Name = 
  7 active torsions:
  status: ('A' for Active; 'I' for Inactive)
    1  A    between atoms: C_3  and  C_22
    2  A    between atoms: C_13  and  C_29
    3  A    between atoms: C_15  and  C_20
    4  A    between atoms: C_15  and  C_26
    5  A    between atoms: N_16  and  C_20
    6  A    between atoms: N_16  and  C_22
    7  A    between atoms: N_16  and  C_27
                            x       y       z     vdW  Elec       q    Type
                         _______ _______ _______ _____ _____    ______ ____

>  <TORSDO>
F 7

$$$$
