=
 OpenBabel10272401123D

 27 30  0  0  1  0  0  0  0  0999 V2000
  187.4250  178.1580  142.4390 N   0  0  0  0  0  2  0  0  0  0  0  0
  188.4600  177.5000  144.5780 C   0  0  0  0  0  0  0  0  0  0  0  0
  189.8460  176.3540  142.8670 C   0  0  0  0  0  2  0  0  0  0  0  0
  189.9500  177.1170  139.1860 C   0  0  0  0  0  3  0  0  0  0  0  0
  188.8470  177.9500  139.0130 C   0  0  0  0  0  0  0  0  0  0  0  0
  187.3900  177.9240  143.8600 C   0  0  0  0  0  0  0  0  0  0  0  0
  188.3270  177.7810  141.3850 C   0  0  0  0  0  0  0  0  0  0  0  0
  189.8270  177.3710  143.9980 C   0  0  1  0  0  3  0  0  0  0  0  0
  190.2480  176.6140  140.4530 C   0  0  0  0  0  3  0  0  0  0  0  0
  188.5530  178.4400  137.7850 F   0  0  0  0  0  0  0  0  0  0  0  0
  188.0410  178.2740  140.1050 C   0  0  0  0  0  3  0  0  0  0  0  0
  189.4500  176.9400  141.5560 C   0  0  0  0  0  0  0  0  0  0  0  0
  183.7010  178.5200  144.6110 C   0  0  0  0  0  2  0  0  0  0  0  0
  186.1670  178.2550  144.5290 N   0  0  0  0  0  0  0  0  0  0  0  0
  186.1690  178.2910  145.9960 C   0  0  0  0  0  2  0  0  0  0  0  0
  184.7510  178.3560  146.5600 C   0  0  0  0  0  2  0  0  0  0  0  0
  183.9680  179.2260  145.7910 O   0  0  0  0  0  0  0  0  0  0  0  0
  184.9510  178.4800  143.7330 C   0  0  0  0  0  2  0  0  0  0  0  0
  191.6610  178.9430  144.5870 C   0  0  0  0  0  2  0  0  0  0  0  0
  191.8810  178.4900  143.1590 C   0  0  0  0  0  2  0  0  0  0  0  0
  190.4730  178.7170  143.6710 C   0  0  0  0  0  3  0  0  0  0  0  0
  188.3540  177.1580  145.9340 O   0  0  0  0  0  0  0  0  0  0  0  0
  189.3050  177.5480  146.9210 C   0  0  1  0  0  3  0  0  0  0  0  0
  188.6410  177.9550  148.0790 O   0  0  0  0  0  1  0  0  0  0  0  0
  190.2130  176.3790  147.2480 C   0  0  0  0  0  2  0  0  0  0  0  0
  192.4210  175.6810  147.4910 C   0  0  0  0  0  1  0  0  0  0  0  0
  191.5670  176.8530  147.4720 N   0  0  0  0  0  2  0  0  0  0  0  0
  1  6  1  0  0  0  0
  2 22  1  0  0  0  0
  3  8  1  0  0  0  0
  4  9  1  0  0  0  0
  5  4  2  0  0  0  0
  5 11  1  0  0  0  0
  6 14  1  0  0  0  0
  6  2  2  0  0  0  0
  7 12  1  0  0  0  0
  7  1  1  0  0  0  0
  8 21  1  6  0  0  0
  8  2  1  0  0  0  0
  9 12  2  0  0  0  0
 10  5  1  0  0  0  0
 11  7  2  0  0  0  0
 12  3  1  0  0  0  0
 13 17  1  0  0  0  0
 14 15  1  0  0  0  0
 15 16  1  0  0  0  0
 17 16  1  0  0  0  0
 18 14  1  0  0  0  0
 18 13  1  0  0  0  0
 20 21  1  0  0  0  0
 20 19  1  0  0  0  0
 21 19  1  0  0  0  0
 22 23  1  0  0  0  0
 23 25  1  0  0  0  0
 23 24  1  1  0  0  0
 25 27  1  0  0  0  0
 27 26  1  0  0  0  0
M  END
>  <MODEL>
1

>  <REMARK>
 VINA RESULT:      -8.3      0.000      0.000
  Name = 
  6 active torsions:
  status: ('A' for Active; 'I' for Inactive)
    1  A    between atoms: C_2  and  O_6
    2  A    between atoms: C_5  and  O_6
    3  A    between atoms: C_5  and  C_17
    4  A    between atoms: N_9  and  C_15
    5  A    between atoms: C_14  and  C_19
    6  A    between atoms: N_16  and  C_17
                            x       y       z     vdW  Elec       q    Type
                         _______ _______ _______ _____ _____    ______ ____

>  <TORSDO>
F 6

$$$$
=
 OpenBabel10272401123D

 27 30  0  0  1  0  0  0  0  0999 V2000
  187.4140  178.1950  141.6870 N   0  0  0  0  0  2  0  0  0  0  0  0
  187.9370  177.5180  144.0000 C   0  0  0  0  0  0  0  0  0  0  0  0
  189.6670  176.3740  142.6370 C   0  0  0  0  0  2  0  0  0  0  0  0
  190.6030  177.1550  139.0800 C   0  0  0  0  0  3  0  0  0  0  0  0
  189.5710  177.9960  138.6680 C   0  0  0  0  0  0  0  0  0  0  0  0
  187.0580  177.9530  143.0620 C   0  0  0  0  0  0  0  0  0  0  0  0
  188.5280  177.8180  140.8610 C   0  0  0  0  0  0  0  0  0  0  0  0
  189.3990  177.3840  143.7420 C   0  0  1  0  0  3  0  0  0  0  0  0
  190.6040  176.6440  140.3780 C   0  0  0  0  0  3  0  0  0  0  0  0
  189.5630  178.4950  137.4090 F   0  0  0  0  0  0  0  0  0  0  0  0
  188.5410  178.3200  139.5530 C   0  0  0  0  0  3  0  0  0  0  0  0
  189.5800  176.9690  141.2740 C   0  0  0  0  0  0  0  0  0  0  0  0
  184.0550  179.4900  144.8360 C   0  0  0  0  0  2  0  0  0  0  0  0
  185.7170  178.2880  143.4400 N   0  0  0  0  0  0  0  0  0  0  0  0
  184.6420  178.0200  142.4780 C   0  0  0  0  0  2  0  0  0  0  0  0
  183.3360  178.6980  142.8910 C   0  0  0  0  0  2  0  0  0  0  0  0
  183.1510  178.5800  144.2740 O   0  0  0  0  0  0  0  0  0  0  0  0
  185.4780  178.9410  144.7350 C   0  0  0  0  0  2  0  0  0  0  0  0
  191.0400  178.9530  144.7530 C   0  0  0  0  0  2  0  0  0  0  0  0
  191.5980  178.4960  143.4210 C   0  0  0  0  0  2  0  0  0  0  0  0
  190.1080  178.7270  143.5780 C   0  0  0  0  0  3  0  0  0  0  0  0
  187.5260  177.1700  145.2950 O   0  0  0  0  0  0  0  0  0  0  0  0
  188.1310  177.6840  146.4780 C   0  0  1  0  0  3  0  0  0  0  0  0
  187.1430  178.0140  147.4050 O   0  0  0  0  0  1  0  0  0  0  0  0
  189.0530  176.6400  147.0770 C   0  0  0  0  0  2  0  0  0  0  0  0
  191.3530  176.5440  147.4330 C   0  0  0  0  0  1  0  0  0  0  0  0
  190.1540  177.2910  147.7650 N   0  0  0  0  0  2  0  0  0  0  0  0
  1  6  1  0  0  0  0
  2 22  1  0  0  0  0
  3  8  1  0  0  0  0
  4  9  1  0  0  0  0
  5  4  2  0  0  0  0
  5 11  1  0  0  0  0
  6 14  1  0  0  0  0
  6  2  2  0  0  0  0
  7 12  1  0  0  0  0
  7  1  1  0  0  0  0
  8 21  1  6  0  0  0
  8  2  1  0  0  0  0
  9 12  2  0  0  0  0
 10  5  1  0  0  0  0
 11  7  2  0  0  0  0
 12  3  1  0  0  0  0
 14 18  1  0  0  0  0
 15 16  1  0  0  0  0
 15 14  1  0  0  0  0
 16 17  1  0  0  0  0
 17 13  1  0  0  0  0
 18 13  1  0  0  0  0
 20 21  1  0  0  0  0
 20 19  1  0  0  0  0
 21 19  1  0  0  0  0
 22 23  1  0  0  0  0
 23 25  1  0  0  0  0
 23 24  1  1  0  0  0
 25 27  1  0  0  0  0
 26 27  1  0  0  0  0
M  END
>  <MODEL>
2

>  <REMARK>
 VINA RESULT:      -8.1      1.058      1.428
  Name = 
  6 active torsions:
  status: ('A' for Active; 'I' for Inactive)
    1  A    between atoms: C_2  and  O_6
    2  A    between atoms: C_5  and  O_6
    3  A    between atoms: C_5  and  C_17
    4  A    between atoms: N_9  and  C_15
    5  A    between atoms: C_14  and  C_19
    6  A    between atoms: N_16  and  C_17
                            x       y       z     vdW  Elec       q    Type
                         _______ _______ _______ _____ _____    ______ ____

>  <TORSDO>
F 6

$$$$
=
 OpenBabel10272401123D

 27 30  0  0  1  0  0  0  0  0999 V2000
  186.8900  177.8310  144.3330 N   0  0  0  0  0  2  0  0  0  0  0  0
  188.1740  178.1780  142.2570 C   0  0  0  0  0  0  0  0  0  0  0  0
  189.8210  178.6250  144.0590 C   0  0  0  0  0  2  0  0  0  0  0  0
  189.4970  177.6690  147.6820 C   0  0  0  0  0  3  0  0  0  0  0  0
  188.1580  177.2990  147.7840 C   0  0  0  0  0  0  0  0  0  0  0  0
  186.9970  178.1430  142.9300 C   0  0  0  0  0  0  0  0  0  0  0  0
  187.8260  177.7850  145.4220 C   0  0  0  0  0  0  0  0  0  0  0  0
  189.4680  177.7550  142.8620 C   0  0  1  0  0  3  0  0  0  0  0  0
  190.0070  178.0970  146.4550 C   0  0  0  0  0  3  0  0  0  0  0  0
  187.6570  176.8840  148.9720 F   0  0  0  0  0  0  0  0  0  0  0  0
  187.3310  177.3600  146.6620 C   0  0  0  0  0  3  0  0  0  0  0  0
  189.1870  178.1560  145.3230 C   0  0  0  0  0  0  0  0  0  0  0  0
  183.3130  178.7040  142.1300 C   0  0  0  0  0  2  0  0  0  0  0  0
  185.7640  178.3300  142.2250 N   0  0  0  0  0  0  0  0  0  0  0  0
  185.8290  178.7310  140.8150 C   0  0  0  0  0  2  0  0  0  0  0  0
  184.4640  179.1800  140.2930 C   0  0  0  0  0  2  0  0  0  0  0  0
  183.4620  178.3360  140.7870 O   0  0  0  0  0  0  0  0  0  0  0  0
  184.4920  178.1790  142.9480 C   0  0  0  0  0  2  0  0  0  0  0  0
  190.6710  175.6650  142.2610 C   0  0  0  0  0  2  0  0  0  0  0  0
  190.8950  175.9170  143.7370 C   0  0  0  0  0  2  0  0  0  0  0  0
  189.5570  176.2500  143.1070 C   0  0  0  0  0  3  0  0  0  0  0  0
  188.2530  178.6120  140.9250 O   0  0  0  0  0  0  0  0  0  0  0  0
  189.1350  178.0420  139.9630 C   0  0  1  0  0  3  0  0  0  0  0  0
  188.7150  176.7490  139.6490 O   0  0  0  0  0  1  0  0  0  0  0  0
  189.1360  178.8870  138.7050 C   0  0  0  0  0  2  0  0  0  0  0  0
  188.3440  178.4310  136.5630 C   0  0  0  0  0  1  0  0  0  0  0  0
  187.9290  178.6340  137.9380 N   0  0  0  0  0  2  0  0  0  0  0  0
  1  7  1  0  0  0  0
  2  8  1  0  0  0  0
  2  6  2  0  0  0  0
  3 12  1  0  0  0  0
  4  5  1  0  0  0  0
  5 10  1  0  0  0  0
  6  1  1  0  0  0  0
  7 11  1  0  0  0  0
  8 21  1  1  0  0  0
  8  3  1  0  0  0  0
  9  4  2  0  0  0  0
 11  5  2  0  0  0  0
 12  7  2  0  0  0  0
 12  9  1  0  0  0  0
 13 18  1  0  0  0  0
 14  6  1  0  0  0  0
 14 18  1  0  0  0  0
 15 14  1  0  0  0  0
 16 17  1  0  0  0  0
 16 15  1  0  0  0  0
 17 13  1  0  0  0  0
 19 21  1  0  0  0  0
 19 20  1  0  0  0  0
 21 20  1  0  0  0  0
 22  2  1  0  0  0  0
 23 24  1  6  0  0  0
 23 22  1  0  0  0  0
 25 23  1  0  0  0  0
 26 27  1  0  0  0  0
 27 25  1  0  0  0  0
M  END
>  <MODEL>
3

>  <REMARK>
 VINA RESULT:      -7.1      3.467      6.179
  Name = 
  6 active torsions:
  status: ('A' for Active; 'I' for Inactive)
    1  A    between atoms: C_2  and  O_6
    2  A    between atoms: C_5  and  O_6
    3  A    between atoms: C_5  and  C_17
    4  A    between atoms: N_9  and  C_15
    5  A    between atoms: C_14  and  C_19
    6  A    between atoms: N_16  and  C_17
                            x       y       z     vdW  Elec       q    Type
                         _______ _______ _______ _____ _____    ______ ____

>  <TORSDO>
F 6

$$$$
=
 OpenBabel10272401123D

 27 30  0  0  1  0  0  0  0  0999 V2000
  190.7750  175.9970  139.1890 N   0  0  0  0  0  2  0  0  0  0  0  0
  188.8770  177.5700  139.1440 C   0  0  0  0  0  0  0  0  0  0  0  0
  189.6950  177.5560  136.8010 C   0  0  0  0  0  2  0  0  0  0  0  0
  191.9770  175.0090  135.2360 C   0  0  0  0  0  3  0  0  0  0  0  0
  192.4500  174.3010  136.3390 C   0  0  0  0  0  0  0  0  0  0  0  0
  189.8700  176.9290  139.8110 C   0  0  0  0  0  0  0  0  0  0  0  0
  191.1300  175.7040  137.8270 C   0  0  0  0  0  0  0  0  0  0  0  0
  188.5240  177.2690  137.7280 C   0  0  1  0  0  3  0  0  0  0  0  0
  191.0820  176.0630  135.4210 C   0  0  0  0  0  3  0  0  0  0  0  0
  193.3200  173.2770  136.1660 F   0  0  0  0  0  0  0  0  0  0  0  0
  192.0300  174.6500  137.6230 C   0  0  0  0  0  3  0  0  0  0  0  0
  190.6500  176.4170  136.7050 C   0  0  0  0  0  0  0  0  0  0  0  0
  189.4460  176.5010  143.5740 C   0  0  0  0  0  2  0  0  0  0  0  0
  189.9990  177.0910  141.2290 N   0  0  0  0  0  0  0  0  0  0  0  0
  191.1770  177.8020  141.7380 C   0  0  0  0  0  2  0  0  0  0  0  0
  191.3290  177.6310  143.2490 C   0  0  0  0  0  2  0  0  0  0  0  0
  190.0760  177.7160  143.8690 O   0  0  0  0  0  0  0  0  0  0  0  0
  188.9920  176.4890  142.1150 C   0  0  0  0  0  2  0  0  0  0  0  0
  186.4280  176.0740  137.1290 C   0  0  0  0  0  2  0  0  0  0  0  0
  187.4760  175.7150  136.0960 C   0  0  0  0  0  2  0  0  0  0  0  0
  187.8750  175.8970  137.5470 C   0  0  0  0  0  3  0  0  0  0  0  0
  188.0990  178.5660  139.7530 O   0  0  0  0  0  0  0  0  0  0  0  0
  186.8140  178.3250  140.3190 C   0  0  1  0  0  3  0  0  0  0  0  0
  186.6760  179.0570  141.4990 O   0  0  0  0  0  1  0  0  0  0  0  0
  185.7360  178.7440  139.3400 C   0  0  0  0  0  2  0  0  0  0  0  0
  183.6220  179.6980  139.1280 C   0  0  0  0  0  1  0  0  0  0  0  0
  184.7740  179.6060  140.0040 N   0  0  0  0  0  2  0  0  0  0  0  0
  1  6  1  0  0  0  0
  2 22  1  0  0  0  0
  2  6  2  0  0  0  0
  3  8  1  0  0  0  0
  4  9  2  0  0  0  0
  4  5  1  0  0  0  0
  5 11  2  0  0  0  0
  6 14  1  0  0  0  0
  7  1  1  0  0  0  0
  8 21  1  1  0  0  0
  8  2  1  0  0  0  0
  9 12  1  0  0  0  0
 10  5  1  0  0  0  0
 11  7  1  0  0  0  0
 12  3  1  0  0  0  0
 12  7  2  0  0  0  0
 13 17  1  0  0  0  0
 14 15  1  0  0  0  0
 14 18  1  0  0  0  0
 15 16  1  0  0  0  0
 16 17  1  0  0  0  0
 18 13  1  0  0  0  0
 19 21  1  0  0  0  0
 20 19  1  0  0  0  0
 20 21  1  0  0  0  0
 22 23  1  0  0  0  0
 23 24  1  1  0  0  0
 25 27  1  0  0  0  0
 25 23  1  0  0  0  0
 26 27  1  0  0  0  0
M  END
>  <MODEL>
4

>  <REMARK>
 VINA RESULT:      -6.6      3.606      7.019
  Name = 
  6 active torsions:
  status: ('A' for Active; 'I' for Inactive)
    1  A    between atoms: C_2  and  O_6
    2  A    between atoms: C_5  and  O_6
    3  A    between atoms: C_5  and  C_17
    4  A    between atoms: N_9  and  C_15
    5  A    between atoms: C_14  and  C_19
    6  A    between atoms: N_16  and  C_17
                            x       y       z     vdW  Elec       q    Type
                         _______ _______ _______ _____ _____    ______ ____

>  <TORSDO>
F 6

$$$$
=
 OpenBabel10272401123D

 27 30  0  0  1  0  0  0  0  0999 V2000
  185.9190  178.7880  140.3090 N   0  0  0  0  0  2  0  0  0  0  0  0
  184.6070  178.0000  138.3770 C   0  0  0  0  0  0  0  0  0  0  0  0
  183.1140  177.5940  140.3170 C   0  0  0  0  0  2  0  0  0  0  0  0
  183.4580  179.0660  143.7610 C   0  0  0  0  0  3  0  0  0  0  0  0
  184.7380  179.6160  143.7330 C   0  0  0  0  0  0  0  0  0  0  0  0
  185.7960  178.2780  138.9670 C   0  0  0  0  0  0  0  0  0  0  0  0
  185.0320  178.8610  141.4370 C   0  0  0  0  0  0  0  0  0  0  0  0
  183.2940  178.3310  138.9990 C   0  0  1  0  0  3  0  0  0  0  0  0
  182.9590  178.4140  142.6320 C   0  0  0  0  0  3  0  0  0  0  0  0
  185.2280  180.2500  144.8250 F   0  0  0  0  0  0  0  0  0  0  0  0
  185.5170  179.5100  142.5800 C   0  0  0  0  0  3  0  0  0  0  0  0
  183.7310  178.3080  141.4690 C   0  0  0  0  0  0  0  0  0  0  0  0
  189.2200  177.1280  137.7530 C   0  0  0  0  0  2  0  0  0  0  0  0
  187.0120  178.1570  138.2190 N   0  0  0  0  0  0  0  0  0  0  0  0
  187.0540  178.7390  136.8730 C   0  0  0  0  0  2  0  0  0  0  0  0
  188.2860  178.2740  136.0970 C   0  0  0  0  0  2  0  0  0  0  0  0
  189.4040  178.2540  136.9400 O   0  0  0  0  0  0  0  0  0  0  0  0
  188.1380  177.4070  138.7940 C   0  0  0  0  0  2  0  0  0  0  0  0
  181.9360  180.1800  138.0420 C   0  0  0  0  0  2  0  0  0  0  0  0
  181.5860  180.0620  139.5110 C   0  0  0  0  0  2  0  0  0  0  0  0
  183.0120  179.8320  139.0520 C   0  0  0  0  0  3  0  0  0  0  0  0
  184.5310  177.3830  137.1190 O   0  0  0  0  0  0  0  0  0  0  0  0
  184.4010  175.9760  136.9390 C   0  0  1  0  0  3  0  0  0  0  0  0
  183.2020  175.6950  136.2820 O   0  0  0  0  0  1  0  0  0  0  0  0
  185.5600  175.4550  136.1120 C   0  0  0  0  0  2  0  0  0  0  0  0
  185.8660  173.5020  137.3430 C   0  0  0  0  0  1  0  0  0  0  0  0
  186.4990  174.7520  136.9670 N   0  0  0  0  0  2  0  0  0  0  0  0
  1  7  1  0  0  0  0
  2  6  2  0  0  0  0
  2  8  1  0  0  0  0
  3 12  1  0  0  0  0
  5  4  1  0  0  0  0
  5 10  1  0  0  0  0
  6  1  1  0  0  0  0
  7 12  2  0  0  0  0
  7 11  1  0  0  0  0
  8 21  1  1  0  0  0
  8  3  1  0  0  0  0
  9  4  2  0  0  0  0
 11  5  2  0  0  0  0
 12  9  1  0  0  0  0
 13 18  1  0  0  0  0
 14 18  1  0  0  0  0
 14  6  1  0  0  0  0
 15 14  1  0  0  0  0
 16 15  1  0  0  0  0
 16 17  1  0  0  0  0
 17 13  1  0  0  0  0
 19 21  1  0  0  0  0
 19 20  1  0  0  0  0
 21 20  1  0  0  0  0
 22  2  1  0  0  0  0
 23 24  1  6  0  0  0
 23 22  1  0  0  0  0
 25 23  1  0  0  0  0
 25 27  1  0  0  0  0
 27 26  1  0  0  0  0
M  END
>  <MODEL>
5

>  <REMARK>
 VINA RESULT:      -6.4      5.649      8.910
  Name = 
  6 active torsions:
  status: ('A' for Active; 'I' for Inactive)
    1  A    between atoms: C_2  and  O_6
    2  A    between atoms: C_5  and  O_6
    3  A    between atoms: C_5  and  C_17
    4  A    between atoms: N_9  and  C_15
    5  A    between atoms: C_14  and  C_19
    6  A    between atoms: N_16  and  C_17
                            x       y       z     vdW  Elec       q    Type
                         _______ _______ _______ _____ _____    ______ ____

>  <TORSDO>
F 6

$$$$
=
 OpenBabel10272401123D

 27 30  0  0  1  0  0  0  0  0999 V2000
  188.8000  177.7650  143.8680 N   0  0  0  0  0  2  0  0  0  0  0  0
  186.5880  177.8300  142.7810 C   0  0  0  0  0  0  0  0  0  0  0  0
  186.1010  177.0210  145.0760 C   0  0  0  0  0  2  0  0  0  0  0  0
  188.3770  177.2360  148.0620 C   0  0  0  0  0  3  0  0  0  0  0  0
  189.5990  177.5890  147.4920 C   0  0  0  0  0  0  0  0  0  0  0  0
  187.9400  177.7390  142.7130 C   0  0  0  0  0  0  0  0  0  0  0  0
  188.5870  177.5870  145.2780 C   0  0  0  0  0  0  0  0  0  0  0  0
  185.8560  178.1140  144.0480 C   0  0  1  0  0  3  0  0  0  0  0  0
  187.2580  177.0590  147.2470 C   0  0  0  0  0  3  0  0  0  0  0  0
  190.6890  177.7620  148.2780 F   0  0  0  0  0  0  0  0  0  0  0  0
  189.7000  177.7580  146.1110 C   0  0  0  0  0  3  0  0  0  0  0  0
  187.3490  177.2330  145.8620 C   0  0  0  0  0  0  0  0  0  0  0  0
  189.1680  178.6820  139.2300 C   0  0  0  0  0  2  0  0  0  0  0  0
  188.5910  177.7060  141.4370 N   0  0  0  0  0  0  0  0  0  0  0  0
  189.6930  176.7550  141.2480 C   0  0  0  0  0  2  0  0  0  0  0  0
  190.4720  177.0430  139.9660 C   0  0  0  0  0  2  0  0  0  0  0  0
  189.5880  177.3790  138.9330 O   0  0  0  0  0  0  0  0  0  0  0  0
  188.1800  178.6590  140.3950 C   0  0  0  0  0  2  0  0  0  0  0  0
  184.7570  180.3060  144.4590 C   0  0  0  0  0  2  0  0  0  0  0  0
  185.2170  179.7620  145.7950 C   0  0  0  0  0  2  0  0  0  0  0  0
  186.0620  179.5410  144.5570 C   0  0  0  0  0  3  0  0  0  0  0  0
  185.7770  177.6710  141.6480 O   0  0  0  0  0  0  0  0  0  0  0  0
  184.6800  178.5260  141.3380 C   0  0  1  0  0  3  0  0  0  0  0  0
  185.0890  179.5030  140.4300 O   0  0  0  0  0  1  0  0  0  0  0  0
  183.5540  177.7150  140.7280 C   0  0  0  0  0  2  0  0  0  0  0  0
  182.0150  178.7830  142.1110 C   0  0  0  0  0  1  0  0  0  0  0  0
  182.3300  178.4950  140.7250 N   0  0  0  0  0  2  0  0  0  0  0  0
  1  7  1  0  0  0  0
  2  8  1  0  0  0  0
  3 12  1  0  0  0  0
  5  4  1  0  0  0  0
  5 10  1  0  0  0  0
  6  2  2  0  0  0  0
  6  1  1  0  0  0  0
  7 12  2  0  0  0  0
  7 11  1  0  0  0  0
  8 21  1  1  0  0  0
  8  3  1  0  0  0  0
  9  4  2  0  0  0  0
 11  5  2  0  0  0  0
 12  9  1  0  0  0  0
 13 18  1  0  0  0  0
 14  6  1  0  0  0  0
 15 14  1  0  0  0  0
 16 15  1  0  0  0  0
 17 13  1  0  0  0  0
 17 16  1  0  0  0  0
 18 14  1  0  0  0  0
 19 21  1  0  0  0  0
 19 20  1  0  0  0  0
 21 20  1  0  0  0  0
 22  2  1  0  0  0  0
 23 24  1  6  0  0  0
 23 22  1  0  0  0  0
 25 23  1  0  0  0  0
 27 25  1  0  0  0  0
 27 26  1  0  0  0  0
M  END
>  <MODEL>
6

>  <REMARK>
 VINA RESULT:      -6.4      3.388      7.170
  Name = 
  6 active torsions:
  status: ('A' for Active; 'I' for Inactive)
    1  A    between atoms: C_2  and  O_6
    2  A    between atoms: C_5  and  O_6
    3  A    between atoms: C_5  and  C_17
    4  A    between atoms: N_9  and  C_15
    5  A    between atoms: C_14  and  C_19
    6  A    between atoms: N_16  and  C_17
                            x       y       z     vdW  Elec       q    Type
                         _______ _______ _______ _____ _____    ______ ____

>  <TORSDO>
F 6

$$$$
=
 OpenBabel10272401123D

 27 30  0  0  1  0  0  0  0  0999 V2000
  185.9610  178.7320  140.2850 N   0  0  0  0  0  2  0  0  0  0  0  0
  184.7400  177.9230  138.3010 C   0  0  0  0  0  0  0  0  0  0  0  0
  183.1740  177.5010  140.1800 C   0  0  0  0  0  2  0  0  0  0  0  0
  183.3570  178.9840  143.6310 C   0  0  0  0  0  3  0  0  0  0  0  0
  184.6290  179.5510  143.6550 C   0  0  0  0  0  0  0  0  0  0  0  0
  185.9000  178.2170  138.9400 C   0  0  0  0  0  0  0  0  0  0  0  0
  185.0280  178.7950  141.3750 C   0  0  0  0  0  0  0  0  0  0  0  0
  183.3980  178.2380  138.8690 C   0  0  1  0  0  3  0  0  0  0  0  0
  182.9140  178.3240  142.4840 C   0  0  0  0  0  3  0  0  0  0  0  0
  185.0660  180.1920  144.7650 F   0  0  0  0  0  0  0  0  0  0  0  0
  185.4570  179.4520  142.5360 C   0  0  0  0  0  3  0  0  0  0  0  0
  183.7340  178.2250  141.3550 C   0  0  0  0  0  0  0  0  0  0  0  0
  188.7680  178.8210  136.5040 C   0  0  0  0  0  2  0  0  0  0  0  0
  187.1470  178.1110  138.2430 N   0  0  0  0  0  0  0  0  0  0  0  0
  188.2400  177.3760  138.8910 C   0  0  0  0  0  2  0  0  0  0  0  0
  189.5720  177.6050  138.1780 C   0  0  0  0  0  2  0  0  0  0  0  0
  189.3820  177.5950  136.7910 O   0  0  0  0  0  0  0  0  0  0  0  0
  187.3070  178.7890  136.9480 C   0  0  0  0  0  2  0  0  0  0  0  0
  182.0240  180.0600  137.8840 C   0  0  0  0  0  2  0  0  0  0  0  0
  181.6630  179.9500  139.3510 C   0  0  0  0  0  2  0  0  0  0  0  0
  183.0960  179.7350  138.9070 C   0  0  0  0  0  3  0  0  0  0  0  0
  184.7240  177.3030  137.0430 O   0  0  0  0  0  0  0  0  0  0  0  0
  183.5650  176.6960  136.4790 C   0  0  1  0  0  3  0  0  0  0  0  0
  183.3210  177.2340  135.2160 O   0  0  0  0  0  1  0  0  0  0  0  0
  183.7780  175.2000  136.3550 C   0  0  0  0  0  2  0  0  0  0  0  0
  181.9410  174.9000  137.7550 C   0  0  0  0  0  1  0  0  0  0  0  0
  183.3330  174.5360  137.5670 N   0  0  0  0  0  2  0  0  0  0  0  0
  1  7  1  0  0  0  0
  2  8  1  0  0  0  0
  2  6  2  0  0  0  0
  3 12  1  0  0  0  0
  4  5  1  0  0  0  0
  5 10  1  0  0  0  0
  6  1  1  0  0  0  0
  7 11  1  0  0  0  0
  8 21  1  1  0  0  0
  8  3  1  0  0  0  0
  9  4  2  0  0  0  0
 11  5  2  0  0  0  0
 12  7  2  0  0  0  0
 12  9  1  0  0  0  0
 13 17  1  0  0  0  0
 13 18  1  0  0  0  0
 14 15  1  0  0  0  0
 14  6  1  0  0  0  0
 16 15  1  0  0  0  0
 17 16  1  0  0  0  0
 18 14  1  0  0  0  0
 19 21  1  0  0  0  0
 19 20  1  0  0  0  0
 21 20  1  0  0  0  0
 22  2  1  0  0  0  0
 23 24  1  6  0  0  0
 23 22  1  0  0  0  0
 25 23  1  0  0  0  0
 25 27  1  0  0  0  0
 27 26  1  0  0  0  0
M  END
>  <MODEL>
7

>  <REMARK>
 VINA RESULT:      -6.4      5.665      9.137
  Name = 
  6 active torsions:
  status: ('A' for Active; 'I' for Inactive)
    1  A    between atoms: C_2  and  O_6
    2  A    between atoms: C_5  and  O_6
    3  A    between atoms: C_5  and  C_17
    4  A    between atoms: N_9  and  C_15
    5  A    between atoms: C_14  and  C_19
    6  A    between atoms: N_16  and  C_17
                            x       y       z     vdW  Elec       q    Type
                         _______ _______ _______ _____ _____    ______ ____

>  <TORSDO>
F 6

$$$$
=
 OpenBabel10272401123D

 27 30  0  0  1  0  0  0  0  0999 V2000
  186.0420  178.0180  139.8450 N   0  0  0  0  0  2  0  0  0  0  0  0
  188.4110  178.1240  140.5170 C   0  0  0  0  0  0  0  0  0  0  0  0
  187.2240  179.3440  142.3230 C   0  0  0  0  0  2  0  0  0  0  0  0
  183.5340  179.2490  143.0450 C   0  0  0  0  0  3  0  0  0  0  0  0
  183.0150  178.6300  141.9100 C   0  0  0  0  0  0  0  0  0  0  0  0
  187.4550  177.9960  139.5640 C   0  0  0  0  0  0  0  0  0  0  0  0
  185.2510  178.4440  140.9670 C   0  0  0  0  0  0  0  0  0  0  0  0
  188.1050  178.1550  141.9760 C   0  0  1  0  0  3  0  0  0  0  0  0
  184.9090  179.4670  143.1480 C   0  0  0  0  0  3  0  0  0  0  0  0
  181.6810  178.4170  141.8030 F   0  0  0  0  0  0  0  0  0  0  0  0
  183.8680  178.2350  140.8790 C   0  0  0  0  0  3  0  0  0  0  0  0
  185.7730  179.0680  142.1230 C   0  0  0  0  0  0  0  0  0  0  0  0
  189.0860  178.2370  136.1280 C   0  0  0  0  0  2  0  0  0  0  0  0
  187.8290  177.7310  138.2070 N   0  0  0  0  0  0  0  0  0  0  0  0
  187.5840  176.3870  137.6720 C   0  0  0  0  0  2  0  0  0  0  0  0
  188.3000  176.1720  136.3400 C   0  0  0  0  0  2  0  0  0  0  0  0
  188.1970  177.3220  135.5490 O   0  0  0  0  0  0  0  0  0  0  0  0
  188.4970  178.7840  137.4270 C   0  0  0  0  0  2  0  0  0  0  0  0
  188.7280  176.1720  143.3400 C   0  0  0  0  0  2  0  0  0  0  0  0
  187.5750  176.8660  144.0340 C   0  0  0  0  0  2  0  0  0  0  0  0
  187.6240  176.8100  142.5200 C   0  0  0  0  0  3  0  0  0  0  0  0
  189.7720  178.2280  140.1920 O   0  0  0  0  0  0  0  0  0  0  0  0
  190.6900  177.1430  140.2900 C   0  0  1  0  0  3  0  0  0  0  0  0
  191.0560  176.7200  139.0120 O   0  0  0  0  0  1  0  0  0  0  0  0
  191.9280  177.5850  141.0450 C   0  0  0  0  0  2  0  0  0  0  0  0
  191.6160  178.2230  143.2630 C   0  0  0  0  0  1  0  0  0  0  0  0
  191.8810  177.0830  142.4070 N   0  0  0  0  0  2  0  0  0  0  0  0
  1  7  1  0  0  0  0
  2  8  1  0  0  0  0
  4  9  1  0  0  0  0
  5  4  2  0  0  0  0
  6  1  1  0  0  0  0
  6  2  2  0  0  0  0
  7 12  1  0  0  0  0
  8  3  1  0  0  0  0
  8 21  1  6  0  0  0
 10  5  1  0  0  0  0
 11  7  2  0  0  0  0
 11  5  1  0  0  0  0
 12  3  1  0  0  0  0
 12  9  2  0  0  0  0
 13 18  1  0  0  0  0
 14  6  1  0  0  0  0
 15 14  1  0  0  0  0
 16 15  1  0  0  0  0
 17 13  1  0  0  0  0
 17 16  1  0  0  0  0
 18 14  1  0  0  0  0
 19 20  1  0  0  0  0
 21 19  1  0  0  0  0
 21 20  1  0  0  0  0
 22 23  1  0  0  0  0
 22  2  1  0  0  0  0
 23 24  1  6  0  0  0
 23 25  1  0  0  0  0
 25 27  1  0  0  0  0
 27 26  1  0  0  0  0
M  END
>  <MODEL>
8

>  <REMARK>
 VINA RESULT:      -6.3      3.787      6.563
  Name = 
  6 active torsions:
  status: ('A' for Active; 'I' for Inactive)
    1  A    between atoms: C_2  and  O_6
    2  A    between atoms: C_5  and  O_6
    3  A    between atoms: C_5  and  C_17
    4  A    between atoms: N_9  and  C_15
    5  A    between atoms: C_14  and  C_19
    6  A    between atoms: N_16  and  C_17
                            x       y       z     vdW  Elec       q    Type
                         _______ _______ _______ _____ _____    ______ ____

>  <TORSDO>
F 6

$$$$
=
 OpenBabel10272401123D

 27 30  0  0  1  0  0  0  0  0999 V2000
  191.4690  176.3210  138.6040 N   0  0  0  0  0  2  0  0  0  0  0  0
  189.1160  176.2600  137.8720 C   0  0  0  0  0  0  0  0  0  0  0  0
  190.4020  176.1530  135.7530 C   0  0  0  0  0  2  0  0  0  0  0  0
  194.0520  175.3230  135.3820 C   0  0  0  0  0  3  0  0  0  0  0  0
  194.5180  175.3930  136.6930 C   0  0  0  0  0  0  0  0  0  0  0  0
  190.0660  176.5930  138.7820 C   0  0  0  0  0  0  0  0  0  0  0  0
  192.2860  175.9750  137.4730 C   0  0  0  0  0  0  0  0  0  0  0  0
  189.4050  175.4470  136.6570 C   0  0  1  0  0  3  0  0  0  0  0  0
  192.7070  175.5770  135.1100 C   0  0  0  0  0  3  0  0  0  0  0  0
  195.8220  175.1490  136.9640 F   0  0  0  0  0  0  0  0  0  0  0  0
  193.6400  175.7200  137.7280 C   0  0  0  0  0  3  0  0  0  0  0  0
  191.8180  175.8990  136.1420 C   0  0  0  0  0  0  0  0  0  0  0  0
  188.2290  178.5790  141.4660 C   0  0  0  0  0  2  0  0  0  0  0  0
  189.6830  177.1640  140.0390 N   0  0  0  0  0  0  0  0  0  0  0  0
  190.1920  176.5380  141.2650 C   0  0  0  0  0  2  0  0  0  0  0  0
  189.4670  177.0580  142.5050 C   0  0  0  0  0  2  0  0  0  0  0  0
  189.2650  178.4390  142.3980 O   0  0  0  0  0  0  0  0  0  0  0  0
  188.7530  178.3030  140.0580 C   0  0  0  0  0  2  0  0  0  0  0  0
  188.5450  173.1150  136.6240 C   0  0  0  0  0  2  0  0  0  0  0  0
  189.7340  173.1820  135.6890 C   0  0  0  0  0  2  0  0  0  0  0  0
  189.7340  173.9880  136.9720 C   0  0  0  0  0  3  0  0  0  0  0  0
  187.7780  176.6560  138.0200 O   0  0  0  0  0  0  0  0  0  0  0  0
  186.7820  176.4500  137.0230 C   0  0  1  0  0  3  0  0  0  0  0  0
  186.0190  175.3270  137.3460 O   0  0  0  0  0  1  0  0  0  0  0  0
  185.8780  177.6640  136.9430 C   0  0  0  0  0  2  0  0  0  0  0  0
  184.8570  178.5360  138.8460 C   0  0  0  0  0  1  0  0  0  0  0  0
  186.0980  178.5200  138.0950 N   0  0  0  0  0  2  0  0  0  0  0  0
  1  6  1  0  0  0  0
  2 22  1  0  0  0  0
  2  6  2  0  0  0  0
  3 12  1  0  0  0  0
  3  8  1  0  0  0  0
  4  5  1  0  0  0  0
  5 10  1  0  0  0  0
  5 11  2  0  0  0  0
  6 14  1  0  0  0  0
  7 11  1  0  0  0  0
  7  1  1  0  0  0  0
  8 21  1  1  0  0  0
  8  2  1  0  0  0  0
  9  4  2  0  0  0  0
  9 12  1  0  0  0  0
 12  7  2  0  0  0  0
 13 17  1  0  0  0  0
 14 18  1  0  0  0  0
 14 15  1  0  0  0  0
 15 16  1  0  0  0  0
 17 16  1  0  0  0  0
 18 13  1  0  0  0  0
 19 21  1  0  0  0  0
 20 19  1  0  0  0  0
 20 21  1  0  0  0  0
 23 24  1  1  0  0  0
 23 22  1  0  0  0  0
 25 23  1  0  0  0  0
 25 27  1  0  0  0  0
 27 26  1  0  0  0  0
M  END
>  <MODEL>
9

>  <REMARK>
 VINA RESULT:      -6.1      4.538      7.888
  Name = 
  6 active torsions:
  status: ('A' for Active; 'I' for Inactive)
    1  A    between atoms: C_2  and  O_6
    2  A    between atoms: C_5  and  O_6
    3  A    between atoms: C_5  and  C_17
    4  A    between atoms: N_9  and  C_15
    5  A    between atoms: C_14  and  C_19
    6  A    between atoms: N_16  and  C_17
                            x       y       z     vdW  Elec       q    Type
                         _______ _______ _______ _____ _____    ______ ____

>  <TORSDO>
F 6

$$$$
