=
 OpenBabel10262423513D

 34 39  0  0  1  0  0  0  0  0999 V2000
  182.2220  178.5900  140.9990 C   0  0  0  0  0  0  0  0  0  0  0  0
  183.2390  180.0060  139.2330 C   0  0  0  0  0  0  0  0  0  0  0  0
  184.7540  178.6340  140.8050 C   0  0  0  0  0  0  0  0  0  0  0  0
  187.1230  178.2680  140.8000 N   0  0  0  0  0  0  0  0  0  0  0  0
  180.8040  179.6960  139.3850 C   0  0  0  0  0  3  0  0  0  0  0  0
  182.0080  180.3760  138.8540 C   0  0  0  0  0  3  0  0  0  0  0  0
  186.0640  178.3840  138.6580 C   0  0  0  0  0  2  0  0  0  0  0  0
  183.4210  178.7680  140.0940 C   0  0  1  0  0  3  0  0  0  0  0  0
  188.2090  178.0700  139.8700 C   0  0  0  0  0  2  0  0  0  0  0  0
  180.8960  178.8570  140.4240 C   0  0  0  0  0  3  0  0  0  0  0  0
  184.8000  178.4700  142.2890 C   0  0  0  0  0  0  0  0  0  0  0  0
  182.3410  178.3660  142.3080 C   0  0  0  0  0  3  0  0  0  0  0  0
  184.3320  180.7310  138.7740 O   0  0  0  0  0  1  0  0  0  0  0  0
  187.2300  178.2440  142.2250 C   0  0  0  0  0  3  0  0  0  0  0  0
  186.1280  178.3550  142.9820 C   0  0  0  0  0  0  0  0  0  0  0  0
  187.5720  178.1660  138.4720 C   0  0  1  0  0  3  0  0  0  0  0  0
  185.9000  178.4680  140.1270 C   0  0  0  0  0  0  0  0  0  0  0  0
  183.6570  178.3000  142.9620 C   0  0  0  0  0  3  0  0  0  0  0  0
  187.3990  177.5880  146.4840 C   0  0  0  0  0  0  0  0  0  0  0  0
  186.5110  178.3280  147.2680 C   0  0  0  0  0  3  0  0  0  0  0  0
  186.2750  178.3560  144.4640 C   0  0  0  0  0  0  0  0  0  0  0  0
  185.5020  179.0770  146.6610 C   0  0  0  0  0  3  0  0  0  0  0  0
  187.2790  177.6000  145.0920 C   0  0  0  0  0  3  0  0  0  0  0  0
  185.3830  179.0890  145.2680 C   0  0  0  0  0  3  0  0  0  0  0  0
  188.3760  176.8580  147.0720 F   0  0  0  0  0  0  0  0  0  0  0  0
  189.0350  176.4910  137.4340 C   0  0  0  0  0  3  0  0  0  0  0  0
  187.8010  176.9070  137.7070 C   0  0  0  0  0  3  0  0  0  0  0  0
  191.1900  174.7720  138.1490 O   0  0  0  0  0  1  0  0  0  0  0  0
  189.3130  175.2540  136.6840 C   0  0  0  0  0  0  0  0  0  0  0  0
  190.3850  174.4300  137.0670 C   0  0  0  0  0  0  0  0  0  0  0  0
  189.8590  172.8910  135.2700 C   0  0  0  0  0  3  0  0  0  0  0  0
  188.7910  173.7030  134.8830 C   0  0  0  0  0  3  0  0  0  0  0  0
  188.5180  174.8800  135.5870 C   0  0  0  0  0  3  0  0  0  0  0  0
  190.6540  173.2540  136.3600 C   0  0  0  0  0  3  0  0  0  0  0  0
  1 12  2  0  0  0  0
  3 11  1  0  0  0  0
  4 14  1  0  0  0  0
  5 10  2  0  0  0  0
  6  2  2  0  0  0  0
  6  5  1  0  0  0  0
  7 17  1  0  0  0  0
  8  2  1  1  0  0  0
  8  3  1  0  0  0  0
  8  1  1  0  0  0  0
  9  4  1  0  0  0  0
 10  1  1  0  0  0  0
 11 18  2  0  0  0  0
 11 15  1  0  0  0  0
 12 18  1  0  0  0  0
 13  2  1  0  0  0  0
 14 15  2  0  0  0  0
 15 21  1  0  0  0  0
 16 27  1  6  0  0  0
 16  7  1  0  0  0  0
 16  9  1  0  0  0  0
 17  4  1  0  0  0  0
 17  3  2  0  0  0  0
 19 25  1  0  0  0  0
 19 20  1  0  0  0  0
 21 23  1  0  0  0  0
 21 24  2  0  0  0  0
 22 20  2  0  0  0  0
 23 19  2  0  0  0  0
 24 22  1  0  0  0  0
 26 27  2  0  0  0  0
 29 30  1  0  0  0  0
 29 26  1  0  0  0  0
 30 28  1  0  0  0  0
 31 34  1  0  0  0  0
 32 31  2  0  0  0  0
 32 33  1  0  0  0  0
 33 29  2  0  0  0  0
 34 30  2  0  0  0  0
M  END
>  <MODEL>
1

>  <REMARK>
 VINA RESULT:      -9.7      0.000      0.000
  Name = 
  3 active torsions:
  status: ('A' for Active; 'I' for Inactive)
    1  A    between atoms: C_3  and  C_13
    2  A    between atoms: C_12  and  C_28
    3  A    between atoms: C_17  and  C_29
                            x       y       z     vdW  Elec       q    Type
                         _______ _______ _______ _____ _____    ______ ____

>  <TORSDO>
F 3

$$$$
=
 OpenBabel10262423513D

 34 39  0  0  1  0  0  0  0  0999 V2000
  191.2010  173.7940  136.7040 C   0  0  0  0  0  0  0  0  0  0  0  0
  192.7620  175.5840  137.4280 C   0  0  0  0  0  0  0  0  0  0  0  0
  190.2470  175.7860  137.9590 C   0  0  0  0  0  0  0  0  0  0  0  0
  189.0290  177.3810  139.2690 N   0  0  0  0  0  0  0  0  0  0  0  0
  193.5810  173.5000  136.4090 C   0  0  0  0  0  3  0  0  0  0  0  0
  193.7710  174.8910  136.8800 C   0  0  0  0  0  3  0  0  0  0  0  0
  191.1920  176.7690  140.0870 C   0  0  0  0  0  2  0  0  0  0  0  0
  191.4450  174.8860  137.7220 C   0  0  0  0  0  0  0  0  0  0  0  0
  189.1660  178.1490  140.4840 C   0  0  0  0  0  2  0  0  0  0  0  0
  192.3540  172.9770  136.3030 C   0  0  0  0  0  2  0  0  0  0  0  0
  189.0140  175.6280  137.1290 C   0  0  0  0  0  0  0  0  0  0  0  0
  190.0430  173.6640  136.0580 C   0  0  0  0  0  3  0  0  0  0  0  0
  192.9660  176.9140  137.7730 O   0  0  0  0  0  1  0  0  0  0  0  0
  187.8800  177.3620  138.4200 C   0  0  0  0  0  3  0  0  0  0  0  0
  187.8410  176.5360  137.3630 C   0  0  0  0  0  0  0  0  0  0  0  0
  190.5630  177.8040  141.0300 C   0  0  1  0  0  3  0  0  0  0  0  0
  190.1790  176.6060  139.0180 C   0  0  0  0  0  0  0  0  0  0  0  0
  188.9270  174.5980  136.2800 C   0  0  0  0  0  3  0  0  0  0  0  0
  184.3680  175.8520  135.9710 C   0  0  0  0  0  0  0  0  0  0  0  0
  184.4020  176.5750  134.7760 C   0  0  0  0  0  3  0  0  0  0  0  0
  186.6420  176.5610  136.4790 C   0  0  0  0  0  0  0  0  0  0  0  0
  185.5500  177.2860  134.4240 C   0  0  0  0  0  3  0  0  0  0  0  0
  185.4820  175.8430  136.8140 C   0  0  0  0  0  3  0  0  0  0  0  0
  186.6640  177.2760  135.2690 C   0  0  0  0  0  3  0  0  0  0  0  0
  183.2560  175.1580  136.3120 F   0  0  0  0  0  0  0  0  0  0  0  0
  190.5790  178.0040  143.4760 C   0  0  0  0  0  3  0  0  0  0  0  0
  190.4590  177.2290  142.4010 C   0  0  0  0  0  3  0  0  0  0  0  0
  188.1170  178.0380  144.9070 O   0  0  0  0  0  1  0  0  0  0  0  0
  190.4820  177.4840  144.8500 C   0  0  0  0  0  0  0  0  0  0  0  0
  189.2490  177.5170  145.5250 C   0  0  0  0  0  0  0  0  0  0  0  0
  190.2730  176.4960  147.4690 C   0  0  0  0  0  3  0  0  0  0  0  0
  191.5020  176.4580  146.8070 C   0  0  0  0  0  3  0  0  0  0  0  0
  191.6060  176.9500  145.5030 C   0  0  0  0  0  3  0  0  0  0  0  0
  189.1490  177.0240  146.8300 C   0  0  0  0  0  3  0  0  0  0  0  0
  1  8  1  0  0  0  0
  2  8  2  0  0  0  0
  2 13  1  0  0  0  0
  3 17  2  0  0  0  0
  4  9  1  0  0  0  0
  5  6  2  0  0  0  0
  6  2  1  0  0  0  0
  7 16  1  0  0  0  0
  8  3  1  0  0  0  0
  9 16  1  0  0  0  0
 10  5  1  0  0  0  0
 10  1  1  0  0  0  0
 11 15  1  0  0  0  0
 11  3  1  0  0  0  0
 12 18  1  0  0  0  0
 12  1  2  0  0  0  0
 14  4  1  0  0  0  0
 15 14  2  0  0  0  0
 16 27  1  1  0  0  0
 17  4  1  0  0  0  0
 17  7  1  0  0  0  0
 18 11  2  0  0  0  0
 19 25  1  0  0  0  0
 19 23  1  0  0  0  0
 20 19  2  0  0  0  0
 21 23  2  0  0  0  0
 21 15  1  0  0  0  0
 22 20  1  0  0  0  0
 22 24  2  0  0  0  0
 24 21  1  0  0  0  0
 26 29  1  0  0  0  0
 27 26  2  0  0  0  0
 28 30  1  0  0  0  0
 29 33  2  0  0  0  0
 29 30  1  0  0  0  0
 30 34  2  0  0  0  0
 32 31  2  0  0  0  0
 33 32  1  0  0  0  0
 34 31  1  0  0  0  0
M  END
>  <MODEL>
2

>  <REMARK>
 VINA RESULT:      -8.9      4.373      9.538
  Name = 
  3 active torsions:
  status: ('A' for Active; 'I' for Inactive)
    1  A    between atoms: C_3  and  C_13
    2  A    between atoms: C_12  and  C_28
    3  A    between atoms: C_17  and  C_29
                            x       y       z     vdW  Elec       q    Type
                         _______ _______ _______ _____ _____    ______ ____

>  <TORSDO>
F 3

$$$$
=
 OpenBabel10262423513D

 34 39  0  0  1  0  0  0  0  0999 V2000
  187.1260  176.4060  136.4410 C   0  0  0  0  0  0  0  0  0  0  0  0
  188.7320  178.2160  136.9920 C   0  0  0  0  0  0  0  0  0  0  0  0
  186.6840  177.8160  138.5070 C   0  0  0  0  0  0  0  0  0  0  0  0
  186.0540  178.7860  140.6060 N   0  0  0  0  0  0  0  0  0  0  0  0
  189.1600  176.6350  135.1570 C   0  0  0  0  0  3  0  0  0  0  0  0
  189.4480  177.8770  135.9100 C   0  0  0  0  0  3  0  0  0  0  0  0
  188.3920  178.3980  140.2770 C   0  0  0  0  0  2  0  0  0  0  0  0
  187.7170  177.2380  137.5570 C   0  0  0  0  0  0  0  0  0  0  0  0
  186.6540  179.2420  141.8380 C   0  0  0  0  0  2  0  0  0  0  0  0
  188.0410  175.9390  135.3910 C   0  0  0  0  0  2  0  0  0  0  0  0
  185.2270  177.6450  138.2260 C   0  0  0  0  0  0  0  0  0  0  0  0
  185.8120  176.2300  136.2980 C   0  0  0  0  0  3  0  0  0  0  0  0
  188.9840  179.4330  137.6130 O   0  0  0  0  0  1  0  0  0  0  0  0
  184.6550  178.7680  140.3160 C   0  0  0  0  0  3  0  0  0  0  0  0
  184.2150  178.2360  139.1650 C   0  0  0  0  0  0  0  0  0  0  0  0
  188.1680  179.0350  141.6560 C   0  0  1  0  0  3  0  0  0  0  0  0
  187.0300  178.3220  139.7000 C   0  0  0  0  0  0  0  0  0  0  0  0
  184.8470  176.8580  137.2130 C   0  0  0  0  0  3  0  0  0  0  0  0
  180.8110  179.3070  137.8510 C   0  0  0  0  0  0  0  0  0  0  0  0
  179.9840  178.3170  138.3880 C   0  0  0  0  0  3  0  0  0  0  0  0
  182.7540  178.2580  138.8790 C   0  0  0  0  0  0  0  0  0  0  0  0
  180.5310  177.3020  139.1730 C   0  0  0  0  0  3  0  0  0  0  0  0
  182.1860  179.2790  138.0980 C   0  0  0  0  0  3  0  0  0  0  0  0
  181.9070  177.2740  139.4200 C   0  0  0  0  0  3  0  0  0  0  0  0
  180.2800  180.2950  137.0920 F   0  0  0  0  0  0  0  0  0  0  0  0
  189.4660  178.6030  143.6930 C   0  0  0  0  0  3  0  0  0  0  0  0
  188.7010  178.1300  142.7140 C   0  0  0  0  0  3  0  0  0  0  0  0
  191.8960  177.1590  143.3420 O   0  0  0  0  0  1  0  0  0  0  0  0
  190.0150  177.7500  144.7620 C   0  0  0  0  0  0  0  0  0  0  0  0
  191.2170  177.0520  144.5510 C   0  0  0  0  0  0  0  0  0  0  0  0
  191.0790  176.1190  146.7840 C   0  0  0  0  0  3  0  0  0  0  0  0
  189.8840  176.8090  147.0010 C   0  0  0  0  0  3  0  0  0  0  0  0
  189.3540  177.6210  145.9950 C   0  0  0  0  0  3  0  0  0  0  0  0
  191.7430  176.2410  145.5610 C   0  0  0  0  0  3  0  0  0  0  0  0
  1  8  1  0  0  0  0
  2  8  2  0  0  0  0
  2 13  1  0  0  0  0
  3 17  2  0  0  0  0
  4  9  1  0  0  0  0
  5 10  1  0  0  0  0
  5  6  2  0  0  0  0
  6  2  1  0  0  0  0
  7 16  1  0  0  0  0
  8  3  1  0  0  0  0
 10  1  1  0  0  0  0
 11  3  1  0  0  0  0
 11 15  1  0  0  0  0
 12  1  2  0  0  0  0
 12 18  1  0  0  0  0
 14  4  1  0  0  0  0
 15 14  2  0  0  0  0
 16  9  1  0  0  0  0
 16 27  1  1  0  0  0
 17  7  1  0  0  0  0
 17  4  1  0  0  0  0
 18 11  2  0  0  0  0
 19 23  2  0  0  0  0
 19 20  1  0  0  0  0
 20 22  2  0  0  0  0
 21 15  1  0  0  0  0
 21 24  2  0  0  0  0
 22 24  1  0  0  0  0
 23 21  1  0  0  0  0
 25 19  1  0  0  0  0
 26 29  1  0  0  0  0
 27 26  2  0  0  0  0
 28 30  1  0  0  0  0
 29 33  1  0  0  0  0
 30 29  2  0  0  0  0
 30 34  1  0  0  0  0
 31 32  1  0  0  0  0
 33 32  2  0  0  0  0
 34 31  2  0  0  0  0
M  END
>  <MODEL>
3

>  <REMARK>
 VINA RESULT:      -8.5      3.367      7.659
  Name = 
  3 active torsions:
  status: ('A' for Active; 'I' for Inactive)
    1  A    between atoms: C_3  and  C_13
    2  A    between atoms: C_12  and  C_28
    3  A    between atoms: C_17  and  C_29
                            x       y       z     vdW  Elec       q    Type
                         _______ _______ _______ _____ _____    ______ ____

>  <TORSDO>
F 3

$$$$
=
 OpenBabel10262423513D

 34 39  0  0  1  0  0  0  0  0999 V2000
  188.3380  175.1900  136.8020 C   0  0  0  0  0  0  0  0  0  0  0  0
  187.9840  177.5890  136.2730 C   0  0  0  0  0  0  0  0  0  0  0  0
  186.0440  176.1920  137.2370 C   0  0  0  0  0  0  0  0  0  0  0  0
  183.8460  176.8180  137.9580 N   0  0  0  0  0  0  0  0  0  0  0  0
  190.2100  176.5550  136.1140 C   0  0  0  0  0  3  0  0  0  0  0  0
  189.2590  177.6620  135.8650 C   0  0  0  0  0  3  0  0  0  0  0  0
  185.5990  178.3770  138.4250 C   0  0  0  0  0  2  0  0  0  0  0  0
  187.5400  176.4290  137.1450 C   0  0  0  0  0  0  0  0  0  0  0  0
  183.1720  177.8980  138.6400 C   0  0  0  0  0  2  0  0  0  0  0  0
  189.7730  175.3640  136.5420 C   0  0  0  0  0  2  0  0  0  0  0  0
  185.4730  174.8580  136.8790 C   0  0  0  0  0  0  0  0  0  0  0  0
  187.7630  174.0100  136.5720 C   0  0  0  0  0  3  0  0  0  0  0  0
  187.1090  178.6160  135.9380 O   0  0  0  0  0  1  0  0  0  0  0  0
  183.2350  175.6100  137.5010 C   0  0  0  0  0  3  0  0  0  0  0  0
  183.9880  174.6410  136.9580 C   0  0  0  0  0  0  0  0  0  0  0  0
  184.2650  178.9410  138.9350 C   0  0  1  0  0  3  0  0  0  0  0  0
  185.2230  177.0840  137.8100 C   0  0  0  0  0  0  0  0  0  0  0  0
  186.3020  173.8420  136.6180 C   0  0  0  0  0  3  0  0  0  0  0  0
  183.0620  170.9840  136.4780 C   0  0  0  0  0  0  0  0  0  0  0  0
  182.0810  171.0750  135.4880 C   0  0  0  0  0  3  0  0  0  0  0  0
  183.3190  173.4060  136.4650 C   0  0  0  0  0  0  0  0  0  0  0  0
  181.7190  172.3230  134.9780 C   0  0  0  0  0  3  0  0  0  0  0  0
  183.6790  172.1410  136.9600 C   0  0  0  0  0  3  0  0  0  0  0  0
  182.3360  173.4810  135.4620 C   0  0  0  0  0  3  0  0  0  0  0  0
  183.4170  169.7730  136.9700 F   0  0  0  0  0  0  0  0  0  0  0  0
  184.4020  178.1860  141.2660 C   0  0  0  0  0  3  0  0  0  0  0  0
  184.3600  179.1950  140.4000 C   0  0  0  0  0  3  0  0  0  0  0  0
  186.8290  177.7020  142.6750 O   0  0  0  0  0  1  0  0  0  0  0  0
  184.4980  178.3860  142.7220 C   0  0  0  0  0  0  0  0  0  0  0  0
  185.7140  178.1370  143.3830 C   0  0  0  0  0  0  0  0  0  0  0  0
  184.7050  178.7630  145.4960 C   0  0  0  0  0  3  0  0  0  0  0  0
  183.4940  179.0130  144.8470 C   0  0  0  0  0  3  0  0  0  0  0  0
  183.3900  178.8260  143.4660 C   0  0  0  0  0  3  0  0  0  0  0  0
  185.8120  178.3260  144.7650 C   0  0  0  0  0  3  0  0  0  0  0  0
  1  8  1  0  0  0  0
  2  8  2  0  0  0  0
  3 17  2  0  0  0  0
  4  9  1  0  0  0  0
  5 10  1  0  0  0  0
  6  5  2  0  0  0  0
  6  2  1  0  0  0  0
  7 16  1  0  0  0  0
  8  3  1  0  0  0  0
  9 16  1  0  0  0  0
 10  1  1  0  0  0  0
 11 15  1  0  0  0  0
 11  3  1  0  0  0  0
 12 18  1  0  0  0  0
 12  1  2  0  0  0  0
 13  2  1  0  0  0  0
 14  4  1  0  0  0  0
 15 14  2  0  0  0  0
 16 27  1  1  0  0  0
 17  4  1  0  0  0  0
 17  7  1  0  0  0  0
 18 11  2  0  0  0  0
 19 23  1  0  0  0  0
 19 25  1  0  0  0  0
 20 19  2  0  0  0  0
 21 15  1  0  0  0  0
 21 23  2  0  0  0  0
 22 24  2  0  0  0  0
 22 20  1  0  0  0  0
 24 21  1  0  0  0  0
 26 29  1  0  0  0  0
 27 26  2  0  0  0  0
 28 30  1  0  0  0  0
 29 30  2  0  0  0  0
 29 33  1  0  0  0  0
 30 34  1  0  0  0  0
 32 31  1  0  0  0  0
 33 32  2  0  0  0  0
 34 31  2  0  0  0  0
M  END
>  <MODEL>
4

>  <REMARK>
 VINA RESULT:      -8.5      4.150      8.926
  Name = 
  3 active torsions:
  status: ('A' for Active; 'I' for Inactive)
    1  A    between atoms: C_3  and  C_13
    2  A    between atoms: C_12  and  C_28
    3  A    between atoms: C_17  and  C_29
                            x       y       z     vdW  Elec       q    Type
                         _______ _______ _______ _____ _____    ______ ____

>  <TORSDO>
F 3

$$$$
=
 OpenBabel10262423513D

 34 39  0  0  1  0  0  0  0  0999 V2000
  186.2660  177.4560  143.4200 C   0  0  0  0  0  0  0  0  0  0  0  0
  186.8680  179.0940  141.6540 C   0  0  0  0  0  0  0  0  0  0  0  0
  188.6590  177.4780  142.5650 C   0  0  0  0  0  0  0  0  0  0  0  0
  190.9190  177.0710  141.8810 N   0  0  0  0  0  0  0  0  0  0  0  0
  184.5430  178.8120  142.4060 C   0  0  0  0  0  3  0  0  0  0  0  0
  185.6030  179.5380  141.6700 C   0  0  0  0  0  3  0  0  0  0  0  0
  189.3470  177.5180  140.1330 C   0  0  0  0  0  2  0  0  0  0  0  0
  187.1960  177.7410  142.2600 C   0  0  1  0  0  3  0  0  0  0  0  0
  191.7120  176.9890  140.6770 C   0  0  0  0  0  2  0  0  0  0  0  0
  184.8540  177.8300  143.2590 C   0  0  0  0  0  3  0  0  0  0  0  0
  189.0810  177.1000  143.9470 C   0  0  0  0  0  0  0  0  0  0  0  0
  186.7090  177.0420  144.6070 C   0  0  0  0  0  3  0  0  0  0  0  0
  187.8420  179.8570  141.0230 O   0  0  0  0  0  1  0  0  0  0  0  0
  191.3920  176.8380  143.2080 C   0  0  0  0  0  3  0  0  0  0  0  0
  190.5340  176.8590  144.2400 C   0  0  0  0  0  0  0  0  0  0  0  0
  190.7390  177.3000  139.5250 C   0  0  1  0  0  3  0  0  0  0  0  0
  189.5770  177.3910  141.5910 C   0  0  0  0  0  0  0  0  0  0  0  0
  188.1440  176.8560  144.8710 C   0  0  0  0  0  3  0  0  0  0  0  0
  191.2020  177.2880  147.9590 C   0  0  0  0  0  0  0  0  0  0  0  0
  192.1080  176.2530  148.1980 C   0  0  0  0  0  3  0  0  0  0  0  0
  191.0630  176.6420  145.6150 C   0  0  0  0  0  0  0  0  0  0  0  0
  192.5000  175.4130  147.1540 C   0  0  0  0  0  3  0  0  0  0  0  0
  190.6870  177.4830  146.6750 C   0  0  0  0  0  3  0  0  0  0  0  0
  191.9820  175.6090  145.8700 C   0  0  0  0  0  3  0  0  0  0  0  0
  190.8250  178.1060  148.9710 F   0  0  0  0  0  0  0  0  0  0  0  0
  191.8070  175.5940  138.1200 C   0  0  0  0  0  3  0  0  0  0  0  0
  190.6880  176.1620  138.5640 C   0  0  0  0  0  3  0  0  0  0  0  0
  194.2090  174.2160  137.4550 O   0  0  0  0  0  1  0  0  0  0  0  0
  191.8090  174.4670  137.1730 C   0  0  0  0  0  0  0  0  0  0  0  0
  193.0140  173.8100  136.8690 C   0  0  0  0  0  0  0  0  0  0  0  0
  191.8350  172.3140  135.3710 C   0  0  0  0  0  3  0  0  0  0  0  0
  190.6330  172.9600  135.6670 C   0  0  0  0  0  3  0  0  0  0  0  0
  190.6190  174.0310  136.5640 C   0  0  0  0  0  3  0  0  0  0  0  0
  193.0230  172.7390  135.9710 C   0  0  0  0  0  3  0  0  0  0  0  0
  1 12  2  0  0  0  0
  2  6  2  0  0  0  0
  3 11  1  0  0  0  0
  4 14  1  0  0  0  0
  5 10  2  0  0  0  0
  6  5  1  0  0  0  0
  7 17  1  0  0  0  0
  8  2  1  1  0  0  0
  8  3  1  0  0  0  0
  8  1  1  0  0  0  0
  9  4  1  0  0  0  0
 10  1  1  0  0  0  0
 11 15  1  0  0  0  0
 11 18  2  0  0  0  0
 12 18  1  0  0  0  0
 13  2  1  0  0  0  0
 14 15  2  0  0  0  0
 15 21  1  0  0  0  0
 16 27  1  6  0  0  0
 16  7  1  0  0  0  0
 16  9  1  0  0  0  0
 17  4  1  0  0  0  0
 17  3  2  0  0  0  0
 19 20  1  0  0  0  0
 19 25  1  0  0  0  0
 21 24  2  0  0  0  0
 21 23  1  0  0  0  0
 22 20  2  0  0  0  0
 23 19  2  0  0  0  0
 24 22  1  0  0  0  0
 26 27  2  0  0  0  0
 29 26  1  0  0  0  0
 30 29  1  0  0  0  0
 30 28  1  0  0  0  0
 31 32  2  0  0  0  0
 31 34  1  0  0  0  0
 32 33  1  0  0  0  0
 33 29  2  0  0  0  0
 34 30  2  0  0  0  0
M  END
>  <MODEL>
5

>  <REMARK>
 VINA RESULT:      -8.5      2.898      4.378
  Name = 
  3 active torsions:
  status: ('A' for Active; 'I' for Inactive)
    1  A    between atoms: C_3  and  C_13
    2  A    between atoms: C_12  and  C_28
    3  A    between atoms: C_17  and  C_29
                            x       y       z     vdW  Elec       q    Type
                         _______ _______ _______ _____ _____    ______ ____

>  <TORSDO>
F 3

$$$$
=
 OpenBabel10262423513D

 34 39  0  0  1  0  0  0  0  0999 V2000
  183.4450  178.3030  141.5880 C   0  0  0  0  0  0  0  0  0  0  0  0
  183.6670  179.7320  139.5710 C   0  0  0  0  0  0  0  0  0  0  0  0
  185.6910  178.3690  140.4020 C   0  0  0  0  0  0  0  0  0  0  0  0
  187.8650  178.0250  139.4540 N   0  0  0  0  0  0  0  0  0  0  0  0
  181.4950  179.4000  140.6770 C   0  0  0  0  0  3  0  0  0  0  0  0
  182.3830  180.0910  139.7150 C   0  0  0  0  0  3  0  0  0  0  0  0
  186.0410  178.1370  137.9100 C   0  0  0  0  0  2  0  0  0  0  0  0
  184.1840  178.4940  140.2810 C   0  0  1  0  0  3  0  0  0  0  0  0
  188.4940  177.8380  138.1680 C   0  0  0  0  0  2  0  0  0  0  0  0
  181.9990  178.5600  141.5880 C   0  0  0  0  0  3  0  0  0  0  0  0
  186.3250  178.2030  141.7450 C   0  0  0  0  0  0  0  0  0  0  0  0
  184.0770  178.0770  142.7400 C   0  0  0  0  0  3  0  0  0  0  0  0
  184.4810  180.4680  138.7190 O   0  0  0  0  0  1  0  0  0  0  0  0
  188.5300  177.9990  140.7190 C   0  0  0  0  0  3  0  0  0  0  0  0
  187.8190  178.0970  141.8530 C   0  0  0  0  0  0  0  0  0  0  0  0
  187.3520  177.9320  137.1380 C   0  0  1  0  0  3  0  0  0  0  0  0
  186.4740  178.2160  139.3240 C   0  0  0  0  0  0  0  0  0  0  0  0
  185.5450  178.0210  142.8160 C   0  0  0  0  0  3  0  0  0  0  0  0
  190.5740  178.4580  144.4500 C   0  0  0  0  0  0  0  0  0  0  0  0
  189.9160  178.0430  145.6100 C   0  0  0  0  0  3  0  0  0  0  0  0
  188.5440  178.0970  143.1540 C   0  0  0  0  0  0  0  0  0  0  0  0
  188.5790  177.6480  145.5490 C   0  0  0  0  0  3  0  0  0  0  0  0
  189.8930  178.4810  143.2300 C   0  0  0  0  0  3  0  0  0  0  0  0
  187.8980  177.6730  144.3280 C   0  0  0  0  0  3  0  0  0  0  0  0
  191.8730  178.8370  144.5070 F   0  0  0  0  0  0  0  0  0  0  0  0
  187.1960  175.4920  136.9370 C   0  0  0  0  0  3  0  0  0  0  0  0
  187.2680  176.6780  136.3390 C   0  0  0  0  0  3  0  0  0  0  0  0
  189.2560  173.5320  137.0910 O   0  0  0  0  0  1  0  0  0  0  0  0
  187.1090  174.2250  136.1910 C   0  0  0  0  0  0  0  0  0  0  0  0
  188.1460  173.2810  136.2930 C   0  0  0  0  0  0  0  0  0  0  0  0
  186.9630  171.8030  134.7790 C   0  0  0  0  0  3  0  0  0  0  0  0
  185.9280  172.7340  134.6730 C   0  0  0  0  0  3  0  0  0  0  0  0
  186.0000  173.9400  135.3760 C   0  0  0  0  0  3  0  0  0  0  0  0
  188.0690  172.0760  135.5870 C   0  0  0  0  0  3  0  0  0  0  0  0
  1 10  1  0  0  0  0
  1 12  2  0  0  0  0
  2  6  2  0  0  0  0
  3 11  1  0  0  0  0
  4 14  1  0  0  0  0
  5 10  2  0  0  0  0
  6  5  1  0  0  0  0
  7 17  1  0  0  0  0
  8  2  1  1  0  0  0
  8  3  1  0  0  0  0
  8  1  1  0  0  0  0
  9  4  1  0  0  0  0
 11 15  1  0  0  0  0
 11 18  2  0  0  0  0
 12 18  1  0  0  0  0
 13  2  1  0  0  0  0
 14 15  2  0  0  0  0
 15 21  1  0  0  0  0
 16 27  1  1  0  0  0
 16  7  1  0  0  0  0
 16  9  1  0  0  0  0
 17  4  1  0  0  0  0
 17  3  2  0  0  0  0
 19 25  1  0  0  0  0
 19 20  1  0  0  0  0
 21 23  1  0  0  0  0
 21 24  2  0  0  0  0
 22 20  2  0  0  0  0
 23 19  2  0  0  0  0
 24 22  1  0  0  0  0
 27 26  2  0  0  0  0
 29 30  1  0  0  0  0
 29 26  1  0  0  0  0
 30 28  1  0  0  0  0
 31 34  1  0  0  0  0
 32 31  2  0  0  0  0
 32 33  1  0  0  0  0
 33 29  2  0  0  0  0
 34 30  2  0  0  0  0
M  END
>  <MODEL>
6

>  <REMARK>
 VINA RESULT:      -8.3      1.833      2.366
  Name = 
  3 active torsions:
  status: ('A' for Active; 'I' for Inactive)
    1  A    between atoms: C_3  and  C_13
    2  A    between atoms: C_12  and  C_28
    3  A    between atoms: C_17  and  C_29
                            x       y       z     vdW  Elec       q    Type
                         _______ _______ _______ _____ _____    ______ ____

>  <TORSDO>
F 3

$$$$
=
 OpenBabel10262423513D

 34 39  0  0  1  0  0  0  0  0999 V2000
  189.1170  173.7900  136.0220 C   0  0  0  0  0  0  0  0  0  0  0  0
  190.9680  175.4020  136.3920 C   0  0  0  0  0  0  0  0  0  0  0  0
  188.6140  175.9250  137.3030 C   0  0  0  0  0  0  0  0  0  0  0  0
  187.8160  177.7000  138.7020 N   0  0  0  0  0  0  0  0  0  0  0  0
  191.3680  173.2000  135.3700 C   0  0  0  0  0  3  0  0  0  0  0  0
  191.7890  174.5740  135.7300 C   0  0  0  0  0  3  0  0  0  0  0  0
  190.0000  176.8600  139.1990 C   0  0  0  0  0  2  0  0  0  0  0  0
  189.6470  174.8790  136.9280 C   0  0  0  0  0  0  0  0  0  0  0  0
  188.2360  178.4880  139.8370 C   0  0  0  0  0  2  0  0  0  0  0  0
  190.0890  172.8260  135.4880 C   0  0  0  0  0  2  0  0  0  0  0  0
  187.2520  175.8880  136.6890 C   0  0  0  0  0  0  0  0  0  0  0  0
  187.8620  173.7790  135.5760 C   0  0  0  0  0  3  0  0  0  0  0  0
  191.3770  176.7090  136.6290 O   0  0  0  0  0  1  0  0  0  0  0  0
  186.5490  177.7900  138.0480 C   0  0  0  0  0  3  0  0  0  0  0  0
  186.2440  176.9390  137.0560 C   0  0  0  0  0  0  0  0  0  0  0  0
  189.6560  177.9950  140.1720 C   0  0  1  0  0  3  0  0  0  0  0  0
  188.8140  176.7830  138.3140 C   0  0  0  0  0  0  0  0  0  0  0  0
  186.9110  174.8470  135.9220 C   0  0  0  0  0  3  0  0  0  0  0  0
  182.4960  176.9470  136.4120 C   0  0  0  0  0  0  0  0  0  0  0  0
  182.4480  177.2930  135.0600 C   0  0  0  0  0  3  0  0  0  0  0  0
  184.9270  177.0770  136.3740 C   0  0  0  0  0  0  0  0  0  0  0  0
  183.6330  177.5270  134.3580 C   0  0  0  0  0  3  0  0  0  0  0  0
  183.7270  176.8360  137.0630 C   0  0  0  0  0  3  0  0  0  0  0  0
  184.8640  177.4170  135.0110 C   0  0  0  0  0  3  0  0  0  0  0  0
  181.3470  176.7150  137.0920 F   0  0  0  0  0  0  0  0  0  0  0  0
  189.3240  178.2470  142.5910 C   0  0  0  0  0  3  0  0  0  0  0  0
  189.7130  177.4850  141.5710 C   0  0  0  0  0  3  0  0  0  0  0  0
  191.7750  177.5550  143.8640 O   0  0  0  0  0  1  0  0  0  0  0  0
  189.3600  177.7870  143.9900 C   0  0  0  0  0  0  0  0  0  0  0  0
  190.5900  177.4550  144.5850 C   0  0  0  0  0  0  0  0  0  0  0  0
  189.4530  176.9110  146.6550 C   0  0  0  0  0  3  0  0  0  0  0  0
  188.2270  177.2400  146.0720 C   0  0  0  0  0  3  0  0  0  0  0  0
  188.1800  177.6760  144.7450 C   0  0  0  0  0  3  0  0  0  0  0  0
  190.6310  177.0190  145.9130 C   0  0  0  0  0  3  0  0  0  0  0  0
  1  8  1  0  0  0  0
  2 13  1  0  0  0  0
  2  8  2  0  0  0  0
  3 17  2  0  0  0  0
  4  9  1  0  0  0  0
  5 10  1  0  0  0  0
  5  6  2  0  0  0  0
  6  2  1  0  0  0  0
  7 16  1  0  0  0  0
  8  3  1  0  0  0  0
  9 16  1  0  0  0  0
 10  1  1  0  0  0  0
 11 15  1  0  0  0  0
 11  3  1  0  0  0  0
 12 18  1  0  0  0  0
 12  1  2  0  0  0  0
 14  4  1  0  0  0  0
 15 14  2  0  0  0  0
 16 27  1  1  0  0  0
 17  4  1  0  0  0  0
 17  7  1  0  0  0  0
 18 11  2  0  0  0  0
 19 23  1  0  0  0  0
 19 25  1  0  0  0  0
 20 19  2  0  0  0  0
 21 15  1  0  0  0  0
 21 23  2  0  0  0  0
 22 24  2  0  0  0  0
 22 20  1  0  0  0  0
 24 21  1  0  0  0  0
 26 29  1  0  0  0  0
 27 26  2  0  0  0  0
 28 30  1  0  0  0  0
 29 30  2  0  0  0  0
 29 33  1  0  0  0  0
 30 34  1  0  0  0  0
 32 31  1  0  0  0  0
 33 32  2  0  0  0  0
 34 31  2  0  0  0  0
M  END
>  <MODEL>
7

>  <REMARK>
 VINA RESULT:      -8.0      3.775      8.863
  Name = 
  3 active torsions:
  status: ('A' for Active; 'I' for Inactive)
    1  A    between atoms: C_3  and  C_13
    2  A    between atoms: C_12  and  C_28
    3  A    between atoms: C_17  and  C_29
                            x       y       z     vdW  Elec       q    Type
                         _______ _______ _______ _____ _____    ______ ____

>  <TORSDO>
F 3

$$$$
=
 OpenBabel10262423513D

 34 39  0  0  1  0  0  0  0  0999 V2000
  189.8070  178.0280  139.8730 C   0  0  0  0  0  0  0  0  0  0  0  0
  188.1570  176.9240  138.3830 C   0  0  0  0  0  0  0  0  0  0  0  0
  187.3560  178.0850  140.5410 C   0  0  0  0  0  0  0  0  0  0  0  0
  185.1540  178.5130  141.3850 N   0  0  0  0  0  0  0  0  0  0  0  0
  190.5220  177.1400  137.7430 C   0  0  0  0  0  3  0  0  0  0  0  0
  189.1620  176.5820  137.5640 C   0  0  0  0  0  3  0  0  0  0  0  0
  185.4340  178.6920  139.0160 C   0  0  0  0  0  2  0  0  0  0  0  0
  188.3660  178.0220  139.4110 C   0  0  0  0  0  0  0  0  0  0  0  0
  183.8410  178.8800  140.9120 C   0  0  0  0  0  2  0  0  0  0  0  0
  190.8430  177.8140  138.8540 C   0  0  0  0  0  2  0  0  0  0  0  0
  187.8150  178.0240  141.9620 C   0  0  0  0  0  0  0  0  0  0  0  0
  190.1440  178.0550  141.1630 C   0  0  0  0  0  3  0  0  0  0  0  0
  186.9220  176.3070  138.2280 O   0  0  0  0  0  1  0  0  0  0  0  0
  185.5260  178.3250  142.7520 C   0  0  0  0  0  3  0  0  0  0  0  0
  186.8040  178.0700  143.0710 C   0  0  0  0  0  0  0  0  0  0  0  0
  183.9710  178.9790  139.3810 C   0  0  1  0  0  3  0  0  0  0  0  0
  186.0680  178.3830  140.3190 C   0  0  0  0  0  0  0  0  0  0  0  0
  189.1260  178.0580  142.2250 C   0  0  0  0  0  3  0  0  0  0  0  0
  186.6640  178.1240  146.8710 C   0  0  0  0  0  0  0  0  0  0  0  0
  187.8520  177.4690  147.2010 C   0  0  0  0  0  3  0  0  0  0  0  0
  187.1540  177.8490  144.5020 C   0  0  0  0  0  0  0  0  0  0  0  0
  188.6970  177.0070  146.1910 C   0  0  0  0  0  3  0  0  0  0  0  0
  186.3200  178.3160  145.5310 C   0  0  0  0  0  3  0  0  0  0  0  0
  188.3520  177.1990  144.8490 C   0  0  0  0  0  3  0  0  0  0  0  0
  185.8450  178.5760  147.8510 F   0  0  0  0  0  0  0  0  0  0  0  0
  182.3620  180.6130  138.5080 C   0  0  0  0  0  3  0  0  0  0  0  0
  183.6000  180.3440  138.9130 C   0  0  0  0  0  3  0  0  0  0  0  0
  179.9860  180.9770  136.9810 O   0  0  0  0  0  1  0  0  0  0  0  0
  181.9470  181.9460  138.0390 C   0  0  0  0  0  0  0  0  0  0  0  0
  180.7670  182.0860  137.2880 C   0  0  0  0  0  0  0  0  0  0  0  0
  181.1350  184.4770  137.1370 C   0  0  0  0  0  3  0  0  0  0  0  0
  182.3080  184.3470  137.8830 C   0  0  0  0  0  3  0  0  0  0  0  0
  182.7130  183.0870  138.3330 C   0  0  0  0  0  3  0  0  0  0  0  0
  180.3660  183.3490  136.8400 C   0  0  0  0  0  3  0  0  0  0  0  0
  1 12  2  0  0  0  0
  2  8  2  0  0  0  0
  3 11  1  0  0  0  0
  4 14  1  0  0  0  0
  5 10  1  0  0  0  0
  6  5  2  0  0  0  0
  6  2  1  0  0  0  0
  7 16  1  0  0  0  0
  7 17  1  0  0  0  0
  8  1  1  0  0  0  0
  8  3  1  0  0  0  0
  9  4  1  0  0  0  0
 10  1  1  0  0  0  0
 11 18  2  0  0  0  0
 11 15  1  0  0  0  0
 12 18  1  0  0  0  0
 13  2  1  0  0  0  0
 14 15  2  0  0  0  0
 15 21  1  0  0  0  0
 16 27  1  1  0  0  0
 16  9  1  0  0  0  0
 17  3  2  0  0  0  0
 17  4  1  0  0  0  0
 19 20  1  0  0  0  0
 19 25  1  0  0  0  0
 21 24  2  0  0  0  0
 21 23  1  0  0  0  0
 22 20  2  0  0  0  0
 23 19  2  0  0  0  0
 24 22  1  0  0  0  0
 26 27  2  0  0  0  0
 28 30  1  0  0  0  0
 29 33  1  0  0  0  0
 29 26  1  0  0  0  0
 30 29  2  0  0  0  0
 31 32  1  0  0  0  0
 32 33  2  0  0  0  0
 34 31  2  0  0  0  0
 34 30  1  0  0  0  0
M  END
>  <MODEL>
8

>  <REMARK>
 VINA RESULT:      -7.8      2.183      7.319
  Name = 
  3 active torsions:
  status: ('A' for Active; 'I' for Inactive)
    1  A    between atoms: C_3  and  C_13
    2  A    between atoms: C_12  and  C_28
    3  A    between atoms: C_17  and  C_29
                            x       y       z     vdW  Elec       q    Type
                         _______ _______ _______ _____ _____    ______ ____

>  <TORSDO>
F 3

$$$$
=
 OpenBabel10262423513D

 34 39  0  0  1  0  0  0  0  0999 V2000
  185.2770  177.8200  144.3860 C   0  0  0  0  0  0  0  0  0  0  0  0
  185.5010  179.5050  142.5770 C   0  0  0  0  0  0  0  0  0  0  0  0
  187.4350  177.8640  143.0450 C   0  0  0  0  0  0  0  0  0  0  0  0
  189.4960  177.4740  141.8860 N   0  0  0  0  0  0  0  0  0  0  0  0
  183.3870  179.2040  143.7970 C   0  0  0  0  0  3  0  0  0  0  0  0
  184.2710  179.9490  142.8720 C   0  0  0  0  0  3  0  0  0  0  0  0
  187.5920  177.9690  140.5250 C   0  0  0  0  0  2  0  0  0  0  0  0
  185.9420  178.1360  143.0640 C   0  0  1  0  0  3  0  0  0  0  0  0
  190.0150  177.4240  140.5400 C   0  0  0  0  0  2  0  0  0  0  0  0
  183.8660  178.1990  144.5390 C   0  0  0  0  0  3  0  0  0  0  0  0
  188.1370  177.4480  144.2960 C   0  0  0  0  0  0  0  0  0  0  0  0
  185.9590  177.3740  145.4410 C   0  0  0  0  0  3  0  0  0  0  0  0
  186.3250  180.2840  141.7740 O   0  0  0  0  0  1  0  0  0  0  0  0
  190.2380  177.2050  143.0770 C   0  0  0  0  0  3  0  0  0  0  0  0
  189.6180  177.1980  144.2670 C   0  0  0  0  0  0  0  0  0  0  0  0
  188.8220  177.7660  139.6290 C   0  0  1  0  0  3  0  0  0  0  0  0
  188.1250  177.8020  141.8970 C   0  0  0  0  0  0  0  0  0  0  0  0
  187.4170  177.1800  145.3910 C   0  0  0  0  0  3  0  0  0  0  0  0
  190.8830  177.3480  147.8510 C   0  0  0  0  0  0  0  0  0  0  0  0
  191.9880  176.4950  147.7890 C   0  0  0  0  0  3  0  0  0  0  0  0
  190.4250  176.9440  145.4930 C   0  0  0  0  0  0  0  0  0  0  0  0
  192.3200  175.8700  146.5860 C   0  0  0  0  0  3  0  0  0  0  0  0
  190.1100  177.5730  146.7090 C   0  0  0  0  0  3  0  0  0  0  0  0
  191.5450  176.0960  145.4450 C   0  0  0  0  0  3  0  0  0  0  0  0
  190.5620  177.9590  149.0160 F   0  0  0  0  0  0  0  0  0  0  0  0
  187.5670  176.7310  137.7920 C   0  0  0  0  0  3  0  0  0  0  0  0
  188.5620  176.6540  138.6720 C   0  0  0  0  0  3  0  0  0  0  0  0
  185.8730  177.1830  135.5470 O   0  0  0  0  0  1  0  0  0  0  0  0
  187.2710  175.6600  136.8250 C   0  0  0  0  0  0  0  0  0  0  0  0
  186.4310  175.9210  135.7280 C   0  0  0  0  0  0  0  0  0  0  0  0
  186.6950  173.6350  134.9680 C   0  0  0  0  0  3  0  0  0  0  0  0
  187.5310  173.3680  136.0540 C   0  0  0  0  0  3  0  0  0  0  0  0
  187.8190  174.3750  136.9790 C   0  0  0  0  0  3  0  0  0  0  0  0
  186.1460  174.9090  134.8060 C   0  0  0  0  0  3  0  0  0  0  0  0
  1 10  1  0  0  0  0
  1 12  2  0  0  0  0
  2  6  2  0  0  0  0
  3  8  1  0  0  0  0
  3 11  1  0  0  0  0
  4 17  1  0  0  0  0
  4 14  1  0  0  0  0
  5 10  2  0  0  0  0
  6  5  1  0  0  0  0
  7 17  1  0  0  0  0
  8  2  1  1  0  0  0
  8  1  1  0  0  0  0
  9  4  1  0  0  0  0
 11 18  2  0  0  0  0
 13  2  1  0  0  0  0
 14 15  2  0  0  0  0
 15 11  1  0  0  0  0
 15 21  1  0  0  0  0
 16 27  1  6  0  0  0
 16  7  1  0  0  0  0
 16  9  1  0  0  0  0
 17  3  2  0  0  0  0
 18 12  1  0  0  0  0
 19 25  1  0  0  0  0
 20 19  1  0  0  0  0
 21 23  1  0  0  0  0
 22 20  2  0  0  0  0
 23 19  2  0  0  0  0
 24 21  2  0  0  0  0
 24 22  1  0  0  0  0
 26 27  2  0  0  0  0
 28 30  1  0  0  0  0
 29 33  1  0  0  0  0
 29 26  1  0  0  0  0
 30 29  2  0  0  0  0
 31 32  1  0  0  0  0
 32 33  2  0  0  0  0
 34 31  2  0  0  0  0
 34 30  1  0  0  0  0
M  END
>  <MODEL>
9

>  <REMARK>
 VINA RESULT:      -7.8      2.661      4.105
  Name = 
  3 active torsions:
  status: ('A' for Active; 'I' for Inactive)
    1  A    between atoms: C_3  and  C_13
    2  A    between atoms: C_12  and  C_28
    3  A    between atoms: C_17  and  C_29
                            x       y       z     vdW  Elec       q    Type
                         _______ _______ _______ _____ _____    ______ ____

>  <TORSDO>
F 3

$$$$
