=
 OpenBabel10272401473D

 28 31  0  0  1  0  0  0  0  0999 V2000
  187.8790  177.0820  145.1340 C   0  0  2  0  0  3  0  0  0  0  0  0
  191.7060  177.0140  146.8020 O   0  0  0  0  0  0  0  0  0  0  0  0
  190.0930  177.1240  142.0610 C   0  0  0  0  0  0  0  0  0  0  0  0
  190.4200  177.0140  144.8430 N   0  0  0  0  0  0  0  0  0  0  0  0
  188.9770  177.1180  142.9620 N   0  0  0  0  0  0  0  0  0  0  0  0
  189.3540  176.9830  147.1590 C   0  0  0  0  0  2  0  0  0  0  0  0
  191.6040  176.7880  144.0090 C   0  0  0  0  0  2  0  0  0  0  0  0
  190.5610  177.0230  146.2740 C   0  0  0  0  0  0  0  0  0  0  0  0
  191.3350  177.0130  142.5490 C   0  0  0  0  0  3  0  0  0  0  0  0
  188.1830  177.6980  146.4990 C   0  0  0  0  0  2  0  0  0  0  0  0
  189.1060  177.0940  144.2530 C   0  0  0  0  0  0  0  0  0  0  0  0
  188.6570  177.7800  140.2070 C   0  0  0  0  0  3  0  0  0  0  0  0
  190.7300  176.3780  138.4530 C   0  0  0  0  0  3  0  0  0  0  0  0
  188.3020  176.7170  138.0310 C   0  0  0  0  0  0  0  0  0  0  0  0
  189.8540  177.3230  140.6060 C   0  0  0  0  0  0  0  0  0  0  0  0
  192.6430  177.3660  140.0360 S   0  0  0  0  0  1  0  0  0  0  0  0
  189.4270  176.0230  137.8570 C   0  0  0  0  0  3  0  0  0  0  0  0
  190.9360  176.9930  139.6280 C   0  0  0  0  0  0  0  0  0  0  0  0
  187.1620  176.2830  137.4450 F   0  0  0  0  0  0  0  0  0  0  0  0
  188.2860  178.0080  138.7800 C   0  0  0  0  0  2  0  0  0  0  0  0
  186.6970  177.7560  144.4910 C   0  0  0  0  0  0  0  0  0  0  0  0
  186.6380  177.9130  143.0980 C   0  0  0  0  0  3  0  0  0  0  0  0
  184.4960  178.7700  144.6770 C   0  0  0  0  0  0  0  0  0  0  0  0
  185.5200  178.5010  142.5000 C   0  0  0  0  0  3  0  0  0  0  0  0
  185.6460  178.0190  146.6630 O   0  0  0  0  0  1  0  0  0  0  0  0
  185.6160  178.1820  145.2810 C   0  0  0  0  0  0  0  0  0  0  0  0
  183.4500  179.1840  145.4320 F   0  0  0  0  0  0  0  0  0  0  0  0
  184.4510  178.9290  143.2900 C   0  0  0  0  0  3  0  0  0  0  0  0
  1 21  1  6  0  0  0
  1 10  1  0  0  0  0
  3  9  2  0  0  0  0
  3  5  1  0  0  0  0
  4  8  1  0  0  0  0
  5 11  2  0  0  0  0
  7  4  1  0  0  0  0
  8  2  2  0  0  0  0
  8  6  1  0  0  0  0
  9  7  1  0  0  0  0
 10  6  1  0  0  0  0
 11  4  1  0  0  0  0
 11  1  1  0  0  0  0
 12 15  2  0  0  0  0
 13 18  2  0  0  0  0
 14 20  1  0  0  0  0
 15  3  1  0  0  0  0
 17 14  2  0  0  0  0
 17 13  1  0  0  0  0
 18 16  1  0  0  0  0
 18 15  1  0  0  0  0
 19 14  1  0  0  0  0
 20 12  1  0  0  0  0
 21 26  1  0  0  0  0
 22 21  2  0  0  0  0
 23 26  2  0  0  0  0
 23 27  1  0  0  0  0
 24 22  1  0  0  0  0
 24 28  2  0  0  0  0
 26 25  1  0  0  0  0
 28 23  1  0  0  0  0
M  END
>  <MODEL>
1

>  <REMARK>
 VINA RESULT:     -10.8      0.000      0.000
  Name = 
  2 active torsions:
  status: ('A' for Active; 'I' for Inactive)
    1  A    between atoms: C_1  and  C_2
    2  A    between atoms: C_10  and  C_13
                            x       y       z     vdW  Elec       q    Type
                         _______ _______ _______ _____ _____    ______ ____

>  <TORSDO>
F 2

$$$$
=
 OpenBabel10272401473D

 28 31  0  0  1  0  0  0  0  0999 V2000
  188.0850  178.5680  141.0780 C   0  0  2  0  0  3  0  0  0  0  0  0
  191.5990  176.9340  139.5260 O   0  0  0  0  0  0  0  0  0  0  0  0
  189.8370  177.3280  144.1980 C   0  0  0  0  0  0  0  0  0  0  0  0
  190.3450  177.4260  141.4420 N   0  0  0  0  0  0  0  0  0  0  0  0
  188.9080  177.9030  143.2700 N   0  0  0  0  0  0  0  0  0  0  0  0
  189.5560  178.0790  139.1080 C   0  0  0  0  0  2  0  0  0  0  0  0
  191.4460  177.0260  142.3240 C   0  0  0  0  0  2  0  0  0  0  0  0
  190.5510  177.4310  140.0200 C   0  0  0  0  0  0  0  0  0  0  0  0
  191.0160  176.8720  143.7550 C   0  0  0  0  0  3  0  0  0  0  0  0
  188.1500  177.9580  139.6790 C   0  0  0  0  0  2  0  0  0  0  0  0
  189.1110  177.9360  141.9880 C   0  0  0  0  0  0  0  0  0  0  0  0
  188.1480  177.2780  145.9510 C   0  0  0  0  0  3  0  0  0  0  0  0
  190.5110  177.5430  147.8690 C   0  0  0  0  0  3  0  0  0  0  0  0
  188.1570  178.2820  148.1830 C   0  0  0  0  0  0  0  0  0  0  0  0
  189.4460  177.1830  145.6260 C   0  0  0  0  0  0  0  0  0  0  0  0
  191.8980  175.8960  146.2870 S   0  0  0  0  0  1  0  0  0  0  0  0
  189.4590  178.4030  148.4440 C   0  0  0  0  0  3  0  0  0  0  0  0
  190.5020  176.9580  146.6620 C   0  0  0  0  0  0  0  0  0  0  0  0
  187.2850  179.1430  148.7590 F   0  0  0  0  0  0  0  0  0  0  0  0
  187.6280  177.1670  147.3440 C   0  0  0  0  0  2  0  0  0  0  0  0
  186.6890  178.4900  141.6340 C   0  0  0  0  0  0  0  0  0  0  0  0
  186.4770  178.1590  142.9820 C   0  0  0  0  0  3  0  0  0  0  0  0
  184.2920  178.7730  141.3500 C   0  0  0  0  0  0  0  0  0  0  0  0
  185.1820  178.1290  143.5060 C   0  0  0  0  0  3  0  0  0  0  0  0
  185.7770  179.1520  139.4850 O   0  0  0  0  0  1  0  0  0  0  0  0
  185.5890  178.8040  140.8190 C   0  0  0  0  0  0  0  0  0  0  0  0
  183.2260  179.0730  140.5690 F   0  0  0  0  0  0  0  0  0  0  0  0
  184.0910  178.4350  142.6900 C   0  0  0  0  0  3  0  0  0  0  0  0
  1 21  1  1  0  0  0
  1 11  1  0  0  0  0
  2  8  2  0  0  0  0
  3 15  1  0  0  0  0
  4 11  1  0  0  0  0
  4  7  1  0  0  0  0
  5  3  1  0  0  0  0
  6 10  1  0  0  0  0
  6  8  1  0  0  0  0
  7  9  1  0  0  0  0
  8  4  1  0  0  0  0
  9  3  2  0  0  0  0
 10  1  1  0  0  0  0
 11  5  2  0  0  0  0
 12 20  1  0  0  0  0
 13 17  1  0  0  0  0
 14 17  2  0  0  0  0
 14 19  1  0  0  0  0
 15 12  2  0  0  0  0
 15 18  1  0  0  0  0
 16 18  1  0  0  0  0
 18 13  2  0  0  0  0
 20 14  1  0  0  0  0
 21 22  1  0  0  0  0
 22 24  2  0  0  0  0
 23 28  2  0  0  0  0
 25 26  1  0  0  0  0
 26 23  1  0  0  0  0
 26 21  2  0  0  0  0
 27 23  1  0  0  0  0
 28 24  1  0  0  0  0
M  END
>  <MODEL>
2

>  <REMARK>
 VINA RESULT:     -10.5      2.945      6.107
  Name = 
  2 active torsions:
  status: ('A' for Active; 'I' for Inactive)
    1  A    between atoms: C_1  and  C_2
    2  A    between atoms: C_10  and  C_13
                            x       y       z     vdW  Elec       q    Type
                         _______ _______ _______ _____ _____    ______ ____

>  <TORSDO>
F 2

$$$$
=
 OpenBabel10272401473D

 28 31  0  0  1  0  0  0  0  0999 V2000
  189.2660  176.8950  144.2910 C   0  0  2  0  0  3  0  0  0  0  0  0
  191.3550  177.3330  140.7040 O   0  0  0  0  0  0  0  0  0  0  0  0
  186.6210  178.3390  141.9950 C   0  0  0  0  0  0  0  0  0  0  0  0
  189.3060  177.5500  141.8190 N   0  0  0  0  0  0  0  0  0  0  0  0
  187.3360  177.8050  143.1180 N   0  0  0  0  0  0  0  0  0  0  0  0
  191.3780  176.6150  142.9720 C   0  0  0  0  0  2  0  0  0  0  0  0
  188.6070  177.8690  140.5700 C   0  0  0  0  0  2  0  0  0  0  0  0
  190.7000  177.2000  141.7720 C   0  0  0  0  0  0  0  0  0  0  0  0
  187.2260  178.4130  140.8020 C   0  0  0  0  0  3  0  0  0  0  0  0
  190.7690  177.1670  144.2530 C   0  0  0  0  0  2  0  0  0  0  0  0
  188.5860  177.4580  143.0650 C   0  0  0  0  0  0  0  0  0  0  0  0
  184.9130  179.3690  143.3900 C   0  0  0  0  0  3  0  0  0  0  0  0
  182.9690  178.4740  141.2100 C   0  0  0  0  0  3  0  0  0  0  0  0
  182.5370  178.8340  143.6330 C   0  0  0  0  0  0  0  0  0  0  0  0
  185.2440  178.8660  142.1920 C   0  0  0  0  0  0  0  0  0  0  0  0
  184.8150  179.1170  139.3890 S   0  0  0  0  0  1  0  0  0  0  0  0
  182.2530  178.2320  142.4780 C   0  0  0  0  0  3  0  0  0  0  0  0
  184.2610  178.8030  141.0660 C   0  0  0  0  0  0  0  0  0  0  0  0
  181.8190  178.5180  144.7360 F   0  0  0  0  0  0  0  0  0  0  0  0
  183.5640  179.9130  143.7210 C   0  0  0  0  0  2  0  0  0  0  0  0
  188.6600  177.4010  145.5730 C   0  0  0  0  0  0  0  0  0  0  0  0
  187.2840  177.6630  145.6560 C   0  0  0  0  0  3  0  0  0  0  0  0
  188.8910  177.9900  147.9190 C   0  0  0  0  0  0  0  0  0  0  0  0
  186.7180  178.0920  146.8590 C   0  0  0  0  0  3  0  0  0  0  0  0
  190.8270  177.2880  146.6600 O   0  0  0  0  0  1  0  0  0  0  0  0
  189.4640  177.5600  146.7150 C   0  0  0  0  0  0  0  0  0  0  0  0
  189.6600  178.1470  149.0250 F   0  0  0  0  0  0  0  0  0  0  0  0
  187.5210  178.2550  147.9900 C   0  0  0  0  0  3  0  0  0  0  0  0
  1 21  1  1  0  0  0
  2  8  2  0  0  0  0
  3 15  1  0  0  0  0
  3  5  1  0  0  0  0
  4 11  1  0  0  0  0
  6 10  1  0  0  0  0
  7  9  1  0  0  0  0
  7  4  1  0  0  0  0
  8  4  1  0  0  0  0
  8  6  1  0  0  0  0
  9  3  2  0  0  0  0
 10  1  1  0  0  0  0
 11  5  2  0  0  0  0
 11  1  1  0  0  0  0
 12 20  1  0  0  0  0
 13 17  1  0  0  0  0
 14 20  1  0  0  0  0
 14 19  1  0  0  0  0
 15 12  2  0  0  0  0
 16 18  1  0  0  0  0
 17 14  2  0  0  0  0
 18 13  2  0  0  0  0
 18 15  1  0  0  0  0
 21 22  2  0  0  0  0
 21 26  1  0  0  0  0
 22 24  1  0  0  0  0
 23 28  1  0  0  0  0
 23 27  1  0  0  0  0
 24 28  2  0  0  0  0
 25 26  1  0  0  0  0
 26 23  2  0  0  0  0
M  END
>  <MODEL>
3

>  <REMARK>
 VINA RESULT:     -10.3      2.996      5.616
  Name = 
  2 active torsions:
  status: ('A' for Active; 'I' for Inactive)
    1  A    between atoms: C_1  and  C_2
    2  A    between atoms: C_10  and  C_13
                            x       y       z     vdW  Elec       q    Type
                         _______ _______ _______ _____ _____    ______ ____

>  <TORSDO>
F 2

$$$$
=
 OpenBabel10272401473D

 28 31  0  0  1  0  0  0  0  0999 V2000
  189.9840  176.9070  141.1310 C   0  0  2  0  0  3  0  0  0  0  0  0
  189.9050  177.3320  136.9780 O   0  0  0  0  0  0  0  0  0  0  0  0
  186.5590  178.4170  140.5450 C   0  0  0  0  0  0  0  0  0  0  0  0
  188.7430  177.5800  138.9980 N   0  0  0  0  0  0  0  0  0  0  0  0
  187.7440  177.8610  141.1320 N   0  0  0  0  0  0  0  0  0  0  0  0
  191.0930  176.5980  138.9040 C   0  0  0  0  0  2  0  0  0  0  0  0
  187.5010  177.9200  138.2950 C   0  0  0  0  0  2  0  0  0  0  0  0
  189.9000  177.2030  138.2320 C   0  0  0  0  0  0  0  0  0  0  0  0
  186.4550  178.4890  139.2120 C   0  0  0  0  0  3  0  0  0  0  0  0
  191.2510  177.1510  140.3140 C   0  0  0  0  0  2  0  0  0  0  0  0
  188.7760  177.4910  140.4360 C   0  0  0  0  0  0  0  0  0  0  0  0
  185.8290  179.3490  142.6720 C   0  0  0  0  0  3  0  0  0  0  0  0
  183.0070  178.7660  141.6550 C   0  0  0  0  0  3  0  0  0  0  0  0
  183.8280  178.8760  144.0010 C   0  0  0  0  0  0  0  0  0  0  0  0
  185.4980  178.9680  141.4290 C   0  0  0  0  0  0  0  0  0  0  0  0
  183.7930  179.5380  139.2210 S   0  0  0  0  0  1  0  0  0  0  0  0
  182.9730  178.4130  143.0880 C   0  0  0  0  0  3  0  0  0  0  0  0
  184.0920  179.0630  140.9250 C   0  0  0  0  0  0  0  0  0  0  0  0
  183.7070  178.4670  145.2850 F   0  0  0  0  0  0  0  0  0  0  0  0
  184.8570  179.9020  143.6600 C   0  0  0  0  0  2  0  0  0  0  0  0
  190.1460  177.4150  142.5390 C   0  0  0  0  0  0  0  0  0  0  0  0
  190.9630  178.5240  142.8060 C   0  0  0  0  0  3  0  0  0  0  0  0
  189.5500  177.3140  144.8920 C   0  0  0  0  0  0  0  0  0  0  0  0
  191.0780  179.0190  144.1070 C   0  0  0  0  0  3  0  0  0  0  0  0
  188.6020  175.7230  143.3430 O   0  0  0  0  0  1  0  0  0  0  0  0
  189.4320  176.8130  143.5890 C   0  0  0  0  0  0  0  0  0  0  0  0
  188.8660  176.7380  145.9110 F   0  0  0  0  0  0  0  0  0  0  0  0
  190.3720  178.4140  145.1490 C   0  0  0  0  0  3  0  0  0  0  0  0
  1 21  1  1  0  0  0
  2  8  2  0  0  0  0
  3  5  1  0  0  0  0
  3 15  1  0  0  0  0
  4 11  1  0  0  0  0
  6 10  1  0  0  0  0
  7  4  1  0  0  0  0
  7  9  1  0  0  0  0
  8  6  1  0  0  0  0
  8  4  1  0  0  0  0
  9  3  2  0  0  0  0
 10  1  1  0  0  0  0
 11  1  1  0  0  0  0
 11  5  2  0  0  0  0
 12 20  1  0  0  0  0
 13 17  1  0  0  0  0
 14 19  1  0  0  0  0
 15 12  2  0  0  0  0
 16 18  1  0  0  0  0
 17 14  2  0  0  0  0
 18 15  1  0  0  0  0
 18 13  2  0  0  0  0
 20 14  1  0  0  0  0
 21 22  2  0  0  0  0
 21 26  1  0  0  0  0
 22 24  1  0  0  0  0
 23 28  1  0  0  0  0
 23 27  1  0  0  0  0
 24 28  2  0  0  0  0
 25 26  1  0  0  0  0
 26 23  2  0  0  0  0
M  END
>  <MODEL>
4

>  <REMARK>
 VINA RESULT:     -10.1      3.306      6.506
  Name = 
  2 active torsions:
  status: ('A' for Active; 'I' for Inactive)
    1  A    between atoms: C_1  and  C_2
    2  A    between atoms: C_10  and  C_13
                            x       y       z     vdW  Elec       q    Type
                         _______ _______ _______ _____ _____    ______ ____

>  <TORSDO>
F 2

$$$$
=
 OpenBabel10272401473D

 28 31  0  0  1  0  0  0  0  0999 V2000
  187.9690  177.4310  143.6190 C   0  0  2  0  0  3  0  0  0  0  0  0
  192.0200  177.7120  144.5880 O   0  0  0  0  0  0  0  0  0  0  0  0
  189.6160  177.3560  140.2080 C   0  0  0  0  0  0  0  0  0  0  0  0
  190.4210  177.4840  142.8910 N   0  0  0  0  0  0  0  0  0  0  0  0
  188.6740  177.3580  141.2890 N   0  0  0  0  0  0  0  0  0  0  0  0
  189.7720  177.5760  145.3540 C   0  0  0  0  0  2  0  0  0  0  0  0
  191.4590  177.2610  141.8790 C   0  0  0  0  0  2  0  0  0  0  0  0
  190.8040  177.6140  144.2710 C   0  0  0  0  0  0  0  0  0  0  0  0
  190.9290  177.3550  140.4760 C   0  0  0  0  0  3  0  0  0  0  0  0
  188.4590  178.1690  144.8630 C   0  0  0  0  0  2  0  0  0  0  0  0
  189.0240  177.4430  142.5370 C   0  0  0  0  0  0  0  0  0  0  0  0
  188.4180  178.5060  138.4280 C   0  0  0  0  0  3  0  0  0  0  0  0
  188.4960  175.8080  136.9950 C   0  0  0  0  0  3  0  0  0  0  0  0
  186.8290  177.6410  136.7790 C   0  0  0  0  0  0  0  0  0  0  0  0
  189.1190  177.4270  138.8080 C   0  0  0  0  0  0  0  0  0  0  0  0
  190.9760  175.4570  137.9270 S   0  0  0  0  0  1  0  0  0  0  0  0
  187.1530  176.3500  136.7080 C   0  0  0  0  0  3  0  0  0  0  0  0
  189.3900  176.2930  137.8700 C   0  0  0  0  0  0  0  0  0  0  0  0
  185.5570  178.0180  136.5080 F   0  0  0  0  0  0  0  0  0  0  0  0
  187.8520  178.6910  137.0600 C   0  0  0  0  0  2  0  0  0  0  0  0
  186.6510  177.9830  143.1490 C   0  0  0  0  0  0  0  0  0  0  0  0
  186.5090  178.4750  141.8420 C   0  0  0  0  0  3  0  0  0  0  0  0
  184.2960  178.4330  143.5490 C   0  0  0  0  0  0  0  0  0  0  0  0
  185.2730  178.9480  141.3960 C   0  0  0  0  0  3  0  0  0  0  0  0
  185.6480  177.4580  145.2960 O   0  0  0  0  0  1  0  0  0  0  0  0
  185.5350  177.9580  144.0020 C   0  0  0  0  0  0  0  0  0  0  0  0
  183.2160  178.4130  144.3670 F   0  0  0  0  0  0  0  0  0  0  0  0
  184.1680  178.9280  142.2490 C   0  0  0  0  0  3  0  0  0  0  0  0
  1 21  1  6  0  0  0
  1 10  1  0  0  0  0
  3  9  2  0  0  0  0
  3  5  1  0  0  0  0
  4  8  1  0  0  0  0
  5 11  2  0  0  0  0
  7  4  1  0  0  0  0
  8  2  2  0  0  0  0
  8  6  1  0  0  0  0
  9  7  1  0  0  0  0
 10  6  1  0  0  0  0
 11  4  1  0  0  0  0
 11  1  1  0  0  0  0
 12 15  2  0  0  0  0
 13 18  2  0  0  0  0
 14 20  1  0  0  0  0
 15  3  1  0  0  0  0
 17 14  2  0  0  0  0
 17 13  1  0  0  0  0
 18 16  1  0  0  0  0
 18 15  1  0  0  0  0
 19 14  1  0  0  0  0
 20 12  1  0  0  0  0
 21 26  1  0  0  0  0
 22 21  2  0  0  0  0
 23 26  2  0  0  0  0
 23 27  1  0  0  0  0
 24 22  1  0  0  0  0
 24 28  2  0  0  0  0
 26 25  1  0  0  0  0
 28 23  1  0  0  0  0
M  END
>  <MODEL>
5

>  <REMARK>
 VINA RESULT:      -9.8      1.490      1.971
  Name = 
  2 active torsions:
  status: ('A' for Active; 'I' for Inactive)
    1  A    between atoms: C_1  and  C_2
    2  A    between atoms: C_10  and  C_13
                            x       y       z     vdW  Elec       q    Type
                         _______ _______ _______ _____ _____    ______ ____

>  <TORSDO>
F 2

$$$$
=
 OpenBabel10272401473D

 28 31  0  0  1  0  0  0  0  0999 V2000
  185.4800  178.0500  142.4040 C   0  0  2  0  0  3  0  0  0  0  0  0
  182.9250  179.3160  145.4530 O   0  0  0  0  0  0  0  0  0  0  0  0
  187.7180  177.8610  145.4550 C   0  0  0  0  0  0  0  0  0  0  0  0
  185.0540  178.5240  144.8810 N   0  0  0  0  0  0  0  0  0  0  0  0
  187.1880  177.8110  144.1230 N   0  0  0  0  0  0  0  0  0  0  0  0
  183.2100  178.8110  143.1460 C   0  0  0  0  0  2  0  0  0  0  0  0
  185.4340  178.3900  146.2920 C   0  0  0  0  0  2  0  0  0  0  0  0
  183.7120  178.9200  144.5510 C   0  0  0  0  0  0  0  0  0  0  0  0
  186.9100  178.1760  146.4760 C   0  0  0  0  0  3  0  0  0  0  0  0
  184.3430  179.0380  142.1540 C   0  0  0  0  0  2  0  0  0  0  0  0
  185.9650  178.1380  143.8320 C   0  0  0  0  0  0  0  0  0  0  0  0
  189.9880  177.6340  144.6040 C   0  0  0  0  0  3  0  0  0  0  0  0
  190.6200  176.4740  147.3590 C   0  0  0  0  0  3  0  0  0  0  0  0
  191.7380  176.0240  145.1820 C   0  0  0  0  0  0  0  0  0  0  0  0
  189.1720  177.6320  145.6690 C   0  0  0  0  0  0  0  0  0  0  0  0
  188.9880  178.2970  148.4310 S   0  0  0  0  0  1  0  0  0  0  0  0
  191.3910  175.6430  146.4130 C   0  0  0  0  0  3  0  0  0  0  0  0
  189.6850  177.3850  147.0530 C   0  0  0  0  0  0  0  0  0  0  0  0
  192.4320  175.1660  144.3980 F   0  0  0  0  0  0  0  0  0  0  0  0
  191.4590  177.4010  144.6810 C   0  0  0  0  0  2  0  0  0  0  0  0
  186.5880  178.2400  141.4030 C   0  0  0  0  0  0  0  0  0  0  0  0
  187.9250  178.3030  141.8240 C   0  0  0  0  0  3  0  0  0  0  0  0
  187.3280  178.4310  139.0960 C   0  0  0  0  0  0  0  0  0  0  0  0
  188.9540  178.4370  140.8880 C   0  0  0  0  0  3  0  0  0  0  0  0
  184.9740  178.2180  139.5900 O   0  0  0  0  0  1  0  0  0  0  0  0
  186.2920  178.2980  140.0310 C   0  0  0  0  0  0  0  0  0  0  0  0
  187.0500  178.4890  137.7710 F   0  0  0  0  0  0  0  0  0  0  0  0
  188.6550  178.5010  139.5260 C   0  0  0  0  0  3  0  0  0  0  0  0
  1 21  1  6  0  0  0
  1 11  1  0  0  0  0
  3 15  1  0  0  0  0
  3  9  2  0  0  0  0
  4  7  1  0  0  0  0
  5  3  1  0  0  0  0
  6  8  1  0  0  0  0
  7  9  1  0  0  0  0
  8  4  1  0  0  0  0
  8  2  2  0  0  0  0
 10  1  1  0  0  0  0
 10  6  1  0  0  0  0
 11  5  2  0  0  0  0
 11  4  1  0  0  0  0
 12 20  1  0  0  0  0
 12 15  2  0  0  0  0
 14 17  2  0  0  0  0
 15 18  1  0  0  0  0
 17 13  1  0  0  0  0
 18 13  2  0  0  0  0
 18 16  1  0  0  0  0
 19 14  1  0  0  0  0
 20 14  1  0  0  0  0
 21 22  1  0  0  0  0
 23 28  2  0  0  0  0
 23 26  1  0  0  0  0
 24 22  2  0  0  0  0
 25 26  1  0  0  0  0
 26 21  2  0  0  0  0
 27 23  1  0  0  0  0
 28 24  1  0  0  0  0
M  END
>  <MODEL>
6

>  <REMARK>
 VINA RESULT:      -9.8      3.431      6.472
  Name = 
  2 active torsions:
  status: ('A' for Active; 'I' for Inactive)
    1  A    between atoms: C_1  and  C_2
    2  A    between atoms: C_10  and  C_13
                            x       y       z     vdW  Elec       q    Type
                         _______ _______ _______ _____ _____    ______ ____

>  <TORSDO>
F 2

$$$$
=
 OpenBabel10272401473D

 28 31  0  0  1  0  0  0  0  0999 V2000
  182.5370  177.6630  140.3130 C   0  0  2  0  0  3  0  0  0  0  0  0
  180.3950  179.8240  143.1720 O   0  0  0  0  0  0  0  0  0  0  0  0
  185.1690  178.3200  142.9570 C   0  0  0  0  0  0  0  0  0  0  0  0
  182.4410  178.8490  142.5770 N   0  0  0  0  0  0  0  0  0  0  0  0
  184.4640  177.8960  141.7820 N   0  0  0  0  0  0  0  0  0  0  0  0
  180.3750  178.6610  141.0970 C   0  0  0  0  0  2  0  0  0  0  0  0
  183.0110  179.1240  143.9010 C   0  0  0  0  0  2  0  0  0  0  0  0
  181.0610  179.1640  142.3290 C   0  0  0  0  0  0  0  0  0  0  0  0
  184.5010  178.9380  143.9400 C   0  0  0  0  0  3  0  0  0  0  0  0
  181.3600  178.5630  139.9400 C   0  0  0  0  0  2  0  0  0  0  0  0
  183.2080  178.1530  141.5750 C   0  0  0  0  0  0  0  0  0  0  0  0
  187.3990  178.5560  142.0100 C   0  0  0  0  0  3  0  0  0  0  0  0
  188.2360  176.5560  144.1630 C   0  0  0  0  0  3  0  0  0  0  0  0
  189.2590  176.9670  141.9330 C   0  0  0  0  0  0  0  0  0  0  0  0
  186.6420  178.1290  143.0320 C   0  0  0  0  0  0  0  0  0  0  0  0
  186.5690  177.7780  145.8560 S   0  0  0  0  0  1  0  0  0  0  0  0
  188.9980  176.1600  142.9620 C   0  0  0  0  0  3  0  0  0  0  0  0
  187.2390  177.4520  144.2250 C   0  0  0  0  0  0  0  0  0  0  0  0
  189.9550  176.4850  140.8770 F   0  0  0  0  0  0  0  0  0  0  0  0
  188.8830  178.4110  141.9560 C   0  0  0  0  0  2  0  0  0  0  0  0
  183.4960  177.5270  139.1610 C   0  0  0  0  0  0  0  0  0  0  0  0
  184.4450  178.5280  138.9020 C   0  0  0  0  0  3  0  0  0  0  0  0
  184.4060  176.2210  137.3250 C   0  0  0  0  0  0  0  0  0  0  0  0
  185.3610  178.3790  137.8580 C   0  0  0  0  0  3  0  0  0  0  0  0
  182.5630  175.3520  138.6220 O   0  0  0  0  0  1  0  0  0  0  0  0
  183.4840  176.3660  138.3700 C   0  0  0  0  0  0  0  0  0  0  0  0
  184.3990  175.1040  136.5570 F   0  0  0  0  0  0  0  0  0  0  0  0
  185.3410  177.2260  137.0700 C   0  0  0  0  0  3  0  0  0  0  0  0
  1 21  1  6  0  0  0
  1 11  1  0  0  0  0
  3 15  1  0  0  0  0
  3  9  2  0  0  0  0
  4  7  1  0  0  0  0
  5  3  1  0  0  0  0
  6  8  1  0  0  0  0
  7  9  1  0  0  0  0
  8  4  1  0  0  0  0
  8  2  2  0  0  0  0
 10  1  1  0  0  0  0
 10  6  1  0  0  0  0
 11  5  2  0  0  0  0
 11  4  1  0  0  0  0
 12 15  2  0  0  0  0
 13 18  2  0  0  0  0
 14 20  1  0  0  0  0
 14 17  2  0  0  0  0
 15 18  1  0  0  0  0
 17 13  1  0  0  0  0
 18 16  1  0  0  0  0
 19 14  1  0  0  0  0
 20 12  1  0  0  0  0
 22 21  1  0  0  0  0
 23 26  1  0  0  0  0
 24 22  2  0  0  0  0
 26 25  1  0  0  0  0
 26 21  2  0  0  0  0
 27 23  1  0  0  0  0
 28 23  2  0  0  0  0
 28 24  1  0  0  0  0
M  END
>  <MODEL>
7

>  <REMARK>
 VINA RESULT:      -9.8      4.329      7.263
  Name = 
  2 active torsions:
  status: ('A' for Active; 'I' for Inactive)
    1  A    between atoms: C_1  and  C_2
    2  A    between atoms: C_10  and  C_13
                            x       y       z     vdW  Elec       q    Type
                         _______ _______ _______ _____ _____    ______ ____

>  <TORSDO>
F 2

$$$$
=
 OpenBabel10272401473D

 28 31  0  0  1  0  0  0  0  0999 V2000
  187.6630  177.5740  143.4990 C   0  0  2  0  0  3  0  0  0  0  0  0
  189.2110  178.3920  139.7090 O   0  0  0  0  0  0  0  0  0  0  0  0
  184.5540  178.5130  141.5490 C   0  0  0  0  0  0  0  0  0  0  0  0
  187.2990  178.2290  141.0530 N   0  0  0  0  0  0  0  0  0  0  0  0
  185.4780  178.1170  142.5720 N   0  0  0  0  0  0  0  0  0  0  0  0
  189.6250  177.6870  141.9430 C   0  0  0  0  0  2  0  0  0  0  0  0
  186.4140  178.4160  139.8990 C   0  0  0  0  0  2  0  0  0  0  0  0
  188.7180  178.1400  140.8410 C   0  0  0  0  0  0  0  0  0  0  0  0
  184.9940  178.6990  140.2980 C   0  0  0  0  0  3  0  0  0  0  0  0
  189.0780  178.1160  143.2970 C   0  0  0  0  0  2  0  0  0  0  0  0
  186.7560  178.0050  142.3700 C   0  0  0  0  0  0  0  0  0  0  0  0
  182.8280  178.9760  143.2030 C   0  0  0  0  0  3  0  0  0  0  0  0
  180.8700  178.2600  140.9700 C   0  0  0  0  0  3  0  0  0  0  0  0
  180.5720  178.0560  143.4310 C   0  0  0  0  0  0  0  0  0  0  0  0
  183.1360  178.7790  141.9120 C   0  0  0  0  0  0  0  0  0  0  0  0
  182.4720  179.5240  139.2460 S   0  0  0  0  0  1  0  0  0  0  0  0
  180.2880  177.6630  142.1890 C   0  0  0  0  0  3  0  0  0  0  0  0
  182.0910  178.8000  140.8420 C   0  0  0  0  0  0  0  0  0  0  0  0
  179.9870  177.4200  144.4740 F   0  0  0  0  0  0  0  0  0  0  0  0
  181.4460  179.2350  143.7000 C   0  0  0  0  0  2  0  0  0  0  0  0
  187.1280  177.9590  144.8520 C   0  0  0  0  0  0  0  0  0  0  0  0
  185.9190  178.6620  144.9660 C   0  0  0  0  0  3  0  0  0  0  0  0
  187.2880  177.8860  147.2750 C   0  0  0  0  0  0  0  0  0  0  0  0
  185.4030  178.9810  146.2240 C   0  0  0  0  0  3  0  0  0  0  0  0
  189.0010  176.8510  145.9250 O   0  0  0  0  0  1  0  0  0  0  0  0
  187.8100  177.5650  146.0150 C   0  0  0  0  0  0  0  0  0  0  0  0
  187.9410  177.5110  148.4020 F   0  0  0  0  0  0  0  0  0  0  0  0
  186.0880  178.5940  147.3780 C   0  0  0  0  0  3  0  0  0  0  0  0
  1 21  1  1  0  0  0
  2  8  2  0  0  0  0
  3 15  1  0  0  0  0
  3  5  1  0  0  0  0
  4 11  1  0  0  0  0
  6 10  1  0  0  0  0
  7  9  1  0  0  0  0
  7  4  1  0  0  0  0
  8  4  1  0  0  0  0
  8  6  1  0  0  0  0
  9  3  2  0  0  0  0
 10  1  1  0  0  0  0
 11  5  2  0  0  0  0
 11  1  1  0  0  0  0
 12 20  1  0  0  0  0
 13 17  1  0  0  0  0
 14 20  1  0  0  0  0
 14 19  1  0  0  0  0
 15 12  2  0  0  0  0
 16 18  1  0  0  0  0
 17 14  2  0  0  0  0
 18 13  2  0  0  0  0
 18 15  1  0  0  0  0
 21 22  2  0  0  0  0
 21 26  1  0  0  0  0
 22 24  1  0  0  0  0
 23 28  1  0  0  0  0
 23 27  1  0  0  0  0
 24 28  2  0  0  0  0
 25 26  1  0  0  0  0
 26 23  2  0  0  0  0
M  END
>  <MODEL>
8

>  <REMARK>
 VINA RESULT:      -9.8      3.629      6.486
  Name = 
  2 active torsions:
  status: ('A' for Active; 'I' for Inactive)
    1  A    between atoms: C_1  and  C_2
    2  A    between atoms: C_10  and  C_13
                            x       y       z     vdW  Elec       q    Type
                         _______ _______ _______ _____ _____    ______ ____

>  <TORSDO>
F 2

$$$$
=
 OpenBabel10272401473D

 28 31  0  0  1  0  0  0  0  0999 V2000
  188.2010  177.1990  144.1050 C   0  0  2  0  0  3  0  0  0  0  0  0
  192.2070  177.4090  142.9490 O   0  0  0  0  0  0  0  0  0  0  0  0
  187.9280  177.9370  140.3990 C   0  0  0  0  0  0  0  0  0  0  0  0
  189.9650  177.5020  142.2770 N   0  0  0  0  0  0  0  0  0  0  0  0
  187.6500  177.6670  141.7800 N   0  0  0  0  0  0  0  0  0  0  0  0
  190.6320  177.0250  144.6900 C   0  0  0  0  0  2  0  0  0  0  0  0
  190.3420  177.5450  140.8600 C   0  0  0  0  0  2  0  0  0  0  0  0
  190.9910  177.3390  143.2710 C   0  0  0  0  0  0  0  0  0  0  0  0
  189.1960  177.9260  139.9670 C   0  0  0  0  0  3  0  0  0  0  0  0
  189.3000  177.6630  145.0590 C   0  0  0  0  0  2  0  0  0  0  0  0
  188.5780  177.4870  142.6700 C   0  0  0  0  0  0  0  0  0  0  0  0
  185.6800  178.7880  140.0170 C   0  0  0  0  0  3  0  0  0  0  0  0
  185.9920  177.5990  137.2200 C   0  0  0  0  0  3  0  0  0  0  0  0
  183.9130  177.9720  138.5330 C   0  0  0  0  0  0  0  0  0  0  0  0
  186.8100  178.2960  139.4870 C   0  0  0  0  0  0  0  0  0  0  0  0
  188.5370  178.4130  137.2270 S   0  0  0  0  0  1  0  0  0  0  0  0
  184.5960  177.3060  137.6020 C   0  0  0  0  0  3  0  0  0  0  0  0
  186.9590  178.0800  138.0140 C   0  0  0  0  0  0  0  0  0  0  0  0
  182.6400  177.6000  138.8090 F   0  0  0  0  0  0  0  0  0  0  0  0
  184.4820  179.1710  139.2150 C   0  0  0  0  0  2  0  0  0  0  0  0
  186.8720  177.7920  144.4860 C   0  0  0  0  0  0  0  0  0  0  0  0
  185.9830  178.2440  143.4980 C   0  0  0  0  0  3  0  0  0  0  0  0
  185.2310  178.3580  146.1870 C   0  0  0  0  0  0  0  0  0  0  0  0
  184.7330  178.7560  143.8520 C   0  0  0  0  0  3  0  0  0  0  0  0
  187.3450  177.3850  146.8310 O   0  0  0  0  0  1  0  0  0  0  0  0
  186.4870  177.8450  145.8360 C   0  0  0  0  0  0  0  0  0  0  0  0
  184.8540  178.4130  147.4880 F   0  0  0  0  0  0  0  0  0  0  0  0
  184.3580  178.8130  145.1960 C   0  0  0  0  0  3  0  0  0  0  0  0
  1 21  1  1  0  0  0
  1 10  1  0  0  0  0
  2  8  2  0  0  0  0
  3  5  1  0  0  0  0
  4 11  1  0  0  0  0
  4  8  1  0  0  0  0
  5 11  2  0  0  0  0
  6 10  1  0  0  0  0
  7  4  1  0  0  0  0
  8  6  1  0  0  0  0
  9  3  2  0  0  0  0
  9  7  1  0  0  0  0
 11  1  1  0  0  0  0
 13 17  1  0  0  0  0
 13 18  2  0  0  0  0
 14 19  1  0  0  0  0
 14 20  1  0  0  0  0
 15 12  2  0  0  0  0
 15  3  1  0  0  0  0
 16 18  1  0  0  0  0
 17 14  2  0  0  0  0
 18 15  1  0  0  0  0
 20 12  1  0  0  0  0
 21 26  1  0  0  0  0
 22 24  1  0  0  0  0
 22 21  2  0  0  0  0
 23 27  1  0  0  0  0
 24 28  2  0  0  0  0
 26 23  2  0  0  0  0
 26 25  1  0  0  0  0
 28 23  1  0  0  0  0
M  END
>  <MODEL>
9

>  <REMARK>
 VINA RESULT:      -9.8      2.356      3.174
  Name = 
  2 active torsions:
  status: ('A' for Active; 'I' for Inactive)
    1  A    between atoms: C_1  and  C_2
    2  A    between atoms: C_10  and  C_13
                            x       y       z     vdW  Elec       q    Type
                         _______ _______ _______ _____ _____    ______ ____

>  <TORSDO>
F 2

$$$$
