=
 OpenBabel10272413353D

 32 36  0  0  1  0  0  0  0  0999 V2000
  190.8990  177.1660  144.4610 C   0  0  0  0  0  0  0  0  0  0  0  0
  187.8140  178.2820  140.5460 C   0  0  2  0  0  3  0  0  0  0  0  0
  185.3140  178.9180  140.3400 C   0  0  0  0  0  0  0  0  0  0  0  0
  184.0710  178.3730  139.8130 C   0  0  0  0  0  0  0  0  0  0  0  0
  188.5820  177.1660  142.7310 C   0  0  1  0  0  3  0  0  0  0  0  0
  190.1180  177.2400  140.6980 C   0  0  0  0  0  2  0  0  0  0  0  0
  182.7800  177.3780  138.3300 N   0  0  0  0  0  0  0  0  0  0  0  0
  191.0930  176.9400  142.9910 C   0  0  0  0  0  2  0  0  0  0  0  0
  188.7770  177.2400  139.9470 C   0  0  2  0  0  3  0  0  0  0  0  0
  188.9740  177.3990  138.4370 C   0  0  2  0  0  3  0  0  0  0  0  0
  186.4750  177.5220  138.5810 N   0  0  2  0  0  0  0  0  0  0  0  0
  181.9980  177.8160  139.3400 C   0  0  0  0  0  3  0  0  0  0  0  0
  189.6760  177.8920  144.9460 C   0  0  0  0  0  2  0  0  0  0  0  0
  189.9650  177.5810  142.1870 C   0  0  2  0  0  3  0  0  0  0  0  0
  182.7800  178.4580  140.3020 C   0  0  0  0  0  3  0  0  0  0  0  0
  188.4200  177.3620  144.2480 C   0  0  0  0  0  2  0  0  0  0  0  0
  191.8360  176.7450  145.3060 C   0  0  0  0  0  3  0  0  0  0  0  0
  187.6440  177.5700  137.6790 C   0  0  1  0  0  3  0  0  0  0  0  0
  185.2490  177.5970  137.7620 C   0  0  0  0  0  2  0  0  0  0  0  0
  187.4350  177.8570  141.9790 C   0  0  0  0  0  2  0  0  0  0  0  0
  185.3000  179.7170  141.3150 O   0  0  0  0  0  0  0  0  0  0  0  0
  182.3200  176.7100  137.1260 C   0  0  0  0  0  1  0  0  0  0  0  0
  186.6110  178.5880  139.6130 C   0  0  2  0  0  3  0  0  0  0  0  0
  184.0420  177.7090  138.6330 C   0  0  0  0  0  0  0  0  0  0  0  0
  192.4120  176.1220  147.6540 C   0  0  0  0  0  0  0  0  0  0  0  0
  191.7200  176.9440  146.7160 N   0  0  0  0  0  2  0  0  0  0  0  0
  192.2640  176.3580  149.0140 O   0  0  0  0  0  1  0  0  0  0  0  0
  193.1560  175.1830  147.2630 O   0  0  0  0  0  0  0  0  0  0  0  0
  190.7850  176.7550  137.1080 C   0  0  0  0  0  1  0  0  0  0  0  0
  189.6820  176.2460  137.9040 N   0  0  0  0  0  2  0  0  0  0  0  0
  188.7930  179.6280  137.2190 O   0  0  0  0  0  1  0  0  0  0  0  0
  187.6920  178.8570  136.8460 C   0  0  0  0  0  2  0  0  0  0  0  0
  1 13  1  0  0  0  0
  1 17  2  0  0  0  0
  2 20  1  1  0  0  0
  3 21  2  0  0  0  0
  4 15  1  0  0  0  0
  4  3  1  0  0  0  0
  5 20  1  6  0  0  0
  5 16  1  0  0  0  0
  7 24  1  0  0  0  0
  7 12  1  0  0  0  0
  8  1  1  0  0  0  0
  9  2  1  0  0  0  0
  9  6  1  1  0  0  0
 10 30  1  6  0  0  0
 10  9  1  0  0  0  0
 11 19  1  6  0  0  0
 11 23  1  0  0  0  0
 12 15  2  0  0  0  0
 14  6  1  6  0  0  0
 14  5  1  0  0  0  0
 14  8  1  0  0  0  0
 16 13  1  0  0  0  0
 17 26  1  0  0  0  0
 18 32  1  1  0  0  0
 18 10  1  0  0  0  0
 18 11  1  0  0  0  0
 19 24  1  0  0  0  0
 22  7  1  0  0  0  0
 23  3  1  1  0  0  0
 23  2  1  0  0  0  0
 24  4  2  0  0  0  0
 25 27  1  0  0  0  0
 26 25  1  0  0  0  0
 28 25  2  0  0  0  0
 29 30  1  0  0  0  0
 32 31  1  0  0  0  0
M  END
>  <MODEL>
1

>  <REMARK>
 VINA RESULT:      -8.0      0.000      0.000
  Name = 
  3 active torsions:
  status: ('A' for Active; 'I' for Inactive)
    1  A    between atoms: N_10  and  C_24
    2  A    between atoms: N_13  and  C_15
    3  A    between atoms: C_25  and  C_26
                            x       y       z     vdW  Elec       q    Type
                         _______ _______ _______ _____ _____    ______ ____

>  <TORSDO>
F 3

$$$$
=
 OpenBabel10272413353D

 32 36  0  0  1  0  0  0  0  0999 V2000
  188.8610  177.1210  145.6310 C   0  0  0  0  0  0  0  0  0  0  0  0
  187.6920  178.2100  140.7800 C   0  0  2  0  0  3  0  0  0  0  0  0
  185.5040  178.8230  139.5430 C   0  0  0  0  0  0  0  0  0  0  0  0
  184.6010  178.2670  138.5460 C   0  0  0  0  0  0  0  0  0  0  0  0
  187.4830  177.1010  143.0890 C   0  0  1  0  0  3  0  0  0  0  0  0
  189.7290  177.1890  141.8870 C   0  0  0  0  0  2  0  0  0  0  0  0
  184.0580  177.2610  136.6620 N   0  0  0  0  0  0  0  0  0  0  0  0
  189.6560  176.8970  144.3800 C   0  0  0  0  0  2  0  0  0  0  0  0
  188.8260  177.1770  140.6440 C   0  0  2  0  0  3  0  0  0  0  0  0
  189.6370  177.3380  139.3540 C   0  0  2  0  0  3  0  0  0  0  0  0
  187.3060  177.4380  138.4370 N   0  0  2  0  0  0  0  0  0  0  0  0
  182.9220  177.6920  137.2490 C   0  0  0  0  0  3  0  0  0  0  0  0
  187.5410  177.8350  145.5560 C   0  0  0  0  0  2  0  0  0  0  0  0
  188.9630  177.5270  143.1740 C   0  0  2  0  0  3  0  0  0  0  0  0
  183.2220  178.3400  138.4470 C   0  0  0  0  0  3  0  0  0  0  0  0
  186.6980  177.2940  144.3980 C   0  0  0  0  0  2  0  0  0  0  0  0
  189.3610  176.7080  146.7930 C   0  0  0  0  0  3  0  0  0  0  0  0
  188.7450  177.4970  138.1080 C   0  0  1  0  0  3  0  0  0  0  0  0
  186.5360  177.5030  137.1800 C   0  0  0  0  0  2  0  0  0  0  0  0
  186.7510  177.7810  141.9230 C   0  0  0  0  0  2  0  0  0  0  0  0
  185.0750  179.6220  140.4190 O   0  0  0  0  0  0  0  0  0  0  0  0
  184.1500  176.5890  135.3780 C   0  0  0  0  0  1  0  0  0  0  0  0
  186.9880  178.5050  139.4280 C   0  0  2  0  0  3  0  0  0  0  0  0
  185.0750  177.6030  137.4640 C   0  0  0  0  0  0  0  0  0  0  0  0
  188.7370  178.1340  148.7450 C   0  0  0  0  0  0  0  0  0  0  0  0
  188.6630  176.9050  148.0230 N   0  0  0  0  0  2  0  0  0  0  0  0
  188.0380  178.2740  149.9360 O   0  0  0  0  0  1  0  0  0  0  0  0
  189.4290  179.0940  148.3130 O   0  0  0  0  0  0  0  0  0  0  0  0
  191.8120  176.7070  138.7800 C   0  0  0  0  0  1  0  0  0  0  0  0
  190.5120  176.1910  139.1720 N   0  0  0  0  0  2  0  0  0  0  0  0
  189.5560  178.4820  136.0740 O   0  0  0  0  0  1  0  0  0  0  0  0
  189.1270  178.7840  137.3670 C   0  0  0  0  0  2  0  0  0  0  0  0
  1 17  2  0  0  0  0
  2 20  1  1  0  0  0
  3 21  2  0  0  0  0
  4  3  1  0  0  0  0
  5 20  1  6  0  0  0
  5 14  1  0  0  0  0
  5 16  1  0  0  0  0
  7 12  1  0  0  0  0
  7 24  1  0  0  0  0
  8  1  1  0  0  0  0
  9  2  1  0  0  0  0
  9  6  1  1  0  0  0
 10 30  1  6  0  0  0
 10  9  1  0  0  0  0
 11 19  1  6  0  0  0
 11 23  1  0  0  0  0
 12 15  2  0  0  0  0
 13  1  1  0  0  0  0
 14  6  1  6  0  0  0
 14  8  1  0  0  0  0
 15  4  1  0  0  0  0
 16 13  1  0  0  0  0
 17 26  1  0  0  0  0
 18 32  1  1  0  0  0
 18 11  1  0  0  0  0
 18 10  1  0  0  0  0
 19 24  1  0  0  0  0
 22  7  1  0  0  0  0
 23  3  1  1  0  0  0
 23  2  1  0  0  0  0
 24  4  2  0  0  0  0
 25 27  1  0  0  0  0
 26 25  1  0  0  0  0
 28 25  2  0  0  0  0
 29 30  1  0  0  0  0
 31 32  1  0  0  0  0
M  END
>  <MODEL>
2

>  <REMARK>
 VINA RESULT:      -7.8      1.893      2.216
  Name = 
  3 active torsions:
  status: ('A' for Active; 'I' for Inactive)
    1  A    between atoms: N_10  and  C_24
    2  A    between atoms: N_13  and  C_15
    3  A    between atoms: C_25  and  C_26
                            x       y       z     vdW  Elec       q    Type
                         _______ _______ _______ _____ _____    ______ ____

>  <TORSDO>
F 3

$$$$
=
 OpenBabel10272413353D

 32 36  0  0  1  0  0  0  0  0999 V2000
  189.6630  177.6970  144.9790 C   0  0  0  0  0  0  0  0  0  0  0  0
  188.0720  178.0510  140.1380 C   0  0  2  0  0  3  0  0  0  0  0  0
  185.7890  178.5250  139.0170 C   0  0  0  0  0  0  0  0  0  0  0  0
  184.7920  177.8450  138.2020 C   0  0  0  0  0  0  0  0  0  0  0  0
  188.0590  177.3200  142.6030 C   0  0  1  0  0  3  0  0  0  0  0  0
  190.1880  177.1590  141.2090 C   0  0  0  0  0  2  0  0  0  0  0  0
  184.0670  176.5750  136.5550 N   0  0  0  0  0  0  0  0  0  0  0  0
  190.3370  177.2600  143.7130 C   0  0  0  0  0  2  0  0  0  0  0  0
  189.1760  176.9780  140.0670 C   0  0  2  0  0  3  0  0  0  0  0  0
  189.8670  176.9150  138.7020 C   0  0  2  0  0  3  0  0  0  0  0  0
  187.4650  176.9350  137.9890 N   0  0  2  0  0  0  0  0  0  0  0  0
  182.9940  177.1220  137.1640 C   0  0  0  0  0  3  0  0  0  0  0  0
  188.3520  178.4270  144.9090 C   0  0  0  0  0  2  0  0  0  0  0  0
  189.5460  177.7140  142.4880 C   0  0  2  0  0  3  0  0  0  0  0  0
  183.4110  177.9410  138.2150 C   0  0  0  0  0  3  0  0  0  0  0  0
  187.4000  177.7360  143.9280 C   0  0  0  0  0  2  0  0  0  0  0  0
  190.2610  177.4560  146.1430 C   0  0  0  0  0  3  0  0  0  0  0  0
  188.8680  176.9030  137.5300 C   0  0  1  0  0  3  0  0  0  0  0  0
  186.5840  176.8250  136.8090 C   0  0  0  0  0  2  0  0  0  0  0  0
  187.2330  177.8310  141.4130 C   0  0  0  0  0  2  0  0  0  0  0  0
  185.4530  179.4620  139.7910 O   0  0  0  0  0  0  0  0  0  0  0  0
  184.0320  175.7090  135.3900 C   0  0  0  0  0  1  0  0  0  0  0  0
  187.2520  178.1520  138.8230 C   0  0  2  0  0  3  0  0  0  0  0  0
  185.1560  177.0090  137.2020 C   0  0  0  0  0  0  0  0  0  0  0  0
  188.5640  177.1790  147.9530 C   0  0  0  0  0  0  0  0  0  0  0  0
  189.6800  177.8620  147.3830 N   0  0  0  0  0  2  0  0  0  0  0  0
  188.0380  177.6150  149.1620 O   0  0  0  0  0  1  0  0  0  0  0  0
  188.0510  176.1860  147.3720 O   0  0  0  0  0  0  0  0  0  0  0  0
  191.9650  176.1380  138.0240 C   0  0  0  0  0  1  0  0  0  0  0  0
  190.7070  175.7300  138.6260 N   0  0  0  0  0  2  0  0  0  0  0  0
  189.5890  177.5340  135.3280 O   0  0  0  0  0  1  0  0  0  0  0  0
  189.1990  178.0480  136.5650 C   0  0  0  0  0  2  0  0  0  0  0  0
  1 17  2  0  0  0  0
  2 20  1  1  0  0  0
  3 21  2  0  0  0  0
  4 15  1  0  0  0  0
  4  3  1  0  0  0  0
  5 20  1  6  0  0  0
  5 16  1  0  0  0  0
  7 12  1  0  0  0  0
  7 24  1  0  0  0  0
  8  1  1  0  0  0  0
  9  2  1  0  0  0  0
  9  6  1  1  0  0  0
 10 30  1  1  0  0  0
 10  9  1  0  0  0  0
 11 19  1  6  0  0  0
 11 23  1  0  0  0  0
 12 15  2  0  0  0  0
 13  1  1  0  0  0  0
 14  6  1  6  0  0  0
 14  5  1  0  0  0  0
 14  8  1  0  0  0  0
 16 13  1  0  0  0  0
 17 26  1  0  0  0  0
 18 32  1  6  0  0  0
 18 11  1  0  0  0  0
 18 10  1  0  0  0  0
 19 24  1  0  0  0  0
 22  7  1  0  0  0  0
 23  3  1  1  0  0  0
 23  2  1  0  0  0  0
 24  4  2  0  0  0  0
 25 27  1  0  0  0  0
 26 25  1  0  0  0  0
 28 25  2  0  0  0  0
 29 30  1  0  0  0  0
 31 32  1  0  0  0  0
M  END
>  <MODEL>
3

>  <REMARK>
 VINA RESULT:      -7.3      1.890      2.097
  Name = 
  3 active torsions:
  status: ('A' for Active; 'I' for Inactive)
    1  A    between atoms: N_10  and  C_24
    2  A    between atoms: N_13  and  C_15
    3  A    between atoms: C_25  and  C_26
                            x       y       z     vdW  Elec       q    Type
                         _______ _______ _______ _____ _____    ______ ____

>  <TORSDO>
F 3

$$$$
=
 OpenBabel10272413353D

 32 36  0  0  1  0  0  0  0  0999 V2000
  192.4260  174.9290  137.5120 C   0  0  0  0  0  0  0  0  0  0  0  0
  187.5240  176.1850  136.8170 C   0  0  2  0  0  3  0  0  0  0  0  0
  185.9820  178.0350  137.7610 C   0  0  0  0  0  0  0  0  0  0  0  0
  184.8170  178.1750  138.6230 C   0  0  0  0  0  0  0  0  0  0  0  0
  189.6950  175.6760  138.0970 C   0  0  1  0  0  3  0  0  0  0  0  0
  188.8880  174.1300  136.2370 C   0  0  0  0  0  2  0  0  0  0  0  0
  182.8110  177.6800  139.3880 N   0  0  0  0  0  0  0  0  0  0  0  0
  191.3120  174.1390  136.8940 C   0  0  0  0  0  2  0  0  0  0  0  0
  187.5150  174.6500  136.6880 C   0  0  2  0  0  3  0  0  0  0  0  0
  186.3890  174.1280  135.7900 C   0  0  2  0  0  3  0  0  0  0  0  0
  185.1070  175.7220  137.2370 N   0  0  2  0  0  0  0  0  0  0  0  0
  183.2270  178.8080  140.0030 C   0  0  0  0  0  3  0  0  0  0  0  0
  192.1780  176.3420  137.9560 C   0  0  0  0  0  2  0  0  0  0  0  0
  190.0490  174.9870  136.7630 C   0  0  2  0  0  3  0  0  0  0  0  0
  184.4960  179.1590  139.5410 C   0  0  0  0  0  3  0  0  0  0  0  0
  190.8650  176.4410  138.7380 C   0  0  0  0  0  2  0  0  0  0  0  0
  193.6270  174.3670  137.6250 C   0  0  0  0  0  3  0  0  0  0  0  0
  185.0250  174.7640  136.1160 C   0  0  1  0  0  3  0  0  0  0  0  0
  183.7460  176.2070  137.5390 C   0  0  0  0  0  2  0  0  0  0  0  0
  188.4680  176.5900  137.9670 C   0  0  0  0  0  2  0  0  0  0  0  0
  186.8220  178.9700  137.6660 O   0  0  0  0  0  0  0  0  0  0  0  0
  181.5210  177.0390  139.5720 C   0  0  0  0  0  1  0  0  0  0  0  0
  186.0950  176.7860  136.8990 C   0  0  2  0  0  3  0  0  0  0  0  0
  183.7900  177.2940  138.5600 C   0  0  0  0  0  0  0  0  0  0  0  0
  195.7200  174.4150  138.9860 C   0  0  0  0  0  0  0  0  0  0  0  0
  194.7340  175.0710  138.1890 N   0  0  0  0  0  2  0  0  0  0  0  0
  196.7760  175.1460  139.5100 O   0  0  0  0  0  1  0  0  0  0  0  0
  195.6410  173.1790  139.2190 O   0  0  0  0  0  0  0  0  0  0  0  0
  185.1620  172.4130  136.7980 C   0  0  0  0  0  1  0  0  0  0  0  0
  186.2840  172.6820  135.9160 N   0  0  0  0  0  2  0  0  0  0  0  0
  183.4110  174.5900  134.3460 O   0  0  0  0  0  1  0  0  0  0  0  0
  184.4380  175.3930  134.8460 C   0  0  0  0  0  2  0  0  0  0  0  0
  1 17  2  0  0  0  0
  1 13  1  0  0  0  0
  2 23  1  0  0  0  0
  2 20  1  1  0  0  0
  3  4  1  0  0  0  0
  4 15  1  0  0  0  0
  5 20  1  6  0  0  0
  5 16  1  0  0  0  0
  7 22  1  0  0  0  0
  7 12  1  0  0  0  0
  8  1  1  0  0  0  0
  9  6  1  6  0  0  0
  9  2  1  0  0  0  0
 10 30  1  1  0  0  0
 10 18  1  0  0  0  0
 10  9  1  0  0  0  0
 11 19  1  6  0  0  0
 13 16  1  0  0  0  0
 14  6  1  1  0  0  0
 14  8  1  0  0  0  0
 14  5  1  0  0  0  0
 15 12  2  0  0  0  0
 17 26  1  0  0  0  0
 18 32  1  6  0  0  0
 18 11  1  0  0  0  0
 19 24  1  0  0  0  0
 21  3  2  0  0  0  0
 23 11  1  0  0  0  0
 23  3  1  1  0  0  0
 24  4  2  0  0  0  0
 24  7  1  0  0  0  0
 25 28  2  0  0  0  0
 25 27  1  0  0  0  0
 26 25  1  0  0  0  0
 30 29  1  0  0  0  0
 31 32  1  0  0  0  0
M  END
>  <MODEL>
4

>  <REMARK>
 VINA RESULT:      -6.7      4.578      5.716
  Name = 
  3 active torsions:
  status: ('A' for Active; 'I' for Inactive)
    1  A    between atoms: N_10  and  C_24
    2  A    between atoms: N_13  and  C_15
    3  A    between atoms: C_25  and  C_26
                            x       y       z     vdW  Elec       q    Type
                         _______ _______ _______ _____ _____    ______ ____

>  <TORSDO>
F 3

$$$$
=
 OpenBabel10272413353D

 32 36  0  0  1  0  0  0  0  0999 V2000
  184.4470  178.8760  143.0830 C   0  0  0  0  0  0  0  0  0  0  0  0
  188.6660  178.2770  140.2680 C   0  0  2  0  0  3  0  0  0  0  0  0
  189.1940  178.4620  137.7410 C   0  0  0  0  0  0  0  0  0  0  0  0
  189.5810  177.6120  136.6240 C   0  0  0  0  0  0  0  0  0  0  0  0
  186.2030  178.0150  140.9530 C   0  0  1  0  0  3  0  0  0  0  0  0
  188.0700  177.6660  142.6530 C   0  0  0  0  0  2  0  0  0  0  0  0
  190.7310  176.0360  135.6010 N   0  0  0  0  0  0  0  0  0  0  0  0
  185.7540  178.2330  143.4390 C   0  0  0  0  0  2  0  0  0  0  0  0
  188.8490  177.2450  141.3970 C   0  0  2  0  0  3  0  0  0  0  0  0
  190.3180  176.9520  141.7130 C   0  0  2  0  0  3  0  0  0  0  0  0
  190.3500  176.7640  139.2140 N   0  0  2  0  0  0  0  0  0  0  0  0
  189.9570  176.6530  134.6830 C   0  0  0  0  0  3  0  0  0  0  0  0
  184.2840  179.5390  141.7450 C   0  0  0  0  0  2  0  0  0  0  0  0
  186.7790  178.4280  142.3230 C   0  0  2  0  0  3  0  0  0  0  0  0
  189.2130  177.6650  135.2920 C   0  0  0  0  0  3  0  0  0  0  0  0
  184.8390  178.6480  140.6290 C   0  0  0  0  0  2  0  0  0  0  0  0
  183.4640  178.8740  143.9800 C   0  0  0  0  0  3  0  0  0  0  0  0
  191.1580  176.6920  140.4490 C   0  0  1  0  0  3  0  0  0  0  0  0
  191.2110  176.4090  138.0690 C   0  0  0  0  0  2  0  0  0  0  0  0
  187.1940  178.2700  139.8090 C   0  0  0  0  0  2  0  0  0  0  0  0
  188.5290  179.5150  137.5440 O   0  0  0  0  0  0  0  0  0  0  0  0
  191.6790  174.9690  135.3340 C   0  0  0  0  0  1  0  0  0  0  0  0
  189.7080  178.1070  139.1290 C   0  0  2  0  0  3  0  0  0  0  0  0
  190.4860  176.6170  136.7820 C   0  0  0  0  0  0  0  0  0  0  0  0
  181.2380  178.8770  142.8500 C   0  0  0  0  0  0  0  0  0  0  0  0
  182.2010  179.4830  143.7110 N   0  0  0  0  0  2  0  0  0  0  0  0
  180.0250  179.5110  142.6220 O   0  0  0  0  0  1  0  0  0  0  0  0
  181.4760  177.7710  142.2950 O   0  0  0  0  0  0  0  0  0  0  0  0
  191.3260  176.1640  143.6690 C   0  0  0  0  0  1  0  0  0  0  0  0
  190.4160  175.8010  142.5970 N   0  0  0  0  0  2  0  0  0  0  0  0
  193.5450  176.9230  140.3350 O   0  0  0  0  0  1  0  0  0  0  0  0
  192.3560  177.6480  140.4250 C   0  0  0  0  0  2  0  0  0  0  0  0
  1  8  1  0  0  0  0
  1 17  2  0  0  0  0
  2 20  1  6  0  0  0
  2  9  1  0  0  0  0
  4 24  2  0  0  0  0
  4  3  1  0  0  0  0
  5 20  1  6  0  0  0
  5 14  1  0  0  0  0
  7 24  1  0  0  0  0
  9 10  1  0  0  0  0
  9  6  1  1  0  0  0
 10 30  1  1  0  0  0
 11 19  1  6  0  0  0
 11 18  1  0  0  0  0
 12 15  2  0  0  0  0
 12  7  1  0  0  0  0
 13  1  1  0  0  0  0
 14  6  1  1  0  0  0
 14  8  1  0  0  0  0
 15  4  1  0  0  0  0
 16  5  1  0  0  0  0
 16 13  1  0  0  0  0
 18 32  1  6  0  0  0
 18 10  1  0  0  0  0
 21  3  2  0  0  0  0
 22  7  1  0  0  0  0
 23  3  1  6  0  0  0
 23 11  1  0  0  0  0
 23  2  1  0  0  0  0
 24 19  1  0  0  0  0
 25 26  1  0  0  0  0
 26 17  1  0  0  0  0
 27 25  1  0  0  0  0
 28 25  2  0  0  0  0
 30 29  1  0  0  0  0
 31 32  1  0  0  0  0
M  END
>  <MODEL>
5

>  <REMARK>
 VINA RESULT:      -6.6      3.163      7.031
  Name = 
  3 active torsions:
  status: ('A' for Active; 'I' for Inactive)
    1  A    between atoms: N_10  and  C_24
    2  A    between atoms: N_13  and  C_15
    3  A    between atoms: C_25  and  C_26
                            x       y       z     vdW  Elec       q    Type
                         _______ _______ _______ _____ _____    ______ ____

>  <TORSDO>
F 3

$$$$
=
 OpenBabel10272413353D

 32 36  0  0  1  0  0  0  0  0999 V2000
  183.9250  179.2340  139.8530 C   0  0  0  0  0  0  0  0  0  0  0  0
  187.2450  177.3160  143.2290 C   0  0  2  0  0  3  0  0  0  0  0  0
  187.2210  176.9770  145.7940 C   0  0  0  0  0  0  0  0  0  0  0  0
  187.8920  177.4770  146.9850 C   0  0  0  0  0  0  0  0  0  0  0  0
  185.5500  178.9710  142.2310 C   0  0  1  0  0  3  0  0  0  0  0  0
  187.4530  178.0430  140.8110 C   0  0  0  0  0  2  0  0  0  0  0  0
  189.6140  178.0940  148.2130 N   0  0  0  0  0  0  0  0  0  0  0  0
  185.3880  178.9430  139.7010 C   0  0  0  0  0  2  0  0  0  0  0  0
  188.1560  177.9730  142.1750 C   0  0  2  0  0  3  0  0  0  0  0  0
  189.5320  177.3070  142.0700 C   0  0  2  0  0  3  0  0  0  0  0  0
  189.3450  177.5630  144.5560 N   0  0  2  0  0  0  0  0  0  0  0  0
  188.5140  178.1130  148.9950 C   0  0  0  0  0  3  0  0  0  0  0  0
  183.2240  178.8700  141.1320 C   0  0  0  0  0  2  0  0  0  0  0  0
  185.9340  178.2270  140.9350 C   0  0  2  0  0  3  0  0  0  0  0  0
  187.3970  177.7240  148.2530 C   0  0  0  0  0  3  0  0  0  0  0  0
  184.0530  179.3020  142.3450 C   0  0  0  0  0  2  0  0  0  0  0  0
  183.2690  179.7810  138.8340 C   0  0  0  0  0  3  0  0  0  0  0  0
  190.1860  177.0730  143.4440 C   0  0  1  0  0  3  0  0  0  0  0  0
  190.0890  177.3850  145.8190 C   0  0  0  0  0  2  0  0  0  0  0  0
  186.0290  178.2290  143.4870 C   0  0  0  0  0  2  0  0  0  0  0  0
  186.0370  176.5470  145.8600 O   0  0  0  0  0  0  0  0  0  0  0  0
  190.9680  178.3890  148.6450 C   0  0  0  0  0  1  0  0  0  0  0  0
  188.0210  176.8820  144.5020 C   0  0  2  0  0  3  0  0  0  0  0  0
  189.2250  177.7200  146.9880 C   0  0  0  0  0  0  0  0  0  0  0  0
  181.3570  181.3810  138.6880 C   0  0  0  0  0  0  0  0  0  0  0  0
  181.8720  180.0680  138.9080 N   0  0  0  0  0  2  0  0  0  0  0  0
  179.9900  181.6060  138.7720 O   0  0  0  0  0  1  0  0  0  0  0  0
  182.1300  182.3390  138.4190 O   0  0  0  0  0  0  0  0  0  0  0  0
  191.0670  177.2310  140.3090 C   0  0  0  0  0  1  0  0  0  0  0  0
  190.4160  178.1230  141.2520 N   0  0  0  0  0  2  0  0  0  0  0  0
  191.9230  175.4560  143.8090 O   0  0  0  0  0  1  0  0  0  0  0  0
  190.5510  175.5910  143.5910 C   0  0  0  0  0  2  0  0  0  0  0  0
  1 13  1  0  0  0  0
  2 20  1  1  0  0  0
  2 23  1  0  0  0  0
  3 21  2  0  0  0  0
  3  4  1  0  0  0  0
  4 24  2  0  0  0  0
  4 15  1  0  0  0  0
  5 16  1  1  0  0  0
  5 20  1  0  0  0  0
  6 14  1  0  0  0  0
  7 22  1  0  0  0  0
  7 12  1  0  0  0  0
  8  1  1  0  0  0  0
  9  6  1  6  0  0  0
  9  2  1  0  0  0  0
 10 30  1  6  0  0  0
 10  9  1  0  0  0  0
 10 18  1  0  0  0  0
 11 19  1  1  0  0  0
 13 16  1  0  0  0  0
 14  8  1  6  0  0  0
 14  5  1  0  0  0  0
 15 12  2  0  0  0  0
 17 26  1  0  0  0  0
 17  1  2  0  0  0  0
 18 32  1  1  0  0  0
 18 11  1  0  0  0  0
 19 24  1  0  0  0  0
 23 11  1  0  0  0  0
 23  3  1  1  0  0  0
 24  7  1  0  0  0  0
 25 27  1  0  0  0  0
 25 26  1  0  0  0  0
 28 25  2  0  0  0  0
 29 30  1  0  0  0  0
 32 31  1  0  0  0  0
M  END
>  <MODEL>
6

>  <REMARK>
 VINA RESULT:      -6.4      2.914      8.843
  Name = 
  3 active torsions:
  status: ('A' for Active; 'I' for Inactive)
    1  A    between atoms: N_10  and  C_24
    2  A    between atoms: N_13  and  C_15
    3  A    between atoms: C_25  and  C_26
                            x       y       z     vdW  Elec       q    Type
                         _______ _______ _______ _____ _____    ______ ____

>  <TORSDO>
F 3

$$$$
=
 OpenBabel10272413353D

 32 36  0  0  1  0  0  0  0  0999 V2000
  189.2010  177.1190  137.7680 C   0  0  0  0  0  0  0  0  0  0  0  0
  193.1770  174.0530  136.8290 C   0  0  2  0  0  3  0  0  0  0  0  0
  193.4340  171.6850  135.8170 C   0  0  0  0  0  0  0  0  0  0  0  0
  193.8240  170.3420  136.2230 C   0  0  0  0  0  0  0  0  0  0  0  0
  190.8470  174.7430  137.6670 C   0  0  1  0  0  3  0  0  0  0  0  0
  192.8970  176.1570  138.2110 C   0  0  0  0  0  2  0  0  0  0  0  0
  195.0730  168.8260  137.2200 N   0  0  0  0  0  0  0  0  0  0  0  0
  190.6100  177.1930  138.2740 C   0  0  0  0  0  2  0  0  0  0  0  0
  193.6020  174.7970  138.1090 C   0  0  2  0  0  3  0  0  0  0  0  0
  195.1210  174.9340  138.2500 C   0  0  2  0  0  3  0  0  0  0  0  0
  194.9410  172.5010  137.6750 N   0  0  2  0  0  0  0  0  0  0  0  0
  194.1400  168.1830  136.4870 C   0  0  0  0  0  3  0  0  0  0  0  0
  188.8250  176.0600  136.7700 C   0  0  0  0  0  2  0  0  0  0  0  0
  191.4900  176.1440  137.5970 C   0  0  2  0  0  3  0  0  0  0  0  0
  193.3270  169.1110  135.8330 C   0  0  0  0  0  3  0  0  0  0  0  0
  189.3860  174.6980  137.1880 C   0  0  0  0  0  2  0  0  0  0  0  0
  188.3170  178.0180  138.1920 C   0  0  0  0  0  3  0  0  0  0  0  0
  195.8650  173.6120  137.9850 C   0  0  1  0  0  3  0  0  0  0  0  0
  195.7300  171.2620  137.5320 C   0  0  0  0  0  2  0  0  0  0  0  0
  191.6820  173.6870  136.9290 C   0  0  0  0  0  2  0  0  0  0  0  0
  192.6180  171.8560  134.8710 O   0  0  0  0  0  0  0  0  0  0  0  0
  196.1260  168.1960  137.9970 C   0  0  0  0  0  1  0  0  0  0  0  0
  194.1200  172.8680  136.4860 C   0  0  2  0  0  3  0  0  0  0  0  0
  194.8650  170.1400  137.0650 C   0  0  0  0  0  0  0  0  0  0  0  0
  185.8820  178.4130  138.5750 C   0  0  0  0  0  0  0  0  0  0  0  0
  186.9640  178.0130  137.7360 N   0  0  0  0  0  2  0  0  0  0  0  0
  184.5840  178.3890  138.0820 O   0  0  0  0  0  0  0  0  0  0  0  0
  186.0910  178.7880  139.7600 O   0  0  0  0  0  1  0  0  0  0  0  0
  196.6950  174.7610  139.9690 C   0  0  0  0  0  1  0  0  0  0  0  0
  195.4550  175.4120  139.5820 N   0  0  0  0  0  2  0  0  0  0  0  0
  196.9260  175.1640  136.4920 O   0  0  0  0  0  1  0  0  0  0  0  0
  196.9160  173.8260  136.8900 C   0  0  0  0  0  2  0  0  0  0  0  0
  1 17  2  0  0  0  0
  1  8  1  0  0  0  0
  2 20  1  1  0  0  0
  2  9  1  0  0  0  0
  3  4  1  0  0  0  0
  4 24  2  0  0  0  0
  5 20  1  6  0  0  0
  7 22  1  0  0  0  0
  9  6  1  6  0  0  0
  9 10  1  0  0  0  0
 10 30  1  1  0  0  0
 11 19  1  6  0  0  0
 11 18  1  0  0  0  0
 12  7  1  0  0  0  0
 13 16  1  0  0  0  0
 13  1  1  0  0  0  0
 14  5  1  0  0  0  0
 14  6  1  1  0  0  0
 14  8  1  0  0  0  0
 15  4  1  0  0  0  0
 15 12  2  0  0  0  0
 16  5  1  0  0  0  0
 18 32  1  6  0  0  0
 18 10  1  0  0  0  0
 21  3  2  0  0  0  0
 23  3  1  1  0  0  0
 23  2  1  0  0  0  0
 23 11  1  0  0  0  0
 24  7  1  0  0  0  0
 24 19  1  0  0  0  0
 25 28  1  0  0  0  0
 26 17  1  0  0  0  0
 26 25  1  0  0  0  0
 27 25  2  0  0  0  0
 30 29  1  0  0  0  0
 31 32  1  0  0  0  0
M  END
>  <MODEL>
7

>  <REMARK>
 VINA RESULT:      -5.8      5.712     10.289
  Name = 
  3 active torsions:
  status: ('A' for Active; 'I' for Inactive)
    1  A    between atoms: N_10  and  C_24
    2  A    between atoms: N_13  and  C_15
    3  A    between atoms: C_25  and  C_26
                            x       y       z     vdW  Elec       q    Type
                         _______ _______ _______ _____ _____    ______ ____

>  <TORSDO>
F 3

$$$$
=
 OpenBabel10272413353D

 32 36  0  0  1  0  0  0  0  0999 V2000
  190.5350  176.8780  138.1740 C   0  0  0  0  0  0  0  0  0  0  0  0
  186.1080  178.7880  139.8580 C   0  0  2  0  0  3  0  0  0  0  0  0
  185.2340  179.5570  142.1690 C   0  0  0  0  0  0  0  0  0  0  0  0
  184.2510  179.1650  143.1690 C   0  0  0  0  0  0  0  0  0  0  0  0
  188.1870  177.2780  139.8140 C   0  0  1  0  0  3  0  0  0  0  0  0
  186.7960  177.6380  137.7090 C   0  0  0  0  0  2  0  0  0  0  0  0
  182.2830  178.4990  143.9010 N   0  0  0  0  0  0  0  0  0  0  0  0
  189.1890  176.9020  137.5150 C   0  0  0  0  0  2  0  0  0  0  0  0
  185.6710  177.8260  138.7380 C   0  0  2  0  0  3  0  0  0  0  0  0
  184.3550  178.2370  138.0700 C   0  0  2  0  0  3  0  0  0  0  0  0
  183.7160  178.4390  140.4850 N   0  0  2  0  0  0  0  0  0  0  0  0
  183.0520  178.7880  144.9730 C   0  0  0  0  0  3  0  0  0  0  0  0
  190.7270  177.5600  139.4990 C   0  0  0  0  0  2  0  0  0  0  0  0
  188.1950  177.7210  138.3360 C   0  0  2  0  0  3  0  0  0  0  0  0
  184.3100  179.2190  144.5510 C   0  0  0  0  0  3  0  0  0  0  0  0
  189.5830  177.2130  140.4570 C   0  0  0  0  0  2  0  0  0  0  0  0
  191.5450  176.2770  137.5510 C   0  0  0  0  0  3  0  0  0  0  0  0
  183.2570  178.5930  139.0890 C   0  0  1  0  0  3  0  0  0  0  0  0
  182.5770  178.7080  141.3850 C   0  0  0  0  0  2  0  0  0  0  0  0
  187.2460  178.1370  140.6700 C   0  0  0  0  0  2  0  0  0  0  0  0
  186.2800  180.1740  142.5080 O   0  0  0  0  0  0  0  0  0  0  0  0
  180.8960  178.0710  143.9420 C   0  0  0  0  0  1  0  0  0  0  0  0
  184.9110  179.3030  140.7040 C   0  0  2  0  0  3  0  0  0  0  0  0
  183.0250  178.7180  142.8080 C   0  0  0  0  0  0  0  0  0  0  0  0
  193.7500  175.1470  137.8680 C   0  0  0  0  0  0  0  0  0  0  0  0
  192.8560  176.2320  138.1160 N   0  0  0  0  0  2  0  0  0  0  0  0
  195.0130  175.1540  138.4420 O   0  0  0  0  0  1  0  0  0  0  0  0
  193.4040  174.1840  137.1330 O   0  0  0  0  0  0  0  0  0  0  0  0
  183.2670  176.1680  138.0730 C   0  0  0  0  0  1  0  0  0  0  0  0
  183.8790  177.1640  137.2110 N   0  0  0  0  0  2  0  0  0  0  0  0
  181.7180  179.9420  137.8340 O   0  0  0  0  0  1  0  0  0  0  0  0
  182.7260  180.0020  138.7970 C   0  0  0  0  0  2  0  0  0  0  0  0
  1 13  1  0  0  0  0
  2 20  1  1  0  0  0
  2 23  1  0  0  0  0
  3 21  2  0  0  0  0
  3  4  1  0  0  0  0
  4 15  1  0  0  0  0
  5 16  1  1  0  0  0
  5 20  1  0  0  0  0
  6 14  1  0  0  0  0
  7 22  1  0  0  0  0
  7 12  1  0  0  0  0
  8  1  1  0  0  0  0
  9  6  1  6  0  0  0
  9  2  1  0  0  0  0
 10 30  1  1  0  0  0
 10  9  1  0  0  0  0
 10 18  1  0  0  0  0
 11 23  1  0  0  0  0
 11 19  1  1  0  0  0
 13 16  1  0  0  0  0
 14  8  1  6  0  0  0
 14  5  1  0  0  0  0
 15 12  2  0  0  0  0
 17 26  1  0  0  0  0
 17  1  2  0  0  0  0
 18 32  1  1  0  0  0
 18 11  1  0  0  0  0
 19 24  1  0  0  0  0
 23  3  1  1  0  0  0
 24  4  2  0  0  0  0
 24  7  1  0  0  0  0
 25 26  1  0  0  0  0
 25 27  1  0  0  0  0
 28 25  2  0  0  0  0
 30 29  1  0  0  0  0
 31 32  1  0  0  0  0
M  END
>  <MODEL>
8

>  <REMARK>
 VINA RESULT:      -5.7      3.903      5.793
  Name = 
  3 active torsions:
  status: ('A' for Active; 'I' for Inactive)
    1  A    between atoms: N_10  and  C_24
    2  A    between atoms: N_13  and  C_15
    3  A    between atoms: C_25  and  C_26
                            x       y       z     vdW  Elec       q    Type
                         _______ _______ _______ _____ _____    ______ ____

>  <TORSDO>
F 3

$$$$
=
 OpenBabel10272413353D

 32 36  0  0  1  0  0  0  0  0999 V2000
  189.0070  177.4180  137.2950 C   0  0  0  0  0  0  0  0  0  0  0  0
  188.1900  178.4360  142.2330 C   0  0  2  0  0  3  0  0  0  0  0  0
  189.6570  178.3480  144.3620 C   0  0  0  0  0  0  0  0  0  0  0  0
  189.7630  177.5980  145.6050 C   0  0  0  0  0  0  0  0  0  0  0  0
  189.0040  177.1330  140.1720 C   0  0  1  0  0  3  0  0  0  0  0  0
  186.6470  178.1010  140.2520 C   0  0  0  0  0  2  0  0  0  0  0  0
  189.0200  176.6290  147.4390 N   0  0  0  0  0  0  0  0  0  0  0  0
  187.7160  177.5930  138.0370 C   0  0  0  0  0  2  0  0  0  0  0  0
  186.8330  177.8800  141.7600 C   0  0  2  0  0  3  0  0  0  0  0  0
  185.6470  178.4220  142.5630 C   0  0  2  0  0  3  0  0  0  0  0  0
  187.1950  177.7790  144.4270 N   0  0  2  0  0  0  0  0  0  0  0  0
  190.3690  176.5840  147.4590 C   0  0  0  0  0  3  0  0  0  0  0  0
  190.3110  177.6300  138.0100 C   0  0  0  0  0  2  0  0  0  0  0  0
  187.9700  178.0410  139.4750 C   0  0  2  0  0  3  0  0  0  0  0  0
  190.8820  177.1930  146.3130 C   0  0  0  0  0  3  0  0  0  0  0  0
  190.3010  176.9280  139.3710 C   0  0  0  0  0  2  0  0  0  0  0  0
  188.9680  177.1100  136.0010 C   0  0  0  0  0  3  0  0  0  0  0  0
  185.8830  178.3640  144.0840 C   0  0  1  0  0  3  0  0  0  0  0  0
  187.2930  177.6760  145.8960 C   0  0  0  0  0  2  0  0  0  0  0  0
  189.3250  177.6100  141.5960 C   0  0  0  0  0  2  0  0  0  0  0  0
  190.6790  178.8700  143.8410 O   0  0  0  0  0  0  0  0  0  0  0  0
  188.1380  176.1420  148.4850 C   0  0  0  0  0  1  0  0  0  0  0  0
  188.2710  178.5800  143.7770 C   0  0  2  0  0  3  0  0  0  0  0  0
  188.6590  177.2350  146.3010 C   0  0  0  0  0  0  0  0  0  0  0  0
  190.8130  175.6830  135.1100 C   0  0  0  0  0  0  0  0  0  0  0  0
  190.1600  176.9460  135.2320 N   0  0  0  0  0  2  0  0  0  0  0  0
  191.9700  175.5790  134.3500 O   0  0  0  0  0  0  0  0  0  0  0  0
  190.3500  174.6610  135.6830 O   0  0  0  0  0  1  0  0  0  0  0  0
  183.3940  178.6450  141.9850 C   0  0  0  0  0  1  0  0  0  0  0  0
  184.4440  177.6730  142.2370 N   0  0  0  0  0  2  0  0  0  0  0  0
  184.4020  179.8770  145.2180 O   0  0  0  0  0  1  0  0  0  0  0  0
  185.6870  179.7610  144.6850 C   0  0  0  0  0  2  0  0  0  0  0  0
  1 13  1  0  0  0  0
  1  8  1  0  0  0  0
  2 20  1  1  0  0  0
  2 23  1  0  0  0  0
  3  4  1  0  0  0  0
  4 24  2  0  0  0  0
  4 15  1  0  0  0  0
  5 16  1  6  0  0  0
  5 20  1  0  0  0  0
  7 12  1  0  0  0  0
  7 22  1  0  0  0  0
  9  6  1  6  0  0  0
  9  2  1  0  0  0  0
  9 10  1  0  0  0  0
 10 30  1  1  0  0  0
 10 18  1  0  0  0  0
 11 19  1  1  0  0  0
 13 16  1  0  0  0  0
 14  8  1  6  0  0  0
 14  5  1  0  0  0  0
 14  6  1  0  0  0  0
 15 12  2  0  0  0  0
 17  1  2  0  0  0  0
 18 11  1  0  0  0  0
 18 32  1  6  0  0  0
 19 24  1  0  0  0  0
 21  3  2  0  0  0  0
 23  3  1  1  0  0  0
 23 11  1  0  0  0  0
 24  7  1  0  0  0  0
 25 26  1  0  0  0  0
 25 28  1  0  0  0  0
 26 17  1  0  0  0  0
 27 25  2  0  0  0  0
 29 30  1  0  0  0  0
 32 31  1  0  0  0  0
M  END
>  <MODEL>
9

>  <REMARK>
 VINA RESULT:      -5.6      2.844      8.262
  Name = 
  3 active torsions:
  status: ('A' for Active; 'I' for Inactive)
    1  A    between atoms: N_10  and  C_24
    2  A    between atoms: N_13  and  C_15
    3  A    between atoms: C_25  and  C_26
                            x       y       z     vdW  Elec       q    Type
                         _______ _______ _______ _____ _____    ______ ____

>  <TORSDO>
F 3

$$$$
