=
 OpenBabel10272400353D

 31 33  0  0  1  0  0  0  0  0999 V2000
  186.8690  177.7620  145.2740 C   0  0  0  0  0  0  0  0  0  0  0  0
  188.2120  178.2840  141.7550 C   0  0  2  0  0  3  0  0  0  0  0  0
  189.4790  177.4830  141.6550 C   0  0  1  0  0  3  0  0  0  0  0  0
  187.2920  178.0840  142.9130 C   0  0  0  0  0  0  0  0  0  0  0  0
  185.5050  177.9910  145.0620 C   0  0  0  0  0  3  0  0  0  0  0  0
  186.4350  178.8190  140.2760 N   0  0  0  0  0  0  0  0  0  0  0  0
  187.4560  177.4140  146.8850 Cl  0  0  0  0  0  0  0  0  0  0  0  0
  188.6820  177.8600  139.5590 C   0  0  2  0  0  3  0  0  0  0  0  0
  185.3850  178.5990  141.2980 C   0  0  0  0  0  2  0  0  0  0  0  0
  187.5150  177.8570  140.5230 C   0  0  1  0  0  3  0  0  0  0  0  0
  187.7660  177.8200  144.2030 C   0  0  0  0  0  3  0  0  0  0  0  0
  185.9210  178.3490  142.7010 C   0  0  0  0  0  0  0  0  0  0  0  0
  185.0320  178.2820  143.7780 C   0  0  0  0  0  3  0  0  0  0  0  0
  188.4340  176.8810  138.4280 C   0  0  0  0  0  1  0  0  0  0  0  0
  189.8290  177.4540  140.2830 O   0  0  0  0  0  0  0  0  0  0  0  0
  190.5330  178.1320  142.4190 N   0  0  0  0  0  2  0  0  0  0  0  0
  191.6230  177.1790  142.5510 C   0  0  0  0  0  2  0  0  0  0  0  0
  191.5700  176.5240  143.8870 C   0  0  0  0  0  0  0  0  0  0  0  0
  191.9910  175.2080  144.0330 O   0  0  0  0  0  0  0  0  0  0  0  0
  191.1750  177.1710  144.8920 O   0  0  0  0  0  1  0  0  0  0  0  0
  185.8180  178.5190  138.9900 C   0  0  0  0  0  2  0  0  0  0  0  0
  183.4290  176.8450  138.5380 C   0  0  0  0  0  1  0  0  0  0  0  0
  184.3120  180.3480  139.1150 O   0  0  0  0  0  0  0  0  0  0  0  0
  184.4450  179.1080  138.9340 C   0  0  0  0  0  0  0  0  0  0  0  0
  183.2970  178.2900  138.6300 N   0  0  0  0  0  0  0  0  0  0  0  0
  181.5870  178.6770  136.9120 C   0  0  0  0  0  1  0  0  0  0  0  0
  181.9730  178.8560  138.3700 C   0  0  1  0  0  3  0  0  0  0  0  0
  180.9100  178.2460  139.2780 C   0  0  0  0  0  2  0  0  0  0  0  0
  180.5660  179.1770  140.4300 C   0  0  1  0  0  3  0  0  0  0  0  0
  181.4990  178.9000  141.5890 C   0  0  0  0  0  1  0  0  0  0  0  0
  180.7140  180.5060  140.0310 O   0  0  0  0  0  1  0  0  0  0  0  0
  1  7  1  0  0  0  0
  2  4  1  1  0  0  0
  3  2  1  0  0  0  0
  3 16  1  1  0  0  0
  4 11  1  0  0  0  0
  5  1  1  0  0  0  0
  6  9  1  0  0  0  0
  8 14  1  6  0  0  0
  8 15  1  0  0  0  0
  8 10  1  0  0  0  0
  9 12  1  0  0  0  0
 10  6  1  6  0  0  0
 10  2  1  0  0  0  0
 11  1  2  0  0  0  0
 12  4  2  0  0  0  0
 12 13  1  0  0  0  0
 13  5  2  0  0  0  0
 15  3  1  0  0  0  0
 16 17  1  0  0  0  0
 17 18  1  0  0  0  0
 18 19  2  0  0  0  0
 18 20  1  0  0  0  0
 21  6  1  0  0  0  0
 22 25  1  0  0  0  0
 24 21  1  0  0  0  0
 24 23  2  0  0  0  0
 25 24  1  0  0  0  0
 27 26  1  6  0  0  0
 27 25  1  0  0  0  0
 27 28  1  0  0  0  0
 28 29  1  0  0  0  0
 29 30  1  1  0  0  0
 31 29  1  0  0  0  0
M  END
>  <MODEL>
1

>  <REMARK>
 VINA RESULT:      -7.4      0.000      0.000
  Name = 
  8 active torsions:
  status: ('A' for Active; 'I' for Inactive)
    1  A    between atoms: C_1  and  C_24
    2  A    between atoms: C_5  and  N_14
    3  A    between atoms: C_9  and  C_23
    4  A    between atoms: C_10  and  N_14
    5  A    between atoms: C_10  and  C_18
    6  A    between atoms: N_15  and  C_23
    7  A    between atoms: C_19  and  N_22
    8  A    between atoms: C_19  and  C_24
                            x       y       z     vdW  Elec       q    Type
                         _______ _______ _______ _____ _____    ______ ____

>  <TORSDO>
F 8

$$$$
=
 OpenBabel10272400353D

 31 33  0  0  1  0  0  0  0  0999 V2000
  183.9250  178.5860  143.3890 C   0  0  0  0  0  0  0  0  0  0  0  0
  187.6910  178.0580  143.4370 C   0  0  2  0  0  3  0  0  0  0  0  0
  187.9910  177.2180  144.6450 C   0  0  1  0  0  3  0  0  0  0  0  0
  186.2820  178.2210  142.9740 C   0  0  0  0  0  0  0  0  0  0  0  0
  183.7150  178.7940  142.0210 C   0  0  0  0  0  3  0  0  0  0  0  0
  188.5640  178.2200  141.2360 N   0  0  0  0  0  0  0  0  0  0  0  0
  182.5800  178.6820  144.5030 Cl  0  0  0  0  0  0  0  0  0  0  0  0
  189.7100  177.0220  143.1690 C   0  0  2  0  0  3  0  0  0  0  0  0
  187.2280  178.3310  140.6070 C   0  0  0  0  0  2  0  0  0  0  0  0
  188.4450  177.3290  142.3960 C   0  0  1  0  0  3  0  0  0  0  0  0
  185.2090  178.3120  143.8680 C   0  0  0  0  0  3  0  0  0  0  0  0
  186.0790  178.4640  141.5970 C   0  0  0  0  0  0  0  0  0  0  0  0
  184.7890  178.7310  141.1270 C   0  0  0  0  0  3  0  0  0  0  0  0
  190.3750  175.7750  142.6190 C   0  0  0  0  0  1  0  0  0  0  0  0
  189.3370  176.7960  144.5160 O   0  0  0  0  0  0  0  0  0  0  0  0
  187.8400  178.0170  145.8510 N   0  0  0  0  0  2  0  0  0  0  0  0
  187.9480  177.1160  146.9870 C   0  0  0  0  0  2  0  0  0  0  0  0
  189.0140  177.5890  147.9140 C   0  0  0  0  0  0  0  0  0  0  0  0
  190.3340  177.2150  147.7020 O   0  0  0  0  0  0  0  0  0  0  0  0
  188.7250  178.3550  148.8690 O   0  0  0  0  0  1  0  0  0  0  0  0
  189.4300  177.5950  140.2440 C   0  0  0  0  0  2  0  0  0  0  0  0
  188.8990  175.8700  137.9090 C   0  0  0  0  0  1  0  0  0  0  0  0
  189.1160  179.4210  138.7630 O   0  0  0  0  0  0  0  0  0  0  0  0
  189.1510  178.1680  138.8920 C   0  0  0  0  0  0  0  0  0  0  0  0
  188.9760  177.3130  137.7440 N   0  0  0  0  0  0  0  0  0  0  0  0
  189.2180  176.7430  135.3680 C   0  0  0  0  0  1  0  0  0  0  0  0
  188.9010  177.8330  136.3780 C   0  0  1  0  0  3  0  0  0  0  0  0
  187.5380  178.4480  136.0830 C   0  0  0  0  0  2  0  0  0  0  0  0
  186.5210  177.3830  135.7050 C   0  0  1  0  0  3  0  0  0  0  0  0
  185.4960  177.2580  136.8120 C   0  0  0  0  0  1  0  0  0  0  0  0
  185.8740  177.7370  134.5200 O   0  0  0  0  0  1  0  0  0  0  0  0
  1 11  1  0  0  0  0
  1  7  1  0  0  0  0
  2  4  1  6  0  0  0
  2  3  1  0  0  0  0
  3 16  1  1  0  0  0
  4 11  2  0  0  0  0
  5  1  2  0  0  0  0
  8 14  1  6  0  0  0
  8 15  1  0  0  0  0
  9  6  1  0  0  0  0
  9 12  1  0  0  0  0
 10  6  1  6  0  0  0
 10  8  1  0  0  0  0
 10  2  1  0  0  0  0
 12  4  1  0  0  0  0
 13 12  2  0  0  0  0
 13  5  1  0  0  0  0
 15  3  1  0  0  0  0
 16 17  1  0  0  0  0
 17 18  1  0  0  0  0
 18 20  1  0  0  0  0
 19 18  2  0  0  0  0
 21  6  1  0  0  0  0
 23 24  2  0  0  0  0
 24 21  1  0  0  0  0
 25 22  1  0  0  0  0
 25 24  1  0  0  0  0
 27 26  1  6  0  0  0
 27 25  1  0  0  0  0
 28 27  1  0  0  0  0
 29 28  1  0  0  0  0
 29 30  1  1  0  0  0
 31 29  1  0  0  0  0
M  END
>  <MODEL>
2

>  <REMARK>
 VINA RESULT:      -7.4      3.039      4.900
  Name = 
  8 active torsions:
  status: ('A' for Active; 'I' for Inactive)
    1  A    between atoms: C_1  and  C_24
    2  A    between atoms: C_5  and  N_14
    3  A    between atoms: C_9  and  C_23
    4  A    between atoms: C_10  and  N_14
    5  A    between atoms: C_10  and  C_18
    6  A    between atoms: N_15  and  C_23
    7  A    between atoms: C_19  and  N_22
    8  A    between atoms: C_19  and  C_24
                            x       y       z     vdW  Elec       q    Type
                         _______ _______ _______ _____ _____    ______ ____

>  <TORSDO>
F 8

$$$$
=
 OpenBabel10272400353D

 31 33  0  0  1  0  0  0  0  0999 V2000
  189.7680  177.5630  145.0590 C   0  0  0  0  0  0  0  0  0  0  0  0
  188.5160  177.4550  141.4700 C   0  0  2  0  0  3  0  0  0  0  0  0
  187.4470  178.5030  141.3560 C   0  0  1  0  0  3  0  0  0  0  0  0
  189.4010  177.4190  142.6700 C   0  0  0  0  0  0  0  0  0  0  0  0
  191.0640  177.0640  144.8910 C   0  0  0  0  0  3  0  0  0  0  0  0
  190.2150  176.6160  140.0400 N   0  0  0  0  0  0  0  0  0  0  0  0
  189.1880  177.9680  146.6590 Cl  0  0  0  0  0  0  0  0  0  0  0  0
  188.2490  178.0430  139.2770 C   0  0  2  0  0  3  0  0  0  0  0  0
  191.2360  176.5770  141.1110 C   0  0  0  0  0  2  0  0  0  0  0  0
  189.3440  177.7710  140.2860 C   0  0  1  0  0  3  0  0  0  0  0  0
  188.9310  177.7300  143.9510 C   0  0  0  0  0  3  0  0  0  0  0  0
  190.6970  176.8830  142.5020 C   0  0  0  0  0  0  0  0  0  0  0  0
  191.5280  176.7270  143.6150 C   0  0  0  0  0  3  0  0  0  0  0  0
  188.7470  178.9890  138.2020 C   0  0  0  0  0  1  0  0  0  0  0  0
  187.1760  178.6520  139.9740 O   0  0  0  0  0  0  0  0  0  0  0  0
  186.2470  178.0600  142.0480 N   0  0  0  0  0  2  0  0  0  0  0  0
  185.4580  179.2440  142.3510 C   0  0  0  0  0  2  0  0  0  0  0  0
  184.8390  179.1120  143.7000 C   0  0  0  0  0  0  0  0  0  0  0  0
  183.5450  179.5680  143.9170 O   0  0  0  0  0  0  0  0  0  0  0  0
  185.4740  178.5590  144.6340 O   0  0  0  0  0  1  0  0  0  0  0  0
  190.9410  176.8260  138.7940 C   0  0  0  0  0  2  0  0  0  0  0  0
  193.7210  176.2580  137.9830 C   0  0  0  0  0  1  0  0  0  0  0  0
  190.4530  174.6160  138.0830 O   0  0  0  0  0  0  0  0  0  0  0  0
  191.3330  175.5090  138.2050 C   0  0  0  0  0  0  0  0  0  0  0  0
  192.6770  175.2760  137.7370 N   0  0  0  0  0  0  0  0  0  0  0  0
  192.5860  174.1930  135.5350 C   0  0  0  0  0  1  0  0  0  0  0  0
  193.0510  174.0820  136.9770 C   0  0  1  0  0  3  0  0  0  0  0  0
  194.5530  173.8260  137.0310 C   0  0  0  0  0  2  0  0  0  0  0  0
  194.8910  172.7320  138.0320 C   0  0  1  0  0  3  0  0  0  0  0  0
  195.9200  171.8020  137.4240 C   0  0  0  0  0  1  0  0  0  0  0  0
  195.4140  173.2940  139.1970 O   0  0  0  0  0  1  0  0  0  0  0  0
  1  7  1  0  0  0  0
  2  4  1  1  0  0  0
  3  2  1  0  0  0  0
  3 16  1  1  0  0  0
  4 11  1  0  0  0  0
  5  1  1  0  0  0  0
  6  9  1  0  0  0  0
  8 14  1  6  0  0  0
  8 15  1  0  0  0  0
  8 10  1  0  0  0  0
  9 12  1  0  0  0  0
 10  6  1  6  0  0  0
 10  2  1  0  0  0  0
 11  1  2  0  0  0  0
 12  4  2  0  0  0  0
 12 13  1  0  0  0  0
 13  5  2  0  0  0  0
 15  3  1  0  0  0  0
 16 17  1  0  0  0  0
 17 18  1  0  0  0  0
 18 19  2  0  0  0  0
 18 20  1  0  0  0  0
 21  6  1  0  0  0  0
 23 24  2  0  0  0  0
 24 21  1  0  0  0  0
 25 22  1  0  0  0  0
 25 24  1  0  0  0  0
 27 26  1  6  0  0  0
 27 28  1  0  0  0  0
 27 25  1  0  0  0  0
 28 29  1  0  0  0  0
 29 30  1  6  0  0  0
 29 31  1  0  0  0  0
M  END
>  <MODEL>
3

>  <REMARK>
 VINA RESULT:      -7.1      3.892      8.235
  Name = 
  8 active torsions:
  status: ('A' for Active; 'I' for Inactive)
    1  A    between atoms: C_1  and  C_24
    2  A    between atoms: C_5  and  N_14
    3  A    between atoms: C_9  and  C_23
    4  A    between atoms: C_10  and  N_14
    5  A    between atoms: C_10  and  C_18
    6  A    between atoms: N_15  and  C_23
    7  A    between atoms: C_19  and  N_22
    8  A    between atoms: C_19  and  C_24
                            x       y       z     vdW  Elec       q    Type
                         _______ _______ _______ _____ _____    ______ ____

>  <TORSDO>
F 8

$$$$
=
 OpenBabel10272400353D

 31 33  0  0  1  0  0  0  0  0999 V2000
  186.3860  177.8030  144.5710 C   0  0  0  0  0  0  0  0  0  0  0  0
  189.1190  177.9270  141.9300 C   0  0  2  0  0  3  0  0  0  0  0  0
  190.2020  176.9930  142.3890 C   0  0  1  0  0  3  0  0  0  0  0  0
  187.7850  177.9080  142.5990 C   0  0  0  0  0  0  0  0  0  0  0  0
  185.2730  178.1580  143.8010 C   0  0  0  0  0  3  0  0  0  0  0  0
  188.1950  178.5370  139.8310 N   0  0  0  0  0  0  0  0  0  0  0  0
  186.2050  177.5140  146.2870 Cl  0  0  0  0  0  0  0  0  0  0  0  0
  190.3990  177.2990  140.1440 C   0  0  2  0  0  3  0  0  0  0  0  0
  186.7990  178.5030  140.3220 C   0  0  0  0  0  2  0  0  0  0  0  0
  188.9470  177.4880  140.5290 C   0  0  1  0  0  3  0  0  0  0  0  0
  187.6450  177.6900  143.9740 C   0  0  0  0  0  3  0  0  0  0  0  0
  186.6700  178.3000  141.8260 C   0  0  0  0  0  0  0  0  0  0  0  0
  185.4140  178.4040  142.4320 C   0  0  0  0  0  3  0  0  0  0  0  0
  190.5200  176.2720  139.0340 C   0  0  0  0  0  1  0  0  0  0  0  0
  191.0820  176.8290  141.2920 O   0  0  0  0  0  0  0  0  0  0  0  0
  190.9170  177.5810  143.5100 N   0  0  0  0  0  2  0  0  0  0  0  0
  191.3590  176.4900  144.3640 C   0  0  0  0  0  2  0  0  0  0  0  0
  191.1080  176.8280  145.7930 C   0  0  0  0  0  0  0  0  0  0  0  0
  189.8110  177.0470  146.2370 O   0  0  0  0  0  0  0  0  0  0  0  0
  192.0670  176.8810  146.6070 O   0  0  0  0  0  1  0  0  0  0  0  0
  188.1340  178.2120  138.4110 C   0  0  0  0  0  2  0  0  0  0  0  0
  187.0870  175.6850  137.3010 C   0  0  0  0  0  1  0  0  0  0  0  0
  185.9370  179.0590  138.1270 O   0  0  0  0  0  0  0  0  0  0  0  0
  186.7090  178.0740  137.9810 C   0  0  0  0  0  0  0  0  0  0  0  0
  186.2340  176.8610  137.3640 N   0  0  0  0  0  0  0  0  0  0  0  0
  184.9960  176.0940  135.3870 C   0  0  0  0  0  1  0  0  0  0  0  0
  184.9080  176.7560  136.7510 C   0  0  1  0  0  3  0  0  0  0  0  0
  183.9320  175.9990  137.6450 C   0  0  0  0  0  2  0  0  0  0  0  0
  182.8490  176.9210  138.1840 C   0  0  1  0  0  3  0  0  0  0  0  0
  183.1510  177.2500  139.6310 C   0  0  0  0  0  1  0  0  0  0  0  0
  182.8140  178.1030  137.4440 O   0  0  0  0  0  1  0  0  0  0  0  0
  1  7  1  0  0  0  0
  2  3  1  0  0  0  0
  2  4  1  1  0  0  0
  3 16  1  1  0  0  0
  4 11  2  0  0  0  0
  5  1  2  0  0  0  0
  6  9  1  0  0  0  0
  8 14  1  6  0  0  0
  8 10  1  0  0  0  0
  8 15  1  0  0  0  0
  9 12  1  0  0  0  0
 10  6  1  6  0  0  0
 10  2  1  0  0  0  0
 11  1  1  0  0  0  0
 12 13  2  0  0  0  0
 12  4  1  0  0  0  0
 13  5  1  0  0  0  0
 15  3  1  0  0  0  0
 16 17  1  0  0  0  0
 17 18  1  0  0  0  0
 18 19  2  0  0  0  0
 18 20  1  0  0  0  0
 21  6  1  0  0  0  0
 22 25  1  0  0  0  0
 24 23  2  0  0  0  0
 24 21  1  0  0  0  0
 25 24  1  0  0  0  0
 27 26  1  6  0  0  0
 27 25  1  0  0  0  0
 27 28  1  0  0  0  0
 28 29  1  0  0  0  0
 29 30  1  1  0  0  0
 31 29  1  0  0  0  0
M  END
>  <MODEL>
4

>  <REMARK>
 VINA RESULT:      -7.1      1.922      2.528
  Name = 
  8 active torsions:
  status: ('A' for Active; 'I' for Inactive)
    1  A    between atoms: C_1  and  C_24
    2  A    between atoms: C_5  and  N_14
    3  A    between atoms: C_9  and  C_23
    4  A    between atoms: C_10  and  N_14
    5  A    between atoms: C_10  and  C_18
    6  A    between atoms: N_15  and  C_23
    7  A    between atoms: C_19  and  N_22
    8  A    between atoms: C_19  and  C_24
                            x       y       z     vdW  Elec       q    Type
                         _______ _______ _______ _____ _____    ______ ____

>  <TORSDO>
F 8

$$$$
=
 OpenBabel10272400353D

 31 33  0  0  1  0  0  0  0  0999 V2000
  189.7180  177.2190  146.3350 C   0  0  0  0  0  0  0  0  0  0  0  0
  188.5470  177.2880  142.7180 C   0  0  2  0  0  3  0  0  0  0  0  0
  187.3480  178.1910  142.6720 C   0  0  1  0  0  3  0  0  0  0  0  0
  189.4100  177.2560  143.9340 C   0  0  0  0  0  0  0  0  0  0  0  0
  191.0720  176.9150  146.1580 C   0  0  0  0  0  3  0  0  0  0  0  0
  190.3640  176.8210  141.2650 N   0  0  0  0  0  0  0  0  0  0  0  0
  189.0660  177.3890  147.9490 Cl  0  0  0  0  0  0  0  0  0  0  0  0
  188.2350  178.0420  140.5830 C   0  0  2  0  0  3  0  0  0  0  0  0
  191.3650  176.8170  142.3550 C   0  0  0  0  0  2  0  0  0  0  0  0
  189.3420  177.8220  141.5920 C   0  0  1  0  0  3  0  0  0  0  0  0
  188.8830  177.3780  145.2250 C   0  0  0  0  0  3  0  0  0  0  0  0
  190.7690  176.9150  143.7530 C   0  0  0  0  0  0  0  0  0  0  0  0
  191.5970  176.7650  144.8700 C   0  0  0  0  0  3  0  0  0  0  0  0
  188.6180  179.1440  139.6130 C   0  0  0  0  0  1  0  0  0  0  0  0
  187.0800  178.4340  141.3020 O   0  0  0  0  0  0  0  0  0  0  0  0
  186.2080  177.5300  143.2860 N   0  0  0  0  0  2  0  0  0  0  0  0
  185.1420  178.5120  143.3970 C   0  0  0  0  0  2  0  0  0  0  0  0
  184.8690  178.8100  144.8310 C   0  0  0  0  0  0  0  0  0  0  0  0
  185.9040  178.7730  145.7560 O   0  0  0  0  0  1  0  0  0  0  0  0
  183.7090  179.1290  145.1990 O   0  0  0  0  0  0  0  0  0  0  0  0
  191.0740  177.2440  140.0630 C   0  0  0  0  0  2  0  0  0  0  0  0
  193.1080  176.5380  138.0440 C   0  0  0  0  0  1  0  0  0  0  0  0
  189.6240  175.7910  138.8750 O   0  0  0  0  0  0  0  0  0  0  0  0
  190.7710  176.3080  138.9370 C   0  0  0  0  0  0  0  0  0  0  0  0
  191.7490  176.0390  137.9130 N   0  0  0  0  0  0  0  0  0  0  0  0
  192.6470  175.1790  135.7950 C   0  0  0  0  0  1  0  0  0  0  0  0
  191.4280  175.2920  136.6950 C   0  0  1  0  0  3  0  0  0  0  0  0
  190.8740  173.9070  137.0120 C   0  0  0  0  0  2  0  0  0  0  0  0
  189.6730  173.5790  136.1380 C   0  0  1  0  0  3  0  0  0  0  0  0
  188.6320  172.8630  136.9710 C   0  0  0  0  0  1  0  0  0  0  0  0
  189.1200  174.7540  135.6250 O   0  0  0  0  0  1  0  0  0  0  0  0
  1  7  1  0  0  0  0
  2  4  1  1  0  0  0
  3  2  1  0  0  0  0
  3 16  1  6  0  0  0
  4 11  1  0  0  0  0
  5  1  1  0  0  0  0
  6  9  1  0  0  0  0
  8 14  1  6  0  0  0
  8 15  1  0  0  0  0
  8 10  1  0  0  0  0
  9 12  1  0  0  0  0
 10  6  1  6  0  0  0
 10  2  1  0  0  0  0
 11  1  2  0  0  0  0
 12  4  2  0  0  0  0
 12 13  1  0  0  0  0
 13  5  2  0  0  0  0
 15  3  1  0  0  0  0
 16 17  1  0  0  0  0
 17 18  1  0  0  0  0
 18 20  2  0  0  0  0
 18 19  1  0  0  0  0
 21  6  1  0  0  0  0
 23 24  2  0  0  0  0
 24 21  1  0  0  0  0
 25 22  1  0  0  0  0
 25 24  1  0  0  0  0
 27 26  1  6  0  0  0
 27 28  1  0  0  0  0
 27 25  1  0  0  0  0
 29 30  1  1  0  0  0
 29 28  1  0  0  0  0
 31 29  1  0  0  0  0
M  END
>  <MODEL>
5

>  <REMARK>
 VINA RESULT:      -6.7      3.689      6.894
  Name = 
  8 active torsions:
  status: ('A' for Active; 'I' for Inactive)
    1  A    between atoms: C_1  and  C_24
    2  A    between atoms: C_5  and  N_14
    3  A    between atoms: C_9  and  C_23
    4  A    between atoms: C_10  and  N_14
    5  A    between atoms: C_10  and  C_18
    6  A    between atoms: N_15  and  C_23
    7  A    between atoms: C_19  and  N_22
    8  A    between atoms: C_19  and  C_24
                            x       y       z     vdW  Elec       q    Type
                         _______ _______ _______ _____ _____    ______ ____

>  <TORSDO>
F 8

$$$$
=
 OpenBabel10272400353D

 31 33  0  0  1  0  0  0  0  0999 V2000
  187.2370  177.6950  136.3310 C   0  0  0  0  0  0  0  0  0  0  0  0
  190.3660  176.3900  138.0530 C   0  0  2  0  0  3  0  0  0  0  0  0
  191.4480  176.3570  137.0120 C   0  0  1  0  0  3  0  0  0  0  0  0
  189.0860  177.1050  137.7770 C   0  0  0  0  0  0  0  0  0  0  0  0
  186.5570  178.2450  137.4230 C   0  0  0  0  0  3  0  0  0  0  0  0
  190.2750  176.8660  140.3760 N   0  0  0  0  0  0  0  0  0  0  0  0
  186.5050  177.7220  134.7430 Cl  0  0  0  0  0  0  0  0  0  0  0  0
  192.4120  176.4030  139.0710 C   0  0  2  0  0  3  0  0  0  0  0  0
  189.0330  177.6640  140.2660 C   0  0  0  0  0  2  0  0  0  0  0  0
  191.0630  177.0830  139.1570 C   0  0  1  0  0  3  0  0  0  0  0  0
  188.4960  177.1130  136.5090 C   0  0  0  0  0  3  0  0  0  0  0  0
  188.3880  177.6300  138.8870 C   0  0  0  0  0  0  0  0  0  0  0  0
  187.1320  178.2150  138.6980 C   0  0  0  0  0  3  0  0  0  0  0  0
  193.4980  177.3150  139.6110 C   0  0  0  0  0  1  0  0  0  0  0  0
  192.6640  176.1370  137.7020 O   0  0  0  0  0  0  0  0  0  0  0  0
  191.2050  175.2650  136.0830 N   0  0  0  0  0  2  0  0  0  0  0  0
  190.9630  174.0680  136.8720 C   0  0  0  0  0  2  0  0  0  0  0  0
  189.8480  173.2800  136.2770 C   0  0  0  0  0  0  0  0  0  0  0  0
  189.9590  172.7890  134.9820 O   0  0  0  0  0  0  0  0  0  0  0  0
  188.8190  173.0290  136.9560 O   0  0  0  0  0  1  0  0  0  0  0  0
  191.0060  177.4070  141.5160 C   0  0  0  0  0  2  0  0  0  0  0  0
  190.9310  178.9100  144.0550 C   0  0  0  0  0  1  0  0  0  0  0  0
  190.0870  175.5990  142.7450 O   0  0  0  0  0  0  0  0  0  0  0  0
  190.5090  176.7860  142.7810 C   0  0  0  0  0  0  0  0  0  0  0  0
  190.5570  177.5050  144.0300 N   0  0  0  0  0  0  0  0  0  0  0  0
  191.5530  176.5790  146.0740 C   0  0  0  0  0  1  0  0  0  0  0  0
  190.2690  176.8690  145.3160 C   0  0  1  0  0  3  0  0  0  0  0  0
  189.3320  177.7180  146.1690 C   0  0  0  0  0  2  0  0  0  0  0  0
  189.3360  177.2590  147.6190 C   0  0  1  0  0  3  0  0  0  0  0  0
  188.9570  178.4220  148.5100 C   0  0  0  0  0  1  0  0  0  0  0  0
  188.4130  176.2270  147.7960 O   0  0  0  0  0  1  0  0  0  0  0  0
  1 11  2  0  0  0  0
  1  5  1  0  0  0  0
  2  4  1  6  0  0  0
  2 10  1  0  0  0  0
  3 16  1  6  0  0  0
  3 15  1  0  0  0  0
  3  2  1  0  0  0  0
  4 12  2  0  0  0  0
  5 13  2  0  0  0  0
  6 21  1  0  0  0  0
  7  1  1  0  0  0  0
  8 10  1  0  0  0  0
  8 14  1  6  0  0  0
  9  6  1  0  0  0  0
 10  6  1  1  0  0  0
 11  4  1  0  0  0  0
 12  9  1  0  0  0  0
 13 12  1  0  0  0  0
 15  8  1  0  0  0  0
 16 17  1  0  0  0  0
 18 17  1  0  0  0  0
 18 20  1  0  0  0  0
 19 18  2  0  0  0  0
 21 24  1  0  0  0  0
 23 24  2  0  0  0  0
 24 25  1  0  0  0  0
 25 22  1  0  0  0  0
 25 27  1  0  0  0  0
 27 26  1  1  0  0  0
 27 28  1  0  0  0  0
 28 29  1  0  0  0  0
 29 31  1  0  0  0  0
 29 30  1  1  0  0  0
M  END
>  <MODEL>
6

>  <REMARK>
 VINA RESULT:      -6.7      4.852      8.158
  Name = 
  8 active torsions:
  status: ('A' for Active; 'I' for Inactive)
    1  A    between atoms: C_1  and  C_24
    2  A    between atoms: C_5  and  N_14
    3  A    between atoms: C_9  and  C_23
    4  A    between atoms: C_10  and  N_14
    5  A    between atoms: C_10  and  C_18
    6  A    between atoms: N_15  and  C_23
    7  A    between atoms: C_19  and  N_22
    8  A    between atoms: C_19  and  C_24
                            x       y       z     vdW  Elec       q    Type
                         _______ _______ _______ _____ _____    ______ ____

>  <TORSDO>
F 8

$$$$
=
 OpenBabel10272400353D

 31 33  0  0  1  0  0  0  0  0999 V2000
  190.2220  177.4300  142.2320 C   0  0  0  0  0  0  0  0  0  0  0  0
  188.7760  177.6790  138.7240 C   0  0  2  0  0  3  0  0  0  0  0  0
  189.5300  176.6950  137.8780 C   0  0  1  0  0  3  0  0  0  0  0  0
  188.9090  177.6420  140.2100 C   0  0  0  0  0  0  0  0  0  0  0  0
  189.1270  177.8590  142.9900 C   0  0  0  0  0  3  0  0  0  0  0  0
  186.5340  178.4500  138.8210 N   0  0  0  0  0  0  0  0  0  0  0  0
  191.7280  177.0270  143.0260 Cl  0  0  0  0  0  0  0  0  0  0  0  0
  187.5400  177.1500  136.8760 C   0  0  2  0  0  3  0  0  0  0  0  0
  186.4780  178.4100  140.3000 C   0  0  0  0  0  2  0  0  0  0  0  0
  187.3820  177.3410  138.3690 C   0  0  1  0  0  3  0  0  0  0  0  0
  190.1190  177.3320  140.8420 C   0  0  0  0  0  3  0  0  0  0  0  0
  187.8130  178.1080  140.9680 C   0  0  0  0  0  0  0  0  0  0  0  0
  187.9240  178.1950  142.3600 C   0  0  0  0  0  3  0  0  0  0  0  0
  186.4810  176.1990  136.3510 C   0  0  0  0  0  1  0  0  0  0  0  0
  188.8210  176.5880  136.6560 O   0  0  0  0  0  0  0  0  0  0  0  0
  190.8740  177.1900  137.6250 N   0  0  0  0  0  2  0  0  0  0  0  0
  191.7820  176.0590  137.7290 C   0  0  0  0  0  2  0  0  0  0  0  0
  193.1660  176.5380  137.9980 C   0  0  0  0  0  0  0  0  0  0  0  0
  194.0900  176.6060  136.9630 O   0  0  0  0  0  0  0  0  0  0  0  0
  193.4900  176.9140  139.1540 O   0  0  0  0  0  1  0  0  0  0  0  0
  185.1700  178.2250  138.3570 C   0  0  0  0  0  2  0  0  0  0  0  0
  182.9700  176.9750  139.8770 C   0  0  0  0  0  1  0  0  0  0  0  0
  184.3800  180.2870  139.2210 O   0  0  0  0  0  0  0  0  0  0  0  0
  184.2150  179.0390  139.1680 C   0  0  0  0  0  0  0  0  0  0  0  0
  183.0960  178.4230  139.8370 N   0  0  0  0  0  0  0  0  0  0  0  0
  181.0270  179.6830  139.4390 C   0  0  0  0  0  1  0  0  0  0  0  0
  182.0320  179.2030  140.4720 C   0  0  1  0  0  3  0  0  0  0  0  0
  181.3270  178.4090  141.5670 C   0  0  0  0  0  2  0  0  0  0  0  0
  181.3510  179.1540  142.8920 C   0  0  1  0  0  3  0  0  0  0  0  0
  180.3110  178.5580  143.8170 C   0  0  0  0  0  1  0  0  0  0  0  0
  182.6100  179.0370  143.4830 O   0  0  0  0  0  1  0  0  0  0  0  0
  1  5  1  0  0  0  0
  1  7  1  0  0  0  0
  2  4  1  1  0  0  0
  3 16  1  6  0  0  0
  3  2  1  0  0  0  0
  4 11  1  0  0  0  0
  4 12  2  0  0  0  0
  6  9  1  0  0  0  0
  8 14  1  1  0  0  0
  8 10  1  0  0  0  0
  9 12  1  0  0  0  0
 10  2  1  0  0  0  0
 10  6  1  6  0  0  0
 11  1  2  0  0  0  0
 12 13  1  0  0  0  0
 13  5  2  0  0  0  0
 15  8  1  0  0  0  0
 15  3  1  0  0  0  0
 16 17  1  0  0  0  0
 17 18  1  0  0  0  0
 18 20  1  0  0  0  0
 19 18  2  0  0  0  0
 21  6  1  0  0  0  0
 21 24  1  0  0  0  0
 24 23  2  0  0  0  0
 24 25  1  0  0  0  0
 25 22  1  0  0  0  0
 25 27  1  0  0  0  0
 27 26  1  6  0  0  0
 27 28  1  0  0  0  0
 28 29  1  0  0  0  0
 29 31  1  0  0  0  0
 29 30  1  1  0  0  0
M  END
>  <MODEL>
7

>  <REMARK>
 VINA RESULT:      -6.6      2.719      3.662
  Name = 
  8 active torsions:
  status: ('A' for Active; 'I' for Inactive)
    1  A    between atoms: C_1  and  C_24
    2  A    between atoms: C_5  and  N_14
    3  A    between atoms: C_9  and  C_23
    4  A    between atoms: C_10  and  N_14
    5  A    between atoms: C_10  and  C_18
    6  A    between atoms: N_15  and  C_23
    7  A    between atoms: C_19  and  N_22
    8  A    between atoms: C_19  and  C_24
                            x       y       z     vdW  Elec       q    Type
                         _______ _______ _______ _____ _____    ______ ____

>  <TORSDO>
F 8

$$$$
=
 OpenBabel10272400353D

 31 33  0  0  1  0  0  0  0  0999 V2000
  190.4600  177.2120  143.6420 C   0  0  0  0  0  0  0  0  0  0  0  0
  186.7310  177.7960  144.1060 C   0  0  2  0  0  3  0  0  0  0  0  0
  186.5470  178.3070  145.5060 C   0  0  1  0  0  3  0  0  0  0  0  0
  188.0980  177.7240  143.5120 C   0  0  0  0  0  0  0  0  0  0  0  0
  190.5690  177.3540  142.2550 C   0  0  0  0  0  3  0  0  0  0  0  0
  185.7060  178.2190  142.0080 N   0  0  0  0  0  0  0  0  0  0  0  0
  191.8710  176.8050  144.5910 Cl  0  0  0  0  0  0  0  0  0  0  0  0
  184.7420  178.9120  144.2610 C   0  0  2  0  0  3  0  0  0  0  0  0
  186.9910  178.2420  141.2720 C   0  0  0  0  0  2  0  0  0  0  0  0
  185.9390  178.7830  143.3420 C   0  0  1  0  0  3  0  0  0  0  0  0
  189.2230  177.3850  144.2710 C   0  0  0  0  0  3  0  0  0  0  0  0
  188.1970  177.8350  142.1070 C   0  0  0  0  0  0  0  0  0  0  0  0
  189.4400  177.6670  141.4890 C   0  0  0  0  0  3  0  0  0  0  0  0
  184.0940  180.2730  144.0950 C   0  0  0  0  0  1  0  0  0  0  0  0
  185.2150  178.7800  145.5900 O   0  0  0  0  0  0  0  0  0  0  0  0
  186.7460  177.2240  146.4560 N   0  0  0  0  0  2  0  0  0  0  0  0
  187.1590  177.8210  147.7160 C   0  0  0  0  0  2  0  0  0  0  0  0
  188.6050  177.5540  147.9570 C   0  0  0  0  0  0  0  0  0  0  0  0
  189.3450  178.4150  148.7580 O   0  0  0  0  0  1  0  0  0  0  0  0
  189.1480  176.5320  147.4650 O   0  0  0  0  0  0  0  0  0  0  0  0
  184.8020  179.0960  141.2740 C   0  0  0  0  0  2  0  0  0  0  0  0
  184.7760  178.1070  138.4930 C   0  0  0  0  0  1  0  0  0  0  0  0
  182.6920  178.0370  141.5000 O   0  0  0  0  0  0  0  0  0  0  0  0
  183.6540  178.3060  140.7320 C   0  0  0  0  0  0  0  0  0  0  0  0
  183.6180  177.9010  139.3490 N   0  0  0  0  0  0  0  0  0  0  0  0
  182.3400  177.6810  137.2650 C   0  0  0  0  0  1  0  0  0  0  0  0
  182.4320  177.3050  138.7340 C   0  0  1  0  0  3  0  0  0  0  0  0
  182.4150  175.7880  138.8940 C   0  0  0  0  0  2  0  0  0  0  0  0
  182.7510  175.0910  137.5850 C   0  0  1  0  0  3  0  0  0  0  0  0
  184.0980  174.4110  137.7160 C   0  0  0  0  0  1  0  0  0  0  0  0
  181.7810  174.1320  137.2910 O   0  0  0  0  0  1  0  0  0  0  0  0
  1 11  1  0  0  0  0
  1  7  1  0  0  0  0
  2  4  1  6  0  0  0
  2  3  1  0  0  0  0
  3 15  1  0  0  0  0
  3 16  1  1  0  0  0
  4 11  2  0  0  0  0
  5  1  2  0  0  0  0
  8 14  1  1  0  0  0
  8 15  1  0  0  0  0
  9  6  1  0  0  0  0
  9 12  1  0  0  0  0
 10  6  1  6  0  0  0
 10  2  1  0  0  0  0
 10  8  1  0  0  0  0
 12  4  1  0  0  0  0
 13 12  2  0  0  0  0
 13  5  1  0  0  0  0
 16 17  1  0  0  0  0
 17 18  1  0  0  0  0
 18 19  1  0  0  0  0
 20 18  2  0  0  0  0
 21  6  1  0  0  0  0
 22 25  1  0  0  0  0
 24 21  1  0  0  0  0
 24 23  2  0  0  0  0
 25 24  1  0  0  0  0
 27 26  1  6  0  0  0
 27 28  1  0  0  0  0
 27 25  1  0  0  0  0
 29 30  1  1  0  0  0
 29 28  1  0  0  0  0
 31 29  1  0  0  0  0
M  END
>  <MODEL>
8

>  <REMARK>
 VINA RESULT:      -6.6      2.810      4.507
  Name = 
  8 active torsions:
  status: ('A' for Active; 'I' for Inactive)
    1  A    between atoms: C_1  and  C_24
    2  A    between atoms: C_5  and  N_14
    3  A    between atoms: C_9  and  C_23
    4  A    between atoms: C_10  and  N_14
    5  A    between atoms: C_10  and  C_18
    6  A    between atoms: N_15  and  C_23
    7  A    between atoms: C_19  and  N_22
    8  A    between atoms: C_19  and  C_24
                            x       y       z     vdW  Elec       q    Type
                         _______ _______ _______ _____ _____    ______ ____

>  <TORSDO>
F 8

$$$$
=
 OpenBabel10272400353D

 31 33  0  0  1  0  0  0  0  0999 V2000
  185.7900  178.1510  145.1430 C   0  0  0  0  0  0  0  0  0  0  0  0
  186.9910  178.7620  141.5870 C   0  0  2  0  0  3  0  0  0  0  0  0
  188.2300  177.9330  141.4040 C   0  0  1  0  0  3  0  0  0  0  0  0
  186.1180  178.5450  142.7770 C   0  0  0  0  0  0  0  0  0  0  0  0
  184.4250  178.4230  145.0000 C   0  0  0  0  0  3  0  0  0  0  0  0
  185.1660  179.3950  140.2090 N   0  0  0  0  0  0  0  0  0  0  0  0
  186.4370  177.7320  146.7130 Cl  0  0  0  0  0  0  0  0  0  0  0  0
  187.3520  178.4040  139.3590 C   0  0  2  0  0  3  0  0  0  0  0  0
  184.1570  179.1660  141.2680 C   0  0  0  0  0  2  0  0  0  0  0  0
  186.2290  178.3980  140.3740 C   0  0  1  0  0  3  0  0  0  0  0  0
  186.6390  178.2240  144.0350 C   0  0  0  0  0  3  0  0  0  0  0  0
  184.7460  178.8530  142.6370 C   0  0  0  0  0  0  0  0  0  0  0  0
  183.9040  178.7710  143.7500 C   0  0  0  0  0  3  0  0  0  0  0  0
  187.0280  177.4720  138.2080 C   0  0  0  0  0  1  0  0  0  0  0  0
  188.5190  177.9440  140.0180 O   0  0  0  0  0  0  0  0  0  0  0  0
  189.3340  178.5270  142.1410 N   0  0  0  0  0  2  0  0  0  0  0  0
  190.3130  177.4780  142.3760 C   0  0  0  0  0  2  0  0  0  0  0  0
  190.7220  177.4740  143.8090 C   0  0  0  0  0  0  0  0  0  0  0  0
  190.1510  178.3760  144.6960 O   0  0  0  0  0  1  0  0  0  0  0  0
  191.5600  176.6310  144.2230 O   0  0  0  0  0  0  0  0  0  0  0  0
  184.4850  179.1570  138.9420 C   0  0  0  0  0  2  0  0  0  0  0  0
  181.7570  178.0410  138.7780 C   0  0  0  0  0  1  0  0  0  0  0  0
  183.4450  181.2870  138.8490 O   0  0  0  0  0  0  0  0  0  0  0  0
  183.2810  180.0370  138.8370 C   0  0  0  0  0  0  0  0  0  0  0  0
  181.9630  179.4760  138.6740 N   0  0  0  0  0  0  0  0  0  0  0  0
  180.3010  181.0210  139.6130 C   0  0  0  0  0  1  0  0  0  0  0  0
  180.7900  180.2980  138.3700 C   0  0  1  0  0  3  0  0  0  0  0  0
  181.0750  181.2970  137.2530 C   0  0  0  0  0  2  0  0  0  0  0  0
  180.4330  180.8620  135.9450 C   0  0  1  0  0  3  0  0  0  0  0  0
  180.5010  182.0030  134.9530 C   0  0  0  0  0  1  0  0  0  0  0  0
  181.1120  179.7600  135.4230 O   0  0  0  0  0  1  0  0  0  0  0  0
  1  7  1  0  0  0  0
  2  4  1  1  0  0  0
  3  2  1  0  0  0  0
  3 16  1  1  0  0  0
  4 11  1  0  0  0  0
  5  1  1  0  0  0  0
  6  9  1  0  0  0  0
  8 14  1  6  0  0  0
  8 15  1  0  0  0  0
  8 10  1  0  0  0  0
  9 12  1  0  0  0  0
 10  6  1  6  0  0  0
 10  2  1  0  0  0  0
 11  1  2  0  0  0  0
 12  4  2  0  0  0  0
 12 13  1  0  0  0  0
 13  5  2  0  0  0  0
 15  3  1  0  0  0  0
 16 17  1  0  0  0  0
 17 18  1  0  0  0  0
 18 20  2  0  0  0  0
 18 19  1  0  0  0  0
 21  6  1  0  0  0  0
 24 23  2  0  0  0  0
 24 21  1  0  0  0  0
 25 22  1  0  0  0  0
 25 24  1  0  0  0  0
 27 25  1  0  0  0  0
 27 26  1  1  0  0  0
 28 27  1  0  0  0  0
 29 30  1  6  0  0  0
 29 28  1  0  0  0  0
 31 29  1  0  0  0  0
M  END
>  <MODEL>
9

>  <REMARK>
 VINA RESULT:      -6.3      1.766      2.478
  Name = 
  8 active torsions:
  status: ('A' for Active; 'I' for Inactive)
    1  A    between atoms: C_1  and  C_24
    2  A    between atoms: C_5  and  N_14
    3  A    between atoms: C_9  and  C_23
    4  A    between atoms: C_10  and  N_14
    5  A    between atoms: C_10  and  C_18
    6  A    between atoms: N_15  and  C_23
    7  A    between atoms: C_19  and  N_22
    8  A    between atoms: C_19  and  C_24
                            x       y       z     vdW  Elec       q    Type
                         _______ _______ _______ _____ _____    ______ ____

>  <TORSDO>
F 8

$$$$
