=
 OpenBabel10272400553D

 25 28  0  0  1  0  0  0  0  0999 V2000
  186.6930  178.2660  142.9300 C   0  0  0  0  0  0  0  0  0  0  0  0
  186.6610  177.9380  144.2920 C   0  0  0  0  0  0  0  0  0  0  0  0
  184.8000  179.7540  143.1370 C   0  0  0  0  0  3  0  0  0  0  0  0
  187.5160  177.8840  141.8950 C   0  0  0  0  0  0  0  0  0  0  0  0
  188.4720  177.6880  145.8860 C   0  0  0  0  0  0  0  0  0  0  0  0
  188.5380  177.2950  139.3540 C   0  0  0  0  0  2  0  0  0  0  0  0
  184.7340  179.4280  144.5010 C   0  0  0  0  0  3  0  0  0  0  0  0
  187.0510  178.5430  140.7790 C   0  0  0  0  0  0  0  0  0  0  0  0
  187.5340  178.3470  139.5900 N   0  0  0  0  0  0  0  0  0  0  0  0
  185.5040  178.2090  146.5260 C   0  0  0  0  0  0  0  0  0  0  0  0
  184.3380  178.1430  147.0010 O   0  0  0  0  0  0  0  0  0  0  0  0
  189.7670  177.9260  145.6720 C   0  0  0  0  0  3  0  0  0  0  0  0
  187.6350  176.9750  144.8780 C   0  0  0  0  0  2  0  0  0  0  0  0
  189.3970  177.0150  140.6080 C   0  0  0  0  0  2  0  0  0  0  0  0
  185.7970  179.1600  142.3740 C   0  0  0  0  0  0  0  0  0  0  0  0
  186.0010  179.3490  141.0500 N   0  0  0  0  0  2  0  0  0  0  0  0
  186.5820  178.0340  147.4080 O   0  0  0  0  0  0  0  0  0  0  0  0
  188.5840  177.0900  141.8780 C   0  0  0  0  0  3  0  0  0  0  0  0
  187.9130  178.1180  147.0900 O   0  0  0  0  0  0  0  0  0  0  0  0
  185.6600  178.5350  145.0920 C   0  0  0  0  0  0  0  0  0  0  0  0
  191.5380  176.4390  144.7790 C   0  0  0  0  0  1  0  0  0  0  0  0
  190.5030  177.4990  144.4410 C   0  0  2  0  0  3  0  0  0  0  0  0
  191.1540  178.6720  143.7870 C   0  0  0  0  0  0  0  0  0  0  0  0
  191.9470  178.4740  142.6640 O   0  0  0  0  0  0  0  0  0  0  0  0
  190.9910  179.8350  144.2410 O   0  0  0  0  0  1  0  0  0  0  0  0
  1  2  1  0  0  0  0
  2 13  1  0  0  0  0
  2 20  2  0  0  0  0
  3  7  2  0  0  0  0
  4  1  1  0  0  0  0
  5 19  1  0  0  0  0
  6  9  1  0  0  0  0
  6 14  1  0  0  0  0
  7 20  1  0  0  0  0
  8 16  1  0  0  0  0
  8  4  1  0  0  0  0
  9  8  2  0  0  0  0
 10 11  2  0  0  0  0
 10 17  1  0  0  0  0
 12  5  2  0  0  0  0
 13  5  1  0  0  0  0
 14 18  1  0  0  0  0
 15  1  2  0  0  0  0
 15  3  1  0  0  0  0
 16 15  1  0  0  0  0
 18  4  2  0  0  0  0
 19 17  1  0  0  0  0
 20 10  1  0  0  0  0
 22 21  1  1  0  0  0
 22 12  1  0  0  0  0
 23 25  1  0  0  0  0
 23 22  1  0  0  0  0
 24 23  2  0  0  0  0
M  END
>  <MODEL>
1

>  <REMARK>
 VINA RESULT:      -9.6      0.000      0.000
  Name = 
  2 active torsions:
  status: ('A' for Active; 'I' for Inactive)
    1  A    between atoms: C_2  and  C_25
    2  A    between atoms: C_15  and  C_25
                            x       y       z     vdW  Elec       q    Type
                         _______ _______ _______ _____ _____    ______ ____

>  <TORSDO>
F 2

$$$$
=
 OpenBabel10272400553D

 25 28  0  0  1  0  0  0  0  0999 V2000
  187.0890  177.9580  142.8910 C   0  0  0  0  0  0  0  0  0  0  0  0
  186.4470  177.8910  144.1360 C   0  0  0  0  0  0  0  0  0  0  0  0
  185.5180  179.5920  142.0530 C   0  0  0  0  0  3  0  0  0  0  0  0
  188.2030  177.3320  142.3780 C   0  0  0  0  0  0  0  0  0  0  0  0
  187.3750  177.8090  146.3750 C   0  0  0  0  0  0  0  0  0  0  0  0
  190.0900  176.2110  140.6380 C   0  0  0  0  0  2  0  0  0  0  0  0
  184.8450  179.5290  143.2830 C   0  0  0  0  0  3  0  0  0  0  0  0
  188.3430  177.8060  141.0930 C   0  0  0  0  0  0  0  0  0  0  0  0
  189.2430  177.3580  140.2700 N   0  0  0  0  0  0  0  0  0  0  0  0
  184.5190  178.6540  145.5870 C   0  0  0  0  0  0  0  0  0  0  0  0
  183.2650  178.7610  145.5130 O   0  0  0  0  0  0  0  0  0  0  0  0
  188.6620  177.9090  146.7140 C   0  0  0  0  0  3  0  0  0  0  0  0
  186.9390  176.9840  145.2110 C   0  0  0  0  0  2  0  0  0  0  0  0
  190.3010  176.1070  142.1660 C   0  0  0  0  0  2  0  0  0  0  0  0
  186.6450  178.7960  141.8860 C   0  0  0  0  0  0  0  0  0  0  0  0
  187.4050  178.7220  140.7690 N   0  0  0  0  0  2  0  0  0  0  0  0
  185.0960  178.5670  146.8640 O   0  0  0  0  0  0  0  0  0  0  0  0
  189.0540  176.4730  142.9350 C   0  0  0  0  0  3  0  0  0  0  0  0
  186.4360  178.4930  147.1460 O   0  0  0  0  0  0  0  0  0  0  0  0
  185.3020  178.6970  144.3330 C   0  0  0  0  0  0  0  0  0  0  0  0
  190.6440  176.4440  146.9750 C   0  0  0  0  0  1  0  0  0  0  0  0
  189.7720  177.2090  145.9950 C   0  0  2  0  0  3  0  0  0  0  0  0
  190.5930  178.1870  145.2210 C   0  0  0  0  0  0  0  0  0  0  0  0
  191.9690  178.0160  145.1470 O   0  0  0  0  0  1  0  0  0  0  0  0
  190.0520  179.1620  144.6370 O   0  0  0  0  0  0  0  0  0  0  0  0
  1  2  1  0  0  0  0
  2 20  2  0  0  0  0
  2 13  1  0  0  0  0
  3  7  2  0  0  0  0
  4  1  1  0  0  0  0
  4 18  2  0  0  0  0
  5 12  2  0  0  0  0
  5 19  1  0  0  0  0
  6 14  1  0  0  0  0
  7 20  1  0  0  0  0
  8  4  1  0  0  0  0
  9  6  1  0  0  0  0
  9  8  2  0  0  0  0
 10 17  1  0  0  0  0
 11 10  2  0  0  0  0
 13  5  1  0  0  0  0
 14 18  1  0  0  0  0
 15  3  1  0  0  0  0
 15  1  2  0  0  0  0
 16  8  1  0  0  0  0
 16 15  1  0  0  0  0
 17 19  1  0  0  0  0
 20 10  1  0  0  0  0
 22 12  1  0  0  0  0
 22 21  1  1  0  0  0
 23 22  1  0  0  0  0
 24 23  1  0  0  0  0
 25 23  2  0  0  0  0
M  END
>  <MODEL>
2

>  <REMARK>
 VINA RESULT:      -9.0      1.249      1.561
  Name = 
  2 active torsions:
  status: ('A' for Active; 'I' for Inactive)
    1  A    between atoms: C_2  and  C_25
    2  A    between atoms: C_15  and  C_25
                            x       y       z     vdW  Elec       q    Type
                         _______ _______ _______ _____ _____    ______ ____

>  <TORSDO>
F 2

$$$$
=
 OpenBabel10272400553D

 25 28  0  0  1  0  0  0  0  0999 V2000
  187.2140  177.8930  142.7940 C   0  0  0  0  0  0  0  0  0  0  0  0
  186.0730  178.4720  143.3680 C   0  0  0  0  0  0  0  0  0  0  0  0
  187.8430  176.8250  144.8680 C   0  0  0  0  0  3  0  0  0  0  0  0
  187.7390  177.9250  141.5220 C   0  0  0  0  0  0  0  0  0  0  0  0
  183.8220  178.6970  142.4940 C   0  0  0  0  0  0  0  0  0  0  0  0
  189.4900  177.8400  139.3370 C   0  0  0  0  0  2  0  0  0  0  0  0
  186.7180  177.4080  145.4720 C   0  0  0  0  0  3  0  0  0  0  0  0
  188.8830  177.1600  141.5660 C   0  0  0  0  0  0  0  0  0  0  0  0
  189.6930  177.0430  140.5580 N   0  0  0  0  0  0  0  0  0  0  0  0
  184.6800  178.8310  145.4500 C   0  0  0  0  0  0  0  0  0  0  0  0
  184.8450  179.1870  146.6480 O   0  0  0  0  0  0  0  0  0  0  0  0
  183.3530  178.2000  141.3480 C   0  0  0  0  0  3  0  0  0  0  0  0
  185.1640  179.3430  142.5710 C   0  0  0  0  0  2  0  0  0  0  0  0
  188.0020  178.1950  139.1120 C   0  0  0  0  0  2  0  0  0  0  0  0
  188.0640  177.0820  143.5200 C   0  0  0  0  0  0  0  0  0  0  0  0
  189.0980  176.6150  142.7840 N   0  0  0  0  0  2  0  0  0  0  0  0
  183.4000  178.9770  144.8930 O   0  0  0  0  0  0  0  0  0  0  0  0
  187.2930  178.5040  140.4090 C   0  0  0  0  0  3  0  0  0  0  0  0
  183.0170  178.6040  143.6300 O   0  0  0  0  0  0  0  0  0  0  0  0
  185.8220  178.2190  144.7360 C   0  0  0  0  0  0  0  0  0  0  0  0
  183.8450  179.5770  139.3460 C   0  0  0  0  0  1  0  0  0  0  0  0
  184.0950  178.2530  140.0490 C   0  0  2  0  0  3  0  0  0  0  0  0
  183.6960  177.1140  139.1710 C   0  0  0  0  0  0  0  0  0  0  0  0
  182.7880  176.1750  139.6420 O   0  0  0  0  0  1  0  0  0  0  0  0
  184.1730  176.9970  138.0110 O   0  0  0  0  0  0  0  0  0  0  0  0
  1  2  2  0  0  0  0
  1 15  1  0  0  0  0
  2 20  1  0  0  0  0
  3  7  1  0  0  0  0
  4  8  1  0  0  0  0
  4  1  1  0  0  0  0
  5 13  1  0  0  0  0
  5 19  1  0  0  0  0
  6  9  1  0  0  0  0
  8 16  1  0  0  0  0
  9  8  2  0  0  0  0
 10 11  2  0  0  0  0
 12  5  2  0  0  0  0
 13  2  1  0  0  0  0
 14  6  1  0  0  0  0
 14 18  1  0  0  0  0
 15  3  2  0  0  0  0
 16 15  1  0  0  0  0
 17 10  1  0  0  0  0
 18  4  2  0  0  0  0
 19 17  1  0  0  0  0
 20 10  1  0  0  0  0
 20  7  2  0  0  0  0
 22 21  1  6  0  0  0
 22 12  1  0  0  0  0
 23 24  1  0  0  0  0
 23 22  1  0  0  0  0
 25 23  2  0  0  0  0
M  END
>  <MODEL>
3

>  <REMARK>
 VINA RESULT:      -8.6      3.125      5.244
  Name = 
  2 active torsions:
  status: ('A' for Active; 'I' for Inactive)
    1  A    between atoms: C_2  and  C_25
    2  A    between atoms: C_15  and  C_25
                            x       y       z     vdW  Elec       q    Type
                         _______ _______ _______ _____ _____    ______ ____

>  <TORSDO>
F 2

$$$$
=
 OpenBabel10272400553D

 25 28  0  0  1  0  0  0  0  0999 V2000
  187.6410  177.8310  146.2200 C   0  0  0  0  0  0  0  0  0  0  0  0
  188.8710  177.2090  145.9620 C   0  0  0  0  0  0  0  0  0  0  0  0
  188.3140  178.4700  148.4520 C   0  0  0  0  0  3  0  0  0  0  0  0
  186.5070  178.0100  145.4610 C   0  0  0  0  0  0  0  0  0  0  0  0
  190.2620  177.2510  143.9770 C   0  0  0  0  0  0  0  0  0  0  0  0
  183.8570  178.4160  144.6470 C   0  0  0  0  0  2  0  0  0  0  0  0
  189.5460  177.8380  148.2270 C   0  0  0  0  0  3  0  0  0  0  0  0
  185.6230  178.7010  146.2600 C   0  0  0  0  0  0  0  0  0  0  0  0
  184.4030  178.9650  145.9000 N   0  0  0  0  0  0  0  0  0  0  0  0
  191.1480  176.5370  146.8400 C   0  0  0  0  0  0  0  0  0  0  0  0
  191.6400  175.9590  147.8460 O   0  0  0  0  0  0  0  0  0  0  0  0
  190.0600  177.9710  142.8710 C   0  0  0  0  0  3  0  0  0  0  0  0
  189.1410  176.5410  144.6590 C   0  0  0  0  0  2  0  0  0  0  0  0
  184.9560  178.1760  143.5860 C   0  0  0  0  0  2  0  0  0  0  0  0
  187.3780  178.4550  147.4240 C   0  0  0  0  0  0  0  0  0  0  0  0
  186.1420  179.0030  147.4710 N   0  0  0  0  0  2  0  0  0  0  0  0
  191.9040  176.5530  145.6580 O   0  0  0  0  0  0  0  0  0  0  0  0
  186.2360  177.6670  144.2040 C   0  0  0  0  0  3  0  0  0  0  0  0
  191.5600  177.1690  144.4820 O   0  0  0  0  0  0  0  0  0  0  0  0
  189.8430  177.2170  146.9900 C   0  0  0  0  0  0  0  0  0  0  0  0
  187.9130  176.8500  142.3460 C   0  0  0  0  0  1  0  0  0  0  0  0
  188.7290  178.1230  142.2050 C   0  0  2  0  0  3  0  0  0  0  0  0
  188.9020  178.4740  140.7650 C   0  0  0  0  0  0  0  0  0  0  0  0
  190.0320  178.0380  140.0860 O   0  0  0  0  0  0  0  0  0  0  0  0
  188.0340  179.1600  140.1610 O   0  0  0  0  0  1  0  0  0  0  0  0
  1 15  1  0  0  0  0
  2  1  2  0  0  0  0
  2 20  1  0  0  0  0
  4  1  1  0  0  0  0
  4  8  1  0  0  0  0
  5 19  1  0  0  0  0
  5 13  1  0  0  0  0
  6  9  1  0  0  0  0
  7  3  1  0  0  0  0
  8 16  1  0  0  0  0
  9  8  2  0  0  0  0
 10 20  1  0  0  0  0
 10 11  2  0  0  0  0
 12  5  2  0  0  0  0
 13  2  1  0  0  0  0
 14 18  1  0  0  0  0
 14  6  1  0  0  0  0
 15 16  1  0  0  0  0
 15  3  2  0  0  0  0
 17 10  1  0  0  0  0
 18  4  2  0  0  0  0
 19 17  1  0  0  0  0
 20  7  2  0  0  0  0
 22 21  1  6  0  0  0
 22 12  1  0  0  0  0
 23 22  1  0  0  0  0
 24 23  2  0  0  0  0
 25 23  1  0  0  0  0
M  END
>  <MODEL>
4

>  <REMARK>
 VINA RESULT:      -7.9      3.034      5.008
  Name = 
  2 active torsions:
  status: ('A' for Active; 'I' for Inactive)
    1  A    between atoms: C_2  and  C_25
    2  A    between atoms: C_15  and  C_25
                            x       y       z     vdW  Elec       q    Type
                         _______ _______ _______ _____ _____    ______ ____

>  <TORSDO>
F 2

$$$$
=
 OpenBabel10272400553D

 25 28  0  0  1  0  0  0  0  0999 V2000
  186.8140  178.2980  143.8400 C   0  0  0  0  0  0  0  0  0  0  0  0
  186.8760  178.6650  142.4890 C   0  0  0  0  0  0  0  0  0  0  0  0
  184.4120  178.0400  143.7680 C   0  0  0  0  0  3  0  0  0  0  0  0
  187.7770  178.1360  144.8100 C   0  0  0  0  0  0  0  0  0  0  0  0
  188.4420  178.0100  140.7570 C   0  0  0  0  0  0  0  0  0  0  0  0
  189.1120  177.9660  147.2670 C   0  0  0  0  0  2  0  0  0  0  0  0
  184.4430  178.4230  142.4180 C   0  0  0  0  0  3  0  0  0  0  0  0
  187.1050  177.7620  145.9520 C   0  0  0  0  0  0  0  0  0  0  0  0
  187.6930  177.6120  147.1000 N   0  0  0  0  0  0  0  0  0  0  0  0
  185.6120  179.1600  140.3520 C   0  0  0  0  0  0  0  0  0  0  0  0
  184.6300  179.8530  139.9730 O   0  0  0  0  0  0  0  0  0  0  0  0
  189.4260  177.1150  140.8630 C   0  0  0  0  0  3  0  0  0  0  0  0
  188.1720  179.0020  141.8370 C   0  0  0  0  0  2  0  0  0  0  0  0
  189.9100  177.8170  145.9510 C   0  0  0  0  0  2  0  0  0  0  0  0
  185.6180  177.9800  144.4560 C   0  0  0  0  0  0  0  0  0  0  0  0
  185.7730  177.6430  145.7570 N   0  0  0  0  0  2  0  0  0  0  0  0
  186.5630  178.7880  139.3880 O   0  0  0  0  0  0  0  0  0  0  0  0
  189.1030  178.2480  144.7500 C   0  0  0  0  0  3  0  0  0  0  0  0
  187.6660  178.0010  139.5970 O   0  0  0  0  0  0  0  0  0  0  0  0
  185.6620  178.7250  141.7650 C   0  0  0  0  0  0  0  0  0  0  0  0
  191.8000  177.0580  141.5760 C   0  0  0  0  0  1  0  0  0  0  0  0
  190.3520  177.0270  142.0350 C   0  0  2  0  0  3  0  0  0  0  0  0
  190.0830  175.7880  142.8230 C   0  0  0  0  0  0  0  0  0  0  0  0
  188.7750  175.3440  142.9710 O   0  0  0  0  0  0  0  0  0  0  0  0
  191.0260  175.1430  143.3530 O   0  0  0  0  0  1  0  0  0  0  0  0
  1 15  1  0  0  0  0
  1  4  1  0  0  0  0
  2  1  2  0  0  0  0
  3 15  2  0  0  0  0
  4  8  1  0  0  0  0
  5 12  2  0  0  0  0
  5 13  1  0  0  0  0
  7  3  1  0  0  0  0
  8  9  2  0  0  0  0
  9  6  1  0  0  0  0
 10 20  1  0  0  0  0
 11 10  2  0  0  0  0
 12 22  1  0  0  0  0
 13  2  1  0  0  0  0
 14  6  1  0  0  0  0
 15 16  1  0  0  0  0
 16  8  1  0  0  0  0
 17 19  1  0  0  0  0
 17 10  1  0  0  0  0
 18  4  2  0  0  0  0
 18 14  1  0  0  0  0
 19  5  1  0  0  0  0
 20  7  2  0  0  0  0
 20  2  1  0  0  0  0
 22 21  1  6  0  0  0
 22 23  1  0  0  0  0
 23 24  2  0  0  0  0
 23 25  1  0  0  0  0
M  END
>  <MODEL>
5

>  <REMARK>
 VINA RESULT:      -7.8      3.194      4.889
  Name = 
  2 active torsions:
  status: ('A' for Active; 'I' for Inactive)
    1  A    between atoms: C_2  and  C_25
    2  A    between atoms: C_15  and  C_25
                            x       y       z     vdW  Elec       q    Type
                         _______ _______ _______ _____ _____    ______ ____

>  <TORSDO>
F 2

$$$$
=
 OpenBabel10272400553D

 25 28  0  0  1  0  0  0  0  0999 V2000
  187.5850  178.0390  144.4940 C   0  0  0  0  0  0  0  0  0  0  0  0
  188.2900  178.0640  143.2820 C   0  0  0  0  0  0  0  0  0  0  0  0
  185.4470  177.9630  143.3700 C   0  0  0  0  0  3  0  0  0  0  0  0
  187.9890  178.0390  145.8100 C   0  0  0  0  0  0  0  0  0  0  0  0
  190.3040  176.8900  142.6160 C   0  0  0  0  0  0  0  0  0  0  0  0
  188.0760  178.3590  148.5920 C   0  0  0  0  0  2  0  0  0  0  0  0
  186.1270  178.0070  142.1430 C   0  0  0  0  0  3  0  0  0  0  0  0
  186.8340  178.0050  146.5590 C   0  0  0  0  0  0  0  0  0  0  0  0
  186.8300  178.0890  147.8550 N   0  0  0  0  0  0  0  0  0  0  0  0
  188.1850  178.1300  140.7540 C   0  0  0  0  0  0  0  0  0  0  0  0
  187.6060  178.7880  139.8490 O   0  0  0  0  0  0  0  0  0  0  0  0
  190.9680  175.9720  143.3210 C   0  0  0  0  0  3  0  0  0  0  0  0
  189.7770  178.1310  143.2540 C   0  0  0  0  0  2  0  0  0  0  0  0
  189.3230  177.8360  147.8420 C   0  0  0  0  0  2  0  0  0  0  0  0
  186.2050  177.9750  144.5350 C   0  0  0  0  0  0  0  0  0  0  0  0
  185.7200  177.9490  145.7970 N   0  0  0  0  0  2  0  0  0  0  0  0
  189.3750  177.4640  140.4210 O   0  0  0  0  0  0  0  0  0  0  0  0
  189.2060  178.0280  146.3490 C   0  0  0  0  0  3  0  0  0  0  0  0
  190.1180  176.6650  141.2520 O   0  0  0  0  0  0  0  0  0  0  0  0
  187.5410  178.0460  142.0830 C   0  0  0  0  0  0  0  0  0  0  0  0
  191.9810  177.4020  145.0740 C   0  0  0  0  0  1  0  0  0  0  0  0
  191.2630  176.0950  144.7830 C   0  0  2  0  0  3  0  0  0  0  0  0
  192.0790  174.9370  145.2510 C   0  0  0  0  0  0  0  0  0  0  0  0
  192.5370  174.9090  146.5620 O   0  0  0  0  0  1  0  0  0  0  0  0
  192.3570  173.9870  144.4710 O   0  0  0  0  0  0  0  0  0  0  0  0
  1 15  1  0  0  0  0
  1  4  1  0  0  0  0
  2  1  2  0  0  0  0
  3 15  2  0  0  0  0
  4 18  2  0  0  0  0
  4  8  1  0  0  0  0
  5 13  1  0  0  0  0
  5 12  2  0  0  0  0
  7  3  1  0  0  0  0
  8  9  2  0  0  0  0
  9  6  1  0  0  0  0
 10 20  1  0  0  0  0
 11 10  2  0  0  0  0
 12 22  1  0  0  0  0
 13  2  1  0  0  0  0
 14  6  1  0  0  0  0
 15 16  1  0  0  0  0
 16  8  1  0  0  0  0
 17 10  1  0  0  0  0
 17 19  1  0  0  0  0
 18 14  1  0  0  0  0
 19  5  1  0  0  0  0
 20  7  2  0  0  0  0
 20  2  1  0  0  0  0
 22 21  1  6  0  0  0
 22 23  1  0  0  0  0
 23 24  1  0  0  0  0
 25 23  2  0  0  0  0
M  END
>  <MODEL>
6

>  <REMARK>
 VINA RESULT:      -7.4      3.254      5.150
  Name = 
  2 active torsions:
  status: ('A' for Active; 'I' for Inactive)
    1  A    between atoms: C_2  and  C_25
    2  A    between atoms: C_15  and  C_25
                            x       y       z     vdW  Elec       q    Type
                         _______ _______ _______ _____ _____    ______ ____

>  <TORSDO>
F 2

$$$$
=
 OpenBabel10272400553D

 25 28  0  0  1  0  0  0  0  0999 V2000
  185.9620  178.1730  144.7300 C   0  0  0  0  0  0  0  0  0  0  0  0
  187.1440  177.5000  145.0700 C   0  0  0  0  0  0  0  0  0  0  0  0
  185.8430  179.2670  146.8820 C   0  0  0  0  0  3  0  0  0  0  0  0
  185.1940  178.1950  143.5880 C   0  0  0  0  0  0  0  0  0  0  0  0
  189.1510  177.1060  143.7680 C   0  0  0  0  0  0  0  0  0  0  0  0
  183.0560  178.4400  141.7940 C   0  0  0  0  0  2  0  0  0  0  0  0
  187.0160  178.5910  147.2540 C   0  0  0  0  0  3  0  0  0  0  0  0
  184.1460  179.0470  143.8540 C   0  0  0  0  0  0  0  0  0  0  0  0
  183.1630  179.2390  143.0270 N   0  0  0  0  0  0  0  0  0  0  0  0
  188.8890  177.0120  146.8370 C   0  0  0  0  0  0  0  0  0  0  0  0
  188.9380  176.6580  148.0450 O   0  0  0  0  0  0  0  0  0  0  0  0
  189.4210  177.5750  142.5480 C   0  0  0  0  0  3  0  0  0  0  0  0
  187.8040  176.5680  144.1140 C   0  0  0  0  0  2  0  0  0  0  0  0
  184.4360  177.9700  141.2810 C   0  0  0  0  0  2  0  0  0  0  0  0
  185.3390  179.0420  145.6060 C   0  0  0  0  0  0  0  0  0  0  0  0
  184.2200  179.5960  145.0870 N   0  0  0  0  0  2  0  0  0  0  0  0
  190.0170  176.7700  146.0370 O   0  0  0  0  0  0  0  0  0  0  0  0
  185.3620  177.5940  142.4120 C   0  0  0  0  0  3  0  0  0  0  0  0
  190.1710  177.1230  144.7210 O   0  0  0  0  0  0  0  0  0  0  0  0
  187.6810  177.7190  146.3600 C   0  0  0  0  0  0  0  0  0  0  0  0
  188.8780  176.6580  140.3100 C   0  0  0  0  0  1  0  0  0  0  0  0
  188.4350  177.5930  141.4230 C   0  0  2  0  0  3  0  0  0  0  0  0
  188.2630  178.9800  140.9000 C   0  0  0  0  0  0  0  0  0  0  0  0
  188.7480  179.3000  139.6390 O   0  0  0  0  0  0  0  0  0  0  0  0
  187.6830  179.8610  141.5890 O   0  0  0  0  0  1  0  0  0  0  0  0
  1  2  2  0  0  0  0
  1 15  1  0  0  0  0
  2 20  1  0  0  0  0
  3  7  1  0  0  0  0
  4  8  1  0  0  0  0
  4  1  1  0  0  0  0
  5 13  1  0  0  0  0
  5 19  1  0  0  0  0
  6  9  1  0  0  0  0
  8 16  1  0  0  0  0
  9  8  2  0  0  0  0
 10 11  2  0  0  0  0
 12  5  2  0  0  0  0
 13  2  1  0  0  0  0
 14  6  1  0  0  0  0
 14 18  1  0  0  0  0
 15  3  2  0  0  0  0
 16 15  1  0  0  0  0
 17 10  1  0  0  0  0
 18  4  2  0  0  0  0
 19 17  1  0  0  0  0
 20 10  1  0  0  0  0
 20  7  2  0  0  0  0
 22 21  1  6  0  0  0
 22 12  1  0  0  0  0
 23 22  1  0  0  0  0
 23 25  1  0  0  0  0
 24 23  2  0  0  0  0
M  END
>  <MODEL>
7

>  <REMARK>
 VINA RESULT:      -7.0      2.302      3.891
  Name = 
  2 active torsions:
  status: ('A' for Active; 'I' for Inactive)
    1  A    between atoms: C_2  and  C_25
    2  A    between atoms: C_15  and  C_25
                            x       y       z     vdW  Elec       q    Type
                         _______ _______ _______ _____ _____    ______ ____

>  <TORSDO>
F 2

$$$$
=
 OpenBabel10272400553D

 25 28  0  0  1  0  0  0  0  0999 V2000
  184.6140  178.8910  143.2290 C   0  0  0  0  0  0  0  0  0  0  0  0
  185.0680  179.1770  141.9340 C   0  0  0  0  0  0  0  0  0  0  0  0
  182.3310  178.6250  142.4810 C   0  0  0  0  0  3  0  0  0  0  0  0
  185.2540  178.7900  144.4430 C   0  0  0  0  0  0  0  0  0  0  0  0
  187.0570  178.4220  140.7690 C   0  0  0  0  0  0  0  0  0  0  0  0
  185.8210  178.7710  147.1870 C   0  0  0  0  0  2  0  0  0  0  0  0
  182.7560  178.9260  141.1780 C   0  0  0  0  0  3  0  0  0  0  0  0
  184.2750  178.4850  145.3620 C   0  0  0  0  0  0  0  0  0  0  0  0
  184.5040  178.4050  146.6380 N   0  0  0  0  0  0  0  0  0  0  0  0
  184.4830  179.5400  139.4980 C   0  0  0  0  0  0  0  0  0  0  0  0
  183.6630  180.2070  138.8120 O   0  0  0  0  0  0  0  0  0  0  0  0
  187.9560  177.5380  141.2070 C   0  0  0  0  0  3  0  0  0  0  0  0
  186.5030  179.4770  141.6660 C   0  0  0  0  0  2  0  0  0  0  0  0
  186.9610  178.5460  146.1680 C   0  0  0  0  0  2  0  0  0  0  0  0
  183.2870  178.6090  143.4910 C   0  0  0  0  0  0  0  0  0  0  0  0
  183.0540  178.3510  144.7980 N   0  0  0  0  0  2  0  0  0  0  0  0
  185.6650  179.1130  138.8730 O   0  0  0  0  0  0  0  0  0  0  0  0
  186.5420  178.9020  144.7620 C   0  0  0  0  0  3  0  0  0  0  0  0
  186.6490  178.3430  139.4380 O   0  0  0  0  0  0  0  0  0  0  0  0
  184.1160  179.1910  140.8880 C   0  0  0  0  0  0  0  0  0  0  0  0
  189.7930  178.3210  142.6760 C   0  0  0  0  0  1  0  0  0  0  0  0
  188.5020  177.5220  142.6000 C   0  0  2  0  0  3  0  0  0  0  0  0
  188.7310  176.1200  143.0570 C   0  0  0  0  0  0  0  0  0  0  0  0
  190.0090  175.5820  142.9960 O   0  0  0  0  0  0  0  0  0  0  0  0
  187.7780  175.4230  143.4970 O   0  0  0  0  0  1  0  0  0  0  0  0
  1 15  1  0  0  0  0
  1  4  1  0  0  0  0
  2  1  2  0  0  0  0
  3 15  2  0  0  0  0
  4 18  2  0  0  0  0
  4  8  1  0  0  0  0
  5 12  2  0  0  0  0
  5 13  1  0  0  0  0
  7  3  1  0  0  0  0
  8  9  2  0  0  0  0
  9  6  1  0  0  0  0
 10 20  1  0  0  0  0
 11 10  2  0  0  0  0
 12 22  1  0  0  0  0
 13  2  1  0  0  0  0
 14  6  1  0  0  0  0
 15 16  1  0  0  0  0
 16  8  1  0  0  0  0
 17 19  1  0  0  0  0
 17 10  1  0  0  0  0
 18 14  1  0  0  0  0
 19  5  1  0  0  0  0
 20  7  2  0  0  0  0
 20  2  1  0  0  0  0
 22 21  1  6  0  0  0
 22 23  1  0  0  0  0
 23 25  1  0  0  0  0
 24 23  2  0  0  0  0
M  END
>  <MODEL>
8

>  <REMARK>
 VINA RESULT:      -6.9      3.498      5.360
  Name = 
  2 active torsions:
  status: ('A' for Active; 'I' for Inactive)
    1  A    between atoms: C_2  and  C_25
    2  A    between atoms: C_15  and  C_25
                            x       y       z     vdW  Elec       q    Type
                         _______ _______ _______ _____ _____    ______ ____

>  <TORSDO>
F 2

$$$$
=
 OpenBabel10272400553D

 25 28  0  0  1  0  0  0  0  0999 V2000
  187.6210  178.0080  145.5740 C   0  0  0  0  0  0  0  0  0  0  0  0
  186.9300  178.6020  144.5090 C   0  0  0  0  0  0  0  0  0  0  0  0
  185.6000  177.7400  146.8720 C   0  0  0  0  0  3  0  0  0  0  0  0
  188.9470  177.6930  145.7690 C   0  0  0  0  0  0  0  0  0  0  0  0
  187.1550  178.2720  142.1170 C   0  0  0  0  0  0  0  0  0  0  0  0
  191.4270  177.1200  146.9400 C   0  0  0  0  0  2  0  0  0  0  0  0
  184.8870  178.3490  145.8280 C   0  0  0  0  0  3  0  0  0  0  0  0
  189.0200  177.1220  147.0200 C   0  0  0  0  0  0  0  0  0  0  0  0
  190.1430  176.7840  147.5780 N   0  0  0  0  0  0  0  0  0  0  0  0
  184.7220  179.4420  143.6020 C   0  0  0  0  0  0  0  0  0  0  0  0
  183.7680  180.1790  143.9690 O   0  0  0  0  0  0  0  0  0  0  0  0
  187.9370  177.3830  141.5000 C   0  0  0  0  0  3  0  0  0  0  0  0
  187.6440  179.0610  143.2850 C   0  0  0  0  0  2  0  0  0  0  0  0
  191.3090  177.2090  145.4010 C   0  0  0  0  0  2  0  0  0  0  0  0
  186.9720  177.5770  146.7150 C   0  0  0  0  0  0  0  0  0  0  0  0
  187.8120  177.0230  147.6190 N   0  0  0  0  0  2  0  0  0  0  0  0
  184.9100  179.2520  142.2240 O   0  0  0  0  0  0  0  0  0  0  0  0
  190.0020  177.8300  144.9690 C   0  0  0  0  0  3  0  0  0  0  0  0
  185.8580  178.4540  141.6360 O   0  0  0  0  0  0  0  0  0  0  0  0
  185.5320  178.7720  144.6420 C   0  0  0  0  0  0  0  0  0  0  0  0
  190.2470  177.0570  140.6610 C   0  0  0  0  0  1  0  0  0  0  0  0
  189.3550  177.1060  141.8900 C   0  0  2  0  0  3  0  0  0  0  0  0
  189.4470  175.8260  142.6520 C   0  0  0  0  0  0  0  0  0  0  0  0
  188.3090  175.3070  143.2560 O   0  0  0  0  0  1  0  0  0  0  0  0
  190.5440  175.2140  142.7530 O   0  0  0  0  0  0  0  0  0  0  0  0
  1  4  1  0  0  0  0
  1 15  1  0  0  0  0
  2 20  1  0  0  0  0
  2  1  2  0  0  0  0
  4  8  1  0  0  0  0
  5 13  1  0  0  0  0
  6  9  1  0  0  0  0
  7  3  1  0  0  0  0
  8  9  2  0  0  0  0
  8 16  1  0  0  0  0
 10 11  2  0  0  0  0
 10 20  1  0  0  0  0
 12 22  1  0  0  0  0
 12  5  2  0  0  0  0
 13  2  1  0  0  0  0
 14  6  1  0  0  0  0
 15  3  2  0  0  0  0
 15 16  1  0  0  0  0
 17 10  1  0  0  0  0
 18 14  1  0  0  0  0
 18  4  2  0  0  0  0
 19  5  1  0  0  0  0
 19 17  1  0  0  0  0
 20  7  2  0  0  0  0
 22 21  1  6  0  0  0
 22 23  1  0  0  0  0
 23 25  2  0  0  0  0
 23 24  1  0  0  0  0
M  END
>  <MODEL>
9

>  <REMARK>
 VINA RESULT:      -6.8      3.126      4.754
  Name = 
  2 active torsions:
  status: ('A' for Active; 'I' for Inactive)
    1  A    between atoms: C_2  and  C_25
    2  A    between atoms: C_15  and  C_25
                            x       y       z     vdW  Elec       q    Type
                         _______ _______ _______ _____ _____    ______ ____

>  <TORSDO>
F 2

$$$$
