=
 OpenBabel10272401063D

 27 31  0  0  1  0  0  0  0  0999 V2000
  187.3400  178.4600  142.0550 N   0  0  0  0  0  2  0  0  0  0  0  0
  187.7940  177.5530  144.2500 C   0  0  0  0  0  0  0  0  0  0  0  0
  189.3250  176.3170  142.7840 O   0  0  0  0  0  0  0  0  0  0  0  0
  190.5320  177.1400  147.4160 C   0  0  0  0  0  3  0  0  0  0  0  0
  192.6230  176.2990  148.2730 O   0  0  0  0  0  1  0  0  0  0  0  0
  187.5260  178.1140  145.5100 C   0  0  0  0  0  3  0  0  0  0  0  0
  191.1150  176.0190  144.9170 C   0  0  0  0  0  3  0  0  0  0  0  0
  190.3500  177.2050  139.3630 C   0  0  0  0  0  0  0  0  0  0  0  0
  192.0170  175.8800  145.9760 C   0  0  0  0  0  3  0  0  0  0  0  0
  191.2900  176.7740  138.4370 O   0  0  0  0  0  1  0  0  0  0  0  0
  189.9120  176.7180  145.0970 C   0  0  0  0  0  0  0  0  0  0  0  0
  186.8050  177.6410  143.1270 C   0  0  1  0  0  3  0  0  0  0  0  0
  191.7250  176.4390  147.2240 C   0  0  0  0  0  0  0  0  0  0  0  0
  189.6240  177.2820  146.3620 C   0  0  0  0  0  0  0  0  0  0  0  0
  188.4280  178.0550  141.2220 C   0  0  0  0  0  0  0  0  0  0  0  0
  189.0060  176.8740  144.0320 C   0  0  0  0  0  0  0  0  0  0  0  0
  190.2340  176.5580  140.5930 C   0  0  0  0  0  3  0  0  0  0  0  0
  188.4370  177.9820  146.5580 C   0  0  0  0  0  3  0  0  0  0  0  0
  189.5280  178.2920  139.0690 C   0  0  0  0  0  3  0  0  0  0  0  0
  188.5700  178.7080  139.9930 C   0  0  0  0  0  3  0  0  0  0  0  0
  189.2990  176.9810  141.5460 C   0  0  0  0  0  0  0  0  0  0  0  0
  182.8520  178.9390  144.2290 C   0  0  0  0  0  3  0  0  0  0  0  0
  185.4350  178.1100  143.5280 C   0  0  0  0  0  0  0  0  0  0  0  0
  184.4660  178.3080  142.5370 C   0  0  0  0  0  3  0  0  0  0  0  0
  183.1780  178.7240  142.8870 C   0  0  0  0  0  3  0  0  0  0  0  0
  183.8140  178.7370  145.2230 C   0  0  0  0  0  3  0  0  0  0  0  0
  185.1020  178.3220  144.8750 C   0  0  0  0  0  3  0  0  0  0  0  0
  1 12  1  0  0  0  0
  2  6  1  0  0  0  0
  3 16  1  0  0  0  0
  6 18  2  0  0  0  0
  7 11  2  0  0  0  0
  7  9  1  0  0  0  0
  8 17  1  0  0  0  0
  9 13  2  0  0  0  0
 10  8  1  0  0  0  0
 11 14  1  0  0  0  0
 12 23  1  1  0  0  0
 12  2  1  0  0  0  0
 13  4  1  0  0  0  0
 13  5  1  0  0  0  0
 14 18  1  0  0  0  0
 14  4  2  0  0  0  0
 15 21  1  0  0  0  0
 15  1  1  0  0  0  0
 16  2  2  0  0  0  0
 16 11  1  0  0  0  0
 17 21  2  0  0  0  0
 19  8  2  0  0  0  0
 19 20  1  0  0  0  0
 20 15  2  0  0  0  0
 21  3  1  0  0  0  0
 22 26  1  0  0  0  0
 23 27  1  0  0  0  0
 24 25  1  0  0  0  0
 24 23  2  0  0  0  0
 25 22  2  0  0  0  0
 27 26  2  0  0  0  0
M  END
>  <MODEL>
1

>  <REMARK>
 VINA RESULT:     -11.8      0.000      0.000
  Name = 
  1 active torsions:
  status: ('A' for Active; 'I' for Inactive)
    1  A    between atoms: C_9  and  C_15
                            x       y       z     vdW  Elec       q    Type
                         _______ _______ _______ _____ _____    ______ ____

>  <TORSDO>
F 1

$$$$
=
 OpenBabel10272401063D

 27 31  0  0  1  0  0  0  0  0999 V2000
  186.1800  178.6750  141.3670 N   0  0  0  0  0  2  0  0  0  0  0  0
  185.7690  178.1960  143.7000 C   0  0  0  0  0  0  0  0  0  0  0  0
  187.7880  176.8990  143.1900 O   0  0  0  0  0  0  0  0  0  0  0  0
  187.0630  178.5960  147.6820 C   0  0  0  0  0  3  0  0  0  0  0  0
  188.6780  178.1280  149.4110 O   0  0  0  0  0  1  0  0  0  0  0  0
  185.0120  178.9250  144.6320 C   0  0  0  0  0  3  0  0  0  0  0  0
  188.6110  177.1440  145.8550 C   0  0  0  0  0  3  0  0  0  0  0  0
  190.0420  177.3120  140.3080 C   0  0  0  0  0  0  0  0  0  0  0  0
  189.0310  177.2760  147.1820 C   0  0  0  0  0  3  0  0  0  0  0  0
  191.2810  176.8330  139.9090 O   0  0  0  0  0  1  0  0  0  0  0  0
  187.4130  177.7350  145.4290 C   0  0  0  0  0  0  0  0  0  0  0  0
  185.2950  177.9940  142.2930 C   0  0  1  0  0  3  0  0  0  0  0  0
  188.2570  178.0000  148.0940 C   0  0  0  0  0  0  0  0  0  0  0  0
  186.6350  178.4670  146.3570 C   0  0  0  0  0  0  0  0  0  0  0  0
  187.5200  178.2540  141.1020 C   0  0  0  0  0  0  0  0  0  0  0  0
  186.9900  177.6190  144.0920 C   0  0  0  0  0  0  0  0  0  0  0  0
  189.4740  176.8680  141.5030 C   0  0  0  0  0  3  0  0  0  0  0  0
  185.4440  179.0630  145.9510 C   0  0  0  0  0  3  0  0  0  0  0  0
  189.3660  178.2440  139.5220 C   0  0  0  0  0  3  0  0  0  0  0  0
  188.1110  178.7060  139.9170 C   0  0  0  0  0  3  0  0  0  0  0  0
  188.2280  177.3430  141.9310 C   0  0  0  0  0  0  0  0  0  0  0  0
  181.1880  179.0430  141.5430 C   0  0  0  0  0  3  0  0  0  0  0  0
  183.8630  178.3790  142.0460 C   0  0  0  0  0  0  0  0  0  0  0  0
  183.3700  178.3670  140.7360 C   0  0  0  0  0  3  0  0  0  0  0  0
  182.0360  178.7010  140.4850 C   0  0  0  0  0  3  0  0  0  0  0  0
  181.6740  179.0500  142.8530 C   0  0  0  0  0  3  0  0  0  0  0  0
  183.0080  178.7170  143.1070 C   0  0  0  0  0  3  0  0  0  0  0  0
  1 12  1  0  0  0  0
  2 16  2  0  0  0  0
  2  6  1  0  0  0  0
  3 16  1  0  0  0  0
  4 13  1  0  0  0  0
  6 18  2  0  0  0  0
  7  9  1  0  0  0  0
  8 17  1  0  0  0  0
  9 13  2  0  0  0  0
 10  8  1  0  0  0  0
 11  7  2  0  0  0  0
 11 14  1  0  0  0  0
 12 23  1  1  0  0  0
 12  2  1  0  0  0  0
 13  5  1  0  0  0  0
 14  4  2  0  0  0  0
 15  1  1  0  0  0  0
 15 21  1  0  0  0  0
 16 11  1  0  0  0  0
 17 21  2  0  0  0  0
 18 14  1  0  0  0  0
 19 20  1  0  0  0  0
 19  8  2  0  0  0  0
 20 15  2  0  0  0  0
 21  3  1  0  0  0  0
 22 26  1  0  0  0  0
 23 27  1  0  0  0  0
 24 23  2  0  0  0  0
 25 24  1  0  0  0  0
 25 22  2  0  0  0  0
 26 27  2  0  0  0  0
M  END
>  <MODEL>
2

>  <REMARK>
 VINA RESULT:     -10.8      1.674      2.548
  Name = 
  1 active torsions:
  status: ('A' for Active; 'I' for Inactive)
    1  A    between atoms: C_9  and  C_15
                            x       y       z     vdW  Elec       q    Type
                         _______ _______ _______ _____ _____    ______ ____

>  <TORSDO>
F 1

$$$$
=
 OpenBabel10272401063D

 27 31  0  0  1  0  0  0  0  0999 V2000
  189.9090  176.7050  142.5450 N   0  0  0  0  0  2  0  0  0  0  0  0
  188.0450  177.7430  143.6810 C   0  0  0  0  0  0  0  0  0  0  0  0
  188.0320  178.7960  141.4660 O   0  0  0  0  0  0  0  0  0  0  0  0
  183.8770  178.2500  143.9200 C   0  0  0  0  0  3  0  0  0  0  0  0
  181.8110  179.0490  142.9650 O   0  0  0  0  0  1  0  0  0  0  0  0
  187.3280  177.2880  144.8010 C   0  0  0  0  0  3  0  0  0  0  0  0
  185.2620  179.1590  141.6630 C   0  0  0  0  0  3  0  0  0  0  0  0
  189.7270  177.6170  138.4190 C   0  0  0  0  0  0  0  0  0  0  0  0
  183.8780  179.3300  141.7530 C   0  0  0  0  0  3  0  0  0  0  0  0
  189.7320  177.9350  137.0680 O   0  0  0  0  0  1  0  0  0  0  0  0
  185.9680  178.5340  142.7010 C   0  0  0  0  0  0  0  0  0  0  0  0
  189.5370  177.6230  143.6050 C   0  0  1  0  0  3  0  0  0  0  0  0
  183.1870  178.8770  142.8800 C   0  0  0  0  0  0  0  0  0  0  0  0
  185.2610  178.0770  143.8380 C   0  0  0  0  0  0  0  0  0  0  0  0
  189.7420  176.9960  141.1550 C   0  0  0  0  0  0  0  0  0  0  0  0
  187.3590  178.3460  142.6120 C   0  0  0  0  0  0  0  0  0  0  0  0
  188.9450  178.3560  139.3070 C   0  0  0  0  0  3  0  0  0  0  0  0
  185.9460  177.4510  144.8770 C   0  0  0  0  0  3  0  0  0  0  0  0
  190.4960  176.5530  138.8880 C   0  0  0  0  0  3  0  0  0  0  0  0
  190.5050  176.2500  140.2490 C   0  0  0  0  0  3  0  0  0  0  0  0
  188.9180  178.0480  140.6740 C   0  0  0  0  0  0  0  0  0  0  0  0
  191.3980  176.5390  147.3320 C   0  0  0  0  0  3  0  0  0  0  0  0
  190.2080  177.2500  144.8970 C   0  0  0  0  0  0  0  0  0  0  0  0
  189.6240  177.6430  146.1070 C   0  0  0  0  0  3  0  0  0  0  0  0
  190.2180  177.2900  147.3220 C   0  0  0  0  0  3  0  0  0  0  0  0
  191.9820  176.1390  146.1260 C   0  0  0  0  0  3  0  0  0  0  0  0
  191.3890  176.4920  144.9110 C   0  0  0  0  0  3  0  0  0  0  0  0
  1 12  1  0  0  0  0
  2  6  1  0  0  0  0
  3 16  1  0  0  0  0
  6 18  2  0  0  0  0
  7  9  2  0  0  0  0
  7 11  1  0  0  0  0
  8 19  2  0  0  0  0
  8 17  1  0  0  0  0
  9 13  1  0  0  0  0
 10  8  1  0  0  0  0
 11 14  2  0  0  0  0
 12  2  1  0  0  0  0
 12 23  1  1  0  0  0
 13  5  1  0  0  0  0
 13  4  2  0  0  0  0
 14  4  1  0  0  0  0
 14 18  1  0  0  0  0
 15  1  1  0  0  0  0
 16 11  1  0  0  0  0
 16  2  2  0  0  0  0
 17 21  2  0  0  0  0
 19 20  1  0  0  0  0
 20 15  2  0  0  0  0
 21 15  1  0  0  0  0
 21  3  1  0  0  0  0
 23 27  2  0  0  0  0
 23 24  1  0  0  0  0
 24 25  2  0  0  0  0
 25 22  1  0  0  0  0
 26 22  2  0  0  0  0
 27 26  1  0  0  0  0
M  END
>  <MODEL>
3

>  <REMARK>
 VINA RESULT:     -10.5      2.067      5.865
  Name = 
  1 active torsions:
  status: ('A' for Active; 'I' for Inactive)
    1  A    between atoms: C_9  and  C_15
                            x       y       z     vdW  Elec       q    Type
                         _______ _______ _______ _____ _____    ______ ____

>  <TORSDO>
F 1

$$$$
=
 OpenBabel10272401063D

 27 31  0  0  1  0  0  0  0  0999 V2000
  190.1340  176.6310  141.4040 N   0  0  0  0  0  2  0  0  0  0  0  0
  188.3370  177.6390  142.6700 C   0  0  0  0  0  0  0  0  0  0  0  0
  188.2030  178.7520  140.4880 O   0  0  0  0  0  0  0  0  0  0  0  0
  184.1890  178.1410  143.1530 C   0  0  0  0  0  3  0  0  0  0  0  0
  182.0760  178.9660  142.3360 O   0  0  0  0  0  1  0  0  0  0  0  0
  187.6830  177.1540  143.8150 C   0  0  0  0  0  3  0  0  0  0  0  0
  185.4490  179.1110  140.8480 C   0  0  0  0  0  3  0  0  0  0  0  0
  189.7250  177.6550  137.3200 C   0  0  0  0  0  0  0  0  0  0  0  0
  184.0730  179.2800  141.0190 C   0  0  0  0  0  3  0  0  0  0  0  0
  189.6550  178.0100  135.9810 O   0  0  0  0  0  1  0  0  0  0  0  0
  186.2110  178.4580  141.8270 C   0  0  0  0  0  0  0  0  0  0  0  0
  189.8230  177.5210  142.5070 C   0  0  1  0  0  3  0  0  0  0  0  0
  183.4440  178.7960  142.1700 C   0  0  0  0  0  0  0  0  0  0  0  0
  185.5670  177.9700  142.9900 C   0  0  0  0  0  0  0  0  0  0  0  0
  189.8910  176.9600  140.0340 C   0  0  0  0  0  0  0  0  0  0  0  0
  187.5950  178.2710  141.6570 C   0  0  0  0  0  0  0  0  0  0  0  0
  188.9950  178.3700  138.2710 C   0  0  0  0  0  3  0  0  0  0  0  0
  186.3070  177.3150  143.9710 C   0  0  0  0  0  3  0  0  0  0  0  0
  190.5170  176.5790  137.7180 C   0  0  0  0  0  3  0  0  0  0  0  0
  190.6010  176.2390  139.0670 C   0  0  0  0  0  3  0  0  0  0  0  0
  189.0430  178.0250  139.6280 C   0  0  0  0  0  0  0  0  0  0  0  0
  191.8900  176.3700  146.1030 C   0  0  0  0  0  3  0  0  0  0  0  0
  190.5640  177.1130  143.7500 C   0  0  0  0  0  0  0  0  0  0  0  0
  190.4880  177.9260  144.8870 C   0  0  0  0  0  3  0  0  0  0  0  0
  191.1510  177.5560  146.0600 C   0  0  0  0  0  3  0  0  0  0  0  0
  191.9640  175.5510  144.9720 C   0  0  0  0  0  3  0  0  0  0  0  0
  191.3020  175.9200  143.7980 C   0  0  0  0  0  3  0  0  0  0  0  0
  1 12  1  0  0  0  0
  2  6  1  0  0  0  0
  3 16  1  0  0  0  0
  6 18  2  0  0  0  0
  7  9  2  0  0  0  0
  7 11  1  0  0  0  0
  8 19  2  0  0  0  0
  8 17  1  0  0  0  0
  9 13  1  0  0  0  0
 10  8  1  0  0  0  0
 11 14  2  0  0  0  0
 12  2  1  0  0  0  0
 12 23  1  1  0  0  0
 13  5  1  0  0  0  0
 13  4  2  0  0  0  0
 14  4  1  0  0  0  0
 14 18  1  0  0  0  0
 15  1  1  0  0  0  0
 16 11  1  0  0  0  0
 16  2  2  0  0  0  0
 17 21  2  0  0  0  0
 19 20  1  0  0  0  0
 20 15  2  0  0  0  0
 21 15  1  0  0  0  0
 21  3  1  0  0  0  0
 23 27  2  0  0  0  0
 23 24  1  0  0  0  0
 24 25  2  0  0  0  0
 25 22  1  0  0  0  0
 26 22  2  0  0  0  0
 27 26  1  0  0  0  0
M  END
>  <MODEL>
4

>  <REMARK>
 VINA RESULT:     -10.4      2.450      6.077
  Name = 
  1 active torsions:
  status: ('A' for Active; 'I' for Inactive)
    1  A    between atoms: C_9  and  C_15
                            x       y       z     vdW  Elec       q    Type
                         _______ _______ _______ _____ _____    ______ ____

>  <TORSDO>
F 1

$$$$
=
 OpenBabel10272401063D

 27 31  0  0  1  0  0  0  0  0999 V2000
  188.1690  177.2410  142.8480 N   0  0  0  0  0  2  0  0  0  0  0  0
  186.0240  178.3560  142.8650 C   0  0  0  0  0  0  0  0  0  0  0  0
  187.0350  179.0790  140.7500 O   0  0  0  0  0  0  0  0  0  0  0  0
  182.2070  178.7240  141.1380 C   0  0  0  0  0  3  0  0  0  0  0  0
  180.8120  179.2930  139.2550 O   0  0  0  0  0  1  0  0  0  0  0  0
  184.8690  178.0390  143.5990 C   0  0  0  0  0  3  0  0  0  0  0  0
  184.4820  179.3540  139.6320 C   0  0  0  0  0  3  0  0  0  0  0  0
  189.8810  177.5430  138.9920 C   0  0  0  0  0  0  0  0  0  0  0  0
  183.2100  179.4810  139.0680 C   0  0  0  0  0  3  0  0  0  0  0  0
  190.4990  177.6630  137.7560 O   0  0  0  0  0  1  0  0  0  0  0  0
  184.6300  178.9140  140.9550 C   0  0  0  0  0  0  0  0  0  0  0  0
  187.3880  178.2870  143.4820 C   0  0  1  0  0  3  0  0  0  0  0  0
  182.0740  179.1670  139.8200 C   0  0  0  0  0  0  0  0  0  0  0  0
  183.4760  178.5970  141.7100 C   0  0  0  0  0  0  0  0  0  0  0  0
  188.6510  177.3220  141.5040 C   0  0  0  0  0  0  0  0  0  0  0  0
  185.9080  178.7710  141.5270 C   0  0  0  0  0  0  0  0  0  0  0  0
  188.8060  178.3690  139.3180 C   0  0  0  0  0  3  0  0  0  0  0  0
  183.6040  178.1540  143.0250 C   0  0  0  0  0  3  0  0  0  0  0  0
  190.3270  176.5890  139.9060 C   0  0  0  0  0  3  0  0  0  0  0  0
  189.7170  176.4860  141.1550 C   0  0  0  0  0  3  0  0  0  0  0  0
  188.1600  178.2600  140.5570 C   0  0  0  0  0  0  0  0  0  0  0  0
  187.4850  177.8590  147.7640 C   0  0  0  0  0  3  0  0  0  0  0  0
  187.3990  178.1310  144.9770 C   0  0  0  0  0  0  0  0  0  0  0  0
  188.4890  177.5010  145.5890 C   0  0  0  0  0  3  0  0  0  0  0  0
  188.5320  177.3640  146.9790 C   0  0  0  0  0  3  0  0  0  0  0  0
  186.3970  178.4930  147.1580 C   0  0  0  0  0  3  0  0  0  0  0  0
  186.3530  178.6310  145.7680 C   0  0  0  0  0  3  0  0  0  0  0  0
  1 12  1  0  0  0  0
  2 12  1  0  0  0  0
  2  6  1  0  0  0  0
  3 16  1  0  0  0  0
  4 14  1  0  0  0  0
  5 13  1  0  0  0  0
  7 11  1  0  0  0  0
  8 17  2  0  0  0  0
  8 19  1  0  0  0  0
  9  7  2  0  0  0  0
  9 13  1  0  0  0  0
 10  8  1  0  0  0  0
 11 16  1  0  0  0  0
 11 14  2  0  0  0  0
 12 23  1  1  0  0  0
 13  4  2  0  0  0  0
 14 18  1  0  0  0  0
 15  1  1  0  0  0  0
 16  2  2  0  0  0  0
 17 21  1  0  0  0  0
 18  6  2  0  0  0  0
 19 20  2  0  0  0  0
 20 15  1  0  0  0  0
 21  3  1  0  0  0  0
 21 15  2  0  0  0  0
 23 24  2  0  0  0  0
 23 27  1  0  0  0  0
 24 25  1  0  0  0  0
 25 22  2  0  0  0  0
 26 22  1  0  0  0  0
 27 26  2  0  0  0  0
M  END
>  <MODEL>
5

>  <REMARK>
 VINA RESULT:     -10.0      2.592      6.308
  Name = 
  1 active torsions:
  status: ('A' for Active; 'I' for Inactive)
    1  A    between atoms: C_9  and  C_15
                            x       y       z     vdW  Elec       q    Type
                         _______ _______ _______ _____ _____    ______ ____

>  <TORSDO>
F 1

$$$$
=
 OpenBabel10272401063D

 27 31  0  0  1  0  0  0  0  0999 V2000
  189.8600  178.1030  141.5310 N   0  0  0  0  0  2  0  0  0  0  0  0
  187.4450  177.9790  141.5540 C   0  0  0  0  0  0  0  0  0  0  0  0
  188.0980  176.9700  143.6930 O   0  0  0  0  0  0  0  0  0  0  0  0
  183.8470  179.2850  143.2970 C   0  0  0  0  0  3  0  0  0  0  0  0
  182.3710  179.4060  145.2000 O   0  0  0  0  0  1  0  0  0  0  0  0
  186.5150  178.7250  140.8110 C   0  0  0  0  0  3  0  0  0  0  0  0
  185.6780  177.8140  144.8220 C   0  0  0  0  0  3  0  0  0  0  0  0
  191.3510  177.2400  145.3930 C   0  0  0  0  0  0  0  0  0  0  0  0
  184.4770  178.2460  145.3920 C   0  0  0  0  0  3  0  0  0  0  0  0
  191.8830  176.9130  146.6320 O   0  0  0  0  0  1  0  0  0  0  0  0
  185.9750  178.1110  143.4840 C   0  0  0  0  0  0  0  0  0  0  0  0
  188.7060  177.4560  140.9340 C   0  0  1  0  0  3  0  0  0  0  0  0
  183.5630  178.9790  144.6300 C   0  0  0  0  0  0  0  0  0  0  0  0
  185.0450  178.8550  142.7190 C   0  0  0  0  0  0  0  0  0  0  0  0
  190.2850  177.8720  142.8760 C   0  0  0  0  0  0  0  0  0  0  0  0
  187.1880  177.6930  142.9070 C   0  0  0  0  0  0  0  0  0  0  0  0
  190.0250  176.9240  145.0970 C   0  0  0  0  0  3  0  0  0  0  0  0
  185.3250  179.1630  141.3900 C   0  0  0  0  0  3  0  0  0  0  0  0
  192.1390  177.8930  144.4460 C   0  0  0  0  0  3  0  0  0  0  0  0
  191.6070  178.2000  143.1940 C   0  0  0  0  0  3  0  0  0  0  0  0
  189.4640  177.2520  143.8560 C   0  0  0  0  0  0  0  0  0  0  0  0
  188.9080  177.7570  136.6450 C   0  0  0  0  0  3  0  0  0  0  0  0
  188.7570  177.5470  139.4350 C   0  0  0  0  0  0  0  0  0  0  0  0
  188.9930  178.7890  138.8340 C   0  0  0  0  0  3  0  0  0  0  0  0
  189.0660  178.8950  137.4420 C   0  0  0  0  0  3  0  0  0  0  0  0
  188.6780  176.5130  137.2400 C   0  0  0  0  0  3  0  0  0  0  0  0
  188.6040  176.4060  138.6310 C   0  0  0  0  0  3  0  0  0  0  0  0
  1 15  1  0  0  0  0
  2 16  1  0  0  0  0
  3 21  1  0  0  0  0
  4 13  2  0  0  0  0
  6 18  1  0  0  0  0
  6  2  2  0  0  0  0
  7  9  2  0  0  0  0
  8 10  1  0  0  0  0
 11  7  1  0  0  0  0
 12 23  1  6  0  0  0
 12  1  1  0  0  0  0
 12  2  1  0  0  0  0
 13  5  1  0  0  0  0
 13  9  1  0  0  0  0
 14  4  1  0  0  0  0
 14 11  1  0  0  0  0
 15 20  2  0  0  0  0
 15 21  1  0  0  0  0
 16 11  2  0  0  0  0
 16  3  1  0  0  0  0
 17  8  1  0  0  0  0
 18 14  2  0  0  0  0
 19  8  2  0  0  0  0
 20 19  1  0  0  0  0
 21 17  2  0  0  0  0
 22 26  2  0  0  0  0
 22 25  1  0  0  0  0
 24 23  1  0  0  0  0
 25 24  2  0  0  0  0
 26 27  1  0  0  0  0
 27 23  2  0  0  0  0
M  END
>  <MODEL>
6

>  <REMARK>
 VINA RESULT:      -9.8      2.202      6.316
  Name = 
  1 active torsions:
  status: ('A' for Active; 'I' for Inactive)
    1  A    between atoms: C_9  and  C_15
                            x       y       z     vdW  Elec       q    Type
                         _______ _______ _______ _____ _____    ______ ____

>  <TORSDO>
F 1

$$$$
=
 OpenBabel10272401063D

 27 31  0  0  1  0  0  0  0  0999 V2000
  184.8330  178.0170  140.9800 N   0  0  0  0  0  2  0  0  0  0  0  0
  186.6340  178.2350  142.5790 C   0  0  0  0  0  0  0  0  0  0  0  0
  184.7680  179.4170  143.6440 O   0  0  0  0  0  0  0  0  0  0  0  0
  188.1410  177.2400  146.3770 C   0  0  0  0  0  3  0  0  0  0  0  0
  187.9880  177.3580  148.7810 O   0  0  0  0  0  1  0  0  0  0  0  0
  187.7980  177.4590  142.7100 C   0  0  0  0  0  3  0  0  0  0  0  0
  185.8100  178.7770  146.1640 C   0  0  0  0  0  3  0  0  0  0  0  0
  181.1940  179.1850  142.7910 C   0  0  0  0  0  0  0  0  0  0  0  0
  186.3200  178.4490  147.4220 C   0  0  0  0  0  3  0  0  0  0  0  0
  179.9890  179.6080  143.3330 O   0  0  0  0  0  1  0  0  0  0  0  0
  186.4600  178.3430  144.9990 C   0  0  0  0  0  0  0  0  0  0  0  0
  186.1150  178.6480  141.2340 C   0  0  1  0  0  3  0  0  0  0  0  0
  187.4850  177.6820  147.5290 C   0  0  0  0  0  0  0  0  0  0  0  0
  187.6370  177.5670  145.1150 C   0  0  0  0  0  0  0  0  0  0  0  0
  183.6350  178.3580  141.6790 C   0  0  0  0  0  0  0  0  0  0  0  0
  185.9450  178.6580  143.7280 C   0  0  0  0  0  0  0  0  0  0  0  0
  182.3960  179.5220  143.4150 C   0  0  0  0  0  3  0  0  0  0  0  0
  188.2930  177.1230  143.9690 C   0  0  0  0  0  3  0  0  0  0  0  0
  181.2060  178.4160  141.6290 C   0  0  0  0  0  3  0  0  0  0  0  0
  182.4210  178.0110  141.0760 C   0  0  0  0  0  3  0  0  0  0  0  0
  183.6250  179.0990  142.8920 C   0  0  0  0  0  0  0  0  0  0  0  0
  188.7870  178.0110  137.9200 C   0  0  0  0  0  3  0  0  0  0  0  0
  187.0630  178.4130  140.0920 C   0  0  0  0  0  0  0  0  0  0  0  0
  186.5480  178.0460  138.8430 C   0  0  0  0  0  3  0  0  0  0  0  0
  187.4080  177.8440  137.7600 C   0  0  0  0  0  3  0  0  0  0  0  0
  189.3060  178.3830  139.1630 C   0  0  0  0  0  3  0  0  0  0  0  0
  188.4480  178.5860  140.2470 C   0  0  0  0  0  3  0  0  0  0  0  0
  1 12  1  0  0  0  0
  1 15  1  0  0  0  0
  2  6  2  0  0  0  0
  2 16  1  0  0  0  0
  3 16  1  0  0  0  0
  4 13  2  0  0  0  0
  6 18  1  0  0  0  0
  7  9  2  0  0  0  0
  8 10  1  0  0  0  0
  8 17  1  0  0  0  0
  9 13  1  0  0  0  0
 11 14  1  0  0  0  0
 11  7  1  0  0  0  0
 12 23  1  6  0  0  0
 12  2  1  0  0  0  0
 13  5  1  0  0  0  0
 14  4  1  0  0  0  0
 15 21  1  0  0  0  0
 16 11  2  0  0  0  0
 18 14  2  0  0  0  0
 19  8  2  0  0  0  0
 20 19  1  0  0  0  0
 20 15  2  0  0  0  0
 21 17  2  0  0  0  0
 21  3  1  0  0  0  0
 22 26  1  0  0  0  0
 23 27  1  0  0  0  0
 24 23  2  0  0  0  0
 25 22  2  0  0  0  0
 25 24  1  0  0  0  0
 26 27  2  0  0  0  0
M  END
>  <MODEL>
7

>  <REMARK>
 VINA RESULT:      -9.7      2.853      6.063
  Name = 
  1 active torsions:
  status: ('A' for Active; 'I' for Inactive)
    1  A    between atoms: C_9  and  C_15
                            x       y       z     vdW  Elec       q    Type
                         _______ _______ _______ _____ _____    ______ ____

>  <TORSDO>
F 1

$$$$
=
 OpenBabel10272401063D

 27 31  0  0  1  0  0  0  0  0999 V2000
  187.4820  177.4470  142.0730 N   0  0  0  0  0  2  0  0  0  0  0  0
  189.6910  177.2660  143.0400 C   0  0  0  0  0  0  0  0  0  0  0  0
  188.4050  178.4670  144.7510 O   0  0  0  0  0  0  0  0  0  0  0  0
  192.1140  175.6160  146.0560 C   0  0  0  0  0  3  0  0  0  0  0  0
  192.7040  175.4150  148.3850 O   0  0  0  0  0  1  0  0  0  0  0  0
  190.7240  176.3690  142.7220 C   0  0  0  0  0  3  0  0  0  0  0  0
  190.0560  177.3880  146.7390 C   0  0  0  0  0  3  0  0  0  0  0  0
  184.7430  178.7040  145.0400 C   0  0  0  0  0  0  0  0  0  0  0  0
  190.8700  176.8410  147.7340 C   0  0  0  0  0  3  0  0  0  0  0  0
  183.8230  179.1640  145.9710 O   0  0  0  0  0  1  0  0  0  0  0  0
  190.2630  177.0570  145.3920 C   0  0  0  0  0  0  0  0  0  0  0  0
  188.8550  177.9090  141.9750 C   0  0  1  0  0  3  0  0  0  0  0  0
  191.8980  175.9570  147.3930 C   0  0  0  0  0  0  0  0  0  0  0  0
  191.3050  176.1600  145.0540 C   0  0  0  0  0  0  0  0  0  0  0  0
  186.6050  177.8040  143.1430 C   0  0  0  0  0  0  0  0  0  0  0  0
  189.4400  177.5920  144.3850 C   0  0  0  0  0  0  0  0  0  0  0  0
  186.1110  178.8330  145.2870 C   0  0  0  0  0  3  0  0  0  0  0  0
  191.5230  175.8170  143.7220 C   0  0  0  0  0  3  0  0  0  0  0  0
  184.3030  178.1040  143.8610 C   0  0  0  0  0  3  0  0  0  0  0  0
  185.2310  177.6630  142.9180 C   0  0  0  0  0  3  0  0  0  0  0  0
  187.0580  178.3680  144.3660 C   0  0  0  0  0  0  0  0  0  0  0  0
  190.3430  177.5010  137.9570 C   0  0  0  0  0  3  0  0  0  0  0  0
  189.3770  177.7430  140.5750 C   0  0  0  0  0  0  0  0  0  0  0  0
  188.7390  178.4140  139.5250 C   0  0  0  0  0  3  0  0  0  0  0  0
  189.2200  178.2920  138.2190 C   0  0  0  0  0  3  0  0  0  0  0  0
  190.9870  176.8340  139.0020 C   0  0  0  0  0  3  0  0  0  0  0  0
  190.5080  176.9540  140.3090 C   0  0  0  0  0  3  0  0  0  0  0  0
  1 15  1  0  0  0  0
  2 16  1  0  0  0  0
  4 13  2  0  0  0  0
  6  2  2  0  0  0  0
  6 18  1  0  0  0  0
  7  9  2  0  0  0  0
  8 17  1  0  0  0  0
  8 10  1  0  0  0  0
 11  7  1  0  0  0  0
 12 23  1  6  0  0  0
 12  1  1  0  0  0  0
 12  2  1  0  0  0  0
 13  9  1  0  0  0  0
 13  5  1  0  0  0  0
 14 11  1  0  0  0  0
 14  4  1  0  0  0  0
 15 21  1  0  0  0  0
 16  3  1  0  0  0  0
 16 11  2  0  0  0  0
 18 14  2  0  0  0  0
 19  8  2  0  0  0  0
 20 15  2  0  0  0  0
 20 19  1  0  0  0  0
 21  3  1  0  0  0  0
 21 17  2  0  0  0  0
 22 25  2  0  0  0  0
 22 26  1  0  0  0  0
 24 23  2  0  0  0  0
 25 24  1  0  0  0  0
 26 27  2  0  0  0  0
 27 23  1  0  0  0  0
M  END
>  <MODEL>
8

>  <REMARK>
 VINA RESULT:      -9.6      1.753      5.325
  Name = 
  1 active torsions:
  status: ('A' for Active; 'I' for Inactive)
    1  A    between atoms: C_9  and  C_15
                            x       y       z     vdW  Elec       q    Type
                         _______ _______ _______ _____ _____    ______ ____

>  <TORSDO>
F 1

$$$$
=
 OpenBabel10272401063D

 27 31  0  0  1  0  0  0  0  0999 V2000
  186.8410  177.5480  138.9630 N   0  0  0  0  0  2  0  0  0  0  0  0
  187.4150  178.0550  141.2560 C   0  0  0  0  0  0  0  0  0  0  0  0
  185.4430  179.4520  140.8310 O   0  0  0  0  0  0  0  0  0  0  0  0
  186.3390  177.8180  145.3150 C   0  0  0  0  0  3  0  0  0  0  0  0
  184.8570  178.4130  147.1220 O   0  0  0  0  0  1  0  0  0  0  0  0
  188.1850  177.3050  142.1610 C   0  0  0  0  0  3  0  0  0  0  0  0
  184.7670  179.3120  143.5450 C   0  0  0  0  0  3  0  0  0  0  0  0
  183.0040  179.1020  138.0960 C   0  0  0  0  0  0  0  0  0  0  0  0
  184.4200  179.2340  144.8960 C   0  0  0  0  0  3  0  0  0  0  0  0
  181.7720  179.6410  137.7560 O   0  0  0  0  0  1  0  0  0  0  0  0
  185.9040  178.6460  143.0640 C   0  0  0  0  0  0  0  0  0  0  0  0
  187.8150  178.1990  139.8190 C   0  0  1  0  0  3  0  0  0  0  0  0
  185.2060  178.4880  145.7800 C   0  0  0  0  0  0  0  0  0  0  0  0
  186.6940  177.8920  143.9650 C   0  0  0  0  0  0  0  0  0  0  0  0
  185.5130  178.0380  138.7660 C   0  0  0  0  0  0  0  0  0  0  0  0
  186.2530  178.7090  141.7030 C   0  0  0  0  0  0  0  0  0  0  0  0
  183.6650  179.5400  139.2440 C   0  0  0  0  0  3  0  0  0  0  0  0
  187.8240  177.2210  143.5050 C   0  0  0  0  0  3  0  0  0  0  0  0
  183.5800  178.1170  137.2960 C   0  0  0  0  0  3  0  0  0  0  0  0
  184.8290  177.5940  137.6290 C   0  0  0  0  0  3  0  0  0  0  0  0
  184.9060  179.0050  139.6110 C   0  0  0  0  0  0  0  0  0  0  0  0
  191.7990  176.8900  138.8470 C   0  0  0  0  0  3  0  0  0  0  0  0
  189.2070  177.7290  139.5000 C   0  0  0  0  0  0  0  0  0  0  0  0
  189.5100  177.3340  138.1920 C   0  0  0  0  0  3  0  0  0  0  0  0
  190.8020  176.9130  137.8660 C   0  0  0  0  0  3  0  0  0  0  0  0
  191.5030  177.2890  140.1540 C   0  0  0  0  0  3  0  0  0  0  0  0
  190.2110  177.7090  140.4810 C   0  0  0  0  0  3  0  0  0  0  0  0
  1 12  1  0  0  0  0
  2 16  2  0  0  0  0
  2  6  1  0  0  0  0
  3 16  1  0  0  0  0
  4 13  1  0  0  0  0
  6 18  2  0  0  0  0
  7  9  1  0  0  0  0
  8 17  1  0  0  0  0
  9 13  2  0  0  0  0
 10  8  1  0  0  0  0
 11  7  2  0  0  0  0
 11 14  1  0  0  0  0
 12 23  1  1  0  0  0
 12  2  1  0  0  0  0
 13  5  1  0  0  0  0
 14  4  2  0  0  0  0
 15  1  1  0  0  0  0
 15 21  1  0  0  0  0
 16 11  1  0  0  0  0
 17 21  2  0  0  0  0
 18 14  1  0  0  0  0
 19 20  1  0  0  0  0
 19  8  2  0  0  0  0
 20 15  2  0  0  0  0
 21  3  1  0  0  0  0
 22 26  1  0  0  0  0
 23 27  1  0  0  0  0
 24 23  2  0  0  0  0
 25 24  1  0  0  0  0
 25 22  2  0  0  0  0
 26 27  2  0  0  0  0
M  END
>  <MODEL>
9

>  <REMARK>
 VINA RESULT:      -9.2      3.365      6.443
  Name = 
  1 active torsions:
  status: ('A' for Active; 'I' for Inactive)
    1  A    between atoms: C_9  and  C_15
                            x       y       z     vdW  Elec       q    Type
                         _______ _______ _______ _____ _____    ______ ____

>  <TORSDO>
F 1

$$$$
