=
 OpenBabel10272402083D

 32 36  0  0  1  0  0  0  0  0999 V2000
  191.6910  176.2360  139.0220 C   0  0  1  0  0  3  0  0  0  0  0  0
  186.6970  173.7850  137.0880 C   0  0  0  0  0  3  0  0  0  0  0  0
  190.3500  175.7810  139.0470 O   0  0  0  0  0  0  0  0  0  0  0  0
  191.6740  175.4550  136.6070 N   0  0  0  0  0  0  0  0  0  0  0  0
  189.0780  177.8010  134.8750 C   0  0  0  0  0  2  0  0  0  0  0  0
  189.4990  176.7580  138.5030 C   0  0  0  0  0  2  0  0  0  0  0  0
  188.3800  175.4150  135.0680 C   0  0  0  0  0  2  0  0  0  0  0  0
  188.7030  175.3340  136.5860 C   0  0  1  0  0  0  0  0  0  0  0  0
  191.1420  174.1120  136.8690 C   0  0  2  0  0  3  0  0  0  0  0  0
  185.0960  174.8650  135.5450 C   0  0  0  0  0  2  0  0  0  0  0  0
  186.3860  176.2680  137.1490 C   0  0  0  0  0  0  0  0  0  0  0  0
  190.3630  173.5450  135.6970 C   0  0  0  0  0  2  0  0  0  0  0  0
  192.4940  175.9200  137.7450 C   0  0  2  0  0  3  0  0  0  0  0  0
  185.6470  173.6590  136.2650 C   0  0  0  0  0  0  0  0  0  0  0  0
  185.3470  176.1440  136.3030 C   0  0  0  0  0  3  0  0  0  0  0  0
  187.3570  175.1260  137.3450 C   0  0  1  0  0  3  0  0  0  0  0  0
  189.5940  174.0680  136.9030 C   0  0  2  0  0  3  0  0  0  0  0  0
  187.5590  178.4200  136.7940 C   0  0  0  0  0  2  0  0  0  0  0  0
  192.5240  175.4330  135.4200 C   0  0  0  0  0  1  0  0  0  0  0  0
  186.7400  177.5830  137.7690 C   0  0  1  0  0  3  0  0  0  0  0  0
  189.3710  176.5910  137.0510 N   0  0  1  0  0  0  0  0  0  0  0  0
  193.6460  174.9720  138.0910 C   0  0  0  0  0  1  0  0  0  0  0  0
  189.2990  176.3880  134.3460 C   0  0  0  0  0  2  0  0  0  0  0  0
  188.9400  177.8510  136.4010 C   0  0  1  0  0  3  0  0  0  0  0  0
  185.3430  171.7040  134.9430 O   0  0  0  0  0  0  0  0  0  0  0  0
  184.1830  171.7690  136.9150 O   0  0  0  0  0  1  0  0  0  0  0  0
  185.0630  172.3340  136.0010 C   0  0  0  0  0  0  0  0  0  0  0  0
  191.9460  177.6310  139.6020 C   0  0  0  0  0  2  0  0  0  0  0  0
  191.9550  177.5640  141.1170 C   0  0  0  0  0  1  0  0  0  0  0  0
  185.5230  178.3470  138.2680 C   0  0  0  0  0  2  0  0  0  0  0  0
  185.7290  178.7580  139.5840 O   0  0  0  0  0  0  0  0  0  0  0  0
  184.4600  179.1190  140.0400 C   0  0  0  0  0  1  0  0  0  0  0  0
  1  3  1  0  0  0  0
  1 28  1  6  0  0  0
  4  9  1  0  0  0  0
  4 13  1  0  0  0  0
  6  3  1  0  0  0  0
  8  7  1  6  0  0  0
  8 17  1  0  0  0  0
  8 21  1  0  0  0  0
  8 16  1  0  0  0  0
  9 12  1  6  0  0  0
  9 17  1  0  0  0  0
 10 14  1  0  0  0  0
 10 15  1  0  0  0  0
 11 16  1  0  0  0  0
 11 20  1  0  0  0  0
 13 22  1  1  0  0  0
 13  1  1  0  0  0  0
 14  2  2  0  0  0  0
 15 11  2  0  0  0  0
 16  2  1  6  0  0  0
 17 12  1  6  0  0  0
 18 20  1  0  0  0  0
 19  4  1  0  0  0  0
 20 30  1  6  0  0  0
 21  6  1  1  0  0  0
 23  5  1  0  0  0  0
 23  7  1  0  0  0  0
 24  5  1  6  0  0  0
 24 18  1  0  0  0  0
 24 21  1  0  0  0  0
 25 27  2  0  0  0  0
 27 14  1  0  0  0  0
 27 26  1  0  0  0  0
 28 29  1  0  0  0  0
 30 31  1  0  0  0  0
 31 32  1  0  0  0  0
M  END
>  <MODEL>
1

>  <REMARK>
 VINA RESULT:      -5.6      0.000      0.000
  Name = 
  4 active torsions:
  status: ('A' for Active; 'I' for Inactive)
    1  A    between atoms: C_1  and  O_4
    2  A    between atoms: C_1  and  C_27
    3  A    between atoms: C_2  and  C_14
    4  A    between atoms: C_19  and  C_26
                            x       y       z     vdW  Elec       q    Type
                         _______ _______ _______ _____ _____    ______ ____

>  <TORSDO>
F 4

$$$$
=
 OpenBabel10272402083D

 32 36  0  0  1  0  0  0  0  0999 V2000
  184.1270  172.4860  136.7600 C   0  0  1  0  0  3  0  0  0  0  0  0
  182.7020  177.2710  139.8840 C   0  0  0  0  0  3  0  0  0  0  0  0
  184.2200  173.4810  137.7640 O   0  0  0  0  0  0  0  0  0  0  0  0
  182.1110  173.8020  135.9580 N   0  0  0  0  0  0  0  0  0  0  0  0
  183.6120  177.2140  134.7990 C   0  0  0  0  0  2  0  0  0  0  0  0
  184.8810  174.6140  137.2590 C   0  0  0  0  0  2  0  0  0  0  0  0
  182.1790  177.3300  136.8350 C   0  0  0  0  0  2  0  0  0  0  0  0
  182.9270  176.1730  137.5560 C   0  0  1  0  0  0  0  0  0  0  0  0
  181.4390  173.8890  137.2610 C   0  0  2  0  0  3  0  0  0  0  0  0
  183.0720  179.6010  139.1500 C   0  0  0  0  0  2  0  0  0  0  0  0
  184.6700  177.8260  138.4420 C   0  0  0  0  0  0  0  0  0  0  0  0
  180.5600  175.1180  137.3920 C   0  0  0  0  0  2  0  0  0  0  0  0
  182.8820  172.5460  135.8540 C   0  0  2  0  0  3  0  0  0  0  0  0
  182.4410  178.5740  140.0550 C   0  0  0  0  0  0  0  0  0  0  0  0
  184.3940  179.1350  138.5930 C   0  0  0  0  0  3  0  0  0  0  0  0
  183.6420  176.7780  138.8010 C   0  0  1  0  0  3  0  0  0  0  0  0
  181.9060  175.1010  138.1050 C   0  0  2  0  0  3  0  0  0  0  0  0
  185.6870  177.3930  136.2250 C   0  0  0  0  0  2  0  0  0  0  0  0
  181.1220  173.8120  134.8840 C   0  0  0  0  0  1  0  0  0  0  0  0
  185.9040  177.3640  137.7330 C   0  0  1  0  0  3  0  0  0  0  0  0
  183.9280  175.5420  136.6380 N   0  0  1  0  0  0  0  0  0  0  0  0
  182.0310  171.2910  136.0760 C   0  0  0  0  0  1  0  0  0  0  0  0
  182.1820  177.1510  135.3260 C   0  0  0  0  0  2  0  0  0  0  0  0
  184.6040  176.4400  135.6740 C   0  0  1  0  0  3  0  0  0  0  0  0
  181.6840  178.7580  142.3040 O   0  0  0  0  0  1  0  0  0  0  0  0
  180.3350  179.7010  140.7140 O   0  0  0  0  0  0  0  0  0  0  0  0
  181.4830  179.0120  141.0840 C   0  0  0  0  0  0  0  0  0  0  0  0
  185.4270  172.1360  136.0280 C   0  0  0  0  0  2  0  0  0  0  0  0
  185.2190  172.2470  134.5290 C   0  0  0  0  0  1  0  0  0  0  0  0
  187.1440  178.1510  138.1300 C   0  0  0  0  0  2  0  0  0  0  0  0
  187.5580  178.9500  137.0650 O   0  0  0  0  0  0  0  0  0  0  0  0
  188.9380  179.0700  137.2350 C   0  0  0  0  0  1  0  0  0  0  0  0
  1 28  1  6  0  0  0
  1  3  1  0  0  0  0
  2 14  2  0  0  0  0
  4  9  1  0  0  0  0
  5 23  1  0  0  0  0
  6  3  1  0  0  0  0
  8  7  1  6  0  0  0
  8 17  1  0  0  0  0
  8 16  1  0  0  0  0
  9 12  1  6  0  0  0
  9 17  1  0  0  0  0
 10 14  1  0  0  0  0
 11 15  2  0  0  0  0
 11 16  1  0  0  0  0
 13  4  1  0  0  0  0
 13 22  1  1  0  0  0
 13  1  1  0  0  0  0
 14 27  1  0  0  0  0
 15 10  1  0  0  0  0
 16  2  1  1  0  0  0
 17 12  1  6  0  0  0
 18 20  1  0  0  0  0
 19  4  1  0  0  0  0
 20 30  1  6  0  0  0
 20 11  1  0  0  0  0
 21  6  1  1  0  0  0
 21  8  1  0  0  0  0
 23  7  1  0  0  0  0
 24  5  1  1  0  0  0
 24 18  1  0  0  0  0
 24 21  1  0  0  0  0
 26 27  2  0  0  0  0
 27 25  1  0  0  0  0
 29 28  1  0  0  0  0
 31 32  1  0  0  0  0
 31 30  1  0  0  0  0
M  END
>  <MODEL>
2

>  <REMARK>
 VINA RESULT:      -5.3      3.759      7.530
  Name = 
  4 active torsions:
  status: ('A' for Active; 'I' for Inactive)
    1  A    between atoms: C_1  and  O_4
    2  A    between atoms: C_1  and  C_27
    3  A    between atoms: C_2  and  C_14
    4  A    between atoms: C_19  and  C_26
                            x       y       z     vdW  Elec       q    Type
                         _______ _______ _______ _____ _____    ______ ____

>  <TORSDO>
F 4

$$$$
=
 OpenBabel10272402083D

 32 36  0  0  1  0  0  0  0  0999 V2000
  186.2050  173.7660  135.4430 C   0  0  1  0  0  3  0  0  0  0  0  0
  189.7890  176.1560  139.4590 C   0  0  0  0  0  3  0  0  0  0  0  0
  187.1340  173.8270  136.5100 O   0  0  0  0  0  0  0  0  0  0  0  0
  186.4230  176.2940  135.4040 N   0  0  0  0  0  0  0  0  0  0  0  0
  190.1350  176.9040  134.3600 C   0  0  0  0  0  2  0  0  0  0  0  0
  188.4420  173.9300  136.0060 C   0  0  0  0  0  2  0  0  0  0  0  0
  189.5800  177.5450  136.7040 C   0  0  0  0  0  2  0  0  0  0  0  0
  188.9100  176.1810  137.0300 C   0  0  1  0  0  0  0  0  0  0  0  0
  186.1930  176.5040  136.8400 C   0  0  2  0  0  3  0  0  0  0  0  0
  192.0180  177.1060  138.9790 C   0  0  0  0  0  2  0  0  0  0  0  0
  191.1900  175.1830  137.6290 C   0  0  0  0  0  0  0  0  0  0  0  0
  186.8700  177.7530  137.3700 C   0  0  0  0  0  2  0  0  0  0  0  0
  185.6710  175.1160  134.9250 C   0  0  2  0  0  3  0  0  0  0  0  0
  190.8200  176.9050  139.8720 C   0  0  0  0  0  0  0  0  0  0  0  0
  192.2200  175.9540  138.0270 C   0  0  0  0  0  3  0  0  0  0  0  0
  189.7860  175.4710  138.1060 C   0  0  1  0  0  3  0  0  0  0  0  0
  187.4880  176.3960  137.6830 C   0  0  2  0  0  3  0  0  0  0  0  0
  191.2700  174.8050  135.1820 C   0  0  0  0  0  2  0  0  0  0  0  0
  185.9650  177.4570  134.6500 C   0  0  0  0  0  1  0  0  0  0  0  0
  191.3530  174.1520  136.5570 C   0  0  1  0  0  3  0  0  0  0  0  0
  188.8140  175.3340  135.7990 N   0  0  1  0  0  0  0  0  0  0  0  0
  184.1660  175.2040  135.1950 C   0  0  0  0  0  1  0  0  0  0  0  0
  189.4150  177.9200  135.2400 C   0  0  0  0  0  2  0  0  0  0  0  0
  189.9180  175.4580  134.8190 C   0  0  1  0  0  3  0  0  0  0  0  0
  191.8020  177.7160  141.8820 O   0  0  0  0  0  1  0  0  0  0  0  0
  189.5610  178.1100  141.6330 O   0  0  0  0  0  0  0  0  0  0  0  0
  190.7660  177.5950  141.1700 C   0  0  0  0  0  0  0  0  0  0  0  0
  186.4980  172.7370  134.3460 C   0  0  0  0  0  2  0  0  0  0  0  0
  185.9490  171.3820  134.7510 C   0  0  0  0  0  1  0  0  0  0  0  0
  192.6310  173.3390  136.7070 C   0  0  0  0  0  2  0  0  0  0  0  0
  193.3720  173.4010  135.5280 O   0  0  0  0  0  0  0  0  0  0  0  0
  194.6560  173.7570  135.9420 C   0  0  0  0  0  1  0  0  0  0  0  0
  1 28  1  6  0  0  0
  1  3  1  0  0  0  0
  2 14  2  0  0  0  0
  4  9  1  0  0  0  0
  5 23  1  0  0  0  0
  6  3  1  0  0  0  0
  8  7  1  6  0  0  0
  8 17  1  0  0  0  0
  8 16  1  0  0  0  0
  9 12  1  6  0  0  0
  9 17  1  0  0  0  0
 10 14  1  0  0  0  0
 11 15  2  0  0  0  0
 11 16  1  0  0  0  0
 13 22  1  1  0  0  0
 13  4  1  0  0  0  0
 13  1  1  0  0  0  0
 14 27  1  0  0  0  0
 15 10  1  0  0  0  0
 16  2  1  1  0  0  0
 17 12  1  6  0  0  0
 18 20  1  0  0  0  0
 19  4  1  0  0  0  0
 20 30  1  1  0  0  0
 20 11  1  0  0  0  0
 21  6  1  1  0  0  0
 21  8  1  0  0  0  0
 23  7  1  0  0  0  0
 24  5  1  1  0  0  0
 24 18  1  0  0  0  0
 24 21  1  0  0  0  0
 27 26  2  0  0  0  0
 27 25  1  0  0  0  0
 28 29  1  0  0  0  0
 31 32  1  0  0  0  0
 31 30  1  0  0  0  0
M  END
>  <MODEL>
3

>  <REMARK>
 VINA RESULT:      -4.4      1.972      6.914
  Name = 
  4 active torsions:
  status: ('A' for Active; 'I' for Inactive)
    1  A    between atoms: C_1  and  O_4
    2  A    between atoms: C_1  and  C_27
    3  A    between atoms: C_2  and  C_14
    4  A    between atoms: C_19  and  C_26
                            x       y       z     vdW  Elec       q    Type
                         _______ _______ _______ _____ _____    ______ ____

>  <TORSDO>
F 4

$$$$
=
 OpenBabel10272402083D

 32 36  0  0  1  0  0  0  0  0999 V2000
  180.9750  175.7520  139.9730 C   0  0  1  0  0  3  0  0  0  0  0  0
  186.0370  177.0790  137.2720 C   0  0  0  0  0  3  0  0  0  0  0  0
  182.3120  175.6010  139.5310 O   0  0  0  0  0  0  0  0  0  0  0  0
  181.0190  177.9170  138.6500 N   0  0  0  0  0  0  0  0  0  0  0  0
  181.4360  176.7510  134.9470 C   0  0  0  0  0  2  0  0  0  0  0  0
  182.3330  175.0670  138.2310 C   0  0  0  0  0  2  0  0  0  0  0  0
  183.4020  177.9470  135.9040 C   0  0  0  0  0  2  0  0  0  0  0  0
  183.4560  177.0590  137.1790 C   0  0  1  0  0  0  0  0  0  0  0  0
  182.2640  178.4400  139.2260 C   0  0  2  0  0  3  0  0  0  0  0  0
  186.4230  176.9260  134.8360 C   0  0  0  0  0  2  0  0  0  0  0  0
  184.8640  175.3220  135.9320 C   0  0  0  0  0  0  0  0  0  0  0  0
  183.0080  179.3660  138.2830 C   0  0  0  0  0  2  0  0  0  0  0  0
  180.2940  177.0940  139.6400 C   0  0  2  0  0  3  0  0  0  0  0  0
  186.8050  177.3910  136.2180 C   0  0  0  0  0  0  0  0  0  0  0  0
  185.6170  175.6520  134.8650 C   0  0  0  0  0  3  0  0  0  0  0  0
  184.7820  176.2410  137.1280 C   0  0  1  0  0  3  0  0  0  0  0  0
  183.5300  177.9490  138.4810 C   0  0  2  0  0  3  0  0  0  0  0  0
  182.6240  174.5410  135.2170 C   0  0  0  0  0  2  0  0  0  0  0  0
  180.1460  179.0210  138.2590 C   0  0  0  0  0  1  0  0  0  0  0  0
  183.9310  174.1520  135.8990 C   0  0  1  0  0  3  0  0  0  0  0  0
  182.2780  176.1350  137.2260 N   0  0  1  0  0  0  0  0  0  0  0  0
  179.9820  177.8410  140.9400 C   0  0  0  0  0  1  0  0  0  0  0  0
  181.9820  178.1060  135.3850 C   0  0  0  0  0  2  0  0  0  0  0  0
  181.7820  175.6240  135.9270 C   0  0  1  0  0  3  0  0  0  0  0  0
  187.9210  179.3210  137.0530 O   0  0  0  0  0  1  0  0  0  0  0  0
  189.1960  177.8880  135.8040 O   0  0  0  0  0  0  0  0  0  0  0  0
  187.9890  178.2480  136.3890 C   0  0  0  0  0  0  0  0  0  0  0  0
  180.0680  174.5270  139.8230 C   0  0  0  0  0  2  0  0  0  0  0  0
  179.9830  173.7840  141.1440 C   0  0  0  0  0  1  0  0  0  0  0  0
  184.5480  172.9210  135.2520 C   0  0  0  0  0  2  0  0  0  0  0  0
  185.2030  172.1580  136.2160 O   0  0  0  0  0  0  0  0  0  0  0  0
  186.3730  171.7300  135.5880 C   0  0  0  0  0  1  0  0  0  0  0  0
  1 28  1  6  0  0  0
  3  1  1  0  0  0  0
  4  9  1  0  0  0  0
  4 13  1  0  0  0  0
  5 23  1  0  0  0  0
  6  3  1  0  0  0  0
  8  7  1  6  0  0  0
  8 21  1  0  0  0  0
  8 17  1  0  0  0  0
  9 12  1  6  0  0  0
 10 15  1  0  0  0  0
 10 14  1  0  0  0  0
 11 16  1  0  0  0  0
 13  1  1  0  0  0  0
 13 22  1  1  0  0  0
 14 27  1  0  0  0  0
 14  2  2  0  0  0  0
 15 11  2  0  0  0  0
 16  8  1  0  0  0  0
 16  2  1  6  0  0  0
 17 12  1  6  0  0  0
 17  9  1  0  0  0  0
 18 20  1  0  0  0  0
 18 24  1  0  0  0  0
 19  4  1  0  0  0  0
 20 30  1  6  0  0  0
 20 11  1  0  0  0  0
 21  6  1  1  0  0  0
 23  7  1  0  0  0  0
 24  5  1  6  0  0  0
 24 21  1  0  0  0  0
 26 27  2  0  0  0  0
 27 25  1  0  0  0  0
 28 29  1  0  0  0  0
 30 31  1  0  0  0  0
 32 31  1  0  0  0  0
M  END
>  <MODEL>
4

>  <REMARK>
 VINA RESULT:      -4.1      3.918      8.291
  Name = 
  4 active torsions:
  status: ('A' for Active; 'I' for Inactive)
    1  A    between atoms: C_1  and  O_4
    2  A    between atoms: C_1  and  C_27
    3  A    between atoms: C_2  and  C_14
    4  A    between atoms: C_19  and  C_26
                            x       y       z     vdW  Elec       q    Type
                         _______ _______ _______ _____ _____    ______ ____

>  <TORSDO>
F 4

$$$$
=
 OpenBabel10272402083D

 32 36  0  0  1  0  0  0  0  0999 V2000
  190.9970  176.5870  139.5090 C   0  0  1  0  0  3  0  0  0  0  0  0
  188.2950  172.3850  136.3900 C   0  0  0  0  0  3  0  0  0  0  0  0
  190.0320  175.6050  139.1810 O   0  0  0  0  0  0  0  0  0  0  0  0
  191.9960  176.0420  137.2400 N   0  0  0  0  0  0  0  0  0  0  0  0
  189.2510  177.1740  134.7050 C   0  0  0  0  0  2  0  0  0  0  0  0
  189.0360  176.1620  138.3590 C   0  0  0  0  0  2  0  0  0  0  0  0
  189.6150  174.7110  134.8360 C   0  0  0  0  0  2  0  0  0  0  0  0
  189.5000  174.6710  136.3860 C   0  0  1  0  0  0  0  0  0  0  0  0
  192.0380  174.5850  137.4220 C   0  0  2  0  0  3  0  0  0  0  0  0
  186.8930  172.7850  134.3950 C   0  0  0  0  0  2  0  0  0  0  0  0
  186.9520  174.4890  136.2110 C   0  0  0  0  0  0  0  0  0  0  0  0
  191.9400  173.8240  136.1140 C   0  0  0  0  0  2  0  0  0  0  0  0
  192.1820  176.7320  138.5340 C   0  0  2  0  0  3  0  0  0  0  0  0
  187.6780  171.8820  135.3130 C   0  0  0  0  0  0  0  0  0  0  0  0
  186.3490  173.9940  135.1140 C   0  0  0  0  0  3  0  0  0  0  0  0
  188.2180  173.8580  136.7430 C   0  0  1  0  0  3  0  0  0  0  0  0
  190.7160  173.8860  137.0180 C   0  0  2  0  0  3  0  0  0  0  0  0
  187.1420  176.9550  136.0740 C   0  0  0  0  0  2  0  0  0  0  0  0
  193.0700  176.4650  136.3470 C   0  0  0  0  0  1  0  0  0  0  0  0
  186.5200  175.7830  136.8250 C   0  0  1  0  0  3  0  0  0  0  0  0
  189.4070  176.0570  136.9440 N   0  0  1  0  0  0  0  0  0  0  0  0
  193.4790  176.3420  139.2490 C   0  0  0  0  0  1  0  0  0  0  0  0
  190.1930  176.0290  134.3470 C   0  0  0  0  0  2  0  0  0  0  0  0
  188.6820  177.0560  136.1230 C   0  0  1  0  0  3  0  0  0  0  0  0
  188.8970  170.0050  134.5040 O   0  0  0  0  0  0  0  0  0  0  0  0
  186.7440  169.5920  135.1600 O   0  0  0  0  0  1  0  0  0  0  0  0
  187.8160  170.4560  134.9750 C   0  0  0  0  0  0  0  0  0  0  0  0
  190.4580  177.9150  140.0520 C   0  0  0  0  0  2  0  0  0  0  0  0
  189.9110  177.7140  141.4530 C   0  0  0  0  0  1  0  0  0  0  0  0
  185.0070  175.9210  136.9120 C   0  0  0  0  0  2  0  0  0  0  0  0
  184.6180  177.1730  136.4380 O   0  0  0  0  0  0  0  0  0  0  0  0
  183.5510  177.5410  137.2590 C   0  0  0  0  0  1  0  0  0  0  0  0
  1 28  1  6  0  0  0
  3  1  1  0  0  0  0
  4  9  1  0  0  0  0
  4 13  1  0  0  0  0
  6  3  1  0  0  0  0
  8  7  1  6  0  0  0
  8 16  1  0  0  0  0
  8 21  1  0  0  0  0
  8 17  1  0  0  0  0
  9 12  1  6  0  0  0
 10 15  1  0  0  0  0
 10 14  1  0  0  0  0
 11 16  1  0  0  0  0
 11 20  1  0  0  0  0
 13 22  1  1  0  0  0
 13  1  1  0  0  0  0
 14  2  2  0  0  0  0
 15 11  2  0  0  0  0
 16  2  1  6  0  0  0
 17 12  1  6  0  0  0
 17  9  1  0  0  0  0
 18 24  1  0  0  0  0
 18 20  1  0  0  0  0
 19  4  1  0  0  0  0
 20 30  1  6  0  0  0
 21  6  1  1  0  0  0
 23  5  1  0  0  0  0
 23  7  1  0  0  0  0
 24  5  1  6  0  0  0
 24 21  1  0  0  0  0
 25 27  2  0  0  0  0
 27 26  1  0  0  0  0
 27 14  1  0  0  0  0
 28 29  1  0  0  0  0
 31 30  1  0  0  0  0
 31 32  1  0  0  0  0
M  END
>  <MODEL>
5

>  <REMARK>
 VINA RESULT:      -4.1      1.798      2.131
  Name = 
  4 active torsions:
  status: ('A' for Active; 'I' for Inactive)
    1  A    between atoms: C_1  and  O_4
    2  A    between atoms: C_1  and  C_27
    3  A    between atoms: C_2  and  C_14
    4  A    between atoms: C_19  and  C_26
                            x       y       z     vdW  Elec       q    Type
                         _______ _______ _______ _____ _____    ______ ____

>  <TORSDO>
F 4

$$$$
=
 OpenBabel10272402083D

 32 36  0  0  1  0  0  0  0  0999 V2000
  189.7570  177.2460  139.4530 C   0  0  1  0  0  3  0  0  0  0  0  0
  187.1790  172.8130  136.5560 C   0  0  0  0  0  3  0  0  0  0  0  0
  188.7710  176.2850  139.1210 O   0  0  0  0  0  0  0  0  0  0  0  0
  191.0050  176.3300  137.4420 N   0  0  0  0  0  0  0  0  0  0  0  0
  188.7210  177.2540  134.4130 C   0  0  0  0  0  2  0  0  0  0  0  0
  187.9410  176.7790  138.1000 C   0  0  0  0  0  2  0  0  0  0  0  0
  188.8710  174.8170  134.9160 C   0  0  0  0  0  2  0  0  0  0  0  0
  188.5470  175.0010  136.4250 C   0  0  1  0  0  0  0  0  0  0  0  0
  190.9090  174.9130  137.8160 C   0  0  2  0  0  3  0  0  0  0  0  0
  186.0920  173.0100  134.3460 C   0  0  0  0  0  2  0  0  0  0  0  0
  186.0390  174.9460  135.9130 C   0  0  0  0  0  0  0  0  0  0  0  0
  190.9290  173.9830  136.6190 C   0  0  0  0  0  2  0  0  0  0  0  0
  191.0690  177.1830  138.6470 C   0  0  2  0  0  3  0  0  0  0  0  0
  186.6750  172.2000  135.4760 C   0  0  0  0  0  0  0  0  0  0  0  0
  185.5520  174.3380  134.8150 C   0  0  0  0  0  3  0  0  0  0  0  0
  187.1710  174.3230  136.6980 C   0  0  1  0  0  3  0  0  0  0  0  0
  189.6030  174.2420  137.3230 C   0  0  2  0  0  3  0  0  0  0  0  0
  186.4360  177.3530  135.4820 C   0  0  0  0  0  2  0  0  0  0  0  0
  192.2190  176.5600  136.6640 C   0  0  0  0  0  1  0  0  0  0  0  0
  185.6310  176.3360  136.2840 C   0  0  1  0  0  3  0  0  0  0  0  0
  188.4880  176.4550  136.7780 N   0  0  1  0  0  0  0  0  0  0  0  0
  192.2250  176.8220  139.5850 C   0  0  0  0  0  1  0  0  0  0  0  0
  189.6100  176.0170  134.3460 C   0  0  0  0  0  2  0  0  0  0  0  0
  187.9590  177.3690  135.7390 C   0  0  1  0  0  3  0  0  0  0  0  0
  187.8590  170.1380  135.3760 O   0  0  0  0  0  1  0  0  0  0  0  0
  185.5820  169.9950  135.1900 O   0  0  0  0  0  0  0  0  0  0  0  0
  186.7460  170.7360  135.3510 C   0  0  0  0  0  0  0  0  0  0  0  0
  189.2540  178.6650  139.7350 C   0  0  0  0  0  2  0  0  0  0  0  0
  188.5650  178.7090  141.0860 C   0  0  0  0  0  1  0  0  0  0  0  0
  184.1350  176.5730  136.1340 C   0  0  0  0  0  2  0  0  0  0  0  0
  183.4880  176.2910  137.3360 O   0  0  0  0  0  0  0  0  0  0  0  0
  182.6300  177.3730  137.5330 C   0  0  0  0  0  1  0  0  0  0  0  0
  1 28  1  6  0  0  0
  3  1  1  0  0  0  0
  4  9  1  0  0  0  0
  4 13  1  0  0  0  0
  6  3  1  0  0  0  0
  8  7  1  6  0  0  0
  8 16  1  0  0  0  0
  8 21  1  0  0  0  0
  8 17  1  0  0  0  0
  9 12  1  6  0  0  0
 10 15  1  0  0  0  0
 10 14  1  0  0  0  0
 11 20  1  0  0  0  0
 11 16  1  0  0  0  0
 13  1  1  0  0  0  0
 13 22  1  1  0  0  0
 14  2  2  0  0  0  0
 15 11  2  0  0  0  0
 16  2  1  6  0  0  0
 17 12  1  6  0  0  0
 17  9  1  0  0  0  0
 18 24  1  0  0  0  0
 18 20  1  0  0  0  0
 19  4  1  0  0  0  0
 20 30  1  6  0  0  0
 21  6  1  1  0  0  0
 23  5  1  0  0  0  0
 23  7  1  0  0  0  0
 24  5  1  6  0  0  0
 24 21  1  0  0  0  0
 26 27  2  0  0  0  0
 27 25  1  0  0  0  0
 27 14  1  0  0  0  0
 28 29  1  0  0  0  0
 30 31  1  0  0  0  0
 31 32  1  0  0  0  0
M  END
>  <MODEL>
6

>  <REMARK>
 VINA RESULT:      -4.0      1.721      2.145
  Name = 
  4 active torsions:
  status: ('A' for Active; 'I' for Inactive)
    1  A    between atoms: C_1  and  O_4
    2  A    between atoms: C_1  and  C_27
    3  A    between atoms: C_2  and  C_14
    4  A    between atoms: C_19  and  C_26
                            x       y       z     vdW  Elec       q    Type
                         _______ _______ _______ _____ _____    ______ ____

>  <TORSDO>
F 4

$$$$
=
 OpenBabel10272402083D

 32 36  0  0  1  0  0  0  0  0999 V2000
  181.4920  176.5280  139.8980 C   0  0  1  0  0  3  0  0  0  0  0  0
  186.1720  174.4570  136.9830 C   0  0  0  0  0  3  0  0  0  0  0  0
  182.4660  175.5980  139.4600 O   0  0  0  0  0  0  0  0  0  0  0  0
  182.6460  178.1430  138.3160 N   0  0  0  0  0  0  0  0  0  0  0  0
  182.0230  176.6080  134.7810 C   0  0  0  0  0  2  0  0  0  0  0  0
  182.0740  175.0300  138.2360 C   0  0  0  0  0  2  0  0  0  0  0  0
  184.3920  176.5460  135.5550 C   0  0  0  0  0  2  0  0  0  0  0  0
  184.0370  175.9100  136.9290 C   0  0  1  0  0  0  0  0  0  0  0  0
  184.0110  177.9100  138.8060 C   0  0  2  0  0  3  0  0  0  0  0  0
  186.2010  173.8840  134.5800 C   0  0  0  0  0  2  0  0  0  0  0  0
  184.1040  173.5730  135.8870 C   0  0  0  0  0  0  0  0  0  0  0  0
  185.0680  178.1500  137.7460 C   0  0  0  0  0  2  0  0  0  0  0  0
  181.6670  177.9800  139.4110 C   0  0  2  0  0  3  0  0  0  0  0  0
  186.8910  174.1740  135.8890 C   0  0  0  0  0  0  0  0  0  0  0  0
  184.8210  173.3100  134.7780 C   0  0  0  0  0  3  0  0  0  0  0  0
  184.6560  174.4810  136.9620 C   0  0  1  0  0  3  0  0  0  0  0  0
  184.7100  176.7150  138.1100 C   0  0  2  0  0  3  0  0  0  0  0  0
  181.7660  174.1520  135.3060 C   0  0  0  0  0  2  0  0  0  0  0  0
  182.5250  179.5050  137.8040 C   0  0  0  0  0  1  0  0  0  0  0  0
  182.6740  173.1510  136.0130 C   0  0  1  0  0  3  0  0  0  0  0  0
  182.5510  175.8360  137.1070 N   0  0  1  0  0  0  0  0  0  0  0  0
  181.9420  178.8890  140.6130 C   0  0  0  0  0  1  0  0  0  0  0  0
  183.2750  177.4390  135.0400 C   0  0  0  0  0  2  0  0  0  0  0  0
  181.7490  175.5830  135.8880 C   0  0  1  0  0  3  0  0  0  0  0  0
  189.0190  174.8770  135.0880 O   0  0  0  0  0  0  0  0  0  0  0  0
  189.0430  173.4930  136.9110 O   0  0  0  0  0  1  0  0  0  0  0  0
  188.3620  174.2100  135.9350 C   0  0  0  0  0  0  0  0  0  0  0  0
  180.0420  176.0360  139.9140 C   0  0  0  0  0  2  0  0  0  0  0  0
  179.9840  174.6220  140.4610 C   0  0  0  0  0  1  0  0  0  0  0  0
  182.4280  171.7340  135.5140 C   0  0  0  0  0  2  0  0  0  0  0  0
  183.0150  170.8180  136.3850 O   0  0  0  0  0  0  0  0  0  0  0  0
  183.3540  169.7340  135.5750 C   0  0  0  0  0  1  0  0  0  0  0  0
  1 28  1  6  0  0  0
  3  1  1  0  0  0  0
  4  9  1  0  0  0  0
  4 13  1  0  0  0  0
  5 23  1  0  0  0  0
  6  3  1  0  0  0  0
  8  7  1  6  0  0  0
  8 16  1  0  0  0  0
  8 21  1  0  0  0  0
  8 17  1  0  0  0  0
  9 12  1  6  0  0  0
 10 15  1  0  0  0  0
 10 14  1  0  0  0  0
 11 20  1  0  0  0  0
 11 16  1  0  0  0  0
 13  1  1  0  0  0  0
 13 22  1  1  0  0  0
 14 27  1  0  0  0  0
 14  2  2  0  0  0  0
 15 11  2  0  0  0  0
 16  2  1  6  0  0  0
 17 12  1  6  0  0  0
 17  9  1  0  0  0  0
 18 24  1  0  0  0  0
 18 20  1  0  0  0  0
 19  4  1  0  0  0  0
 20 30  1  6  0  0  0
 21  6  1  1  0  0  0
 23  7  1  0  0  0  0
 24  5  1  6  0  0  0
 24 21  1  0  0  0  0
 25 27  2  0  0  0  0
 27 26  1  0  0  0  0
 28 29  1  0  0  0  0
 30 31  1  0  0  0  0
 32 31  1  0  0  0  0
M  END
>  <MODEL>
7

>  <REMARK>
 VINA RESULT:      -3.3      3.797      7.611
  Name = 
  4 active torsions:
  status: ('A' for Active; 'I' for Inactive)
    1  A    between atoms: C_1  and  O_4
    2  A    between atoms: C_1  and  C_27
    3  A    between atoms: C_2  and  C_14
    4  A    between atoms: C_19  and  C_26
                            x       y       z     vdW  Elec       q    Type
                         _______ _______ _______ _____ _____    ______ ____

>  <TORSDO>
F 4

$$$$
=
 OpenBabel10272402083D

 32 36  0  0  1  0  0  0  0  0999 V2000
  185.6790  177.9860  139.0480 C   0  0  1  0  0  3  0  0  0  0  0  0
  184.1690  172.6340  137.1080 C   0  0  0  0  0  3  0  0  0  0  0  0
  185.1120  176.6880  139.0680 O   0  0  0  0  0  0  0  0  0  0  0  0
  186.2940  177.4360  136.6480 N   0  0  0  0  0  0  0  0  0  0  0  0
  182.8480  177.0860  134.8470 C   0  0  0  0  0  2  0  0  0  0  0  0
  183.8280  176.7140  138.4970 C   0  0  0  0  0  2  0  0  0  0  0  0
  184.1380  174.9660  135.0760 C   0  0  0  0  0  2  0  0  0  0  0  0
  184.3850  175.1570  136.5990 C   0  0  1  0  0  0  0  0  0  0  0  0
  186.9240  176.1400  136.9290 C   0  0  2  0  0  3  0  0  0  0  0  0
  182.3260  172.1690  135.5300 C   0  0  0  0  0  2  0  0  0  0  0  0
  182.1240  174.0750  137.1210 C   0  0  0  0  0  0  0  0  0  0  0  0
  186.8430  175.1770  135.7600 C   0  0  0  0  0  2  0  0  0  0  0  0
  186.4790  178.3610  137.7850 C   0  0  2  0  0  3  0  0  0  0  0  0
  183.5720  171.7680  136.2770 C   0  0  0  0  0  0  0  0  0  0  0  0
  181.5320  173.2190  136.2670 C   0  0  0  0  0  3  0  0  0  0  0  0
  183.6180  174.0260  137.3470 C   0  0  1  0  0  3  0  0  0  0  0  0
  185.9130  174.9660  136.9490 C   0  0  2  0  0  3  0  0  0  0  0  0
  181.3290  176.3900  136.7380 C   0  0  0  0  0  2  0  0  0  0  0  0
  186.9070  178.0440  135.4700 C   0  0  0  0  0  1  0  0  0  0  0  0
  181.3770  175.2250  137.7200 C   0  0  1  0  0  3  0  0  0  0  0  0
  183.8950  176.5000  137.0470 N   0  0  1  0  0  0  0  0  0  0  0  0
  187.9490  178.5760  138.1610 C   0  0  0  0  0  1  0  0  0  0  0  0
  184.0530  176.2960  134.3460 C   0  0  0  0  0  2  0  0  0  0  0  0
  182.6870  177.0260  136.3700 C   0  0  1  0  0  3  0  0  0  0  0  0
  183.5300  169.3890  136.3120 O   0  0  0  0  0  1  0  0  0  0  0  0
  185.4440  170.3440  135.4980 O   0  0  0  0  0  0  0  0  0  0  0  0
  184.1650  170.4440  136.0320 C   0  0  0  0  0  0  0  0  0  0  0  0
  184.8080  179.1160  139.6050 C   0  0  0  0  0  2  0  0  0  0  0  0
  184.7280  179.0080  141.1160 C   0  0  0  0  0  1  0  0  0  0  0  0
  179.9820  174.8420  138.1930 C   0  0  0  0  0  2  0  0  0  0  0  0
  180.0020  174.5780  139.5620 O   0  0  0  0  0  0  0  0  0  0  0  0
  180.5050  175.7460  140.1350 C   0  0  0  0  0  1  0  0  0  0  0  0
  1  3  1  0  0  0  0
  1 28  1  6  0  0  0
  4  9  1  0  0  0  0
  4 13  1  0  0  0  0
  6  3  1  0  0  0  0
  8  7  1  6  0  0  0
  8 17  1  0  0  0  0
  8 21  1  0  0  0  0
  8 16  1  0  0  0  0
  9 12  1  6  0  0  0
  9 17  1  0  0  0  0
 10 15  1  0  0  0  0
 10 14  1  0  0  0  0
 11 16  1  0  0  0  0
 11 20  1  0  0  0  0
 13 22  1  1  0  0  0
 13  1  1  0  0  0  0
 14  2  2  0  0  0  0
 15 11  2  0  0  0  0
 16  2  1  6  0  0  0
 17 12  1  6  0  0  0
 18 20  1  0  0  0  0
 19  4  1  0  0  0  0
 20 30  1  6  0  0  0
 21  6  1  1  0  0  0
 23  5  1  0  0  0  0
 23  7  1  0  0  0  0
 24  5  1  6  0  0  0
 24 18  1  0  0  0  0
 24 21  1  0  0  0  0
 26 27  2  0  0  0  0
 27 14  1  0  0  0  0
 27 25  1  0  0  0  0
 28 29  1  0  0  0  0
 30 31  1  0  0  0  0
 31 32  1  0  0  0  0
M  END
>  <MODEL>
8

>  <REMARK>
 VINA RESULT:      -3.1      3.297      5.305
  Name = 
  4 active torsions:
  status: ('A' for Active; 'I' for Inactive)
    1  A    between atoms: C_1  and  O_4
    2  A    between atoms: C_1  and  C_27
    3  A    between atoms: C_2  and  C_14
    4  A    between atoms: C_19  and  C_26
                            x       y       z     vdW  Elec       q    Type
                         _______ _______ _______ _____ _____    ______ ____

>  <TORSDO>
F 4

$$$$
=
 OpenBabel10272402083D

 32 36  0  0  1  0  0  0  0  0999 V2000
  190.0370  176.9610  140.2660 C   0  0  1  0  0  3  0  0  0  0  0  0
  187.2940  173.2880  136.5690 C   0  0  0  0  0  3  0  0  0  0  0  0
  189.0200  176.1130  139.7640 O   0  0  0  0  0  0  0  0  0  0  0  0
  191.2260  176.4570  138.0820 N   0  0  0  0  0  0  0  0  0  0  0  0
  188.9160  178.0420  135.3630 C   0  0  0  0  0  2  0  0  0  0  0  0
  188.1860  176.8270  138.8860 C   0  0  0  0  0  2  0  0  0  0  0  0
  189.0110  175.5510  135.3440 C   0  0  0  0  0  2  0  0  0  0  0  0
  188.7170  175.4240  136.8660 C   0  0  1  0  0  0  0  0  0  0  0  0
  191.0990  174.9960  138.1560 C   0  0  2  0  0  3  0  0  0  0  0  0
  186.1760  173.9660  134.4720 C   0  0  0  0  0  2  0  0  0  0  0  0
  186.2000  175.5330  136.4080 C   0  0  0  0  0  0  0  0  0  0  0  0
  191.0740  174.3350  136.7910 C   0  0  0  0  0  2  0  0  0  0  0  0
  191.3330  177.0380  139.4360 C   0  0  2  0  0  3  0  0  0  0  0  0
  186.7550  172.9250  135.3970 C   0  0  0  0  0  0  0  0  0  0  0  0
  185.6790  175.1790  135.2190 C   0  0  0  0  0  3  0  0  0  0  0  0
  187.3280  174.7350  137.0220 C   0  0  1  0  0  3  0  0  0  0  0  0
  189.7670  174.4720  137.5620 C   0  0  2  0  0  3  0  0  0  0  0  0
  186.6530  177.9670  136.4790 C   0  0  0  0  0  2  0  0  0  0  0  0
  192.4320  176.8170  137.3420 C   0  0  0  0  0  1  0  0  0  0  0  0
  185.8350  176.8250  137.0690 C   0  0  1  0  0  3  0  0  0  0  0  0
  188.7020  176.7740  137.5140 N   0  0  1  0  0  0  0  0  0  0  0  0
  192.4940  176.4640  140.2530 C   0  0  0  0  0  1  0  0  0  0  0  0
  189.7710  176.8270  135.0210 C   0  0  0  0  0  2  0  0  0  0  0  0
  188.1800  177.8960  136.7000 C   0  0  1  0  0  3  0  0  0  0  0  0
  185.7260  170.8330  134.9200 O   0  0  0  0  0  1  0  0  0  0  0  0
  187.9940  170.9240  134.6240 O   0  0  0  0  0  0  0  0  0  0  0  0
  186.7860  171.5180  134.9680 C   0  0  0  0  0  0  0  0  0  0  0  0
  189.5770  178.3010  140.8480 C   0  0  0  0  0  2  0  0  0  0  0  0
  189.0380  178.0960  142.2520 C   0  0  0  0  0  1  0  0  0  0  0  0
  184.3440  177.1210  137.0050 C   0  0  0  0  0  2  0  0  0  0  0  0
  184.0180  178.1120  137.9290 O   0  0  0  0  0  0  0  0  0  0  0  0
  183.5150  177.4140  139.0270 C   0  0  0  0  0  1  0  0  0  0  0  0
  1 28  1  6  0  0  0
  3  1  1  0  0  0  0
  4  9  1  0  0  0  0
  4 13  1  0  0  0  0
  6  3  1  0  0  0  0
  8  7  1  6  0  0  0
  8 16  1  0  0  0  0
  8 21  1  0  0  0  0
  8 17  1  0  0  0  0
  9 12  1  6  0  0  0
 10 15  1  0  0  0  0
 10 14  1  0  0  0  0
 11 16  1  0  0  0  0
 11 20  1  0  0  0  0
 13 22  1  1  0  0  0
 13  1  1  0  0  0  0
 14  2  2  0  0  0  0
 15 11  2  0  0  0  0
 16  2  1  6  0  0  0
 17 12  1  6  0  0  0
 17  9  1  0  0  0  0
 18 24  1  0  0  0  0
 18 20  1  0  0  0  0
 19  4  1  0  0  0  0
 20 30  1  6  0  0  0
 21  6  1  1  0  0  0
 23  7  1  0  0  0  0
 23  5  1  0  0  0  0
 24  5  1  6  0  0  0
 24 21  1  0  0  0  0
 25 27  1  0  0  0  0
 26 27  2  0  0  0  0
 27 14  1  0  0  0  0
 28 29  1  0  0  0  0
 30 31  1  0  0  0  0
 31 32  1  0  0  0  0
M  END
>  <MODEL>
9

>  <REMARK>
 VINA RESULT:      -2.8      1.525      1.876
  Name = 
  4 active torsions:
  status: ('A' for Active; 'I' for Inactive)
    1  A    between atoms: C_1  and  O_4
    2  A    between atoms: C_1  and  C_27
    3  A    between atoms: C_2  and  C_14
    4  A    between atoms: C_19  and  C_26
                            x       y       z     vdW  Elec       q    Type
                         _______ _______ _______ _____ _____    ______ ____

>  <TORSDO>
F 4

$$$$
