=
 OpenBabel10262423473D

 34 38  0  0  1  0  0  0  0  0999 V2000
  186.1400  178.1350  138.1180 C   0  0  0  0  0  0  0  0  0  0  0  0
  188.4640  177.2920  138.0280 C   0  0  0  0  0  0  0  0  0  0  0  0
  187.5220  178.0470  140.1620 C   0  0  0  0  0  0  0  0  0  0  0  0
  188.3180  177.1740  143.1910 C   0  0  0  0  0  2  0  0  0  0  0  0
  183.5220  179.0360  138.1450 Cl  0  0  0  0  0  0  0  0  0  0  0  0
  188.4020  177.0310  136.6990 F   0  0  0  0  0  0  0  0  0  0  0  0
  189.7900  177.2490  139.9980 N   0  0  0  0  0  0  0  0  0  0  0  0
  187.3730  177.8240  138.7540 C   0  0  0  0  0  0  0  0  0  0  0  0
  189.0900  178.0650  142.2150 C   0  0  2  0  0  3  0  0  0  0  0  0
  185.9330  177.9510  136.6450 C   0  0  0  0  0  1  0  0  0  0  0  0
  186.3970  178.5180  140.9100 C   0  0  0  0  0  0  0  0  0  0  0  0
  185.0710  178.6340  138.8730 C   0  0  0  0  0  0  0  0  0  0  0  0
  189.6540  177.0050  138.6770 C   0  0  0  0  0  3  0  0  0  0  0  0
  186.8040  177.3420  143.0850 C   0  0  0  0  0  2  0  0  0  0  0  0
  186.4260  178.6660  142.4220 C   0  0  2  0  0  3  0  0  0  0  0  0
  188.7900  177.7670  140.7600 C   0  0  0  0  0  0  0  0  0  0  0  0
  185.2050  178.8050  140.2400 C   0  0  0  0  0  3  0  0  0  0  0  0
  185.0260  178.9460  145.5630 C   0  0  1  0  0  3  0  0  0  0  0  0
  183.5050  178.7560  145.5030 C   0  0  0  0  0  2  0  0  0  0  0  0
  185.1870  179.3190  143.0600 C   0  0  2  0  0  3  0  0  0  0  0  0
  182.9300  178.8350  144.0820 C   0  0  0  0  0  2  0  0  0  0  0  0
  185.5240  179.8720  144.4540 C   0  0  0  0  0  2  0  0  0  0  0  0
  183.9530  178.3940  143.0420 C   0  0  0  0  0  2  0  0  0  0  0  0
  185.3850  179.4640  146.8060 O   0  0  0  0  0  1  0  0  0  0  0  0
  190.5790  178.1790  142.5710 C   0  0  0  0  0  2  0  0  0  0  0  0
  190.8410  179.0560  143.7900 C   0  0  0  0  0  2  0  0  0  0  0  0
  191.6300  178.2950  144.8470 C   0  0  0  0  0  2  0  0  0  0  0  0
  189.2120  176.5370  147.0120 O   0  0  0  0  0  1  0  0  0  0  0  0
  190.8790  177.0720  145.3760 C   0  0  2  0  0  3  0  0  0  0  0  0
  190.3960  177.2500  146.8280 C   0  0  2  0  0  3  0  0  0  0  0  0
  192.2990  175.8200  147.5290 C   0  0  0  0  0  3  0  0  0  0  0  0
  192.3450  175.2390  146.1760 C   0  0  0  0  0  3  0  0  0  0  0  0
  191.6630  175.7980  145.1720 C   0  0  0  0  0  3  0  0  0  0  0  0
  191.4200  176.7810  147.8310 C   0  0  0  0  0  3  0  0  0  0  0  0
  1  8  2  0  0  0  0
  1 12  1  0  0  0  0
  2 13  2  0  0  0  0
  2  8  1  0  0  0  0
  3 16  1  0  0  0  0
  3 11  2  0  0  0  0
  5 12  1  0  0  0  0
  6  2  1  0  0  0  0
  7 16  2  0  0  0  0
  8  3  1  0  0  0  0
  9 25  1  6  0  0  0
  9  4  1  0  0  0  0
 10  1  1  0  0  0  0
 11 15  1  0  0  0  0
 12 17  2  0  0  0  0
 13  7  1  0  0  0  0
 14  4  1  0  0  0  0
 15 20  1  0  0  0  0
 15 14  1  1  0  0  0
 16  9  1  0  0  0  0
 17 11  1  0  0  0  0
 18 24  1  1  0  0  0
 19 18  1  0  0  0  0
 20 23  1  1  0  0  0
 20 22  1  0  0  0  0
 21 19  1  0  0  0  0
 22 18  1  0  0  0  0
 23 21  1  0  0  0  0
 25 26  1  0  0  0  0
 26 27  1  0  0  0  0
 29 27  1  1  0  0  0
 29 30  1  0  0  0  0
 30 28  1  6  0  0  0
 30 34  1  0  0  0  0
 31 34  2  0  0  0  0
 32 31  1  0  0  0  0
 33 29  1  0  0  0  0
 33 32  2  0  0  0  0
M  END
>  <MODEL>
1

>  <REMARK>
 VINA RESULT:      -9.5      0.000      0.000
  Name = 
  5 active torsions:
  status: ('A' for Active; 'I' for Inactive)
    1  A    between atoms: C_3  and  C_13
    2  A    between atoms: C_3  and  C_17
    3  A    between atoms: C_12  and  C_28
    4  A    between atoms: C_17  and  C_29
    5  A    between atoms: C_18  and  C_29
                            x       y       z     vdW  Elec       q    Type
                         _______ _______ _______ _____ _____    ______ ____

>  <TORSDO>
F 5

$$$$
=
 OpenBabel10262423473D

 34 38  0  0  1  0  0  0  0  0999 V2000
  183.9860  178.8810  141.8600 C   0  0  0  0  0  0  0  0  0  0  0  0
  184.9210  178.2460  144.0610 C   0  0  0  0  0  0  0  0  0  0  0  0
  186.2890  178.0100  142.0390 C   0  0  0  0  0  0  0  0  0  0  0  0
  189.5250  178.0420  141.7250 C   0  0  0  0  0  2  0  0  0  0  0  0
  182.8810  179.6430  139.4380 Cl  0  0  0  0  0  0  0  0  0  0  0  0
  183.7930  178.5930  144.7290 F   0  0  0  0  0  0  0  0  0  0  0  0
  187.1250  177.3760  144.2080 N   0  0  0  0  0  0  0  0  0  0  0  0
  185.0510  178.3820  142.6590 C   0  0  0  0  0  0  0  0  0  0  0  0
  188.6280  176.9450  142.3030 C   0  0  2  0  0  3  0  0  0  0  0  0
  182.6590  179.2590  142.4450 C   0  0  0  0  0  1  0  0  0  0  0  0
  186.4460  178.2130  140.6320 C   0  0  0  0  0  0  0  0  0  0  0  0
  184.1590  179.0300  140.4780 C   0  0  0  0  0  0  0  0  0  0  0  0
  185.9760  177.7510  144.8090 C   0  0  0  0  0  3  0  0  0  0  0  0
  188.8860  178.7800  140.5510 C   0  0  0  0  0  2  0  0  0  0  0  0
  187.7610  177.9650  139.9130 C   0  0  2  0  0  3  0  0  0  0  0  0
  187.3220  177.4680  142.8660 C   0  0  0  0  0  0  0  0  0  0  0  0
  185.3720  178.7110  139.8910 C   0  0  0  0  0  3  0  0  0  0  0  0
  188.6960  176.0810  137.1770 C   0  0  1  0  0  3  0  0  0  0  0  0
  189.3660  176.9590  136.1130 C   0  0  0  0  0  2  0  0  0  0  0  0
  187.7270  178.0930  138.3800 C   0  0  2  0  0  3  0  0  0  0  0  0
  189.1620  178.4640  136.3360 C   0  0  0  0  0  2  0  0  0  0  0  0
  187.4290  176.7330  137.7290 C   0  0  0  0  0  2  0  0  0  0  0  0
  188.9820  178.7880  137.8150 C   0  0  0  0  0  2  0  0  0  0  0  0
  188.3870  174.8370  136.6320 O   0  0  0  0  0  1  0  0  0  0  0  0
  189.3950  175.9730  143.2120 C   0  0  0  0  0  2  0  0  0  0  0  0
  190.9050  176.1730  143.1670 C   0  0  0  0  0  2  0  0  0  0  0  0
  191.5650  175.6110  144.4190 C   0  0  0  0  0  2  0  0  0  0  0  0
  192.2030  176.8250  147.8470 O   0  0  0  0  0  1  0  0  0  0  0  0
  191.8040  176.6790  145.4880 C   0  0  2  0  0  3  0  0  0  0  0  0
  191.3810  176.2190  146.8970 C   0  0  2  0  0  3  0  0  0  0  0  0
  189.3370  177.5980  146.6220 C   0  0  0  0  0  3  0  0  0  0  0  0
  190.0370  178.4130  145.6140 C   0  0  0  0  0  3  0  0  0  0  0  0
  191.2020  178.0080  145.1010 C   0  0  0  0  0  3  0  0  0  0  0  0
  189.9420  176.5540  147.1970 C   0  0  0  0  0  3  0  0  0  0  0  0
  1 10  1  0  0  0  0
  1  8  1  0  0  0  0
  2  6  1  0  0  0  0
  2 13  1  0  0  0  0
  3  8  1  0  0  0  0
  3 16  2  0  0  0  0
  4  9  1  0  0  0  0
  5 12  1  0  0  0  0
  7 13  2  0  0  0  0
  8  2  2  0  0  0  0
  9 16  1  0  0  0  0
  9 25  1  1  0  0  0
 11  3  1  0  0  0  0
 12  1  2  0  0  0  0
 14  4  1  0  0  0  0
 15 14  1  1  0  0  0
 15 11  1  0  0  0  0
 16  7  1  0  0  0  0
 17 12  1  0  0  0  0
 17 11  2  0  0  0  0
 18 24  1  6  0  0  0
 18 22  1  0  0  0  0
 19 21  1  0  0  0  0
 19 18  1  0  0  0  0
 20 22  1  6  0  0  0
 20 15  1  0  0  0  0
 21 23  1  0  0  0  0
 23 20  1  0  0  0  0
 26 25  1  0  0  0  0
 26 27  1  0  0  0  0
 29 27  1  6  0  0  0
 29 30  1  0  0  0  0
 30 34  1  0  0  0  0
 30 28  1  1  0  0  0
 31 34  2  0  0  0  0
 32 31  1  0  0  0  0
 33 29  1  0  0  0  0
 33 32  2  0  0  0  0
M  END
>  <MODEL>
2

>  <REMARK>
 VINA RESULT:      -9.4      2.883      5.450
  Name = 
  5 active torsions:
  status: ('A' for Active; 'I' for Inactive)
    1  A    between atoms: C_3  and  C_13
    2  A    between atoms: C_3  and  C_17
    3  A    between atoms: C_12  and  C_28
    4  A    between atoms: C_17  and  C_29
    5  A    between atoms: C_18  and  C_29
                            x       y       z     vdW  Elec       q    Type
                         _______ _______ _______ _____ _____    ______ ____

>  <TORSDO>
F 5

$$$$
=
 OpenBabel10262423473D

 34 38  0  0  1  0  0  0  0  0999 V2000
  183.7330  178.7820  142.8530 C   0  0  0  0  0  0  0  0  0  0  0  0
  184.1150  178.6700  140.4110 C   0  0  0  0  0  0  0  0  0  0  0  0
  186.0120  178.4700  141.9530 C   0  0  0  0  0  0  0  0  0  0  0  0
  188.8730  176.9890  141.5200 C   0  0  0  0  0  2  0  0  0  0  0  0
  183.2230  178.8850  145.5720 Cl  0  0  0  0  0  0  0  0  0  0  0  0
  182.7980  178.8090  140.1180 F   0  0  0  0  0  0  0  0  0  0  0  0
  186.3180  178.4070  139.5630 N   0  0  0  0  0  0  0  0  0  0  0  0
  184.6050  178.6440  141.7370 C   0  0  0  0  0  0  0  0  0  0  0  0
  188.3730  178.3050  140.9180 C   0  0  2  0  0  3  0  0  0  0  0  0
  182.2590  178.9950  142.6910 C   0  0  0  0  0  1  0  0  0  0  0  0
  186.4980  178.3740  143.2940 C   0  0  0  0  0  0  0  0  0  0  0  0
  184.2490  178.7230  144.1530 C   0  0  0  0  0  0  0  0  0  0  0  0
  184.9920  178.5380  139.3460 C   0  0  0  0  0  3  0  0  0  0  0  0
  188.3860  176.7610  142.9490 C   0  0  0  0  0  2  0  0  0  0  0  0
  187.9510  178.0670  143.6140 C   0  0  2  0  0  3  0  0  0  0  0  0
  186.8640  178.3820  140.8080 C   0  0  0  0  0  0  0  0  0  0  0  0
  185.6020  178.5100  144.3560 C   0  0  0  0  0  3  0  0  0  0  0  0
  190.5780  177.0480  145.6070 C   0  0  1  0  0  3  0  0  0  0  0  0
  190.0650  176.4620  146.9290 C   0  0  0  0  0  2  0  0  0  0  0  0
  188.3440  178.1380  145.1010 C   0  0  2  0  0  3  0  0  0  0  0  0
  188.5880  176.7700  147.2090 C   0  0  0  0  0  2  0  0  0  0  0  0
  189.8600  178.3490  145.2510 C   0  0  0  0  0  2  0  0  0  0  0  0
  187.8010  176.9470  145.9150 C   0  0  0  0  0  2  0  0  0  0  0  0
  191.9500  177.2760  145.6960 O   0  0  0  0  0  1  0  0  0  0  0  0
  189.1480  178.7090  139.6560 C   0  0  0  0  0  2  0  0  0  0  0  0
  190.2430  177.7170  139.2800 C   0  0  0  0  0  2  0  0  0  0  0  0
  190.0620  177.2260  137.8500 C   0  0  0  0  0  2  0  0  0  0  0  0
  189.9810  173.5580  137.4350 O   0  0  0  0  0  1  0  0  0  0  0  0
  189.3880  175.8540  137.7790 C   0  0  2  0  0  3  0  0  0  0  0  0
  190.1800  174.8430  136.9280 C   0  0  2  0  0  3  0  0  0  0  0  0
  188.5370  175.2400  135.1120 C   0  0  0  0  0  3  0  0  0  0  0  0
  187.5590  175.6990  136.1130 C   0  0  0  0  0  3  0  0  0  0  0  0
  187.9390  175.9600  137.3670 C   0  0  0  0  0  3  0  0  0  0  0  0
  189.7690  174.8740  135.4780 C   0  0  0  0  0  3  0  0  0  0  0  0
  1 12  1  0  0  0  0
  2  8  1  0  0  0  0
  3 11  2  0  0  0  0
  4 14  1  0  0  0  0
  6  2  1  0  0  0  0
  7 16  2  0  0  0  0
  8  3  1  0  0  0  0
  8  1  2  0  0  0  0
  9 25  1  6  0  0  0
  9  4  1  0  0  0  0
 10  1  1  0  0  0  0
 11 15  1  0  0  0  0
 11 17  1  0  0  0  0
 12 17  2  0  0  0  0
 12  5  1  0  0  0  0
 13  7  1  0  0  0  0
 13  2  2  0  0  0  0
 15 14  1  1  0  0  0
 15 20  1  0  0  0  0
 16  9  1  0  0  0  0
 16  3  1  0  0  0  0
 18 24  1  1  0  0  0
 18 19  1  0  0  0  0
 19 21  1  0  0  0  0
 20 22  1  6  0  0  0
 20 23  1  0  0  0  0
 22 18  1  0  0  0  0
 23 21  1  0  0  0  0
 26 25  1  0  0  0  0
 27 26  1  0  0  0  0
 29 27  1  6  0  0  0
 30 28  1  1  0  0  0
 30 29  1  0  0  0  0
 31 34  2  0  0  0  0
 31 32  1  0  0  0  0
 32 33  2  0  0  0  0
 33 29  1  0  0  0  0
 34 30  1  0  0  0  0
M  END
>  <MODEL>
3

>  <REMARK>
 VINA RESULT:      -9.3      3.022      6.549
  Name = 
  5 active torsions:
  status: ('A' for Active; 'I' for Inactive)
    1  A    between atoms: C_3  and  C_13
    2  A    between atoms: C_3  and  C_17
    3  A    between atoms: C_12  and  C_28
    4  A    between atoms: C_17  and  C_29
    5  A    between atoms: C_18  and  C_29
                            x       y       z     vdW  Elec       q    Type
                         _______ _______ _______ _____ _____    ______ ____

>  <TORSDO>
F 5

$$$$
=
 OpenBabel10262423473D

 34 38  0  0  1  0  0  0  0  0999 V2000
  189.1540  177.4460  146.2270 C   0  0  0  0  0  0  0  0  0  0  0  0
  191.1420  177.4570  144.7540 C   0  0  0  0  0  0  0  0  0  0  0  0
  188.8960  177.5560  143.7730 C   0  0  0  0  0  0  0  0  0  0  0  0
  187.9440  178.8020  140.9250 C   0  0  0  0  0  2  0  0  0  0  0  0
  186.9790  177.4620  147.9410 Cl  0  0  0  0  0  0  0  0  0  0  0  0
  192.0110  177.4100  145.7940 F   0  0  0  0  0  0  0  0  0  0  0  0
  190.8730  177.5260  142.3950 N   0  0  0  0  0  0  0  0  0  0  0  0
  189.7390  177.4830  144.9310 C   0  0  0  0  0  0  0  0  0  0  0  0
  188.7210  177.5110  141.1960 C   0  0  2  0  0  3  0  0  0  0  0  0
  189.9810  177.3410  147.4720 C   0  0  0  0  0  1  0  0  0  0  0  0
  187.4810  177.6550  143.9540 C   0  0  0  0  0  0  0  0  0  0  0  0
  187.7620  177.5040  146.3660 C   0  0  0  0  0  0  0  0  0  0  0  0
  191.6800  177.4890  143.4770 C   0  0  0  0  0  3  0  0  0  0  0  0
  186.8990  179.1080  141.9970 C   0  0  0  0  0  2  0  0  0  0  0  0
  186.5230  177.8590  142.7930 C   0  0  2  0  0  3  0  0  0  0  0  0
  189.5170  177.5450  142.4850 C   0  0  0  0  0  0  0  0  0  0  0  0
  186.9550  177.6180  145.2470 C   0  0  0  0  0  3  0  0  0  0  0  0
  183.5490  178.9450  141.4190 C   0  0  1  0  0  3  0  0  0  0  0  0
  182.6270  179.5240  142.4990 C   0  0  0  0  0  2  0  0  0  0  0  0
  185.0240  177.8030  143.1380 C   0  0  2  0  0  3  0  0  0  0  0  0
  183.0640  179.1820  143.9300 C   0  0  0  0  0  2  0  0  0  0  0  0
  184.1820  177.6270  141.8640 C   0  0  0  0  0  2  0  0  0  0  0  0
  184.5730  178.9830  144.0200 C   0  0  0  0  0  2  0  0  0  0  0  0
  182.8280  178.7490  140.2430 O   0  0  0  0  0  1  0  0  0  0  0  0
  189.4860  177.0120  139.9620 C   0  0  0  0  0  2  0  0  0  0  0  0
  189.4800  178.0090  138.8080 C   0  0  0  0  0  2  0  0  0  0  0  0
  188.7120  177.4540  137.6160 C   0  0  0  0  0  2  0  0  0  0  0  0
  185.4430  179.0500  138.2480 O   0  0  0  0  0  1  0  0  0  0  0  0
  187.4920  178.3050  137.2540 C   0  0  2  0  0  3  0  0  0  0  0  0
  186.2350  177.9180  138.0570 C   0  0  2  0  0  3  0  0  0  0  0  0
  185.4360  176.7240  136.0350 C   0  0  0  0  0  3  0  0  0  0  0  0
  186.3070  177.5730  135.2040 C   0  0  0  0  0  3  0  0  0  0  0  0
  187.2490  178.3360  135.7650 C   0  0  0  0  0  3  0  0  0  0  0  0
  185.4230  176.8530  137.3650 C   0  0  0  0  0  3  0  0  0  0  0  0
  1 12  1  0  0  0  0
  1 10  1  0  0  0  0
  2  8  1  0  0  0  0
  2  6  1  0  0  0  0
  3 11  2  0  0  0  0
  3  8  1  0  0  0  0
  4  9  1  0  0  0  0
  4 14  1  0  0  0  0
  7 16  2  0  0  0  0
  7 13  1  0  0  0  0
  8  1  2  0  0  0  0
  9 25  1  6  0  0  0
  9 16  1  0  0  0  0
 11 17  1  0  0  0  0
 12  5  1  0  0  0  0
 13  2  2  0  0  0  0
 15 14  1  1  0  0  0
 15 20  1  0  0  0  0
 15 11  1  0  0  0  0
 16  3  1  0  0  0  0
 17 12  2  0  0  0  0
 18 24  1  6  0  0  0
 18 22  1  0  0  0  0
 18 19  1  0  0  0  0
 19 21  1  0  0  0  0
 20 22  1  6  0  0  0
 20 23  1  0  0  0  0
 21 23  1  0  0  0  0
 26 25  1  0  0  0  0
 27 26  1  0  0  0  0
 29 27  1  6  0  0  0
 29 30  1  0  0  0  0
 30 28  1  6  0  0  0
 31 34  2  0  0  0  0
 32 33  2  0  0  0  0
 32 31  1  0  0  0  0
 33 29  1  0  0  0  0
 34 30  1  0  0  0  0
M  END
>  <MODEL>
4

>  <REMARK>
 VINA RESULT:      -9.3      3.479      7.183
  Name = 
  5 active torsions:
  status: ('A' for Active; 'I' for Inactive)
    1  A    between atoms: C_3  and  C_13
    2  A    between atoms: C_3  and  C_17
    3  A    between atoms: C_12  and  C_28
    4  A    between atoms: C_17  and  C_29
    5  A    between atoms: C_18  and  C_29
                            x       y       z     vdW  Elec       q    Type
                         _______ _______ _______ _____ _____    ______ ____

>  <TORSDO>
F 5

$$$$
=
 OpenBabel10262423473D

 34 38  0  0  1  0  0  0  0  0999 V2000
  183.7760  178.7730  142.7980 C   0  0  0  0  0  0  0  0  0  0  0  0
  184.1700  178.6610  140.3580 C   0  0  0  0  0  0  0  0  0  0  0  0
  186.0590  178.4670  141.9100 C   0  0  0  0  0  0  0  0  0  0  0  0
  188.9260  176.9930  141.4920 C   0  0  0  0  0  2  0  0  0  0  0  0
  183.2510  178.8750  145.5150 Cl  0  0  0  0  0  0  0  0  0  0  0  0
  182.8540  178.7970  140.0590 F   0  0  0  0  0  0  0  0  0  0  0  0
  186.3780  178.4030  139.5220 N   0  0  0  0  0  0  0  0  0  0  0  0
  184.6530  178.6370  141.6870 C   0  0  0  0  0  0  0  0  0  0  0  0
  188.4260  178.3070  140.8880 C   0  0  2  0  0  3  0  0  0  0  0  0
  182.3010  178.9820  142.6290 C   0  0  0  0  0  1  0  0  0  0  0  0
  186.5390  178.3720  143.2540 C   0  0  0  0  0  0  0  0  0  0  0  0
  184.2850  178.7150  144.1010 C   0  0  0  0  0  0  0  0  0  0  0  0
  185.0520  178.5320  139.2980 C   0  0  0  0  0  3  0  0  0  0  0  0
  188.4330  176.7640  142.9190 C   0  0  0  0  0  2  0  0  0  0  0  0
  187.9910  178.0690  143.5820 C   0  0  2  0  0  3  0  0  0  0  0  0
  186.9170  178.3810  140.7700 C   0  0  0  0  0  0  0  0  0  0  0  0
  185.6370  178.5060  144.3110 C   0  0  0  0  0  3  0  0  0  0  0  0
  190.6100  177.0560  145.5890 C   0  0  1  0  0  3  0  0  0  0  0  0
  190.0920  176.4690  146.9080 C   0  0  0  0  0  2  0  0  0  0  0  0
  188.3760  178.1410  145.0700 C   0  0  2  0  0  3  0  0  0  0  0  0
  188.6130  176.7750  147.1800 C   0  0  0  0  0  2  0  0  0  0  0  0
  189.8910  178.3550  145.2280 C   0  0  0  0  0  2  0  0  0  0  0  0
  187.8320  176.9490  145.8820 C   0  0  0  0  0  2  0  0  0  0  0  0
  191.9810  177.2870  145.6840 O   0  0  0  0  0  1  0  0  0  0  0  0
  189.2060  178.7120  139.6290 C   0  0  0  0  0  2  0  0  0  0  0  0
  189.9630  177.5530  138.9910 C   0  0  0  0  0  2  0  0  0  0  0  0
  189.7250  177.5110  137.4880 C   0  0  0  0  0  2  0  0  0  0  0  0
  190.5840  173.9220  137.6140 O   0  0  0  0  0  1  0  0  0  0  0  0
  189.9340  176.1150  136.8970 C   0  0  2  0  0  3  0  0  0  0  0  0
  190.9370  175.2690  137.7060 C   0  0  2  0  0  3  0  0  0  0  0  0
  192.6180  175.7690  135.9520 C   0  0  0  0  0  3  0  0  0  0  0  0
  191.5270  176.0370  134.9990 C   0  0  0  0  0  3  0  0  0  0  0  0
  190.2690  176.1700  135.4260 C   0  0  0  0  0  3  0  0  0  0  0  0
  192.3530  175.4460  137.2220 C   0  0  0  0  0  3  0  0  0  0  0  0
  1 12  1  0  0  0  0
  2  8  1  0  0  0  0
  3 11  2  0  0  0  0
  4 14  1  0  0  0  0
  6  2  1  0  0  0  0
  7 16  2  0  0  0  0
  8  3  1  0  0  0  0
  8  1  2  0  0  0  0
  9 25  1  6  0  0  0
  9  4  1  0  0  0  0
 10  1  1  0  0  0  0
 11 15  1  0  0  0  0
 11 17  1  0  0  0  0
 12 17  2  0  0  0  0
 12  5  1  0  0  0  0
 13  7  1  0  0  0  0
 13  2  2  0  0  0  0
 15 14  1  1  0  0  0
 15 20  1  0  0  0  0
 16  9  1  0  0  0  0
 16  3  1  0  0  0  0
 18 24  1  1  0  0  0
 18 19  1  0  0  0  0
 19 21  1  0  0  0  0
 20 22  1  6  0  0  0
 20 23  1  0  0  0  0
 22 18  1  0  0  0  0
 23 21  1  0  0  0  0
 26 25  1  0  0  0  0
 27 26  1  0  0  0  0
 29 27  1  1  0  0  0
 29 30  1  0  0  0  0
 30 28  1  6  0  0  0
 31 34  2  0  0  0  0
 32 33  2  0  0  0  0
 32 31  1  0  0  0  0
 33 29  1  0  0  0  0
 34 30  1  0  0  0  0
M  END
>  <MODEL>
5

>  <REMARK>
 VINA RESULT:      -9.2      3.096      6.415
  Name = 
  5 active torsions:
  status: ('A' for Active; 'I' for Inactive)
    1  A    between atoms: C_3  and  C_13
    2  A    between atoms: C_3  and  C_17
    3  A    between atoms: C_12  and  C_28
    4  A    between atoms: C_17  and  C_29
    5  A    between atoms: C_18  and  C_29
                            x       y       z     vdW  Elec       q    Type
                         _______ _______ _______ _____ _____    ______ ____

>  <TORSDO>
F 5

$$$$
=
 OpenBabel10262423473D

 34 38  0  0  1  0  0  0  0  0999 V2000
  186.0730  178.1230  146.1630 C   0  0  0  0  0  0  0  0  0  0  0  0
  184.8010  178.2930  144.0480 C   0  0  0  0  0  0  0  0  0  0  0  0
  187.2280  177.9420  143.9880 C   0  0  0  0  0  0  0  0  0  0  0  0
  189.0530  176.5520  141.6840 C   0  0  0  0  0  2  0  0  0  0  0  0
  187.4230  177.9110  148.5720 Cl  0  0  0  0  0  0  0  0  0  0  0  0
  183.6130  178.4490  144.6820 F   0  0  0  0  0  0  0  0  0  0  0  0
  185.9350  178.1530  141.9650 N   0  0  0  0  0  0  0  0  0  0  0  0
  186.0220  178.1230  144.7420 C   0  0  0  0  0  0  0  0  0  0  0  0
  188.3700  177.9210  141.6700 C   0  0  2  0  0  3  0  0  0  0  0  0
  184.8520  178.3360  147.0060 C   0  0  0  0  0  1  0  0  0  0  0  0
  188.4510  177.6990  144.6880 C   0  0  0  0  0  0  0  0  0  0  0  0
  187.2950  177.9230  146.8170 C   0  0  0  0  0  0  0  0  0  0  0  0
  184.7870  178.2930  142.6620 C   0  0  0  0  0  3  0  0  0  0  0  0
  189.5770  176.1580  143.0640 C   0  0  0  0  0  2  0  0  0  0  0  0
  189.7510  177.3750  143.9720 C   0  0  2  0  0  3  0  0  0  0  0  0
  187.1460  177.9940  142.5610 C   0  0  0  0  0  0  0  0  0  0  0  0
  188.4500  177.7040  146.0850 C   0  0  0  0  0  3  0  0  0  0  0  0
  191.8410  174.9080  145.1780 C   0  0  1  0  0  3  0  0  0  0  0  0
  192.1920  175.1600  146.6500 C   0  0  0  0  0  2  0  0  0  0  0  0
  191.0050  177.2810  144.8590 C   0  0  2  0  0  3  0  0  0  0  0  0
  191.8410  176.5730  147.1340 C   0  0  0  0  0  2  0  0  0  0  0  0
  191.9510  176.1840  144.3450 C   0  0  0  0  0  2  0  0  0  0  0  0
  190.6640  177.1530  146.3570 C   0  0  0  0  0  2  0  0  0  0  0  0
  192.6850  173.9300  144.6560 O   0  0  0  0  0  1  0  0  0  0  0  0
  188.1850  178.4750  140.2500 C   0  0  0  0  0  2  0  0  0  0  0  0
  189.3240  178.1030  139.3070 C   0  0  0  0  0  2  0  0  0  0  0  0
  189.1170  178.7290  137.9340 C   0  0  0  0  0  2  0  0  0  0  0  0
  188.3830  177.5440  134.5160 O   0  0  0  0  0  1  0  0  0  0  0  0
  189.0340  177.6870  136.8180 C   0  0  2  0  0  3  0  0  0  0  0  0
  187.9720  178.0330  135.7560 C   0  0  2  0  0  3  0  0  0  0  0  0
  186.5010  176.3440  136.8250 C   0  0  0  0  0  3  0  0  0  0  0  0
  187.6910  175.6830  137.3890 C   0  0  0  0  0  3  0  0  0  0  0  0
  188.8820  176.2880  137.3640 C   0  0  0  0  0  3  0  0  0  0  0  0
  186.6200  177.4570  136.0940 C   0  0  0  0  0  3  0  0  0  0  0  0
  1 12  1  0  0  0  0
  1 10  1  0  0  0  0
  2  6  1  0  0  0  0
  2  8  1  0  0  0  0
  3 11  2  0  0  0  0
  3  8  1  0  0  0  0
  4 14  1  0  0  0  0
  7 16  2  0  0  0  0
  7 13  1  0  0  0  0
  8  1  2  0  0  0  0
  9 25  1  6  0  0  0
  9  4  1  0  0  0  0
  9 16  1  0  0  0  0
 11 17  1  0  0  0  0
 12  5  1  0  0  0  0
 13  2  2  0  0  0  0
 15 14  1  1  0  0  0
 15 11  1  0  0  0  0
 15 20  1  0  0  0  0
 16  3  1  0  0  0  0
 17 12  2  0  0  0  0
 18 24  1  6  0  0  0
 18 19  1  0  0  0  0
 19 21  1  0  0  0  0
 20 22  1  6  0  0  0
 20 23  1  0  0  0  0
 22 18  1  0  0  0  0
 23 21  1  0  0  0  0
 26 25  1  0  0  0  0
 27 26  1  0  0  0  0
 29 33  1  0  0  0  0
 29 27  1  1  0  0  0
 30 28  1  6  0  0  0
 30 34  1  0  0  0  0
 30 29  1  0  0  0  0
 31 32  1  0  0  0  0
 33 32  2  0  0  0  0
 34 31  2  0  0  0  0
M  END
>  <MODEL>
6

>  <REMARK>
 VINA RESULT:      -9.2      3.738      7.930
  Name = 
  5 active torsions:
  status: ('A' for Active; 'I' for Inactive)
    1  A    between atoms: C_3  and  C_13
    2  A    between atoms: C_3  and  C_17
    3  A    between atoms: C_12  and  C_28
    4  A    between atoms: C_17  and  C_29
    5  A    between atoms: C_18  and  C_29
                            x       y       z     vdW  Elec       q    Type
                         _______ _______ _______ _____ _____    ______ ____

>  <TORSDO>
F 5

$$$$
=
 OpenBabel10262423473D

 34 38  0  0  1  0  0  0  0  0999 V2000
  189.2220  177.4760  146.3080 C   0  0  0  0  0  0  0  0  0  0  0  0
  191.2280  177.3630  144.8640 C   0  0  0  0  0  0  0  0  0  0  0  0
  188.9970  177.4560  143.8490 C   0  0  0  0  0  0  0  0  0  0  0  0
  188.1070  178.5620  140.9240 C   0  0  0  0  0  2  0  0  0  0  0  0
  187.0270  177.6330  147.9890 Cl  0  0  0  0  0  0  0  0  0  0  0  0
  192.0830  177.3550  145.9160 F   0  0  0  0  0  0  0  0  0  0  0  0
  190.9890  177.3070  142.5010 N   0  0  0  0  0  0  0  0  0  0  0  0
  189.8230  177.4290  145.0200 C   0  0  0  0  0  0  0  0  0  0  0  0
  188.8510  177.2720  141.2760 C   0  0  2  0  0  3  0  0  0  0  0  0
  190.0310  177.4230  147.5680 C   0  0  0  0  0  1  0  0  0  0  0  0
  187.5820  177.5940  144.0050 C   0  0  0  0  0  0  0  0  0  0  0  0
  187.8300  177.5710  146.4250 C   0  0  0  0  0  0  0  0  0  0  0  0
  191.7810  177.3140  143.5940 C   0  0  0  0  0  3  0  0  0  0  0  0
  187.0560  178.9490  141.9630 C   0  0  0  0  0  2  0  0  0  0  0  0
  186.6420  177.7540  142.8220 C   0  0  2  0  0  3  0  0  0  0  0  0
  189.6320  177.3600  142.5720 C   0  0  0  0  0  0  0  0  0  0  0  0
  187.0390  177.6410  145.2910 C   0  0  0  0  0  3  0  0  0  0  0  0
  183.7300  178.9870  141.4420 C   0  0  1  0  0  3  0  0  0  0  0  0
  182.8180  179.5760  142.5250 C   0  0  0  0  0  2  0  0  0  0  0  0
  185.1380  177.7490  143.1490 C   0  0  2  0  0  3  0  0  0  0  0  0
  183.2240  179.1860  143.9530 C   0  0  0  0  0  2  0  0  0  0  0  0
  184.3050  177.6350  141.8620 C   0  0  0  0  0  2  0  0  0  0  0  0
  184.7230  178.9260  144.0540 C   0  0  0  0  0  2  0  0  0  0  0  0
  183.0150  178.8450  140.2540 O   0  0  0  0  0  1  0  0  0  0  0  0
  189.6200  176.6890  140.0820 C   0  0  0  0  0  2  0  0  0  0  0  0
  189.9090  177.7180  138.9940 C   0  0  0  0  0  2  0  0  0  0  0  0
  190.5170  177.0520  137.7660 C   0  0  0  0  0  2  0  0  0  0  0  0
  193.9600  176.0670  138.6640 O   0  0  0  0  0  1  0  0  0  0  0  0
  191.6250  176.0590  138.1220 C   0  0  2  0  0  3  0  0  0  0  0  0
  193.0300  176.5780  137.7580 C   0  0  2  0  0  3  0  0  0  0  0  0
  192.9540  175.0860  135.7760 C   0  0  0  0  0  3  0  0  0  0  0  0
  191.9510  174.2500  136.4590 C   0  0  0  0  0  3  0  0  0  0  0  0
  191.3470  174.6820  137.5690 C   0  0  0  0  0  3  0  0  0  0  0  0
  193.4350  176.1900  136.3580 C   0  0  0  0  0  3  0  0  0  0  0  0
  1 12  1  0  0  0  0
  1 10  1  0  0  0  0
  2  8  1  0  0  0  0
  2  6  1  0  0  0  0
  3 11  2  0  0  0  0
  3  8  1  0  0  0  0
  4  9  1  0  0  0  0
  4 14  1  0  0  0  0
  7 16  2  0  0  0  0
  7 13  1  0  0  0  0
  8  1  2  0  0  0  0
  9 25  1  6  0  0  0
  9 16  1  0  0  0  0
 11 17  1  0  0  0  0
 12  5  1  0  0  0  0
 13  2  2  0  0  0  0
 15 14  1  1  0  0  0
 15 20  1  0  0  0  0
 15 11  1  0  0  0  0
 16  3  1  0  0  0  0
 17 12  2  0  0  0  0
 18 24  1  6  0  0  0
 18 22  1  0  0  0  0
 18 19  1  0  0  0  0
 19 21  1  0  0  0  0
 20 22  1  6  0  0  0
 20 23  1  0  0  0  0
 21 23  1  0  0  0  0
 26 25  1  0  0  0  0
 27 26  1  0  0  0  0
 29 27  1  6  0  0  0
 30 29  1  0  0  0  0
 30 28  1  1  0  0  0
 31 34  2  0  0  0  0
 31 32  1  0  0  0  0
 32 33  2  0  0  0  0
 33 29  1  0  0  0  0
 34 30  1  0  0  0  0
M  END
>  <MODEL>
7

>  <REMARK>
 VINA RESULT:      -8.9      3.786      6.753
  Name = 
  5 active torsions:
  status: ('A' for Active; 'I' for Inactive)
    1  A    between atoms: C_3  and  C_13
    2  A    between atoms: C_3  and  C_17
    3  A    between atoms: C_12  and  C_28
    4  A    between atoms: C_17  and  C_29
    5  A    between atoms: C_18  and  C_29
                            x       y       z     vdW  Elec       q    Type
                         _______ _______ _______ _____ _____    ______ ____

>  <TORSDO>
F 5

$$$$
=
 OpenBabel10262423473D

 34 38  0  0  1  0  0  0  0  0999 V2000
  189.2510  177.4150  146.2410 C   0  0  0  0  0  0  0  0  0  0  0  0
  191.1370  177.4960  144.6420 C   0  0  0  0  0  0  0  0  0  0  0  0
  188.8310  177.6180  143.8170 C   0  0  0  0  0  0  0  0  0  0  0  0
  187.6880  178.9660  141.0880 C   0  0  0  0  0  2  0  0  0  0  0  0
  187.1950  177.3500  148.0940 Cl  0  0  0  0  0  0  0  0  0  0  0  0
  192.0740  177.4160  145.6200 F   0  0  0  0  0  0  0  0  0  0  0  0
  190.7130  177.6550  142.3110 N   0  0  0  0  0  0  0  0  0  0  0  0
  189.7490  177.5070  144.9120 C   0  0  0  0  0  0  0  0  0  0  0  0
  188.4860  177.6710  141.2570 C   0  0  2  0  0  3  0  0  0  0  0  0
  190.1590  177.2680  147.4250 C   0  0  0  0  0  1  0  0  0  0  0  0
  187.4310  177.7000  144.0940 C   0  0  0  0  0  0  0  0  0  0  0  0
  187.8710  177.4580  146.4740 C   0  0  0  0  0  0  0  0  0  0  0  0
  191.5890  177.5820  143.3350 C   0  0  0  0  0  3  0  0  0  0  0  0
  186.7140  179.2230  142.2370 C   0  0  0  0  0  2  0  0  0  0  0  0
  186.3970  177.9420  143.0080 C   0  0  2  0  0  3  0  0  0  0  0  0
  189.3650  177.6610  142.4910 C   0  0  0  0  0  0  0  0  0  0  0  0
  186.9910  177.6100  145.4160 C   0  0  0  0  0  3  0  0  0  0  0  0
  183.3230  178.9670  141.8210 C   0  0  1  0  0  3  0  0  0  0  0  0
  182.4610  179.5370  142.9550 C   0  0  0  0  0  2  0  0  0  0  0  0
  184.9240  177.8620  143.4480 C   0  0  2  0  0  3  0  0  0  0  0  0
  182.9950  179.2130  144.3570 C   0  0  0  0  0  2  0  0  0  0  0  0
  184.0060  177.6630  142.2310 C   0  0  0  0  0  2  0  0  0  0  0  0
  184.5090  179.0400  144.3500 C   0  0  0  0  0  2  0  0  0  0  0  0
  182.5310  178.7500  140.6940 O   0  0  0  0  0  1  0  0  0  0  0  0
  189.1700  177.2250  139.9560 C   0  0  0  0  0  2  0  0  0  0  0  0
  189.2940  178.3450  138.9290 C   0  0  0  0  0  2  0  0  0  0  0  0
  189.3620  177.7790  137.5160 C   0  0  0  0  0  2  0  0  0  0  0  0
  190.5070  174.2750  137.7190 O   0  0  0  0  0  1  0  0  0  0  0  0
  189.1850  176.2600  137.4810 C   0  0  2  0  0  3  0  0  0  0  0  0
  190.4760  175.5180  137.0860 C   0  0  2  0  0  3  0  0  0  0  0  0
  189.4960  175.2290  134.8250 C   0  0  0  0  0  3  0  0  0  0  0  0
  188.1500  175.3990  135.4000 C   0  0  0  0  0  3  0  0  0  0  0  0
  187.9950  175.8500  136.6470 C   0  0  0  0  0  3  0  0  0  0  0  0
  190.5850  175.3180  135.5950 C   0  0  0  0  0  3  0  0  0  0  0  0
  1 12  1  0  0  0  0
  1 10  1  0  0  0  0
  2  8  1  0  0  0  0
  2  6  1  0  0  0  0
  3 11  2  0  0  0  0
  3  8  1  0  0  0  0
  4  9  1  0  0  0  0
  4 14  1  0  0  0  0
  7 16  2  0  0  0  0
  7 13  1  0  0  0  0
  8  1  2  0  0  0  0
  9 25  1  6  0  0  0
  9 16  1  0  0  0  0
 11 17  1  0  0  0  0
 12  5  1  0  0  0  0
 13  2  2  0  0  0  0
 15 14  1  1  0  0  0
 15 20  1  0  0  0  0
 15 11  1  0  0  0  0
 16  3  1  0  0  0  0
 17 12  2  0  0  0  0
 18 24  1  6  0  0  0
 18 22  1  0  0  0  0
 18 19  1  0  0  0  0
 19 21  1  0  0  0  0
 20 22  1  6  0  0  0
 20 23  1  0  0  0  0
 23 21  1  0  0  0  0
 26 25  1  0  0  0  0
 27 26  1  0  0  0  0
 29 27  1  6  0  0  0
 30 29  1  0  0  0  0
 30 28  1  1  0  0  0
 31 32  1  0  0  0  0
 31 34  2  0  0  0  0
 32 33  2  0  0  0  0
 33 29  1  0  0  0  0
 34 30  1  0  0  0  0
M  END
>  <MODEL>
8

>  <REMARK>
 VINA RESULT:      -8.8      3.607      7.013
  Name = 
  5 active torsions:
  status: ('A' for Active; 'I' for Inactive)
    1  A    between atoms: C_3  and  C_13
    2  A    between atoms: C_3  and  C_17
    3  A    between atoms: C_12  and  C_28
    4  A    between atoms: C_17  and  C_29
    5  A    between atoms: C_18  and  C_29
                            x       y       z     vdW  Elec       q    Type
                         _______ _______ _______ _____ _____    ______ ____

>  <TORSDO>
F 5

$$$$
=
 OpenBabel10262423473D

 34 38  0  0  1  0  0  0  0  0999 V2000
  187.9480  177.0560  137.1110 C   0  0  0  0  0  0  0  0  0  0  0  0
  187.4530  178.0320  139.3290 C   0  0  0  0  0  0  0  0  0  0  0  0
  189.6360  176.9960  138.9120 C   0  0  0  0  0  0  0  0  0  0  0  0
  192.4980  177.5740  140.3410 C   0  0  0  0  0  2  0  0  0  0  0  0
  188.4400  176.0130  134.5930 Cl  0  0  0  0  0  0  0  0  0  0  0  0
  186.2100  178.4330  138.9640 F   0  0  0  0  0  0  0  0  0  0  0  0
  189.0750  177.9320  141.0610 N   0  0  0  0  0  0  0  0  0  0  0  0
  188.3310  177.3630  138.4460 C   0  0  0  0  0  0  0  0  0  0  0  0
  191.2780  176.8400  140.9000 C   0  0  2  0  0  3  0  0  0  0  0  0
  186.5890  177.3880  136.5740 C   0  0  0  0  0  1  0  0  0  0  0  0
  190.5490  176.3830  137.9980 C   0  0  0  0  0  0  0  0  0  0  0  0
  188.8540  176.4190  136.2540 C   0  0  0  0  0  0  0  0  0  0  0  0
  187.8550  178.3120  140.6260 C   0  0  0  0  0  3  0  0  0  0  0  0
  192.7070  177.3350  138.8460 C   0  0  0  0  0  2  0  0  0  0  0  0
  191.9900  176.0730  138.3690 C   0  0  2  0  0  3  0  0  0  0  0  0
  189.9700  177.2780  140.2730 C   0  0  0  0  0  0  0  0  0  0  0  0
  190.1280  176.1060  136.6960 C   0  0  0  0  0  3  0  0  0  0  0  0
  194.9520  174.3080  138.2460 C   0  0  1  0  0  3  0  0  0  0  0  0
  195.7240  174.6240  136.9580 C   0  0  0  0  0  2  0  0  0  0  0  0
  192.8010  175.2860  137.3240 C   0  0  2  0  0  3  0  0  0  0  0  0
  194.8820  175.3460  135.8970 C   0  0  0  0  0  2  0  0  0  0  0  0
  193.4700  174.0610  137.9690 C   0  0  0  0  0  2  0  0  0  0  0  0
  193.7770  176.1800  136.5350 C   0  0  0  0  0  2  0  0  0  0  0  0
  195.5090  173.1890  138.8630 O   0  0  0  0  0  1  0  0  0  0  0  0
  191.2830  176.7710  142.4340 C   0  0  0  0  0  2  0  0  0  0  0  0
  191.6040  178.1070  143.0950 C   0  0  0  0  0  2  0  0  0  0  0  0
  190.6090  178.4150  144.2070 C   0  0  0  0  0  2  0  0  0  0  0  0
  187.5630  176.3430  143.9700 O   0  0  0  0  0  1  0  0  0  0  0  0
  189.7180  177.2190  144.5470 C   0  0  2  0  0  3  0  0  0  0  0  0
  188.2190  177.5160  144.3450 C   0  0  2  0  0  3  0  0  0  0  0  0
  188.0420  177.7710  146.8060 C   0  0  0  0  0  3  0  0  0  0  0  0
  189.2530  176.9460  146.9660 C   0  0  0  0  0  3  0  0  0  0  0  0
  190.0240  176.6590  145.9150 C   0  0  0  0  0  3  0  0  0  0  0  0
  187.5750  178.0700  145.5900 C   0  0  0  0  0  3  0  0  0  0  0  0
  1  8  1  0  0  0  0
  2 13  1  0  0  0  0
  3 16  2  0  0  0  0
  4  9  1  0  0  0  0
  5 12  1  0  0  0  0
  6  2  1  0  0  0  0
  8  3  1  0  0  0  0
  8  2  2  0  0  0  0
  9 25  1  1  0  0  0
 10  1  1  0  0  0  0
 11 15  1  0  0  0  0
 11  3  1  0  0  0  0
 12 17  1  0  0  0  0
 12  1  2  0  0  0  0
 13  7  2  0  0  0  0
 14  4  1  0  0  0  0
 15 14  1  6  0  0  0
 16  9  1  0  0  0  0
 16  7  1  0  0  0  0
 17 11  2  0  0  0  0
 18 24  1  6  0  0  0
 19 18  1  0  0  0  0
 20 23  1  1  0  0  0
 20 22  1  0  0  0  0
 20 15  1  0  0  0  0
 21 23  1  0  0  0  0
 21 19  1  0  0  0  0
 22 18  1  0  0  0  0
 25 26  1  0  0  0  0
 26 27  1  0  0  0  0
 29 27  1  1  0  0  0
 29 33  1  0  0  0  0
 30 28  1  1  0  0  0
 30 29  1  0  0  0  0
 30 34  1  0  0  0  0
 31 32  1  0  0  0  0
 33 32  2  0  0  0  0
 34 31  2  0  0  0  0
M  END
>  <MODEL>
9

>  <REMARK>
 VINA RESULT:      -8.8      3.588      6.969
  Name = 
  5 active torsions:
  status: ('A' for Active; 'I' for Inactive)
    1  A    between atoms: C_3  and  C_13
    2  A    between atoms: C_3  and  C_17
    3  A    between atoms: C_12  and  C_28
    4  A    between atoms: C_17  and  C_29
    5  A    between atoms: C_18  and  C_29
                            x       y       z     vdW  Elec       q    Type
                         _______ _______ _______ _____ _____    ______ ____

>  <TORSDO>
F 5

$$$$
