=
 OpenBabel10272401123D

 27 31  0  0  1  0  0  0  0  0999 V2000
  188.2250  178.2830  140.9890 N   0  0  0  0  0  0  0  0  0  0  0  0
  187.0040  178.5380  141.4960 C   0  0  0  0  0  0  0  0  0  0  0  0
  188.2010  177.7270  143.1700 C   0  0  0  0  0  0  0  0  0  0  0  0
  183.4420  179.2180  143.5180 C   0  0  0  0  0  3  0  0  0  0  0  0
  183.3260  178.9260  144.8790 C   0  0  0  0  0  3  0  0  0  0  0  0
  185.9080  179.0750  140.8240 C   0  0  0  0  0  3  0  0  0  0  0  0
  185.6210  178.1500  144.9220 C   0  0  0  0  0  3  0  0  0  0  0  0
  190.9140  176.7920  143.2190 C   0  0  0  0  0  0  0  0  0  0  0  0
  188.0500  176.9630  145.4280 O   0  0  0  0  0  0  0  0  0  0  0  0
  191.9450  176.1390  143.2140 O   0  0  0  0  0  0  0  0  0  0  0  0
  185.7520  178.4310  143.5580 C   0  0  0  0  0  0  0  0  0  0  0  0
  184.4120  178.3940  145.5790 C   0  0  0  0  0  3  0  0  0  0  0  0
  184.6470  178.9780  142.8500 C   0  0  0  0  0  0  0  0  0  0  0  0
  188.9580  177.7890  142.0110 C   0  0  0  0  0  0  0  0  0  0  0  0
  186.9350  178.2120  142.8340 C   0  0  0  0  0  0  0  0  0  0  0  0
  190.2590  177.0900  144.5470 C   0  0  0  0  0  2  0  0  0  0  0  0
  184.7550  179.2790  141.5200 N   0  0  0  0  0  0  0  0  0  0  0  0
  190.5260  176.4200  140.9130 F   0  0  0  0  0  0  0  0  0  0  0  0
  190.3970  177.3640  141.9160 C   0  0  2  0  0  3  0  0  0  0  0  0
  188.7720  177.2380  144.4350 C   0  0  0  0  0  0  0  0  0  0  0  0
  188.6820  178.5580  139.6300 C   0  0  0  0  0  2  0  0  0  0  0  0
  187.0670  175.7130  136.8570 C   0  0  0  0  0  3  0  0  0  0  0  0
  188.1100  177.5580  138.6810 C   0  0  0  0  0  0  0  0  0  0  0  0
  186.8730  177.7970  138.0740 C   0  0  0  0  0  3  0  0  0  0  0  0
  186.3500  176.8730  137.1640 C   0  0  0  0  0  3  0  0  0  0  0  0
  188.3080  175.4760  137.4570 C   0  0  0  0  0  3  0  0  0  0  0  0
  188.8300  176.4010  138.3670 C   0  0  0  0  0  3  0  0  0  0  0  0
  1  2  1  0  0  0  0
  1 14  1  0  0  0  0
  2 15  1  0  0  0  0
  3 20  1  0  0  0  0
  4  5  2  0  0  0  0
  5 12  1  0  0  0  0
  6  2  2  0  0  0  0
  6 17  1  0  0  0  0
  7 12  2  0  0  0  0
  8 16  1  0  0  0  0
 10  8  2  0  0  0  0
 11  7  1  0  0  0  0
 13  4  1  0  0  0  0
 13 11  1  0  0  0  0
 14  3  2  0  0  0  0
 15  3  1  0  0  0  0
 15 11  2  0  0  0  0
 17 13  2  0  0  0  0
 19 18  1  6  0  0  0
 19 14  1  0  0  0  0
 19  8  1  0  0  0  0
 20 16  1  0  0  0  0
 20  9  2  0  0  0  0
 21  1  1  0  0  0  0
 22 25  2  0  0  0  0
 22 26  1  0  0  0  0
 23 21  1  0  0  0  0
 24 23  2  0  0  0  0
 25 24  1  0  0  0  0
 26 27  2  0  0  0  0
 27 23  1  0  0  0  0
M  END
>  <MODEL>
1

>  <REMARK>
 VINA RESULT:      -9.3      0.000      0.000
  Name = 
  2 active torsions:
  status: ('A' for Active; 'I' for Inactive)
    1  A    between atoms: N_1  and  C_15
    2  A    between atoms: C_9  and  C_15
                            x       y       z     vdW  Elec       q    Type
                         _______ _______ _______ _____ _____    ______ ____

>  <TORSDO>
F 2

$$$$
=
 OpenBabel10272401123D

 27 31  0  0  1  0  0  0  0  0999 V2000
  185.3940  178.7880  140.9320 N   0  0  0  0  0  0  0  0  0  0  0  0
  185.4190  178.6450  142.2700 C   0  0  0  0  0  0  0  0  0  0  0  0
  187.4200  178.0300  141.5550 C   0  0  0  0  0  0  0  0  0  0  0  0
  185.9970  178.1120  146.3470 C   0  0  0  0  0  3  0  0  0  0  0  0
  187.2240  177.6630  146.8420 C   0  0  0  0  0  3  0  0  0  0  0  0
  184.3900  178.9250  143.1670 C   0  0  0  0  0  3  0  0  0  0  0  0
  188.1060  177.5480  144.5880 C   0  0  0  0  0  3  0  0  0  0  0  0
  188.4620  177.8760  138.8850 C   0  0  0  0  0  0  0  0  0  0  0  0
  189.4720  177.0300  142.2570 O   0  0  0  0  0  0  0  0  0  0  0  0
  188.8380  177.5360  137.7750 O   0  0  0  0  0  0  0  0  0  0  0  0
  186.8830  177.9910  144.0760 C   0  0  0  0  0  0  0  0  0  0  0  0
  188.2760  177.3830  145.9650 C   0  0  0  0  0  3  0  0  0  0  0  0
  185.8160  178.2810  144.9710 C   0  0  0  0  0  0  0  0  0  0  0  0
  186.6160  178.4150  140.4930 C   0  0  0  0  0  0  0  0  0  0  0  0
  186.6420  178.1800  142.7060 C   0  0  0  0  0  0  0  0  0  0  0  0
  189.4570  177.8470  140.0210 C   0  0  0  0  0  2  0  0  0  0  0  0
  184.6160  178.7330  144.4960 N   0  0  0  0  0  0  0  0  0  0  0  0
  186.1750  177.6470  138.3120 F   0  0  0  0  0  0  0  0  0  0  0  0
  187.0560  178.4140  139.0550 C   0  0  2  0  0  3  0  0  0  0  0  0
  188.8090  177.5910  141.3480 C   0  0  0  0  0  0  0  0  0  0  0  0
  184.2940  179.3140  140.1290 C   0  0  0  0  0  2  0  0  0  0  0  0
  181.0270  176.5380  140.0020 C   0  0  0  0  0  3  0  0  0  0  0  0
  183.1630  178.3420  140.1040 C   0  0  0  0  0  0  0  0  0  0  0  0
  181.8970  178.7290  140.5570 C   0  0  0  0  0  3  0  0  0  0  0  0
  180.8300  177.8270  140.5090 C   0  0  0  0  0  3  0  0  0  0  0  0
  182.2910  176.1520  139.5420 C   0  0  0  0  0  3  0  0  0  0  0  0
  183.3570  177.0550  139.5910 C   0  0  0  0  0  3  0  0  0  0  0  0
  1  2  1  0  0  0  0
  2 15  2  0  0  0  0
  2  6  1  0  0  0  0
  3 15  1  0  0  0  0
  4  5  1  0  0  0  0
  6 17  2  0  0  0  0
  7 12  1  0  0  0  0
  8 19  1  0  0  0  0
  8 16  1  0  0  0  0
 10  8  2  0  0  0  0
 11  7  2  0  0  0  0
 11 13  1  0  0  0  0
 12  5  2  0  0  0  0
 13  4  2  0  0  0  0
 14  1  1  0  0  0  0
 14  3  2  0  0  0  0
 15 11  1  0  0  0  0
 16 20  1  0  0  0  0
 17 13  1  0  0  0  0
 19 18  1  6  0  0  0
 19 14  1  0  0  0  0
 20  3  1  0  0  0  0
 20  9  2  0  0  0  0
 21  1  1  0  0  0  0
 22 25  1  0  0  0  0
 23 21  1  0  0  0  0
 23 24  1  0  0  0  0
 25 24  2  0  0  0  0
 26 27  1  0  0  0  0
 26 22  2  0  0  0  0
 27 23  2  0  0  0  0
M  END
>  <MODEL>
2

>  <REMARK>
 VINA RESULT:      -9.0      2.770      4.333
  Name = 
  2 active torsions:
  status: ('A' for Active; 'I' for Inactive)
    1  A    between atoms: N_1  and  C_15
    2  A    between atoms: C_9  and  C_15
                            x       y       z     vdW  Elec       q    Type
                         _______ _______ _______ _____ _____    ______ ____

>  <TORSDO>
F 2

$$$$
=
 OpenBabel10272401123D

 27 31  0  0  1  0  0  0  0  0999 V2000
  185.7520  178.7480  140.8700 N   0  0  0  0  0  0  0  0  0  0  0  0
  185.5310  178.6910  142.1970 C   0  0  0  0  0  0  0  0  0  0  0  0
  187.6110  177.9970  141.8960 C   0  0  0  0  0  0  0  0  0  0  0  0
  185.3500  178.4130  146.3360 C   0  0  0  0  0  3  0  0  0  0  0  0
  186.4540  177.9770  147.0720 C   0  0  0  0  0  3  0  0  0  0  0  0
  184.3660  179.0460  142.8730 C   0  0  0  0  0  3  0  0  0  0  0  0
  187.7240  177.7010  145.0270 C   0  0  0  0  0  3  0  0  0  0  0  0
  189.1120  177.6540  139.4750 C   0  0  0  0  0  0  0  0  0  0  0  0
  189.4730  177.0110  143.0190 O   0  0  0  0  0  0  0  0  0  0  0  0
  189.6720  177.2360  138.4740 O   0  0  0  0  0  0  0  0  0  0  0  0
  186.6270  178.1310  144.2750 C   0  0  0  0  0  0  0  0  0  0  0  0
  187.6380  177.6230  146.4200 C   0  0  0  0  0  3  0  0  0  0  0  0
  185.4250  178.4960  144.9420 C   0  0  0  0  0  0  0  0  0  0  0  0
  187.0230  178.3260  140.6850 C   0  0  0  0  0  0  0  0  0  0  0  0
  186.6420  178.2340  142.8750 C   0  0  0  0  0  0  0  0  0  0  0  0
  189.8850  177.6810  140.7720 C   0  0  0  0  0  2  0  0  0  0  0  0
  184.3430  178.9370  144.2310 N   0  0  0  0  0  0  0  0  0  0  0  0
  186.9610  177.4270  138.5110 F   0  0  0  0  0  0  0  0  0  0  0  0
  187.7140  178.2250  139.3530 C   0  0  2  0  0  3  0  0  0  0  0  0
  189.0020  177.5230  141.9720 C   0  0  0  0  0  0  0  0  0  0  0  0
  184.8310  179.2390  139.8510 C   0  0  0  0  0  2  0  0  0  0  0  0
  182.5730  175.9590  138.2560 C   0  0  0  0  0  3  0  0  0  0  0  0
  184.0290  178.1110  139.2920 C   0  0  0  0  0  0  0  0  0  0  0  0
  184.0950  177.8140  137.9270 C   0  0  0  0  0  3  0  0  0  0  0  0
  183.3650  176.7400  137.4080 C   0  0  0  0  0  3  0  0  0  0  0  0
  182.5130  176.2510  139.6230 C   0  0  0  0  0  3  0  0  0  0  0  0
  183.2430  177.3240  140.1410 C   0  0  0  0  0  3  0  0  0  0  0  0
  1  2  1  0  0  0  0
  2  6  2  0  0  0  0
  2 15  1  0  0  0  0
  3 20  1  0  0  0  0
  3 15  1  0  0  0  0
  4  5  2  0  0  0  0
  6 17  1  0  0  0  0
  7 12  2  0  0  0  0
  8 16  1  0  0  0  0
 10  8  2  0  0  0  0
 11 13  1  0  0  0  0
 11  7  1  0  0  0  0
 12  5  1  0  0  0  0
 13  4  1  0  0  0  0
 14  1  1  0  0  0  0
 14  3  2  0  0  0  0
 15 11  2  0  0  0  0
 16 20  1  0  0  0  0
 17 13  2  0  0  0  0
 19 18  1  6  0  0  0
 19  8  1  0  0  0  0
 19 14  1  0  0  0  0
 20  9  2  0  0  0  0
 21  1  1  0  0  0  0
 22 26  1  0  0  0  0
 23 21  1  0  0  0  0
 23 27  1  0  0  0  0
 24 23  2  0  0  0  0
 25 24  1  0  0  0  0
 25 22  2  0  0  0  0
 26 27  2  0  0  0  0
M  END
>  <MODEL>
3

>  <REMARK>
 VINA RESULT:      -8.8      2.427      3.533
  Name = 
  2 active torsions:
  status: ('A' for Active; 'I' for Inactive)
    1  A    between atoms: N_1  and  C_15
    2  A    between atoms: C_9  and  C_15
                            x       y       z     vdW  Elec       q    Type
                         _______ _______ _______ _____ _____    ______ ____

>  <TORSDO>
F 2

$$$$
=
 OpenBabel10272401123D

 27 31  0  0  1  0  0  0  0  0999 V2000
  185.7950  178.8380  141.7390 N   0  0  0  0  0  0  0  0  0  0  0  0
  187.0580  178.4220  141.5270 C   0  0  0  0  0  0  0  0  0  0  0  0
  186.6640  178.0980  143.6800 C   0  0  0  0  0  0  0  0  0  0  0  0
  190.9400  176.9590  141.3540 C   0  0  0  0  0  3  0  0  0  0  0  0
  191.5670  176.4580  142.4970 C   0  0  0  0  0  3  0  0  0  0  0  0
  187.7510  178.4130  140.3180 C   0  0  0  0  0  3  0  0  0  0  0  0
  189.5860  176.9380  143.8090 C   0  0  0  0  0  3  0  0  0  0  0  0
  184.3260  178.6810  145.2390 C   0  0  0  0  0  0  0  0  0  0  0  0
  187.7100  177.4960  145.7400 O   0  0  0  0  0  0  0  0  0  0  0  0
  183.4770  179.1630  145.9710 O   0  0  0  0  0  0  0  0  0  0  0  0
  188.9470  177.4490  142.6750 C   0  0  0  0  0  0  0  0  0  0  0  0
  190.8920  176.4470  143.7210 C   0  0  0  0  0  3  0  0  0  0  0  0
  189.6340  177.4530  141.4300 C   0  0  0  0  0  0  0  0  0  0  0  0
  185.5520  178.6390  143.0530 C   0  0  0  0  0  0  0  0  0  0  0  0
  187.6390  177.9580  142.6890 C   0  0  0  0  0  0  0  0  0  0  0  0
  185.3430  177.7410  145.8400 C   0  0  0  0  0  2  0  0  0  0  0  0
  189.0250  177.9300  140.3020 N   0  0  0  0  0  0  0  0  0  0  0  0
  183.9440  180.2880  143.5410 F   0  0  0  0  0  0  0  0  0  0  0  0
  184.2580  178.9560  143.7510 C   0  0  2  0  0  3  0  0  0  0  0  0
  186.6540  177.7710  145.1150 C   0  0  0  0  0  0  0  0  0  0  0  0
  184.8580  179.3320  140.7350 C   0  0  0  0  0  2  0  0  0  0  0  0
  182.9810  176.0840  138.6550 C   0  0  0  0  0  3  0  0  0  0  0  0
  184.2200  178.1890  140.0190 C   0  0  0  0  0  0  0  0  0  0  0  0
  183.2240  177.4350  140.6500 C   0  0  0  0  0  3  0  0  0  0  0  0
  182.6070  176.3820  139.9700 C   0  0  0  0  0  3  0  0  0  0  0  0
  183.9710  176.8420  138.0210 C   0  0  0  0  0  3  0  0  0  0  0  0
  184.5880  177.8960  138.7020 C   0  0  0  0  0  3  0  0  0  0  0  0
  1 14  1  0  0  0  0
  2  1  1  0  0  0  0
  2 15  1  0  0  0  0
  3 20  1  0  0  0  0
  4 13  1  0  0  0  0
  4  5  2  0  0  0  0
  5 12  1  0  0  0  0
  6  2  2  0  0  0  0
  8 16  1  0  0  0  0
  8 10  2  0  0  0  0
 11 15  2  0  0  0  0
 11  7  1  0  0  0  0
 12  7  2  0  0  0  0
 13 11  1  0  0  0  0
 14  3  2  0  0  0  0
 14 19  1  0  0  0  0
 15  3  1  0  0  0  0
 17  6  1  0  0  0  0
 17 13  2  0  0  0  0
 19 18  1  1  0  0  0
 19  8  1  0  0  0  0
 20  9  2  0  0  0  0
 20 16  1  0  0  0  0
 21  1  1  0  0  0  0
 22 25  1  0  0  0  0
 23 24  1  0  0  0  0
 23 21  1  0  0  0  0
 25 24  2  0  0  0  0
 26 22  2  0  0  0  0
 26 27  1  0  0  0  0
 27 23  2  0  0  0  0
M  END
>  <MODEL>
4

>  <REMARK>
 VINA RESULT:      -8.5      2.473      5.169
  Name = 
  2 active torsions:
  status: ('A' for Active; 'I' for Inactive)
    1  A    between atoms: N_1  and  C_15
    2  A    between atoms: C_9  and  C_15
                            x       y       z     vdW  Elec       q    Type
                         _______ _______ _______ _____ _____    ______ ____

>  <TORSDO>
F 2

$$$$
=
 OpenBabel10272401123D

 27 31  0  0  1  0  0  0  0  0999 V2000
  184.7840  178.8580  140.5060 N   0  0  0  0  0  0  0  0  0  0  0  0
  184.5000  178.8500  141.8220 C   0  0  0  0  0  0  0  0  0  0  0  0
  186.6410  178.3160  141.6590 C   0  0  0  0  0  0  0  0  0  0  0  0
  184.1250  178.7660  145.9560 C   0  0  0  0  0  3  0  0  0  0  0  0
  185.2210  178.4600  146.7670 C   0  0  0  0  0  3  0  0  0  0  0  0
  183.2760  179.1400  142.4210 C   0  0  0  0  0  3  0  0  0  0  0  0
  186.6140  178.1880  144.8030 C   0  0  0  0  0  3  0  0  0  0  0  0
  188.2890  177.9770  139.3350 C   0  0  0  0  0  0  0  0  0  0  0  0
  188.5150  177.5450  142.9220 O   0  0  0  0  0  0  0  0  0  0  0  0
  188.9330  177.5580  138.3860 O   0  0  0  0  0  0  0  0  0  0  0  0
  185.5260  178.4870  143.9780 C   0  0  0  0  0  0  0  0  0  0  0  0
  186.4620  178.1730  146.1920 C   0  0  0  0  0  3  0  0  0  0  0  0
  184.2660  178.7850  144.5650 C   0  0  0  0  0  0  0  0  0  0  0  0
  186.0930  178.5340  140.4050 C   0  0  0  0  0  0  0  0  0  0  0  0
  185.6070  178.5210  142.5760 C   0  0  0  0  0  0  0  0  0  0  0  0
  188.9890  178.1340  140.6640 C   0  0  0  0  0  2  0  0  0  0  0  0
  183.1910  179.0980  143.7800 N   0  0  0  0  0  0  0  0  0  0  0  0
  186.2160  177.5250  138.2820 F   0  0  0  0  0  0  0  0  0  0  0  0
  186.8590  178.4240  139.1150 C   0  0  2  0  0  3  0  0  0  0  0  0
  188.0600  177.9630  141.8270 C   0  0  0  0  0  0  0  0  0  0  0  0
  183.8810  179.2190  139.4180 C   0  0  0  0  0  2  0  0  0  0  0  0
  181.9860  175.7300  137.7950 C   0  0  0  0  0  3  0  0  0  0  0  0
  183.2410  177.9970  138.8510 C   0  0  0  0  0  0  0  0  0  0  0  0
  182.8500  176.9540  139.6980 C   0  0  0  0  0  3  0  0  0  0  0  0
  182.2260  175.8200  139.1710 C   0  0  0  0  0  3  0  0  0  0  0  0
  182.3700  176.7760  136.9480 C   0  0  0  0  0  3  0  0  0  0  0  0
  182.9940  177.9090  137.4770 C   0  0  0  0  0  3  0  0  0  0  0  0
  1  2  1  0  0  0  0
  2  6  2  0  0  0  0
  2 15  1  0  0  0  0
  3 20  1  0  0  0  0
  3 15  1  0  0  0  0
  4  5  2  0  0  0  0
  6 17  1  0  0  0  0
  7 12  2  0  0  0  0
  8 16  1  0  0  0  0
 10  8  2  0  0  0  0
 11 13  1  0  0  0  0
 11  7  1  0  0  0  0
 12  5  1  0  0  0  0
 13  4  1  0  0  0  0
 14  1  1  0  0  0  0
 14  3  2  0  0  0  0
 15 11  2  0  0  0  0
 16 20  1  0  0  0  0
 17 13  2  0  0  0  0
 19 18  1  6  0  0  0
 19  8  1  0  0  0  0
 19 14  1  0  0  0  0
 20  9  2  0  0  0  0
 21  1  1  0  0  0  0
 22 25  1  0  0  0  0
 23 21  1  0  0  0  0
 23 24  1  0  0  0  0
 25 24  2  0  0  0  0
 26 27  1  0  0  0  0
 26 22  2  0  0  0  0
 27 23  2  0  0  0  0
M  END
>  <MODEL>
5

>  <REMARK>
 VINA RESULT:      -8.4      2.699      3.877
  Name = 
  2 active torsions:
  status: ('A' for Active; 'I' for Inactive)
    1  A    between atoms: N_1  and  C_15
    2  A    between atoms: C_9  and  C_15
                            x       y       z     vdW  Elec       q    Type
                         _______ _______ _______ _____ _____    ______ ____

>  <TORSDO>
F 2

$$$$
=
 OpenBabel10272401123D

 27 31  0  0  1  0  0  0  0  0999 V2000
  184.8500  178.8880  141.5010 N   0  0  0  0  0  0  0  0  0  0  0  0
  185.9970  178.6290  140.8450 C   0  0  0  0  0  0  0  0  0  0  0  0
  186.4000  178.1840  142.9750 C   0  0  0  0  0  0  0  0  0  0  0  0
  189.7060  177.6360  139.2650 C   0  0  0  0  0  3  0  0  0  0  0  0
  190.7320  177.1700  140.0890 C   0  0  0  0  0  3  0  0  0  0  0  0
  186.2290  178.7450  139.4760 C   0  0  0  0  0  3  0  0  0  0  0  0
  189.2860  177.3690  142.0240 C   0  0  0  0  0  3  0  0  0  0  0  0
  184.6940  178.4350  145.2690 C   0  0  0  0  0  0  0  0  0  0  0  0
  188.1420  177.6350  144.5110 O   0  0  0  0  0  0  0  0  0  0  0  0
  184.1060  178.7890  146.2790 O   0  0  0  0  0  0  0  0  0  0  0  0
  188.2500  177.8420  141.2130 C   0  0  0  0  0  0  0  0  0  0  0  0
  190.5230  177.0360  141.4650 C   0  0  0  0  0  3  0  0  0  0  0  0
  188.4640  177.9720  139.8130 C   0  0  0  0  0  0  0  0  0  0  0  0
  185.0930  178.6150  142.8020 C   0  0  0  0  0  0  0  0  0  0  0  0
  186.9830  178.1950  141.7050 C   0  0  0  0  0  0  0  0  0  0  0  0
  185.9420  177.5990  145.4210 C   0  0  0  0  0  2  0  0  0  0  0  0
  187.4610  178.4150  138.9960 N   0  0  0  0  0  0  0  0  0  0  0  0
  183.5990  180.0470  143.9230 F   0  0  0  0  0  0  0  0  0  0  0  0
  184.0930  178.7540  143.9160 C   0  0  2  0  0  3  0  0  0  0  0  0
  186.9150  177.8070  144.3000 C   0  0  0  0  0  0  0  0  0  0  0  0
  183.5810  179.3050  140.9120 C   0  0  0  0  0  2  0  0  0  0  0  0
  181.1460  175.9030  139.9700 C   0  0  0  0  0  3  0  0  0  0  0  0
  182.7390  178.1130  140.6020 C   0  0  0  0  0  0  0  0  0  0  0  0
  181.3910  178.0920  140.9760 C   0  0  0  0  0  3  0  0  0  0  0  0
  180.5950  176.9860  140.6630 C   0  0  0  0  0  3  0  0  0  0  0  0
  182.4910  175.9260  139.5900 C   0  0  0  0  0  3  0  0  0  0  0  0
  183.2870  177.0320  139.9030 C   0  0  0  0  0  3  0  0  0  0  0  0
  1 14  1  0  0  0  0
  2  1  1  0  0  0  0
  2 15  1  0  0  0  0
  3 20  1  0  0  0  0
  4 13  1  0  0  0  0
  4  5  2  0  0  0  0
  5 12  1  0  0  0  0
  6  2  2  0  0  0  0
  8 16  1  0  0  0  0
  8 10  2  0  0  0  0
 11 15  2  0  0  0  0
 11  7  1  0  0  0  0
 12  7  2  0  0  0  0
 13 11  1  0  0  0  0
 14  3  2  0  0  0  0
 14 19  1  0  0  0  0
 15  3  1  0  0  0  0
 17  6  1  0  0  0  0
 17 13  2  0  0  0  0
 19 18  1  1  0  0  0
 19  8  1  0  0  0  0
 20  9  2  0  0  0  0
 20 16  1  0  0  0  0
 21  1  1  0  0  0  0
 22 25  1  0  0  0  0
 23 21  1  0  0  0  0
 23 24  1  0  0  0  0
 25 24  2  0  0  0  0
 26 27  1  0  0  0  0
 26 22  2  0  0  0  0
 27 23  2  0  0  0  0
M  END
>  <MODEL>
6

>  <REMARK>
 VINA RESULT:      -8.4      2.857      5.555
  Name = 
  2 active torsions:
  status: ('A' for Active; 'I' for Inactive)
    1  A    between atoms: N_1  and  C_15
    2  A    between atoms: C_9  and  C_15
                            x       y       z     vdW  Elec       q    Type
                         _______ _______ _______ _____ _____    ______ ____

>  <TORSDO>
F 2

$$$$
=
 OpenBabel10272401123D

 27 31  0  0  1  0  0  0  0  0999 V2000
  188.4290  177.2850  141.6900 N   0  0  0  0  0  0  0  0  0  0  0  0
  187.6070  177.5260  142.7290 C   0  0  0  0  0  0  0  0  0  0  0  0
  186.5590  178.2880  140.9360 C   0  0  0  0  0  0  0  0  0  0  0  0
  184.7250  178.4050  145.5850 C   0  0  0  0  0  3  0  0  0  0  0  0
  183.5190  179.0100  145.2210 C   0  0  0  0  0  3  0  0  0  0  0  0
  187.8270  177.2080  144.0670 C   0  0  0  0  0  3  0  0  0  0  0  0
  184.2250  179.0530  142.9030 C   0  0  0  0  0  3  0  0  0  0  0  0
  187.4000  178.3550  138.1920 C   0  0  0  0  0  0  0  0  0  0  0  0
  184.6510  179.5380  140.2300 O   0  0  0  0  0  0  0  0  0  0  0  0
  187.8290  178.6510  137.0890 O   0  0  0  0  0  0  0  0  0  0  0  0
  185.4390  178.4530  143.2520 C   0  0  0  0  0  0  0  0  0  0  0  0
  183.2700  179.3320  143.8840 C   0  0  0  0  0  3  0  0  0  0  0  0
  185.6880  178.1210  144.6120 C   0  0  0  0  0  0  0  0  0  0  0  0
  187.7890  177.7490  140.5930 C   0  0  0  0  0  0  0  0  0  0  0  0
  186.4430  178.1430  142.3200 C   0  0  0  0  0  0  0  0  0  0  0  0
  185.9310  178.5660  138.4730 C   0  0  0  0  0  2  0  0  0  0  0  0
  186.8590  177.5170  144.9760 N   0  0  0  0  0  0  0  0  0  0  0  0
  189.5640  178.3090  139.1530 F   0  0  0  0  0  0  0  0  0  0  0  0
  188.3270  177.6910  139.1900 C   0  0  2  0  0  3  0  0  0  0  0  0
  185.6560  178.8490  139.9180 C   0  0  0  0  0  0  0  0  0  0  0  0
  189.7140  176.5950  141.7330 C   0  0  0  0  0  2  0  0  0  0  0  0
  191.9730  177.9760  145.1060 C   0  0  0  0  0  3  0  0  0  0  0  0
  190.5170  177.0710  142.8960 C   0  0  0  0  0  0  0  0  0  0  0  0
  190.8770  178.4200  142.9930 C   0  0  0  0  0  3  0  0  0  0  0  0
  191.6070  178.8720  144.0960 C   0  0  0  0  0  3  0  0  0  0  0  0
  191.6070  176.6290  145.0140 C   0  0  0  0  0  3  0  0  0  0  0  0
  190.8770  176.1780  143.9110 C   0  0  0  0  0  3  0  0  0  0  0  0
  1 21  1  0  0  0  0
  1  2  1  0  0  0  0
  2  6  1  0  0  0  0
  3 15  1  0  0  0  0
  5  4  1  0  0  0  0
  6 17  2  0  0  0  0
  7 11  2  0  0  0  0
  7 12  1  0  0  0  0
  8 16  1  0  0  0  0
  8 19  1  0  0  0  0
 10  8  2  0  0  0  0
 11 13  1  0  0  0  0
 12  5  2  0  0  0  0
 13 17  1  0  0  0  0
 13  4  2  0  0  0  0
 14  3  2  0  0  0  0
 14  1  1  0  0  0  0
 15  2  2  0  0  0  0
 15 11  1  0  0  0  0
 16 20  1  0  0  0  0
 19 18  1  1  0  0  0
 19 14  1  0  0  0  0
 20  9  2  0  0  0  0
 20  3  1  0  0  0  0
 21 23  1  0  0  0  0
 23 24  2  0  0  0  0
 23 27  1  0  0  0  0
 24 25  1  0  0  0  0
 25 22  2  0  0  0  0
 26 22  1  0  0  0  0
 27 26  2  0  0  0  0
M  END
>  <MODEL>
7

>  <REMARK>
 VINA RESULT:      -8.4      2.494      5.049
  Name = 
  2 active torsions:
  status: ('A' for Active; 'I' for Inactive)
    1  A    between atoms: N_1  and  C_15
    2  A    between atoms: C_9  and  C_15
                            x       y       z     vdW  Elec       q    Type
                         _______ _______ _______ _____ _____    ______ ____

>  <TORSDO>
F 2

$$$$
=
 OpenBabel10272401123D

 27 31  0  0  1  0  0  0  0  0999 V2000
  187.7610  178.3290  139.7190 N   0  0  0  0  0  0  0  0  0  0  0  0
  187.0320  178.3800  140.8500 C   0  0  0  0  0  0  0  0  0  0  0  0
  189.0420  177.6790  141.4520 C   0  0  0  0  0  0  0  0  0  0  0  0
  185.2210  178.4400  144.5850 C   0  0  0  0  0  3  0  0  0  0  0  0
  185.9330  178.0740  145.7300 C   0  0  0  0  0  3  0  0  0  0  0  0
  185.7040  178.7810  140.9780 C   0  0  0  0  0  3  0  0  0  0  0  0
  187.9010  177.6410  144.3840 C   0  0  0  0  0  3  0  0  0  0  0  0
  191.3690  177.1490  139.8580 C   0  0  0  0  0  0  0  0  0  0  0  0
  190.2820  176.8010  143.2940 O   0  0  0  0  0  0  0  0  0  0  0  0
  192.2680  176.6550  139.1970 O   0  0  0  0  0  0  0  0  0  0  0  0
  187.2010  177.9990  143.2280 C   0  0  0  0  0  0  0  0  0  0  0  0
  187.2690  177.6760  145.6310 C   0  0  0  0  0  3  0  0  0  0  0  0
  185.8440  178.4090  143.3330 C   0  0  0  0  0  0  0  0  0  0  0  0
  188.9900  177.9030  140.0850 C   0  0  0  0  0  0  0  0  0  0  0  0
  187.7720  177.9880  141.9450 C   0  0  0  0  0  0  0  0  0  0  0  0
  191.5660  177.2880  141.3490 C   0  0  0  0  0  2  0  0  0  0  0  0
  185.1430  178.7820  142.2200 N   0  0  0  0  0  0  0  0  0  0  0  0
  189.7690  176.8280  138.1420 F   0  0  0  0  0  0  0  0  0  0  0  0
  190.1480  177.6980  139.1490 C   0  0  2  0  0  3  0  0  0  0  0  0
  190.2770  177.2220  142.1090 C   0  0  0  0  0  0  0  0  0  0  0  0
  187.3300  178.7290  138.3820 C   0  0  0  0  0  2  0  0  0  0  0  0
  184.8180  175.6770  136.7180 C   0  0  0  0  0  3  0  0  0  0  0  0
  186.4590  177.6750  137.7840 C   0  0  0  0  0  0  0  0  0  0  0  0
  187.0180  176.4700  137.3460 C   0  0  0  0  0  3  0  0  0  0  0  0
  186.1990  175.4720  136.8100 C   0  0  0  0  0  3  0  0  0  0  0  0
  184.2570  176.8790  137.1620 C   0  0  0  0  0  3  0  0  0  0  0  0
  185.0770  177.8760  137.6980 C   0  0  0  0  0  3  0  0  0  0  0  0
  1 14  1  0  0  0  0
  1  2  1  0  0  0  0
  2  6  2  0  0  0  0
  2 15  1  0  0  0  0
  3 15  1  0  0  0  0
  3 20  1  0  0  0  0
  4  5  2  0  0  0  0
  6 17  1  0  0  0  0
  7 12  2  0  0  0  0
  8 16  1  0  0  0  0
 10  8  2  0  0  0  0
 11 13  1  0  0  0  0
 11  7  1  0  0  0  0
 12  5  1  0  0  0  0
 13  4  1  0  0  0  0
 14  3  2  0  0  0  0
 15 11  2  0  0  0  0
 16 20  1  0  0  0  0
 17 13  2  0  0  0  0
 19 18  1  6  0  0  0
 19  8  1  0  0  0  0
 19 14  1  0  0  0  0
 20  9  2  0  0  0  0
 21  1  1  0  0  0  0
 22 25  2  0  0  0  0
 22 26  1  0  0  0  0
 23 21  1  0  0  0  0
 24 23  2  0  0  0  0
 25 24  1  0  0  0  0
 26 27  2  0  0  0  0
 27 23  1  0  0  0  0
M  END
>  <MODEL>
8

>  <REMARK>
 VINA RESULT:      -8.3      1.536      2.505
  Name = 
  2 active torsions:
  status: ('A' for Active; 'I' for Inactive)
    1  A    between atoms: N_1  and  C_15
    2  A    between atoms: C_9  and  C_15
                            x       y       z     vdW  Elec       q    Type
                         _______ _______ _______ _____ _____    ______ ____

>  <TORSDO>
F 2

$$$$
=
 OpenBabel10272401123D

 27 31  0  0  1  0  0  0  0  0999 V2000
  185.6550  178.7310  139.7870 N   0  0  0  0  0  0  0  0  0  0  0  0
  186.4900  178.4550  140.8060 C   0  0  0  0  0  0  0  0  0  0  0  0
  184.4830  178.6800  141.7080 C   0  0  0  0  0  0  0  0  0  0  0  0
  188.6460  177.5650  144.2410 C   0  0  0  0  0  3  0  0  0  0  0  0
  188.0120  177.4890  145.4830 C   0  0  0  0  0  3  0  0  0  0  0  0
  187.8600  178.2140  140.7310 C   0  0  0  0  0  3  0  0  0  0  0  0
  185.8880  178.0250  144.4460 C   0  0  0  0  0  3  0  0  0  0  0  0
  181.9700  179.3310  140.4850 C   0  0  0  0  0  0  0  0  0  0  0  0
  183.3360  178.8190  143.7980 O   0  0  0  0  0  0  0  0  0  0  0  0
  180.9630  179.8710  140.0540 O   0  0  0  0  0  0  0  0  0  0  0  0
  186.5090  178.1100  143.1960 C   0  0  0  0  0  0  0  0  0  0  0  0
  186.6360  177.7180  145.5860 C   0  0  0  0  0  3  0  0  0  0  0  0
  187.9070  177.8710  143.0940 C   0  0  0  0  0  0  0  0  0  0  0  0
  184.4280  178.8670  140.3350 C   0  0  0  0  0  0  0  0  0  0  0  0
  185.8200  178.4130  142.0110 C   0  0  0  0  0  0  0  0  0  0  0  0
  181.9320  178.7450  141.8760 C   0  0  0  0  0  2  0  0  0  0  0  0
  188.5340  177.9300  141.8810 N   0  0  0  0  0  0  0  0  0  0  0  0
  183.3530  180.3410  138.8490 F   0  0  0  0  0  0  0  0  0  0  0  0
  183.1690  179.1760  139.5730 C   0  0  2  0  0  3  0  0  0  0  0  0
  183.2740  178.7610  142.5430 C   0  0  0  0  0  0  0  0  0  0  0  0
  185.9970  178.7930  138.3690 C   0  0  0  0  0  2  0  0  0  0  0  0
  185.8780  174.8950  136.5840 C   0  0  0  0  0  3  0  0  0  0  0  0
  185.9540  177.4290  137.7670 C   0  0  0  0  0  0  0  0  0  0  0  0
  184.7300  176.8750  137.3740 C   0  0  0  0  0  3  0  0  0  0  0  0
  184.6920  175.6080  136.7850 C   0  0  0  0  0  3  0  0  0  0  0  0
  187.1030  175.4500  136.9700 C   0  0  0  0  0  3  0  0  0  0  0  0
  187.1400  176.7180  137.5590 C   0  0  0  0  0  3  0  0  0  0  0  0
  1 14  1  0  0  0  0
  1  2  1  0  0  0  0
  2 15  1  0  0  0  0
  3 15  1  0  0  0  0
  3 20  1  0  0  0  0
  4  5  2  0  0  0  0
  5 12  1  0  0  0  0
  6  2  2  0  0  0  0
  6 17  1  0  0  0  0
  7 12  2  0  0  0  0
  8 16  1  0  0  0  0
 10  8  2  0  0  0  0
 11  7  1  0  0  0  0
 13 11  1  0  0  0  0
 13  4  1  0  0  0  0
 14  3  2  0  0  0  0
 15 11  2  0  0  0  0
 16 20  1  0  0  0  0
 17 13  2  0  0  0  0
 19 18  1  1  0  0  0
 19 14  1  0  0  0  0
 19  8  1  0  0  0  0
 20  9  2  0  0  0  0
 21  1  1  0  0  0  0
 22 25  2  0  0  0  0
 22 26  1  0  0  0  0
 23 21  1  0  0  0  0
 24 23  2  0  0  0  0
 25 24  1  0  0  0  0
 26 27  2  0  0  0  0
 27 23  1  0  0  0  0
M  END
>  <MODEL>
9

>  <REMARK>
 VINA RESULT:      -8.2      3.005      5.065
  Name = 
  2 active torsions:
  status: ('A' for Active; 'I' for Inactive)
    1  A    between atoms: N_1  and  C_15
    2  A    between atoms: C_9  and  C_15
                            x       y       z     vdW  Elec       q    Type
                         _______ _______ _______ _____ _____    ______ ____

>  <TORSDO>
F 2

$$$$
