=
 OpenBabel10272413243D

 32 36  0  0  1  0  0  0  0  0999 V2000
  191.5430  175.4290  137.5780 C   0  0  0  0  0  2  0  0  0  0  0  0
  188.0650  177.9590  140.9730 C   0  0  0  0  0  2  0  0  0  0  0  0
  191.7260  175.4240  144.8040 O   0  0  0  0  0  0  0  0  0  0  0  0
  191.5830  176.5520  145.6560 C   0  0  0  0  0  2  0  0  0  0  0  0
  189.3380  177.2510  138.9240 C   0  0  2  0  0  3  0  0  0  0  0  0
  191.2300  177.6290  140.6860 C   0  0  0  0  0  2  0  0  0  0  0  0
  191.3790  175.7630  139.0540 C   0  0  0  0  0  2  0  0  0  0  0  0
  191.8810  175.8440  143.4480 C   0  0  0  0  0  2  0  0  0  0  0  0
  190.3150  177.0340  141.7450 C   0  0  1  0  0  3  0  0  0  0  0  0
  190.9640  177.0210  143.0880 C   0  0  1  0  0  3  0  0  0  0  0  0
  188.7870  177.9060  143.4450 N   0  0  0  0  0  0  0  0  0  0  0  0
  189.5200  176.4840  136.5470 C   0  0  0  0  0  3  0  0  0  0  0  0
  190.8480  177.1770  139.2700 C   0  0  1  0  0  3  0  0  0  0  0  0
  189.1450  177.4020  137.4440 C   0  0  0  0  0  3  0  0  0  0  0  0
  190.1880  175.1910  136.9180 C   0  0  1  0  0  3  0  0  0  0  0  0
  190.2380  177.2790  145.4150 C   0  0  0  0  0  2  0  0  0  0  0  0
  189.7750  176.9860  143.9940 C   0  0  2  0  0  3  0  0  0  0  0  0
  188.5920  178.3930  139.6110 C   0  0  0  0  0  2  0  0  0  0  0  0
  189.1820  178.0160  142.0190 C   0  0  2  0  0  3  0  0  0  0  0  0
  189.6350  173.1040  135.5390 C   0  0  0  0  0  0  0  0  0  0  0  0
  190.3360  174.3360  135.7430 N   0  0  0  0  0  2  0  0  0  0  0  0
  188.8330  172.6670  136.4050 O   0  0  0  0  0  0  0  0  0  0  0  0
  189.8550  172.3610  134.3460 N   0  0  0  0  0  1  0  0  0  0  0  0
  187.4870  177.2530  143.6000 C   0  0  0  0  0  2  0  0  0  0  0  0
  185.1590  178.1290  142.3340 O   0  0  0  0  0  0  0  0  0  0  0  0
  184.0480  179.0420  144.2030 C   0  0  2  0  0  3  0  0  0  0  0  0
  186.5030  178.1800  144.3070 C   0  0  2  0  0  3  0  0  0  0  0  0
  185.0430  178.3370  146.4270 C   0  0  0  0  0  2  0  0  0  0  0  0
  184.4080  179.4790  145.6240 C   0  0  0  0  0  2  0  0  0  0  0  0
  182.9790  178.1450  144.2360 O   0  0  0  0  0  1  0  0  0  0  0  0
  186.1760  177.6040  145.6870 C   0  0  0  0  0  2  0  0  0  0  0  0
  185.2290  178.4080  143.5230 C   0  0  0  0  0  0  0  0  0  0  0  0
  1  7  1  0  0  0  0
  3  4  1  0  0  0  0
  5 14  1  6  0  0  0
  5 13  1  0  0  0  0
  5 18  1  0  0  0  0
  8  3  1  0  0  0  0
  9  6  1  6  0  0  0
  9 19  1  0  0  0  0
  9 10  1  0  0  0  0
 10  8  1  6  0  0  0
 10 17  1  0  0  0  0
 11 24  1  0  0  0  0
 11 17  1  0  0  0  0
 12 15  1  0  0  0  0
 12 14  2  0  0  0  0
 13  7  1  1  0  0  0
 13  6  1  0  0  0  0
 15 21  1  6  0  0  0
 15  1  1  0  0  0  0
 16  4  1  0  0  0  0
 17 16  1  1  0  0  0
 18  2  1  0  0  0  0
 19  2  1  6  0  0  0
 19 11  1  0  0  0  0
 20 21  1  0  0  0  0
 20 22  2  0  0  0  0
 23 20  1  0  0  0  0
 25 32  2  0  0  0  0
 26 30  1  1  0  0  0
 26 29  1  0  0  0  0
 27 24  1  6  0  0  0
 27 31  1  0  0  0  0
 29 28  1  0  0  0  0
 31 28  1  0  0  0  0
 32 26  1  0  0  0  0
 32 27  1  0  0  0  0
M  END
>  <MODEL>
1

>  <REMARK>
 VINA RESULT:      -8.2      0.000      0.000
  Name = 
  3 active torsions:
  status: ('A' for Active; 'I' for Inactive)
    1  A    between atoms: N_10  and  C_24
    2  A    between atoms: C_11  and  C_27
    3  A    between atoms: N_16  and  C_27
                            x       y       z     vdW  Elec       q    Type
                         _______ _______ _______ _____ _____    ______ ____

>  <TORSDO>
F 3

$$$$
=
 OpenBabel10272413243D

 32 36  0  0  1  0  0  0  0  0999 V2000
  190.9630  174.7470  136.7420 C   0  0  0  0  0  2  0  0  0  0  0  0
  187.5440  177.7680  139.7760 C   0  0  0  0  0  2  0  0  0  0  0  0
  191.7130  176.4990  143.7140 O   0  0  0  0  0  0  0  0  0  0  0  0
  191.5340  177.7860  144.2890 C   0  0  0  0  0  2  0  0  0  0  0  0
  188.7110  176.6790  137.8350 C   0  0  2  0  0  3  0  0  0  0  0  0
  190.6940  177.6040  139.2640 C   0  0  0  0  0  2  0  0  0  0  0  0
  190.8860  175.4150  138.1080 C   0  0  0  0  0  2  0  0  0  0  0  0
  191.7210  176.5890  142.2890 C   0  0  0  0  0  2  0  0  0  0  0  0
  189.9230  177.2190  140.5180 C   0  0  1  0  0  3  0  0  0  0  0  0
  190.6750  177.5760  141.7560 C   0  0  1  0  0  3  0  0  0  0  0  0
  188.4600  178.3650  142.1080 N   0  0  0  0  0  0  0  0  0  0  0  0
  188.7760  175.3750  135.6970 C   0  0  0  0  0  3  0  0  0  0  0  0
  190.2440  176.7980  138.0380 C   0  0  1  0  0  3  0  0  0  0  0  0
  188.3890  176.4540  136.3870 C   0  0  0  0  0  3  0  0  0  0  0  0
  189.5870  174.2610  136.2930 C   0  0  1  0  0  3  0  0  0  0  0  0
  190.1140  178.3360  144.0180 C   0  0  0  0  0  2  0  0  0  0  0  0
  189.5690  177.6770  142.7570 C   0  0  2  0  0  3  0  0  0  0  0  0
  187.9200  177.8970  138.3050 C   0  0  0  0  0  2  0  0  0  0  0  0
  188.7300  178.1550  140.6640 C   0  0  2  0  0  3  0  0  0  0  0  0
  188.8960  171.9890  135.3300 C   0  0  0  0  0  0  0  0  0  0  0  0
  189.7200  173.1600  135.3420 N   0  0  0  0  0  2  0  0  0  0  0  0
  187.9850  171.8350  136.1850 O   0  0  0  0  0  0  0  0  0  0  0  0
  189.1150  170.9860  134.3460 N   0  0  0  0  0  1  0  0  0  0  0  0
  187.2420  177.6780  142.5390 C   0  0  0  0  0  2  0  0  0  0  0  0
  184.8620  179.1300  142.4050 O   0  0  0  0  0  0  0  0  0  0  0  0
  184.4520  179.3760  144.7130 C   0  0  2  0  0  3  0  0  0  0  0  0
  186.6560  178.3530  143.7760 C   0  0  2  0  0  3  0  0  0  0  0  0
  185.8440  177.8330  146.1670 C   0  0  0  0  0  2  0  0  0  0  0  0
  185.2390  179.2340  146.0170 C   0  0  0  0  0  2  0  0  0  0  0  0
  183.2860  178.6130  144.7740 O   0  0  0  0  0  1  0  0  0  0  0  0
  186.5980  177.3390  144.9200 C   0  0  0  0  0  2  0  0  0  0  0  0
  185.2850  178.9480  143.5370 C   0  0  0  0  0  0  0  0  0  0  0  0
  1  7  1  0  0  0  0
  3  4  1  0  0  0  0
  5 14  1  6  0  0  0
  5 13  1  0  0  0  0
  5 18  1  0  0  0  0
  8  3  1  0  0  0  0
  9  6  1  6  0  0  0
  9 19  1  0  0  0  0
  9 10  1  0  0  0  0
 10  8  1  1  0  0  0
 10 17  1  0  0  0  0
 11 24  1  0  0  0  0
 11 17  1  0  0  0  0
 12 15  1  0  0  0  0
 12 14  2  0  0  0  0
 13  7  1  1  0  0  0
 13  6  1  0  0  0  0
 15 21  1  6  0  0  0
 15  1  1  0  0  0  0
 16  4  1  0  0  0  0
 17 16  1  1  0  0  0
 18  2  1  0  0  0  0
 19  2  1  6  0  0  0
 19 11  1  0  0  0  0
 20 21  1  0  0  0  0
 20 22  2  0  0  0  0
 23 20  1  0  0  0  0
 25 32  2  0  0  0  0
 26 30  1  1  0  0  0
 26 29  1  0  0  0  0
 27 24  1  6  0  0  0
 27 31  1  0  0  0  0
 29 28  1  0  0  0  0
 31 28  1  0  0  0  0
 32 27  1  0  0  0  0
 32 26  1  0  0  0  0
M  END
>  <MODEL>
2

>  <REMARK>
 VINA RESULT:      -8.1      1.134      1.314
  Name = 
  3 active torsions:
  status: ('A' for Active; 'I' for Inactive)
    1  A    between atoms: N_10  and  C_24
    2  A    between atoms: C_11  and  C_27
    3  A    between atoms: N_16  and  C_27
                            x       y       z     vdW  Elec       q    Type
                         _______ _______ _______ _____ _____    ______ ____

>  <TORSDO>
F 3

$$$$
=
 OpenBabel10272413243D

 32 36  0  0  1  0  0  0  0  0999 V2000
  183.9340  177.1400  136.7460 C   0  0  0  0  0  2  0  0  0  0  0  0
  186.5350  178.4030  141.4010 C   0  0  0  0  0  2  0  0  0  0  0  0
  190.8100  175.6800  138.4310 O   0  0  0  0  0  0  0  0  0  0  0  0
  191.7510  176.5780  139.0030 C   0  0  0  0  0  2  0  0  0  0  0  0
  184.8560  178.3170  139.5320 C   0  0  2  0  0  3  0  0  0  0  0  0
  187.1250  178.5900  138.2650 C   0  0  0  0  0  2  0  0  0  0  0  0
  185.3340  177.1370  137.3450 C   0  0  0  0  0  2  0  0  0  0  0  0
  189.6400  176.3870  138.0160 C   0  0  0  0  0  2  0  0  0  0  0  0
  187.7680  177.6670  139.2900 C   0  0  1  0  0  3  0  0  0  0  0  0
  189.2220  177.4710  139.0180 C   0  0  1  0  0  3  0  0  0  0  0  0
  189.0690  177.9480  141.3430 N   0  0  0  0  0  0  0  0  0  0  0  0
  182.5420  178.0860  138.6000 C   0  0  0  0  0  3  0  0  0  0  0  0
  185.6070  178.3870  138.1770 C   0  0  1  0  0  3  0  0  0  0  0  0
  183.4260  178.7390  139.3630 C   0  0  0  0  0  3  0  0  0  0  0  0
  182.8830  176.8520  137.8140 C   0  0  1  0  0  3  0  0  0  0  0  0
  191.2500  177.1420  140.3540 C   0  0  0  0  0  2  0  0  0  0  0  0
  189.7280  177.0840  140.3710 C   0  0  2  0  0  3  0  0  0  0  0  0
  185.4690  179.1770  140.6350 C   0  0  0  0  0  2  0  0  0  0  0  0
  187.8540  178.4020  140.6230 C   0  0  2  0  0  3  0  0  0  0  0  0
  181.4440  174.8860  137.0210 C   0  0  0  0  0  0  0  0  0  0  0  0
  181.6810  176.2860  137.2070 N   0  0  0  0  0  2  0  0  0  0  0  0
  182.3030  174.0350  137.3730 O   0  0  0  0  0  0  0  0  0  0  0  0
  180.2280  174.4520  136.4250 N   0  0  0  0  0  1  0  0  0  0  0  0
  188.7380  177.0990  142.4880 C   0  0  0  0  0  2  0  0  0  0  0  0
  187.7330  177.8600  144.9780 O   0  0  0  0  0  0  0  0  0  0  0  0
  189.7030  177.6310  146.2530 C   0  0  2  0  0  3  0  0  0  0  0  0
  189.6690  177.3940  143.6600 C   0  0  2  0  0  3  0  0  0  0  0  0
  191.5290  176.3160  145.0830 C   0  0  0  0  0  2  0  0  0  0  0  0
  191.2060  177.5080  145.9910 C   0  0  0  0  0  2  0  0  0  0  0  0
  189.2730  176.5820  147.0670 O   0  0  0  0  0  1  0  0  0  0  0  0
  190.6610  176.2390  143.8150 C   0  0  0  0  0  2  0  0  0  0  0  0
  188.9330  177.6280  144.9620 C   0  0  0  0  0  0  0  0  0  0  0  0
  1  7  1  0  0  0  0
  1 15  1  0  0  0  0
  3  4  1  0  0  0  0
  4 16  1  0  0  0  0
  5 14  1  6  0  0  0
  5 18  1  0  0  0  0
  8  3  1  0  0  0  0
  9  6  1  6  0  0  0
  9 19  1  0  0  0  0
 10  8  1  6  0  0  0
 10  9  1  0  0  0  0
 10 17  1  0  0  0  0
 11 24  1  0  0  0  0
 12 14  2  0  0  0  0
 13  7  1  1  0  0  0
 13  6  1  0  0  0  0
 13  5  1  0  0  0  0
 15 21  1  6  0  0  0
 15 12  1  0  0  0  0
 17 16  1  6  0  0  0
 17 11  1  0  0  0  0
 18  2  1  0  0  0  0
 19 11  1  0  0  0  0
 19  2  1  1  0  0  0
 20 21  1  0  0  0  0
 20 22  2  0  0  0  0
 23 20  1  0  0  0  0
 26 30  1  1  0  0  0
 27 24  1  6  0  0  0
 27 31  1  0  0  0  0
 27 32  1  0  0  0  0
 28 29  1  0  0  0  0
 29 26  1  0  0  0  0
 31 28  1  0  0  0  0
 32 25  2  0  0  0  0
 32 26  1  0  0  0  0
M  END
>  <MODEL>
3

>  <REMARK>
 VINA RESULT:      -7.9      4.056      5.864
  Name = 
  3 active torsions:
  status: ('A' for Active; 'I' for Inactive)
    1  A    between atoms: N_10  and  C_24
    2  A    between atoms: C_11  and  C_27
    3  A    between atoms: N_16  and  C_27
                            x       y       z     vdW  Elec       q    Type
                         _______ _______ _______ _____ _____    ______ ____

>  <TORSDO>
F 3

$$$$
=
 OpenBabel10272413243D

 32 36  0  0  1  0  0  0  0  0999 V2000
  180.3400  181.0400  139.6800 C   0  0  0  0  0  2  0  0  0  0  0  0
  185.1070  178.3450  139.8720 C   0  0  0  0  0  2  0  0  0  0  0  0
  184.2690  179.5480  145.5600 O   0  0  0  0  0  0  0  0  0  0  0  0
  184.8590  178.2980  145.8900 C   0  0  0  0  0  2  0  0  0  0  0  0
  182.9050  179.2840  139.1040 C   0  0  2  0  0  3  0  0  0  0  0  0
  182.3350  178.3120  141.4610 C   0  0  0  0  0  2  0  0  0  0  0  0
  181.3060  180.4360  140.6900 C   0  0  0  0  0  2  0  0  0  0  0  0
  183.3720  179.3970  144.4590 C   0  0  0  0  0  2  0  0  0  0  0  0
  183.6930  178.7930  141.9490 C   0  0  1  0  0  3  0  0  0  0  0  0
  183.9160  178.4470  143.3840 C   0  0  1  0  0  3  0  0  0  0  0  0
  185.9070  177.7980  142.2580 N   0  0  0  0  0  0  0  0  0  0  0  0
  181.4180  180.4900  137.4880 C   0  0  0  0  0  3  0  0  0  0  0  0
  181.8550  179.0890  140.2280 C   0  0  1  0  0  3  0  0  0  0  0  0
  182.2280  179.4650  137.7770 C   0  0  0  0  0  3  0  0  0  0  0  0
  181.0880  181.5820  138.4650 C   0  0  1  0  0  3  0  0  0  0  0  0
  185.8270  177.8170  144.7830 C   0  0  0  0  0  2  0  0  0  0  0  0
  185.4090  178.4510  143.4630 C   0  0  2  0  0  3  0  0  0  0  0  0
  183.8990  178.1330  138.9670 C   0  0  0  0  0  2  0  0  0  0  0  0
  184.7750  177.9310  141.3080 C   0  0  2  0  0  3  0  0  0  0  0  0
  180.8500  183.8670  137.3300 C   0  0  0  0  0  0  0  0  0  0  0  0
  180.3090  182.6320  137.8130 N   0  0  0  0  0  2  0  0  0  0  0  0
  182.0750  184.1290  137.4610 O   0  0  0  0  0  0  0  0  0  0  0  0
  179.9920  184.8110  136.7010 N   0  0  0  0  0  1  0  0  0  0  0  0
  187.0730  178.5700  141.8260 C   0  0  0  0  0  2  0  0  0  0  0  0
  188.4820  177.3530  139.7470 O   0  0  0  0  0  0  0  0  0  0  0  0
  190.4730  176.8440  140.9030 C   0  0  2  0  0  3  0  0  0  0  0  0
  188.3580  177.7910  142.0900 C   0  0  2  0  0  3  0  0  0  0  0  0
  190.7090  178.0630  143.1150 C   0  0  0  0  0  2  0  0  0  0  0  0
  190.9370  176.7480  142.3580 C   0  0  0  0  0  2  0  0  0  0  0  0
  191.3220  177.6880  140.1860 O   0  0  0  0  0  1  0  0  0  0  0  0
  189.2970  178.6500  142.9410 C   0  0  0  0  0  2  0  0  0  0  0  0
  189.0600  177.3500  140.8240 C   0  0  0  0  0  0  0  0  0  0  0  0
  1  7  1  0  0  0  0
  3  4  1  0  0  0  0
  5 14  1  6  0  0  0
  5 13  1  0  0  0  0
  8  3  1  0  0  0  0
  9  6  1  6  0  0  0
  9 10  1  0  0  0  0
 10 17  1  0  0  0  0
 10  8  1  1  0  0  0
 11 17  1  0  0  0  0
 12 14  2  0  0  0  0
 12 15  1  0  0  0  0
 13  7  1  1  0  0  0
 13  6  1  0  0  0  0
 15 21  1  6  0  0  0
 15  1  1  0  0  0  0
 16  4  1  0  0  0  0
 17 16  1  1  0  0  0
 18  5  1  0  0  0  0
 18  2  1  0  0  0  0
 19  2  1  6  0  0  0
 19  9  1  0  0  0  0
 19 11  1  0  0  0  0
 20 22  2  0  0  0  0
 20 21  1  0  0  0  0
 23 20  1  0  0  0  0
 24 11  1  0  0  0  0
 25 32  2  0  0  0  0
 26 30  1  6  0  0  0
 26 29  1  0  0  0  0
 27 24  1  6  0  0  0
 27 31  1  0  0  0  0
 29 28  1  0  0  0  0
 31 28  1  0  0  0  0
 32 26  1  0  0  0  0
 32 27  1  0  0  0  0
M  END
>  <MODEL>
4

>  <REMARK>
 VINA RESULT:      -7.4      5.068      8.470
  Name = 
  3 active torsions:
  status: ('A' for Active; 'I' for Inactive)
    1  A    between atoms: N_10  and  C_24
    2  A    between atoms: C_11  and  C_27
    3  A    between atoms: N_16  and  C_27
                            x       y       z     vdW  Elec       q    Type
                         _______ _______ _______ _____ _____    ______ ____

>  <TORSDO>
F 3

$$$$
=
 OpenBabel10272413243D

 32 36  0  0  1  0  0  0  0  0999 V2000
  183.0300  177.8300  138.6780 C   0  0  0  0  0  2  0  0  0  0  0  0
  184.8530  178.0400  143.8410 C   0  0  0  0  0  2  0  0  0  0  0  0
  189.8380  176.9330  140.9360 O   0  0  0  0  0  0  0  0  0  0  0  0
  190.5370  177.7490  141.8660 C   0  0  0  0  0  2  0  0  0  0  0  0
  183.4250  178.2640  141.7850 C   0  0  2  0  0  3  0  0  0  0  0  0
  185.7310  179.2120  141.0010 C   0  0  0  0  0  2  0  0  0  0  0  0
  184.3360  177.8520  139.4610 C   0  0  0  0  0  2  0  0  0  0  0  0
  188.6110  177.5560  140.5540 C   0  0  0  0  0  2  0  0  0  0  0  0
  186.4150  178.1320  141.8250 C   0  0  1  0  0  3  0  0  0  0  0  0
  187.9010  178.2310  141.7350 C   0  0  1  0  0  3  0  0  0  0  0  0
  187.4200  177.9840  144.0500 N   0  0  0  0  0  0  0  0  0  0  0  0
  181.3030  177.9900  140.4830 C   0  0  0  0  0  3  0  0  0  0  0  0
  184.2910  178.8320  140.6300 C   0  0  1  0  0  3  0  0  0  0  0  0
  181.9690  178.5100  141.5200 C   0  0  0  0  0  3  0  0  0  0  0  0
  181.9400  177.0990  139.4550 C   0  0  1  0  0  3  0  0  0  0  0  0
  189.8020  177.8180  143.2260 C   0  0  0  0  0  2  0  0  0  0  0  0
  188.3220  177.5430  142.9940 C   0  0  2  0  0  3  0  0  0  0  0  0
  183.7540  178.8440  143.1590 C   0  0  0  0  0  2  0  0  0  0  0  0
  186.2260  178.4520  143.3030 C   0  0  2  0  0  3  0  0  0  0  0  0
  181.1210  175.4410  137.6820 C   0  0  0  0  0  0  0  0  0  0  0  0
  180.9300  176.5690  138.5420 N   0  0  0  0  0  2  0  0  0  0  0  0
  182.2220  174.8300  137.6550 O   0  0  0  0  0  0  0  0  0  0  0  0
  180.0580  175.0100  136.8410 N   0  0  0  0  0  1  0  0  0  0  0  0
  187.1260  176.8010  144.8600 C   0  0  0  0  0  2  0  0  0  0  0  0
  189.5130  176.5690  146.2880 O   0  0  0  0  0  0  0  0  0  0  0  0
  188.8760  177.7050  148.2530 C   0  0  2  0  0  3  0  0  0  0  0  0
  187.1950  177.1390  146.3460 C   0  0  2  0  0  3  0  0  0  0  0  0
  186.7490  179.0650  148.0020 C   0  0  0  0  0  2  0  0  0  0  0  0
  187.5760  178.1560  148.9210 C   0  0  0  0  0  2  0  0  0  0  0  0
  189.7500  178.7870  148.1300 O   0  0  0  0  0  1  0  0  0  0  0  0
  186.5670  178.5160  146.5760 C   0  0  0  0  0  2  0  0  0  0  0  0
  188.6030  177.1100  146.9000 C   0  0  0  0  0  0  0  0  0  0  0  0
  1 15  1  0  0  0  0
  1  7  1  0  0  0  0
  3  4  1  0  0  0  0
  4 16  1  0  0  0  0
  5 14  1  6  0  0  0
  5 18  1  0  0  0  0
  8  3  1  0  0  0  0
  9  6  1  6  0  0  0
  9 19  1  0  0  0  0
 10  8  1  6  0  0  0
 10  9  1  0  0  0  0
 10 17  1  0  0  0  0
 11 24  1  0  0  0  0
 12 14  2  0  0  0  0
 13  7  1  6  0  0  0
 13  6  1  0  0  0  0
 13  5  1  0  0  0  0
 15 21  1  6  0  0  0
 15 12  1  0  0  0  0
 17 16  1  1  0  0  0
 17 11  1  0  0  0  0
 18  2  1  0  0  0  0
 19  2  1  1  0  0  0
 19 11  1  0  0  0  0
 20 21  1  0  0  0  0
 22 20  2  0  0  0  0
 23 20  1  0  0  0  0
 25 32  2  0  0  0  0
 26 30  1  6  0  0  0
 26 29  1  0  0  0  0
 27 24  1  6  0  0  0
 27 31  1  0  0  0  0
 27 32  1  0  0  0  0
 28 29  1  0  0  0  0
 31 28  1  0  0  0  0
 32 26  1  0  0  0  0
M  END
>  <MODEL>
5

>  <REMARK>
 VINA RESULT:      -7.3      4.085      6.127
  Name = 
  3 active torsions:
  status: ('A' for Active; 'I' for Inactive)
    1  A    between atoms: N_10  and  C_24
    2  A    between atoms: C_11  and  C_27
    3  A    between atoms: N_16  and  C_27
                            x       y       z     vdW  Elec       q    Type
                         _______ _______ _______ _____ _____    ______ ____

>  <TORSDO>
F 3

$$$$
=
 OpenBabel10272413243D

 32 36  0  0  1  0  0  0  0  0999 V2000
  186.1030  175.5050  134.4210 C   0  0  0  0  0  2  0  0  0  0  0  0
  187.8010  177.6510  139.1680 C   0  0  0  0  0  2  0  0  0  0  0  0
  192.7470  175.1330  137.2430 O   0  0  0  0  0  0  0  0  0  0  0  0
  193.4890  176.2050  137.8080 C   0  0  0  0  0  2  0  0  0  0  0  0
  186.4520  177.1250  137.1130 C   0  0  2  0  0  3  0  0  0  0  0  0
  188.8500  177.5180  136.1520 C   0  0  0  0  0  2  0  0  0  0  0  0
  187.3840  175.7510  135.2040 C   0  0  0  0  0  2  0  0  0  0  0  0
  191.5890  175.6310  136.5720 C   0  0  0  0  0  2  0  0  0  0  0  0
  189.4170  176.8170  137.3770 C   0  0  1  0  0  3  0  0  0  0  0  0
  190.9080  176.7710  137.3420 C   0  0  1  0  0  3  0  0  0  0  0  0
  190.3470  177.5110  139.5310 N   0  0  0  0  0  0  0  0  0  0  0  0
  184.3480  176.4940  135.9080 C   0  0  0  0  0  3  0  0  0  0  0  0
  187.3930  177.1190  135.8810 C   0  0  1  0  0  3  0  0  0  0  0  0
  185.0300  177.3420  136.6870 C   0  0  0  0  0  3  0  0  0  0  0  0
  184.9340  175.2240  135.3600 C   0  0  1  0  0  3  0  0  0  0  0  0
  192.7280  176.8660  138.9820 C   0  0  0  0  0  2  0  0  0  0  0  0
  191.2360  176.6210  138.7930 C   0  0  2  0  0  3  0  0  0  0  0  0
  186.7930  178.1850  138.1580 C   0  0  0  0  0  2  0  0  0  0  0  0
  189.2180  177.7170  138.5900 C   0  0  2  0  0  3  0  0  0  0  0  0
  183.2200  173.3220  135.2490 C   0  0  0  0  0  0  0  0  0  0  0  0
  183.9070  174.4410  134.6770 N   0  0  0  0  0  2  0  0  0  0  0  0
  183.4880  172.9290  136.4150 O   0  0  0  0  0  0  0  0  0  0  0  0
  182.2290  172.6430  134.4890 N   0  0  0  0  0  1  0  0  0  0  0  0
  189.9320  176.7770  140.7270 C   0  0  0  0  0  2  0  0  0  0  0  0
  187.9380  176.9360  142.6730 O   0  0  0  0  0  0  0  0  0  0  0  0
  189.1710  178.0050  144.3740 C   0  0  2  0  0  3  0  0  0  0  0  0
  190.1090  177.6390  141.9720 C   0  0  2  0  0  3  0  0  0  0  0  0
  191.6780  177.9730  143.9910 C   0  0  0  0  0  2  0  0  0  0  0  0
  190.4800  178.7880  144.4920 C   0  0  0  0  0  2  0  0  0  0  0  0
  189.1560  176.9580  145.2970 O   0  0  0  0  0  1  0  0  0  0  0  0
  191.4600  177.3170  142.6160 C   0  0  0  0  0  2  0  0  0  0  0  0
  188.9950  177.4650  142.9820 C   0  0  0  0  0  0  0  0  0  0  0  0
  1  7  1  0  0  0  0
  1 15  1  0  0  0  0
  3  4  1  0  0  0  0
  4 16  1  0  0  0  0
  5 14  1  6  0  0  0
  5 18  1  0  0  0  0
  8  3  1  0  0  0  0
  9  6  1  6  0  0  0
  9 19  1  0  0  0  0
 10  8  1  6  0  0  0
 10  9  1  0  0  0  0
 10 17  1  0  0  0  0
 11 24  1  0  0  0  0
 12 14  2  0  0  0  0
 13  7  1  1  0  0  0
 13  6  1  0  0  0  0
 13  5  1  0  0  0  0
 15 21  1  6  0  0  0
 15 12  1  0  0  0  0
 17 16  1  6  0  0  0
 17 11  1  0  0  0  0
 18  2  1  0  0  0  0
 19  2  1  1  0  0  0
 19 11  1  0  0  0  0
 20 22  2  0  0  0  0
 21 20  1  0  0  0  0
 23 20  1  0  0  0  0
 25 32  2  0  0  0  0
 26 29  1  0  0  0  0
 26 30  1  1  0  0  0
 27 24  1  6  0  0  0
 27 31  1  0  0  0  0
 27 32  1  0  0  0  0
 28 29  1  0  0  0  0
 31 28  1  0  0  0  0
 32 26  1  0  0  0  0
M  END
>  <MODEL>
6

>  <REMARK>
 VINA RESULT:      -7.2      3.365      5.502
  Name = 
  3 active torsions:
  status: ('A' for Active; 'I' for Inactive)
    1  A    between atoms: N_10  and  C_24
    2  A    between atoms: C_11  and  C_27
    3  A    between atoms: N_16  and  C_27
                            x       y       z     vdW  Elec       q    Type
                         _______ _______ _______ _____ _____    ______ ____

>  <TORSDO>
F 3

$$$$
=
 OpenBabel10272413243D

 32 36  0  0  1  0  0  0  0  0999 V2000
  186.4380  178.3980  143.1420 C   0  0  0  0  0  2  0  0  0  0  0  0
  190.8520  176.6370  140.4150 C   0  0  0  0  0  2  0  0  0  0  0  0
  186.8330  176.6820  136.1320 O   0  0  0  0  0  0  0  0  0  0  0  0
  187.8420  177.0840  135.2170 C   0  0  0  0  0  2  0  0  0  0  0  0
  189.3440  177.6280  142.1660 C   0  0  2  0  0  3  0  0  0  0  0  0
  188.5320  178.7900  139.9710 C   0  0  0  0  0  2  0  0  0  0  0  0
  186.9030  178.1170  141.7200 C   0  0  0  0  0  2  0  0  0  0  0  0
  186.9540  177.4100  137.3550 C   0  0  0  0  0  2  0  0  0  0  0  0
  188.7490  177.4750  139.2370 C   0  0  1  0  0  3  0  0  0  0  0  0
  188.4150  177.5930  137.7870 C   0  0  1  0  0  3  0  0  0  0  0  0
  190.5220  176.4950  137.8650 N   0  0  0  0  0  0  0  0  0  0  0  0
  188.4740  177.8740  144.5020 C   0  0  0  0  0  3  0  0  0  0  0  0
  188.3350  178.5840  141.4790 C   0  0  1  0  0  3  0  0  0  0  0  0
  189.4780  177.9630  143.6220 C   0  0  0  0  0  3  0  0  0  0  0  0
  187.0870  177.4330  144.1300 C   0  0  1  0  0  3  0  0  0  0  0  0
  189.2470  176.6400  135.6890 C   0  0  0  0  0  2  0  0  0  0  0  0
  189.2230  176.4800  137.2030 C   0  0  2  0  0  3  0  0  0  0  0  0
  190.7430  177.6450  141.5530 C   0  0  0  0  0  2  0  0  0  0  0  0
  190.2470  177.2160  139.1330 C   0  0  2  0  0  3  0  0  0  0  0  0
  185.5440  178.3630  145.9520 C   0  0  0  0  0  0  0  0  0  0  0  0
  186.2590  177.2920  145.3250 N   0  0  0  0  0  2  0  0  0  0  0  0
  185.6080  179.5340  145.4960 O   0  0  0  0  0  0  0  0  0  0  0  0
  184.7600  178.1000  147.1100 N   0  0  0  0  0  1  0  0  0  0  0  0
  190.8790  175.0950  138.1010 C   0  0  0  0  0  2  0  0  0  0  0  0
  191.3720  173.0580  136.2580 O   0  0  0  0  0  0  0  0  0  0  0  0
  193.5880  173.6160  135.6800 C   0  0  2  0  0  3  0  0  0  0  0  0
  192.2900  174.8100  137.5950 C   0  0  2  0  0  3  0  0  0  0  0  0
  194.2770  175.9460  136.4080 C   0  0  0  0  0  2  0  0  0  0  0  0
  194.7140  174.4850  136.2440 C   0  0  0  0  0  2  0  0  0  0  0  0
  193.3500  173.9510  134.3460 O   0  0  0  0  0  1  0  0  0  0  0  0
  192.9270  176.1200  137.1260 C   0  0  0  0  0  2  0  0  0  0  0  0
  192.3290  173.7840  136.4840 C   0  0  0  0  0  0  0  0  0  0  0  0
  1 15  1  0  0  0  0
  2 18  1  0  0  0  0
  3  8  1  0  0  0  0
  4 16  1  0  0  0  0
  4  3  1  0  0  0  0
  5 18  1  6  0  0  0
  5 14  1  0  0  0  0
  7  1  1  0  0  0  0
  9  6  1  1  0  0  0
 10  8  1  1  0  0  0
 10  9  1  0  0  0  0
 11 24  1  0  0  0  0
 11 19  1  0  0  0  0
 13  6  1  6  0  0  0
 13  7  1  0  0  0  0
 13  5  1  0  0  0  0
 14 12  2  0  0  0  0
 15 12  1  0  0  0  0
 15 21  1  1  0  0  0
 17 16  1  6  0  0  0
 17 10  1  0  0  0  0
 17 11  1  0  0  0  0
 19  9  1  0  0  0  0
 19  2  1  1  0  0  0
 20 23  1  0  0  0  0
 21 20  1  0  0  0  0
 22 20  2  0  0  0  0
 25 32  2  0  0  0  0
 26 30  1  6  0  0  0
 26 29  1  0  0  0  0
 26 32  1  0  0  0  0
 27 24  1  6  0  0  0
 28 31  1  0  0  0  0
 29 28  1  0  0  0  0
 31 27  1  0  0  0  0
 32 27  1  0  0  0  0
M  END
>  <MODEL>
7

>  <REMARK>
 VINA RESULT:      -7.2      2.444      9.322
  Name = 
  3 active torsions:
  status: ('A' for Active; 'I' for Inactive)
    1  A    between atoms: N_10  and  C_24
    2  A    between atoms: C_11  and  C_27
    3  A    between atoms: N_16  and  C_27
                            x       y       z     vdW  Elec       q    Type
                         _______ _______ _______ _____ _____    ______ ____

>  <TORSDO>
F 3

$$$$
=
 OpenBabel10272413243D

 32 36  0  0  1  0  0  0  0  0999 V2000
  187.5510  178.0400  143.5160 C   0  0  0  0  0  2  0  0  0  0  0  0
  191.6380  176.8660  140.0600 C   0  0  0  0  0  2  0  0  0  0  0  0
  186.9640  175.4940  136.7770 O   0  0  0  0  0  0  0  0  0  0  0  0
  187.6570  175.9650  135.6300 C   0  0  0  0  0  2  0  0  0  0  0  0
  190.3110  177.7560  142.0010 C   0  0  2  0  0  3  0  0  0  0  0  0
  188.8440  178.4130  139.9410 C   0  0  0  0  0  2  0  0  0  0  0  0
  187.7830  177.6680  142.0590 C   0  0  0  0  0  2  0  0  0  0  0  0
  187.1490  176.3920  137.8720 C   0  0  0  0  0  2  0  0  0  0  0  0
  189.2110  177.0830  139.3000 C   0  0  1  0  0  3  0  0  0  0  0  0
  188.5840  176.9290  137.9550 C   0  0  1  0  0  3  0  0  0  0  0  0
  190.8610  176.3090  137.6690 N   0  0  0  0  0  0  0  0  0  0  0  0
  189.8760  178.1380  144.4390 C   0  0  0  0  0  3  0  0  0  0  0  0
  188.9960  178.3810  141.4670 C   0  0  1  0  0  3  0  0  0  0  0  0
  190.6440  178.3090  143.3560 C   0  0  0  0  0  3  0  0  0  0  0  0
  188.5830  177.3740  144.4220 C   0  0  1  0  0  3  0  0  0  0  0  0
  189.1910  175.8880  135.8210 C   0  0  0  0  0  2  0  0  0  0  0  0
  189.4980  175.9360  137.3120 C   0  0  2  0  0  3  0  0  0  0  0  0
  191.5220  177.9770  141.0980 C   0  0  0  0  0  2  0  0  0  0  0  0
  190.6790  177.1250  138.8950 C   0  0  2  0  0  3  0  0  0  0  0  0
  188.8580  177.0120  146.9430 C   0  0  0  0  0  0  0  0  0  0  0  0
  188.0570  177.2320  145.7770 N   0  0  0  0  0  2  0  0  0  0  0  0
  190.1100  176.9120  146.8550 O   0  0  0  0  0  0  0  0  0  0  0  0
  188.2320  176.8990  148.2150 N   0  0  0  0  0  1  0  0  0  0  0  0
  191.5690  175.0590  137.9480 C   0  0  0  0  0  2  0  0  0  0  0  0
  194.2320  175.7880  138.3530 O   0  0  0  0  0  0  0  0  0  0  0  0
  195.2080  174.6290  136.5480 C   0  0  2  0  0  3  0  0  0  0  0  0
  192.6320  174.7970  136.8850 C   0  0  2  0  0  3  0  0  0  0  0  0
  193.6850  172.8870  135.5100 C   0  0  0  0  0  2  0  0  0  0  0  0
  194.7400  173.9680  135.2500 C   0  0  0  0  0  2  0  0  0  0  0  0
  195.9640  173.7270  137.2970 O   0  0  0  0  0  1  0  0  0  0  0  0
  192.5400  173.3370  136.4350 C   0  0  0  0  0  2  0  0  0  0  0  0
  194.0350  175.1110  137.3550 C   0  0  0  0  0  0  0  0  0  0  0  0
  1 15  1  0  0  0  0
  2 18  1  0  0  0  0
  3  8  1  0  0  0  0
  4 16  1  0  0  0  0
  4  3  1  0  0  0  0
  5 18  1  6  0  0  0
  5 14  1  0  0  0  0
  7  1  1  0  0  0  0
  9  6  1  6  0  0  0
 10  8  1  1  0  0  0
 10  9  1  0  0  0  0
 11 24  1  0  0  0  0
 11 19  1  0  0  0  0
 13  6  1  6  0  0  0
 13  5  1  0  0  0  0
 13  7  1  0  0  0  0
 14 12  2  0  0  0  0
 15 12  1  0  0  0  0
 15 21  1  1  0  0  0
 17 16  1  6  0  0  0
 17 11  1  0  0  0  0
 17 10  1  0  0  0  0
 19  9  1  0  0  0  0
 19  2  1  1  0  0  0
 20 23  1  0  0  0  0
 21 20  1  0  0  0  0
 22 20  2  0  0  0  0
 26 30  1  1  0  0  0
 26 32  1  0  0  0  0
 27 32  1  0  0  0  0
 27 24  1  1  0  0  0
 28 31  1  0  0  0  0
 29 28  1  0  0  0  0
 29 26  1  0  0  0  0
 31 27  1  0  0  0  0
 32 25  2  0  0  0  0
M  END
>  <MODEL>
8

>  <REMARK>
 VINA RESULT:      -6.9      2.842      9.417
  Name = 
  3 active torsions:
  status: ('A' for Active; 'I' for Inactive)
    1  A    between atoms: N_10  and  C_24
    2  A    between atoms: C_11  and  C_27
    3  A    between atoms: N_16  and  C_27
                            x       y       z     vdW  Elec       q    Type
                         _______ _______ _______ _____ _____    ______ ____

>  <TORSDO>
F 3

$$$$
=
 OpenBabel10272413243D

 32 36  0  0  1  0  0  0  0  0999 V2000
  188.6020  178.7660  142.0340 C   0  0  0  0  0  2  0  0  0  0  0  0
  190.0220  175.5240  137.8510 C   0  0  0  0  0  2  0  0  0  0  0  0
  184.5740  177.0600  136.2800 O   0  0  0  0  0  0  0  0  0  0  0  0
  184.9900  177.0690  134.9220 C   0  0  0  0  0  2  0  0  0  0  0  0
  190.1020  176.9890  139.8930 C   0  0  2  0  0  3  0  0  0  0  0  0
  188.6370  178.3790  138.2340 C   0  0  0  0  0  2  0  0  0  0  0  0
  188.1060  178.3410  140.6590 C   0  0  0  0  0  2  0  0  0  0  0  0
  185.5580  177.6860  137.1040 C   0  0  0  0  0  2  0  0  0  0  0  0
  188.0010  177.0800  137.7630 C   0  0  1  0  0  3  0  0  0  0  0  0
  186.9900  177.3200  136.6920 C   0  0  1  0  0  3  0  0  0  0  0  0
  188.3360  175.5250  135.9040 N   0  0  0  0  0  0  0  0  0  0  0  0
  190.7660  177.5260  142.2470 C   0  0  0  0  0  3  0  0  0  0  0  0
  189.2380  178.2520  139.6400 C   0  0  1  0  0  3  0  0  0  0  0  0
  191.1010  177.2440  140.9830 C   0  0  0  0  0  3  0  0  0  0  0  0
  189.3450  177.6250  142.7230 C   0  0  1  0  0  3  0  0  0  0  0  0
  186.2050  176.1380  134.6930 C   0  0  0  0  0  2  0  0  0  0  0  0
  186.9580  175.9900  136.0090 C   0  0  2  0  0  3  0  0  0  0  0  0
  190.8670  176.4960  138.6660 C   0  0  0  0  0  2  0  0  0  0  0  0
  189.0330  176.2900  136.9680 C   0  0  2  0  0  3  0  0  0  0  0  0
  188.2010  177.4110  145.0060 C   0  0  0  0  0  0  0  0  0  0  0  0
  189.3030  177.7910  144.1740 N   0  0  0  0  0  2  0  0  0  0  0  0
  187.1610  176.9070  144.5070 O   0  0  0  0  0  0  0  0  0  0  0  0
  188.2800  177.6130  146.4110 N   0  0  0  0  0  1  0  0  0  0  0  0
  188.3080  174.0910  136.1940 C   0  0  0  0  0  2  0  0  0  0  0  0
  187.7960  172.0610  134.3490 O   0  0  0  0  0  0  0  0  0  0  0  0
  185.6110  171.4920  135.0280 C   0  0  2  0  0  3  0  0  0  0  0  0
  186.9010  173.5340  136.0010 C   0  0  2  0  0  3  0  0  0  0  0  0
  184.9760  172.4170  137.3030 C   0  0  0  0  0  2  0  0  0  0  0  0
  184.4990  172.1110  135.8780 C   0  0  0  0  0  2  0  0  0  0  0  0
  185.8890  170.1990  135.4740 O   0  0  0  0  0  1  0  0  0  0  0  0
  186.3140  173.1740  137.3680 C   0  0  0  0  0  2  0  0  0  0  0  0
  186.8560  172.3330  135.0820 C   0  0  0  0  0  0  0  0  0  0  0  0
  1 15  1  0  0  0  0
  2 18  1  0  0  0  0
  3  8  1  0  0  0  0
  4  3  1  0  0  0  0
  5 18  1  6  0  0  0
  5 14  1  0  0  0  0
  7  1  1  0  0  0  0
  9  6  1  6  0  0  0
 10  8  1  1  0  0  0
 10  9  1  0  0  0  0
 11 17  1  0  0  0  0
 11 24  1  0  0  0  0
 11 19  1  0  0  0  0
 12 15  1  0  0  0  0
 13  6  1  6  0  0  0
 13  5  1  0  0  0  0
 13  7  1  0  0  0  0
 14 12  2  0  0  0  0
 15 21  1  1  0  0  0
 16  4  1  0  0  0  0
 17 16  1  6  0  0  0
 17 10  1  0  0  0  0
 19  9  1  0  0  0  0
 19  2  1  1  0  0  0
 20 23  1  0  0  0  0
 21 20  1  0  0  0  0
 22 20  2  0  0  0  0
 25 32  2  0  0  0  0
 26 32  1  0  0  0  0
 26 30  1  1  0  0  0
 26 29  1  0  0  0  0
 27 24  1  1  0  0  0
 27 31  1  0  0  0  0
 28 31  1  0  0  0  0
 29 28  1  0  0  0  0
 32 27  1  0  0  0  0
M  END
>  <MODEL>
9

>  <REMARK>
 VINA RESULT:      -6.8      2.883      8.700
  Name = 
  3 active torsions:
  status: ('A' for Active; 'I' for Inactive)
    1  A    between atoms: N_10  and  C_24
    2  A    between atoms: C_11  and  C_27
    3  A    between atoms: N_16  and  C_27
                            x       y       z     vdW  Elec       q    Type
                         _______ _______ _______ _____ _____    ______ ____

>  <TORSDO>
F 3

$$$$
