=
 OpenBabel10272414483D

 37 41  0  0  1  0  0  0  0  0999 V2000
  181.3830  177.9100  136.3540 C   0  0  0  0  0  0  0  0  0  0  0  0
  184.8830  176.8730  137.1150 C   0  0  0  0  0  0  0  0  0  0  0  0
  183.2960  177.1730  134.7380 C   0  0  0  0  0  2  0  0  0  0  0  0
  185.6140  177.7780  137.7860 C   0  0  0  0  0  3  0  0  0  0  0  0
  183.3650  176.8470  137.3140 C   0  0  1  0  0  3  0  0  0  0  0  0
  187.0500  177.7770  137.7940 N   0  0  0  0  0  0  0  0  0  0  0  0
  183.8250  175.8520  134.3460 C   0  0  0  0  0  3  0  0  0  0  0  0
  182.8950  177.8490  138.2830 N   0  0  1  0  0  0  0  0  0  0  0  0
  180.0850  177.1090  136.4670 C   0  0  0  0  0  1  0  0  0  0  0  0
  186.4270  174.8890  136.8840 C   0  0  0  0  0  2  0  0  0  0  0  0
  184.8150  175.2710  135.0320 C   0  0  0  0  0  3  0  0  0  0  0  0
  181.7180  178.5100  137.7020 C   0  0  0  0  0  2  0  0  0  0  0  0
  185.5840  175.9170  136.1630 C   0  0  1  0  0  3  0  0  0  0  0  0
  182.5240  176.9560  136.0430 C   0  0  1  0  0  3  0  0  0  0  0  0
  187.7360  176.5490  138.2480 C   0  0  1  0  0  3  0  0  0  0  0  0
  181.1920  179.0330  135.3240 C   0  0  0  0  0  1  0  0  0  0  0  0
  187.7950  175.4720  137.1580 C   0  0  0  0  0  2  0  0  0  0  0  0
  190.2660  176.4140  138.1550 C   0  0  0  0  0  3  0  0  0  0  0  0
  189.0900  176.7830  138.8460 C   0  0  0  0  0  0  0  0  0  0  0  0
  189.1780  177.2780  140.1440 C   0  0  0  0  0  3  0  0  0  0  0  0
  190.5030  177.9060  142.0200 F   0  0  0  0  0  0  0  0  0  0  0  0
  191.5900  177.0610  140.0760 C   0  0  0  0  0  3  0  0  0  0  0  0
  190.4260  177.4210  140.7630 C   0  0  0  0  0  0  0  0  0  0  0  0
  191.5130  176.5590  138.7700 C   0  0  0  0  0  3  0  0  0  0  0  0
  181.1980  177.4470  140.1690 C   0  0  0  0  0  2  0  0  0  0  0  0
  181.1560  178.7990  140.8950 C   0  0  1  0  0  3  0  0  0  0  0  0
  182.3200  178.9540  141.8730 C   0  0  0  0  0  2  0  0  0  0  0  0
  183.6960  177.2980  140.5780 C   0  0  0  0  0  2  0  0  0  0  0  0
  183.6680  178.7090  141.1920 C   0  0  2  0  0  3  0  0  0  0  0  0
  182.5760  177.1290  139.5370 C   0  0  2  0  0  3  0  0  0  0  0  0
  184.7980  178.9180  142.2050 C   0  0  2  0  0  3  0  0  0  0  0  0
  186.1590  178.7040  141.5700 C   0  0  0  0  0  1  0  0  0  0  0  0
  184.6540  178.0910  143.3050 F   0  0  0  0  0  0  0  0  0  0  0  0
  181.1190  179.8900  139.9590 N   0  0  0  0  0  0  0  0  0  0  0  0
  180.3100  180.7600  140.0740 O   0  0  0  0  0  0  0  0  0  0  0  0
  187.7260  179.0730  137.7320 C   0  0  0  0  0  2  0  0  0  0  0  0
  188.6050  179.1450  136.4910 C   0  0  0  0  0  1  0  0  0  0  0  0
  1  9  1  0  0  0  0
  1 12  1  0  0  0  0
  2  4  2  0  0  0  0
  4  6  1  0  0  0  0
  5  2  1  6  0  0  0
  5  8  1  0  0  0  0
  6 15  1  0  0  0  0
  7  3  1  0  0  0  0
  7 11  2  0  0  0  0
  8 12  1  6  0  0  0
  8 30  1  0  0  0  0
 10 17  1  0  0  0  0
 13 11  1  1  0  0  0
 13 10  1  0  0  0  0
 13  2  1  0  0  0  0
 14  3  1  6  0  0  0
 14  1  1  0  0  0  0
 14  5  1  0  0  0  0
 15 19  1  6  0  0  0
 16  1  1  0  0  0  0
 17 15  1  0  0  0  0
 18 24  2  0  0  0  0
 18 19  1  0  0  0  0
 19 20  2  0  0  0  0
 20 23  1  0  0  0  0
 22 23  2  0  0  0  0
 23 21  1  0  0  0  0
 24 22  1  0  0  0  0
 25 26  1  0  0  0  0
 26 34  1  6  0  0  0
 26 27  1  0  0  0  0
 28 29  1  0  0  0  0
 29 27  1  0  0  0  0
 29 31  1  1  0  0  0
 30 25  1  1  0  0  0
 30 28  1  0  0  0  0
 31 32  1  6  0  0  0
 31 33  1  0  0  0  0
 34 35  2  0  0  0  0
 36  6  1  0  0  0  0
 37 36  1  0  0  0  0
M  END
>  <MODEL>
1

>  <REMARK>
 VINA RESULT:      -5.9      0.000      0.000
  Name = 
  5 active torsions:
  status: ('A' for Active; 'I' for Inactive)
    1  A    between atoms: C_5  and  N_12
    2  A    between atoms: C_6  and  C_31
    3  A    between atoms: C_7  and  N_14
    4  A    between atoms: C_11  and  C_33
    5  A    between atoms: N_20  and  C_36
                            x       y       z     vdW  Elec       q    Type
                         _______ _______ _______ _____ _____    ______ ____

>  <TORSDO>
F 5

$$$$
=
 OpenBabel10272414483D

 37 41  0  0  1  0  0  0  0  0999 V2000
  191.8680  175.6940  137.7880 C   0  0  0  0  0  0  0  0  0  0  0  0
  188.4120  176.7210  136.8350 C   0  0  0  0  0  0  0  0  0  0  0  0
  190.5700  175.3200  135.5540 C   0  0  0  0  0  2  0  0  0  0  0  0
  187.4370  176.2610  137.6370 C   0  0  0  0  0  3  0  0  0  0  0  0
  189.8080  176.9580  137.4200 C   0  0  1  0  0  3  0  0  0  0  0  0
  186.0650  176.1620  137.2260 N   0  0  0  0  0  0  0  0  0  0  0  0
  190.3030  176.1890  134.3910 C   0  0  0  0  0  3  0  0  0  0  0  0
  189.8850  176.6610  138.8590 N   0  0  1  0  0  0  0  0  0  0  0  0
  193.1520  176.5240  137.8320 C   0  0  0  0  0  1  0  0  0  0  0  0
  187.1950  178.1620  135.1570 C   0  0  0  0  0  2  0  0  0  0  0  0
  189.2200  176.9720  134.3460 C   0  0  0  0  0  3  0  0  0  0  0  0
  191.1090  175.8790  139.0840 C   0  0  0  0  0  2  0  0  0  0  0  0
  188.1040  176.9720  135.3680 C   0  0  1  0  0  3  0  0  0  0  0  0
  190.9580  176.2520  136.7050 C   0  0  1  0  0  3  0  0  0  0  0  0
  185.4000  177.3910  136.7430 C   0  0  1  0  0  3  0  0  0  0  0  0
  192.2330  174.2120  137.6130 C   0  0  0  0  0  1  0  0  0  0  0  0
  185.7560  177.7170  135.2870 C   0  0  0  0  0  2  0  0  0  0  0  0
  183.0240  177.2830  135.8640 C   0  0  0  0  0  3  0  0  0  0  0  0
  183.9170  177.4130  136.9510 C   0  0  0  0  0  0  0  0  0  0  0  0
  183.4190  177.6700  138.2260 C   0  0  0  0  0  3  0  0  0  0  0  0
  181.5640  178.0310  139.6750 F   0  0  0  0  0  0  0  0  0  0  0  0
  181.1560  177.6520  137.3580 C   0  0  0  0  0  3  0  0  0  0  0  0
  182.0390  177.7880  138.4350 C   0  0  0  0  0  0  0  0  0  0  0  0
  181.6470  177.3970  136.0710 C   0  0  0  0  0  3  0  0  0  0  0  0
  190.8100  178.0260  140.8290 C   0  0  0  0  0  2  0  0  0  0  0  0
  190.2100  177.3220  142.0540 C   0  0  1  0  0  3  0  0  0  0  0  0
  188.7730  177.7700  142.3190 C   0  0  0  0  0  2  0  0  0  0  0  0
  188.4800  178.4290  139.9120 C   0  0  0  0  0  2  0  0  0  0  0  0
  187.8930  177.6140  141.0770 C   0  0  2  0  0  3  0  0  0  0  0  0
  189.9050  177.9580  139.5730 C   0  0  2  0  0  3  0  0  0  0  0  0
  186.4590  178.0370  141.4100 C   0  0  2  0  0  3  0  0  0  0  0  0
  185.8330  178.8200  140.2720 C   0  0  0  0  0  1  0  0  0  0  0  0
  186.4050  178.7760  142.5790 F   0  0  0  0  0  0  0  0  0  0  0  0
  190.2890  175.8930  141.9200 N   0  0  0  0  0  0  0  0  0  0  0  0
  190.2600  175.1910  142.8870 O   0  0  0  0  0  0  0  0  0  0  0  0
  185.3130  174.9870  137.6640 C   0  0  0  0  0  2  0  0  0  0  0  0
  185.9860  173.7180  137.1620 C   0  0  0  0  0  1  0  0  0  0  0  0
  1  9  1  0  0  0  0
  1 12  1  0  0  0  0
  2  4  2  0  0  0  0
  5  2  1  6  0  0  0
  5  8  1  0  0  0  0
  6  4  1  0  0  0  0
  6 36  1  0  0  0  0
  7  3  1  0  0  0  0
  8 12  1  6  0  0  0
  8 30  1  0  0  0  0
 10 17  1  0  0  0  0
 10 13  1  0  0  0  0
 11  7  2  0  0  0  0
 13 11  1  6  0  0  0
 13  2  1  0  0  0  0
 14  3  1  1  0  0  0
 14  5  1  0  0  0  0
 14  1  1  0  0  0  0
 15 19  1  6  0  0  0
 15  6  1  0  0  0  0
 16  1  1  0  0  0  0
 17 15  1  0  0  0  0
 18 24  2  0  0  0  0
 18 19  1  0  0  0  0
 19 20  2  0  0  0  0
 20 23  1  0  0  0  0
 22 23  2  0  0  0  0
 23 21  1  0  0  0  0
 24 22  1  0  0  0  0
 25 26  1  0  0  0  0
 26 34  1  6  0  0  0
 26 27  1  0  0  0  0
 28 29  1  0  0  0  0
 29 31  1  1  0  0  0
 29 27  1  0  0  0  0
 30 28  1  1  0  0  0
 30 25  1  0  0  0  0
 31 32  1  6  0  0  0
 31 33  1  0  0  0  0
 34 35  2  0  0  0  0
 37 36  1  0  0  0  0
M  END
>  <MODEL>
2

>  <REMARK>
 VINA RESULT:      -5.8      2.916      7.406
  Name = 
  5 active torsions:
  status: ('A' for Active; 'I' for Inactive)
    1  A    between atoms: C_5  and  N_12
    2  A    between atoms: C_6  and  C_31
    3  A    between atoms: C_7  and  N_14
    4  A    between atoms: C_11  and  C_33
    5  A    between atoms: N_20  and  C_36
                            x       y       z     vdW  Elec       q    Type
                         _______ _______ _______ _____ _____    ______ ____

>  <TORSDO>
F 5

$$$$
=
 OpenBabel10272414483D

 37 41  0  0  1  0  0  0  0  0999 V2000
  187.7950  177.1690  135.2880 C   0  0  0  0  0  0  0  0  0  0  0  0
  186.4730  177.8380  138.7100 C   0  0  0  0  0  0  0  0  0  0  0  0
  188.6120  178.8690  137.0920 C   0  0  0  0  0  2  0  0  0  0  0  0
  185.1790  178.1960  138.7630 C   0  0  0  0  0  3  0  0  0  0  0  0
  186.9490  176.9330  137.5700 C   0  0  1  0  0  3  0  0  0  0  0  0
  184.6050  178.9020  139.8740 N   0  0  0  0  0  0  0  0  0  0  0  0
  189.4510  178.7260  138.2990 C   0  0  0  0  0  3  0  0  0  0  0  0
  185.8630  176.5370  136.6590 N   0  0  1  0  0  0  0  0  0  0  0  0
  188.6970  176.0350  134.7990 C   0  0  0  0  0  1  0  0  0  0  0  0
  187.1820  177.7440  141.1320 C   0  0  0  0  0  2  0  0  0  0  0  0
  188.9110  178.4380  139.4880 C   0  0  0  0  0  3  0  0  0  0  0  0
  186.3570  176.7010  135.2840 C   0  0  0  0  0  2  0  0  0  0  0  0
  187.4270  178.3600  139.7720 C   0  0  1  0  0  3  0  0  0  0  0  0
  188.1200  177.4620  136.7440 C   0  0  1  0  0  3  0  0  0  0  0  0
  184.7270  178.2910  141.2150 C   0  0  1  0  0  3  0  0  0  0  0  0
  187.9460  178.3740  134.3460 C   0  0  0  0  0  1  0  0  0  0  0  0
  186.1050  178.5300  141.8450 C   0  0  0  0  0  2  0  0  0  0  0  0
  183.9180  179.0960  143.4800 C   0  0  0  0  0  3  0  0  0  0  0  0
  183.6300  178.6640  142.1650 C   0  0  0  0  0  0  0  0  0  0  0  0
  182.3070  178.4820  141.7720 C   0  0  0  0  0  3  0  0  0  0  0  0
  179.9820  178.5610  142.2790 F   0  0  0  0  0  0  0  0  0  0  0  0
  181.5480  179.1680  143.9690 C   0  0  0  0  0  3  0  0  0  0  0  0
  181.2620  178.7350  142.6700 C   0  0  0  0  0  0  0  0  0  0  0  0
  182.8770  179.3520  144.3760 C   0  0  0  0  0  3  0  0  0  0  0  0
  185.1750  174.2320  135.7580 C   0  0  0  0  0  2  0  0  0  0  0  0
  183.7700  174.4840  135.1920 C   0  0  1  0  0  3  0  0  0  0  0  0
  182.7040  174.4590  136.2870 C   0  0  0  0  0  2  0  0  0  0  0  0
  184.4100  175.0510  138.0340 C   0  0  0  0  0  2  0  0  0  0  0  0
  183.0440  175.4180  137.4300 C   0  0  2  0  0  3  0  0  0  0  0  0
  185.5200  175.1310  136.9720 C   0  0  2  0  0  3  0  0  0  0  0  0
  181.9250  175.3830  138.4760 C   0  0  2  0  0  3  0  0  0  0  0  0
  180.6840  176.1040  137.9860 C   0  0  0  0  0  1  0  0  0  0  0  0
  182.3400  175.9210  139.6810 F   0  0  0  0  0  0  0  0  0  0  0  0
  183.7220  175.7160  134.4530 N   0  0  0  0  0  0  0  0  0  0  0  0
  182.8540  176.5100  134.6550 O   0  0  0  0  0  0  0  0  0  0  0  0
  183.6260  179.9460  139.5770 C   0  0  0  0  0  2  0  0  0  0  0  0
  182.5230  179.3910  138.6870 C   0  0  0  0  0  1  0  0  0  0  0  0
  1 14  1  0  0  0  0
  2  4  2  0  0  0  0
  2 13  1  0  0  0  0
  3  7  1  0  0  0  0
  4  6  1  0  0  0  0
  5  2  1  1  0  0  0
  6 15  1  0  0  0  0
  7 11  2  0  0  0  0
  8 12  1  6  0  0  0
  8 30  1  0  0  0  0
  8  5  1  0  0  0  0
  9  1  1  0  0  0  0
 10 17  1  0  0  0  0
 12  1  1  0  0  0  0
 13 11  1  6  0  0  0
 13 10  1  0  0  0  0
 14  3  1  6  0  0  0
 14  5  1  0  0  0  0
 15 17  1  0  0  0  0
 15 19  1  1  0  0  0
 16  1  1  0  0  0  0
 18 24  1  0  0  0  0
 19 18  2  0  0  0  0
 20 19  1  0  0  0  0
 20 23  2  0  0  0  0
 21 23  1  0  0  0  0
 22 24  2  0  0  0  0
 23 22  1  0  0  0  0
 26 34  1  1  0  0  0
 26 25  1  0  0  0  0
 26 27  1  0  0  0  0
 27 29  1  0  0  0  0
 29 28  1  0  0  0  0
 29 31  1  1  0  0  0
 30 25  1  6  0  0  0
 30 28  1  0  0  0  0
 31 32  1  6  0  0  0
 31 33  1  0  0  0  0
 34 35  2  0  0  0  0
 36  6  1  0  0  0  0
 37 36  1  0  0  0  0
M  END
>  <MODEL>
3

>  <REMARK>
 VINA RESULT:      -5.0      2.779      6.608
  Name = 
  5 active torsions:
  status: ('A' for Active; 'I' for Inactive)
    1  A    between atoms: C_5  and  N_12
    2  A    between atoms: C_6  and  C_31
    3  A    between atoms: C_7  and  N_14
    4  A    between atoms: C_11  and  C_33
    5  A    between atoms: N_20  and  C_36
                            x       y       z     vdW  Elec       q    Type
                         _______ _______ _______ _____ _____    ______ ____

>  <TORSDO>
F 5

$$$$
=
 OpenBabel10272414483D

 37 41  0  0  1  0  0  0  0  0999 V2000
  187.1680  175.3760  135.4200 C   0  0  0  0  0  0  0  0  0  0  0  0
  184.4610  177.1750  137.2470 C   0  0  0  0  0  0  0  0  0  0  0  0
  184.5880  175.3560  135.0260 C   0  0  0  0  0  2  0  0  0  0  0  0
  184.3990  176.9270  138.5660 C   0  0  0  0  0  3  0  0  0  0  0  0
  185.8140  177.0790  136.5350 C   0  0  1  0  0  3  0  0  0  0  0  0
  183.2170  177.1490  139.3520 N   0  0  0  0  0  0  0  0  0  0  0  0
  183.6700  176.2910  134.3460 C   0  0  0  0  0  3  0  0  0  0  0  0
  186.9190  176.7370  137.4440 N   0  0  1  0  0  0  0  0  0  0  0  0
  188.1310  175.8950  134.3520 C   0  0  0  0  0  1  0  0  0  0  0  0
  182.6510  178.8930  136.8620 C   0  0  0  0  0  2  0  0  0  0  0  0
  183.0910  177.2980  135.0080 C   0  0  0  0  0  3  0  0  0  0  0  0
  187.7240  175.6950  136.7910 C   0  0  0  0  0  2  0  0  0  0  0  0
  183.1840  177.5240  136.5010 C   0  0  1  0  0  3  0  0  0  0  0  0
  185.8640  176.1490  135.3230 C   0  0  1  0  0  3  0  0  0  0  0  0
  182.6330  178.5070  139.3480 C   0  0  1  0  0  3  0  0  0  0  0  0
  187.0200  173.8540  135.2670 C   0  0  0  0  0  1  0  0  0  0  0  0
  181.7880  178.7790  138.0980 C   0  0  0  0  0  2  0  0  0  0  0  0
  180.6780  179.6000  140.5360 C   0  0  0  0  0  3  0  0  0  0  0  0
  181.8780  178.8570  140.5940 C   0  0  0  0  0  0  0  0  0  0  0  0
  182.4270  178.5290  141.8300 C   0  0  0  0  0  3  0  0  0  0  0  0
  182.3270  178.5960  144.2090 F   0  0  0  0  0  0  0  0  0  0  0  0
  180.5990  179.6530  142.9550 C   0  0  0  0  0  3  0  0  0  0  0  0
  181.7910  178.9230  143.0140 C   0  0  0  0  0  0  0  0  0  0  0  0
  180.0390  179.9910  141.7150 C   0  0  0  0  0  3  0  0  0  0  0  0
  189.1520  177.9760  137.1720 C   0  0  0  0  0  2  0  0  0  0  0  0
  190.1090  177.1730  138.0630 C   0  0  1  0  0  3  0  0  0  0  0  0
  189.9810  177.5680  139.5340 C   0  0  0  0  0  2  0  0  0  0  0  0
  187.6370  178.3930  139.1620 C   0  0  0  0  0  2  0  0  0  0  0  0
  188.5340  177.4820  140.0200 C   0  0  2  0  0  3  0  0  0  0  0  0
  187.6890  177.9800  137.6820 C   0  0  2  0  0  3  0  0  0  0  0  0
  188.4700  177.8490  141.5060 C   0  0  2  0  0  3  0  0  0  0  0  0
  189.0470  176.7480  142.3740 C   0  0  0  0  0  1  0  0  0  0  0  0
  187.1760  178.1360  141.9040 F   0  0  0  0  0  0  0  0  0  0  0  0
  189.9130  175.7590  137.8900 N   0  0  0  0  0  0  0  0  0  0  0  0
  190.7950  174.9910  138.1360 O   0  0  0  0  0  0  0  0  0  0  0  0
  182.8980  176.1620  140.3830 C   0  0  0  0  0  2  0  0  0  0  0  0
  181.6120  175.4310  140.0260 C   0  0  0  0  0  1  0  0  0  0  0  0
  1 12  1  0  0  0  0
  2  4  2  0  0  0  0
  4  6  1  0  0  0  0
  5  2  1  1  0  0  0
  5  8  1  0  0  0  0
  6 36  1  0  0  0  0
  7 11  2  0  0  0  0
  7  3  1  0  0  0  0
  8 12  1  6  0  0  0
  8 30  1  0  0  0  0
  9  1  1  0  0  0  0
 10 17  1  0  0  0  0
 13 11  1  6  0  0  0
 13 10  1  0  0  0  0
 13  2  1  0  0  0  0
 14  3  1  1  0  0  0
 14  1  1  0  0  0  0
 14  5  1  0  0  0  0
 15  6  1  0  0  0  0
 15 19  1  1  0  0  0
 16  1  1  0  0  0  0
 17 15  1  0  0  0  0
 18 19  2  0  0  0  0
 18 24  1  0  0  0  0
 19 20  1  0  0  0  0
 20 23  2  0  0  0  0
 22 23  1  0  0  0  0
 23 21  1  0  0  0  0
 24 22  2  0  0  0  0
 25 26  1  0  0  0  0
 26 34  1  1  0  0  0
 26 27  1  0  0  0  0
 27 29  1  0  0  0  0
 28 29  1  0  0  0  0
 29 31  1  1  0  0  0
 30 25  1  1  0  0  0
 30 28  1  0  0  0  0
 31 33  1  0  0  0  0
 31 32  1  1  0  0  0
 34 35  2  0  0  0  0
 37 36  1  0  0  0  0
M  END
>  <MODEL>
4

>  <REMARK>
 VINA RESULT:      -4.4      2.554      6.906
  Name = 
  5 active torsions:
  status: ('A' for Active; 'I' for Inactive)
    1  A    between atoms: C_5  and  N_12
    2  A    between atoms: C_6  and  C_31
    3  A    between atoms: C_7  and  N_14
    4  A    between atoms: C_11  and  C_33
    5  A    between atoms: N_20  and  C_36
                            x       y       z     vdW  Elec       q    Type
                         _______ _______ _______ _____ _____    ______ ____

>  <TORSDO>
F 5

$$$$
=
 OpenBabel10272414483D

 37 41  0  0  1  0  0  0  0  0999 V2000
  182.3210  177.7210  139.5780 C   0  0  0  0  0  0  0  0  0  0  0  0
  184.4660  178.3540  142.5630 C   0  0  0  0  0  0  0  0  0  0  0  0
  181.7020  177.7090  142.1140 C   0  0  0  0  0  2  0  0  0  0  0  0
  185.5350  177.5480  142.6800 C   0  0  0  0  0  3  0  0  0  0  0  0
  183.9210  178.6690  141.1660 C   0  0  1  0  0  3  0  0  0  0  0  0
  186.2160  177.3250  143.9240 N   0  0  0  0  0  0  0  0  0  0  0  0
  181.4040  178.7850  143.0800 C   0  0  0  0  0  3  0  0  0  0  0  0
  184.6990  178.0350  140.0900 N   0  0  1  0  0  0  0  0  0  0  0  0
  181.6850  178.7180  138.6100 C   0  0  0  0  0  1  0  0  0  0  0  0
  184.6820  179.9440  144.5120 C   0  0  0  0  0  2  0  0  0  0  0  0
  182.3750  179.3590  143.7980 C   0  0  0  0  0  3  0  0  0  0  0  0
  183.7430  177.4410  139.1440 C   0  0  0  0  0  2  0  0  0  0  0  0
  183.8200  178.9110  143.8200 C   0  0  1  0  0  3  0  0  0  0  0  0
  182.4390  178.3720  140.9470 C   0  0  1  0  0  3  0  0  0  0  0  0
  186.7420  178.5050  144.6430 C   0  0  1  0  0  3  0  0  0  0  0  0
  181.5120  176.4160  139.5600 C   0  0  0  0  0  1  0  0  0  0  0  0
  185.6550  179.2430  145.4340 C   0  0  0  0  0  2  0  0  0  0  0  0
  189.2160  178.0380  144.9420 C   0  0  0  0  0  3  0  0  0  0  0  0
  187.9340  178.2210  145.5060 C   0  0  0  0  0  0  0  0  0  0  0  0
  187.7470  178.0360  146.8730 C   0  0  0  0  0  3  0  0  0  0  0  0
  188.6390  177.5070  149.0170 F   0  0  0  0  0  0  0  0  0  0  0  0
  190.0970  177.5040  147.1330 C   0  0  0  0  0  3  0  0  0  0  0  0
  188.8270  177.6790  147.6920 C   0  0  0  0  0  0  0  0  0  0  0  0
  190.2950  177.6860  145.7570 C   0  0  0  0  0  3  0  0  0  0  0  0
  185.7020  178.9990  137.9300 C   0  0  0  0  0  2  0  0  0  0  0  0
  186.6990  177.9160  137.4950 C   0  0  1  0  0  3  0  0  0  0  0  0
  188.0230  178.0270  138.2500 C   0  0  0  0  0  2  0  0  0  0  0  0
  186.8950  179.2110  140.1580 C   0  0  0  0  0  2  0  0  0  0  0  0
  187.8120  178.0390  139.7650 C   0  0  2  0  0  3  0  0  0  0  0  0
  185.5260  179.0940  139.4670 C   0  0  2  0  0  3  0  0  0  0  0  0
  189.1700  178.1100  140.4700 C   0  0  2  0  0  3  0  0  0  0  0  0
  189.9930  176.8610  140.2180 C   0  0  0  0  0  1  0  0  0  0  0  0
  189.0260  178.3150  141.8310 F   0  0  0  0  0  0  0  0  0  0  0  0
  186.1330  176.6020  137.6370 N   0  0  0  0  0  0  0  0  0  0  0  0
  186.7630  175.6350  137.3340 O   0  0  0  0  0  0  0  0  0  0  0  0
  186.6810  175.9670  144.2040 C   0  0  0  0  0  2  0  0  0  0  0  0
  187.8960  175.6430  143.3470 C   0  0  0  0  0  1  0  0  0  0  0  0
  1 14  1  0  0  0  0
  2  4  2  0  0  0  0
  2 13  1  0  0  0  0
  3  7  1  0  0  0  0
  4  6  1  0  0  0  0
  5  2  1  1  0  0  0
  6 36  1  0  0  0  0
  6 15  1  0  0  0  0
  7 11  2  0  0  0  0
  8 12  1  6  0  0  0
  8  5  1  0  0  0  0
  9  1  1  0  0  0  0
 10 17  1  0  0  0  0
 12  1  1  0  0  0  0
 13 11  1  6  0  0  0
 13 10  1  0  0  0  0
 14  5  1  0  0  0  0
 14  3  1  1  0  0  0
 15 17  1  0  0  0  0
 15 19  1  1  0  0  0
 16  1  1  0  0  0  0
 18 19  2  0  0  0  0
 18 24  1  0  0  0  0
 19 20  1  0  0  0  0
 20 23  2  0  0  0  0
 22 23  1  0  0  0  0
 23 21  1  0  0  0  0
 24 22  2  0  0  0  0
 26 34  1  1  0  0  0
 26 25  1  0  0  0  0
 26 27  1  0  0  0  0
 27 29  1  0  0  0  0
 29 28  1  0  0  0  0
 29 31  1  1  0  0  0
 30 25  1  6  0  0  0
 30  8  1  0  0  0  0
 30 28  1  0  0  0  0
 31 32  1  1  0  0  0
 31 33  1  0  0  0  0
 35 34  2  0  0  0  0
 37 36  1  0  0  0  0
M  END
>  <MODEL>
5

>  <REMARK>
 VINA RESULT:      -4.3      3.479      6.464
  Name = 
  5 active torsions:
  status: ('A' for Active; 'I' for Inactive)
    1  A    between atoms: C_5  and  N_12
    2  A    between atoms: C_6  and  C_31
    3  A    between atoms: C_7  and  N_14
    4  A    between atoms: C_11  and  C_33
    5  A    between atoms: N_20  and  C_36
                            x       y       z     vdW  Elec       q    Type
                         _______ _______ _______ _____ _____    ______ ____

>  <TORSDO>
F 5

$$$$
=
 OpenBabel10272414483D

 37 41  0  0  1  0  0  0  0  0999 V2000
  186.5520  177.2230  137.3780 C   0  0  0  0  0  0  0  0  0  0  0  0
  186.5550  178.1020  141.0020 C   0  0  0  0  0  0  0  0  0  0  0  0
  184.5500  177.5230  139.0270 C   0  0  0  0  0  2  0  0  0  0  0  0
  187.2580  177.2720  141.7910 C   0  0  0  0  0  3  0  0  0  0  0  0
  186.9810  178.2790  139.5410 C   0  0  1  0  0  3  0  0  0  0  0  0
  187.0400  177.1630  143.2060 N   0  0  0  0  0  0  0  0  0  0  0  0
  183.8480  178.7130  139.5450 C   0  0  0  0  0  3  0  0  0  0  0  0
  188.1780  177.4960  139.1930 N   0  0  1  0  0  0  0  0  0  0  0  0
  186.7190  178.1300  136.1580 C   0  0  0  0  0  1  0  0  0  0  0  0
  185.7300  179.8930  142.5790 C   0  0  0  0  0  2  0  0  0  0  0  0
  184.2530  179.3240  140.6630 C   0  0  0  0  0  3  0  0  0  0  0  0
  187.9170  176.8380  137.9050 C   0  0  0  0  0  2  0  0  0  0  0  0
  185.3490  178.8240  141.5790 C   0  0  1  0  0  3  0  0  0  0  0  0
  185.8980  178.0190  138.4960 C   0  0  1  0  0  3  0  0  0  0  0  0
  187.1510  178.3950  144.0160 C   0  0  1  0  0  3  0  0  0  0  0  0
  185.7860  175.9580  136.9640 C   0  0  0  0  0  1  0  0  0  0  0  0
  185.8880  179.2610  143.9440 C   0  0  0  0  0  2  0  0  0  0  0  0
  186.6710  178.4120  146.5060 C   0  0  0  0  0  3  0  0  0  0  0  0
  187.5620  178.1630  145.4390 C   0  0  0  0  0  0  0  0  0  0  0  0
  188.8770  177.7940  145.7090 C   0  0  0  0  0  3  0  0  0  0  0  0
  190.5910  177.2950  147.2860 F   0  0  0  0  0  0  0  0  0  0  0  0
  188.4310  177.9000  148.0880 C   0  0  0  0  0  3  0  0  0  0  0  0
  189.3160  177.6590  147.0320 C   0  0  0  0  0  0  0  0  0  0  0  0
  187.1050  178.2750  147.8270 C   0  0  0  0  0  3  0  0  0  0  0  0
  190.4830  178.0310  138.1930 C   0  0  0  0  0  2  0  0  0  0  0  0
  191.3840  176.9410  138.7890 C   0  0  1  0  0  3  0  0  0  0  0  0
  191.8330  177.2890  140.2080 C   0  0  0  0  0  2  0  0  0  0  0  0
  189.8410  178.7860  140.5280 C   0  0  0  0  0  2  0  0  0  0  0  0
  190.6450  177.6130  141.1150 C   0  0  2  0  0  3  0  0  0  0  0  0
  189.3150  178.4430  139.1240 C   0  0  2  0  0  3  0  0  0  0  0  0
  191.1490  177.9130  142.5300 C   0  0  2  0  0  3  0  0  0  0  0  0
  191.4890  176.6400  143.2810 C   0  0  0  0  0  1  0  0  0  0  0  0
  190.2300  178.6560  143.2510 F   0  0  0  0  0  0  0  0  0  0  0  0
  190.7370  175.6570  138.7540 N   0  0  0  0  0  0  0  0  0  0  0  0
  191.1850  174.7710  138.0900 O   0  0  0  0  0  0  0  0  0  0  0  0
  187.1090  175.8280  143.7990 C   0  0  0  0  0  2  0  0  0  0  0  0
  188.3780  175.1200  143.3470 C   0  0  0  0  0  1  0  0  0  0  0  0
  1 12  1  0  0  0  0
  1 14  1  0  0  0  0
  2 13  1  0  0  0  0
  2  4  2  0  0  0  0
  3  7  1  0  0  0  0
  4  6  1  0  0  0  0
  5  2  1  1  0  0  0
  6 36  1  0  0  0  0
  6 15  1  0  0  0  0
  7 11  2  0  0  0  0
  8 12  1  6  0  0  0
  8  5  1  0  0  0  0
  9  1  1  0  0  0  0
 10 17  1  0  0  0  0
 13 11  1  6  0  0  0
 13 10  1  0  0  0  0
 14  3  1  1  0  0  0
 14  5  1  0  0  0  0
 15 19  1  1  0  0  0
 16  1  1  0  0  0  0
 17 15  1  0  0  0  0
 18 24  1  0  0  0  0
 19 20  1  0  0  0  0
 19 18  2  0  0  0  0
 20 23  2  0  0  0  0
 23 21  1  0  0  0  0
 23 22  1  0  0  0  0
 24 22  2  0  0  0  0
 25 26  1  0  0  0  0
 26 34  1  1  0  0  0
 26 27  1  0  0  0  0
 27 29  1  0  0  0  0
 28 29  1  0  0  0  0
 29 31  1  1  0  0  0
 30 25  1  6  0  0  0
 30  8  1  0  0  0  0
 30 28  1  0  0  0  0
 31 33  1  0  0  0  0
 31 32  1  1  0  0  0
 35 34  2  0  0  0  0
 37 36  1  0  0  0  0
M  END
>  <MODEL>
6

>  <REMARK>
 VINA RESULT:      -4.1      3.738      7.210
  Name = 
  5 active torsions:
  status: ('A' for Active; 'I' for Inactive)
    1  A    between atoms: C_5  and  N_12
    2  A    between atoms: C_6  and  C_31
    3  A    between atoms: C_7  and  N_14
    4  A    between atoms: C_11  and  C_33
    5  A    between atoms: N_20  and  C_36
                            x       y       z     vdW  Elec       q    Type
                         _______ _______ _______ _____ _____    ______ ____

>  <TORSDO>
F 5

$$$$
=
 OpenBabel10272414483D

 37 41  0  0  1  0  0  0  0  0999 V2000
  190.3320  175.0740  136.3400 C   0  0  0  0  0  0  0  0  0  0  0  0
  187.0640  176.6250  137.2450 C   0  0  0  0  0  0  0  0  0  0  0  0
  189.7430  177.5720  136.8160 C   0  0  0  0  0  2  0  0  0  0  0  0
  186.0690  176.4170  136.3660 C   0  0  0  0  0  3  0  0  0  0  0  0
  188.1740  175.5780  137.3740 C   0  0  1  0  0  3  0  0  0  0  0  0
  184.9040  177.2520  136.2870 N   0  0  0  0  0  0  0  0  0  0  0  0
  189.5580  178.3380  138.0640 C   0  0  0  0  0  3  0  0  0  0  0  0
  187.9740  174.4160  136.4930 N   0  0  1  0  0  0  0  0  0  0  0  0
  191.3210  174.3080  137.2190 C   0  0  0  0  0  1  0  0  0  0  0  0
  185.9700  177.9290  139.1100 C   0  0  0  0  0  2  0  0  0  0  0  0
  188.3590  178.4300  138.6490 C   0  0  0  0  0  3  0  0  0  0  0  0
  189.2620  174.1230  135.8480 C   0  0  0  0  0  2  0  0  0  0  0  0
  187.0660  177.9030  138.0680 C   0  0  1  0  0  3  0  0  0  0  0  0
  189.6010  176.0950  137.1950 C   0  0  1  0  0  3  0  0  0  0  0  0
  184.0930  177.4210  137.5120 C   0  0  1  0  0  3  0  0  0  0  0  0
  191.0820  175.6680  135.1380 C   0  0  0  0  0  1  0  0  0  0  0  0
  184.6970  178.4470  138.4790 C   0  0  0  0  0  2  0  0  0  0  0  0
  181.6820  176.6750  137.2660 C   0  0  0  0  0  3  0  0  0  0  0  0
  182.6450  177.7090  137.2590 C   0  0  0  0  0  0  0  0  0  0  0  0
  182.2660  179.0030  136.9100 C   0  0  0  0  0  3  0  0  0  0  0  0
  180.5750  180.5420  136.2460 F   0  0  0  0  0  0  0  0  0  0  0  0
  179.9820  178.2610  136.5910 C   0  0  0  0  0  3  0  0  0  0  0  0
  180.9350  179.2850  136.5770 C   0  0  0  0  0  0  0  0  0  0  0  0
  180.3530  176.9550  136.9380 C   0  0  0  0  0  3  0  0  0  0  0  0
  188.1780  171.9280  137.0970 C   0  0  0  0  0  2  0  0  0  0  0  0
  187.6810  171.2190  135.8300 C   0  0  1  0  0  3  0  0  0  0  0  0
  186.1550  171.1590  135.7750 C   0  0  0  0  0  2  0  0  0  0  0  0
  185.9700  173.1620  137.2800 C   0  0  0  0  0  2  0  0  0  0  0  0
  185.5270  172.5440  135.9420 C   0  0  2  0  0  3  0  0  0  0  0  0
  187.5000  173.3000  137.3430 C   0  0  2  0  0  3  0  0  0  0  0  0
  184.0030  172.4310  135.8380 C   0  0  2  0  0  3  0  0  0  0  0  0
  183.3150  173.1140  137.0030 C   0  0  0  0  0  1  0  0  0  0  0  0
  183.5950  171.1110  135.7550 F   0  0  0  0  0  0  0  0  0  0  0  0
  188.2160  171.8370  134.6470 N   0  0  0  0  0  0  0  0  0  0  0  0
  189.3610  171.6780  134.3460 O   0  0  0  0  0  0  0  0  0  0  0  0
  184.3820  177.5590  134.9560 C   0  0  0  0  0  2  0  0  0  0  0  0
  183.7350  176.3220  134.3500 C   0  0  0  0  0  1  0  0  0  0  0  0
  1 14  1  0  0  0  0
  1  9  1  0  0  0  0
  2 13  1  0  0  0  0
  3  7  1  0  0  0  0
  4  2  2  0  0  0  0
  5  2  1  6  0  0  0
  6  4  1  0  0  0  0
  6 15  1  0  0  0  0
  7 11  2  0  0  0  0
  8 12  1  1  0  0  0
  8 30  1  0  0  0  0
  8  5  1  0  0  0  0
 12  1  1  0  0  0  0
 13 11  1  1  0  0  0
 13 10  1  0  0  0  0
 14  3  1  6  0  0  0
 14  5  1  0  0  0  0
 15 19  1  6  0  0  0
 15 17  1  0  0  0  0
 16  1  1  0  0  0  0
 17 10  1  0  0  0  0
 19 18  1  0  0  0  0
 20 19  2  0  0  0  0
 21 23  1  0  0  0  0
 22 24  1  0  0  0  0
 23 22  2  0  0  0  0
 23 20  1  0  0  0  0
 24 18  2  0  0  0  0
 26 34  1  6  0  0  0
 26 25  1  0  0  0  0
 27 26  1  0  0  0  0
 27 29  1  0  0  0  0
 28 30  1  0  0  0  0
 29 31  1  1  0  0  0
 29 28  1  0  0  0  0
 30 25  1  6  0  0  0
 31 32  1  1  0  0  0
 33 31  1  0  0  0  0
 35 34  2  0  0  0  0
 36  6  1  0  0  0  0
 37 36  1  0  0  0  0
M  END
>  <MODEL>
7

>  <REMARK>
 VINA RESULT:      -3.9      4.012      8.329
  Name = 
  5 active torsions:
  status: ('A' for Active; 'I' for Inactive)
    1  A    between atoms: C_5  and  N_12
    2  A    between atoms: C_6  and  C_31
    3  A    between atoms: C_7  and  N_14
    4  A    between atoms: C_11  and  C_33
    5  A    between atoms: N_20  and  C_36
                            x       y       z     vdW  Elec       q    Type
                         _______ _______ _______ _____ _____    ______ ____

>  <TORSDO>
F 5

$$$$
=
 OpenBabel10272414483D

 37 41  0  0  1  0  0  0  0  0999 V2000
  187.7630  178.4220  137.7060 C   0  0  0  0  0  0  0  0  0  0  0  0
  189.0620  177.4240  141.0560 C   0  0  0  0  0  0  0  0  0  0  0  0
  190.1900  177.8000  138.4400 C   0  0  0  0  0  2  0  0  0  0  0  0
  188.8460  178.3120  142.0410 C   0  0  0  0  0  3  0  0  0  0  0  0
  188.0780  177.3570  139.8850 C   0  0  1  0  0  3  0  0  0  0  0  0
  189.6140  178.3410  143.2540 N   0  0  0  0  0  0  0  0  0  0  0  0
  190.8710  176.5100  138.6650 C   0  0  0  0  0  3  0  0  0  0  0  0
  186.9590  178.3040  140.0200 N   0  0  1  0  0  0  0  0  0  0  0  0
  187.0090  177.5890  136.6690 C   0  0  0  0  0  1  0  0  0  0  0  0
  190.1880  175.4850  142.2170 C   0  0  0  0  0  2  0  0  0  0  0  0
  190.8570  175.9190  139.8640 C   0  0  0  0  0  3  0  0  0  0  0  0
  186.7810  178.9660  138.7200 C   0  0  0  0  0  2  0  0  0  0  0  0
  190.2880  176.5280  141.1270 C   0  0  1  0  0  3  0  0  0  0  0  0
  188.6880  177.5070  138.4920 C   0  0  1  0  0  3  0  0  0  0  0  0
  189.6620  177.1070  144.0680 C   0  0  1  0  0  3  0  0  0  0  0  0
  188.4700  179.5870  136.9980 C   0  0  0  0  0  1  0  0  0  0  0  0
  190.6650  176.0830  143.5220 C   0  0  0  0  0  2  0  0  0  0  0  0
  191.0650  176.9200  146.1720 C   0  0  0  0  0  3  0  0  0  0  0  0
  189.8780  177.3420  145.5320 C   0  0  0  0  0  0  0  0  0  0  0  0
  188.8450  177.8910  146.2860 C   0  0  0  0  0  3  0  0  0  0  0  0
  187.9780  178.5770  148.3950 F   0  0  0  0  0  0  0  0  0  0  0  0
  190.1610  177.6260  148.3030 C   0  0  0  0  0  3  0  0  0  0  0  0
  188.9820  178.0380  147.6720 C   0  0  0  0  0  0  0  0  0  0  0  0
  191.2060  177.0690  147.5540 C   0  0  0  0  0  3  0  0  0  0  0  0
  184.5010  177.7200  139.5540 C   0  0  0  0  0  2  0  0  0  0  0  0
  183.7700  179.0400  139.8370 C   0  0  1  0  0  3  0  0  0  0  0  0
  183.5180  179.2410  141.3310 C   0  0  0  0  0  2  0  0  0  0  0  0
  185.4400  177.7300  141.9100 C   0  0  0  0  0  2  0  0  0  0  0  0
  184.8070  179.1130  142.1440 C   0  0  2  0  0  3  0  0  0  0  0  0
  185.7690  177.5200  140.4220 C   0  0  2  0  0  3  0  0  0  0  0  0
  184.5050  179.3630  143.6250 C   0  0  2  0  0  3  0  0  0  0  0  0
  185.3520  178.4810  144.5210 C   0  0  0  0  0  1  0  0  0  0  0  0
  183.1640  179.1770  143.9090 F   0  0  0  0  0  0  0  0  0  0  0  0
  184.4820  180.1570  139.2780 N   0  0  0  0  0  0  0  0  0  0  0  0
  183.8880  181.0990  138.8460 O   0  0  0  0  0  0  0  0  0  0  0  0
  189.9650  179.6510  143.7990 C   0  0  0  0  0  2  0  0  0  0  0  0
  191.4650  179.7300  144.0460 C   0  0  0  0  0  1  0  0  0  0  0  0
  1 14  1  0  0  0  0
  1 12  1  0  0  0  0
  2 13  1  0  0  0  0
  2  4  2  0  0  0  0
  3  7  1  0  0  0  0
  4  6  1  0  0  0  0
  5  8  1  0  0  0  0
  5  2  1  1  0  0  0
  6 36  1  0  0  0  0
  6 15  1  0  0  0  0
  7 11  2  0  0  0  0
  8 12  1  6  0  0  0
  8 30  1  0  0  0  0
  9  1  1  0  0  0  0
 10 17  1  0  0  0  0
 13 11  1  6  0  0  0
 13 10  1  0  0  0  0
 14  3  1  1  0  0  0
 14  5  1  0  0  0  0
 15 19  1  1  0  0  0
 16  1  1  0  0  0  0
 17 15  1  0  0  0  0
 18 24  1  0  0  0  0
 19 18  2  0  0  0  0
 19 20  1  0  0  0  0
 20 23  2  0  0  0  0
 23 22  1  0  0  0  0
 23 21  1  0  0  0  0
 24 22  2  0  0  0  0
 25 26  1  0  0  0  0
 26 34  1  1  0  0  0
 26 27  1  0  0  0  0
 27 29  1  0  0  0  0
 28 29  1  0  0  0  0
 29 31  1  1  0  0  0
 30 25  1  6  0  0  0
 30 28  1  0  0  0  0
 31 33  1  0  0  0  0
 31 32  1  1  0  0  0
 35 34  2  0  0  0  0
 36 37  1  0  0  0  0
M  END
>  <MODEL>
8

>  <REMARK>
 VINA RESULT:      -3.8      3.421      5.966
  Name = 
  5 active torsions:
  status: ('A' for Active; 'I' for Inactive)
    1  A    between atoms: C_5  and  N_12
    2  A    between atoms: C_6  and  C_31
    3  A    between atoms: C_7  and  N_14
    4  A    between atoms: C_11  and  C_33
    5  A    between atoms: N_20  and  C_36
                            x       y       z     vdW  Elec       q    Type
                         _______ _______ _______ _____ _____    ______ ____

>  <TORSDO>
F 5

$$$$
=
 OpenBabel10272414483D

 37 41  0  0  1  0  0  0  0  0999 V2000
  181.2740  176.9690  136.0520 C   0  0  0  0  0  0  0  0  0  0  0  0
  184.8130  175.9340  136.6070 C   0  0  0  0  0  0  0  0  0  0  0  0
  182.8860  175.6280  134.4970 C   0  0  0  0  0  2  0  0  0  0  0  0
  185.6710  176.9380  136.8570 C   0  0  0  0  0  3  0  0  0  0  0  0
  183.3450  176.0910  137.0110 C   0  0  1  0  0  3  0  0  0  0  0  0
  187.0890  176.8240  136.6660 N   0  0  0  0  0  0  0  0  0  0  0  0
  183.3030  174.2120  134.4660 C   0  0  0  0  0  3  0  0  0  0  0  0
  183.0660  177.3740  137.6770 N   0  0  1  0  0  0  0  0  0  0  0  0
  179.9840  176.3460  136.5860 C   0  0  0  0  0  1  0  0  0  0  0  0
  186.2350  173.8550  136.7930 C   0  0  0  0  0  2  0  0  0  0  0  0
  184.3680  173.7890  135.1550 C   0  0  0  0  0  3  0  0  0  0  0  0
  181.8360  177.9200  137.0860 C   0  0  0  0  0  2  0  0  0  0  0  0
  185.3250  174.6820  135.9120 C   0  0  1  0  0  3  0  0  0  0  0  0
  182.3210  175.8770  135.8980 C   0  0  1  0  0  3  0  0  0  0  0  0
  187.7950  175.7390  137.3810 C   0  0  1  0  0  3  0  0  0  0  0  0
  180.9640  177.7410  134.7600 C   0  0  0  0  0  1  0  0  0  0  0  0
  187.6480  174.3820  136.6820 C   0  0  0  0  0  2  0  0  0  0  0  0
  189.6120  176.6630  138.8900 C   0  0  0  0  0  3  0  0  0  0  0  0
  189.2330  176.0340  137.6830 C   0  0  0  0  0  0  0  0  0  0  0  0
  190.1940  175.7730  136.7090 C   0  0  0  0  0  3  0  0  0  0  0  0
  192.4590  175.8600  135.9800 F   0  0  0  0  0  0  0  0  0  0  0  0
  191.9070  176.7390  138.1240 C   0  0  0  0  0  3  0  0  0  0  0  0
  191.5330  176.1220  136.9260 C   0  0  0  0  0  0  0  0  0  0  0  0
  190.9480  177.0090  139.1100 C   0  0  0  0  0  3  0  0  0  0  0  0
  181.7810  177.8490  139.8490 C   0  0  0  0  0  2  0  0  0  0  0  0
  182.1060  179.3230  140.1320 C   0  0  1  0  0  3  0  0  0  0  0  0
  183.4660  179.4830  140.8110 C   0  0  0  0  0  2  0  0  0  0  0  0
  184.2550  177.2930  139.8650 C   0  0  0  0  0  2  0  0  0  0  0  0
  184.5780  178.7900  140.0230 C   0  0  2  0  0  3  0  0  0  0  0  0
  182.9220  177.0930  139.1240 C   0  0  2  0  0  3  0  0  0  0  0  0
  185.9210  179.0170  140.7240 C   0  0  2  0  0  3  0  0  0  0  0  0
  186.9510  177.9900  140.2970 C   0  0  0  0  0  1  0  0  0  0  0  0
  185.7830  179.0040  142.1010 F   0  0  0  0  0  0  0  0  0  0  0  0
  182.0330  180.1090  138.9300 N   0  0  0  0  0  0  0  0  0  0  0  0
  182.0860  181.3010  138.9830 O   0  0  0  0  0  0  0  0  0  0  0  0
  187.7900  177.9820  136.1120 C   0  0  0  0  0  2  0  0  0  0  0  0
  186.9860  178.5830  134.9690 C   0  0  0  0  0  1  0  0  0  0  0  0
  1  9  1  0  0  0  0
  1 12  1  0  0  0  0
  2  4  2  0  0  0  0
  5  2  1  6  0  0  0
  5  8  1  0  0  0  0
  6  4  1  0  0  0  0
  6 15  1  0  0  0  0
  7  3  1  0  0  0  0
  7 11  2  0  0  0  0
  8 12  1  6  0  0  0
  8 30  1  0  0  0  0
 13 11  1  1  0  0  0
 13  2  1  0  0  0  0
 13 10  1  0  0  0  0
 14  3  1  6  0  0  0
 14  1  1  0  0  0  0
 14  5  1  0  0  0  0
 15 19  1  6  0  0  0
 16  1  1  0  0  0  0
 17 10  1  0  0  0  0
 17 15  1  0  0  0  0
 18 24  1  0  0  0  0
 19 18  2  0  0  0  0
 20 23  2  0  0  0  0
 20 19  1  0  0  0  0
 21 23  1  0  0  0  0
 22 24  2  0  0  0  0
 23 22  1  0  0  0  0
 25 26  1  0  0  0  0
 26 34  1  6  0  0  0
 26 27  1  0  0  0  0
 28 29  1  0  0  0  0
 29 31  1  1  0  0  0
 29 27  1  0  0  0  0
 30 25  1  1  0  0  0
 30 28  1  0  0  0  0
 31 32  1  1  0  0  0
 31 33  1  0  0  0  0
 34 35  2  0  0  0  0
 36  6  1  0  0  0  0
 37 36  1  0  0  0  0
M  END
>  <MODEL>
9

>  <REMARK>
 VINA RESULT:      -3.8      1.659      1.973
  Name = 
  5 active torsions:
  status: ('A' for Active; 'I' for Inactive)
    1  A    between atoms: C_5  and  N_12
    2  A    between atoms: C_6  and  C_31
    3  A    between atoms: C_7  and  N_14
    4  A    between atoms: C_11  and  C_33
    5  A    between atoms: N_20  and  C_36
                            x       y       z     vdW  Elec       q    Type
                         _______ _______ _______ _____ _____    ______ ____

>  <TORSDO>
F 5

$$$$
