=
 OpenBabel10262423583D

 34 40  0  0  1  0  0  0  0  0999 V2000
  187.1440  176.9440  144.9880 C   0  0  2  0  0  3  0  0  0  0  0  0
  185.5340  178.7960  145.6790 C   0  0  0  0  0  2  0  0  0  0  0  0
  186.0910  178.5500  143.2540 C   0  0  1  0  0  3  0  0  0  0  0  0
  184.6090  179.0610  141.1550 C   0  0  2  0  0  3  0  0  0  0  0  0
  187.2600  177.7620  147.2630 N   0  0  2  0  0  0  0  0  0  0  0  0
  187.0340  179.1830  147.5580 C   0  0  0  0  0  2  0  0  0  0  0  0
  183.8890  179.4530  143.3640 O   0  0  0  0  0  0  0  0  0  0  0  0
  185.9040  177.7800  144.5820 C   0  0  1  0  0  3  0  0  0  0  0  0
  187.9980  177.6820  146.0030 C   0  0  0  0  0  2  0  0  0  0  0  0
  186.8790  177.7110  142.2400 C   0  0  1  0  0  3  0  0  0  0  0  0
  187.9680  176.3930  143.8220 C   0  0  0  0  0  2  0  0  0  0  0  0
  185.9060  178.3690  147.1090 C   0  0  1  0  0  3  0  0  0  0  0  0
  185.8920  179.0110  140.4450 N   0  0  0  0  0  0  0  0  0  0  0  0
  186.9540  178.4090  140.8970 C   0  0  0  0  0  0  0  0  0  0  0  0
  184.7880  179.0330  142.6520 C   0  0  0  0  0  0  0  0  0  0  0  0
  188.1860  177.4130  142.8050 N   0  0  0  0  0  2  0  0  0  0  0  0
  190.1430  177.7950  139.1880 C   0  0  1  0  0  3  0  0  0  0  0  0
  189.0820  177.7610  136.8280 C   0  0  0  0  0  1  0  0  0  0  0  0
  188.1260  178.3200  140.0030 C   0  0  0  0  0  0  0  0  0  0  0  0
  189.3610  178.5610  138.0940 C   0  0  1  0  0  3  0  0  0  0  0  0
  189.2140  177.7010  140.3040 N   0  0  0  0  0  0  0  0  0  0  0  0
  188.1360  178.8660  138.7340 O   0  0  0  0  0  0  0  0  0  0  0  0
  190.6260  176.4060  138.7950 C   0  0  0  0  0  1  0  0  0  0  0  0
  183.6700  177.9590  140.6680 C   0  0  0  0  0  2  0  0  0  0  0  0
  182.5750  178.5110  139.8860 N   0  0  0  0  0  2  0  0  0  0  0  0
  181.8080  178.8800  137.6030 C   0  0  0  0  0  2  0  0  0  0  0  0
  183.5310  177.2290  135.9610 O   0  0  0  0  0  1  0  0  0  0  0  0
  181.9420  177.3870  137.7940 C   0  0  1  0  0  0  0  0  0  0  0  0
  182.4200  176.6220  136.5540 C   0  0  2  0  0  3  0  0  0  0  0  0
  182.9240  178.3260  138.4860 C   0  0  2  0  0  3  0  0  0  0  0  0
  181.2300  174.5910  137.8070 C   0  0  0  0  0  2  0  0  0  0  0  0
  181.1030  175.4240  138.9970 N   0  0  0  0  0  2  0  0  0  0  0  0
  180.7770  176.7830  138.5780 C   0  0  0  0  0  2  0  0  0  0  0  0
  182.8370  174.9020  137.0020 S   0  0  0  0  0  0  0  0  0  0  0  0
  1 11  1  6  0  0  0
  1  9  1  0  0  0  0
  3 15  1  6  0  0  0
  3  8  1  0  0  0  0
  4 24  1  6  0  0  0
  4 15  1  0  0  0  0
  5  9  1  6  0  0  0
  5  6  1  0  0  0  0
  8  1  1  0  0  0  0
  8  2  1  1  0  0  0
 10 14  1  6  0  0  0
 10 16  1  0  0  0  0
 10  3  1  0  0  0  0
 12  2  1  6  0  0  0
 12  5  1  0  0  0  0
 12  6  1  0  0  0  0
 13 14  2  0  0  0  0
 13  4  1  0  0  0  0
 15  7  2  0  0  0  0
 16 11  1  0  0  0  0
 17 23  1  6  0  0  0
 17 21  1  0  0  0  0
 19 21  2  0  0  0  0
 19 14  1  0  0  0  0
 20 18  1  6  0  0  0
 20 22  1  0  0  0  0
 20 17  1  0  0  0  0
 22 19  1  0  0  0  0
 25 24  1  0  0  0  0
 26 30  1  0  0  0  0
 28 26  1  6  0  0  0
 28 30  1  0  0  0  0
 28 33  1  0  0  0  0
 29 27  1  1  0  0  0
 29 34  1  0  0  0  0
 29 28  1  0  0  0  0
 30 25  1  1  0  0  0
 31 32  1  0  0  0  0
 33 32  1  0  0  0  0
 34 31  1  0  0  0  0
M  END
>  <MODEL>
1

>  <REMARK>
 VINA RESULT:      -8.5      0.000      0.000
  Name = 
  4 active torsions:
  status: ('A' for Active; 'I' for Inactive)
    1  A    between atoms: C_5  and  C_18
    2  A    between atoms: C_12  and  C_28
    3  A    between atoms: C_17  and  N_29
    4  A    between atoms: C_18  and  N_29
                            x       y       z     vdW  Elec       q    Type
                         _______ _______ _______ _____ _____    ______ ____

>  <TORSDO>
F 4

$$$$
=
 OpenBabel10262423583D

 34 40  0  0  1  0  0  0  0  0999 V2000
  186.8930  177.0960  145.0390 C   0  0  2  0  0  3  0  0  0  0  0  0
  185.1860  178.9080  145.5890 C   0  0  0  0  0  2  0  0  0  0  0  0
  185.8520  178.5890  143.2010 C   0  0  1  0  0  3  0  0  0  0  0  0
  184.4400  178.9580  141.0260 C   0  0  2  0  0  3  0  0  0  0  0  0
  186.8840  178.0070  147.2820 N   0  0  2  0  0  0  0  0  0  0  0  0
  186.5910  179.4280  147.5100 C   0  0  0  0  0  2  0  0  0  0  0  0
  183.6140  179.4080  143.1870 O   0  0  0  0  0  0  0  0  0  0  0  0
  185.6400  177.8650  144.5510 C   0  0  1  0  0  3  0  0  0  0  0  0
  187.6760  177.9070  146.0570 C   0  0  0  0  0  2  0  0  0  0  0  0
  186.7130  177.7440  142.2550 C   0  0  1  0  0  3  0  0  0  0  0  0
  187.7860  176.5330  143.9300 C   0  0  0  0  0  2  0  0  0  0  0  0
  185.5150  178.5530  147.0490 C   0  0  1  0  0  3  0  0  0  0  0  0
  185.7520  178.9320  140.3690 N   0  0  0  0  0  0  0  0  0  0  0  0
  186.8160  178.3910  140.8880 C   0  0  0  0  0  0  0  0  0  0  0  0
  184.5570  178.9960  142.5290 C   0  0  0  0  0  0  0  0  0  0  0  0
  188.0060  177.5200  142.8820 N   0  0  0  0  0  2  0  0  0  0  0  0
  190.0840  177.8120  139.3200 C   0  0  1  0  0  3  0  0  0  0  0  0
  189.1260  177.7590  136.9170 C   0  0  0  0  0  1  0  0  0  0  0  0
  188.0270  178.3140  140.0450 C   0  0  0  0  0  0  0  0  0  0  0  0
  189.3400  178.5650  138.1910 C   0  0  1  0  0  3  0  0  0  0  0  0
  189.1090  177.7090  140.3950 N   0  0  0  0  0  0  0  0  0  0  0  0
  188.0850  178.8570  138.7760 O   0  0  0  0  0  0  0  0  0  0  0  0
  190.6000  176.4270  138.9530 C   0  0  0  0  0  1  0  0  0  0  0  0
  183.5650  177.8010  140.5470 C   0  0  0  0  0  2  0  0  0  0  0  0
  182.1520  178.1190  140.6880 N   0  0  0  0  0  2  0  0  0  0  0  0
  180.4990  179.8120  140.1080 C   0  0  0  0  0  2  0  0  0  0  0  0
  181.3880  180.8830  137.5690 O   0  0  0  0  0  1  0  0  0  0  0  0
  180.7100  178.9550  138.8820 C   0  0  1  0  0  0  0  0  0  0  0  0
  180.6300  179.7090  137.5500 C   0  0  2  0  0  3  0  0  0  0  0  0
  181.8850  179.2460  139.8090 C   0  0  2  0  0  3  0  0  0  0  0  0
  180.0860  177.2680  136.6250 C   0  0  0  0  0  2  0  0  0  0  0  0
  180.4630  176.7140  137.9210 N   0  0  0  0  0  2  0  0  0  0  0  0
  179.9830  177.6120  138.9660 C   0  0  0  0  0  2  0  0  0  0  0  0
  181.2080  178.6390  136.1890 S   0  0  0  0  0  0  0  0  0  0  0  0
  1 11  1  6  0  0  0
  1  9  1  0  0  0  0
  3 15  1  6  0  0  0
  3  8  1  0  0  0  0
  4 24  1  1  0  0  0
  4 15  1  0  0  0  0
  5  9  1  6  0  0  0
  5  6  1  0  0  0  0
  8  1  1  0  0  0  0
  8  2  1  1  0  0  0
 10 14  1  6  0  0  0
 10 16  1  0  0  0  0
 10  3  1  0  0  0  0
 12  2  1  6  0  0  0
 12  5  1  0  0  0  0
 12  6  1  0  0  0  0
 13 14  2  0  0  0  0
 13  4  1  0  0  0  0
 15  7  2  0  0  0  0
 16 11  1  0  0  0  0
 17 23  1  6  0  0  0
 17 21  1  0  0  0  0
 19 21  2  0  0  0  0
 19 14  1  0  0  0  0
 20 18  1  6  0  0  0
 20 22  1  0  0  0  0
 20 17  1  0  0  0  0
 22 19  1  0  0  0  0
 24 25  1  0  0  0  0
 28 33  1  1  0  0  0
 28 30  1  0  0  0  0
 28 26  1  0  0  0  0
 29 27  1  1  0  0  0
 29 28  1  0  0  0  0
 30 26  1  0  0  0  0
 30 25  1  1  0  0  0
 31 32  1  0  0  0  0
 32 33  1  0  0  0  0
 34 31  1  0  0  0  0
 34 29  1  0  0  0  0
M  END
>  <MODEL>
2

>  <REMARK>
 VINA RESULT:      -8.5      1.451      1.595
  Name = 
  4 active torsions:
  status: ('A' for Active; 'I' for Inactive)
    1  A    between atoms: C_5  and  C_18
    2  A    between atoms: C_12  and  C_28
    3  A    between atoms: C_17  and  N_29
    4  A    between atoms: C_18  and  N_29
                            x       y       z     vdW  Elec       q    Type
                         _______ _______ _______ _____ _____    ______ ____

>  <TORSDO>
F 4

$$$$
=
 OpenBabel10262423583D

 34 40  0  0  1  0  0  0  0  0999 V2000
  191.6840  174.8840  136.3530 C   0  0  2  0  0  3  0  0  0  0  0  0
  193.5240  176.3250  137.3710 C   0  0  0  0  0  2  0  0  0  0  0  0
  191.1780  176.6600  138.1650 C   0  0  1  0  0  3  0  0  0  0  0  0
  190.3190  177.3930  140.5290 C   0  0  2  0  0  3  0  0  0  0  0  0
  193.7050  175.2230  135.0660 N   0  0  2  0  0  0  0  0  0  0  0  0
  194.4120  176.5100  135.1100 C   0  0  0  0  0  2  0  0  0  0  0  0
  192.6070  177.2230  139.9870 O   0  0  0  0  0  0  0  0  0  0  0  0
  192.1810  175.6150  137.6260 C   0  0  1  0  0  3  0  0  0  0  0  0
  192.2700  175.5030  135.0970 C   0  0  0  0  0  2  0  0  0  0  0  0
  189.7350  176.1600  138.0220 C   0  0  1  0  0  3  0  0  0  0  0  0
  190.1670  174.6990  136.2600 C   0  0  0  0  0  2  0  0  0  0  0  0
  194.4130  175.6650  136.3030 C   0  0  1  0  0  3  0  0  0  0  0  0
  189.0700  177.6610  139.8090 N   0  0  0  0  0  0  0  0  0  0  0  0
  188.7580  177.1240  138.6650 C   0  0  0  0  0  0  0  0  0  0  0  0
  191.4590  177.0810  139.5930 C   0  0  0  0  0  0  0  0  0  0  0  0
  189.4650  175.9260  136.6110 N   0  0  0  0  0  2  0  0  0  0  0  0
  185.4590  177.1150  137.0560 C   0  0  1  0  0  3  0  0  0  0  0  0
  184.3300  178.4720  138.9490 C   0  0  0  0  0  1  0  0  0  0  0  0
  187.4030  177.3760  138.1350 C   0  0  0  0  0  0  0  0  0  0  0  0
  185.3960  178.4360  137.8610 C   0  0  1  0  0  3  0  0  0  0  0  0
  186.7680  176.5610  137.3670 N   0  0  0  0  0  0  0  0  0  0  0  0
  186.6770  178.5060  138.4590 O   0  0  0  0  0  0  0  0  0  0  0  0
  184.3730  176.0980  137.3820 C   0  0  0  0  0  1  0  0  0  0  0  0
  190.1240  176.3020  141.5800 C   0  0  0  0  0  2  0  0  0  0  0  0
  190.7250  176.6810  142.8490 N   0  0  0  0  0  2  0  0  0  0  0  0
  190.0200  178.8050  143.8110 C   0  0  0  0  0  2  0  0  0  0  0  0
  187.9300  178.1150  145.6940 O   0  0  0  0  0  1  0  0  0  0  0  0
  190.2290  177.8430  144.9570 C   0  0  1  0  0  0  0  0  0  0  0  0
  189.2550  178.0170  146.1270 C   0  0  2  0  0  3  0  0  0  0  0  0
  189.6830  177.3270  143.6310 C   0  0  2  0  0  3  0  0  0  0  0  0
  191.2160  176.7950  147.4580 C   0  0  0  0  0  2  0  0  0  0  0  0
  191.8680  176.4990  146.1880 N   0  0  0  0  0  2  0  0  0  0  0  0
  191.7050  177.6490  145.3040 C   0  0  0  0  0  2  0  0  0  0  0  0
  189.4100  176.6130  147.2840 S   0  0  0  0  0  0  0  0  0  0  0  0
  1  9  1  6  0  0  0
  1  8  1  0  0  0  0
  3 15  1  1  0  0  0
  4 24  1  1  0  0  0
  5  9  1  1  0  0  0
  5  6  1  0  0  0  0
  5 12  1  0  0  0  0
  8  2  1  6  0  0  0
  8  3  1  0  0  0  0
 10 16  1  6  0  0  0
 10  3  1  0  0  0  0
 10 14  1  0  0  0  0
 11  1  1  0  0  0  0
 11 16  1  0  0  0  0
 12  6  1  6  0  0  0
 12  2  1  0  0  0  0
 13  4  1  0  0  0  0
 14 13  2  0  0  0  0
 15  7  2  0  0  0  0
 15  4  1  0  0  0  0
 17 21  1  0  0  0  0
 17 23  1  1  0  0  0
 17 20  1  0  0  0  0
 19 22  1  0  0  0  0
 19 14  1  0  0  0  0
 20 22  1  0  0  0  0
 20 18  1  1  0  0  0
 21 19  2  0  0  0  0
 24 25  1  0  0  0  0
 28 26  1  6  0  0  0
 28 33  1  0  0  0  0
 28 29  1  0  0  0  0
 29 27  1  6  0  0  0
 29 34  1  0  0  0  0
 30 25  1  6  0  0  0
 30 26  1  0  0  0  0
 30 28  1  0  0  0  0
 32 31  1  0  0  0  0
 33 32  1  0  0  0  0
 34 31  1  0  0  0  0
M  END
>  <MODEL>
3

>  <REMARK>
 VINA RESULT:      -8.0      3.886      9.359
  Name = 
  4 active torsions:
  status: ('A' for Active; 'I' for Inactive)
    1  A    between atoms: C_5  and  C_18
    2  A    between atoms: C_12  and  C_28
    3  A    between atoms: C_17  and  N_29
    4  A    between atoms: C_18  and  N_29
                            x       y       z     vdW  Elec       q    Type
                         _______ _______ _______ _____ _____    ______ ____

>  <TORSDO>
F 4

$$$$
=
 OpenBabel10262423583D

 34 40  0  0  1  0  0  0  0  0999 V2000
  186.4820  176.3960  136.8190 C   0  0  2  0  0  3  0  0  0  0  0  0
  188.7190  177.4590  137.4220 C   0  0  0  0  0  2  0  0  0  0  0  0
  186.6800  178.1980  138.6640 C   0  0  1  0  0  3  0  0  0  0  0  0
  186.4600  179.0290  141.1390 C   0  0  2  0  0  3  0  0  0  0  0  0
  188.2320  176.3880  135.1470 N   0  0  2  0  0  0  0  0  0  0  0  0
  189.1550  177.5240  135.0260 C   0  0  0  0  0  2  0  0  0  0  0  0
  188.5220  178.4580  140.1530 O   0  0  0  0  0  0  0  0  0  0  0  0
  187.3480  177.0000  137.9530 C   0  0  1  0  0  3  0  0  0  0  0  0
  186.9070  176.9230  135.4600 C   0  0  0  0  0  2  0  0  0  0  0  0
  185.1710  177.9710  138.8210 C   0  0  1  0  0  3  0  0  0  0  0  0
  184.9690  176.4910  137.0350 C   0  0  0  0  0  2  0  0  0  0  0  0
  189.2410  176.6710  136.2090 C   0  0  1  0  0  3  0  0  0  0  0  0
  185.1610  179.5330  140.6790 N   0  0  0  0  0  0  0  0  0  0  0  0
  184.5340  179.0840  139.6300 C   0  0  0  0  0  0  0  0  0  0  0  0
  187.3130  178.5340  139.9990 C   0  0  0  0  0  0  0  0  0  0  0  0
  184.5870  177.8180  137.4980 N   0  0  0  0  0  2  0  0  0  0  0  0
  181.4720  180.8930  138.7250 C   0  0  1  0  0  3  0  0  0  0  0  0
  180.1360  178.7390  138.2040 C   0  0  0  0  0  1  0  0  0  0  0  0
  183.1690  179.5880  139.3780 C   0  0  0  0  0  0  0  0  0  0  0  0
  180.8870  179.5570  139.2450 C   0  0  1  0  0  3  0  0  0  0  0  0
  182.9130  180.7320  138.8450 N   0  0  0  0  0  0  0  0  0  0  0  0
  182.0390  178.8450  139.6570 O   0  0  0  0  0  0  0  0  0  0  0  0
  181.1070  181.2520  137.2910 C   0  0  0  0  0  1  0  0  0  0  0  0
  186.2830  177.9710  142.2270 C   0  0  0  0  0  2  0  0  0  0  0  0
  187.2900  178.1140  143.2660 N   0  0  0  0  0  2  0  0  0  0  0  0
  188.2550  176.3690  144.6650 C   0  0  0  0  0  2  0  0  0  0  0  0
  190.1900  175.0380  142.9710 O   0  0  0  0  0  1  0  0  0  0  0  0
  189.4020  177.0930  144.0000 C   0  0  1  0  0  0  0  0  0  0  0  0
  190.5930  176.2040  143.6280 C   0  0  2  0  0  3  0  0  0  0  0  0
  188.0920  176.9010  143.2440 C   0  0  2  0  0  3  0  0  0  0  0  0
  191.8860  178.5340  143.7160 C   0  0  0  0  0  2  0  0  0  0  0  0
  190.6030  179.2210  143.8060 N   0  0  0  0  0  2  0  0  0  0  0  0
  189.7160  178.4360  144.6590 C   0  0  0  0  0  2  0  0  0  0  0  0
  191.7550  177.1260  142.5640 S   0  0  0  0  0  0  0  0  0  0  0  0
  1  9  1  6  0  0  0
  1 11  1  0  0  0  0
  1  8  1  0  0  0  0
  3 10  1  0  0  0  0
  3 15  1  1  0  0  0
  4 24  1  1  0  0  0
  5  6  1  6  0  0  0
  5  9  1  0  0  0  0
  5 12  1  0  0  0  0
  8  2  1  6  0  0  0
  8  3  1  0  0  0  0
 10 16  1  6  0  0  0
 10 14  1  0  0  0  0
 11 16  1  0  0  0  0
 12  6  1  6  0  0  0
 12  2  1  0  0  0  0
 13  4  1  0  0  0  0
 14 13  2  0  0  0  0
 15  7  2  0  0  0  0
 15  4  1  0  0  0  0
 17 23  1  6  0  0  0
 17 21  1  0  0  0  0
 17 20  1  0  0  0  0
 19 14  1  0  0  0  0
 19 22  1  0  0  0  0
 20 18  1  6  0  0  0
 20 22  1  0  0  0  0
 21 19  2  0  0  0  0
 24 25  1  0  0  0  0
 28 33  1  1  0  0  0
 28 26  1  0  0  0  0
 29 27  1  6  0  0  0
 29 28  1  0  0  0  0
 30 25  1  1  0  0  0
 30 28  1  0  0  0  0
 30 26  1  0  0  0  0
 31 32  1  0  0  0  0
 32 33  1  0  0  0  0
 34 29  1  0  0  0  0
 34 31  1  0  0  0  0
M  END
>  <MODEL>
4

>  <REMARK>
 VINA RESULT:      -7.4      3.137      8.485
  Name = 
  4 active torsions:
  status: ('A' for Active; 'I' for Inactive)
    1  A    between atoms: C_5  and  C_18
    2  A    between atoms: C_12  and  C_28
    3  A    between atoms: C_17  and  N_29
    4  A    between atoms: C_18  and  N_29
                            x       y       z     vdW  Elec       q    Type
                         _______ _______ _______ _____ _____    ______ ____

>  <TORSDO>
F 4

$$$$
=
 OpenBabel10262423583D

 34 40  0  0  1  0  0  0  0  0999 V2000
  186.8910  178.9340  146.7300 C   0  0  2  0  0  3  0  0  0  0  0  0
  188.3480  176.9840  145.9740 C   0  0  0  0  0  2  0  0  0  0  0  0
  186.5160  177.7550  144.4580 C   0  0  1  0  0  3  0  0  0  0  0  0
  186.4110  177.7270  141.8410 C   0  0  2  0  0  3  0  0  0  0  0  0
  188.0230  177.6340  148.4300 N   0  0  2  0  0  0  0  0  0  0  0  0
  188.1960  176.1850  148.2700 C   0  0  0  0  0  2  0  0  0  0  0  0
  188.2300  176.8610  143.0650 O   0  0  0  0  0  0  0  0  0  0  0  0
  187.5400  178.2150  145.5210 C   0  0  1  0  0  3  0  0  0  0  0  0
  186.7050  177.9860  147.9020 C   0  0  0  0  0  2  0  0  0  0  0  0
  185.3990  178.7920  144.2890 C   0  0  1  0  0  3  0  0  0  0  0  0
  185.6190  179.7240  146.4120 C   0  0  0  0  0  2  0  0  0  0  0  0
  188.9400  177.0830  147.3900 C   0  0  1  0  0  3  0  0  0  0  0  0
  184.9740  177.9250  142.0620 N   0  0  0  0  0  0  0  0  0  0  0  0
  184.4650  178.4070  143.1590 C   0  0  0  0  0  0  0  0  0  0  0  0
  187.1470  177.4230  143.1220 C   0  0  0  0  0  0  0  0  0  0  0  0
  184.7200  178.9520  145.5650 N   0  0  0  0  0  2  0  0  0  0  0  0
  180.9340  179.1710  142.5110 C   0  0  1  0  0  3  0  0  0  0  0  0
  180.0650  177.6290  144.3990 C   0  0  0  0  0  1  0  0  0  0  0  0
  183.0140  178.6840  143.1780 C   0  0  0  0  0  0  0  0  0  0  0  0
  180.8970  178.8490  144.0240 C   0  0  1  0  0  3  0  0  0  0  0  0
  182.3270  178.9870  142.1320 N   0  0  0  0  0  0  0  0  0  0  0  0
  182.2560  178.5980  144.3300 O   0  0  0  0  0  0  0  0  0  0  0  0
  180.0390  178.3040  141.6350 C   0  0  0  0  0  1  0  0  0  0  0  0
  187.0190  178.9130  141.0960 C   0  0  0  0  0  2  0  0  0  0  0  0
  187.0720  178.6640  139.6640 N   0  0  0  0  0  2  0  0  0  0  0  0
  189.2630  178.6200  138.6000 C   0  0  0  0  0  2  0  0  0  0  0  0
  190.0150  175.8240  138.5540 O   0  0  0  0  0  1  0  0  0  0  0  0
  188.4240  177.5540  137.9380 C   0  0  1  0  0  0  0  0  0  0  0  0
  189.1940  176.2950  137.5250 C   0  0  2  0  0  3  0  0  0  0  0  0
  188.2440  177.8380  139.4250 C   0  0  2  0  0  3  0  0  0  0  0  0
  187.1410  176.0400  135.8420 C   0  0  0  0  0  2  0  0  0  0  0  0
  186.4520  177.1110  136.5510 N   0  0  0  0  0  2  0  0  0  0  0  0
  187.4320  178.1260  136.9240 C   0  0  0  0  0  2  0  0  0  0  0  0
  188.0270  174.9800  137.0340 S   0  0  0  0  0  0  0  0  0  0  0  0
  1 11  1  6  0  0  0
  1  9  1  0  0  0  0
  3 15  1  6  0  0  0
  3  8  1  0  0  0  0
  4 24  1  1  0  0  0
  4 13  1  0  0  0  0
  4 15  1  0  0  0  0
  5  9  1  6  0  0  0
  6  5  1  0  0  0  0
  7 15  2  0  0  0  0
  8  2  1  1  0  0  0
  8  1  1  0  0  0  0
 10 14  1  6  0  0  0
 10  3  1  0  0  0  0
 10 16  1  0  0  0  0
 12  2  1  6  0  0  0
 12  6  1  0  0  0  0
 12  5  1  0  0  0  0
 13 14  2  0  0  0  0
 14 19  1  0  0  0  0
 16 11  1  0  0  0  0
 17 23  1  6  0  0  0
 17 20  1  0  0  0  0
 19 22  1  0  0  0  0
 20 22  1  0  0  0  0
 20 18  1  6  0  0  0
 21 17  1  0  0  0  0
 21 19  2  0  0  0  0
 25 24  1  0  0  0  0
 26 30  1  0  0  0  0
 28 33  1  6  0  0  0
 28 26  1  0  0  0  0
 28 30  1  0  0  0  0
 29 28  1  0  0  0  0
 29 27  1  1  0  0  0
 30 25  1  6  0  0  0
 31 32  1  0  0  0  0
 31 34  1  0  0  0  0
 32 33  1  0  0  0  0
 34 29  1  0  0  0  0
M  END
>  <MODEL>
5

>  <REMARK>
 VINA RESULT:      -7.2      2.963      5.931
  Name = 
  4 active torsions:
  status: ('A' for Active; 'I' for Inactive)
    1  A    between atoms: C_5  and  C_18
    2  A    between atoms: C_12  and  C_28
    3  A    between atoms: C_17  and  N_29
    4  A    between atoms: C_18  and  N_29
                            x       y       z     vdW  Elec       q    Type
                         _______ _______ _______ _____ _____    ______ ____

>  <TORSDO>
F 4

$$$$
=
 OpenBabel10262423583D

 34 40  0  0  1  0  0  0  0  0999 V2000
  186.6800  177.0700  144.6430 C   0  0  2  0  0  3  0  0  0  0  0  0
  185.0750  179.0190  144.9890 C   0  0  0  0  0  2  0  0  0  0  0  0
  185.9000  178.5570  142.6760 C   0  0  1  0  0  3  0  0  0  0  0  0
  184.6940  178.9370  140.3810 C   0  0  2  0  0  3  0  0  0  0  0  0
  186.5630  178.0690  146.8440 N   0  0  2  0  0  0  0  0  0  0  0  0
  186.3600  179.5150  146.9980 C   0  0  0  0  0  2  0  0  0  0  0  0
  183.7380  179.5320  142.4510 O   0  0  0  0  0  0  0  0  0  0  0  0
  185.5300  177.9050  144.0270 C   0  0  1  0  0  3  0  0  0  0  0  0
  187.4390  177.8630  145.6910 C   0  0  0  0  0  2  0  0  0  0  0  0
  186.7670  177.6140  141.8320 C   0  0  1  0  0  3  0  0  0  0  0  0
  187.6130  176.4000  143.6300 C   0  0  0  0  0  2  0  0  0  0  0  0
  185.2610  178.7010  146.4820 C   0  0  1  0  0  3  0  0  0  0  0  0
  186.0480  178.7910  139.8350 N   0  0  0  0  0  0  0  0  0  0  0  0
  187.0250  178.1970  140.4560 C   0  0  0  0  0  0  0  0  0  0  0  0
  184.6960  179.0280  141.8860 C   0  0  0  0  0  0  0  0  0  0  0  0
  187.9870  177.3250  142.5690 N   0  0  0  0  0  2  0  0  0  0  0  0
  190.4650  177.9810  139.1950 C   0  0  1  0  0  3  0  0  0  0  0  0
  190.0330  175.8060  137.8600 C   0  0  0  0  0  1  0  0  0  0  0  0
  188.2890  177.9990  139.7180 C   0  0  0  0  0  0  0  0  0  0  0  0
  189.6860  177.2760  138.0590 C   0  0  1  0  0  3  0  0  0  0  0  0
  189.4460  178.3410  140.1690 N   0  0  0  0  0  0  0  0  0  0  0  0
  188.3390  177.3840  138.4820 O   0  0  0  0  0  0  0  0  0  0  0  0
  191.5490  177.1430  139.8630 C   0  0  0  0  0  1  0  0  0  0  0  0
  183.7750  177.8270  139.8730 C   0  0  0  0  0  2  0  0  0  0  0  0
  183.4800  177.9960  138.4590 N   0  0  0  0  0  2  0  0  0  0  0  0
  184.3320  177.5250  136.2260 C   0  0  0  0  0  2  0  0  0  0  0  0
  186.3290  175.4630  136.6080 O   0  0  0  0  0  1  0  0  0  0  0  0
  184.0280  176.1970  136.8770 C   0  0  1  0  0  0  0  0  0  0  0  0
  184.9930  175.0650  136.5070 C   0  0  2  0  0  3  0  0  0  0  0  0
  184.5560  177.3490  137.7260 C   0  0  2  0  0  3  0  0  0  0  0  0
  182.9190  173.5580  137.2420 C   0  0  0  0  0  2  0  0  0  0  0  0
  182.2690  174.7470  137.7780 N   0  0  0  0  0  2  0  0  0  0  0  0
  182.5350  175.8660  136.8790 C   0  0  0  0  0  2  0  0  0  0  0  0
  184.7090  173.6220  137.5880 S   0  0  0  0  0  0  0  0  0  0  0  0
  1 11  1  6  0  0  0
  1  9  1  0  0  0  0
  3 15  1  6  0  0  0
  3  8  1  0  0  0  0
  4 24  1  1  0  0  0
  4 15  1  0  0  0  0
  5  9  1  6  0  0  0
  5  6  1  0  0  0  0
  8  1  1  0  0  0  0
  8  2  1  1  0  0  0
 10 14  1  6  0  0  0
 10 16  1  0  0  0  0
 10  3  1  0  0  0  0
 12  2  1  6  0  0  0
 12  5  1  0  0  0  0
 12  6  1  0  0  0  0
 13  4  1  0  0  0  0
 13 14  2  0  0  0  0
 15  7  2  0  0  0  0
 16 11  1  0  0  0  0
 17 23  1  1  0  0  0
 17 21  1  0  0  0  0
 19 21  2  0  0  0  0
 19 14  1  0  0  0  0
 20 18  1  1  0  0  0
 20 22  1  0  0  0  0
 20 17  1  0  0  0  0
 22 19  1  0  0  0  0
 25 24  1  0  0  0  0
 26 30  1  0  0  0  0
 28 26  1  6  0  0  0
 28 33  1  0  0  0  0
 28 30  1  0  0  0  0
 29 27  1  1  0  0  0
 29 28  1  0  0  0  0
 29 34  1  0  0  0  0
 30 25  1  1  0  0  0
 31 34  1  0  0  0  0
 31 32  1  0  0  0  0
 33 32  1  0  0  0  0
M  END
>  <MODEL>
6

>  <REMARK>
 VINA RESULT:      -7.1      1.420      1.593
  Name = 
  4 active torsions:
  status: ('A' for Active; 'I' for Inactive)
    1  A    between atoms: C_5  and  C_18
    2  A    between atoms: C_12  and  C_28
    3  A    between atoms: C_17  and  N_29
    4  A    between atoms: C_18  and  N_29
                            x       y       z     vdW  Elec       q    Type
                         _______ _______ _______ _____ _____    ______ ____

>  <TORSDO>
F 4

$$$$
=
 OpenBabel10262423583D

 34 40  0  0  1  0  0  0  0  0999 V2000
  191.1340  174.2910  137.1050 C   0  0  2  0  0  3  0  0  0  0  0  0
  192.9460  175.9380  137.8130 C   0  0  0  0  0  2  0  0  0  0  0  0
  190.5560  176.5720  138.1770 C   0  0  1  0  0  3  0  0  0  0  0  0
  189.5070  178.0590  140.0620 C   0  0  2  0  0  3  0  0  0  0  0  0
  193.2940  174.1400  136.0220 N   0  0  2  0  0  0  0  0  0  0  0  0
  194.0700  175.3530  135.7320 C   0  0  0  0  0  2  0  0  0  0  0  0
  191.8230  177.6640  139.8750 O   0  0  0  0  0  0  0  0  0  0  0  0
  191.5430  175.3840  138.1240 C   0  0  1  0  0  3  0  0  0  0  0  0
  191.8830  174.4510  135.7940 C   0  0  0  0  0  2  0  0  0  0  0  0
  189.1070  176.0890  138.0340 C   0  0  1  0  0  3  0  0  0  0  0  0
  189.6270  174.1230  136.8990 C   0  0  0  0  0  2  0  0  0  0  0  0
  193.8970  174.9440  137.1250 C   0  0  1  0  0  3  0  0  0  0  0  0
  188.3560  178.1070  139.1530 N   0  0  0  0  0  0  0  0  0  0  0  0
  188.1310  177.2340  138.2150 C   0  0  0  0  0  0  0  0  0  0  0  0
  190.7150  177.4300  139.4160 C   0  0  0  0  0  0  0  0  0  0  0  0
  188.9700  175.4150  136.7530 N   0  0  0  0  0  2  0  0  0  0  0  0
  185.3460  177.2910  135.8240 C   0  0  1  0  0  3  0  0  0  0  0  0
  183.5980  176.5050  137.5630 C   0  0  0  0  0  1  0  0  0  0  0  0
  186.8550  177.3340  137.4770 C   0  0  0  0  0  0  0  0  0  0  0  0
  184.6050  177.5720  137.1540 C   0  0  1  0  0  3  0  0  0  0  0  0
  186.7400  177.1330  136.2100 N   0  0  0  0  0  0  0  0  0  0  0  0
  185.6550  177.6120  138.1010 O   0  0  0  0  0  0  0  0  0  0  0  0
  184.8760  176.0600  135.0610 C   0  0  0  0  0  1  0  0  0  0  0  0
  189.1380  177.3760  141.3780 C   0  0  0  0  0  2  0  0  0  0  0  0
  188.2770  178.2240  142.1860 N   0  0  0  0  0  2  0  0  0  0  0  0
  187.8190  176.2890  143.5940 C   0  0  0  0  0  2  0  0  0  0  0  0
  187.9660  177.2880  146.3080 O   0  0  0  0  0  1  0  0  0  0  0  0
  186.9600  177.4230  144.1000 C   0  0  1  0  0  0  0  0  0  0  0  0
  186.7600  177.4480  145.6200 C   0  0  2  0  0  3  0  0  0  0  0  0
  188.3490  177.7200  143.5480 C   0  0  2  0  0  3  0  0  0  0  0  0
  184.6020  178.8590  144.9410 C   0  0  0  0  0  2  0  0  0  0  0  0
  185.1080  178.9410  143.5760 N   0  0  0  0  0  2  0  0  0  0  0  0
  185.7240  177.6630  143.2330 C   0  0  0  0  0  2  0  0  0  0  0  0
  185.9810  179.0200  146.1230 S   0  0  0  0  0  0  0  0  0  0  0  0
  1  9  1  6  0  0  0
  1  8  1  0  0  0  0
  3 15  1  1  0  0  0
  4 24  1  1  0  0  0
  5  6  1  6  0  0  0
  5 12  1  0  0  0  0
  8  2  1  6  0  0  0
  8  3  1  0  0  0  0
  9  5  1  0  0  0  0
 10 16  1  6  0  0  0
 10  3  1  0  0  0  0
 10 14  1  0  0  0  0
 11  1  1  0  0  0  0
 12  6  1  6  0  0  0
 12  2  1  0  0  0  0
 13  4  1  0  0  0  0
 14 13  2  0  0  0  0
 15  7  2  0  0  0  0
 15  4  1  0  0  0  0
 16 11  1  0  0  0  0
 17 23  1  1  0  0  0
 17 21  1  0  0  0  0
 17 20  1  0  0  0  0
 19 22  1  0  0  0  0
 19 14  1  0  0  0  0
 20 18  1  1  0  0  0
 20 22  1  0  0  0  0
 21 19  2  0  0  0  0
 24 25  1  0  0  0  0
 26 28  1  0  0  0  0
 28 33  1  6  0  0  0
 28 29  1  0  0  0  0
 29 34  1  0  0  0  0
 29 27  1  1  0  0  0
 30 25  1  6  0  0  0
 30 26  1  0  0  0  0
 30 28  1  0  0  0  0
 31 34  1  0  0  0  0
 32 31  1  0  0  0  0
 33 32  1  0  0  0  0
M  END
>  <MODEL>
7

>  <REMARK>
 VINA RESULT:      -7.1      3.405      8.187
  Name = 
  4 active torsions:
  status: ('A' for Active; 'I' for Inactive)
    1  A    between atoms: C_5  and  C_18
    2  A    between atoms: C_12  and  C_28
    3  A    between atoms: C_17  and  N_29
    4  A    between atoms: C_18  and  N_29
                            x       y       z     vdW  Elec       q    Type
                         _______ _______ _______ _____ _____    ______ ____

>  <TORSDO>
F 4

$$$$
=
 OpenBabel10262423583D

 34 40  0  0  1  0  0  0  0  0999 V2000
  192.4000  173.9090  136.6880 C   0  0  2  0  0  3  0  0  0  0  0  0
  194.5000  175.2220  137.2900 C   0  0  0  0  0  2  0  0  0  0  0  0
  192.2800  176.1730  137.9330 C   0  0  1  0  0  3  0  0  0  0  0  0
  191.6520  177.6670  139.9920 C   0  0  2  0  0  3  0  0  0  0  0  0
  194.4000  173.5170  135.3810 N   0  0  2  0  0  0  0  0  0  0  0  0
  195.3210  174.6200  135.0770 C   0  0  0  0  0  2  0  0  0  0  0  0
  193.8530  176.9500  139.5450 O   0  0  0  0  0  0  0  0  0  0  0  0
  193.0650  174.8590  137.7150 C   0  0  1  0  0  3  0  0  0  0  0  0
  193.0380  174.0450  135.3170 C   0  0  0  0  0  2  0  0  0  0  0  0
  190.7680  175.9180  137.9150 C   0  0  1  0  0  3  0  0  0  0  0  0
  190.8720  173.9780  136.6310 C   0  0  0  0  0  2  0  0  0  0  0  0
  195.2200  174.1480  136.4570 C   0  0  1  0  0  3  0  0  0  0  0  0
  190.4420  177.9440  139.2100 N   0  0  0  0  0  0  0  0  0  0  0  0
  189.9990  177.1790  138.2550 C   0  0  0  0  0  0  0  0  0  0  0  0
  192.6840  176.9120  139.1920 C   0  0  0  0  0  0  0  0  0  0  0  0
  190.4090  175.3590  136.6210 N   0  0  0  0  0  2  0  0  0  0  0  0
  187.1250  178.3770  136.3110 C   0  0  1  0  0  3  0  0  0  0  0  0
  185.7390  176.2240  136.6900 C   0  0  0  0  0  1  0  0  0  0  0  0
  188.6890  177.5130  137.6600 C   0  0  0  0  0  0  0  0  0  0  0  0
  186.4310  177.4280  137.3170 C   0  0  1  0  0  3  0  0  0  0  0  0
  188.5390  178.2870  136.6410 N   0  0  0  0  0  0  0  0  0  0  0  0
  187.5020  176.9820  138.1260 O   0  0  0  0  0  0  0  0  0  0  0  0
  186.9130  178.0400  134.8410 C   0  0  0  0  0  1  0  0  0  0  0  0
  191.3090  176.9580  141.3000 C   0  0  0  0  0  2  0  0  0  0  0  0
  190.3220  177.7080  142.0610 N   0  0  0  0  0  2  0  0  0  0  0  0
  190.6700  175.9670  143.7290 C   0  0  0  0  0  2  0  0  0  0  0  0
  190.4620  177.3250  146.2790 O   0  0  0  0  0  1  0  0  0  0  0  0
  189.4470  176.7490  144.1480 C   0  0  1  0  0  0  0  0  0  0  0  0
  189.2770  176.9140  145.6620 C   0  0  2  0  0  3  0  0  0  0  0  0
  190.6060  177.4700  143.4670 C   0  0  2  0  0  3  0  0  0  0  0  0
  186.7310  177.2840  144.9630 C   0  0  0  0  0  2  0  0  0  0  0  0
  187.1450  177.3560  143.5670 N   0  0  0  0  0  2  0  0  0  0  0  0
  188.2010  176.3740  143.3450 C   0  0  0  0  0  2  0  0  0  0  0  0
  187.9600  178.1260  146.0170 S   0  0  0  0  0  0  0  0  0  0  0  0
  1  9  1  6  0  0  0
  1  8  1  0  0  0  0
  3 15  1  1  0  0  0
  4 24  1  1  0  0  0
  5  6  1  6  0  0  0
  5 12  1  0  0  0  0
  8  2  1  6  0  0  0
  8  3  1  0  0  0  0
  9  5  1  0  0  0  0
 10 16  1  6  0  0  0
 10  3  1  0  0  0  0
 10 14  1  0  0  0  0
 11  1  1  0  0  0  0
 12  6  1  6  0  0  0
 12  2  1  0  0  0  0
 13  4  1  0  0  0  0
 14 13  2  0  0  0  0
 15  7  2  0  0  0  0
 15  4  1  0  0  0  0
 16 11  1  0  0  0  0
 17 23  1  6  0  0  0
 17 21  1  0  0  0  0
 17 20  1  0  0  0  0
 19 22  1  0  0  0  0
 19 14  1  0  0  0  0
 20 18  1  6  0  0  0
 20 22  1  0  0  0  0
 21 19  2  0  0  0  0
 24 25  1  0  0  0  0
 26 28  1  0  0  0  0
 28 33  1  6  0  0  0
 28 29  1  0  0  0  0
 29 34  1  0  0  0  0
 29 27  1  6  0  0  0
 30 25  1  6  0  0  0
 30 26  1  0  0  0  0
 30 28  1  0  0  0  0
 31 34  1  0  0  0  0
 32 31  1  0  0  0  0
 33 32  1  0  0  0  0
M  END
>  <MODEL>
8

>  <REMARK>
 VINA RESULT:      -7.0      4.015      9.202
  Name = 
  4 active torsions:
  status: ('A' for Active; 'I' for Inactive)
    1  A    between atoms: C_5  and  C_18
    2  A    between atoms: C_12  and  C_28
    3  A    between atoms: C_17  and  N_29
    4  A    between atoms: C_18  and  N_29
                            x       y       z     vdW  Elec       q    Type
                         _______ _______ _______ _____ _____    ______ ____

>  <TORSDO>
F 4

$$$$
=
 OpenBabel10262423583D

 34 40  0  0  1  0  0  0  0  0999 V2000
  190.2420  177.8310  146.2750 C   0  0  2  0  0  3  0  0  0  0  0  0
  191.5910  175.8940  145.3120 C   0  0  0  0  0  2  0  0  0  0  0  0
  189.6510  176.7600  143.9960 C   0  0  1  0  0  3  0  0  0  0  0  0
  189.3200  176.8500  141.3990 C   0  0  2  0  0  3  0  0  0  0  0  0
  191.4910  176.4390  147.8130 N   0  0  2  0  0  0  0  0  0  0  0  0
  191.6210  174.9960  147.5760 C   0  0  0  0  0  2  0  0  0  0  0  0
  191.2200  175.9020  142.4220 O   0  0  0  0  0  0  0  0  0  0  0  0
  190.7710  177.1560  144.9850 C   0  0  1  0  0  3  0  0  0  0  0  0
  190.1400  176.8350  147.4170 C   0  0  0  0  0  2  0  0  0  0  0  0
  188.5430  177.8210  143.9690 C   0  0  1  0  0  3  0  0  0  0  0  0
  188.9630  178.6540  146.1030 C   0  0  0  0  0  2  0  0  0  0  0  0
  192.3040  175.9200  146.6750 C   0  0  1  0  0  3  0  0  0  0  0  0
  187.9120  177.0600  141.7520 N   0  0  0  0  0  0  0  0  0  0  0  0
  187.5080  177.5010  142.9090 C   0  0  0  0  0  0  0  0  0  0  0  0
  190.1570  176.4780  142.5970 C   0  0  0  0  0  0  0  0  0  0  0  0
  187.9800  177.9350  145.3050 N   0  0  0  0  0  2  0  0  0  0  0  0
  184.1180  178.4530  143.9450 C   0  0  1  0  0  3  0  0  0  0  0  0
  183.4200  179.2410  141.5800 C   0  0  0  0  0  1  0  0  0  0  0  0
  186.0700  177.8000  143.0660 C   0  0  0  0  0  0  0  0  0  0  0  0
  183.8850  178.0860  142.4590 C   0  0  1  0  0  3  0  0  0  0  0  0
  185.5440  178.2510  144.1510 N   0  0  0  0  0  0  0  0  0  0  0  0
  185.1650  177.6600  142.0320 O   0  0  0  0  0  0  0  0  0  0  0  0
  183.7320  179.8730  144.3360 C   0  0  0  0  0  1  0  0  0  0  0  0
  189.8850  178.0590  140.6560 C   0  0  0  0  0  2  0  0  0  0  0  0
  190.6200  177.6490  139.4690 N   0  0  0  0  0  2  0  0  0  0  0  0
  190.5010  176.1890  137.5220 C   0  0  0  0  0  2  0  0  0  0  0  0
  187.8350  175.0600  137.5980 O   0  0  0  0  0  1  0  0  0  0  0  0
  189.2490  177.0350  137.5240 C   0  0  1  0  0  0  0  0  0  0  0  0
  187.9920  176.3210  137.0160 C   0  0  2  0  0  3  0  0  0  0  0  0
  189.8530  176.5810  138.8480 C   0  0  2  0  0  3  0  0  0  0  0  0
  187.1990  178.8280  136.5700 C   0  0  0  0  0  2  0  0  0  0  0  0
  188.3490  179.3060  137.3290 N   0  0  0  0  0  2  0  0  0  0  0  0
  189.4940  178.4570  137.0180 C   0  0  0  0  0  2  0  0  0  0  0  0
  186.5130  177.3350  137.3620 S   0  0  0  0  0  0  0  0  0  0  0  0
  1 11  1  6  0  0  0
  1  9  1  0  0  0  0
  3 15  1  6  0  0  0
  3  8  1  0  0  0  0
  4 24  1  1  0  0  0
  4 13  1  0  0  0  0
  4 15  1  0  0  0  0
  5  9  1  6  0  0  0
  6  5  1  0  0  0  0
  7 15  2  0  0  0  0
  8  2  1  1  0  0  0
  8  1  1  0  0  0  0
 10 14  1  6  0  0  0
 10  3  1  0  0  0  0
 10 16  1  0  0  0  0
 12  2  1  6  0  0  0
 12  6  1  0  0  0  0
 12  5  1  0  0  0  0
 13 14  2  0  0  0  0
 14 19  1  0  0  0  0
 16 11  1  0  0  0  0
 17 21  1  0  0  0  0
 17 23  1  6  0  0  0
 19 21  2  0  0  0  0
 20 18  1  6  0  0  0
 20 17  1  0  0  0  0
 22 20  1  0  0  0  0
 22 19  1  0  0  0  0
 25 24  1  0  0  0  0
 26 28  1  0  0  0  0
 26 30  1  0  0  0  0
 28 33  1  6  0  0  0
 28 30  1  0  0  0  0
 29 34  1  0  0  0  0
 29 28  1  0  0  0  0
 29 27  1  1  0  0  0
 30 25  1  1  0  0  0
 31 32  1  0  0  0  0
 31 34  1  0  0  0  0
 33 32  1  0  0  0  0
M  END
>  <MODEL>
9

>  <REMARK>
 VINA RESULT:      -6.9      3.250      6.121
  Name = 
  4 active torsions:
  status: ('A' for Active; 'I' for Inactive)
    1  A    between atoms: C_5  and  C_18
    2  A    between atoms: C_12  and  C_28
    3  A    between atoms: C_17  and  N_29
    4  A    between atoms: C_18  and  N_29
                            x       y       z     vdW  Elec       q    Type
                         _______ _______ _______ _____ _____    ______ ____

>  <TORSDO>
F 4

$$$$
