=
 OpenBabel10272414243D

 43 47  0  0  1  0  0  0  0  0999 V2000
  187.3960  177.9310  147.2020 C   0  0  0  0  0  0  0  0  0  0  0  0
  184.2960  178.8430  143.3780 N   0  0  0  0  0  0  0  0  0  0  0  0
  185.4790  178.6040  145.8410 C   0  0  0  0  0  0  0  0  0  0  0  0
  188.1160  177.5330  146.1470 C   0  0  0  0  0  3  0  0  0  0  0  0
  187.9750  177.8130  148.5650 C   0  0  0  0  0  1  0  0  0  0  0  0
  186.2210  178.1780  144.6270 C   0  0  0  0  0  0  0  0  0  0  0  0
  186.0400  178.4830  147.0430 C   0  0  0  0  0  3  0  0  0  0  0  0
  187.6150  177.6120  144.7270 C   0  0  0  0  0  2  0  0  0  0  0  0
  186.1340  177.9670  142.1240 C   0  0  0  0  0  2  0  0  0  0  0  0
  185.6030  178.3180  143.4520 C   0  0  0  0  0  0  0  0  0  0  0  0
  183.5830  179.2600  144.5500 C   0  0  0  0  0  3  0  0  0  0  0  0
  183.8250  178.8900  142.0120 C   0  0  1  0  0  3  0  0  0  0  0  0
  185.0100  178.3930  141.1620 C   0  0  1  0  0  3  0  0  0  0  0  0
  184.1510  179.1430  145.7160 N   0  0  0  0  0  0  0  0  0  0  0  0
  182.6460  177.9460  141.8430 C   0  0  0  0  0  2  0  0  0  0  0  0
  181.5100  178.6670  141.2960 N   0  0  0  0  0  2  0  0  0  0  0  0
  180.8770  178.1250  137.6470 C   0  0  0  0  0  3  0  0  0  0  0  0
  181.3990  180.4560  138.0340 C   0  0  0  0  0  3  0  0  0  0  0  0
  181.0710  179.4190  137.1570 C   0  0  0  0  0  0  0  0  0  0  0  0
  181.0140  177.8690  139.0140 C   0  0  0  0  0  3  0  0  0  0  0  0
  181.3440  178.9080  139.8980 C   0  0  0  0  0  0  0  0  0  0  0  0
  180.9440  179.6660  135.8320 F   0  0  0  0  0  0  0  0  0  0  0  0
  181.5380  180.2010  139.4000 C   0  0  0  0  0  3  0  0  0  0  0  0
  185.4760  179.4380  140.3320 O   0  0  0  0  0  0  0  0  0  0  0  0
  185.7550  178.9630  139.0720 N   0  0  0  0  0  0  0  0  0  0  0  0
  184.5830  178.3390  138.4600 C   0  0  0  0  0  1  0  0  0  0  0  0
  186.8740  178.0190  139.0770 C   0  0  0  0  0  2  0  0  0  0  0  0
  187.9920  178.5430  138.2440 C   0  0  0  0  0  0  0  0  0  0  0  0
  187.7450  179.0960  137.1900 O   0  0  0  0  0  0  0  0  0  0  0  0
  189.4150  178.3750  138.6790 C   0  0  0  0  0  2  0  0  0  0  0  0
  189.7350  176.9550  139.1580 C   0  0  2  0  0  3  0  0  0  0  0  0
  191.1870  177.3030  141.1960 C   0  0  0  0  0  0  0  0  0  0  0  0
  189.9430  176.9350  140.5980 N   0  0  0  0  0  2  0  0  0  0  0  0
  192.1730  177.6050  140.4700 O   0  0  0  0  0  0  0  0  0  0  0  0
  191.3180  177.3050  142.6610 C   0  0  0  0  0  0  0  0  0  0  0  0
  191.3990  178.4550  144.7650 C   0  0  0  0  0  3  0  0  0  0  0  0
  191.6450  176.1090  144.6800 C   0  0  0  0  0  3  0  0  0  0  0  0
  191.5920  177.2660  145.3890 N   0  0  0  0  0  0  0  0  0  0  0  0
  191.5100  176.1350  143.3290 N   0  0  0  0  0  0  0  0  0  0  0  0
  191.2570  178.5000  143.3800 C   0  0  0  0  0  3  0  0  0  0  0  0
  190.9500  176.3700  138.4500 C   0  0  0  0  0  2  0  0  0  0  0  0
  191.6910  174.2250  137.6980 O   0  0  0  0  0  1  0  0  0  0  0  0
  190.5950  175.0920  137.7090 C   0  0  0  0  0  2  0  0  0  0  0  0
  1  5  1  0  0  0  0
  2 10  1  0  0  0  0
  2 11  1  0  0  0  0
  3  7  2  0  0  0  0
  4  1  2  0  0  0  0
  6  8  1  0  0  0  0
  6  3  1  0  0  0  0
  7  1  1  0  0  0  0
  8  4  1  0  0  0  0
  9 10  1  0  0  0  0
 10  6  2  0  0  0  0
 11 14  2  0  0  0  0
 12 15  1  1  0  0  0
 12  2  1  0  0  0  0
 13 24  1  6  0  0  0
 13 12  1  0  0  0  0
 13  9  1  0  0  0  0
 14  3  1  0  0  0  0
 16 15  1  0  0  0  0
 17 20  1  0  0  0  0
 18 23  2  0  0  0  0
 19 17  2  0  0  0  0
 19 18  1  0  0  0  0
 20 21  2  0  0  0  0
 21 16  1  0  0  0  0
 22 19  1  0  0  0  0
 23 21  1  0  0  0  0
 25 27  1  0  0  0  0
 25 24  1  0  0  0  0
 26 25  1  0  0  0  0
 28 30  1  0  0  0  0
 28 27  1  0  0  0  0
 29 28  2  0  0  0  0
 30 31  1  0  0  0  0
 31 41  1  6  0  0  0
 31 33  1  0  0  0  0
 32 35  1  0  0  0  0
 33 32  1  0  0  0  0
 34 32  2  0  0  0  0
 35 39  2  0  0  0  0
 35 40  1  0  0  0  0
 36 38  1  0  0  0  0
 37 38  2  0  0  0  0
 39 37  1  0  0  0  0
 40 36  2  0  0  0  0
 42 43  1  0  0  0  0
 43 41  1  0  0  0  0
M  END
>  <MODEL>
1

>  <REMARK>
 VINA RESULT:      -8.9      0.000      0.000
  Name = 
  13 active torsions:
  status: ('A' for Active; 'I' for Inactive)
    1  A    between atoms: C_1  and  N_28
    2  A    between atoms: C_1  and  C_34
    3  A    between atoms: N_2  and  C_6
    4  A    between atoms: N_2  and  O_13
    5  A    between atoms: C_3  and  C_4
    6  A    between atoms: C_3  and  C_12
    7  A    between atoms: C_4  and  C_15
    8  A    between atoms: C_4  and  N_22
    9  A    between atoms: C_6  and  C_12
   10  A    between atoms: C_11  and  C_14
   11  A    between atoms: O_13  and  C_38
   12  A    between atoms: C_15  and  C_42
   13  A    between atoms: N_28  and  C_35
                            x       y       z     vdW  Elec       q    Type
                         _______ _______ _______ _____ _____    ______ ____

>  <TORSDO>
F 13

$$$$
=
 OpenBabel10272414243D

 43 47  0  0  1  0  0  0  0  0999 V2000
  186.8030  178.1110  146.7270 C   0  0  0  0  0  0  0  0  0  0  0  0
  183.9560  178.9080  142.6870 N   0  0  0  0  0  0  0  0  0  0  0  0
  184.9730  178.7300  145.2270 C   0  0  0  0  0  0  0  0  0  0  0  0
  187.5990  177.7080  145.7290 C   0  0  0  0  0  3  0  0  0  0  0  0
  187.2900  178.0270  148.1270 C   0  0  0  0  0  1  0  0  0  0  0  0
  185.8010  178.2960  144.0730 C   0  0  0  0  0  0  0  0  0  0  0  0
  185.4520  178.6390  146.4660 C   0  0  0  0  0  3  0  0  0  0  0  0
  187.1940  177.7540  144.2780 C   0  0  0  0  0  2  0  0  0  0  0  0
  185.8870  178.0410  141.5750 C   0  0  0  0  0  2  0  0  0  0  0  0
  185.2620  178.4050  142.8580 C   0  0  0  0  0  0  0  0  0  0  0  0
  183.1590  179.3330  143.7990 C   0  0  0  0  0  3  0  0  0  0  0  0
  183.5770  178.9240  141.2910 C   0  0  1  0  0  3  0  0  0  0  0  0
  184.8240  178.4320  140.5320 C   0  0  1  0  0  3  0  0  0  0  0  0
  183.6480  179.2460  145.0030 N   0  0  0  0  0  0  0  0  0  0  0  0
  182.4270  177.9590  141.0600 C   0  0  0  0  0  2  0  0  0  0  0  0
  182.9250  176.7300  140.4650 N   0  0  0  0  0  2  0  0  0  0  0  0
  180.0620  174.8870  138.9100 C   0  0  0  0  0  3  0  0  0  0  0  0
  182.0420  174.5920  137.5490 C   0  0  0  0  0  3  0  0  0  0  0  0
  180.6880  174.3400  137.7870 C   0  0  0  0  0  0  0  0  0  0  0  0
  180.7920  175.6830  139.7970 C   0  0  0  0  0  3  0  0  0  0  0  0
  182.1520  175.9370  139.5630 C   0  0  0  0  0  0  0  0  0  0  0  0
  179.9820  173.5650  136.9300 F   0  0  0  0  0  0  0  0  0  0  0  0
  182.7720  175.3860  138.4360 C   0  0  0  0  0  3  0  0  0  0  0  0
  185.3300  179.4700  139.7170 O   0  0  0  0  0  0  0  0  0  0  0  0
  185.7520  178.9690  138.5070 N   0  0  0  0  0  0  0  0  0  0  0  0
  184.6760  178.2680  137.8090 C   0  0  0  0  0  1  0  0  0  0  0  0
  186.9080  178.0820  138.6550 C   0  0  0  0  0  2  0  0  0  0  0  0
  188.0560  178.5980  137.8580 C   0  0  0  0  0  0  0  0  0  0  0  0
  187.8500  179.1160  136.7780 O   0  0  0  0  0  0  0  0  0  0  0  0
  189.4590  178.4640  138.3630 C   0  0  0  0  0  2  0  0  0  0  0  0
  189.6850  177.1920  139.1870 C   0  0  2  0  0  3  0  0  0  0  0  0
  189.8720  176.9240  141.6920 C   0  0  0  0  0  0  0  0  0  0  0  0
  190.3040  177.5130  140.4640 N   0  0  0  0  0  2  0  0  0  0  0  0
  188.8840  176.1410  141.7040 O   0  0  0  0  0  0  0  0  0  0  0  0
  190.5690  177.2550  142.9430 C   0  0  0  0  0  0  0  0  0  0  0  0
  191.3720  176.6630  145.1250 C   0  0  0  0  0  3  0  0  0  0  0  0
  191.7120  178.8410  144.2820 C   0  0  0  0  0  3  0  0  0  0  0  0
  191.8560  177.9220  145.2710 N   0  0  0  0  0  0  0  0  0  0  0  0
  191.0720  178.5050  143.1320 N   0  0  0  0  0  0  0  0  0  0  0  0
  190.7160  176.3010  143.9510 C   0  0  0  0  0  3  0  0  0  0  0  0
  190.5310  176.1670  138.4430 C   0  0  0  0  0  2  0  0  0  0  0  0
  190.0710  174.0280  137.4810 O   0  0  0  0  0  1  0  0  0  0  0  0
  189.6940  175.3740  137.4540 C   0  0  0  0  0  2  0  0  0  0  0  0
  1  5  1  0  0  0  0
  2 10  1  0  0  0  0
  2 11  1  0  0  0  0
  3  7  2  0  0  0  0
  4  1  2  0  0  0  0
  6  8  1  0  0  0  0
  6  3  1  0  0  0  0
  7  1  1  0  0  0  0
  8  4  1  0  0  0  0
  9 10  1  0  0  0  0
 10  6  2  0  0  0  0
 11 14  2  0  0  0  0
 12 15  1  1  0  0  0
 12  2  1  0  0  0  0
 13 24  1  6  0  0  0
 13 12  1  0  0  0  0
 13  9  1  0  0  0  0
 14  3  1  0  0  0  0
 16 15  1  0  0  0  0
 17 20  1  0  0  0  0
 18 19  1  0  0  0  0
 18 23  2  0  0  0  0
 19 17  2  0  0  0  0
 21 20  2  0  0  0  0
 21 16  1  0  0  0  0
 22 19  1  0  0  0  0
 23 21  1  0  0  0  0
 25 27  1  0  0  0  0
 25 24  1  0  0  0  0
 26 25  1  0  0  0  0
 28 30  1  0  0  0  0
 28 27  1  0  0  0  0
 29 28  2  0  0  0  0
 31 30  1  6  0  0  0
 31 33  1  0  0  0  0
 32 34  2  0  0  0  0
 32 35  1  0  0  0  0
 33 32  1  0  0  0  0
 35 39  2  0  0  0  0
 35 40  1  0  0  0  0
 36 38  1  0  0  0  0
 37 38  2  0  0  0  0
 39 37  1  0  0  0  0
 40 36  2  0  0  0  0
 41 31  1  0  0  0  0
 43 42  1  0  0  0  0
 43 41  1  0  0  0  0
M  END
>  <MODEL>
2

>  <REMARK>
 VINA RESULT:      -8.6      1.833      2.239
  Name = 
  13 active torsions:
  status: ('A' for Active; 'I' for Inactive)
    1  A    between atoms: C_1  and  N_28
    2  A    between atoms: C_1  and  C_34
    3  A    between atoms: N_2  and  C_6
    4  A    between atoms: N_2  and  O_13
    5  A    between atoms: C_3  and  C_4
    6  A    between atoms: C_3  and  C_12
    7  A    between atoms: C_4  and  C_15
    8  A    between atoms: C_4  and  N_22
    9  A    between atoms: C_6  and  C_12
   10  A    between atoms: C_11  and  C_14
   11  A    between atoms: O_13  and  C_38
   12  A    between atoms: C_15  and  C_42
   13  A    between atoms: N_28  and  C_35
                            x       y       z     vdW  Elec       q    Type
                         _______ _______ _______ _____ _____    ______ ____

>  <TORSDO>
F 13

$$$$
=
 OpenBabel10272414243D

 43 47  0  0  1  0  0  0  0  0999 V2000
  193.6830  174.8460  136.3370 C   0  0  0  0  0  0  0  0  0  0  0  0
  190.6330  177.2340  139.5080 N   0  0  0  0  0  0  0  0  0  0  0  0
  192.7870  176.1590  138.1950 C   0  0  0  0  0  0  0  0  0  0  0  0
  192.4780  174.6310  135.7950 C   0  0  0  0  0  3  0  0  0  0  0  0
  194.8890  174.2780  135.6820 C   0  0  0  0  0  1  0  0  0  0  0  0
  191.4210  175.9570  137.6500 C   0  0  0  0  0  0  0  0  0  0  0  0
  193.8400  175.6340  137.5720 C   0  0  0  0  0  3  0  0  0  0  0  0
  191.1990  175.1650  136.3860 C   0  0  0  0  0  2  0  0  0  0  0  0
  188.9760  176.4360  137.9800 C   0  0  0  0  0  2  0  0  0  0  0  0
  190.4060  176.5020  138.3240 C   0  0  0  0  0  0  0  0  0  0  0  0
  191.9520  177.4350  140.0300 C   0  0  0  0  0  3  0  0  0  0  0  0
  189.3920  177.7190  140.0720 C   0  0  1  0  0  3  0  0  0  0  0  0
  188.3010  177.2790  139.0770 C   0  0  1  0  0  3  0  0  0  0  0  0
  192.9710  176.9220  139.4020 N   0  0  0  0  0  0  0  0  0  0  0  0
  189.1480  177.0590  141.4180 C   0  0  0  0  0  2  0  0  0  0  0  0
  189.3630  178.0210  142.4860 N   0  0  0  0  0  2  0  0  0  0  0  0
  189.6780  177.6520  146.1980 C   0  0  0  0  0  3  0  0  0  0  0  0
  191.5620  176.5800  145.1210 C   0  0  0  0  0  3  0  0  0  0  0  0
  190.8770  176.9390  146.2850 C   0  0  0  0  0  0  0  0  0  0  0  0
  189.1670  178.0080  144.9470 C   0  0  0  0  0  3  0  0  0  0  0  0
  189.8530  177.6510  143.7760 C   0  0  0  0  0  0  0  0  0  0  0  0
  191.3740  176.5990  147.4970 F   0  0  0  0  0  0  0  0  0  0  0  0
  191.0540  176.9370  143.8710 C   0  0  0  0  0  3  0  0  0  0  0  0
  187.7020  178.4160  138.4890 O   0  0  0  0  0  0  0  0  0  0  0  0
  186.9170  178.0480  137.4210 N   0  0  0  0  0  0  0  0  0  0  0  0
  187.3940  178.6400  136.1720 C   0  0  0  0  0  1  0  0  0  0  0  0
  185.5100  178.3960  137.6300 C   0  0  0  0  0  2  0  0  0  0  0  0
  184.7040  177.1640  137.8560 C   0  0  0  0  0  0  0  0  0  0  0  0
  184.8870  176.1910  137.1510 O   0  0  0  0  0  0  0  0  0  0  0  0
  183.6580  177.1190  138.9270 C   0  0  0  0  0  2  0  0  0  0  0  0
  183.3170  178.5010  139.4940 C   0  0  2  0  0  3  0  0  0  0  0  0
  184.5370  178.6720  141.7000 C   0  0  0  0  0  0  0  0  0  0  0  0
  183.3380  178.4770  140.9490 N   0  0  0  0  0  2  0  0  0  0  0  0
  185.6400  178.8150  141.1040 O   0  0  0  0  0  0  0  0  0  0  0  0
  184.4830  178.6820  143.1690 C   0  0  0  0  0  0  0  0  0  0  0  0
  185.5330  178.4700  145.3150 C   0  0  0  0  0  3  0  0  0  0  0  0
  183.2190  178.9010  145.1610 C   0  0  0  0  0  3  0  0  0  0  0  0
  184.3320  178.6860  145.9070 N   0  0  0  0  0  0  0  0  0  0  0  0
  183.2990  178.8970  143.8050 N   0  0  0  0  0  0  0  0  0  0  0  0
  185.6350  178.4640  143.9260 C   0  0  0  0  0  3  0  0  0  0  0  0
  181.9670  179.0080  139.0030 C   0  0  0  0  0  2  0  0  0  0  0  0
  183.2680  181.0010  138.7850 O   0  0  0  0  0  1  0  0  0  0  0  0
  181.9590  180.5220  138.8760 C   0  0  0  0  0  2  0  0  0  0  0  0
  1  7  1  0  0  0  0
  2 11  1  0  0  0  0
  2 12  1  0  0  0  0
  3 14  1  0  0  0  0
  4  1  2  0  0  0  0
  4  8  1  0  0  0  0
  5  1  1  0  0  0  0
  6  3  1  0  0  0  0
  6 10  2  0  0  0  0
  7  3  2  0  0  0  0
  8  6  1  0  0  0  0
  9 10  1  0  0  0  0
  9 13  1  0  0  0  0
 10  2  1  0  0  0  0
 12 15  1  1  0  0  0
 13 24  1  6  0  0  0
 13 12  1  0  0  0  0
 14 11  2  0  0  0  0
 15 16  1  0  0  0  0
 16 21  1  0  0  0  0
 17 19  1  0  0  0  0
 18 19  2  0  0  0  0
 19 22  1  0  0  0  0
 20 17  2  0  0  0  0
 21 23  2  0  0  0  0
 21 20  1  0  0  0  0
 23 18  1  0  0  0  0
 25 27  1  0  0  0  0
 25 24  1  0  0  0  0
 26 25  1  0  0  0  0
 27 28  1  0  0  0  0
 28 30  1  0  0  0  0
 29 28  2  0  0  0  0
 31 30  1  6  0  0  0
 31 33  1  0  0  0  0
 32 35  1  0  0  0  0
 33 32  1  0  0  0  0
 34 32  2  0  0  0  0
 35 39  2  0  0  0  0
 35 40  1  0  0  0  0
 36 38  1  0  0  0  0
 37 38  2  0  0  0  0
 39 37  1  0  0  0  0
 40 36  2  0  0  0  0
 41 31  1  0  0  0  0
 42 43  1  0  0  0  0
 43 41  1  0  0  0  0
M  END
>  <MODEL>
3

>  <REMARK>
 VINA RESULT:      -8.4      3.124      8.985
  Name = 
  13 active torsions:
  status: ('A' for Active; 'I' for Inactive)
    1  A    between atoms: C_1  and  N_28
    2  A    between atoms: C_1  and  C_34
    3  A    between atoms: N_2  and  C_6
    4  A    between atoms: N_2  and  O_13
    5  A    between atoms: C_3  and  C_4
    6  A    between atoms: C_3  and  C_12
    7  A    between atoms: C_4  and  C_15
    8  A    between atoms: C_4  and  N_22
    9  A    between atoms: C_6  and  C_12
   10  A    between atoms: C_11  and  C_14
   11  A    between atoms: O_13  and  C_38
   12  A    between atoms: C_15  and  C_42
   13  A    between atoms: N_28  and  C_35
                            x       y       z     vdW  Elec       q    Type
                         _______ _______ _______ _____ _____    ______ ____

>  <TORSDO>
F 13

$$$$
=
 OpenBabel10272414243D

 43 47  0  0  1  0  0  0  0  0999 V2000
  191.5090  176.2930  146.9850 C   0  0  0  0  0  0  0  0  0  0  0  0
  188.9280  177.1460  142.7810 N   0  0  0  0  0  0  0  0  0  0  0  0
  190.7630  176.3500  144.6570 C   0  0  2  0  0  3  0  0  0  0  0  0
  190.4520  176.9840  147.4310 C   0  0  0  0  0  3  0  0  0  0  0  0
  192.5460  175.8460  147.9500 C   0  0  0  0  0  1  0  0  0  0  0  0
  189.5680  177.1230  145.0820 C   0  0  0  0  0  0  0  0  0  0  0  0
  191.6660  175.9660  145.5580 C   0  0  0  0  0  3  0  0  0  0  0  0
  189.3500  177.4810  146.5310 C   0  0  0  0  0  3  0  0  0  0  0  0
  187.4580  178.2490  144.3110 C   0  0  0  0  0  2  0  0  0  0  0  0
  188.7040  177.4840  144.1320 C   0  0  0  0  0  0  0  0  0  0  0  0
  190.0770  176.3950  142.3720 C   0  0  0  0  0  3  0  0  0  0  0  0
  187.8720  177.6500  141.9310 C   0  0  1  0  0  3  0  0  0  0  0  0
  186.8670  178.3150  142.8910 C   0  0  1  0  0  3  0  0  0  0  0  0
  190.9450  176.0190  143.2680 N   0  0  0  0  0  0  0  0  0  0  0  0
  188.4340  178.6940  140.9810 C   0  0  0  0  0  2  0  0  0  0  0  0
  188.0250  178.3940  139.6190 N   0  0  0  0  0  2  0  0  0  0  0  0
  188.8670  175.8660  136.9890 C   0  0  0  0  0  3  0  0  0  0  0  0
  190.8990  176.5920  138.0860 C   0  0  0  0  0  3  0  0  0  0  0  0
  190.2550  175.7990  137.1320 C   0  0  0  0  0  0  0  0  0  0  0  0
  188.1220  176.7260  137.8020 C   0  0  0  0  0  3  0  0  0  0  0  0
  188.7650  177.5230  138.7620 C   0  0  0  0  0  0  0  0  0  0  0  0
  190.9750  174.9630  136.3480 F   0  0  0  0  0  0  0  0  0  0  0  0
  190.1560  177.4490  138.9000 C   0  0  0  0  0  3  0  0  0  0  0  0
  185.6410  177.6110  142.8640 O   0  0  0  0  0  0  0  0  0  0  0  0
  184.6030  178.4660  142.5750 N   0  0  0  0  0  0  0  0  0  0  0  0
  183.6880  178.6040  143.7070 C   0  0  0  0  0  1  0  0  0  0  0  0
  183.8610  178.0440  141.3850 C   0  0  0  0  0  2  0  0  0  0  0  0
  183.9820  179.0720  140.3130 C   0  0  0  0  0  0  0  0  0  0  0  0
  185.0420  179.6450  140.1500 O   0  0  0  0  0  0  0  0  0  0  0  0
  182.8090  179.4200  139.4510 C   0  0  0  0  0  2  0  0  0  0  0  0
  182.1580  178.1970  138.7970 C   0  0  2  0  0  3  0  0  0  0  0  0
  183.4340  176.1330  138.0960 C   0  0  0  0  0  0  0  0  0  0  0  0
  183.1050  177.5130  137.9310 N   0  0  0  0  0  2  0  0  0  0  0  0
  182.9430  175.4760  139.0540 O   0  0  0  0  0  0  0  0  0  0  0  0
  184.3650  175.4890  137.1580 C   0  0  0  0  0  0  0  0  0  0  0  0
  185.6670  175.5020  135.1430 C   0  0  0  0  0  3  0  0  0  0  0  0
  185.6620  173.6030  136.5440 C   0  0  0  0  0  3  0  0  0  0  0  0
  186.0830  174.2410  135.4220 N   0  0  0  0  0  0  0  0  0  0  0  0
  184.8090  174.2260  137.3990 N   0  0  0  0  0  0  0  0  0  0  0  0
  184.7950  176.1560  136.0090 C   0  0  0  0  0  3  0  0  0  0  0  0
  180.9060  178.5640  138.0090 C   0  0  0  0  0  2  0  0  0  0  0  0
  180.9260  180.1630  136.2320 O   0  0  0  0  0  1  0  0  0  0  0  0
  181.2320  178.8370  136.5510 C   0  0  0  0  0  2  0  0  0  0  0  0
  1  4  1  0  0  0  0
  1  5  1  0  0  0  0
  2 10  1  0  0  0  0
  3  6  1  0  0  0  0
  3  7  1  6  0  0  0
  6  8  1  0  0  0  0
  7  1  2  0  0  0  0
  8  4  2  0  0  0  0
 10  9  1  0  0  0  0
 10  6  2  0  0  0  0
 11  2  1  0  0  0  0
 11 14  2  0  0  0  0
 12 15  1  6  0  0  0
 12  2  1  0  0  0  0
 12 13  1  0  0  0  0
 13 24  1  1  0  0  0
 13  9  1  0  0  0  0
 14  3  1  0  0  0  0
 16 15  1  0  0  0  0
 17 19  2  0  0  0  0
 17 20  1  0  0  0  0
 18 23  2  0  0  0  0
 19 18  1  0  0  0  0
 20 21  2  0  0  0  0
 21 23  1  0  0  0  0
 21 16  1  0  0  0  0
 22 19  1  0  0  0  0
 25 24  1  0  0  0  0
 25 26  1  0  0  0  0
 27 25  1  0  0  0  0
 28 27  1  0  0  0  0
 29 28  2  0  0  0  0
 30 28  1  0  0  0  0
 31 41  1  6  0  0  0
 31 30  1  0  0  0  0
 32 34  2  0  0  0  0
 33 32  1  0  0  0  0
 33 31  1  0  0  0  0
 35 39  1  0  0  0  0
 35 32  1  0  0  0  0
 36 38  2  0  0  0  0
 36 40  1  0  0  0  0
 37 39  2  0  0  0  0
 38 37  1  0  0  0  0
 40 35  2  0  0  0  0
 42 43  1  0  0  0  0
 43 41  1  0  0  0  0
M  END
>  <MODEL>
4

>  <REMARK>
 VINA RESULT:      -8.4      3.127      7.523
  Name = 
  13 active torsions:
  status: ('A' for Active; 'I' for Inactive)
    1  A    between atoms: C_1  and  N_28
    2  A    between atoms: C_1  and  C_34
    3  A    between atoms: N_2  and  C_6
    4  A    between atoms: N_2  and  O_13
    5  A    between atoms: C_3  and  C_4
    6  A    between atoms: C_3  and  C_12
    7  A    between atoms: C_4  and  C_15
    8  A    between atoms: C_4  and  N_22
    9  A    between atoms: C_6  and  C_12
   10  A    between atoms: C_11  and  C_14
   11  A    between atoms: O_13  and  C_38
   12  A    between atoms: C_15  and  C_42
   13  A    between atoms: N_28  and  C_35
                            x       y       z     vdW  Elec       q    Type
                         _______ _______ _______ _____ _____    ______ ____

>  <TORSDO>
F 13

$$$$
=
 OpenBabel10272414243D

 43 47  0  0  1  0  0  0  0  0999 V2000
  182.5730  178.8300  143.7350 C   0  0  0  0  0  0  0  0  0  0  0  0
  187.4800  177.8690  143.5080 N   0  0  0  0  0  0  0  0  0  0  0  0
  184.8820  178.2520  144.2950 C   0  0  0  0  0  0  0  0  0  0  0  0
  182.8390  178.9980  142.4340 C   0  0  0  0  0  3  0  0  0  0  0  0
  181.1870  179.0370  144.2270 C   0  0  0  0  0  1  0  0  0  0  0  0
  185.2480  178.4250  142.8660 C   0  0  0  0  0  0  0  0  0  0  0  0
  183.6250  178.4440  144.6910 C   0  0  0  0  0  3  0  0  0  0  0  0
  184.2120  178.8120  141.8410 C   0  0  0  0  0  2  0  0  0  0  0  0
  187.1190  178.3380  141.1910 C   0  0  0  0  0  2  0  0  0  0  0  0
  186.5250  178.2250  142.5340 C   0  0  0  0  0  0  0  0  0  0  0  0
  187.1260  177.6960  144.8850 C   0  0  0  0  0  3  0  0  0  0  0  0
  188.7950  177.7170  142.9230 C   0  0  1  0  0  3  0  0  0  0  0  0
  188.5920  177.9490  141.4140 C   0  0  1  0  0  3  0  0  0  0  0  0
  185.8890  177.8790  145.2530 N   0  0  0  0  0  0  0  0  0  0  0  0
  189.7290  178.7790  143.4790 C   0  0  0  0  0  2  0  0  0  0  0  0
  191.0010  178.1780  143.8420 N   0  0  0  0  0  2  0  0  0  0  0  0
  190.7970  176.8960  147.3530 C   0  0  0  0  0  3  0  0  0  0  0  0
  192.1180  175.3710  146.0170 C   0  0  0  0  0  3  0  0  0  0  0  0
  191.5560  175.7280  147.2450 C   0  0  0  0  0  0  0  0  0  0  0  0
  190.6030  177.7080  146.2330 C   0  0  0  0  0  3  0  0  0  0  0  0
  191.1670  177.3540  144.9980 C   0  0  0  0  0  0  0  0  0  0  0  0
  191.7480  174.9440  148.3320 F   0  0  0  0  0  0  0  0  0  0  0  0
  191.9270  176.1830  144.8970 C   0  0  0  0  0  3  0  0  0  0  0  0
  188.8720  176.7580  140.7050 O   0  0  0  0  0  0  0  0  0  0  0  0
  189.6250  177.0300  139.5870 N   0  0  0  0  0  0  0  0  0  0  0  0
  191.0300  176.6780  139.7850 C   0  0  0  0  0  1  0  0  0  0  0  0
  189.5170  178.4340  139.1830 C   0  0  0  0  0  2  0  0  0  0  0  0
  188.7680  178.5430  137.9000 C   0  0  0  0  0  0  0  0  0  0  0  0
  188.9270  179.5210  137.1950 O   0  0  0  0  0  0  0  0  0  0  0  0
  187.8080  177.4730  137.4810 C   0  0  0  0  0  2  0  0  0  0  0  0
  186.6310  178.0080  136.6580 C   0  0  2  0  0  3  0  0  0  0  0  0
  184.5910  178.2770  138.1240 C   0  0  0  0  0  0  0  0  0  0  0  0
  185.3690  177.5220  137.1940 N   0  0  0  0  0  2  0  0  0  0  0  0
  185.0200  179.3820  138.5560 O   0  0  0  0  0  0  0  0  0  0  0  0
  183.3020  177.7500  138.5920 C   0  0  0  0  0  0  0  0  0  0  0  0
  181.9710  176.0160  139.5800 C   0  0  0  0  0  3  0  0  0  0  0  0
  180.9670  178.0320  138.8780 C   0  0  0  0  0  3  0  0  0  0  0  0
  180.8710  176.7960  139.4300 N   0  0  0  0  0  0  0  0  0  0  0  0
  182.1730  178.4990  138.4630 N   0  0  0  0  0  0  0  0  0  0  0  0
  183.2160  176.4790  139.1630 C   0  0  0  0  0  3  0  0  0  0  0  0
  186.7450  177.6400  135.1840 C   0  0  0  0  0  2  0  0  0  0  0  0
  186.7410  175.2710  134.8660 O   0  0  0  0  0  1  0  0  0  0  0  0
  187.5770  176.3840  134.9910 C   0  0  0  0  0  2  0  0  0  0  0  0
  1  5  1  0  0  0  0
  1  7  1  0  0  0  0
  2 11  1  0  0  0  0
  3  7  2  0  0  0  0
  3 14  1  0  0  0  0
  4  1  2  0  0  0  0
  6  3  1  0  0  0  0
  8  4  1  0  0  0  0
  8  6  1  0  0  0  0
  9 13  1  0  0  0  0
  9 10  1  0  0  0  0
 10  6  2  0  0  0  0
 10  2  1  0  0  0  0
 11 14  2  0  0  0  0
 12 15  1  1  0  0  0
 12  2  1  0  0  0  0
 13 24  1  6  0  0  0
 13 12  1  0  0  0  0
 15 16  1  0  0  0  0
 16 21  1  0  0  0  0
 18 19  2  0  0  0  0
 19 17  1  0  0  0  0
 19 22  1  0  0  0  0
 20 17  2  0  0  0  0
 21 20  1  0  0  0  0
 23 21  2  0  0  0  0
 23 18  1  0  0  0  0
 25 26  1  0  0  0  0
 25 24  1  0  0  0  0
 27 25  1  0  0  0  0
 28 27  1  0  0  0  0
 29 28  2  0  0  0  0
 30 28  1  0  0  0  0
 31 41  1  6  0  0  0
 31 33  1  0  0  0  0
 31 30  1  0  0  0  0
 32 34  2  0  0  0  0
 32 35  1  0  0  0  0
 33 32  1  0  0  0  0
 35 40  1  0  0  0  0
 37 38  2  0  0  0  0
 38 36  1  0  0  0  0
 39 35  2  0  0  0  0
 39 37  1  0  0  0  0
 40 36  2  0  0  0  0
 42 43  1  0  0  0  0
 43 41  1  0  0  0  0
M  END
>  <MODEL>
5

>  <REMARK>
 VINA RESULT:      -8.1      3.322      8.074
  Name = 
  13 active torsions:
  status: ('A' for Active; 'I' for Inactive)
    1  A    between atoms: C_1  and  N_28
    2  A    between atoms: C_1  and  C_34
    3  A    between atoms: N_2  and  C_6
    4  A    between atoms: N_2  and  O_13
    5  A    between atoms: C_3  and  C_4
    6  A    between atoms: C_3  and  C_12
    7  A    between atoms: C_4  and  C_15
    8  A    between atoms: C_4  and  N_22
    9  A    between atoms: C_6  and  C_12
   10  A    between atoms: C_11  and  C_14
   11  A    between atoms: O_13  and  C_38
   12  A    between atoms: C_15  and  C_42
   13  A    between atoms: N_28  and  C_35
                            x       y       z     vdW  Elec       q    Type
                         _______ _______ _______ _____ _____    ______ ____

>  <TORSDO>
F 13

$$$$
=
 OpenBabel10272414243D

 43 47  0  0  1  0  0  0  0  0999 V2000
  192.0810  175.7820  147.1470 C   0  0  0  0  0  0  0  0  0  0  0  0
  189.0960  177.7070  143.6190 N   0  0  0  0  0  0  0  0  0  0  0  0
  190.3900  177.0870  145.9560 C   0  0  0  0  0  0  0  0  0  0  0  0
  192.4830  175.1360  146.0460 C   0  0  0  0  0  3  0  0  0  0  0  0
  192.7330  175.4800  148.4470 C   0  0  0  0  0  1  0  0  0  0  0  0
  190.7830  176.4050  144.6970 C   0  0  0  0  0  0  0  0  0  0  0  0
  191.0050  176.7870  147.0990 C   0  0  0  0  0  3  0  0  0  0  0  0
  191.8820  175.3720  144.6840 C   0  0  0  0  0  2  0  0  0  0  0  0
  190.3370  176.2070  142.2320 C   0  0  0  0  0  2  0  0  0  0  0  0
  190.1250  176.7440  143.5870 C   0  0  0  0  0  0  0  0  0  0  0  0
  188.7210  178.3700  144.8340 C   0  0  0  0  0  3  0  0  0  0  0  0
  188.5180  177.9040  142.3080 C   0  0  1  0  0  3  0  0  0  0  0  0
  189.3370  176.9980  141.3690 C   0  0  1  0  0  3  0  0  0  0  0  0
  189.3400  178.0710  145.9400 N   0  0  0  0  0  0  0  0  0  0  0  0
  187.0680  177.4500  142.3140 C   0  0  0  0  0  2  0  0  0  0  0  0
  186.1910  178.5950  142.1290 N   0  0  0  0  0  2  0  0  0  0  0  0
  182.4640  178.7820  142.4140 C   0  0  0  0  0  3  0  0  0  0  0  0
  183.4400  178.7900  144.6280 C   0  0  0  0  0  3  0  0  0  0  0  0
  182.3140  178.8290  143.8020 C   0  0  0  0  0  0  0  0  0  0  0  0
  183.7410  178.6970  141.8520 C   0  0  0  0  0  3  0  0  0  0  0  0
  184.8740  178.6590  142.6790 C   0  0  0  0  0  0  0  0  0  0  0  0
  181.0770  178.9150  144.3450 F   0  0  0  0  0  0  0  0  0  0  0  0
  184.7160  178.7080  144.0680 C   0  0  0  0  0  3  0  0  0  0  0  0
  190.0490  177.7920  140.4400 O   0  0  0  0  0  0  0  0  0  0  0  0
  189.8260  177.3460  139.1580 N   0  0  0  0  0  0  0  0  0  0  0  0
  191.0090  176.6900  138.6020 C   0  0  0  0  0  1  0  0  0  0  0  0
  189.3940  178.4270  138.2700 C   0  0  0  0  0  2  0  0  0  0  0  0
  187.9520  178.2690  137.9320 C   0  0  0  0  0  0  0  0  0  0  0  0
  187.1130  178.4250  138.7980 O   0  0  0  0  0  0  0  0  0  0  0  0
  187.5270  177.9000  136.5440 C   0  0  0  0  0  2  0  0  0  0  0  0
  186.7360  176.5890  136.4850 C   0  0  2  0  0  3  0  0  0  0  0  0
  184.2690  176.9620  136.8850 C   0  0  0  0  0  0  0  0  0  0  0  0
  185.5780  176.6500  137.3650 N   0  0  0  0  0  2  0  0  0  0  0  0
  184.0940  177.2560  135.6710 O   0  0  0  0  0  0  0  0  0  0  0  0
  183.1330  176.9620  137.8180 C   0  0  0  0  0  0  0  0  0  0  0  0
  181.1440  177.9620  138.7130 C   0  0  0  0  0  3  0  0  0  0  0  0
  181.9550  175.9290  139.5960 C   0  0  0  0  0  3  0  0  0  0  0  0
  181.0420  176.9340  139.5920 N   0  0  0  0  0  0  0  0  0  0  0  0
  182.9890  175.9490  138.7160 N   0  0  0  0  0  0  0  0  0  0  0  0
  182.1970  177.9980  137.8020 C   0  0  0  0  0  3  0  0  0  0  0  0
  187.5940  175.3820  136.8400 C   0  0  0  0  0  2  0  0  0  0  0  0
  186.3870  173.3890  137.3770 O   0  0  0  0  0  1  0  0  0  0  0  0
  186.9750  174.0940  136.3230 C   0  0  0  0  0  2  0  0  0  0  0  0
  1  5  1  0  0  0  0
  2 11  1  0  0  0  0
  3  7  2  0  0  0  0
  4  1  2  0  0  0  0
  6  3  1  0  0  0  0
  7  1  1  0  0  0  0
  8  6  1  0  0  0  0
  8  4  1  0  0  0  0
  9 10  1  0  0  0  0
 10  2  1  0  0  0  0
 10  6  2  0  0  0  0
 11 14  2  0  0  0  0
 12 15  1  1  0  0  0
 12  2  1  0  0  0  0
 13 24  1  6  0  0  0
 13  9  1  0  0  0  0
 13 12  1  0  0  0  0
 14  3  1  0  0  0  0
 16 15  1  0  0  0  0
 16 21  1  0  0  0  0
 17 19  1  0  0  0  0
 19 22  1  0  0  0  0
 19 18  2  0  0  0  0
 20 17  2  0  0  0  0
 20 21  1  0  0  0  0
 21 23  2  0  0  0  0
 23 18  1  0  0  0  0
 25 24  1  0  0  0  0
 26 25  1  0  0  0  0
 27 25  1  0  0  0  0
 28 27  1  0  0  0  0
 28 29  2  0  0  0  0
 30 28  1  0  0  0  0
 31 30  1  1  0  0  0
 31 41  1  0  0  0  0
 31 33  1  0  0  0  0
 32 33  1  0  0  0  0
 32 35  1  0  0  0  0
 34 32  2  0  0  0  0
 35 39  1  0  0  0  0
 36 38  2  0  0  0  0
 38 37  1  0  0  0  0
 39 37  2  0  0  0  0
 40 35  2  0  0  0  0
 40 36  1  0  0  0  0
 43 41  1  0  0  0  0
 43 42  1  0  0  0  0
M  END
>  <MODEL>
6

>  <REMARK>
 VINA RESULT:      -8.0      2.629      6.339
  Name = 
  13 active torsions:
  status: ('A' for Active; 'I' for Inactive)
    1  A    between atoms: C_1  and  N_28
    2  A    between atoms: C_1  and  C_34
    3  A    between atoms: N_2  and  C_6
    4  A    between atoms: N_2  and  O_13
    5  A    between atoms: C_3  and  C_4
    6  A    between atoms: C_3  and  C_12
    7  A    between atoms: C_4  and  C_15
    8  A    between atoms: C_4  and  N_22
    9  A    between atoms: C_6  and  C_12
   10  A    between atoms: C_11  and  C_14
   11  A    between atoms: O_13  and  C_38
   12  A    between atoms: C_15  and  C_42
   13  A    between atoms: N_28  and  C_35
                            x       y       z     vdW  Elec       q    Type
                         _______ _______ _______ _____ _____    ______ ____

>  <TORSDO>
F 13

$$$$
=
 OpenBabel10272414243D

 43 47  0  0  1  0  0  0  0  0999 V2000
  187.4410  177.8600  147.2350 C   0  0  0  0  0  0  0  0  0  0  0  0
  184.3650  178.8740  143.4170 N   0  0  0  0  0  0  0  0  0  0  0  0
  185.5440  178.5950  145.8770 C   0  0  0  0  0  0  0  0  0  0  0  0
  188.1460  177.4410  146.1780 C   0  0  0  0  0  3  0  0  0  0  0  0
  188.0180  177.7230  148.5970 C   0  0  0  0  0  1  0  0  0  0  0  0
  186.2700  178.1470  144.6620 C   0  0  0  0  0  0  0  0  0  0  0  0
  186.1030  178.4550  147.0790 C   0  0  0  0  0  3  0  0  0  0  0  0
  187.6460  177.5370  144.7590 C   0  0  0  0  0  2  0  0  0  0  0  0
  186.1720  177.9410  142.1590 C   0  0  0  0  0  2  0  0  0  0  0  0
  185.6550  178.3070  143.4880 C   0  0  0  0  0  0  0  0  0  0  0  0
  183.6680  179.3110  144.5900 C   0  0  0  0  0  3  0  0  0  0  0  0
  183.8930  178.9370  142.0510 C   0  0  1  0  0  3  0  0  0  0  0  0
  185.0600  178.4030  141.1990 C   0  0  1  0  0  3  0  0  0  0  0  0
  184.2330  179.1760  145.7560 N   0  0  0  0  0  0  0  0  0  0  0  0
  182.6850  178.0310  141.8840 C   0  0  0  0  0  2  0  0  0  0  0  0
  181.5680  178.7900  141.3490 N   0  0  0  0  0  2  0  0  0  0  0  0
  180.2230  178.0460  137.9360 C   0  0  0  0  0  3  0  0  0  0  0  0
  181.6410  180.0040  137.8310 C   0  0  0  0  0  3  0  0  0  0  0  0
  180.8140  179.0730  137.1960 C   0  0  0  0  0  0  0  0  0  0  0  0
  180.4610  177.9480  139.3100 C   0  0  0  0  0  3  0  0  0  0  0  0
  181.2920  178.8800  139.9500 C   0  0  0  0  0  0  0  0  0  0  0  0
  180.5860  179.1650  135.8650 F   0  0  0  0  0  0  0  0  0  0  0  0
  181.8810  179.9070  139.2020 C   0  0  0  0  0  3  0  0  0  0  0  0
  185.5580  179.4330  140.3700 O   0  0  0  0  0  0  0  0  0  0  0  0
  186.2200  178.9010  139.2880 N   0  0  0  0  0  0  0  0  0  0  0  0
  185.3460  178.0410  138.4910 C   0  0  0  0  0  1  0  0  0  0  0  0
  187.4160  178.1590  139.6890 C   0  0  0  0  0  2  0  0  0  0  0  0
  188.4450  178.2210  138.6120 C   0  0  0  0  0  0  0  0  0  0  0  0
  188.6080  179.2580  137.9990 O   0  0  0  0  0  0  0  0  0  0  0  0
  189.2620  177.0150  138.2640 C   0  0  0  0  0  2  0  0  0  0  0  0
  190.6450  177.0140  138.9230 C   0  0  2  0  0  3  0  0  0  0  0  0
  192.9930  176.3710  138.2510 C   0  0  0  0  0  0  0  0  0  0  0  0
  191.5780  176.2040  138.1550 N   0  0  0  0  0  2  0  0  0  0  0  0
  193.4750  177.2830  138.9760 O   0  0  0  0  0  0  0  0  0  0  0  0
  193.8840  175.4900  137.4820 C   0  0  0  0  0  0  0  0  0  0  0  0
  194.7690  173.3190  136.9710 C   0  0  0  0  0  3  0  0  0  0  0  0
  195.5520  175.2240  135.8210 C   0  0  0  0  0  3  0  0  0  0  0  0
  195.5790  173.8850  136.0420 N   0  0  0  0  0  0  0  0  0  0  0  0
  194.7120  176.0140  136.5380 N   0  0  0  0  0  0  0  0  0  0  0  0
  193.8990  174.1130  137.7140 C   0  0  0  0  0  3  0  0  0  0  0  0
  190.5950  176.5200  140.3640 C   0  0  0  0  0  2  0  0  0  0  0  0
  191.5760  176.9490  142.5010 O   0  0  0  0  0  1  0  0  0  0  0  0
  191.1410  177.5640  141.3240 C   0  0  0  0  0  2  0  0  0  0  0  0
  1  5  1  0  0  0  0
  2 10  1  0  0  0  0
  2 11  1  0  0  0  0
  3  7  2  0  0  0  0
  4  1  2  0  0  0  0
  6  8  1  0  0  0  0
  6  3  1  0  0  0  0
  7  1  1  0  0  0  0
  8  4  1  0  0  0  0
  9 10  1  0  0  0  0
 10  6  2  0  0  0  0
 11 14  2  0  0  0  0
 12 15  1  1  0  0  0
 12  2  1  0  0  0  0
 13 24  1  6  0  0  0
 13 12  1  0  0  0  0
 13  9  1  0  0  0  0
 14  3  1  0  0  0  0
 16 15  1  0  0  0  0
 17 20  1  0  0  0  0
 18 23  2  0  0  0  0
 19 18  1  0  0  0  0
 19 17  2  0  0  0  0
 20 21  2  0  0  0  0
 21 16  1  0  0  0  0
 22 19  1  0  0  0  0
 23 21  1  0  0  0  0
 25 27  1  0  0  0  0
 25 24  1  0  0  0  0
 26 25  1  0  0  0  0
 28 27  1  0  0  0  0
 29 28  2  0  0  0  0
 30 28  1  0  0  0  0
 31 30  1  6  0  0  0
 31 41  1  0  0  0  0
 32 34  2  0  0  0  0
 33 32  1  0  0  0  0
 33 31  1  0  0  0  0
 35 40  1  0  0  0  0
 35 32  1  0  0  0  0
 36 40  2  0  0  0  0
 37 38  2  0  0  0  0
 37 39  1  0  0  0  0
 38 36  1  0  0  0  0
 39 35  2  0  0  0  0
 41 43  1  0  0  0  0
 43 42  1  0  0  0  0
M  END
>  <MODEL>
7

>  <REMARK>
 VINA RESULT:      -8.0      2.183      3.568
  Name = 
  13 active torsions:
  status: ('A' for Active; 'I' for Inactive)
    1  A    between atoms: C_1  and  N_28
    2  A    between atoms: C_1  and  C_34
    3  A    between atoms: N_2  and  C_6
    4  A    between atoms: N_2  and  O_13
    5  A    between atoms: C_3  and  C_4
    6  A    between atoms: C_3  and  C_12
    7  A    between atoms: C_4  and  C_15
    8  A    between atoms: C_4  and  N_22
    9  A    between atoms: C_6  and  C_12
   10  A    between atoms: C_11  and  C_14
   11  A    between atoms: O_13  and  C_38
   12  A    between atoms: C_15  and  C_42
   13  A    between atoms: N_28  and  C_35
                            x       y       z     vdW  Elec       q    Type
                         _______ _______ _______ _____ _____    ______ ____

>  <TORSDO>
F 13

$$$$
=
 OpenBabel10272414243D

 43 47  0  0  1  0  0  0  0  0999 V2000
  187.5370  178.1460  147.6710 C   0  0  0  0  0  0  0  0  0  0  0  0
  186.2630  177.9130  142.8360 N   0  0  0  0  0  0  0  0  0  0  0  0
  187.5140  177.7030  145.2660 C   0  0  2  0  0  3  0  0  0  0  0  0
  186.3450  178.7550  147.6580 C   0  0  0  0  0  3  0  0  0  0  0  0
  188.2720  178.0130  148.9550 C   0  0  0  0  0  1  0  0  0  0  0  0
  186.1910  178.3700  145.1780 C   0  0  0  0  0  0  0  0  0  0  0  0
  188.1360  177.6030  146.4400 C   0  0  0  0  0  3  0  0  0  0  0  0
  185.5250  178.9390  146.4060 C   0  0  0  0  0  3  0  0  0  0  0  0
  184.3240  179.0560  143.6420 C   0  0  0  0  0  2  0  0  0  0  0  0
  185.6220  178.4450  143.9730 C   0  0  0  0  0  0  0  0  0  0  0  0
  187.5380  177.2630  142.9220 C   0  0  0  0  0  3  0  0  0  0  0  0
  185.4720  178.1190  141.6420 C   0  0  1  0  0  3  0  0  0  0  0  0
  184.1780  178.7970  142.1320 C   0  0  1  0  0  3  0  0  0  0  0  0
  188.1260  177.1660  144.0790 N   0  0  0  0  0  0  0  0  0  0  0  0
  186.2070  179.0500  140.6930 C   0  0  0  0  0  2  0  0  0  0  0  0
  186.3200  178.4320  139.3830 N   0  0  0  0  0  2  0  0  0  0  0  0
  189.8480  177.2310  139.0320 C   0  0  0  0  0  3  0  0  0  0  0  0
  188.9770  177.8140  136.8510 C   0  0  0  0  0  3  0  0  0  0  0  0
  190.0240  177.3490  137.6510 C   0  0  0  0  0  0  0  0  0  0  0  0
  188.6260  177.5800  139.6130 C   0  0  0  0  0  3  0  0  0  0  0  0
  187.5730  178.0490  138.8120 C   0  0  0  0  0  0  0  0  0  0  0  0
  191.2100  177.0160  137.0900 F   0  0  0  0  0  0  0  0  0  0  0  0
  187.7560  178.1650  137.4290 C   0  0  0  0  0  3  0  0  0  0  0  0
  183.0750  177.9420  141.9090 O   0  0  0  0  0  0  0  0  0  0  0  0
  182.0480  178.6300  141.3050 N   0  0  0  0  0  0  0  0  0  0  0  0
  180.8340  178.6100  142.1190 C   0  0  0  0  0  1  0  0  0  0  0  0
  181.7570  178.1130  139.9660 C   0  0  0  0  0  2  0  0  0  0  0  0
  182.1820  179.0980  138.9320 C   0  0  0  0  0  0  0  0  0  0  0  0
  182.4990  180.2220  139.2690 O   0  0  0  0  0  0  0  0  0  0  0  0
  182.2020  178.7240  137.4820 C   0  0  0  0  0  2  0  0  0  0  0  0
  182.2670  177.2110  137.2500 C   0  0  2  0  0  3  0  0  0  0  0  0
  184.2820  175.6890  137.1760 C   0  0  0  0  0  0  0  0  0  0  0  0
  183.5620  176.8310  136.7080 N   0  0  0  0  0  2  0  0  0  0  0  0
  183.8280  175.0040  138.1320 O   0  0  0  0  0  0  0  0  0  0  0  0
  185.5660  175.3320  136.5540 C   0  0  0  0  0  0  0  0  0  0  0  0
  187.7300  174.3000  136.6380 C   0  0  0  0  0  3  0  0  0  0  0  0
  187.0160  175.4120  134.6830 C   0  0  0  0  0  3  0  0  0  0  0  0
  187.9560  174.7090  135.3640 N   0  0  0  0  0  0  0  0  0  0  0  0
  185.8350  175.7200  135.2780 N   0  0  0  0  0  0  0  0  0  0  0  0
  186.5230  174.6040  137.2630 C   0  0  0  0  0  3  0  0  0  0  0  0
  181.1560  176.7210  136.3310 C   0  0  0  0  0  2  0  0  0  0  0  0
  180.5590  175.3220  138.1750 O   0  0  0  0  0  1  0  0  0  0  0  0
  180.6230  175.3710  136.7800 C   0  0  0  0  0  2  0  0  0  0  0  0
  1  5  1  0  0  0  0
  2 11  1  0  0  0  0
  2 10  1  0  0  0  0
  3  7  1  6  0  0  0
  4  1  1  0  0  0  0
  6  3  1  0  0  0  0
  6  8  1  0  0  0  0
  7  1  2  0  0  0  0
  8  4  2  0  0  0  0
  9 10  1  0  0  0  0
 10  6  2  0  0  0  0
 11 14  2  0  0  0  0
 12 15  1  6  0  0  0
 12 13  1  0  0  0  0
 12  2  1  0  0  0  0
 13 24  1  1  0  0  0
 13  9  1  0  0  0  0
 14  3  1  0  0  0  0
 16 15  1  0  0  0  0
 17 20  1  0  0  0  0
 18 23  2  0  0  0  0
 18 19  1  0  0  0  0
 19 17  2  0  0  0  0
 21 16  1  0  0  0  0
 21 20  2  0  0  0  0
 22 19  1  0  0  0  0
 23 21  1  0  0  0  0
 25 24  1  0  0  0  0
 25 26  1  0  0  0  0
 27 25  1  0  0  0  0
 28 29  2  0  0  0  0
 28 27  1  0  0  0  0
 30 28  1  0  0  0  0
 31 41  1  6  0  0  0
 31 30  1  0  0  0  0
 32 34  2  0  0  0  0
 33 32  1  0  0  0  0
 33 31  1  0  0  0  0
 35 32  1  0  0  0  0
 35 40  1  0  0  0  0
 36 40  2  0  0  0  0
 37 39  1  0  0  0  0
 37 38  2  0  0  0  0
 38 36  1  0  0  0  0
 39 35  2  0  0  0  0
 41 43  1  0  0  0  0
 43 42  1  0  0  0  0
M  END
>  <MODEL>
8

>  <REMARK>
 VINA RESULT:      -8.0      3.306      6.829
  Name = 
  13 active torsions:
  status: ('A' for Active; 'I' for Inactive)
    1  A    between atoms: C_1  and  N_28
    2  A    between atoms: C_1  and  C_34
    3  A    between atoms: N_2  and  C_6
    4  A    between atoms: N_2  and  O_13
    5  A    between atoms: C_3  and  C_4
    6  A    between atoms: C_3  and  C_12
    7  A    between atoms: C_4  and  C_15
    8  A    between atoms: C_4  and  N_22
    9  A    between atoms: C_6  and  C_12
   10  A    between atoms: C_11  and  C_14
   11  A    between atoms: O_13  and  C_38
   12  A    between atoms: C_15  and  C_42
   13  A    between atoms: N_28  and  C_35
                            x       y       z     vdW  Elec       q    Type
                         _______ _______ _______ _____ _____    ______ ____

>  <TORSDO>
F 13

$$$$
=
 OpenBabel10272414243D

 43 47  0  0  1  0  0  0  0  0999 V2000
  192.1450  175.7650  146.4610 C   0  0  0  0  0  0  0  0  0  0  0  0
  189.9390  178.2230  142.6990 N   0  0  0  0  0  0  0  0  0  0  0  0
  191.0410  177.4650  145.0930 C   0  0  0  0  0  0  0  0  0  0  0  0
  192.1720  174.8630  145.4730 C   0  0  0  0  0  3  0  0  0  0  0  0
  192.7140  175.4110  147.7860 C   0  0  0  0  0  1  0  0  0  0  0  0
  191.0330  176.5120  143.9540 C   0  0  0  0  0  0  0  0  0  0  0  0
  191.5650  177.1050  146.2630 C   0  0  0  0  0  3  0  0  0  0  0  0
  191.6200  175.1290  144.0950 C   0  0  0  0  0  2  0  0  0  0  0  0
  190.3660  176.1670  141.5560 C   0  0  0  0  0  2  0  0  0  0  0  0
  190.4880  176.9290  142.8100 C   0  0  0  0  0  0  0  0  0  0  0  0
  189.9520  179.1450  143.7960 C   0  0  0  0  0  3  0  0  0  0  0  0
  189.3950  178.4520  141.3780 C   0  0  1  0  0  3  0  0  0  0  0  0
  189.7100  177.1670  140.5880 C   0  0  1  0  0  3  0  0  0  0  0  0
  190.4770  178.7790  144.9300 N   0  0  0  0  0  0  0  0  0  0  0  0
  187.8890  178.6360  141.4690 C   0  0  0  0  0  2  0  0  0  0  0  0
  187.3070  177.5630  142.2570 N   0  0  0  0  0  2  0  0  0  0  0  0
  186.4420  177.4690  145.8980 C   0  0  0  0  0  3  0  0  0  0  0  0
  184.7750  178.7600  144.7090 C   0  0  0  0  0  3  0  0  0  0  0  0
  185.2650  178.2220  145.9020 C   0  0  0  0  0  0  0  0  0  0  0  0
  187.1270  177.2520  144.6990 C   0  0  0  0  0  3  0  0  0  0  0  0
  186.6370  177.7890  143.4990 C   0  0  0  0  0  0  0  0  0  0  0  0
  184.6000  178.4290  147.0630 F   0  0  0  0  0  0  0  0  0  0  0  0
  185.4570  178.5420  143.5110 C   0  0  0  0  0  3  0  0  0  0  0  0
  190.6100  177.4600  139.5380 O   0  0  0  0  0  0  0  0  0  0  0  0
  189.9630  177.4210  138.3250 N   0  0  0  0  0  0  0  0  0  0  0  0
  188.7330  176.6340  138.3950 C   0  0  0  0  0  1  0  0  0  0  0  0
  190.8250  176.9010  137.2620 C   0  0  0  0  0  2  0  0  0  0  0  0
  191.8680  176.0050  137.8370 C   0  0  0  0  0  0  0  0  0  0  0  0
  191.5340  174.9700  138.3800 O   0  0  0  0  0  0  0  0  0  0  0  0
  193.3170  176.3770  137.7720 C   0  0  0  0  0  2  0  0  0  0  0  0
  194.1120  175.5310  136.7720 C   0  0  2  0  0  3  0  0  0  0  0  0
  196.0570  174.2980  137.8110 C   0  0  0  0  0  0  0  0  0  0  0  0
  195.5100  175.4500  137.1670 N   0  0  0  0  0  2  0  0  0  0  0  0
  195.3100  173.3270  138.1100 O   0  0  0  0  0  0  0  0  0  0  0  0
  197.4890  174.2610  138.1430 C   0  0  0  0  0  0  0  0  0  0  0  0
  199.3650  174.9860  139.4510 C   0  0  0  0  0  3  0  0  0  0  0  0
  199.6610  173.4190  137.7110 C   0  0  0  0  0  3  0  0  0  0  0  0
  200.1700  174.1800  138.7140 N   0  0  0  0  0  0  0  0  0  0  0  0
  198.3320  173.4650  137.4320 N   0  0  0  0  0  0  0  0  0  0  0  0
  198.0000  175.0440  139.1800 C   0  0  0  0  0  3  0  0  0  0  0  0
  194.0050  176.0680  135.3510 C   0  0  0  0  0  2  0  0  0  0  0  0
  195.3590  178.0370  135.4260 O   0  0  0  0  0  1  0  0  0  0  0  0
  195.2980  176.7380  134.9150 C   0  0  0  0  0  2  0  0  0  0  0  0
  1  5  1  0  0  0  0
  2 10  1  0  0  0  0
  2 11  1  0  0  0  0
  3  7  2  0  0  0  0
  4  1  2  0  0  0  0
  6  8  1  0  0  0  0
  6  3  1  0  0  0  0
  7  1  1  0  0  0  0
  8  4  1  0  0  0  0
  9 10  1  0  0  0  0
 10  6  2  0  0  0  0
 11 14  2  0  0  0  0
 12 15  1  1  0  0  0
 12  2  1  0  0  0  0
 13 24  1  6  0  0  0
 13 12  1  0  0  0  0
 13  9  1  0  0  0  0
 14  3  1  0  0  0  0
 15 16  1  0  0  0  0
 16 21  1  0  0  0  0
 17 19  1  0  0  0  0
 18 19  2  0  0  0  0
 19 22  1  0  0  0  0
 20 17  2  0  0  0  0
 21 23  2  0  0  0  0
 21 20  1  0  0  0  0
 23 18  1  0  0  0  0
 25 26  1  0  0  0  0
 25 24  1  0  0  0  0
 27 28  1  0  0  0  0
 27 25  1  0  0  0  0
 28 29  2  0  0  0  0
 30 28  1  0  0  0  0
 31 41  1  6  0  0  0
 31 33  1  0  0  0  0
 31 30  1  0  0  0  0
 32 34  2  0  0  0  0
 32 35  1  0  0  0  0
 33 32  1  0  0  0  0
 35 40  1  0  0  0  0
 37 38  2  0  0  0  0
 38 36  1  0  0  0  0
 39 37  1  0  0  0  0
 39 35  2  0  0  0  0
 40 36  2  0  0  0  0
 43 41  1  0  0  0  0
 43 42  1  0  0  0  0
M  END
>  <MODEL>
9

>  <REMARK>
 VINA RESULT:      -8.0      4.472      6.825
  Name = 
  13 active torsions:
  status: ('A' for Active; 'I' for Inactive)
    1  A    between atoms: C_1  and  N_28
    2  A    between atoms: C_1  and  C_34
    3  A    between atoms: N_2  and  C_6
    4  A    between atoms: N_2  and  O_13
    5  A    between atoms: C_3  and  C_4
    6  A    between atoms: C_3  and  C_12
    7  A    between atoms: C_4  and  C_15
    8  A    between atoms: C_4  and  N_22
    9  A    between atoms: C_6  and  C_12
   10  A    between atoms: C_11  and  C_14
   11  A    between atoms: O_13  and  C_38
   12  A    between atoms: C_15  and  C_42
   13  A    between atoms: N_28  and  C_35
                            x       y       z     vdW  Elec       q    Type
                         _______ _______ _______ _____ _____    ______ ____

>  <TORSDO>
F 13

$$$$
