=
 OpenBabel10272415173D

 34 39  0  0  1  0  0  0  0  0999 V2000
  185.0120  178.0720  140.1230 C   0  0  2  0  0  3  0  0  0  0  0  0
  184.2700  178.3840  142.5280 C   0  0  0  0  0  2  0  0  0  0  0  0
  182.1710  178.3100  139.4090 C   0  0  2  0  0  0  0  0  0  0  0  0
  186.7560  178.2810  142.8020 N   0  0  0  0  0  0  0  0  0  0  0  0
  183.2110  177.8240  138.3880 C   0  0  0  0  0  2  0  0  0  0  0  0
  184.6100  178.3460  138.6810 C   0  0  0  0  0  2  0  0  0  0  0  0
  182.6340  178.0700  140.7860 N   0  0  0  0  0  2  0  0  0  0  0  0
  183.9490  178.6560  141.0650 C   0  0  2  0  0  3  0  0  0  0  0  0
  180.9500  177.4350  139.1840 C   0  0  0  0  0  1  0  0  0  0  0  0
  185.5420  179.0930  142.9910 C   0  0  0  0  0  2  0  0  0  0  0  0
  186.3490  178.7550  140.3390 C   0  0  0  0  0  2  0  0  0  0  0  0
  187.1920  178.0390  141.4050 C   0  0  1  0  0  3  0  0  0  0  0  0
  188.9890  179.1500  139.9660 C   0  0  0  0  0  2  0  0  0  0  0  0
  189.6990  176.1580  142.2630 C   0  0  0  0  0  2  0  0  0  0  0  0
  190.2990  176.6720  144.6600 C   0  0  0  0  0  2  0  0  0  0  0  0
  189.0630  176.1400  139.7860 C   0  0  0  0  0  2  0  0  0  0  0  0
  188.9450  179.1750  137.4670 C   0  0  0  0  0  3  0  0  0  0  0  0
  189.0290  177.1530  136.1380 C   0  0  0  0  0  3  0  0  0  0  0  0
  190.6010  178.9520  144.4250 N   0  0  0  0  0  2  0  0  0  0  0  0
  188.9650  178.5460  136.2190 C   0  0  0  0  0  3  0  0  0  0  0  0
  189.0680  177.0040  138.5580 C   0  0  0  0  0  0  0  0  0  0  0  0
  188.9830  178.4180  138.6420 C   0  0  0  0  0  0  0  0  0  0  0  0
  189.0770  176.3850  137.3040 C   0  0  0  0  0  3  0  0  0  0  0  0
  190.6080  176.9510  143.2000 C   0  0  2  0  0  3  0  0  0  0  0  0
  190.4760  178.0110  145.2830 C   0  0  0  0  0  2  0  0  0  0  0  0
  189.2370  179.0130  142.4300 C   0  0  0  0  0  2  0  0  0  0  0  0
  190.5370  178.4880  143.0690 C   0  0  1  0  0  3  0  0  0  0  0  0
  189.5290  176.9490  140.9830 C   0  0  1  0  0  3  0  0  0  0  0  0
  188.7260  178.2530  141.1880 C   0  0  1  0  0  0  0  0  0  0  0  0
  181.7370  179.7830  139.1790 C   0  0  0  0  0  3  0  0  0  0  0  0
  181.4560  180.0810  137.7120 C   0  0  0  0  0  1  0  0  0  0  0  0
  180.5480  180.2400  140.0120 C   0  0  0  0  0  1  0  0  0  0  0  0
  186.7400  177.3010  145.1100 C   0  0  0  0  0  1  0  0  0  0  0  0
  186.7160  177.0490  143.6050 C   0  0  0  0  0  2  0  0  0  0  0  0
  1  6  1  6  0  0  0
  1 11  1  0  0  0  0
  1  8  1  0  0  0  0
  2 10  1  0  0  0  0
  3  9  1  6  0  0  0
  3  7  1  0  0  0  0
  4 10  1  0  0  0  0
  4 34  1  0  0  0  0
  5  6  1  0  0  0  0
  5  3  1  0  0  0  0
  7  8  1  0  0  0  0
  8  2  1  1  0  0  0
 12 11  1  6  0  0  0
 12  4  1  0  0  0  0
 15 25  1  0  0  0  0
 17 22  1  0  0  0  0
 18 20  1  0  0  0  0
 18 23  2  0  0  0  0
 19 25  1  0  0  0  0
 20 17  2  0  0  0  0
 21 22  2  0  0  0  0
 21 16  1  0  0  0  0
 22 13  1  0  0  0  0
 23 21  1  0  0  0  0
 24 14  1  6  0  0  0
 24 15  1  0  0  0  0
 27 26  1  1  0  0  0
 27 24  1  0  0  0  0
 27 19  1  0  0  0  0
 28 16  1  6  0  0  0
 28 29  1  0  0  0  0
 28 14  1  0  0  0  0
 29 13  1  6  0  0  0
 29 12  1  0  0  0  0
 29 26  1  0  0  0  0
 30  3  1  0  0  0  0
 30 32  1  0  0  0  0
 31 30  1  0  0  0  0
 34 33  1  0  0  0  0
M  END
>  <MODEL>
1

>  <REMARK>
 VINA RESULT:      -5.9      0.000      0.000
  Name = 
  3 active torsions:
  status: ('A' for Active; 'I' for Inactive)
    1  A    between atoms: C_7  and  C_11
    2  A    between atoms: N_9  and  C_18
    3  A    between atoms: C_33  and  C_34
                            x       y       z     vdW  Elec       q    Type
                         _______ _______ _______ _____ _____    ______ ____

>  <TORSDO>
F 3

$$$$
=
 OpenBabel10272415173D

 34 39  0  0  1  0  0  0  0  0999 V2000
  189.9890  177.2210  140.2160 C   0  0  2  0  0  3  0  0  0  0  0  0
  187.8110  178.5150  140.3580 C   0  0  0  0  0  2  0  0  0  0  0  0
  190.4880  178.1190  142.9690 C   0  0  2  0  0  0  0  0  0  0  0  0
  187.6110  177.4850  138.0850 N   0  0  0  0  0  0  0  0  0  0  0  0
  191.5970  177.4650  142.1310 C   0  0  0  0  0  2  0  0  0  0  0  0
  191.0500  176.5310  141.0590 C   0  0  0  0  0  2  0  0  0  0  0  0
  189.4610  178.7200  142.1030 N   0  0  0  0  0  2  0  0  0  0  0  0
  188.8920  177.7770  141.1360 C   0  0  2  0  0  3  0  0  0  0  0  0
  191.1680  179.2510  143.7190 C   0  0  0  0  0  1  0  0  0  0  0  0
  187.0220  177.5920  139.4310 C   0  0  0  0  0  2  0  0  0  0  0  0
  189.4190  176.1650  139.2860 C   0  0  0  0  0  2  0  0  0  0  0  0
  188.9080  176.7750  137.9720 C   0  0  1  0  0  3  0  0  0  0  0  0
  189.8710  174.5650  137.1240 C   0  0  0  0  0  2  0  0  0  0  0  0
  188.4180  177.2470  134.7950 C   0  0  0  0  0  2  0  0  0  0  0  0
  185.9370  177.1510  134.3460 C   0  0  0  0  0  2  0  0  0  0  0  0
  190.8470  176.9350  135.5340 C   0  0  0  0  0  2  0  0  0  0  0  0
  192.2690  173.9070  137.3820 C   0  0  0  0  0  3  0  0  0  0  0  0
  194.0830  175.1630  136.3840 C   0  0  0  0  0  3  0  0  0  0  0  0
  185.5300  175.0740  135.2760 N   0  0  0  0  0  2  0  0  0  0  0  0
  193.6350  174.0800  137.1460 C   0  0  0  0  0  3  0  0  0  0  0  0
  191.7940  175.9030  136.0740 C   0  0  0  0  0  0  0  0  0  0  0  0
  191.3400  174.8160  136.8640 C   0  0  0  0  0  0  0  0  0  0  0  0
  193.1650  176.0730  135.8540 C   0  0  0  0  0  3  0  0  0  0  0  0
  187.2440  176.3790  134.3460 C   0  0  2  0  0  3  0  0  0  0  0  0
  184.9670  176.1320  134.8290 C   0  0  0  0  0  2  0  0  0  0  0  0
  187.5230  175.2000  136.6380 C   0  0  0  0  0  2  0  0  0  0  0  0
  186.9620  175.1280  135.2050 C   0  0  1  0  0  3  0  0  0  0  0  0
  189.4480  176.3510  135.4510 C   0  0  1  0  0  3  0  0  0  0  0  0
  188.9560  175.7540  136.7890 C   0  0  1  0  0  0  0  0  0  0  0  0
  189.8810  177.1570  144.0280 C   0  0  0  0  0  3  0  0  0  0  0  0
  190.8960  176.7470  145.0860 C   0  0  0  0  0  1  0  0  0  0  0  0
  188.6280  177.6730  144.7190 C   0  0  0  0  0  1  0  0  0  0  0  0
  188.9830  179.4490  137.3430 C   0  0  0  0  0  1  0  0  0  0  0  0
  187.6110  178.7820  137.3890 C   0  0  0  0  0  2  0  0  0  0  0  0
  1 11  1  6  0  0  0
  1  6  1  0  0  0  0
  1  8  1  0  0  0  0
  3  9  1  1  0  0  0
  3 30  1  0  0  0  0
  4 10  1  0  0  0  0
  5  3  1  0  0  0  0
  6  5  1  0  0  0  0
  7  3  1  0  0  0  0
  8  2  1  6  0  0  0
  8  7  1  0  0  0  0
 10  2  1  0  0  0  0
 12  4  1  0  0  0  0
 12 11  1  1  0  0  0
 15 25  1  0  0  0  0
 16 21  1  0  0  0  0
 18 20  2  0  0  0  0
 20 17  1  0  0  0  0
 21 22  1  0  0  0  0
 22 13  1  0  0  0  0
 22 17  2  0  0  0  0
 23 21  2  0  0  0  0
 23 18  1  0  0  0  0
 24 15  1  1  0  0  0
 24 14  1  0  0  0  0
 24 27  1  0  0  0  0
 25 19  1  0  0  0  0
 27 19  1  0  0  0  0
 27 26  1  1  0  0  0
 28 14  1  1  0  0  0
 28 16  1  0  0  0  0
 28 29  1  0  0  0  0
 29 26  1  6  0  0  0
 29 13  1  0  0  0  0
 29 12  1  0  0  0  0
 30 32  1  0  0  0  0
 30 31  1  0  0  0  0
 33 34  1  0  0  0  0
 34  4  1  0  0  0  0
M  END
>  <MODEL>
2

>  <REMARK>
 VINA RESULT:      -5.9      3.116      7.568
  Name = 
  3 active torsions:
  status: ('A' for Active; 'I' for Inactive)
    1  A    between atoms: C_7  and  C_11
    2  A    between atoms: N_9  and  C_18
    3  A    between atoms: C_33  and  C_34
                            x       y       z     vdW  Elec       q    Type
                         _______ _______ _______ _____ _____    ______ ____

>  <TORSDO>
F 3

$$$$
=
 OpenBabel10272415173D

 34 39  0  0  1  0  0  0  0  0999 V2000
  190.6700  177.2790  139.9450 C   0  0  2  0  0  3  0  0  0  0  0  0
  188.2690  178.0880  139.8130 C   0  0  0  0  0  2  0  0  0  0  0  0
  190.5560  177.9820  142.7960 C   0  0  2  0  0  0  0  0  0  0  0  0
  188.6300  177.2690  137.4750 N   0  0  0  0  0  0  0  0  0  0  0  0
  191.8900  177.6510  142.1100 C   0  0  0  0  0  2  0  0  0  0  0  0
  191.7190  176.7370  140.9040 C   0  0  0  0  0  2  0  0  0  0  0  0
  189.5620  178.4470  141.8160 N   0  0  0  0  0  2  0  0  0  0  0  0
  189.3570  177.5100  140.7080 C   0  0  2  0  0  3  0  0  0  0  0  0
  190.8600  179.1470  143.7210 C   0  0  0  0  0  1  0  0  0  0  0  0
  187.8410  177.1220  138.7100 C   0  0  0  0  0  2  0  0  0  0  0  0
  190.4820  176.2280  138.8670 C   0  0  0  0  0  2  0  0  0  0  0  0
  190.0510  176.8500  137.5300 C   0  0  1  0  0  3  0  0  0  0  0  0
  189.5110  176.1500  135.1310 C   0  0  0  0  0  2  0  0  0  0  0  0
  191.8080  174.1180  137.4390 C   0  0  0  0  0  2  0  0  0  0  0  0
  194.2530  174.7400  137.4580 C   0  0  0  0  0  2  0  0  0  0  0  0
  189.2880  173.8590  137.0800 C   0  0  0  0  0  2  0  0  0  0  0  0
  187.2170  175.5440  134.3460 C   0  0  0  0  0  3  0  0  0  0  0  0
  185.9810  173.6670  135.2470 C   0  0  0  0  0  3  0  0  0  0  0  0
  194.2310  176.1540  135.6280 N   0  0  0  0  0  2  0  0  0  0  0  0
  186.0700  174.7460  134.3640 C   0  0  0  0  0  3  0  0  0  0  0  0
  188.1980  174.1660  136.0950 C   0  0  0  0  0  0  0  0  0  0  0  0
  188.2810  175.2740  135.2130 C   0  0  0  0  0  0  0  0  0  0  0  0
  187.0410  173.3810  136.1120 C   0  0  0  0  0  3  0  0  0  0  0  0
  193.0580  174.3680  136.5990 C   0  0  2  0  0  3  0  0  0  0  0  0
  194.9330  175.7700  136.6260 C   0  0  0  0  0  2  0  0  0  0  0  0
  191.8540  176.5380  135.8480 C   0  0  0  0  0  2  0  0  0  0  0  0
  192.9550  175.5010  135.5550 C   0  0  1  0  0  3  0  0  0  0  0  0
  190.5950  174.4680  136.6020 C   0  0  1  0  0  3  0  0  0  0  0  0
  190.4900  175.9810  136.3060 C   0  0  1  0  0  0  0  0  0  0  0  0
  190.0200  176.8180  143.6750 C   0  0  0  0  0  3  0  0  0  0  0  0
  190.9160  176.5380  144.8740 C   0  0  0  0  0  1  0  0  0  0  0  0
  188.5870  176.9850  144.1570 C   0  0  0  0  0  1  0  0  0  0  0  0
  187.1060  178.7890  136.1870 C   0  0  0  0  0  1  0  0  0  0  0  0
  188.4550  178.6020  136.8760 C   0  0  0  0  0  2  0  0  0  0  0  0
  1 11  1  6  0  0  0
  1  8  1  0  0  0  0
  1  6  1  0  0  0  0
  3 30  1  0  0  0  0
  3  9  1  1  0  0  0
  4 12  1  0  0  0  0
  4 10  1  0  0  0  0
  5  3  1  0  0  0  0
  6  5  1  0  0  0  0
  7  3  1  0  0  0  0
  8  2  1  6  0  0  0
  8  7  1  0  0  0  0
 10  2  1  0  0  0  0
 12 11  1  1  0  0  0
 13 22  1  0  0  0  0
 17 20  2  0  0  0  0
 17 22  1  0  0  0  0
 18 23  2  0  0  0  0
 19 25  1  0  0  0  0
 20 18  1  0  0  0  0
 21 23  1  0  0  0  0
 21 16  1  0  0  0  0
 22 21  2  0  0  0  0
 24 14  1  1  0  0  0
 24 15  1  0  0  0  0
 25 15  1  0  0  0  0
 26 29  1  0  0  0  0
 27 19  1  0  0  0  0
 27 26  1  1  0  0  0
 27 24  1  0  0  0  0
 28 16  1  1  0  0  0
 28 14  1  0  0  0  0
 29 13  1  6  0  0  0
 29 28  1  0  0  0  0
 29 12  1  0  0  0  0
 30 32  1  0  0  0  0
 30 31  1  0  0  0  0
 33 34  1  0  0  0  0
 34  4  1  0  0  0  0
M  END
>  <MODEL>
3

>  <REMARK>
 VINA RESULT:      -5.6      3.530      7.253
  Name = 
  3 active torsions:
  status: ('A' for Active; 'I' for Inactive)
    1  A    between atoms: C_7  and  C_11
    2  A    between atoms: N_9  and  C_18
    3  A    between atoms: C_33  and  C_34
                            x       y       z     vdW  Elec       q    Type
                         _______ _______ _______ _____ _____    ______ ____

>  <TORSDO>
F 3

$$$$
=
 OpenBabel10272415173D

 34 39  0  0  1  0  0  0  0  0999 V2000
  184.2670  176.5710  137.9970 C   0  0  2  0  0  3  0  0  0  0  0  0
  186.0090  178.4080  138.1500 C   0  0  0  0  0  2  0  0  0  0  0  0
  182.4560  178.4260  139.3800 C   0  0  2  0  0  0  0  0  0  0  0  0
  187.2570  176.6700  136.8520 N   0  0  0  0  0  0  0  0  0  0  0  0
  182.0950  176.9430  139.2050 C   0  0  0  0  0  2  0  0  0  0  0  0
  182.7670  176.3150  137.9930 C   0  0  0  0  0  2  0  0  0  0  0  0
  183.9130  178.6240  139.3210 N   0  0  0  0  0  2  0  0  0  0  0  0
  184.5230  178.0820  138.1030 C   0  0  2  0  0  3  0  0  0  0  0  0
  182.0070  178.7840  140.7860 C   0  0  0  0  0  1  0  0  0  0  0  0
  186.7310  178.0450  136.8530 C   0  0  0  0  0  2  0  0  0  0  0  0
  184.8040  176.0300  136.6850 C   0  0  0  0  0  2  0  0  0  0  0  0
  186.2640  175.5690  136.8110 C   0  0  1  0  0  3  0  0  0  0  0  0
  185.4480  174.1880  134.8210 C   0  0  0  0  0  2  0  0  0  0  0  0
  188.3770  173.1130  137.0540 C   0  0  0  0  0  2  0  0  0  0  0  0
  190.6690  173.9650  136.4270 C   0  0  0  0  0  2  0  0  0  0  0  0
  185.9030  172.5070  137.2830 C   0  0  0  0  0  2  0  0  0  0  0  0
  183.1740  173.1580  134.6880 C   0  0  0  0  0  3  0  0  0  0  0  0
  182.4060  171.4810  136.2570 C   0  0  0  0  0  3  0  0  0  0  0  0
  190.1280  174.8140  134.3460 N   0  0  0  0  0  2  0  0  0  0  0  0
  182.1810  172.2810  135.1330 C   0  0  0  0  0  3  0  0  0  0  0  0
  184.6300  172.4190  136.4920 C   0  0  0  0  0  0  0  0  0  0  0  0
  184.3960  173.2460  135.3630 C   0  0  0  0  0  0  0  0  0  0  0  0
  183.6250  171.5540  136.9350 C   0  0  0  0  0  3  0  0  0  0  0  0
  189.4190  173.2510  135.9450 C   0  0  2  0  0  3  0  0  0  0  0  0
  191.0360  174.7920  135.2460 C   0  0  0  0  0  2  0  0  0  0  0  0
  187.7900  174.9970  134.9340 C   0  0  0  0  0  2  0  0  0  0  0  0
  188.9720  174.0380  134.6940 C   0  0  1  0  0  3  0  0  0  0  0  0
  187.0030  173.0940  136.4170 C   0  0  1  0  0  3  0  0  0  0  0  0
  186.6210  174.4490  135.7800 C   0  0  1  0  0  0  0  0  0  0  0  0
  181.6920  179.3560  138.3970 C   0  0  0  0  0  3  0  0  0  0  0  0
  180.1830  179.1770  138.4860 C   0  0  0  0  0  1  0  0  0  0  0  0
  182.0230  180.8360  138.5260 C   0  0  0  0  0  1  0  0  0  0  0  0
  189.5560  177.2670  137.6560 C   0  0  0  0  0  1  0  0  0  0  0  0
  188.2750  176.4770  137.8990 C   0  0  0  0  0  2  0  0  0  0  0  0
  1 11  1  6  0  0  0
  1  8  1  0  0  0  0
  3  9  1  1  0  0  0
  4 10  1  0  0  0  0
  4 34  1  0  0  0  0
  5  3  1  0  0  0  0
  6  1  1  0  0  0  0
  6  5  1  0  0  0  0
  7  3  1  0  0  0  0
  8  2  1  1  0  0  0
  8  7  1  0  0  0  0
 10  2  1  0  0  0  0
 12 11  1  6  0  0  0
 12  4  1  0  0  0  0
 13 22  1  0  0  0  0
 17 20  2  0  0  0  0
 17 22  1  0  0  0  0
 18 23  2  0  0  0  0
 19 27  1  0  0  0  0
 19 25  1  0  0  0  0
 20 18  1  0  0  0  0
 21 23  1  0  0  0  0
 21 16  1  0  0  0  0
 22 21  2  0  0  0  0
 24 15  1  1  0  0  0
 24 14  1  0  0  0  0
 25 15  1  0  0  0  0
 26 29  1  0  0  0  0
 27 26  1  1  0  0  0
 27 24  1  0  0  0  0
 28 14  1  1  0  0  0
 28 16  1  0  0  0  0
 29 13  1  6  0  0  0
 29 28  1  0  0  0  0
 29 12  1  0  0  0  0
 30 31  1  0  0  0  0
 30 32  1  0  0  0  0
 30  3  1  0  0  0  0
 33 34  1  0  0  0  0
M  END
>  <MODEL>
4

>  <REMARK>
 VINA RESULT:      -5.3      4.020      6.540
  Name = 
  3 active torsions:
  status: ('A' for Active; 'I' for Inactive)
    1  A    between atoms: C_7  and  C_11
    2  A    between atoms: N_9  and  C_18
    3  A    between atoms: C_33  and  C_34
                            x       y       z     vdW  Elec       q    Type
                         _______ _______ _______ _____ _____    ______ ____

>  <TORSDO>
F 3

$$$$
=
 OpenBabel10272415173D

 34 39  0  0  1  0  0  0  0  0999 V2000
  185.3050  176.1230  137.3440 C   0  0  2  0  0  3  0  0  0  0  0  0
  186.3810  174.0050  136.4540 C   0  0  0  0  0  2  0  0  0  0  0  0
  188.0360  177.0630  137.8840 C   0  0  2  0  0  0  0  0  0  0  0  0
  183.9640  173.5470  135.9920 N   0  0  0  0  0  0  0  0  0  0  0  0
  186.8140  177.8000  138.4520 C   0  0  0  0  0  2  0  0  0  0  0  0
  185.5630  177.5990  137.6070 C   0  0  0  0  0  2  0  0  0  0  0  0
  187.7160  175.6560  137.5950 N   0  0  0  0  0  2  0  0  0  0  0  0
  186.5570  175.4950  136.7120 C   0  0  2  0  0  3  0  0  0  0  0  0
  189.0650  177.0740  139.0020 C   0  0  0  0  0  1  0  0  0  0  0  0
  185.3060  173.7130  135.4090 C   0  0  0  0  0  2  0  0  0  0  0  0
  184.1320  176.0520  136.3840 C   0  0  0  0  0  2  0  0  0  0  0  0
  183.3240  174.7570  136.5630 C   0  0  1  0  0  3  0  0  0  0  0  0
  181.5850  176.3220  135.5340 C   0  0  0  0  0  2  0  0  0  0  0  0
  180.6550  173.2920  137.6980 C   0  0  0  0  0  2  0  0  0  0  0  0
  180.3950  171.0770  136.5160 C   0  0  0  0  0  2  0  0  0  0  0  0
  181.0190  175.7150  138.4340 C   0  0  0  0  0  2  0  0  0  0  0  0
  181.3740  178.7420  136.1270 C   0  0  0  0  0  3  0  0  0  0  0  0
  180.8330  179.4950  138.3640 C   0  0  0  0  0  3  0  0  0  0  0  0
  180.4350  171.8740  134.3460 N   0  0  0  0  0  2  0  0  0  0  0  0
  181.1240  179.7810  137.0270 C   0  0  0  0  0  3  0  0  0  0  0  0
  181.0230  177.1210  137.9080 C   0  0  0  0  0  0  0  0  0  0  0  0
  181.3390  177.4100  136.5560 C   0  0  0  0  0  0  0  0  0  0  0  0
  180.7870  178.1700  138.8030 C   0  0  0  0  0  3  0  0  0  0  0  0
  179.9850  172.5390  136.5510 C   0  0  2  0  0  3  0  0  0  0  0  0
  180.4980  170.8120  135.0560 C   0  0  0  0  0  2  0  0  0  0  0  0
  181.5770  173.8960  135.0190 C   0  0  0  0  0  2  0  0  0  0  0  0
  180.2840  173.0660  135.1310 C   0  0  1  0  0  3  0  0  0  0  0  0
  180.8140  174.7410  137.2870 C   0  0  1  0  0  3  0  0  0  0  0  0
  181.8300  174.9290  136.1370 C   0  0  1  0  0  0  0  0  0  0  0  0
  188.6680  177.7890  136.6640 C   0  0  0  0  0  3  0  0  0  0  0  0
  189.1060  179.2080  136.9970 C   0  0  0  0  0  1  0  0  0  0  0  0
  189.8310  177.0540  136.0120 C   0  0  0  0  0  1  0  0  0  0  0  0
  184.0550  171.0490  136.1920 C   0  0  0  0  0  1  0  0  0  0  0  0
  183.9060  172.3910  136.9010 C   0  0  0  0  0  2  0  0  0  0  0  0
  1 11  1  6  0  0  0
  1  6  1  0  0  0  0
  3  5  1  0  0  0  0
  3  9  1  1  0  0  0
  4 12  1  0  0  0  0
  4 34  1  0  0  0  0
  6  5  1  0  0  0  0
  7  3  1  0  0  0  0
  8  2  1  1  0  0  0
  8  1  1  0  0  0  0
  8  7  1  0  0  0  0
 10  4  1  0  0  0  0
 10  2  1  0  0  0  0
 12 11  1  6  0  0  0
 13 29  1  0  0  0  0
 13 22  1  0  0  0  0
 17 22  2  0  0  0  0
 17 20  1  0  0  0  0
 18 23  1  0  0  0  0
 19 25  1  0  0  0  0
 19 27  1  0  0  0  0
 20 18  2  0  0  0  0
 21 16  1  0  0  0  0
 21 23  2  0  0  0  0
 22 21  1  0  0  0  0
 24 15  1  6  0  0  0
 24 14  1  0  0  0  0
 25 15  1  0  0  0  0
 27 26  1  1  0  0  0
 27 24  1  0  0  0  0
 28 14  1  1  0  0  0
 28 16  1  0  0  0  0
 29 26  1  6  0  0  0
 29 12  1  0  0  0  0
 29 28  1  0  0  0  0
 30 31  1  0  0  0  0
 30  3  1  0  0  0  0
 32 30  1  0  0  0  0
 33 34  1  0  0  0  0
M  END
>  <MODEL>
5

>  <REMARK>
 VINA RESULT:      -5.2      4.261      9.399
  Name = 
  3 active torsions:
  status: ('A' for Active; 'I' for Inactive)
    1  A    between atoms: C_7  and  C_11
    2  A    between atoms: N_9  and  C_18
    3  A    between atoms: C_33  and  C_34
                            x       y       z     vdW  Elec       q    Type
                         _______ _______ _______ _____ _____    ______ ____

>  <TORSDO>
F 3

$$$$
=
 OpenBabel10272415173D

 34 39  0  0  1  0  0  0  0  0999 V2000
  186.6420  175.2710  137.0100 C   0  0  2  0  0  3  0  0  0  0  0  0
  186.5570  172.9840  135.9160 C   0  0  0  0  0  2  0  0  0  0  0  0
  189.5630  175.0800  136.7550 C   0  0  2  0  0  0  0  0  0  0  0  0
  184.1180  173.4980  136.1460 N   0  0  0  0  0  0  0  0  0  0  0  0
  188.9090  176.1700  137.6170 C   0  0  0  0  0  2  0  0  0  0  0  0
  187.5010  176.5190  137.1530 C   0  0  0  0  0  2  0  0  0  0  0  0
  188.6680  173.9220  136.6030 N   0  0  0  0  0  2  0  0  0  0  0  0
  187.3470  174.2750  136.0760 C   0  0  2  0  0  3  0  0  0  0  0  0
  190.7740  174.6160  137.5480 C   0  0  0  0  0  1  0  0  0  0  0  0
  185.2180  173.1990  135.2130 C   0  0  0  0  0  2  0  0  0  0  0  0
  185.3220  175.7190  136.4110 C   0  0  0  0  0  2  0  0  0  0  0  0
  184.1610  174.8080  136.8390 C   0  0  1  0  0  3  0  0  0  0  0  0
  182.9940  177.0820  136.8750 C   0  0  0  0  0  2  0  0  0  0  0  0
  181.2420  173.8130  137.8600 C   0  0  0  0  0  2  0  0  0  0  0  0
  180.1540  172.4920  136.0050 C   0  0  0  0  0  2  0  0  0  0  0  0
  182.4660  175.4740  139.3710 C   0  0  0  0  0  2  0  0  0  0  0  0
  183.6670  178.9630  138.3770 C   0  0  0  0  0  3  0  0  0  0  0  0
  183.5820  178.8020  140.7910 C   0  0  0  0  0  3  0  0  0  0  0  0
  180.3060  174.0970  134.3480 N   0  0  0  0  0  2  0  0  0  0  0  0
  183.8550  179.5390  139.6360 C   0  0  0  0  0  3  0  0  0  0  0  0
  182.9130  176.9060  139.4340 C   0  0  0  0  0  0  0  0  0  0  0  0
  183.2100  177.6460  138.2620 C   0  0  0  0  0  0  0  0  0  0  0  0
  183.1160  177.4880  140.6900 C   0  0  0  0  0  3  0  0  0  0  0  0
  180.2720  173.8470  136.6800 C   0  0  2  0  0  3  0  0  0  0  0  0
  180.0530  172.8620  134.5680 C   0  0  0  0  0  2  0  0  0  0  0  0
  182.1170  175.2230  135.4860 C   0  0  0  0  0  2  0  0  0  0  0  0
  180.6300  174.8250  135.5410 C   0  0  1  0  0  3  0  0  0  0  0  0
  181.8570  175.1890  138.0100 C   0  0  1  0  0  3  0  0  0  0  0  0
  182.7890  175.5580  136.8340 C   0  0  1  0  0  0  0  0  0  0  0  0
  190.0780  175.6140  135.3900 C   0  0  0  0  0  3  0  0  0  0  0  0
  189.8240  177.1050  135.2180 C   0  0  0  0  0  1  0  0  0  0  0  0
  191.5440  175.3260  135.1010 C   0  0  0  0  0  1  0  0  0  0  0  0
  183.5920  171.0550  136.3580 C   0  0  0  0  0  1  0  0  0  0  0  0
  183.8670  172.3770  137.0670 C   0  0  0  0  0  2  0  0  0  0  0  0
  1 11  1  6  0  0  0
  1  6  1  0  0  0  0
  3  9  1  1  0  0  0
  3  5  1  0  0  0  0
  4 12  1  0  0  0  0
  4 34  1  0  0  0  0
  6  5  1  0  0  0  0
  7  3  1  0  0  0  0
  8  2  1  1  0  0  0
  8  7  1  0  0  0  0
  8  1  1  0  0  0  0
 10  2  1  0  0  0  0
 10  4  1  0  0  0  0
 12 11  1  6  0  0  0
 13 22  1  0  0  0  0
 16 21  1  0  0  0  0
 17 20  1  0  0  0  0
 19 25  1  0  0  0  0
 19 27  1  0  0  0  0
 20 18  2  0  0  0  0
 21 23  2  0  0  0  0
 22 17  2  0  0  0  0
 22 21  1  0  0  0  0
 23 18  1  0  0  0  0
 24 15  1  6  0  0  0
 24 14  1  0  0  0  0
 25 15  1  0  0  0  0
 27 26  1  6  0  0  0
 27 24  1  0  0  0  0
 28 14  1  1  0  0  0
 28 16  1  0  0  0  0
 29 26  1  6  0  0  0
 29 12  1  0  0  0  0
 29 13  1  0  0  0  0
 29 28  1  0  0  0  0
 30  3  1  0  0  0  0
 31 30  1  0  0  0  0
 32 30  1  0  0  0  0
 33 34  1  0  0  0  0
M  END
>  <MODEL>
6

>  <REMARK>
 VINA RESULT:      -4.6      4.301      9.276
  Name = 
  3 active torsions:
  status: ('A' for Active; 'I' for Inactive)
    1  A    between atoms: C_7  and  C_11
    2  A    between atoms: N_9  and  C_18
    3  A    between atoms: C_33  and  C_34
                            x       y       z     vdW  Elec       q    Type
                         _______ _______ _______ _____ _____    ______ ____

>  <TORSDO>
F 3

$$$$
=
 OpenBabel10272415173D

 34 39  0  0  1  0  0  0  0  0999 V2000
  190.3110  176.5630  140.6560 C   0  0  2  0  0  3  0  0  0  0  0  0
  192.8250  176.6860  140.9710 C   0  0  0  0  0  2  0  0  0  0  0  0
  190.1110  177.0380  143.5490 C   0  0  2  0  0  0  0  0  0  0  0  0
  192.6650  176.4090  138.4890 N   0  0  0  0  0  0  0  0  0  0  0  0
  188.8910  176.5920  142.7290 C   0  0  0  0  0  2  0  0  0  0  0  0
  188.9870  177.0000  141.2650 C   0  0  0  0  0  2  0  0  0  0  0  0
  191.3630  176.6400  142.8870 N   0  0  0  0  0  2  0  0  0  0  0  0
  191.4660  177.1160  141.5050 C   0  0  2  0  0  3  0  0  0  0  0  0
  190.0210  176.2640  144.8530 C   0  0  0  0  0  1  0  0  0  0  0  0
  193.1250  177.2690  139.5910 C   0  0  0  0  0  2  0  0  0  0  0  0
  190.3560  177.1420  139.2540 C   0  0  0  0  0  2  0  0  0  0  0  0
  191.1990  176.2770  138.3050 C   0  0  1  0  0  3  0  0  0  0  0  0
  189.7630  177.5910  136.6480 C   0  0  0  0  0  2  0  0  0  0  0  0
  191.0410  174.0390  135.9540 C   0  0  0  0  0  2  0  0  0  0  0  0
  193.3230  173.8300  134.8960 C   0  0  0  0  0  2  0  0  0  0  0  0
  188.8150  174.7490  136.9970 C   0  0  0  0  0  2  0  0  0  0  0  0
  187.4110  178.3010  137.1110 C   0  0  0  0  0  3  0  0  0  0  0  0
  185.6240  176.7190  137.5140 C   0  0  0  0  0  3  0  0  0  0  0  0
  193.6180  176.0560  134.3460 N   0  0  0  0  0  2  0  0  0  0  0  0
  186.0660  178.0370  137.3830 C   0  0  0  0  0  3  0  0  0  0  0  0
  187.8710  175.9120  137.0870 C   0  0  0  0  0  0  0  0  0  0  0  0
  188.3250  177.2510  136.9730 C   0  0  0  0  0  0  0  0  0  0  0  0
  186.5250  175.6600  137.3710 C   0  0  0  0  0  3  0  0  0  0  0  0
  191.9490  174.4710  134.8050 C   0  0  2  0  0  3  0  0  0  0  0  0
  194.2170  174.9290  134.4450 C   0  0  0  0  0  2  0  0  0  0  0  0
  192.0130  176.7670  136.0080 C   0  0  0  0  0  2  0  0  0  0  0  0
  192.2290  175.9860  134.6980 C   0  0  1  0  0  3  0  0  0  0  0  0
  190.0620  175.1610  136.2340 C   0  0  1  0  0  3  0  0  0  0  0  0
  190.7450  176.4190  136.8150 C   0  0  1  0  0  0  0  0  0  0  0  0
  190.0830  178.5510  143.9040 C   0  0  0  0  0  3  0  0  0  0  0  0
  189.3080  178.8310  145.1840 C   0  0  0  0  0  1  0  0  0  0  0  0
  191.4500  179.2120  143.9990 C   0  0  0  0  0  1  0  0  0  0  0  0
  194.7960  175.1830  137.9930 C   0  0  0  0  0  1  0  0  0  0  0  0
  193.3550  175.1080  138.4900 C   0  0  0  0  0  2  0  0  0  0  0  0
  1 11  1  6  0  0  0
  1  6  1  0  0  0  0
  1  8  1  0  0  0  0
  3 30  1  0  0  0  0
  3  9  1  1  0  0  0
  4 34  1  0  0  0  0
  4 10  1  0  0  0  0
  5  3  1  0  0  0  0
  6  5  1  0  0  0  0
  7  3  1  0  0  0  0
  8  2  1  6  0  0  0
  8  7  1  0  0  0  0
 10  2  1  0  0  0  0
 12  4  1  0  0  0  0
 12 11  1  1  0  0  0
 13 29  1  0  0  0  0
 13 22  1  0  0  0  0
 16 21  1  0  0  0  0
 17 20  1  0  0  0  0
 19 25  1  0  0  0  0
 19 27  1  0  0  0  0
 20 18  2  0  0  0  0
 21 23  2  0  0  0  0
 22 21  1  0  0  0  0
 22 17  2  0  0  0  0
 23 18  1  0  0  0  0
 24 15  1  1  0  0  0
 24 14  1  0  0  0  0
 25 15  1  0  0  0  0
 27 24  1  0  0  0  0
 27 26  1  1  0  0  0
 28 14  1  1  0  0  0
 28 29  1  0  0  0  0
 28 16  1  0  0  0  0
 29 26  1  6  0  0  0
 29 12  1  0  0  0  0
 30 32  1  0  0  0  0
 30 31  1  0  0  0  0
 33 34  1  0  0  0  0
M  END
>  <MODEL>
7

>  <REMARK>
 VINA RESULT:      -4.4      3.524      7.668
  Name = 
  3 active torsions:
  status: ('A' for Active; 'I' for Inactive)
    1  A    between atoms: C_7  and  C_11
    2  A    between atoms: N_9  and  C_18
    3  A    between atoms: C_33  and  C_34
                            x       y       z     vdW  Elec       q    Type
                         _______ _______ _______ _____ _____    ______ ____

>  <TORSDO>
F 3

$$$$
=
 OpenBabel10272415173D

 34 39  0  0  1  0  0  0  0  0999 V2000
  185.8670  176.5980  137.8640 C   0  0  2  0  0  3  0  0  0  0  0  0
  187.5200  178.3680  138.6210 C   0  0  0  0  0  2  0  0  0  0  0  0
  183.8050  178.2240  139.1830 C   0  0  2  0  0  0  0  0  0  0  0  0
  189.0110  176.8500  137.3030 N   0  0  0  0  0  0  0  0  0  0  0  0
  183.5090  176.7930  138.7090 C   0  0  0  0  0  2  0  0  0  0  0  0
  184.3970  176.3630  137.5500 C   0  0  0  0  0  2  0  0  0  0  0  0
  185.2460  178.4120  139.4180 N   0  0  0  0  0  2  0  0  0  0  0  0
  186.0720  178.0690  138.2570 C   0  0  2  0  0  3  0  0  0  0  0  0
  183.1070  178.3530  140.5260 C   0  0  0  0  0  1  0  0  0  0  0  0
  188.4680  178.2120  137.4330 C   0  0  0  0  0  2  0  0  0  0  0  0
  186.6400  176.2730  136.5990 C   0  0  0  0  0  2  0  0  0  0  0  0
  188.0620  175.7820  136.9070 C   0  0  1  0  0  3  0  0  0  0  0  0
  187.5380  174.5380  134.7360 C   0  0  0  0  0  2  0  0  0  0  0  0
  190.4780  173.6120  137.0220 C   0  0  0  0  0  2  0  0  0  0  0  0
  192.6580  174.8220  136.6310 C   0  0  0  0  0  2  0  0  0  0  0  0
  188.1020  172.6650  137.0320 C   0  0  0  0  0  2  0  0  0  0  0  0
  185.4350  173.2400  134.3550 C   0  0  0  0  0  3  0  0  0  0  0  0
  184.8310  171.3120  135.6890 C   0  0  0  0  0  3  0  0  0  0  0  0
  192.1050  175.8200  134.6210 N   0  0  0  0  0  2  0  0  0  0  0  0
  184.5520  172.1960  134.6440 C   0  0  0  0  0  3  0  0  0  0  0  0
  186.8920  172.5000  136.1580 C   0  0  0  0  0  0  0  0  0  0  0  0
  186.6000  173.4110  135.1110 C   0  0  0  0  0  0  0  0  0  0  0  0
  185.9950  171.4670  136.4460 C   0  0  0  0  0  3  0  0  0  0  0  0
  191.5420  174.0080  136.0000 C   0  0  2  0  0  3  0  0  0  0  0  0
  192.9640  175.8170  135.5680 C   0  0  0  0  0  2  0  0  0  0  0  0
  189.7390  175.6280  135.0780 C   0  0  0  0  0  2  0  0  0  0  0  0
  191.0520  174.8660  134.8140 C   0  0  1  0  0  3  0  0  0  0  0  0
  189.1510  173.4850  136.3030 C   0  0  1  0  0  3  0  0  0  0  0  0
  188.6180  174.8410  135.7880 C   0  0  1  0  0  0  0  0  0  0  0  0
  183.2110  179.3090  138.2440 C   0  0  0  0  0  3  0  0  0  0  0  0
  181.8050  178.9630  137.7760 C   0  0  0  0  0  1  0  0  0  0  0  0
  183.2100  180.7200  138.8140 C   0  0  0  0  0  1  0  0  0  0  0  0
  190.7110  177.6130  138.9820 C   0  0  0  0  0  1  0  0  0  0  0  0
  189.8300  176.4780  138.4690 C   0  0  0  0  0  2  0  0  0  0  0  0
  1 11  1  6  0  0  0
  1  8  1  0  0  0  0
  3  7  1  0  0  0  0
  3  9  1  1  0  0  0
  4 10  1  0  0  0  0
  4 34  1  0  0  0  0
  5  3  1  0  0  0  0
  6  1  1  0  0  0  0
  6  5  1  0  0  0  0
  8  2  1  1  0  0  0
  8  7  1  0  0  0  0
 10  2  1  0  0  0  0
 12 11  1  6  0  0  0
 12  4  1  0  0  0  0
 13 22  1  0  0  0  0
 17 20  2  0  0  0  0
 17 22  1  0  0  0  0
 18 23  2  0  0  0  0
 19 27  1  0  0  0  0
 19 25  1  0  0  0  0
 20 18  1  0  0  0  0
 21 23  1  0  0  0  0
 21 16  1  0  0  0  0
 22 21  2  0  0  0  0
 24 15  1  1  0  0  0
 24 14  1  0  0  0  0
 25 15  1  0  0  0  0
 26 29  1  0  0  0  0
 27 26  1  1  0  0  0
 27 24  1  0  0  0  0
 28 14  1  1  0  0  0
 28 16  1  0  0  0  0
 29 13  1  6  0  0  0
 29 28  1  0  0  0  0
 29 12  1  0  0  0  0
 30 32  1  0  0  0  0
 30  3  1  0  0  0  0
 31 30  1  0  0  0  0
 34 33  1  0  0  0  0
M  END
>  <MODEL>
8

>  <REMARK>
 VINA RESULT:      -4.3      3.816      6.077
  Name = 
  3 active torsions:
  status: ('A' for Active; 'I' for Inactive)
    1  A    between atoms: C_7  and  C_11
    2  A    between atoms: N_9  and  C_18
    3  A    between atoms: C_33  and  C_34
                            x       y       z     vdW  Elec       q    Type
                         _______ _______ _______ _____ _____    ______ ____

>  <TORSDO>
F 3

$$$$
=
 OpenBabel10272415173D

 34 39  0  0  1  0  0  0  0  0999 V2000
  190.1450  174.0490  136.3740 C   0  0  2  0  0  3  0  0  0  0  0  0
  190.5490  171.7840  135.3050 C   0  0  0  0  0  2  0  0  0  0  0  0
  193.0590  174.2040  136.7120 C   0  0  2  0  0  0  0  0  0  0  0  0
  188.0710  172.0060  135.0360 N   0  0  0  0  0  0  0  0  0  0  0  0
  192.1220  175.1970  137.4160 C   0  0  0  0  0  2  0  0  0  0  0  0
  190.8050  175.3860  136.6760 C   0  0  0  0  0  2  0  0  0  0  0  0
  192.3550  172.9520  136.3940 N   0  0  0  0  0  2  0  0  0  0  0  0
  191.1340  173.1560  135.6090 C   0  0  2  0  0  3  0  0  0  0  0  0
  194.1320  173.8730  137.7350 C   0  0  0  0  0  1  0  0  0  0  0  0
  189.3620  171.8510  134.3460 C   0  0  0  0  0  2  0  0  0  0  0  0
  188.9280  174.3480  135.5190 C   0  0  0  0  0  2  0  0  0  0  0  0
  187.8200  173.3010  135.7130 C   0  0  1  0  0  3  0  0  0  0  0  0
  186.4910  175.1940  134.6230 C   0  0  0  0  0  2  0  0  0  0  0  0
  185.0450  172.9270  137.3620 C   0  0  0  0  0  2  0  0  0  0  0  0
  183.9540  170.7780  136.6120 C   0  0  0  0  0  2  0  0  0  0  0  0
  186.2280  175.1800  137.6280 C   0  0  0  0  0  2  0  0  0  0  0  0
  187.1080  177.6090  134.8120 C   0  0  0  0  0  3  0  0  0  0  0  0
  187.1730  178.7790  136.9310 C   0  0  0  0  0  3  0  0  0  0  0  0
  183.8920  171.2330  134.3460 N   0  0  0  0  0  2  0  0  0  0  0  0
  187.3250  178.7810  135.5420 C   0  0  0  0  0  3  0  0  0  0  0  0
  186.5700  176.4310  136.8710 C   0  0  0  0  0  0  0  0  0  0  0  0
  186.7430  176.4260  135.4640 C   0  0  0  0  0  0  0  0  0  0  0  0
  186.8010  177.6060  137.5930 C   0  0  0  0  0  3  0  0  0  0  0  0
  184.0100  172.2860  136.4390 C   0  0  2  0  0  3  0  0  0  0  0  0
  183.7440  170.3080  135.2170 C   0  0  0  0  0  2  0  0  0  0  0  0
  185.6770  172.8530  134.5360 C   0  0  0  0  0  2  0  0  0  0  0  0
  184.2280  172.5010  134.9260 C   0  0  1  0  0  3  0  0  0  0  0  0
  185.5640  174.1830  136.6930 C   0  0  1  0  0  3  0  0  0  0  0  0
  186.3980  173.8860  135.4270 C   0  0  1  0  0  0  0  0  0  0  0  0
  193.7710  174.8150  135.4740 C   0  0  0  0  0  3  0  0  0  0  0  0
  194.1460  176.2760  135.6830 C   0  0  0  0  0  1  0  0  0  0  0  0
  194.9990  174.0530  134.9980 C   0  0  0  0  0  1  0  0  0  0  0  0
  187.2670  169.6320  135.1310 C   0  0  0  0  0  1  0  0  0  0  0  0
  187.7740  170.8500  135.8980 C   0  0  0  0  0  2  0  0  0  0  0  0
  1 11  1  6  0  0  0
  1  6  1  0  0  0  0
  3  5  1  0  0  0  0
  3  9  1  1  0  0  0
  4 12  1  0  0  0  0
  4 34  1  0  0  0  0
  6  5  1  0  0  0  0
  7  3  1  0  0  0  0
  8  2  1  1  0  0  0
  8  1  1  0  0  0  0
  8  7  1  0  0  0  0
 10  4  1  0  0  0  0
 10  2  1  0  0  0  0
 12 11  1  6  0  0  0
 13 29  1  0  0  0  0
 13 22  1  0  0  0  0
 17 22  2  0  0  0  0
 17 20  1  0  0  0  0
 18 23  1  0  0  0  0
 19 27  1  0  0  0  0
 19 25  1  0  0  0  0
 20 18  2  0  0  0  0
 21 23  2  0  0  0  0
 21 16  1  0  0  0  0
 22 21  1  0  0  0  0
 24 15  1  6  0  0  0
 24 14  1  0  0  0  0
 25 15  1  0  0  0  0
 27 26  1  1  0  0  0
 27 24  1  0  0  0  0
 28 14  1  1  0  0  0
 28 16  1  0  0  0  0
 29 26  1  6  0  0  0
 29 12  1  0  0  0  0
 29 28  1  0  0  0  0
 30 31  1  0  0  0  0
 30  3  1  0  0  0  0
 32 30  1  0  0  0  0
 33 34  1  0  0  0  0
M  END
>  <MODEL>
9

>  <REMARK>
 VINA RESULT:      -4.1      5.618      9.925
  Name = 
  3 active torsions:
  status: ('A' for Active; 'I' for Inactive)
    1  A    between atoms: C_7  and  C_11
    2  A    between atoms: N_9  and  C_18
    3  A    between atoms: C_33  and  C_34
                            x       y       z     vdW  Elec       q    Type
                         _______ _______ _______ _____ _____    ______ ____

>  <TORSDO>
F 3

$$$$
