=
 OpenBabel10272401323D

 55 59  0  0  1  0  0  0  0  0999 V2000
  190.1780  176.6100  139.2170 C   0  0  0  0  0  2  0  0  0  0  0  0
  191.5900  177.8380  142.5750 C   0  0  0  0  0  2  0  0  0  0  0  0
  189.1270  177.8420  141.1630 C   0  0  1  0  0  3  0  0  0  0  0  0
  189.3770  178.7010  142.2510 O   0  0  0  0  0  0  0  0  0  0  0  0
  188.1750  178.1820  138.7870 C   0  0  2  0  0  3  0  0  0  0  0  0
  188.8230  176.8140  138.5270 C   0  0  1  0  0  3  0  0  0  0  0  0
  188.9360  179.2100  138.2280 O   0  0  0  0  0  1  0  0  0  0  0  0
  191.5030  177.0310  141.2820 C   0  0  0  0  0  2  0  0  0  0  0  0
  190.1860  177.9920  143.1540 C   0  0  0  0  0  2  0  0  0  0  0  0
  188.0060  178.4370  140.2890 C   0  0  1  0  0  3  0  0  0  0  0  0
  190.4210  177.5940  140.3620 C   0  0  1  0  0  3  0  0  0  0  0  0
  189.7760  176.7870  136.3520 O   0  0  0  0  0  0  0  0  0  0  0  0
  188.8160  176.4150  137.0780 C   0  0  0  0  0  0  0  0  0  0  0  0
  185.7210  174.7230  137.1870 O   0  0  0  0  0  0  0  0  0  0  0  0
  187.8060  175.5490  136.5260 N   0  0  0  0  0  0  0  0  0  0  0  0
  186.4100  175.7210  136.8390 C   0  0  0  0  0  0  0  0  0  0  0  0
  187.1300  173.9020  134.8320 C   0  0  0  0  0  3  0  0  0  0  0  0
  187.1860  172.6580  134.3480 C   0  0  0  0  0  3  0  0  0  0  0  0
  188.8920  173.3230  136.5370 C   0  0  0  0  0  2  0  0  0  0  0  0
  189.1330  172.0900  135.7100 C   0  0  0  0  0  3  0  0  0  0  0  0
  188.3060  171.7660  134.7120 C   0  0  0  0  0  3  0  0  0  0  0  0
  188.2500  174.4320  135.6900 C   0  0  2  0  0  3  0  0  0  0  0  0
  185.7570  177.0350  136.6680 C   0  0  0  0  0  0  0  0  0  0  0  0
  186.4130  177.9740  136.1400 O   0  0  0  0  0  0  0  0  0  0  0  0
  183.3910  176.1170  134.7820 Cl  0  0  0  0  0  0  0  0  0  0  0  0
  184.1570  177.8870  138.3660 C   0  0  0  0  0  3  0  0  0  0  0  0
  182.8680  178.1740  138.8140 C   0  0  0  0  0  3  0  0  0  0  0  0
  183.2460  176.9400  136.3270 C   0  0  0  0  0  0  0  0  0  0  0  0
  181.9580  177.2240  136.7860 C   0  0  0  0  0  3  0  0  0  0  0  0
  181.7610  177.8590  138.0190 C   0  0  0  0  0  0  0  0  0  0  0  0
  184.3680  177.2760  137.1210 C   0  0  0  0  0  0  0  0  0  0  0  0
  180.3780  178.1320  138.5230 C   0  0  1  0  0  3  0  0  0  0  0  0
  180.4240  178.6740  139.8820 C   0  0  0  0  0  2  0  0  0  0  0  0
  180.1960  179.5780  138.7460 N   0  0  0  0  0  2  0  0  0  0  0  0
  186.7480  177.9390  140.7240 O   0  0  0  0  0  0  0  0  0  0  0  0
  185.8970  178.7020  141.5210 C   0  0  0  0  0  0  0  0  0  0  0  0
  185.4340  179.7830  141.0710 O   0  0  0  0  0  0  0  0  0  0  0  0
  185.5750  178.2760  142.8120 O   0  0  0  0  0  0  0  0  0  0  0  0
  184.9780  179.1380  143.7690 C   0  0  1  0  0  3  0  0  0  0  0  0
  183.0160  179.3470  145.1630 O   0  0  0  0  0  1  0  0  0  0  0  0
  183.5590  178.6450  144.0800 C   0  0  1  0  0  3  0  0  0  0  0  0
  182.6580  178.7650  142.8620 C   0  0  0  0  0  2  0  0  0  0  0  0
  181.7570  179.8150  143.0420 O   0  0  0  0  0  1  0  0  0  0  0  0
  185.8630  179.1920  145.0090 C   0  0  0  0  0  2  0  0  0  0  0  0
  185.0840  178.4040  147.2280 C   0  0  0  0  0  1  0  0  0  0  0  0
  185.6630  177.9680  145.8920 C   0  0  2  0  0  3  0  0  0  0  0  0
  186.9960  177.2420  146.0990 C   0  0  1  0  0  3  0  0  0  0  0  0
  187.6640  177.0650  144.8780 O   0  0  0  0  0  1  0  0  0  0  0  0
  187.8140  177.2380  148.2260 O   0  0  0  0  0  1  0  0  0  0  0  0
  187.8450  177.9460  147.0700 N   0  0  0  0  0  0  0  0  0  0  0  0
  189.2310  177.9680  146.6150 C   0  0  0  0  0  2  0  0  0  0  0  0
  189.9740  177.0310  147.3340 O   0  0  0  0  0  0  0  0  0  0  0  0
  190.8690  176.5070  146.4000 C   0  0  0  0  0  2  0  0  0  0  0  0
  192.3980  175.7450  147.7920 C   0  0  0  0  0  1  0  0  0  0  0  0
  192.1760  176.7290  146.8320 O   0  0  0  0  0  0  0  0  0  0  0  0
  2  9  1  0  0  0  0
  3  4  1  1  0  0  0
  4  9  1  0  0  0  0
  5  7  1  1  0  0  0
  5 10  1  0  0  0  0
  6 13  1  6  0  0  0
  6  5  1  0  0  0  0
  6  1  1  0  0  0  0
  8  2  1  0  0  0  0
 10 35  1  1  0  0  0
 10  3  1  0  0  0  0
 11  1  1  6  0  0  0
 11  3  1  0  0  0  0
 11  8  1  0  0  0  0
 12 13  2  0  0  0  0
 15 16  1  0  0  0  0
 15 13  1  0  0  0  0
 16 14  2  0  0  0  0
 17 22  1  0  0  0  0
 18 21  1  0  0  0  0
 18 17  2  0  0  0  0
 20 19  1  0  0  0  0
 21 20  2  0  0  0  0
 22 15  1  1  0  0  0
 22 19  1  0  0  0  0
 23 16  1  0  0  0  0
 23 31  1  0  0  0  0
 24 23  2  0  0  0  0
 25 28  1  0  0  0  0
 26 27  1  0  0  0  0
 28 29  2  0  0  0  0
 28 31  1  0  0  0  0
 29 30  1  0  0  0  0
 30 27  2  0  0  0  0
 31 26  2  0  0  0  0
 32 30  1  6  0  0  0
 32 34  1  0  0  0  0
 32 33  1  0  0  0  0
 34 33  1  0  0  0  0
 35 36  1  0  0  0  0
 36 38  1  0  0  0  0
 37 36  2  0  0  0  0
 38 39  1  0  0  0  0
 39 41  1  0  0  0  0
 39 44  1  1  0  0  0
 41 40  1  1  0  0  0
 42 43  1  0  0  0  0
 42 41  1  0  0  0  0
 44 46  1  0  0  0  0
 46 47  1  0  0  0  0
 46 45  1  1  0  0  0
 47 48  1  6  0  0  0
 47 50  1  0  0  0  0
 50 49  1  0  0  0  0
 51 50  1  0  0  0  0
 51 52  1  0  0  0  0
 53 55  1  0  0  0  0
 53 52  1  0  0  0  0
 55 54  1  0  0  0  0
M  END
>  <MODEL>
1

>  <REMARK>
 VINA RESULT:      -7.3      0.000      0.000
  Name = 
  19 active torsions:
  status: ('A' for Active; 'I' for Inactive)
    1  A    between atoms: C_1  and  C_21
    2  A    between atoms: C_1  and  N_53
    3  A    between atoms: C_3  and  O_25
    4  A    between atoms: C_3  and  O_38
    5  A    between atoms: C_6  and  C_14
    6  A    between atoms: C_6  and  O_22
    7  A    between atoms: C_6  and  C_46
    8  A    between atoms: C_8  and  O_22
    9  A    between atoms: C_8  and  O_54
   10  A    between atoms: C_10  and  C_48
   11  A    between atoms: C_14  and  C_20
   12  A    between atoms: C_19  and  C_37
   13  A    between atoms: C_21  and  C_46
   14  A    between atoms: C_26  and  N_45
   15  A    between atoms: C_29  and  O_38
   16  A    between atoms: C_29  and  N_53
   17  A    between atoms: C_33  and  C_49
   18  A    between atoms: C_33  and  C_52
   19  A    between atoms: C_51  and  O_54
                            x       y       z     vdW  Elec       q    Type
                         _______ _______ _______ _____ _____    ______ ____

>  <TORSDO>
F 19

$$$$
=
 OpenBabel10272401323D

 55 59  0  0  1  0  0  0  0  0999 V2000
  187.4810  175.3640  136.2880 C   0  0  0  0  0  2  0  0  0  0  0  0
  191.2600  175.2320  136.9760 C   0  0  0  0  0  2  0  0  0  0  0  0
  188.9470  176.5240  137.9960 C   0  0  1  0  0  3  0  0  0  0  0  0
  190.2510  176.9770  138.2740 O   0  0  0  0  0  0  0  0  0  0  0  0
  186.7750  177.6730  137.2020 C   0  0  2  0  0  3  0  0  0  0  0  0
  186.3540  176.2370  136.8560 C   0  0  1  0  0  3  0  0  0  0  0  0
  187.1300  178.3810  136.0530 O   0  0  0  0  0  1  0  0  0  0  0  0
  189.8990  174.7960  136.4380 C   0  0  0  0  0  2  0  0  0  0  0  0
  191.0690  175.8390  138.3640 C   0  0  0  0  0  2  0  0  0  0  0  0
  187.9500  177.6830  138.1860 C   0  0  1  0  0  3  0  0  0  0  0  0
  188.8750  175.9200  136.5780 C   0  0  1  0  0  3  0  0  0  0  0  0
  185.1060  176.4700  134.8500 O   0  0  0  0  0  0  0  0  0  0  0  0
  185.0750  176.1610  136.0720 C   0  0  0  0  0  0  0  0  0  0  0  0
  183.0480  175.1660  138.7830 O   0  0  0  0  0  0  0  0  0  0  0  0
  183.8530  175.6600  136.6440 N   0  0  0  0  0  0  0  0  0  0  0  0
  183.4210  176.0490  137.9630 C   0  0  0  0  0  0  0  0  0  0  0  0
  181.6070  174.8720  136.0330 C   0  0  0  0  0  3  0  0  0  0  0  0
  180.7660  173.8610  135.7930 C   0  0  0  0  0  3  0  0  0  0  0  0
  183.5190  173.2430  136.2210 C   0  0  0  0  0  2  0  0  0  0  0  0
  182.5840  172.2390  135.6030 C   0  0  0  0  0  3  0  0  0  0  0  0
  181.2880  172.5240  135.4420 C   0  0  0  0  0  3  0  0  0  0  0  0
  183.0930  174.6760  135.8710 C   0  0  2  0  0  3  0  0  0  0  0  0
  183.3230  177.4760  138.3310 C   0  0  0  0  0  0  0  0  0  0  0  0
  183.5200  178.3470  137.4410 O   0  0  0  0  0  0  0  0  0  0  0  0
  180.3090  178.0600  139.0930 Cl  0  0  0  0  0  0  0  0  0  0  0  0
  184.0760  178.0150  140.6360 C   0  0  0  0  0  3  0  0  0  0  0  0
  183.8460  178.4530  141.9400 C   0  0  0  0  0  3  0  0  0  0  0  0
  181.7100  178.2260  140.1400 C   0  0  0  0  0  0  0  0  0  0  0  0
  181.4870  178.6570  141.4490 C   0  0  0  0  0  3  0  0  0  0  0  0
  182.5520  178.7930  142.3500 C   0  0  0  0  0  0  0  0  0  0  0  0
  183.0210  177.9000  139.7180 C   0  0  0  0  0  0  0  0  0  0  0  0
  182.3050  179.2240  143.7620 C   0  0  1  0  0  3  0  0  0  0  0  0
  183.1840  178.5000  144.6810 C   0  0  0  0  0  2  0  0  0  0  0  0
  183.5050  179.8840  144.3080 N   0  0  0  0  0  2  0  0  0  0  0  0
  187.4620  177.6770  139.5200 O   0  0  0  0  0  0  0  0  0  0  0  0
  188.1020  178.3860  140.5350 C   0  0  0  0  0  0  0  0  0  0  0  0
  187.4910  179.3230  141.1140 O   0  0  0  0  0  0  0  0  0  0  0  0
  189.4140  178.0680  140.8940 O   0  0  0  0  0  0  0  0  0  0  0  0
  189.7210  177.2750  142.0310 C   0  0  1  0  0  3  0  0  0  0  0  0
  191.9270  177.7540  141.1720 O   0  0  0  0  0  1  0  0  0  0  0  0
  191.2000  176.8760  141.9870 C   0  0  1  0  0  3  0  0  0  0  0  0
  191.7980  176.8280  143.3830 C   0  0  0  0  0  2  0  0  0  0  0  0
  191.8980  175.5040  143.8090 O   0  0  0  0  0  1  0  0  0  0  0  0
  189.3610  178.0540  143.2910 C   0  0  0  0  0  2  0  0  0  0  0  0
  188.0130  175.9830  143.4900 C   0  0  0  0  0  1  0  0  0  0  0  0
  188.4620  177.2420  144.2130 C   0  0  2  0  0  3  0  0  0  0  0  0
  187.2510  178.0750  144.6390 C   0  0  1  0  0  3  0  0  0  0  0  0
  186.0540  177.4100  144.3330 O   0  0  0  0  0  1  0  0  0  0  0  0
  186.2070  179.1520  146.3540 O   0  0  0  0  0  1  0  0  0  0  0  0
  187.3130  178.4240  146.0650 N   0  0  0  0  0  0  0  0  0  0  0  0
  187.2660  177.2210  146.8880 C   0  0  0  0  0  2  0  0  0  0  0  0
  187.9170  177.4560  148.0990 O   0  0  0  0  0  0  0  0  0  0  0  0
  189.2430  177.7020  147.7380 C   0  0  0  0  0  2  0  0  0  0  0  0
  191.1640  176.8620  147.0600 C   0  0  0  0  0  1  0  0  0  0  0  0
  189.8830  176.4940  147.4640 O   0  0  0  0  0  0  0  0  0  0  0  0
  1  6  1  0  0  0  0
  2  9  1  0  0  0  0
  3 10  1  0  0  0  0
  3  4  1  6  0  0  0
  4  9  1  0  0  0  0
  5  7  1  6  0  0  0
  5 10  1  0  0  0  0
  6 13  1  6  0  0  0
  6  5  1  0  0  0  0
  8 11  1  0  0  0  0
  8  2  1  0  0  0  0
 10 35  1  1  0  0  0
 11  1  1  1  0  0  0
 11  3  1  0  0  0  0
 12 13  2  0  0  0  0
 13 15  1  0  0  0  0
 15 16  1  0  0  0  0
 16 23  1  0  0  0  0
 16 14  2  0  0  0  0
 18 17  2  0  0  0  0
 20 19  1  0  0  0  0
 21 20  2  0  0  0  0
 21 18  1  0  0  0  0
 22 17  1  0  0  0  0
 22 19  1  0  0  0  0
 22 15  1  1  0  0  0
 23 31  1  0  0  0  0
 24 23  2  0  0  0  0
 25 28  1  0  0  0  0
 26 27  1  0  0  0  0
 27 30  2  0  0  0  0
 28 29  2  0  0  0  0
 29 30  1  0  0  0  0
 31 28  1  0  0  0  0
 31 26  2  0  0  0  0
 32 30  1  6  0  0  0
 32 34  1  0  0  0  0
 32 33  1  0  0  0  0
 34 33  1  0  0  0  0
 35 36  1  0  0  0  0
 36 38  1  0  0  0  0
 36 37  2  0  0  0  0
 38 39  1  0  0  0  0
 39 44  1  1  0  0  0
 41 40  1  6  0  0  0
 41 39  1  0  0  0  0
 41 42  1  0  0  0  0
 42 43  1  0  0  0  0
 44 46  1  0  0  0  0
 46 45  1  6  0  0  0
 46 47  1  0  0  0  0
 47 48  1  1  0  0  0
 47 50  1  0  0  0  0
 50 49  1  0  0  0  0
 50 51  1  0  0  0  0
 51 52  1  0  0  0  0
 53 52  1  0  0  0  0
 54 55  1  0  0  0  0
 55 53  1  0  0  0  0
M  END
>  <MODEL>
2

>  <REMARK>
 VINA RESULT:      -7.2      2.320      4.805
  Name = 
  19 active torsions:
  status: ('A' for Active; 'I' for Inactive)
    1  A    between atoms: C_1  and  C_21
    2  A    between atoms: C_1  and  N_53
    3  A    between atoms: C_3  and  O_25
    4  A    between atoms: C_3  and  O_38
    5  A    between atoms: C_6  and  C_14
    6  A    between atoms: C_6  and  O_22
    7  A    between atoms: C_6  and  C_46
    8  A    between atoms: C_8  and  O_22
    9  A    between atoms: C_8  and  O_54
   10  A    between atoms: C_10  and  C_48
   11  A    between atoms: C_14  and  C_20
   12  A    between atoms: C_19  and  C_37
   13  A    between atoms: C_21  and  C_46
   14  A    between atoms: C_26  and  N_45
   15  A    between atoms: C_29  and  O_38
   16  A    between atoms: C_29  and  N_53
   17  A    between atoms: C_33  and  C_49
   18  A    between atoms: C_33  and  C_52
   19  A    between atoms: C_51  and  O_54
                            x       y       z     vdW  Elec       q    Type
                         _______ _______ _______ _____ _____    ______ ____

>  <TORSDO>
F 19

$$$$
=
 OpenBabel10272401323D

 55 59  0  0  1  0  0  0  0  0999 V2000
  186.8100  176.1760  136.5190 C   0  0  0  0  0  2  0  0  0  0  0  0
  190.6200  175.6710  136.4600 C   0  0  0  0  0  2  0  0  0  0  0  0
  188.6330  176.7390  138.1840 C   0  0  1  0  0  3  0  0  0  0  0  0
  190.0020  177.0320  138.3350 O   0  0  0  0  0  0  0  0  0  0  0  0
  186.4840  178.1690  138.1270 C   0  0  2  0  0  3  0  0  0  0  0  0
  185.8770  176.9100  137.4910 C   0  0  1  0  0  3  0  0  0  0  0  0
  186.7200  179.1520  137.1640 O   0  0  0  0  0  1  0  0  0  0  0  0
  189.1560  175.4710  136.0770 C   0  0  0  0  0  2  0  0  0  0  0  0
  190.7100  175.8740  137.9710 C   0  0  0  0  0  2  0  0  0  0  0  0
  187.7960  177.8460  138.8520 C   0  0  1  0  0  3  0  0  0  0  0  0
  188.2800  176.5600  136.6930 C   0  0  1  0  0  3  0  0  0  0  0  0
  184.3580  177.7320  135.8630 O   0  0  0  0  0  0  0  0  0  0  0  0
  184.4890  177.1190  136.9560 C   0  0  0  0  0  0  0  0  0  0  0  0
  182.8250  175.5800  139.6610 O   0  0  0  0  0  0  0  0  0  0  0  0
  183.3270  176.5630  137.5990 N   0  0  0  0  0  0  0  0  0  0  0  0
  183.1540  176.6220  139.0290 C   0  0  0  0  0  0  0  0  0  0  0  0
  180.9450  176.0690  137.2530 C   0  0  0  0  0  3  0  0  0  0  0  0
  179.9840  175.2000  136.9240 C   0  0  0  0  0  3  0  0  0  0  0  0
  182.6990  174.3720  136.6310 C   0  0  0  0  0  2  0  0  0  0  0  0
  181.5800  173.6180  135.9660 C   0  0  0  0  0  3  0  0  0  0  0  0
  180.3090  173.9900  136.1410 C   0  0  0  0  0  3  0  0  0  0  0  0
  182.3540  175.8630  136.7590 C   0  0  2  0  0  3  0  0  0  0  0  0
  183.2670  177.9080  139.7470 C   0  0  0  0  0  0  0  0  0  0  0  0
  184.0900  178.0000  140.6980 O   0  0  0  0  0  0  0  0  0  0  0  0
  180.1680  177.7550  140.3630 Cl  0  0  0  0  0  0  0  0  0  0  0  0
  183.0320  180.1940  138.8060 C   0  0  0  0  0  3  0  0  0  0  0  0
  182.2730  181.2950  138.4120 C   0  0  0  0  0  3  0  0  0  0  0  0
  181.0230  179.0790  139.5850 C   0  0  0  0  0  0  0  0  0  0  0  0
  180.2710  180.1880  139.1940 C   0  0  0  0  0  3  0  0  0  0  0  0
  180.8850  181.2930  138.5880 C   0  0  0  0  0  0  0  0  0  0  0  0
  182.4240  179.0720  139.3890 C   0  0  0  0  0  0  0  0  0  0  0  0
  180.0810  182.4940  138.2000 C   0  0  1  0  0  3  0  0  0  0  0  0
  180.9100  183.4560  137.4740 C   0  0  0  0  0  2  0  0  0  0  0  0
  179.9860  182.5880  136.7310 N   0  0  0  0  0  2  0  0  0  0  0  0
  187.5260  177.4910  140.2010 O   0  0  0  0  0  0  0  0  0  0  0  0
  187.9660  178.2760  141.2640 C   0  0  0  0  0  0  0  0  0  0  0  0
  187.2260  179.1980  141.6990 O   0  0  0  0  0  0  0  0  0  0  0  0
  189.2230  178.0520  141.8300 O   0  0  0  0  0  0  0  0  0  0  0  0
  189.3910  177.3670  143.0620 C   0  0  1  0  0  3  0  0  0  0  0  0
  190.4430  175.8670  141.4880 O   0  0  0  0  0  1  0  0  0  0  0  0
  190.3170  176.1640  142.8510 C   0  0  1  0  0  3  0  0  0  0  0  0
  191.6830  176.4070  143.4710 C   0  0  0  0  0  2  0  0  0  0  0  0
  191.9700  175.4000  144.3930 O   0  0  0  0  0  1  0  0  0  0  0  0
  189.9270  178.3430  144.1040 C   0  0  0  0  0  2  0  0  0  0  0  0
  190.1960  177.5790  146.4480 C   0  0  0  0  0  1  0  0  0  0  0  0
  189.2220  178.1730  145.4430 C   0  0  2  0  0  3  0  0  0  0  0  0
  187.9980  177.2670  145.2850 C   0  0  1  0  0  3  0  0  0  0  0  0
  187.7550  176.5450  146.4630 O   0  0  0  0  0  1  0  0  0  0  0  0
  186.0540  177.2260  144.0970 O   0  0  0  0  0  1  0  0  0  0  0  0
  186.8120  178.0340  144.8790 N   0  0  0  0  0  0  0  0  0  0  0  0
  186.0070  178.3840  146.0440 C   0  0  0  0  0  2  0  0  0  0  0  0
  184.7030  178.6730  145.6420 O   0  0  0  0  0  0  0  0  0  0  0  0
  184.8340  179.7860  144.8100 C   0  0  0  0  0  2  0  0  0  0  0  0
  182.9200  178.9360  144.1260 C   0  0  0  0  0  1  0  0  0  0  0  0
  184.0490  179.6130  143.6710 O   0  0  0  0  0  0  0  0  0  0  0  0
  1 11  1  0  0  0  0
  1  6  1  0  0  0  0
  2  9  1  0  0  0  0
  3  4  1  6  0  0  0
  3 10  1  0  0  0  0
  5  7  1  6  0  0  0
  5 10  1  0  0  0  0
  6 13  1  6  0  0  0
  6  5  1  0  0  0  0
  8  2  1  0  0  0  0
  9  4  1  0  0  0  0
 10 35  1  1  0  0  0
 11  8  1  1  0  0  0
 11  3  1  0  0  0  0
 12 13  2  0  0  0  0
 13 15  1  0  0  0  0
 15 16  1  0  0  0  0
 16 14  2  0  0  0  0
 16 23  1  0  0  0  0
 18 17  2  0  0  0  0
 19 22  1  0  0  0  0
 20 21  2  0  0  0  0
 20 19  1  0  0  0  0
 21 18  1  0  0  0  0
 22 17  1  0  0  0  0
 22 15  1  1  0  0  0
 23 24  2  0  0  0  0
 26 31  1  0  0  0  0
 27 30  1  0  0  0  0
 27 26  2  0  0  0  0
 28 25  1  0  0  0  0
 29 28  1  0  0  0  0
 30 29  2  0  0  0  0
 31 28  2  0  0  0  0
 31 23  1  0  0  0  0
 32 30  1  6  0  0  0
 33 32  1  0  0  0  0
 34 33  1  0  0  0  0
 34 32  1  0  0  0  0
 35 36  1  0  0  0  0
 36 37  2  0  0  0  0
 36 38  1  0  0  0  0
 38 39  1  0  0  0  0
 39 44  1  1  0  0  0
 41 40  1  6  0  0  0
 41 39  1  0  0  0  0
 41 42  1  0  0  0  0
 42 43  1  0  0  0  0
 44 46  1  0  0  0  0
 46 45  1  1  0  0  0
 47 46  1  0  0  0  0
 47 48  1  1  0  0  0
 49 50  1  0  0  0  0
 50 47  1  0  0  0  0
 50 51  1  0  0  0  0
 52 51  1  0  0  0  0
 53 52  1  0  0  0  0
 55 54  1  0  0  0  0
 55 53  1  0  0  0  0
M  END
>  <MODEL>
3

>  <REMARK>
 VINA RESULT:      -7.0      2.352      5.436
  Name = 
  19 active torsions:
  status: ('A' for Active; 'I' for Inactive)
    1  A    between atoms: C_1  and  C_21
    2  A    between atoms: C_1  and  N_53
    3  A    between atoms: C_3  and  O_25
    4  A    between atoms: C_3  and  O_38
    5  A    between atoms: C_6  and  C_14
    6  A    between atoms: C_6  and  O_22
    7  A    between atoms: C_6  and  C_46
    8  A    between atoms: C_8  and  O_22
    9  A    between atoms: C_8  and  O_54
   10  A    between atoms: C_10  and  C_48
   11  A    between atoms: C_14  and  C_20
   12  A    between atoms: C_19  and  C_37
   13  A    between atoms: C_21  and  C_46
   14  A    between atoms: C_26  and  N_45
   15  A    between atoms: C_29  and  O_38
   16  A    between atoms: C_29  and  N_53
   17  A    between atoms: C_33  and  C_49
   18  A    between atoms: C_33  and  C_52
   19  A    between atoms: C_51  and  O_54
                            x       y       z     vdW  Elec       q    Type
                         _______ _______ _______ _____ _____    ______ ____

>  <TORSDO>
F 19

$$$$
=
 OpenBabel10272401323D

 55 59  0  0  1  0  0  0  0  0999 V2000
  186.8090  175.7190  136.9070 C   0  0  0  0  0  2  0  0  0  0  0  0
  190.3710  174.3160  137.2510 C   0  0  0  0  0  2  0  0  0  0  0  0
  188.9790  176.7470  137.7120 C   0  0  1  0  0  3  0  0  0  0  0  0
  190.3830  176.6840  137.6250 O   0  0  0  0  0  0  0  0  0  0  0  0
  187.1770  178.2610  136.6490 C   0  0  2  0  0  3  0  0  0  0  0  0
  186.2310  177.1300  137.0760 C   0  0  1  0  0  3  0  0  0  0  0  0
  187.4210  178.2170  135.2750 O   0  0  0  0  0  1  0  0  0  0  0  0
  188.8510  174.3100  137.1070 C   0  0  0  0  0  2  0  0  0  0  0  0
  190.7730  175.4560  138.1840 C   0  0  0  0  0  2  0  0  0  0  0  0
  188.5100  178.1810  137.4030 C   0  0  1  0  0  3  0  0  0  0  0  0
  188.3320  175.7070  136.7740 C   0  0  1  0  0  3  0  0  0  0  0  0
  184.6910  177.8020  135.3990 O   0  0  0  0  0  0  0  0  0  0  0  0
  184.8360  177.2810  136.5370 C   0  0  0  0  0  0  0  0  0  0  0  0
  183.2090  175.9490  139.3700 O   0  0  0  0  0  0  0  0  0  0  0  0
  183.6850  176.7660  137.2310 N   0  0  0  0  0  0  0  0  0  0  0  0
  183.5210  176.9390  138.6530 C   0  0  0  0  0  0  0  0  0  0  0  0
  181.2990  176.2910  136.8840 C   0  0  0  0  0  3  0  0  0  0  0  0
  180.3240  175.4110  136.6390 C   0  0  0  0  0  3  0  0  0  0  0  0
  183.0210  174.4870  136.5270 C   0  0  0  0  0  2  0  0  0  0  0  0
  181.8980  173.6830  135.9300 C   0  0  0  0  0  3  0  0  0  0  0  0
  180.6340  174.1060  136.0220 C   0  0  0  0  0  3  0  0  0  0  0  0
  182.7140  175.9900  136.4580 C   0  0  2  0  0  3  0  0  0  0  0  0
  183.6250  178.2800  139.2640 C   0  0  0  0  0  0  0  0  0  0  0  0
  183.8220  179.2750  138.5150 O   0  0  0  0  0  0  0  0  0  0  0  0
  180.7440  178.4150  140.5610 Cl  0  0  0  0  0  0  0  0  0  0  0  0
  184.7060  178.5780  141.4810 C   0  0  0  0  0  3  0  0  0  0  0  0
  184.6610  178.8060  142.8560 C   0  0  0  0  0  3  0  0  0  0  0  0
  182.2810  178.5910  141.3930 C   0  0  0  0  0  0  0  0  0  0  0  0
  182.2450  178.8120  142.7710 C   0  0  0  0  0  3  0  0  0  0  0  0
  183.4310  178.9410  143.5070 C   0  0  0  0  0  0  0  0  0  0  0  0
  183.5260  178.4740  140.7300 C   0  0  0  0  0  0  0  0  0  0  0  0
  183.3880  179.1440  144.9900 C   0  0  1  0  0  3  0  0  0  0  0  0
  184.3450  178.2610  145.6570 C   0  0  0  0  0  2  0  0  0  0  0  0
  184.6770  179.6790  145.4650 N   0  0  0  0  0  2  0  0  0  0  0  0
  188.4260  178.9250  138.6100 O   0  0  0  0  0  0  0  0  0  0  0  0
  188.2000  178.3040  139.8360 C   0  0  0  0  0  0  0  0  0  0  0  0
  187.0190  178.1660  140.2500 O   0  0  0  0  0  0  0  0  0  0  0  0
  189.2760  177.8530  140.6050 O   0  0  0  0  0  0  0  0  0  0  0  0
  189.2890  177.9430  142.0210 C   0  0  1  0  0  3  0  0  0  0  0  0
  188.5110  175.7840  142.7730 O   0  0  0  0  0  1  0  0  0  0  0  0
  188.1290  177.1190  142.5920 C   0  0  1  0  0  3  0  0  0  0  0  0
  187.6260  177.7100  143.8980 C   0  0  0  0  0  2  0  0  0  0  0  0
  187.3890  176.6890  144.8190 O   0  0  0  0  0  1  0  0  0  0  0  0
  190.6470  177.4790  142.5360 C   0  0  0  0  0  2  0  0  0  0  0  0
  192.0050  178.7560  144.1720 C   0  0  0  0  0  1  0  0  0  0  0  0
  190.8270  177.8080  144.0120 C   0  0  2  0  0  3  0  0  0  0  0  0
  191.0610  176.5250  144.8150 C   0  0  1  0  0  3  0  0  0  0  0  0
  192.0210  175.7140  144.1930 O   0  0  0  0  0  1  0  0  0  0  0  0
  190.3450  177.3330  146.8210 O   0  0  0  0  0  1  0  0  0  0  0  0
  191.4380  176.8220  146.2040 N   0  0  0  0  0  0  0  0  0  0  0  0
  191.7980  175.5970  146.9080 C   0  0  0  0  0  2  0  0  0  0  0  0
  193.1080  175.6950  147.3780 O   0  0  0  0  0  0  0  0  0  0  0  0
  192.9690  175.9130  148.7500 C   0  0  0  0  0  2  0  0  0  0  0  0
  193.6870  176.9940  150.5310 C   0  0  0  0  0  1  0  0  0  0  0  0
  193.8040  176.9580  149.1430 O   0  0  0  0  0  0  0  0  0  0  0  0
  1  6  1  0  0  0  0
  2  9  1  0  0  0  0
  3  4  1  6  0  0  0
  4  9  1  0  0  0  0
  5  7  1  6  0  0  0
  5  6  1  0  0  0  0
  5 10  1  0  0  0  0
  6 13  1  6  0  0  0
  8  2  1  0  0  0  0
 10  3  1  0  0  0  0
 10 35  1  1  0  0  0
 11  1  1  1  0  0  0
 11  8  1  0  0  0  0
 11  3  1  0  0  0  0
 12 13  2  0  0  0  0
 13 15  1  0  0  0  0
 15 16  1  0  0  0  0
 16 23  1  0  0  0  0
 16 14  2  0  0  0  0
 18 17  2  0  0  0  0
 20 21  2  0  0  0  0
 20 19  1  0  0  0  0
 21 18  1  0  0  0  0
 22 19  1  0  0  0  0
 22 17  1  0  0  0  0
 22 15  1  1  0  0  0
 23 31  1  0  0  0  0
 24 23  2  0  0  0  0
 25 28  1  0  0  0  0
 26 27  1  0  0  0  0
 27 30  2  0  0  0  0
 28 29  2  0  0  0  0
 29 30  1  0  0  0  0
 31 28  1  0  0  0  0
 31 26  2  0  0  0  0
 32 30  1  6  0  0  0
 32 34  1  0  0  0  0
 32 33  1  0  0  0  0
 34 33  1  0  0  0  0
 35 36  1  0  0  0  0
 36 37  2  0  0  0  0
 36 38  1  0  0  0  0
 38 39  1  0  0  0  0
 39 44  1  1  0  0  0
 39 41  1  0  0  0  0
 41 40  1  1  0  0  0
 41 42  1  0  0  0  0
 42 43  1  0  0  0  0
 44 46  1  0  0  0  0
 46 45  1  6  0  0  0
 46 47  1  0  0  0  0
 47 48  1  6  0  0  0
 47 50  1  0  0  0  0
 50 49  1  0  0  0  0
 50 51  1  0  0  0  0
 51 52  1  0  0  0  0
 52 53  1  0  0  0  0
 53 55  1  0  0  0  0
 55 54  1  0  0  0  0
M  END
>  <MODEL>
4

>  <REMARK>
 VINA RESULT:      -6.6      2.373      5.106
  Name = 
  19 active torsions:
  status: ('A' for Active; 'I' for Inactive)
    1  A    between atoms: C_1  and  C_21
    2  A    between atoms: C_1  and  N_53
    3  A    between atoms: C_3  and  O_25
    4  A    between atoms: C_3  and  O_38
    5  A    between atoms: C_6  and  C_14
    6  A    between atoms: C_6  and  O_22
    7  A    between atoms: C_6  and  C_46
    8  A    between atoms: C_8  and  O_22
    9  A    between atoms: C_8  and  O_54
   10  A    between atoms: C_10  and  C_48
   11  A    between atoms: C_14  and  C_20
   12  A    between atoms: C_19  and  C_37
   13  A    between atoms: C_21  and  C_46
   14  A    between atoms: C_26  and  N_45
   15  A    between atoms: C_29  and  O_38
   16  A    between atoms: C_29  and  N_53
   17  A    between atoms: C_33  and  C_49
   18  A    between atoms: C_33  and  C_52
   19  A    between atoms: C_51  and  O_54
                            x       y       z     vdW  Elec       q    Type
                         _______ _______ _______ _____ _____    ______ ____

>  <TORSDO>
F 19

$$$$
=
 OpenBabel10272401323D

 55 59  0  0  1  0  0  0  0  0999 V2000
  189.7790  176.6210  139.0020 C   0  0  0  0  0  2  0  0  0  0  0  0
  189.7860  177.9810  142.5970 C   0  0  0  0  0  2  0  0  0  0  0  0
  188.0430  177.8670  140.3590 C   0  0  1  0  0  3  0  0  0  0  0  0
  187.8430  178.7610  141.4280 O   0  0  0  0  0  0  0  0  0  0  0  0
  188.0570  178.1130  137.7890 C   0  0  2  0  0  3  0  0  0  0  0  0
  188.7830  176.7620  137.8430 C   0  0  1  0  0  3  0  0  0  0  0  0
  188.9510  179.1510  137.5220 O   0  0  0  0  0  1  0  0  0  0  0  0
  190.2130  177.1380  141.3970 C   0  0  0  0  0  2  0  0  0  0  0  0
  188.2640  178.1030  142.5960 C   0  0  0  0  0  2  0  0  0  0  0  0
  187.3250  178.4010  139.1050 C   0  0  1  0  0  3  0  0  0  0  0  0
  189.5490  177.6410  140.1170 C   0  0  1  0  0  3  0  0  0  0  0  0
  189.7580  177.2110  135.7250 O   0  0  0  0  0  0  0  0  0  0  0  0
  189.3340  176.3250  136.5150 C   0  0  0  0  0  0  0  0  0  0  0  0
  188.7280  172.8810  136.9880 O   0  0  0  0  0  0  0  0  0  0  0  0
  189.4790  174.9370  136.1640 N   0  0  0  0  0  0  0  0  0  0  0  0
  188.4380  173.9760  136.4320 C   0  0  0  0  0  0  0  0  0  0  0  0
  190.6050  173.2480  134.7770 C   0  0  0  0  0  3  0  0  0  0  0  0
  191.6640  172.4670  134.5460 C   0  0  0  0  0  3  0  0  0  0  0  0
  191.8340  174.3620  136.6720 C   0  0  0  0  0  2  0  0  0  0  0  0
  193.0680  173.7060  136.1160 C   0  0  0  0  0  3  0  0  0  0  0  0
  192.9740  172.7900  135.1470 C   0  0  0  0  0  3  0  0  0  0  0  0
  190.7560  174.5100  135.5890 C   0  0  2  0  0  3  0  0  0  0  0  0
  187.0530  174.2240  135.9810 C   0  0  0  0  0  0  0  0  0  0  0  0
  186.7270  175.3920  135.6370 O   0  0  0  0  0  0  0  0  0  0  0  0
  184.5110  174.4890  137.8440 Cl  0  0  0  0  0  0  0  0  0  0  0  0
  186.2490  172.0500  135.0870 C   0  0  0  0  0  3  0  0  0  0  0  0
  185.3490  170.9850  135.0530 C   0  0  0  0  0  3  0  0  0  0  0  0
  184.8980  173.1480  136.7760 C   0  0  0  0  0  0  0  0  0  0  0  0
  183.9980  172.0810  136.7320 C   0  0  0  0  0  3  0  0  0  0  0  0
  184.2270  170.9860  135.8870 C   0  0  0  0  0  0  0  0  0  0  0  0
  186.0440  173.1390  135.9470 C   0  0  0  0  0  0  0  0  0  0  0  0
  183.2430  169.8600  135.8180 C   0  0  1  0  0  3  0  0  0  0  0  0
  183.6020  168.9300  134.7460 C   0  0  0  0  0  2  0  0  0  0  0  0
  183.9090  168.5850  136.1400 N   0  0  0  0  0  2  0  0  0  0  0  0
  186.0070  177.8730  139.0490 O   0  0  0  0  0  0  0  0  0  0  0  0
  184.9140  178.6710  138.7180 C   0  0  0  0  0  0  0  0  0  0  0  0
  184.8410  179.8410  139.1780 O   0  0  0  0  0  0  0  0  0  0  0  0
  183.9020  178.1700  137.8940 O   0  0  0  0  0  0  0  0  0  0  0  0
  182.5320  178.2100  138.2640 C   0  0  1  0  0  3  0  0  0  0  0  0
  180.9160  176.9950  136.9430 O   0  0  0  0  0  1  0  0  0  0  0  0
  181.6650  178.1770  137.0010 C   0  0  1  0  0  3  0  0  0  0  0  0
  180.7510  179.3900  136.9300 C   0  0  0  0  0  2  0  0  0  0  0  0
  181.4050  180.5050  137.4540 O   0  0  0  0  0  1  0  0  0  0  0  0
  182.2390  177.0480  139.2070 C   0  0  0  0  0  2  0  0  0  0  0  0
  179.9920  177.2710  140.2320 C   0  0  0  0  0  1  0  0  0  0  0  0
  181.4780  177.5090  140.4420 C   0  0  2  0  0  3  0  0  0  0  0  0
  181.7500  178.9920  140.7080 C   0  0  1  0  0  3  0  0  0  0  0  0
  180.5900  179.7560  140.5100 O   0  0  0  0  0  1  0  0  0  0  0  0
  181.4340  178.6600  142.9390 O   0  0  0  0  0  1  0  0  0  0  0  0
  182.3020  179.2050  142.0530 N   0  0  0  0  0  0  0  0  0  0  0  0
  183.5710  178.5010  142.2020 C   0  0  0  0  0  2  0  0  0  0  0  0
  183.8760  178.3700  143.5570 O   0  0  0  0  0  0  0  0  0  0  0  0
  184.7510  179.4250  143.8190 C   0  0  0  0  0  2  0  0  0  0  0  0
  184.7300  178.6570  145.8850 C   0  0  0  0  0  1  0  0  0  0  0  0
  185.5930  179.0810  144.8760 O   0  0  0  0  0  0  0  0  0  0  0  0
  3  4  1  1  0  0  0
  4  9  1  0  0  0  0
  5  7  1  1  0  0  0
  5  6  1  0  0  0  0
  5 10  1  0  0  0  0
  6 13  1  6  0  0  0
  6  1  1  0  0  0  0
  8  2  1  0  0  0  0
  9  2  1  0  0  0  0
 10 35  1  6  0  0  0
 10  3  1  0  0  0  0
 11  1  1  6  0  0  0
 11  3  1  0  0  0  0
 11  8  1  0  0  0  0
 12 13  2  0  0  0  0
 15 16  1  0  0  0  0
 15 13  1  0  0  0  0
 16 14  2  0  0  0  0
 17 22  1  0  0  0  0
 18 17  2  0  0  0  0
 18 21  1  0  0  0  0
 20 19  1  0  0  0  0
 21 20  2  0  0  0  0
 22 15  1  1  0  0  0
 22 19  1  0  0  0  0
 23 16  1  0  0  0  0
 24 23  2  0  0  0  0
 26 31  1  0  0  0  0
 27 26  2  0  0  0  0
 27 30  1  0  0  0  0
 28 25  1  0  0  0  0
 29 28  1  0  0  0  0
 30 29  2  0  0  0  0
 31 23  1  0  0  0  0
 31 28  2  0  0  0  0
 32 30  1  6  0  0  0
 32 34  1  0  0  0  0
 33 32  1  0  0  0  0
 33 34  1  0  0  0  0
 36 35  1  0  0  0  0
 36 37  2  0  0  0  0
 38 39  1  0  0  0  0
 38 36  1  0  0  0  0
 39 44  1  1  0  0  0
 41 40  1  1  0  0  0
 41 39  1  0  0  0  0
 42 41  1  0  0  0  0
 42 43  1  0  0  0  0
 44 46  1  0  0  0  0
 46 45  1  6  0  0  0
 46 47  1  0  0  0  0
 47 48  1  1  0  0  0
 47 50  1  0  0  0  0
 50 51  1  0  0  0  0
 50 49  1  0  0  0  0
 51 52  1  0  0  0  0
 52 53  1  0  0  0  0
 53 55  1  0  0  0  0
 55 54  1  0  0  0  0
M  END
>  <MODEL>
5

>  <REMARK>
 VINA RESULT:      -6.4      2.705      5.675
  Name = 
  19 active torsions:
  status: ('A' for Active; 'I' for Inactive)
    1  A    between atoms: C_1  and  C_21
    2  A    between atoms: C_1  and  N_53
    3  A    between atoms: C_3  and  O_25
    4  A    between atoms: C_3  and  O_38
    5  A    between atoms: C_6  and  C_14
    6  A    between atoms: C_6  and  O_22
    7  A    between atoms: C_6  and  C_46
    8  A    between atoms: C_8  and  O_22
    9  A    between atoms: C_8  and  O_54
   10  A    between atoms: C_10  and  C_48
   11  A    between atoms: C_14  and  C_20
   12  A    between atoms: C_19  and  C_37
   13  A    between atoms: C_21  and  C_46
   14  A    between atoms: C_26  and  N_45
   15  A    between atoms: C_29  and  O_38
   16  A    between atoms: C_29  and  N_53
   17  A    between atoms: C_33  and  C_49
   18  A    between atoms: C_33  and  C_52
   19  A    between atoms: C_51  and  O_54
                            x       y       z     vdW  Elec       q    Type
                         _______ _______ _______ _____ _____    ______ ____

>  <TORSDO>
F 19

$$$$
=
 OpenBabel10272401323D

 55 59  0  0  1  0  0  0  0  0999 V2000
  190.3080  176.5230  138.9290 C   0  0  0  0  0  2  0  0  0  0  0  0
  190.4080  178.1280  142.4200 C   0  0  0  0  0  2  0  0  0  0  0  0
  188.5810  177.7960  140.2730 C   0  0  1  0  0  3  0  0  0  0  0  0
  188.3900  178.7540  141.2870 O   0  0  0  0  0  0  0  0  0  0  0  0
  188.4800  177.8640  137.6940 C   0  0  2  0  0  3  0  0  0  0  0  0
  189.2610  176.5470  137.8080 C   0  0  1  0  0  3  0  0  0  0  0  0
  189.3210  178.9130  137.3190 O   0  0  0  0  0  1  0  0  0  0  0  0
  190.8190  177.2210  141.2630 C   0  0  0  0  0  2  0  0  0  0  0  0
  188.8840  178.1940  142.4770 C   0  0  0  0  0  2  0  0  0  0  0  0
  187.7920  178.2150  139.0180 C   0  0  1  0  0  3  0  0  0  0  0  0
  190.0840  177.6090  139.9820 C   0  0  1  0  0  3  0  0  0  0  0  0
  190.3030  176.8650  135.6990 O   0  0  0  0  0  0  0  0  0  0  0  0
  189.7740  176.0390  136.4900 C   0  0  0  0  0  0  0  0  0  0  0  0
  188.7800  172.6900  136.9820 O   0  0  0  0  0  0  0  0  0  0  0  0
  189.7670  174.6400  136.1510 N   0  0  0  0  0  0  0  0  0  0  0  0
  188.6210  173.8050  136.4140 C   0  0  0  0  0  0  0  0  0  0  0  0
  190.7090  172.8290  134.7830 C   0  0  0  0  0  3  0  0  0  0  0  0
  191.6750  171.9320  134.5670 C   0  0  0  0  0  3  0  0  0  0  0  0
  192.0320  173.8010  136.6930 C   0  0  0  0  0  2  0  0  0  0  0  0
  193.1910  173.0060  136.1550 C   0  0  0  0  0  3  0  0  0  0  0  0
  193.0050  172.1050  135.1860 C   0  0  0  0  0  3  0  0  0  0  0  0
  190.9930  174.0680  135.5940 C   0  0  2  0  0  3  0  0  0  0  0  0
  187.2780  174.2020  135.9450 C   0  0  0  0  0  0  0  0  0  0  0  0
  187.1160  175.3630  135.4800 O   0  0  0  0  0  0  0  0  0  0  0  0
  184.7710  175.0970  137.6530 Cl  0  0  0  0  0  0  0  0  0  0  0  0
  186.1820  172.0550  135.3460 C   0  0  0  0  0  3  0  0  0  0  0  0
  185.1380  171.1350  135.4330 C   0  0  0  0  0  3  0  0  0  0  0  0
  184.9770  173.5720  136.8060 C   0  0  0  0  0  0  0  0  0  0  0  0
  183.9320  172.6480  136.8830 C   0  0  0  0  0  3  0  0  0  0  0  0
  184.0140  171.4180  136.2150 C   0  0  0  0  0  0  0  0  0  0  0  0
  186.1230  173.2780  136.0300 C   0  0  0  0  0  0  0  0  0  0  0  0
  182.8790  170.4440  136.2730 C   0  0  1  0  0  3  0  0  0  0  0  0
  181.5960  171.1480  136.2650 C   0  0  0  0  0  2  0  0  0  0  0  0
  182.0850  170.5160  135.0320 N   0  0  0  0  0  2  0  0  0  0  0  0
  186.4950  177.6370  139.0550 O   0  0  0  0  0  0  0  0  0  0  0  0
  185.3440  178.4210  139.0120 C   0  0  0  0  0  0  0  0  0  0  0  0
  185.3770  179.5350  138.4260 O   0  0  0  0  0  0  0  0  0  0  0  0
  184.1700  177.9810  139.6290 O   0  0  0  0  0  0  0  0  0  0  0  0
  183.5000  178.7440  140.6210 C   0  0  1  0  0  3  0  0  0  0  0  0
  181.2990  179.5230  141.2390 O   0  0  0  0  0  1  0  0  0  0  0  0
  182.0440  178.9650  140.1930 C   0  0  1  0  0  3  0  0  0  0  0  0
  181.9620  179.8410  138.9540 C   0  0  0  0  0  2  0  0  0  0  0  0
  181.8590  179.0420  137.8160 O   0  0  0  0  0  1  0  0  0  0  0  0
  183.6140  178.0270  141.9610 C   0  0  0  0  0  2  0  0  0  0  0  0
  185.4680  179.6280  142.3460 C   0  0  0  0  0  1  0  0  0  0  0  0
  184.3100  178.8940  143.0010 C   0  0  2  0  0  3  0  0  0  0  0  0
  184.8120  178.0290  144.1600 C   0  0  1  0  0  3  0  0  0  0  0  0
  186.0000  177.3680  143.8120 O   0  0  0  0  0  1  0  0  0  0  0  0
  183.7730  178.9290  145.9770 O   0  0  0  0  0  1  0  0  0  0  0  0
  184.9880  178.8210  145.3850 N   0  0  0  0  0  0  0  0  0  0  0  0
  185.8630  178.1260  146.3220 C   0  0  0  0  0  2  0  0  0  0  0  0
  186.2660  179.0070  147.3270 O   0  0  0  0  0  0  0  0  0  0  0  0
  187.4010  178.4100  147.8770 C   0  0  0  0  0  2  0  0  0  0  0  0
  189.0030  176.9130  147.6480 C   0  0  0  0  0  1  0  0  0  0  0  0
  187.8440  177.3880  147.0380 O   0  0  0  0  0  0  0  0  0  0  0  0
  2  9  1  0  0  0  0
  3  4  1  1  0  0  0
  4  9  1  0  0  0  0
  5  7  1  1  0  0  0
  5  6  1  0  0  0  0
  5 10  1  0  0  0  0
  6 13  1  6  0  0  0
  6  1  1  0  0  0  0
  8  2  1  0  0  0  0
 10 35  1  6  0  0  0
 10  3  1  0  0  0  0
 11  1  1  6  0  0  0
 11  3  1  0  0  0  0
 11  8  1  0  0  0  0
 12 13  2  0  0  0  0
 15 16  1  0  0  0  0
 15 13  1  0  0  0  0
 16 14  2  0  0  0  0
 17 22  1  0  0  0  0
 18 17  2  0  0  0  0
 18 21  1  0  0  0  0
 20 19  1  0  0  0  0
 21 20  2  0  0  0  0
 22 15  1  1  0  0  0
 22 19  1  0  0  0  0
 23 31  1  0  0  0  0
 23 16  1  0  0  0  0
 24 23  2  0  0  0  0
 26 27  2  0  0  0  0
 26 31  1  0  0  0  0
 27 30  1  0  0  0  0
 28 29  1  0  0  0  0
 28 25  1  0  0  0  0
 30 29  2  0  0  0  0
 31 28  2  0  0  0  0
 32 30  1  6  0  0  0
 33 32  1  0  0  0  0
 34 33  1  0  0  0  0
 34 32  1  0  0  0  0
 36 35  1  0  0  0  0
 36 38  1  0  0  0  0
 37 36  2  0  0  0  0
 38 39  1  0  0  0  0
 39 44  1  1  0  0  0
 41 39  1  0  0  0  0
 41 40  1  1  0  0  0
 42 41  1  0  0  0  0
 43 42  1  0  0  0  0
 44 46  1  0  0  0  0
 46 45  1  6  0  0  0
 46 47  1  0  0  0  0
 47 48  1  6  0  0  0
 47 50  1  0  0  0  0
 50 49  1  0  0  0  0
 50 51  1  0  0  0  0
 51 52  1  0  0  0  0
 52 53  1  0  0  0  0
 55 54  1  0  0  0  0
 55 53  1  0  0  0  0
M  END
>  <MODEL>
6

>  <REMARK>
 VINA RESULT:      -6.3      2.613      4.112
  Name = 
  19 active torsions:
  status: ('A' for Active; 'I' for Inactive)
    1  A    between atoms: C_1  and  C_21
    2  A    between atoms: C_1  and  N_53
    3  A    between atoms: C_3  and  O_25
    4  A    between atoms: C_3  and  O_38
    5  A    between atoms: C_6  and  C_14
    6  A    between atoms: C_6  and  O_22
    7  A    between atoms: C_6  and  C_46
    8  A    between atoms: C_8  and  O_22
    9  A    between atoms: C_8  and  O_54
   10  A    between atoms: C_10  and  C_48
   11  A    between atoms: C_14  and  C_20
   12  A    between atoms: C_19  and  C_37
   13  A    between atoms: C_21  and  C_46
   14  A    between atoms: C_26  and  N_45
   15  A    between atoms: C_29  and  O_38
   16  A    between atoms: C_29  and  N_53
   17  A    between atoms: C_33  and  C_49
   18  A    between atoms: C_33  and  C_52
   19  A    between atoms: C_51  and  O_54
                            x       y       z     vdW  Elec       q    Type
                         _______ _______ _______ _____ _____    ______ ____

>  <TORSDO>
F 19

$$$$
=
 OpenBabel10272401323D

 55 59  0  0  1  0  0  0  0  0999 V2000
  186.6420  178.0120  138.7530 C   0  0  0  0  0  2  0  0  0  0  0  0
  187.3840  177.4140  135.0300 C   0  0  0  0  0  2  0  0  0  0  0  0
  188.7170  177.2300  137.5300 C   0  0  1  0  0  3  0  0  0  0  0  0
  189.4090  177.2610  136.3040 O   0  0  0  0  0  0  0  0  0  0  0  0
  188.9670  178.4910  139.7690 C   0  0  2  0  0  3  0  0  0  0  0  0
  187.5330  177.9950  140.0030 C   0  0  1  0  0  3  0  0  0  0  0  0
  188.9790  179.8450  139.4310 O   0  0  0  0  0  1  0  0  0  0  0  0
  186.5580  177.6100  136.2990 C   0  0  0  0  0  2  0  0  0  0  0  0
  188.6150  176.5770  135.3680 C   0  0  0  0  0  2  0  0  0  0  0  0
  189.6570  177.6860  138.6610 C   0  0  1  0  0  3  0  0  0  0  0  0
  187.4390  178.0900  137.4500 C   0  0  1  0  0  3  0  0  0  0  0  0
  186.4580  179.7780  141.1430 O   0  0  0  0  0  0  0  0  0  0  0  0
  186.8830  178.5950  141.2180 C   0  0  0  0  0  0  0  0  0  0  0  0
  187.3440  175.7820  143.2980 O   0  0  0  0  0  0  0  0  0  0  0  0
  186.6480  177.8330  142.4170 N   0  0  0  0  0  0  0  0  0  0  0  0
  187.6540  176.9580  142.9660 C   0  0  0  0  0  0  0  0  0  0  0  0
  184.2610  178.2460  142.0060 C   0  0  0  0  0  3  0  0  0  0  0  0
  183.1020  178.7880  142.3920 C   0  0  0  0  0  3  0  0  0  0  0  0
  185.3070  178.9060  144.2000 C   0  0  0  0  0  2  0  0  0  0  0  0
  183.9000  179.1600  144.6710 C   0  0  0  0  0  3  0  0  0  0  0  0
  182.8800  179.1410  143.8090 C   0  0  0  0  0  3  0  0  0  0  0  0
  185.3200  177.9160  143.0260 C   0  0  2  0  0  3  0  0  0  0  0  0
  189.0210  177.4550  143.2270 C   0  0  0  0  0  0  0  0  0  0  0  0
  189.6030  178.1280  142.3340 O   0  0  0  0  0  0  0  0  0  0  0  0
  191.9280  176.2190  143.0800 Cl  0  0  0  0  0  0  0  0  0  0  0  0
  189.0770  177.4530  145.7100 C   0  0  0  0  0  3  0  0  0  0  0  0
  189.6800  177.1540  146.9320 C   0  0  0  0  0  3  0  0  0  0  0  0
  191.0060  176.5680  144.5330 C   0  0  0  0  0  0  0  0  0  0  0  0
  191.6050  176.2770  145.7610 C   0  0  0  0  0  3  0  0  0  0  0  0
  190.9400  176.5490  146.9650 C   0  0  0  0  0  0  0  0  0  0  0  0
  189.7220  177.1620  144.4990 C   0  0  0  0  0  0  0  0  0  0  0  0
  191.6000  176.2660  148.2790 C   0  0  1  0  0  3  0  0  0  0  0  0
  192.7750  175.4160  148.0910 C   0  0  0  0  0  2  0  0  0  0  0  0
  192.9500  176.8590  148.3060 N   0  0  0  0  0  2  0  0  0  0  0  0
  190.3110  176.5570  139.2220 O   0  0  0  0  0  0  0  0  0  0  0  0
  191.0920  175.7040  138.4430 C   0  0  0  0  0  0  0  0  0  0  0  0
  190.6280  174.5860  138.0970 O   0  0  0  0  0  0  0  0  0  0  0  0
  192.3830  176.0820  138.0660 O   0  0  0  0  0  0  0  0  0  0  0  0
  193.1270  175.3720  137.0880 C   0  0  1  0  0  3  0  0  0  0  0  0
  194.0840  176.4530  135.1510 O   0  0  0  0  0  1  0  0  0  0  0  0
  192.8830  176.0000  135.7100 C   0  0  1  0  0  3  0  0  0  0  0  0
  192.1960  175.0200  134.7740 C   0  0  0  0  0  2  0  0  0  0  0  0
  192.2760  173.7300  135.2980 O   0  0  0  0  0  1  0  0  0  0  0  0
  194.6000  175.3810  137.4820 C   0  0  0  0  0  2  0  0  0  0  0  0
  195.1950  173.1890  138.4770 C   0  0  0  0  0  1  0  0  0  0  0  0
  195.2570  174.0330  137.2150 C   0  0  2  0  0  3  0  0  0  0  0  0
  196.7100  174.2320  136.7760 C   0  0  1  0  0  3  0  0  0  0  0  0
  196.9970  175.5940  136.5970 O   0  0  0  0  0  1  0  0  0  0  0  0
  198.0350  172.4270  137.1980 O   0  0  0  0  0  1  0  0  0  0  0  0
  197.6480  173.6150  137.7250 N   0  0  0  0  0  0  0  0  0  0  0  0
  198.8450  174.4350  137.8670 C   0  0  0  0  0  2  0  0  0  0  0  0
  199.0840  174.6810  139.2200 O   0  0  0  0  0  0  0  0  0  0  0  0
  197.9740  175.4150  139.6410 C   0  0  0  0  0  2  0  0  0  0  0  0
  198.3570  175.4140  141.8120 C   0  0  0  0  0  1  0  0  0  0  0  0
  197.5000  174.8930  140.8440 O   0  0  0  0  0  0  0  0  0  0  0  0
  1  6  1  0  0  0  0
  2  9  1  0  0  0  0
  2  8  1  0  0  0  0
  3  4  1  6  0  0  0
  3 10  1  0  0  0  0
  5  7  1  6  0  0  0
  5  6  1  0  0  0  0
  6 13  1  1  0  0  0
  9  4  1  0  0  0  0
 10 35  1  1  0  0  0
 10  5  1  0  0  0  0
 11  8  1  6  0  0  0
 11  3  1  0  0  0  0
 11  1  1  0  0  0  0
 12 13  2  0  0  0  0
 13 15  1  0  0  0  0
 15 16  1  0  0  0  0
 16 23  1  0  0  0  0
 16 14  2  0  0  0  0
 17 18  2  0  0  0  0
 17 22  1  0  0  0  0
 18 21  1  0  0  0  0
 19 20  1  0  0  0  0
 21 20  2  0  0  0  0
 22 15  1  6  0  0  0
 22 19  1  0  0  0  0
 23 31  1  0  0  0  0
 24 23  2  0  0  0  0
 25 28  1  0  0  0  0
 26 27  1  0  0  0  0
 27 30  2  0  0  0  0
 28 29  2  0  0  0  0
 29 30  1  0  0  0  0
 31 28  1  0  0  0  0
 31 26  2  0  0  0  0
 32 30  1  6  0  0  0
 32 34  1  0  0  0  0
 33 32  1  0  0  0  0
 33 34  1  0  0  0  0
 36 35  1  0  0  0  0
 37 36  2  0  0  0  0
 38 36  1  0  0  0  0
 39 44  1  1  0  0  0
 39 38  1  0  0  0  0
 41 40  1  6  0  0  0
 41 39  1  0  0  0  0
 42 43  1  0  0  0  0
 42 41  1  0  0  0  0
 46 44  1  0  0  0  0
 46 45  1  1  0  0  0
 47 48  1  1  0  0  0
 47 46  1  0  0  0  0
 47 50  1  0  0  0  0
 49 50  1  0  0  0  0
 50 51  1  0  0  0  0
 51 52  1  0  0  0  0
 52 53  1  0  0  0  0
 53 55  1  0  0  0  0
 55 54  1  0  0  0  0
M  END
>  <MODEL>
7

>  <REMARK>
 VINA RESULT:      -6.3      4.462     10.346
  Name = 
  19 active torsions:
  status: ('A' for Active; 'I' for Inactive)
    1  A    between atoms: C_1  and  C_21
    2  A    between atoms: C_1  and  N_53
    3  A    between atoms: C_3  and  O_25
    4  A    between atoms: C_3  and  O_38
    5  A    between atoms: C_6  and  C_14
    6  A    between atoms: C_6  and  O_22
    7  A    between atoms: C_6  and  C_46
    8  A    between atoms: C_8  and  O_22
    9  A    between atoms: C_8  and  O_54
   10  A    between atoms: C_10  and  C_48
   11  A    between atoms: C_14  and  C_20
   12  A    between atoms: C_19  and  C_37
   13  A    between atoms: C_21  and  C_46
   14  A    between atoms: C_26  and  N_45
   15  A    between atoms: C_29  and  O_38
   16  A    between atoms: C_29  and  N_53
   17  A    between atoms: C_33  and  C_49
   18  A    between atoms: C_33  and  C_52
   19  A    between atoms: C_51  and  O_54
                            x       y       z     vdW  Elec       q    Type
                         _______ _______ _______ _____ _____    ______ ____

>  <TORSDO>
F 19

$$$$
=
 OpenBabel10272401323D

 55 59  0  0  1  0  0  0  0  0999 V2000
  184.4070  177.0800  138.1910 C   0  0  0  0  0  2  0  0  0  0  0  0
  184.5210  174.6190  135.2410 C   0  0  0  0  0  2  0  0  0  0  0  0
  186.3250  175.9640  136.9720 C   0  0  1  0  0  3  0  0  0  0  0  0
  186.7340  175.3870  135.7540 O   0  0  0  0  0  0  0  0  0  0  0  0
  186.7000  178.2620  138.0880 C   0  0  2  0  0  3  0  0  0  0  0  0
  185.5040  177.8370  138.9520 C   0  0  1  0  0  3  0  0  0  0  0  0
  186.3170  179.2040  137.1320 O   0  0  0  0  0  1  0  0  0  0  0  0
  183.9390  175.3950  136.4200 C   0  0  0  0  0  2  0  0  0  0  0  0
  185.9600  174.2290  135.5700 C   0  0  0  0  0  2  0  0  0  0  0  0
  187.3320  177.0550  137.3850 C   0  0  1  0  0  3  0  0  0  0  0  0
  184.8880  176.5100  136.8560 C   0  0  1  0  0  3  0  0  0  0  0  0
  184.6870  180.0390  139.2980 O   0  0  0  0  0  0  0  0  0  0  0  0
  184.9810  178.9360  139.8320 C   0  0  0  0  0  0  0  0  0  0  0  0
  185.2240  177.1250  142.8510 O   0  0  0  0  0  0  0  0  0  0  0  0
  184.7200  178.7370  141.2340 N   0  0  0  0  0  0  0  0  0  0  0  0
  185.6470  178.0330  142.0830 C   0  0  0  0  0  0  0  0  0  0  0  0
  183.4070  179.1620  143.2680 C   0  0  0  0  0  3  0  0  0  0  0  0
  182.2380  179.1210  143.9140 C   0  0  0  0  0  3  0  0  0  0  0  0
  182.2630  178.4380  141.1440 C   0  0  0  0  0  2  0  0  0  0  0  0
  180.9770  178.7630  141.8530 C   0  0  0  0  0  3  0  0  0  0  0  0
  180.9710  179.0440  143.1590 C   0  0  0  0  0  3  0  0  0  0  0  0
  183.4390  179.2100  141.7610 C   0  0  2  0  0  3  0  0  0  0  0  0
  187.0710  178.4250  142.1300 C   0  0  0  0  0  0  0  0  0  0  0  0
  187.5480  179.0900  141.1710 O   0  0  0  0  0  0  0  0  0  0  0  0
  190.0720  177.6520  141.5000 Cl  0  0  0  0  0  0  0  0  0  0  0  0
  187.4140  178.0370  144.5590 C   0  0  0  0  0  3  0  0  0  0  0  0
  188.1870  177.6370  145.6490 C   0  0  0  0  0  3  0  0  0  0  0  0
  189.2880  177.6320  143.0720 C   0  0  0  0  0  0  0  0  0  0  0  0
  190.0570  177.2380  144.1690 C   0  0  0  0  0  3  0  0  0  0  0  0
  189.5080  177.2180  145.4590 C   0  0  0  0  0  0  0  0  0  0  0  0
  187.9450  178.0360  143.2610 C   0  0  0  0  0  0  0  0  0  0  0  0
  190.3440  176.8280  146.6370 C   0  0  1  0  0  3  0  0  0  0  0  0
  191.5850  176.1890  146.1970 C   0  0  0  0  0  2  0  0  0  0  0  0
  191.6060  177.5900  146.6380 N   0  0  0  0  0  2  0  0  0  0  0  0
  188.3370  176.4870  138.2120 O   0  0  0  0  0  0  0  0  0  0  0  0
  189.6730  176.4480  137.8150 C   0  0  0  0  0  0  0  0  0  0  0  0
  190.5050  177.2100  138.3730 O   0  0  0  0  0  0  0  0  0  0  0  0
  190.0780  175.5820  136.7960 O   0  0  0  0  0  0  0  0  0  0  0  0
  191.0940  174.6090  136.9850 C   0  0  1  0  0  3  0  0  0  0  0  0
  189.1550  173.2390  136.5420 O   0  0  0  0  0  1  0  0  0  0  0  0
  190.5540  173.2290  136.5940 C   0  0  1  0  0  3  0  0  0  0  0  0
  191.1310  172.7700  135.2650 C   0  0  0  0  0  2  0  0  0  0  0  0
  191.9720  171.6750  135.4680 O   0  0  0  0  0  1  0  0  0  0  0  0
  192.3210  175.0100  136.1740 C   0  0  0  0  0  2  0  0  0  0  0  0
  194.2310  176.5900  136.2330 C   0  0  0  0  0  1  0  0  0  0  0  0
  193.4000  175.6220  137.0580 C   0  0  2  0  0  3  0  0  0  0  0  0
  194.2870  174.5230  137.6470 C   0  0  1  0  0  3  0  0  0  0  0  0
  194.4420  173.4640  136.7390 O   0  0  0  0  0  1  0  0  0  0  0  0
  195.7190  174.8110  139.3960 O   0  0  0  0  0  1  0  0  0  0  0  0
  195.5910  175.0530  138.0690 N   0  0  0  0  0  0  0  0  0  0  0  0
  196.6730  174.3440  137.3940 C   0  0  0  0  0  2  0  0  0  0  0  0
  197.8200  175.1390  137.3870 O   0  0  0  0  0  0  0  0  0  0  0  0
  198.8640  174.2450  137.6300 C   0  0  0  0  0  2  0  0  0  0  0  0
  199.4390  175.0370  139.6040 C   0  0  0  0  0  1  0  0  0  0  0  0
  199.8970  174.9030  138.2950 O   0  0  0  0  0  0  0  0  0  0  0  0
  1  6  1  0  0  0  0
  2  9  1  0  0  0  0
  2  8  1  0  0  0  0
  3  4  1  6  0  0  0
  3 10  1  0  0  0  0
  5  7  1  6  0  0  0
  5  6  1  0  0  0  0
  6 13  1  6  0  0  0
  9  4  1  0  0  0  0
 10  5  1  0  0  0  0
 10 35  1  1  0  0  0
 11  8  1  1  0  0  0
 11  3  1  0  0  0  0
 11  1  1  0  0  0  0
 12 13  2  0  0  0  0
 13 15  1  0  0  0  0
 15 16  1  0  0  0  0
 16 23  1  0  0  0  0
 16 14  2  0  0  0  0
 17 18  2  0  0  0  0
 19 22  1  0  0  0  0
 19 20  1  0  0  0  0
 20 21  2  0  0  0  0
 21 18  1  0  0  0  0
 22 15  1  6  0  0  0
 22 17  1  0  0  0  0
 23 31  1  0  0  0  0
 24 23  2  0  0  0  0
 25 28  1  0  0  0  0
 26 27  1  0  0  0  0
 28 31  1  0  0  0  0
 28 29  2  0  0  0  0
 29 30  1  0  0  0  0
 30 27  2  0  0  0  0
 31 26  2  0  0  0  0
 32 30  1  6  0  0  0
 32 34  1  0  0  0  0
 33 32  1  0  0  0  0
 33 34  1  0  0  0  0
 36 35  1  0  0  0  0
 36 37  2  0  0  0  0
 38 39  1  0  0  0  0
 38 36  1  0  0  0  0
 39 44  1  6  0  0  0
 41 40  1  6  0  0  0
 41 39  1  0  0  0  0
 42 43  1  0  0  0  0
 42 41  1  0  0  0  0
 44 46  1  0  0  0  0
 46 45  1  6  0  0  0
 46 47  1  0  0  0  0
 47 48  1  6  0  0  0
 47 50  1  0  0  0  0
 50 49  1  0  0  0  0
 51 50  1  0  0  0  0
 52 51  1  0  0  0  0
 52 53  1  0  0  0  0
 53 55  1  0  0  0  0
 55 54  1  0  0  0  0
M  END
>  <MODEL>
8

>  <REMARK>
 VINA RESULT:      -6.2      3.987      9.830
  Name = 
  19 active torsions:
  status: ('A' for Active; 'I' for Inactive)
    1  A    between atoms: C_1  and  C_21
    2  A    between atoms: C_1  and  N_53
    3  A    between atoms: C_3  and  O_25
    4  A    between atoms: C_3  and  O_38
    5  A    between atoms: C_6  and  C_14
    6  A    between atoms: C_6  and  O_22
    7  A    between atoms: C_6  and  C_46
    8  A    between atoms: C_8  and  O_22
    9  A    between atoms: C_8  and  O_54
   10  A    between atoms: C_10  and  C_48
   11  A    between atoms: C_14  and  C_20
   12  A    between atoms: C_19  and  C_37
   13  A    between atoms: C_21  and  C_46
   14  A    between atoms: C_26  and  N_45
   15  A    between atoms: C_29  and  O_38
   16  A    between atoms: C_29  and  N_53
   17  A    between atoms: C_33  and  C_49
   18  A    between atoms: C_33  and  C_52
   19  A    between atoms: C_51  and  O_54
                            x       y       z     vdW  Elec       q    Type
                         _______ _______ _______ _____ _____    ______ ____

>  <TORSDO>
F 19

$$$$
=
 OpenBabel10272401323D

 55 59  0  0  1  0  0  0  0  0999 V2000
  184.4680  176.4930  135.8150 C   0  0  0  0  0  2  0  0  0  0  0  0
  180.9670  177.6640  134.7470 C   0  0  0  0  0  2  0  0  0  0  0  0
  182.2720  176.6660  137.0620 C   0  0  1  0  0  3  0  0  0  0  0  0
  180.8700  176.6720  136.9280 O   0  0  0  0  0  0  0  0  0  0  0  0
  184.0010  174.8890  137.7840 C   0  0  2  0  0  3  0  0  0  0  0  0
  184.9950  175.8390  137.1000 C   0  0  1  0  0  3  0  0  0  0  0  0
  183.7420  173.7750  136.9840 O   0  0  0  0  0  1  0  0  0  0  0  0
  182.4840  177.4990  134.7000 C   0  0  0  0  0  2  0  0  0  0  0  0
  180.5340  177.8270  136.2020 C   0  0  0  0  0  2  0  0  0  0  0  0
  182.6810  175.6030  138.1000 C   0  0  1  0  0  3  0  0  0  0  0  0
  182.9450  176.4350  135.6940 C   0  0  1  0  0  3  0  0  0  0  0  0
  186.6990  174.3050  137.7160 O   0  0  0  0  0  0  0  0  0  0  0  0
  186.3760  175.2620  136.9630 C   0  0  0  0  0  0  0  0  0  0  0  0
  187.4480  177.4900  134.4450 O   0  0  0  0  0  0  0  0  0  0  0  0
  187.2930  175.7010  135.9440 N   0  0  0  0  0  0  0  0  0  0  0  0
  187.4770  177.1000  135.6450 C   0  0  0  0  0  0  0  0  0  0  0  0
  187.0400  173.5870  134.7160 C   0  0  0  0  0  3  0  0  0  0  0  0
  187.5120  172.3800  134.3920 C   0  0  0  0  0  3  0  0  0  0  0  0
  189.1860  174.1050  135.9300 C   0  0  0  0  0  2  0  0  0  0  0  0
  189.7490  172.9000  135.2270 C   0  0  0  0  0  3  0  0  0  0  0  0
  188.9500  172.0770  134.5420 C   0  0  0  0  0  3  0  0  0  0  0  0
  187.9840  174.6750  135.1630 C   0  0  2  0  0  3  0  0  0  0  0  0
  187.7880  178.0640  136.7200 C   0  0  0  0  0  0  0  0  0  0  0  0
  187.3400  179.2390  136.6300 O   0  0  0  0  0  0  0  0  0  0  0  0
  190.7360  177.0600  136.1670 Cl  0  0  0  0  0  0  0  0  0  0  0  0
  188.0900  177.7980  139.1710 C   0  0  0  0  0  3  0  0  0  0  0  0
  188.8270  177.4120  140.2900 C   0  0  0  0  0  3  0  0  0  0  0  0
  189.9430  177.1840  137.7290 C   0  0  0  0  0  0  0  0  0  0  0  0
  190.6770  176.8060  138.8550 C   0  0  0  0  0  3  0  0  0  0  0  0
  190.1190  176.8980  140.1380 C   0  0  0  0  0  0  0  0  0  0  0  0
  188.6280  177.6860  137.8800 C   0  0  0  0  0  0  0  0  0  0  0  0
  190.9210  176.5230  141.3450 C   0  0  1  0  0  3  0  0  0  0  0  0
  190.5390  177.3470  142.4920 C   0  0  0  0  0  2  0  0  0  0  0  0
  190.0380  175.9700  142.3890 N   0  0  0  0  0  2  0  0  0  0  0  0
  182.7520  176.1980  139.3880 O   0  0  0  0  0  0  0  0  0  0  0  0
  183.0790  177.5420  139.5550 C   0  0  0  0  0  0  0  0  0  0  0  0
  184.1310  177.9920  139.0300 O   0  0  0  0  0  0  0  0  0  0  0  0
  182.2520  178.3770  140.3110 O   0  0  0  0  0  0  0  0  0  0  0  0
  182.5860  178.7850  141.6290 C   0  0  1  0  0  3  0  0  0  0  0  0
  181.6830  178.6990  143.8680 O   0  0  0  0  0  1  0  0  0  0  0  0
  181.3340  178.7200  142.5120 C   0  0  1  0  0  3  0  0  0  0  0  0
  180.3970  179.8800  142.2220 C   0  0  0  0  0  2  0  0  0  0  0  0
  180.4510  180.2050  140.8670 O   0  0  0  0  0  1  0  0  0  0  0  0
  183.7160  177.9040  142.1500 C   0  0  0  0  0  2  0  0  0  0  0  0
  185.6220  179.4540  141.8150 C   0  0  0  0  0  1  0  0  0  0  0  0
  184.7860  178.7260  142.8550 C   0  0  2  0  0  3  0  0  0  0  0  0
  185.6710  177.8180  143.7130 C   0  0  1  0  0  3  0  0  0  0  0  0
  186.7240  177.2850  142.9540 O   0  0  0  0  0  1  0  0  0  0  0  0
  185.3510  178.2270  145.9310 O   0  0  0  0  0  1  0  0  0  0  0  0
  186.1770  178.5240  144.8980 N   0  0  0  0  0  0  0  0  0  0  0  0
  187.5050  178.0380  145.2540 C   0  0  0  0  0  2  0  0  0  0  0  0
  187.8030  178.4090  146.5660 O   0  0  0  0  0  0  0  0  0  0  0  0
  188.8380  177.5520  146.9420 C   0  0  0  0  0  2  0  0  0  0  0  0
  187.9200  177.9010  148.9150 C   0  0  0  0  0  1  0  0  0  0  0  0
  188.5010  176.9060  148.1310 O   0  0  0  0  0  0  0  0  0  0  0  0
  1  6  1  0  0  0  0
  2  9  1  0  0  0  0
  3  4  1  6  0  0  0
  3 10  1  0  0  0  0
  5  7  1  6  0  0  0
  5 10  1  0  0  0  0
  6 13  1  6  0  0  0
  6  5  1  0  0  0  0
  8  2  1  0  0  0  0
  9  4  1  0  0  0  0
 10 35  1  1  0  0  0
 11  8  1  6  0  0  0
 11  1  1  0  0  0  0
 11  3  1  0  0  0  0
 13 12  2  0  0  0  0
 14 16  2  0  0  0  0
 15 13  1  0  0  0  0
 16 15  1  0  0  0  0
 16 23  1  0  0  0  0
 17 22  1  0  0  0  0
 18 21  1  0  0  0  0
 18 17  2  0  0  0  0
 20 19  1  0  0  0  0
 21 20  2  0  0  0  0
 22 19  1  0  0  0  0
 22 15  1  1  0  0  0
 23 31  1  0  0  0  0
 24 23  2  0  0  0  0
 25 28  1  0  0  0  0
 26 27  1  0  0  0  0
 28 31  1  0  0  0  0
 28 29  2  0  0  0  0
 29 30  1  0  0  0  0
 30 27  2  0  0  0  0
 31 26  2  0  0  0  0
 32 30  1  6  0  0  0
 32 34  1  0  0  0  0
 32 33  1  0  0  0  0
 34 33  1  0  0  0  0
 35 36  1  0  0  0  0
 36 38  1  0  0  0  0
 37 36  2  0  0  0  0
 38 39  1  0  0  0  0
 39 44  1  1  0  0  0
 39 41  1  0  0  0  0
 41 40  1  1  0  0  0
 42 41  1  0  0  0  0
 43 42  1  0  0  0  0
 44 46  1  0  0  0  0
 46 45  1  6  0  0  0
 46 47  1  0  0  0  0
 47 48  1  6  0  0  0
 47 50  1  0  0  0  0
 50 51  1  0  0  0  0
 50 49  1  0  0  0  0
 51 52  1  0  0  0  0
 52 53  1  0  0  0  0
 53 55  1  0  0  0  0
 55 54  1  0  0  0  0
M  END
>  <MODEL>
9

>  <REMARK>
 VINA RESULT:      -5.8      2.333      5.831
  Name = 
  19 active torsions:
  status: ('A' for Active; 'I' for Inactive)
    1  A    between atoms: C_1  and  C_21
    2  A    between atoms: C_1  and  N_53
    3  A    between atoms: C_3  and  O_25
    4  A    between atoms: C_3  and  O_38
    5  A    between atoms: C_6  and  C_14
    6  A    between atoms: C_6  and  O_22
    7  A    between atoms: C_6  and  C_46
    8  A    between atoms: C_8  and  O_22
    9  A    between atoms: C_8  and  O_54
   10  A    between atoms: C_10  and  C_48
   11  A    between atoms: C_14  and  C_20
   12  A    between atoms: C_19  and  C_37
   13  A    between atoms: C_21  and  C_46
   14  A    between atoms: C_26  and  N_45
   15  A    between atoms: C_29  and  O_38
   16  A    between atoms: C_29  and  N_53
   17  A    between atoms: C_33  and  C_49
   18  A    between atoms: C_33  and  C_52
   19  A    between atoms: C_51  and  O_54
                            x       y       z     vdW  Elec       q    Type
                         _______ _______ _______ _____ _____    ______ ____

>  <TORSDO>
F 19

$$$$
