=
 OpenBabel10272413413D

 32 37  0  0  1  0  0  0  0  0999 V2000
  189.9110  177.5840  140.9000 C   0  0  2  0  0  3  0  0  0  0  0  0
  190.8500  176.9320  136.7250 C   0  0  1  0  0  3  0  0  0  0  0  0
  187.9050  174.9820  135.2600 C   0  0  0  0  0  2  0  0  0  0  0  0
  189.9310  172.7870  135.7410 C   0  0  0  0  0  1  0  0  0  0  0  0
  193.3390  176.3370  136.6690 C   0  0  0  0  0  0  0  0  0  0  0  0
  194.2520  175.2100  137.0430 C   0  0  0  0  0  0  0  0  0  0  0  0
  191.4620  176.4270  139.1690 C   0  0  0  0  0  2  0  0  0  0  0  0
  188.6710  176.7370  137.4890 O   0  0  0  0  0  0  0  0  0  0  0  0
  196.1580  174.2110  137.6580 C   0  0  0  0  0  0  0  0  0  0  0  0
  188.8720  177.2620  139.8170 C   0  0  0  0  0  2  0  0  0  0  0  0
  189.1060  175.2160  134.3460 C   0  0  0  0  0  2  0  0  0  0  0  0
  189.4510  176.6170  136.3710 N   0  0  2  0  0  0  0  0  0  0  0  0
  189.2730  175.2530  135.8530 C   0  0  0  0  0  0  0  0  0  0  0  0
  191.4780  174.4770  136.7200 C   0  0  0  0  0  0  0  0  0  0  0  0
  197.6070  174.0780  137.9560 C   0  0  0  0  0  1  0  0  0  0  0  0
  191.2460  176.9810  140.5420 C   0  0  0  0  0  0  0  0  0  0  0  0
  189.3490  177.5760  138.3880 C   0  0  1  0  0  3  0  0  0  0  0  0
  195.5860  175.3660  137.2460 N   0  0  0  0  0  0  0  0  0  0  0  0
  192.1640  176.9790  141.3470 O   0  0  0  0  0  0  0  0  0  0  0  0
  189.4640  173.8700  137.8020 O   0  0  0  0  0  1  0  0  0  0  0  0
  190.0300  174.0880  136.5430 C   0  0  2  0  0  0  0  0  0  0  0  0
  192.3630  173.5830  137.1870 C   0  0  0  0  0  3  0  0  0  0  0  0
  190.8400  177.3990  138.1600 C   0  0  2  0  0  3  0  0  0  0  0  0
  193.8820  177.0630  135.6090 O   0  0  0  0  0  1  0  0  0  0  0  0
  195.0340  172.9610  137.8120 S   0  0  0  0  0  0  0  0  0  0  0  0
  191.9050  175.8800  136.3040 C   0  0  0  0  0  0  0  0  0  0  0  0
  193.7680  173.9480  137.3210 C   0  0  0  0  0  0  0  0  0  0  0  0
  189.4270  177.0430  142.2370 C   0  0  0  0  0  2  0  0  0  0  0  0
  189.4680  178.1330  143.2950 C   0  0  0  0  0  2  0  0  0  0  0  0
  189.9670  177.5790  144.5880 C   0  0  0  0  0  0  0  0  0  0  0  0
  191.0890  177.1060  144.6650 O   0  0  0  0  0  0  0  0  0  0  0  0
  189.0990  177.6270  145.7980 C   0  0  0  0  0  1  0  0  0  0  0  0
  1 28  1  1  0  0  0
  2 26  1  1  0  0  0
  2 23  1  0  0  0  0
  3 13  1  0  0  0  0
  5  6  1  0  0  0  0
  6 18  1  0  0  0  0
  6 27  2  0  0  0  0
  7 16  1  0  0  0  0
  8 17  1  0  0  0  0
  9 25  1  0  0  0  0
  9 15  1  0  0  0  0
 10  1  1  0  0  0  0
 11  3  1  0  0  0  0
 11 13  1  0  0  0  0
 12  2  1  0  0  0  0
 12  8  1  1  0  0  0
 13 12  1  0  0  0  0
 13 21  1  0  0  0  0
 14 22  2  0  0  0  0
 16  1  1  0  0  0  0
 16 19  2  0  0  0  0
 17 10  1  1  0  0  0
 18  9  2  0  0  0  0
 21  4  1  6  0  0  0
 21 14  1  0  0  0  0
 21 20  1  0  0  0  0
 22 27  1  0  0  0  0
 23 17  1  0  0  0  0
 23  7  1  1  0  0  0
 24  5  1  0  0  0  0
 26  5  2  0  0  0  0
 26 14  1  0  0  0  0
 27 25  1  0  0  0  0
 28 29  1  0  0  0  0
 29 30  1  0  0  0  0
 30 31  2  0  0  0  0
 30 32  1  0  0  0  0
M  END
>  <MODEL>
1

>  <REMARK>
 VINA RESULT:      -6.2      0.000      0.000
  Name = 
  3 active torsions:
  status: ('A' for Active; 'I' for Inactive)
    1  A    between atoms: C_1  and  C_10
    2  A    between atoms: C_2  and  C_24
    3  A    between atoms: C_10  and  C_24
                            x       y       z     vdW  Elec       q    Type
                         _______ _______ _______ _____ _____    ______ ____

>  <TORSDO>
F 3

$$$$
=
 OpenBabel10272413413D

 32 37  0  0  1  0  0  0  0  0999 V2000
  189.2140  177.7620  140.6310 C   0  0  2  0  0  3  0  0  0  0  0  0
  188.7770  177.7850  136.3240 C   0  0  1  0  0  3  0  0  0  0  0  0
  185.0600  177.2330  135.6250 C   0  0  0  0  0  2  0  0  0  0  0  0
  186.1960  174.4630  135.1880 C   0  0  0  0  0  1  0  0  0  0  0  0
  190.7790  176.4650  135.4280 C   0  0  0  0  0  0  0  0  0  0  0  0
  191.2810  175.0550  135.3620 C   0  0  0  0  0  0  0  0  0  0  0  0
  189.7520  176.5880  138.3790 C   0  0  0  0  0  2  0  0  0  0  0  0
  186.9420  178.1220  137.6980 O   0  0  0  0  0  0  0  0  0  0  0  0
  192.7790  173.3980  135.2310 C   0  0  0  0  0  0  0  0  0  0  0  0
  187.8950  178.0300  139.8940 C   0  0  0  0  0  2  0  0  0  0  0  0
  185.9940  177.2720  134.4180 C   0  0  0  0  0  2  0  0  0  0  0  0
  187.3200  178.0110  136.3870 N   0  0  2  0  0  0  0  0  0  0  0  0
  186.5330  176.9220  135.7920 C   0  0  0  0  0  0  0  0  0  0  0  0
  188.4440  175.3220  135.8320 C   0  0  0  0  0  0  0  0  0  0  0  0
  194.1050  172.7550  135.0460 C   0  0  0  0  0  1  0  0  0  0  0  0
  190.1020  176.8650  139.8070 C   0  0  0  0  0  0  0  0  0  0  0  0
  188.0810  178.4850  138.4350 C   0  0  1  0  0  3  0  0  0  0  0  0
  192.5850  174.7360  135.1580 N   0  0  0  0  0  0  0  0  0  0  0  0
  191.1260  176.3970  140.2800 O   0  0  0  0  0  0  0  0  0  0  0  0
  186.6850  175.1560  137.4050 O   0  0  0  0  0  1  0  0  0  0  0  0
  186.9590  175.4560  136.0680 C   0  0  2  0  0  0  0  0  0  0  0  0
  189.0280  174.1150  135.8910 C   0  0  0  0  0  3  0  0  0  0  0  0
  189.2970  177.9030  137.7370 C   0  0  2  0  0  3  0  0  0  0  0  0
  191.2670  177.1990  134.3460 O   0  0  0  0  0  1  0  0  0  0  0  0
  191.3530  172.5630  135.5760 S   0  0  0  0  0  0  0  0  0  0  0  0
  189.2350  176.5750  135.4740 C   0  0  0  0  0  0  0  0  0  0  0  0
  190.4550  173.9810  135.6240 C   0  0  0  0  0  0  0  0  0  0  0  0
  188.9160  177.1200  141.9780 C   0  0  0  0  0  2  0  0  0  0  0  0
  189.4230  178.0000  143.1070 C   0  0  0  0  0  2  0  0  0  0  0  0
  188.6770  177.7060  144.3670 C   0  0  0  0  0  0  0  0  0  0  0  0
  189.2370  177.7820  145.4480 O   0  0  0  0  0  0  0  0  0  0  0  0
  187.2340  177.3410  144.3040 C   0  0  0  0  0  1  0  0  0  0  0  0
  1 28  1  1  0  0  0
  2 26  1  1  0  0  0
  2 12  1  0  0  0  0
  2 23  1  0  0  0  0
  3 13  1  0  0  0  0
  5 26  1  0  0  0  0
  6  5  2  0  0  0  0
  6 27  1  0  0  0  0
  7 16  1  0  0  0  0
  8 17  1  0  0  0  0
  9 25  1  0  0  0  0
 10  1  1  0  0  0  0
 11  3  1  0  0  0  0
 11 13  1  0  0  0  0
 12  8  1  1  0  0  0
 13 21  1  0  0  0  0
 13 12  1  0  0  0  0
 14 22  1  0  0  0  0
 14 21  1  0  0  0  0
 15  9  1  0  0  0  0
 16 19  2  0  0  0  0
 16  1  1  0  0  0  0
 17 10  1  1  0  0  0
 18  9  2  0  0  0  0
 18  6  1  0  0  0  0
 21  4  1  6  0  0  0
 21 20  1  0  0  0  0
 23  7  1  1  0  0  0
 23 17  1  0  0  0  0
 24  5  1  0  0  0  0
 25 27  1  0  0  0  0
 26 14  2  0  0  0  0
 27 22  2  0  0  0  0
 28 29  1  0  0  0  0
 29 30  1  0  0  0  0
 30 31  2  0  0  0  0
 32 30  1  0  0  0  0
M  END
>  <MODEL>
2

>  <REMARK>
 VINA RESULT:      -6.1      2.209      2.889
  Name = 
  3 active torsions:
  status: ('A' for Active; 'I' for Inactive)
    1  A    between atoms: C_1  and  C_10
    2  A    between atoms: C_2  and  C_24
    3  A    between atoms: C_10  and  C_24
                            x       y       z     vdW  Elec       q    Type
                         _______ _______ _______ _____ _____    ______ ____

>  <TORSDO>
F 3

$$$$
=
 OpenBabel10272413413D

 32 37  0  0  1  0  0  0  0  0999 V2000
  184.7500  178.8290  142.4170 C   0  0  2  0  0  3  0  0  0  0  0  0
  184.5050  178.9480  138.0970 C   0  0  1  0  0  3  0  0  0  0  0  0
  181.2750  177.1300  137.1610 C   0  0  0  0  0  2  0  0  0  0  0  0
  183.3580  174.9900  136.6780 C   0  0  0  0  0  1  0  0  0  0  0  0
  186.8840  178.4980  137.2660 C   0  0  0  0  0  0  0  0  0  0  0  0
  187.8670  177.3710  137.1720 C   0  0  0  0  0  0  0  0  0  0  0  0
  185.7670  178.0650  140.1550 C   0  0  0  0  0  2  0  0  0  0  0  0
  182.6210  178.5150  139.3750 O   0  0  0  0  0  0  0  0  0  0  0  0
  189.8700  176.3800  137.0600 C   0  0  0  0  0  0  0  0  0  0  0  0
  183.4540  178.6450  141.6160 C   0  0  0  0  0  2  0  0  0  0  0  0
  182.1770  177.5760  136.0130 C   0  0  0  0  0  2  0  0  0  0  0  0
  183.0640  178.6270  138.0850 N   0  0  2  0  0  0  0  0  0  0  0  0
  182.7530  177.3640  137.4000 C   0  0  0  0  0  0  0  0  0  0  0  0
  185.1120  176.5650  137.4860 C   0  0  0  0  0  0  0  0  0  0  0  0
  191.3460  176.2720  136.9260 C   0  0  0  0  0  1  0  0  0  0  0  0
  185.9360  178.3660  141.6100 C   0  0  0  0  0  0  0  0  0  0  0  0
  183.5190  179.2220  140.1910 C   0  0  1  0  0  3  0  0  0  0  0  0
  189.2050  177.5580  137.0300 N   0  0  0  0  0  0  0  0  0  0  0  0
  187.0400  178.2730  142.1230 O   0  0  0  0  0  0  0  0  0  0  0  0
  183.4740  175.6810  138.9460 O   0  0  0  0  0  1  0  0  0  0  0  0
  183.6720  176.1380  137.6410 C   0  0  2  0  0  0  0  0  0  0  0  0
  186.0930  175.6500  137.5300 C   0  0  0  0  0  3  0  0  0  0  0  0
  184.8900  179.1620  139.5410 C   0  0  2  0  0  3  0  0  0  0  0  0
  187.1130  179.4200  136.2450 O   0  0  0  0  0  1  0  0  0  0  0  0
  188.8340  175.0660  137.2880 S   0  0  0  0  0  0  0  0  0  0  0  0
  185.4060  178.0380  137.2260 C   0  0  0  0  0  0  0  0  0  0  0  0
  187.4800  176.0570  137.3410 C   0  0  0  0  0  0  0  0  0  0  0  0
  184.6540  178.0450  143.7170 C   0  0  0  0  0  2  0  0  0  0  0  0
  184.4670  178.9890  144.8930 C   0  0  0  0  0  2  0  0  0  0  0  0
  185.4700  178.6930  145.9580 C   0  0  0  0  0  0  0  0  0  0  0  0
  185.3380  179.1610  147.0770 O   0  0  0  0  0  0  0  0  0  0  0  0
  186.6240  177.8000  145.6600 C   0  0  0  0  0  1  0  0  0  0  0  0
  1 28  1  1  0  0  0
  2 26  1  1  0  0  0
  2 23  1  0  0  0  0
  3 13  1  0  0  0  0
  6  5  2  0  0  0  0
  6 27  1  0  0  0  0
  7 16  1  0  0  0  0
  8 17  1  0  0  0  0
  9 25  1  0  0  0  0
 10  1  1  0  0  0  0
 11  3  1  0  0  0  0
 11 13  1  0  0  0  0
 12  2  1  0  0  0  0
 12  8  1  1  0  0  0
 13 21  1  0  0  0  0
 13 12  1  0  0  0  0
 14 22  1  0  0  0  0
 14 21  1  0  0  0  0
 15  9  1  0  0  0  0
 16 19  2  0  0  0  0
 16  1  1  0  0  0  0
 17 10  1  1  0  0  0
 18  9  2  0  0  0  0
 18  6  1  0  0  0  0
 21  4  1  6  0  0  0
 21 20  1  0  0  0  0
 23  7  1  1  0  0  0
 23 17  1  0  0  0  0
 24  5  1  0  0  0  0
 25 27  1  0  0  0  0
 26  5  1  0  0  0  0
 26 14  2  0  0  0  0
 27 22  2  0  0  0  0
 28 29  1  0  0  0  0
 29 30  1  0  0  0  0
 30 31  2  0  0  0  0
 32 30  1  0  0  0  0
M  END
>  <MODEL>
3

>  <REMARK>
 VINA RESULT:      -5.9      4.705      6.378
  Name = 
  3 active torsions:
  status: ('A' for Active; 'I' for Inactive)
    1  A    between atoms: C_1  and  C_10
    2  A    between atoms: C_2  and  C_24
    3  A    between atoms: C_10  and  C_24
                            x       y       z     vdW  Elec       q    Type
                         _______ _______ _______ _____ _____    ______ ____

>  <TORSDO>
F 3

$$$$
=
 OpenBabel10272413413D

 32 37  0  0  1  0  0  0  0  0999 V2000
  186.8500  173.2570  135.4040 C   0  0  2  0  0  3  0  0  0  0  0  0
  189.6890  176.5190  135.5880 C   0  0  1  0  0  3  0  0  0  0  0  0
  193.1240  174.9860  134.9090 C   0  0  0  0  0  2  0  0  0  0  0  0
  193.1280  175.2180  137.9250 C   0  0  0  0  0  1  0  0  0  0  0  0
  188.9510  177.9560  137.5740 C   0  0  0  0  0  0  0  0  0  0  0  0
  188.9210  177.9070  139.0710 C   0  0  0  0  0  0  0  0  0  0  0  0
  188.0090  175.0580  136.8710 C   0  0  0  0  0  2  0  0  0  0  0  0
  190.2450  174.5290  134.5410 O   0  0  0  0  0  0  0  0  0  0  0  0
  188.2090  178.3710  141.1410 C   0  0  0  0  0  0  0  0  0  0  0  0
  188.2470  173.2290  134.7680 C   0  0  0  0  0  2  0  0  0  0  0  0
  193.0870  176.4650  135.2860 C   0  0  0  0  0  2  0  0  0  0  0  0
  190.7380  175.7600  134.8790 N   0  0  2  0  0  0  0  0  0  0  0  0
  191.9480  175.5460  135.6840 C   0  0  0  0  0  0  0  0  0  0  0  0
  190.8010  176.1030  137.8260 C   0  0  0  0  0  0  0  0  0  0  0  0
  187.4300  179.0520  142.2070 C   0  0  0  0  0  1  0  0  0  0  0  0
  186.8420  174.1580  136.6120 C   0  0  0  0  0  0  0  0  0  0  0  0
  188.8440  174.6260  134.5240 C   0  0  1  0  0  3  0  0  0  0  0  0
  188.0960  178.6760  139.8270 N   0  0  0  0  0  0  0  0  0  0  0  0
  185.8750  174.1920  137.3580 O   0  0  0  0  0  0  0  0  0  0  0  0
  191.2980  173.8610  137.2590 O   0  0  0  0  0  1  0  0  0  0  0  0
  191.7920  175.1650  137.1800 C   0  0  2  0  0  0  0  0  0  0  0  0
  190.5890  176.0490  139.1500 C   0  0  0  0  0  3  0  0  0  0  0  0
  188.4350  175.6800  135.5370 C   0  0  2  0  0  3  0  0  0  0  0  0
  189.0300  179.2790  137.1390 O   0  0  0  0  0  1  0  0  0  0  0  0
  189.3140  177.1240  141.4150 S   0  0  0  0  0  0  0  0  0  0  0  0
  190.1040  177.1350  136.9470 C   0  0  0  0  0  0  0  0  0  0  0  0
  189.6610  176.9810  139.7780 C   0  0  0  0  0  0  0  0  0  0  0  0
  186.4480  171.8430  135.7960 C   0  0  0  0  0  2  0  0  0  0  0  0
  185.1460  171.4550  135.1150 C   0  0  0  0  0  2  0  0  0  0  0  0
  184.1760  170.9240  136.1180 C   0  0  0  0  0  0  0  0  0  0  0  0
  183.8080  171.6220  137.0500 O   0  0  0  0  0  0  0  0  0  0  0  0
  183.6360  169.5450  135.9670 C   0  0  0  0  0  1  0  0  0  0  0  0
  1 28  1  1  0  0  0
  1 16  1  0  0  0  0
  2 26  1  1  0  0  0
  3 11  1  0  0  0  0
  3 13  1  0  0  0  0
  5  6  1  0  0  0  0
  6 27  2  0  0  0  0
  6 18  1  0  0  0  0
  9 25  1  0  0  0  0
  9 15  1  0  0  0  0
 10  1  1  0  0  0  0
 11 13  1  0  0  0  0
 12  8  1  1  0  0  0
 12  2  1  0  0  0  0
 12 13  1  0  0  0  0
 13 21  1  0  0  0  0
 14 22  2  0  0  0  0
 16  7  1  0  0  0  0
 16 19  2  0  0  0  0
 17  8  1  0  0  0  0
 17 10  1  1  0  0  0
 17 23  1  0  0  0  0
 18  9  2  0  0  0  0
 21 20  1  0  0  0  0
 21 14  1  0  0  0  0
 21  4  1  1  0  0  0
 22 27  1  0  0  0  0
 23  2  1  0  0  0  0
 23  7  1  1  0  0  0
 24  5  1  0  0  0  0
 26  5  2  0  0  0  0
 26 14  1  0  0  0  0
 27 25  1  0  0  0  0
 29 28  1  0  0  0  0
 29 30  1  0  0  0  0
 30 31  2  0  0  0  0
 32 30  1  0  0  0  0
M  END
>  <MODEL>
4

>  <REMARK>
 VINA RESULT:      -5.9      3.186      7.037
  Name = 
  3 active torsions:
  status: ('A' for Active; 'I' for Inactive)
    1  A    between atoms: C_1  and  C_10
    2  A    between atoms: C_2  and  C_24
    3  A    between atoms: C_10  and  C_24
                            x       y       z     vdW  Elec       q    Type
                         _______ _______ _______ _____ _____    ______ ____

>  <TORSDO>
F 3

$$$$
=
 OpenBabel10272413413D

 32 37  0  0  1  0  0  0  0  0999 V2000
  184.7680  178.9010  141.1020 C   0  0  2  0  0  3  0  0  0  0  0  0
  184.3000  178.0520  136.8830 C   0  0  1  0  0  3  0  0  0  0  0  0
  181.2890  175.7150  136.5920 C   0  0  0  0  0  2  0  0  0  0  0  0
  183.6040  173.7760  136.4130 C   0  0  0  0  0  1  0  0  0  0  0  0
  186.6740  177.7090  135.9890 C   0  0  0  0  0  0  0  0  0  0  0  0
  187.7880  176.7100  136.0590 C   0  0  0  0  0  0  0  0  0  0  0  0
  185.7640  177.7870  138.9800 C   0  0  0  0  0  2  0  0  0  0  0  0
  182.5510  177.6920  138.3600 O   0  0  0  0  0  0  0  0  0  0  0  0
  189.8940  175.9550  136.0080 C   0  0  0  0  0  0  0  0  0  0  0  0
  183.4680  178.4000  140.4560 C   0  0  0  0  0  2  0  0  0  0  0  0
  182.0700  176.0020  135.3120 C   0  0  0  0  0  2  0  0  0  0  0  0
  182.9140  177.5720  137.0460 N   0  0  2  0  0  0  0  0  0  0  0  0
  182.7340  176.1640  136.6660 C   0  0  0  0  0  0  0  0  0  0  0  0
  185.1780  175.6790  136.7400 C   0  0  0  0  0  0  0  0  0  0  0  0
  191.3630  175.9910  135.7900 C   0  0  0  0  0  1  0  0  0  0  0  0
  185.9630  178.4130  140.3230 C   0  0  0  0  0  0  0  0  0  0  0  0
  183.3900  178.6580  138.9410 C   0  0  1  0  0  3  0  0  0  0  0  0
  189.0830  177.0140  135.7820 N   0  0  0  0  0  0  0  0  0  0  0  0
  187.0930  178.5610  140.7600 O   0  0  0  0  0  0  0  0  0  0  0  0
  183.7400  174.9500  138.4710 O   0  0  0  0  0  1  0  0  0  0  0  0
  183.8140  175.1330  137.0880 C   0  0  2  0  0  0  0  0  0  0  0  0
  186.2700  174.9140  136.9010 C   0  0  0  0  0  3  0  0  0  0  0  0
  184.7240  178.6160  138.2170 C   0  0  2  0  0  3  0  0  0  0  0  0
  186.7330  178.4090  134.7830 O   0  0  0  0  0  1  0  0  0  0  0  0
  189.0480  174.6120  136.5820 S   0  0  0  0  0  0  0  0  0  0  0  0
  185.2670  177.0840  136.1570 C   0  0  0  0  0  0  0  0  0  0  0  0
  187.5820  175.4280  136.5280 C   0  0  0  0  0  0  0  0  0  0  0  0
  184.8360  178.4120  142.5400 C   0  0  0  0  0  2  0  0  0  0  0  0
  184.5580  179.5540  143.5030 C   0  0  0  0  0  2  0  0  0  0  0  0
  183.4990  179.1610  144.4790 C   0  0  0  0  0  0  0  0  0  0  0  0
  183.7320  179.1630  145.6760 O   0  0  0  0  0  0  0  0  0  0  0  0
  182.1420  178.7880  143.9890 C   0  0  0  0  0  1  0  0  0  0  0  0
  1 28  1  1  0  0  0
  2 26  1  1  0  0  0
  2 12  1  0  0  0  0
  2 23  1  0  0  0  0
  3 13  1  0  0  0  0
  5  6  2  0  0  0  0
  5 26  1  0  0  0  0
  6 27  1  0  0  0  0
  7 16  1  0  0  0  0
  8 17  1  0  0  0  0
  9 25  1  0  0  0  0
 10  1  1  0  0  0  0
 11  3  1  0  0  0  0
 11 13  1  0  0  0  0
 12  8  1  1  0  0  0
 13 12  1  0  0  0  0
 13 21  1  0  0  0  0
 14 22  1  0  0  0  0
 14 21  1  0  0  0  0
 15  9  1  0  0  0  0
 16 19  2  0  0  0  0
 16  1  1  0  0  0  0
 17 10  1  1  0  0  0
 18  9  2  0  0  0  0
 18  6  1  0  0  0  0
 21  4  1  6  0  0  0
 21 20  1  0  0  0  0
 23 17  1  0  0  0  0
 23  7  1  1  0  0  0
 24  5  1  0  0  0  0
 26 14  2  0  0  0  0
 27 25  1  0  0  0  0
 27 22  2  0  0  0  0
 28 29  1  0  0  0  0
 29 30  1  0  0  0  0
 30 31  2  0  0  0  0
 32 30  1  0  0  0  0
M  END
>  <MODEL>
5

>  <REMARK>
 VINA RESULT:      -5.8      4.770      6.399
  Name = 
  3 active torsions:
  status: ('A' for Active; 'I' for Inactive)
    1  A    between atoms: C_1  and  C_10
    2  A    between atoms: C_2  and  C_24
    3  A    between atoms: C_10  and  C_24
                            x       y       z     vdW  Elec       q    Type
                         _______ _______ _______ _____ _____    ______ ____

>  <TORSDO>
F 3

$$$$
=
 OpenBabel10272413413D

 32 37  0  0  1  0  0  0  0  0999 V2000
  186.5770  178.7150  140.3940 C   0  0  2  0  0  3  0  0  0  0  0  0
  186.7090  177.6910  136.1900 C   0  0  1  0  0  3  0  0  0  0  0  0
  183.5630  175.6330  135.4930 C   0  0  0  0  0  2  0  0  0  0  0  0
  185.6710  173.4800  135.7690 C   0  0  0  0  0  1  0  0  0  0  0  0
  189.1490  177.0830  135.7120 C   0  0  0  0  0  0  0  0  0  0  0  0
  190.1310  175.9890  136.0010 C   0  0  0  0  0  0  0  0  0  0  0  0
  187.7830  177.4030  138.5070 C   0  0  0  0  0  2  0  0  0  0  0  0
  184.7180  177.5750  137.3710 O   0  0  0  0  0  0  0  0  0  0  0  0
  192.1310  175.0400  136.3260 C   0  0  0  0  0  0  0  0  0  0  0  0
  185.3540  178.3040  139.5620 C   0  0  0  0  0  2  0  0  0  0  0  0
  184.5640  175.7790  134.3490 C   0  0  0  0  0  2  0  0  0  0  0  0
  185.2730  177.3530  136.1390 N   0  0  2  0  0  0  0  0  0  0  0  0
  185.0160  175.9490  135.7870 C   0  0  0  0  0  0  0  0  0  0  0  0
  187.3550  175.2430  136.2810 C   0  0  0  0  0  0  0  0  0  0  0  0
  193.6120  174.9270  136.3510 C   0  0  0  0  0  1  0  0  0  0  0  0
  187.8260  178.0770  139.8410 C   0  0  0  0  0  0  0  0  0  0  0  0
  185.5460  178.4870  138.0460 C   0  0  1  0  0  3  0  0  0  0  0  0
  191.4770  176.1570  135.9300 N   0  0  0  0  0  0  0  0  0  0  0  0
  188.8810  178.1420  140.4530 O   0  0  0  0  0  0  0  0  0  0  0  0
  185.5920  174.7440  137.7770 O   0  0  0  0  0  1  0  0  0  0  0  0
  185.9050  174.8460  136.4190 C   0  0  2  0  0  0  0  0  0  0  0  0
  188.3240  174.3900  136.6470 C   0  0  0  0  0  3  0  0  0  0  0  0
  186.9680  178.2840  137.5540 C   0  0  2  0  0  3  0  0  0  0  0  0
  189.4700  177.7090  134.5070 O   0  0  0  0  0  1  0  0  0  0  0  0
  191.0730  173.8130  136.8010 S   0  0  0  0  0  0  0  0  0  0  0  0
  187.6770  176.6020  135.6690 C   0  0  0  0  0  0  0  0  0  0  0  0
  189.7240  174.7590  136.4770 C   0  0  0  0  0  0  0  0  0  0  0  0
  186.3640  178.2980  141.8410 C   0  0  0  0  0  2  0  0  0  0  0  0
  184.8800  178.2060  142.1540 C   0  0  0  0  0  2  0  0  0  0  0  0
  184.6460  178.4110  143.6140 C   0  0  0  0  0  0  0  0  0  0  0  0
  183.5350  178.7020  144.0260 O   0  0  0  0  0  0  0  0  0  0  0  0
  185.7700  178.2340  144.5760 C   0  0  0  0  0  1  0  0  0  0  0  0
  1 28  1  1  0  0  0
  2 26  1  1  0  0  0
  2 23  1  0  0  0  0
  3 13  1  0  0  0  0
  5  6  1  0  0  0  0
  6 27  2  0  0  0  0
  7 16  1  0  0  0  0
  8 17  1  0  0  0  0
  9 15  1  0  0  0  0
  9 25  1  0  0  0  0
 10  1  1  0  0  0  0
 11  3  1  0  0  0  0
 11 13  1  0  0  0  0
 12  2  1  0  0  0  0
 12  8  1  1  0  0  0
 13 12  1  0  0  0  0
 13 21  1  0  0  0  0
 14 21  1  0  0  0  0
 14 22  2  0  0  0  0
 16  1  1  0  0  0  0
 16 19  2  0  0  0  0
 17 10  1  1  0  0  0
 18  6  1  0  0  0  0
 18  9  2  0  0  0  0
 21  4  1  6  0  0  0
 21 20  1  0  0  0  0
 23 17  1  0  0  0  0
 23  7  1  1  0  0  0
 24  5  1  0  0  0  0
 26  5  2  0  0  0  0
 26 14  1  0  0  0  0
 27 22  1  0  0  0  0
 27 25  1  0  0  0  0
 28 29  1  0  0  0  0
 29 30  1  0  0  0  0
 30 31  2  0  0  0  0
 30 32  1  0  0  0  0
M  END
>  <MODEL>
6

>  <REMARK>
 VINA RESULT:      -5.8      3.288      4.343
  Name = 
  3 active torsions:
  status: ('A' for Active; 'I' for Inactive)
    1  A    between atoms: C_1  and  C_10
    2  A    between atoms: C_2  and  C_24
    3  A    between atoms: C_10  and  C_24
                            x       y       z     vdW  Elec       q    Type
                         _______ _______ _______ _____ _____    ______ ____

>  <TORSDO>
F 3

$$$$
=
 OpenBabel10272413413D

 32 37  0  0  1  0  0  0  0  0999 V2000
  186.8190  178.8630  141.2000 C   0  0  2  0  0  3  0  0  0  0  0  0
  184.5430  178.4730  137.5390 C   0  0  1  0  0  3  0  0  0  0  0  0
  180.9520  177.6890  138.5920 C   0  0  0  0  0  2  0  0  0  0  0  0
  182.0040  174.9460  137.8690 C   0  0  0  0  0  1  0  0  0  0  0  0
  186.0510  177.1710  135.9320 C   0  0  0  0  0  0  0  0  0  0  0  0
  186.5870  175.7850  135.7380 C   0  0  0  0  0  0  0  0  0  0  0  0
  186.4120  177.5140  139.0200 C   0  0  0  0  0  2  0  0  0  0  0  0
  183.4730  178.8490  139.5590 O   0  0  0  0  0  0  0  0  0  0  0  0
  188.0060  174.1940  135.0600 C   0  0  0  0  0  0  0  0  0  0  0  0
  185.2930  179.0020  141.1080 C   0  0  0  0  0  2  0  0  0  0  0  0
  181.2580  177.6610  137.0970 C   0  0  0  0  0  2  0  0  0  0  0  0
  183.2470  178.6370  138.2260 N   0  0  2  0  0  0  0  0  0  0  0  0
  182.3710  177.4630  138.1080 C   0  0  0  0  0  0  0  0  0  0  0  0
  184.2300  175.9630  137.3970 C   0  0  0  0  0  0  0  0  0  0  0  0
  189.1650  173.5980  134.3470 C   0  0  0  0  0  1  0  0  0  0  0  0
  187.3270  177.9370  140.1250 C   0  0  0  0  0  0  0  0  0  0  0  0
  184.7850  179.3300  139.6920 C   0  0  1  0  0  3  0  0  0  0  0  0
  187.6910  175.5090  134.9980 N   0  0  0  0  0  0  0  0  0  0  0  0
  188.4890  177.5610  140.1250 O   0  0  0  0  0  0  0  0  0  0  0  0
  183.3560  175.8600  139.5930 O   0  0  0  0  0  1  0  0  0  0  0  0
  182.9920  176.0500  138.2580 C   0  0  2  0  0  0  0  0  0  0  0  0
  184.8780  174.7940  137.2660 C   0  0  0  0  0  3  0  0  0  0  0  0
  185.6160  178.7430  138.5650 C   0  0  2  0  0  3  0  0  0  0  0  0
  185.9550  177.8240  134.7030 O   0  0  0  0  0  1  0  0  0  0  0  0
  186.9480  173.3290  136.0510 S   0  0  0  0  0  0  0  0  0  0  0  0
  184.6800  177.2130  136.6500 C   0  0  0  0  0  0  0  0  0  0  0  0
  186.0490  174.7020  136.4040 C   0  0  0  0  0  0  0  0  0  0  0  0
  187.1940  178.3340  142.5760 C   0  0  0  0  0  2  0  0  0  0  0  0
  185.9490  177.9170  143.3400 C   0  0  0  0  0  2  0  0  0  0  0  0
  186.1770  178.0460  144.8100 C   0  0  0  0  0  0  0  0  0  0  0  0
  187.1560  177.5340  145.3300 O   0  0  0  0  0  0  0  0  0  0  0  0
  185.2190  178.8250  145.6420 C   0  0  0  0  0  1  0  0  0  0  0  0
  1 28  1  1  0  0  0
  2 26  1  1  0  0  0
  2 12  1  0  0  0  0
  2 23  1  0  0  0  0
  5 26  1  0  0  0  0
  6  5  2  0  0  0  0
  6 27  1  0  0  0  0
  7 16  1  0  0  0  0
  8 17  1  0  0  0  0
  9 25  1  0  0  0  0
 10  1  1  0  0  0  0
 11 13  1  0  0  0  0
 11  3  1  0  0  0  0
 12  8  1  1  0  0  0
 13 12  1  0  0  0  0
 13 21  1  0  0  0  0
 13  3  1  0  0  0  0
 14 21  1  0  0  0  0
 15  9  1  0  0  0  0
 16  1  1  0  0  0  0
 17 10  1  1  0  0  0
 18  9  2  0  0  0  0
 18  6  1  0  0  0  0
 19 16  2  0  0  0  0
 21  4  1  6  0  0  0
 21 20  1  0  0  0  0
 22 14  1  0  0  0  0
 23  7  1  1  0  0  0
 23 17  1  0  0  0  0
 24  5  1  0  0  0  0
 25 27  1  0  0  0  0
 26 14  2  0  0  0  0
 27 22  2  0  0  0  0
 28 29  1  0  0  0  0
 29 30  1  0  0  0  0
 30 31  2  0  0  0  0
 30 32  1  0  0  0  0
M  END
>  <MODEL>
7

>  <REMARK>
 VINA RESULT:      -4.6      4.607      6.629
  Name = 
  3 active torsions:
  status: ('A' for Active; 'I' for Inactive)
    1  A    between atoms: C_1  and  C_10
    2  A    between atoms: C_2  and  C_24
    3  A    between atoms: C_10  and  C_24
                            x       y       z     vdW  Elec       q    Type
                         _______ _______ _______ _____ _____    ______ ____

>  <TORSDO>
F 3

$$$$
=
 OpenBabel10272413413D

 32 37  0  0  1  0  0  0  0  0999 V2000
  186.4110  176.8280  136.9500 C   0  0  2  0  0  3  0  0  0  0  0  0
  182.1680  177.6550  136.7270 C   0  0  1  0  0  3  0  0  0  0  0  0
  181.2420  179.3790  140.0110 C   0  0  0  0  0  2  0  0  0  0  0  0
  180.3490  176.5340  140.5250 C   0  0  0  0  0  1  0  0  0  0  0  0
  181.1210  175.5710  135.6720 C   0  0  0  0  0  0  0  0  0  0  0  0
  180.8170  174.1450  136.0180 C   0  0  0  0  0  0  0  0  0  0  0  0
  184.0050  175.8610  136.8470 C   0  0  0  0  0  2  0  0  0  0  0  0
  183.5110  178.7790  138.2440 O   0  0  0  0  0  0  0  0  0  0  0  0
  180.4410  171.9680  135.6650 C   0  0  0  0  0  0  0  0  0  0  0  0
  185.6870  177.8830  137.7970 C   0  0  0  0  0  2  0  0  0  0  0  0
  180.0990  179.0450  139.0560 C   0  0  0  0  0  2  0  0  0  0  0  0
  182.2170  178.6490  137.8170 N   0  0  2  0  0  0  0  0  0  0  0  0
  181.4040  178.2770  138.9840 C   0  0  0  0  0  0  0  0  0  0  0  0
  181.2220  175.8920  138.2810 C   0  0  0  0  0  0  0  0  0  0  0  0
  180.1910  170.7230  134.8950 C   0  0  0  0  0  1  0  0  0  0  0  0
  185.4710  175.7050  136.5950 C   0  0  0  0  0  0  0  0  0  0  0  0
  184.3440  178.3410  137.2010 C   0  0  1  0  0  3  0  0  0  0  0  0
  180.6060  173.1800  135.0860 N   0  0  0  0  0  0  0  0  0  0  0  0
  185.8890  174.6860  136.0660 O   0  0  0  0  0  0  0  0  0  0  0  0
  182.6720  176.5360  140.0360 O   0  0  0  0  0  1  0  0  0  0  0  0
  181.4240  176.8030  139.4680 C   0  0  2  0  0  0  0  0  0  0  0  0
  181.0820  174.5700  138.4650 C   0  0  0  0  0  3  0  0  0  0  0  0
  183.5970  177.2750  136.4200 C   0  0  2  0  0  3  0  0  0  0  0  0
  180.2100  176.0390  134.7250 O   0  0  0  0  0  1  0  0  0  0  0  0
  180.5750  172.0390  137.3460 S   0  0  0  0  0  0  0  0  0  0  0  0
  181.1290  176.5200  136.8960 C   0  0  0  0  0  0  0  0  0  0  0  0
  180.8480  173.6950  137.3220 C   0  0  0  0  0  0  0  0  0  0  0  0
  187.6060  176.2940  137.7250 C   0  0  0  0  0  2  0  0  0  0  0  0
  188.8410  177.1310  137.4380 C   0  0  0  0  0  2  0  0  0  0  0  0
  189.1900  177.9610  138.6290 C   0  0  0  0  0  0  0  0  0  0  0  0
  188.9820  179.1630  138.6260 O   0  0  0  0  0  0  0  0  0  0  0  0
  189.7730  177.3130  139.8370 C   0  0  0  0  0  1  0  0  0  0  0  0
  1 28  1  1  0  0  0
  1 10  1  0  0  0  0
  2 26  1  1  0  0  0
  2 12  1  0  0  0  0
  5  6  2  0  0  0  0
  5 26  1  0  0  0  0
  6 27  1  0  0  0  0
  9 25  1  0  0  0  0
 11  3  1  0  0  0  0
 12  8  1  1  0  0  0
 12 13  1  0  0  0  0
 13 11  1  0  0  0  0
 13 21  1  0  0  0  0
 13  3  1  0  0  0  0
 14 22  1  0  0  0  0
 14 21  1  0  0  0  0
 15  9  1  0  0  0  0
 16  7  1  0  0  0  0
 16  1  1  0  0  0  0
 17 10  1  1  0  0  0
 17  8  1  0  0  0  0
 18  9  2  0  0  0  0
 18  6  1  0  0  0  0
 19 16  2  0  0  0  0
 21 20  1  0  0  0  0
 21  4  1  1  0  0  0
 23  2  1  0  0  0  0
 23  7  1  1  0  0  0
 23 17  1  0  0  0  0
 24  5  1  0  0  0  0
 26 14  2  0  0  0  0
 27 25  1  0  0  0  0
 27 22  2  0  0  0  0
 29 28  1  0  0  0  0
 29 30  1  0  0  0  0
 30 32  1  0  0  0  0
 31 30  2  0  0  0  0
M  END
>  <MODEL>
8

>  <REMARK>
 VINA RESULT:      -4.6      6.791     10.132
  Name = 
  3 active torsions:
  status: ('A' for Active; 'I' for Inactive)
    1  A    between atoms: C_1  and  C_10
    2  A    between atoms: C_2  and  C_24
    3  A    between atoms: C_10  and  C_24
                            x       y       z     vdW  Elec       q    Type
                         _______ _______ _______ _____ _____    ______ ____

>  <TORSDO>
F 3

$$$$
=
 OpenBabel10272413413D

 32 37  0  0  1  0  0  0  0  0999 V2000
  187.0160  176.7720  136.7300 C   0  0  2  0  0  3  0  0  0  0  0  0
  183.1980  175.0180  137.7680 C   0  0  1  0  0  3  0  0  0  0  0  0
  182.1480  172.8930  134.7690 C   0  0  0  0  0  2  0  0  0  0  0  0
  180.5290  175.4130  134.3460 C   0  0  0  0  0  1  0  0  0  0  0  0
  181.8860  176.8800  138.9370 C   0  0  0  0  0  0  0  0  0  0  0  0
  181.1970  178.1700  138.6120 C   0  0  0  0  0  0  0  0  0  0  0  0
  184.5050  177.1700  137.2530 C   0  0  0  0  0  2  0  0  0  0  0  0
  184.4830  174.1210  136.0610 O   0  0  0  0  0  0  0  0  0  0  0  0
  180.3820  180.2240  138.9620 C   0  0  0  0  0  0  0  0  0  0  0  0
  186.4270  175.5200  136.0660 C   0  0  0  0  0  2  0  0  0  0  0  0
  181.1430  173.0260  135.9110 C   0  0  0  0  0  2  0  0  0  0  0  0
  183.2900  173.9840  136.7180 N   0  0  2  0  0  0  0  0  0  0  0  0
  182.2200  174.0750  135.7140 C   0  0  0  0  0  0  0  0  0  0  0  0
  181.6030  176.4010  136.3660 C   0  0  0  0  0  0  0  0  0  0  0  0
  179.9820  181.4320  139.7280 C   0  0  0  0  0  1  0  0  0  0  0  0
  185.9130  177.6740  137.2210 C   0  0  0  0  0  0  0  0  0  0  0  0
  185.3570  174.8130  136.9160 C   0  0  1  0  0  3  0  0  0  0  0  0
  180.9290  179.1270  139.5370 N   0  0  0  0  0  0  0  0  0  0  0  0
  186.1630  178.7970  137.6310 O   0  0  0  0  0  0  0  0  0  0  0  0
  182.8350  175.9760  134.3910 O   0  0  0  0  0  1  0  0  0  0  0  0
  181.8050  175.4740  135.1910 C   0  0  2  0  0  0  0  0  0  0  0  0
  181.1220  177.6390  136.1720 C   0  0  0  0  0  3  0  0  0  0  0  0
  184.5260  175.7350  137.7910 C   0  0  2  0  0  3  0  0  0  0  0  0
  181.2930  176.2870  140.0520 O   0  0  0  0  0  1  0  0  0  0  0  0
  180.2330  180.0620  137.2890 S   0  0  0  0  0  0  0  0  0  0  0  0
  181.9050  175.8710  137.7630 C   0  0  0  0  0  0  0  0  0  0  0  0
  180.8910  178.5180  137.3120 C   0  0  0  0  0  0  0  0  0  0  0  0
  187.8960  177.5060  135.7290 C   0  0  0  0  0  2  0  0  0  0  0  0
  189.3640  177.2850  136.0520 C   0  0  0  0  0  2  0  0  0  0  0  0
  189.6390  177.6410  137.4750 C   0  0  0  0  0  0  0  0  0  0  0  0
  189.3600  178.7500  137.8990 O   0  0  0  0  0  0  0  0  0  0  0  0
  190.2340  176.6260  138.3890 C   0  0  0  0  0  1  0  0  0  0  0  0
  1 28  1  6  0  0  0
  1 16  1  0  0  0  0
  2 26  1  6  0  0  0
  2 23  1  0  0  0  0
  3 13  1  0  0  0  0
  3 11  1  0  0  0  0
  5 24  1  0  0  0  0
  6  5  1  0  0  0  0
  6 18  1  0  0  0  0
  8 17  1  0  0  0  0
  9 18  2  0  0  0  0
  9 15  1  0  0  0  0
 10  1  1  0  0  0  0
 12  8  1  6  0  0  0
 12  2  1  0  0  0  0
 13 11  1  0  0  0  0
 13 12  1  0  0  0  0
 14 26  1  0  0  0  0
 16  7  1  0  0  0  0
 16 19  2  0  0  0  0
 17 10  1  6  0  0  0
 17 23  1  0  0  0  0
 20 21  1  0  0  0  0
 21  4  1  6  0  0  0
 21 13  1  0  0  0  0
 21 14  1  0  0  0  0
 22 14  2  0  0  0  0
 22 27  1  0  0  0  0
 23  7  1  6  0  0  0
 25 27  1  0  0  0  0
 25  9  1  0  0  0  0
 26  5  2  0  0  0  0
 27  6  2  0  0  0  0
 28 29  1  0  0  0  0
 29 30  1  0  0  0  0
 30 31  2  0  0  0  0
 30 32  1  0  0  0  0
M  END
>  <MODEL>
9

>  <REMARK>
 VINA RESULT:      -4.5      6.543     10.053
  Name = 
  3 active torsions:
  status: ('A' for Active; 'I' for Inactive)
    1  A    between atoms: C_1  and  C_10
    2  A    between atoms: C_2  and  C_24
    3  A    between atoms: C_10  and  C_24
                            x       y       z     vdW  Elec       q    Type
                         _______ _______ _______ _____ _____    ______ ____

>  <TORSDO>
F 3

$$$$
