=
 OpenBabel10272401573D

 28 30  0  0  1  0  0  0  0  0999 V2000
  191.1140  176.4350  139.2030 C   0  0  0  0  0  2  0  0  0  0  0  0
  186.1630  179.2300  141.6550 C   0  0  0  0  0  1  0  0  0  0  0  0
  189.0460  177.1060  137.9860 C   0  0  2  0  0  3  0  0  0  0  0  0
  189.3500  177.8050  140.3810 C   0  0  0  0  0  0  0  0  0  0  0  0
  190.8990  175.9610  136.7170 C   0  0  2  0  0  3  0  0  0  0  0  0
  190.0470  177.5210  139.0710 C   0  0  1  0  0  3  0  0  0  0  0  0
  187.3240  178.2710  139.2000 O   0  0  0  0  0  0  0  0  0  0  0  0
  189.7560  176.9790  136.6410 C   0  0  0  0  0  2  0  0  0  0  0  0
  188.0240  178.0950  142.9190 C   0  0  2  0  0  3  0  0  0  0  0  0
  190.1270  177.8640  141.6360 C   0  0  0  0  0  3  0  0  0  0  0  0
  187.9370  178.1420  137.9170 C   0  0  0  0  0  2  0  0  0  0  0  0
  187.4300  178.5160  141.6450 N   0  0  0  0  0  0  0  0  0  0  0  0
  190.3640  174.5420  136.8190 C   0  0  0  0  0  1  0  0  0  0  0  0
  191.8560  176.2750  137.8740 C   0  0  0  0  0  2  0  0  0  0  0  0
  188.0580  178.1890  140.3940 C   0  0  0  0  0  0  0  0  0  0  0  0
  189.5340  178.0700  142.8150 C   0  0  0  0  0  0  0  0  0  0  0  0
  187.4940  176.7120  143.3200 C   0  0  0  0  0  3  0  0  0  0  0  0
  187.1970  176.6820  144.6820 O   0  0  0  0  0  1  0  0  0  0  0  0
  188.4440  175.7290  143.0410 O   0  0  0  0  0  1  0  0  0  0  0  0
  190.3850  178.1530  144.0400 C   0  0  0  0  0  2  0  0  0  0  0  0
  191.2080  176.9100  144.2250 C   0  0  0  0  0  3  0  0  0  0  0  0
  191.5960  176.4400  145.4170 C   0  0  0  0  0  3  0  0  0  0  0  0
  191.2560  177.0910  146.7260 C   0  0  0  0  0  2  0  0  0  0  0  0
  189.8430  176.7390  147.1850 C   0  0  0  0  0  2  0  0  0  0  0  0
  189.0660  177.9410  147.7220 C   0  0  2  0  0  3  0  0  0  0  0  0
  189.6600  178.4390  148.8680 F   0  0  0  0  0  0  0  0  0  0  0  0
  186.7470  178.3670  147.6120 O   0  0  0  0  0  0  0  0  0  0  0  0
  187.6320  177.6130  147.9840 C   0  0  0  0  0  3  0  0  0  0  0  0
  3  8  1  6  0  0  0
  3  6  1  0  0  0  0
  4 15  2  0  0  0  0
  4 10  1  0  0  0  0
  5 13  1  1  0  0  0
  5 14  1  0  0  0  0
  6  1  1  1  0  0  0
  6  4  1  0  0  0  0
  7 15  1  0  0  0  0
  8  5  1  0  0  0  0
  9 17  1  6  0  0  0
 10 16  2  0  0  0  0
 11  3  1  0  0  0  0
 11  7  1  0  0  0  0
 12  2  1  0  0  0  0
 12  9  1  0  0  0  0
 14  1  1  0  0  0  0
 15 12  1  0  0  0  0
 16  9  1  0  0  0  0
 16 20  1  0  0  0  0
 17 18  1  0  0  0  0
 19 17  1  0  0  0  0
 20 21  1  0  0  0  0
 21 22  2  0  0  0  0
 22 23  1  0  0  0  0
 23 24  1  0  0  0  0
 24 25  1  0  0  0  0
 25 28  1  0  0  0  0
 25 26  1  1  0  0  0
 27 28  2  0  0  0  0
M  END
>  <MODEL>
1

>  <REMARK>
 VINA RESULT:      -7.9      0.000      0.000
  Name = 
  7 active torsions:
  status: ('A' for Active; 'I' for Inactive)
    1  A    between atoms: C_1  and  C_2
    2  A    between atoms: C_1  and  C_27
    3  A    between atoms: C_3  and  C_8
    4  A    between atoms: C_6  and  C_11
    5  A    between atoms: C_6  and  C_28
    6  A    between atoms: C_8  and  C_11
    7  A    between atoms: C_16  and  C_19
                            x       y       z     vdW  Elec       q    Type
                         _______ _______ _______ _____ _____    ______ ____

>  <TORSDO>
F 7

$$$$
=
 OpenBabel10272401573D

 28 30  0  0  1  0  0  0  0  0999 V2000
  187.7070  178.1200  139.6590 C   0  0  0  0  0  2  0  0  0  0  0  0
  191.7330  175.8790  143.7960 C   0  0  0  0  0  1  0  0  0  0  0  0
  190.0730  177.4760  139.2160 C   0  0  2  0  0  3  0  0  0  0  0  0
  189.0580  176.9770  141.4600 C   0  0  0  0  0  0  0  0  0  0  0  0
  188.6730  178.3810  137.3250 C   0  0  2  0  0  3  0  0  0  0  0  0
  188.7970  177.0970  139.9770 C   0  0  1  0  0  3  0  0  0  0  0  0
  191.3660  176.5370  141.0160 O   0  0  0  0  0  0  0  0  0  0  0  0
  189.8150  177.4350  137.7120 C   0  0  0  0  0  2  0  0  0  0  0  0
  189.5340  177.0020  144.2990 C   0  0  2  0  0  3  0  0  0  0  0  0
  187.9300  176.9820  142.4140 C   0  0  0  0  0  3  0  0  0  0  0  0
  191.1810  176.5100  139.6010 C   0  0  0  0  0  2  0  0  0  0  0  0
  190.5090  176.5060  143.3210 N   0  0  0  0  0  0  0  0  0  0  0  0
  189.1040  179.8340  137.4360 C   0  0  0  0  0  1  0  0  0  0  0  0
  187.4130  178.1120  138.1570 C   0  0  0  0  0  2  0  0  0  0  0  0
  190.2940  176.6790  141.9110 C   0  0  0  0  0  0  0  0  0  0  0  0
  188.1320  176.9210  143.7330 C   0  0  0  0  0  0  0  0  0  0  0  0
  189.8660  178.4460  144.6950 C   0  0  0  0  0  3  0  0  0  0  0  0
  190.8890  178.9480  143.8890 O   0  0  0  0  0  1  0  0  0  0  0  0
  190.2720  178.5020  146.0290 O   0  0  0  0  0  1  0  0  0  0  0  0
  186.9440  176.8950  144.6390 C   0  0  0  0  0  2  0  0  0  0  0  0
  186.6540  178.2540  145.2070 C   0  0  0  0  0  3  0  0  0  0  0  0
  185.4860  178.8940  145.0600 C   0  0  0  0  0  3  0  0  0  0  0  0
  184.3130  178.3340  144.3120 C   0  0  0  0  0  2  0  0  0  0  0  0
  183.9830  179.1620  143.0720 C   0  0  0  0  0  2  0  0  0  0  0  0
  184.9120  178.8770  141.8910 C   0  0  2  0  0  3  0  0  0  0  0  0
  186.0220  179.7020  141.9280 F   0  0  0  0  0  0  0  0  0  0  0  0
  184.5990  179.8230  139.7510 O   0  0  0  0  0  0  0  0  0  0  0  0
  184.2100  179.0130  140.5790 C   0  0  0  0  0  3  0  0  0  0  0  0
  3  8  1  6  0  0  0
  3 11  1  0  0  0  0
  3  6  1  0  0  0  0
  4 15  2  0  0  0  0
  4 10  1  0  0  0  0
  5 13  1  1  0  0  0
  5  8  1  0  0  0  0
  5 14  1  0  0  0  0
  6  1  1  1  0  0  0
  6  4  1  0  0  0  0
  7 15  1  0  0  0  0
  9 17  1  6  0  0  0
 10 16  2  0  0  0  0
 11  7  1  0  0  0  0
 12  2  1  0  0  0  0
 12  9  1  0  0  0  0
 14  1  1  0  0  0  0
 15 12  1  0  0  0  0
 16  9  1  0  0  0  0
 16 20  1  0  0  0  0
 17 19  1  0  0  0  0
 18 17  1  0  0  0  0
 20 21  1  0  0  0  0
 22 21  2  0  0  0  0
 23 22  1  0  0  0  0
 24 23  1  0  0  0  0
 25 26  1  6  0  0  0
 25 24  1  0  0  0  0
 27 28  2  0  0  0  0
 28 25  1  0  0  0  0
M  END
>  <MODEL>
2

>  <REMARK>
 VINA RESULT:      -7.4      2.695      5.036
  Name = 
  7 active torsions:
  status: ('A' for Active; 'I' for Inactive)
    1  A    between atoms: C_1  and  C_2
    2  A    between atoms: C_1  and  C_27
    3  A    between atoms: C_3  and  C_8
    4  A    between atoms: C_6  and  C_11
    5  A    between atoms: C_6  and  C_28
    6  A    between atoms: C_8  and  C_11
    7  A    between atoms: C_16  and  C_19
                            x       y       z     vdW  Elec       q    Type
                         _______ _______ _______ _____ _____    ______ ____

>  <TORSDO>
F 7

$$$$
=
 OpenBabel10272401573D

 28 30  0  0  1  0  0  0  0  0999 V2000
  188.3430  177.6520  141.7110 C   0  0  0  0  0  2  0  0  0  0  0  0
  188.1690  177.2450  135.5340 C   0  0  0  0  0  1  0  0  0  0  0  0
  190.2510  177.0750  140.2160 C   0  0  2  0  0  3  0  0  0  0  0  0
  188.0730  177.8170  139.2060 C   0  0  0  0  0  0  0  0  0  0  0  0
  190.6230  177.1460  142.7090 C   0  0  2  0  0  3  0  0  0  0  0  0
  189.0160  177.9690  140.3760 C   0  0  1  0  0  3  0  0  0  0  0  0
  189.8950  177.0930  137.8360 O   0  0  0  0  0  0  0  0  0  0  0  0
  191.2540  177.3650  141.3300 C   0  0  0  0  0  2  0  0  0  0  0  0
  186.1870  177.3200  137.0890 C   0  0  2  0  0  3  0  0  0  0  0  0
  186.6780  178.2910  139.3120 C   0  0  0  0  0  3  0  0  0  0  0  0
  190.8690  177.3280  138.8520 C   0  0  0  0  0  2  0  0  0  0  0  0
  187.6400  177.3480  136.8860 N   0  0  0  0  0  0  0  0  0  0  0  0
  190.4080  175.6660  142.9850 C   0  0  0  0  0  1  0  0  0  0  0  0
  189.3140  177.9310  142.8600 C   0  0  0  0  0  2  0  0  0  0  0  0
  188.5410  177.4260  138.0040 C   0  0  0  0  0  0  0  0  0  0  0  0
  185.8090  178.1320  138.3100 C   0  0  0  0  0  0  0  0  0  0  0  0
  185.7010  175.8730  137.2400 C   0  0  0  0  0  3  0  0  0  0  0  0
  186.7820  174.9910  137.2080 O   0  0  0  0  0  1  0  0  0  0  0  0
  184.8200  175.5470  136.2090 O   0  0  0  0  0  1  0  0  0  0  0  0
  184.4230  178.6660  138.4720 C   0  0  0  0  0  2  0  0  0  0  0  0
  183.5230  177.6680  139.1410 C   0  0  0  0  0  3  0  0  0  0  0  0
  183.2080  177.7000  140.4430 C   0  0  0  0  0  3  0  0  0  0  0  0
  183.7100  178.7380  141.4020 C   0  0  0  0  0  2  0  0  0  0  0  0
  184.6350  178.1370  142.4570 C   0  0  0  0  0  2  0  0  0  0  0  0
  184.8530  179.0520  143.6620 C   0  0  2  0  0  3  0  0  0  0  0  0
  185.9610  178.6550  144.3880 F   0  0  0  0  0  0  0  0  0  0  0  0
  183.7710  179.0430  145.7600 O   0  0  0  0  0  0  0  0  0  0  0  0
  183.6500  179.1120  144.5470 C   0  0  0  0  0  3  0  0  0  0  0  0
  1 14  1  0  0  0  0
  2 12  1  0  0  0  0
  3 11  1  6  0  0  0
  3  6  1  0  0  0  0
  3  8  1  0  0  0  0
  4 10  1  0  0  0  0
  4  6  1  0  0  0  0
  5 14  1  0  0  0  0
  5 13  1  6  0  0  0
  6  1  1  1  0  0  0
  7 15  1  0  0  0  0
  7 11  1  0  0  0  0
  8  5  1  0  0  0  0
  9 17  1  1  0  0  0
  9 16  1  0  0  0  0
 12  9  1  0  0  0  0
 12 15  1  0  0  0  0
 15  4  2  0  0  0  0
 16 20  1  0  0  0  0
 16 10  2  0  0  0  0
 18 17  1  0  0  0  0
 19 17  1  0  0  0  0
 20 21  1  0  0  0  0
 21 22  2  0  0  0  0
 22 23  1  0  0  0  0
 23 24  1  0  0  0  0
 24 25  1  0  0  0  0
 25 26  1  1  0  0  0
 25 28  1  0  0  0  0
 28 27  2  0  0  0  0
M  END
>  <MODEL>
3

>  <REMARK>
 VINA RESULT:      -6.9      3.117      6.002
  Name = 
  7 active torsions:
  status: ('A' for Active; 'I' for Inactive)
    1  A    between atoms: C_1  and  C_2
    2  A    between atoms: C_1  and  C_27
    3  A    between atoms: C_3  and  C_8
    4  A    between atoms: C_6  and  C_11
    5  A    between atoms: C_6  and  C_28
    6  A    between atoms: C_8  and  C_11
    7  A    between atoms: C_16  and  C_19
                            x       y       z     vdW  Elec       q    Type
                         _______ _______ _______ _____ _____    ______ ____

>  <TORSDO>
F 7

$$$$
=
 OpenBabel10272401573D

 28 30  0  0  1  0  0  0  0  0999 V2000
  191.5670  176.3200  139.2310 C   0  0  0  0  0  2  0  0  0  0  0  0
  186.3360  178.9110  141.2980 C   0  0  0  0  0  1  0  0  0  0  0  0
  189.5020  176.7380  137.9000 C   0  0  2  0  0  3  0  0  0  0  0  0
  189.6650  177.6380  140.2410 C   0  0  0  0  0  0  0  0  0  0  0  0
  191.4800  175.6440  136.7850 C   0  0  2  0  0  3  0  0  0  0  0  0
  190.4290  177.3090  138.9800 C   0  0  1  0  0  3  0  0  0  0  0  0
  187.6560  177.8590  138.9630 O   0  0  0  0  0  0  0  0  0  0  0  0
  190.2700  176.5640  136.5920 C   0  0  0  0  0  2  0  0  0  0  0  0
  188.2260  178.0190  142.7050 C   0  0  2  0  0  3  0  0  0  0  0  0
  190.3880  177.8500  141.5120 C   0  0  0  0  0  3  0  0  0  0  0  0
  188.3240  177.6790  137.7150 C   0  0  0  0  0  2  0  0  0  0  0  0
  187.6520  178.2960  141.3840 N   0  0  0  0  0  0  0  0  0  0  0  0
  191.0460  174.2000  136.9800 C   0  0  0  0  0  1  0  0  0  0  0  0
  192.3680  176.1150  137.9430 C   0  0  0  0  0  2  0  0  0  0  0  0
  188.3480  177.9230  140.1830 C   0  0  0  0  0  0  0  0  0  0  0  0
  189.7370  178.0990  142.6510 C   0  0  0  0  0  0  0  0  0  0  0  0
  187.7840  176.6340  143.1960 C   0  0  0  0  0  3  0  0  0  0  0  0
  187.5240  176.6640  144.5660 O   0  0  0  0  0  1  0  0  0  0  0  0
  188.7790  175.6890  142.9440 O   0  0  0  0  0  1  0  0  0  0  0  0
  190.5330  178.3390  143.8930 C   0  0  0  0  0  2  0  0  0  0  0  0
  191.5170  177.2320  144.1390 C   0  0  0  0  0  3  0  0  0  0  0  0
  191.5290  176.4730  145.2430 C   0  0  0  0  0  3  0  0  0  0  0  0
  190.5580  176.6270  146.3760 C   0  0  0  0  0  2  0  0  0  0  0  0
  191.2450  177.1210  147.6480 C   0  0  0  0  0  2  0  0  0  0  0  0
  192.4190  176.2430  148.0810 C   0  0  2  0  0  3  0  0  0  0  0  0
  192.0740  174.9040  148.0370 F   0  0  0  0  0  0  0  0  0  0  0  0
  193.9960  177.1640  149.5750 O   0  0  0  0  0  0  0  0  0  0  0  0
  192.9190  176.6040  149.4410 C   0  0  0  0  0  3  0  0  0  0  0  0
  2 12  1  0  0  0  0
  3  8  1  6  0  0  0
  3  6  1  0  0  0  0
  4 10  1  0  0  0  0
  5 13  1  1  0  0  0
  5 14  1  0  0  0  0
  6  1  1  1  0  0  0
  6  4  1  0  0  0  0
  7 15  1  0  0  0  0
  8  5  1  0  0  0  0
  9 17  1  6  0  0  0
 10 16  2  0  0  0  0
 11  3  1  0  0  0  0
 11  7  1  0  0  0  0
 12  9  1  0  0  0  0
 14  1  1  0  0  0  0
 15  4  2  0  0  0  0
 15 12  1  0  0  0  0
 16  9  1  0  0  0  0
 16 20  1  0  0  0  0
 17 18  1  0  0  0  0
 19 17  1  0  0  0  0
 20 21  1  0  0  0  0
 21 22  2  0  0  0  0
 22 23  1  0  0  0  0
 23 24  1  0  0  0  0
 24 25  1  0  0  0  0
 25 26  1  1  0  0  0
 25 28  1  0  0  0  0
 28 27  2  0  0  0  0
M  END
>  <MODEL>
4

>  <REMARK>
 VINA RESULT:      -6.8      1.869      2.157
  Name = 
  7 active torsions:
  status: ('A' for Active; 'I' for Inactive)
    1  A    between atoms: C_1  and  C_2
    2  A    between atoms: C_1  and  C_27
    3  A    between atoms: C_3  and  C_8
    4  A    between atoms: C_6  and  C_11
    5  A    between atoms: C_6  and  C_28
    6  A    between atoms: C_8  and  C_11
    7  A    between atoms: C_16  and  C_19
                            x       y       z     vdW  Elec       q    Type
                         _______ _______ _______ _____ _____    ______ ____

>  <TORSDO>
F 7

$$$$
=
 OpenBabel10272401573D

 28 30  0  0  1  0  0  0  0  0999 V2000
  186.0860  178.0010  144.5670 C   0  0  0  0  0  2  0  0  0  0  0  0
  190.5840  177.6630  140.3240 C   0  0  0  0  0  1  0  0  0  0  0  0
  185.9150  178.6880  142.1780 C   0  0  2  0  0  3  0  0  0  0  0  0
  187.9850  177.5090  142.9780 C   0  0  0  0  0  0  0  0  0  0  0  0
  183.9090  178.9620  143.6810 C   0  0  2  0  0  3  0  0  0  0  0  0
  186.4890  177.6390  143.1380 C   0  0  1  0  0  3  0  0  0  0  0  0
  187.8150  178.3410  140.7420 O   0  0  0  0  0  0  0  0  0  0  0  0
  184.3900  178.6850  142.2520 C   0  0  0  0  0  2  0  0  0  0  0  0
  190.8590  177.4640  142.8210 C   0  0  2  0  0  3  0  0  0  0  0  0
  188.7870  176.8420  144.0240 C   0  0  0  0  0  3  0  0  0  0  0  0
  186.3890  178.3770  140.7690 C   0  0  0  0  0  2  0  0  0  0  0  0
  189.9890  177.6360  141.6520 N   0  0  0  0  0  0  0  0  0  0  0  0
  184.1460  180.4130  144.0670 C   0  0  0  0  0  1  0  0  0  0  0  0
  184.5610  178.0080  144.6900 C   0  0  0  0  0  2  0  0  0  0  0  0
  188.5730  177.8270  141.8070 C   0  0  0  0  0  0  0  0  0  0  0  0
  190.1160  176.7500  143.9310 C   0  0  0  0  0  0  0  0  0  0  0  0
  191.3650  178.8270  143.3100 C   0  0  0  0  0  3  0  0  0  0  0  0
  192.5640  178.6780  144.0090 O   0  0  0  0  0  1  0  0  0  0  0  0
  190.4230  179.4230  144.1490 O   0  0  0  0  0  1  0  0  0  0  0  0
  190.8620  176.0320  145.0080 C   0  0  0  0  0  2  0  0  0  0  0  0
  191.2820  176.9670  146.1050 C   0  0  0  0  0  3  0  0  0  0  0  0
  190.5950  177.1440  147.2410 C   0  0  0  0  0  3  0  0  0  0  0  0
  189.3180  176.4270  147.5690 C   0  0  0  0  0  2  0  0  0  0  0  0
  188.0910  177.2320  147.1460 C   0  0  0  0  0  2  0  0  0  0  0  0
  187.7920  178.4090  148.0740 C   0  0  2  0  0  3  0  0  0  0  0  0
  188.1990  178.1320  149.3670 F   0  0  0  0  0  0  0  0  0  0  0  0
  185.9750  179.7850  147.4620 O   0  0  0  0  0  0  0  0  0  0  0  0
  186.3460  178.7860  148.0570 C   0  0  0  0  0  3  0  0  0  0  0  0
  1 14  1  0  0  0  0
  2 12  1  0  0  0  0
  3 11  1  6  0  0  0
  3  8  1  0  0  0  0
  3  6  1  0  0  0  0
  4  6  1  0  0  0  0
  4 10  1  0  0  0  0
  5 13  1  1  0  0  0
  5 14  1  0  0  0  0
  6  1  1  1  0  0  0
  7 11  1  0  0  0  0
  7 15  1  0  0  0  0
  8  5  1  0  0  0  0
  9 17  1  1  0  0  0
  9 16  1  0  0  0  0
 12 15  1  0  0  0  0
 12  9  1  0  0  0  0
 15  4  2  0  0  0  0
 16 10  2  0  0  0  0
 16 20  1  0  0  0  0
 17 18  1  0  0  0  0
 17 19  1  0  0  0  0
 20 21  1  0  0  0  0
 21 22  2  0  0  0  0
 22 23  1  0  0  0  0
 24 23  1  0  0  0  0
 24 25  1  0  0  0  0
 25 26  1  1  0  0  0
 27 28  2  0  0  0  0
 28 25  1  0  0  0  0
M  END
>  <MODEL>
5

>  <REMARK>
 VINA RESULT:      -6.5      2.308      4.975
  Name = 
  7 active torsions:
  status: ('A' for Active; 'I' for Inactive)
    1  A    between atoms: C_1  and  C_2
    2  A    between atoms: C_1  and  C_27
    3  A    between atoms: C_3  and  C_8
    4  A    between atoms: C_6  and  C_11
    5  A    between atoms: C_6  and  C_28
    6  A    between atoms: C_8  and  C_11
    7  A    between atoms: C_16  and  C_19
                            x       y       z     vdW  Elec       q    Type
                         _______ _______ _______ _____ _____    ______ ____

>  <TORSDO>
F 7

$$$$
=
 OpenBabel10272401573D

 28 30  0  0  1  0  0  0  0  0999 V2000
  191.1180  177.2650  141.7250 C   0  0  0  0  0  2  0  0  0  0  0  0
  185.9260  178.1840  138.4780 C   0  0  0  0  0  1  0  0  0  0  0  0
  188.9730  178.1790  142.6020 C   0  0  2  0  0  3  0  0  0  0  0  0
  189.0660  177.2880  140.2540 C   0  0  0  0  0  0  0  0  0  0  0  0
  190.9330  177.9340  144.1680 C   0  0  2  0  0  3  0  0  0  0  0  0
  189.5960  177.1420  141.6610 C   0  0  1  0  0  3  0  0  0  0  0  0
  187.0900  178.3270  141.1100 O   0  0  0  0  0  0  0  0  0  0  0  0
  189.4060  177.9060  144.0400 C   0  0  0  0  0  2  0  0  0  0  0  0
  188.2250  177.7540  137.5410 C   0  0  2  0  0  3  0  0  0  0  0  0
  189.7770  176.6550  139.1240 C   0  0  0  0  0  3  0  0  0  0  0  0
  187.4600  178.1150  142.4720 C   0  0  0  0  0  2  0  0  0  0  0  0
  187.3370  177.9060  138.6990 N   0  0  0  0  0  0  0  0  0  0  0  0
  191.4690  179.3510  144.0400 C   0  0  0  0  0  1  0  0  0  0  0  0
  191.6000  176.9970  143.1520 C   0  0  0  0  0  2  0  0  0  0  0  0
  187.8520  177.8330  140.0390 C   0  0  0  0  0  0  0  0  0  0  0  0
  189.3570  176.8020  137.8650 C   0  0  0  0  0  0  0  0  0  0  0  0
  188.7810  179.1190  137.1170 C   0  0  0  0  0  3  0  0  0  0  0  0
  189.3540  179.7710  138.2090 O   0  0  0  0  0  1  0  0  0  0  0  0
  187.7630  179.9180  136.5960 O   0  0  0  0  0  1  0  0  0  0  0  0
  190.1040  176.1050  136.7740 C   0  0  0  0  0  2  0  0  0  0  0  0
  190.6100  174.7650  137.2230 C   0  0  0  0  0  3  0  0  0  0  0  0
  191.7870  174.2460  136.8500 C   0  0  0  0  0  3  0  0  0  0  0  0
  192.7560  174.9380  135.9370 C   0  0  0  0  0  2  0  0  0  0  0  0
  194.1410  175.0610  136.5680 C   0  0  0  0  0  2  0  0  0  0  0  0
  194.1290  174.9000  138.0880 C   0  0  2  0  0  3  0  0  0  0  0  0
  193.8580  176.1060  138.7090 F   0  0  0  0  0  0  0  0  0  0  0  0
  195.4860  173.1480  138.9020 O   0  0  0  0  0  0  0  0  0  0  0  0
  195.4110  174.3300  138.6040 C   0  0  0  0  0  3  0  0  0  0  0  0
  1 14  1  0  0  0  0
  2 12  1  0  0  0  0
  3 11  1  1  0  0  0
  3  8  1  0  0  0  0
  4  6  1  0  0  0  0
  5 13  1  6  0  0  0
  6  1  1  6  0  0  0
  6  3  1  0  0  0  0
  7 11  1  0  0  0  0
  8  5  1  0  0  0  0
  9 17  1  1  0  0  0
  9 16  1  0  0  0  0
  9 12  1  0  0  0  0
 10  4  1  0  0  0  0
 12 15  1  0  0  0  0
 14  5  1  0  0  0  0
 15  4  2  0  0  0  0
 15  7  1  0  0  0  0
 16 10  2  0  0  0  0
 17 18  1  0  0  0  0
 19 17  1  0  0  0  0
 20 21  1  0  0  0  0
 20 16  1  0  0  0  0
 22 21  2  0  0  0  0
 23 24  1  0  0  0  0
 23 22  1  0  0  0  0
 24 25  1  0  0  0  0
 25 28  1  0  0  0  0
 25 26  1  1  0  0  0
 28 27  2  0  0  0  0
M  END
>  <MODEL>
6

>  <REMARK>
 VINA RESULT:      -6.4      3.202      7.479
  Name = 
  7 active torsions:
  status: ('A' for Active; 'I' for Inactive)
    1  A    between atoms: C_1  and  C_2
    2  A    between atoms: C_1  and  C_27
    3  A    between atoms: C_3  and  C_8
    4  A    between atoms: C_6  and  C_11
    5  A    between atoms: C_6  and  C_28
    6  A    between atoms: C_8  and  C_11
    7  A    between atoms: C_16  and  C_19
                            x       y       z     vdW  Elec       q    Type
                         _______ _______ _______ _____ _____    ______ ____

>  <TORSDO>
F 7

$$$$
=
 OpenBabel10272401573D

 28 30  0  0  1  0  0  0  0  0999 V2000
  189.3800  177.9880  142.8970 C   0  0  0  0  0  2  0  0  0  0  0  0
  184.5830  177.9690  146.8130 C   0  0  0  0  0  1  0  0  0  0  0  0
  189.5060  177.9070  145.3840 C   0  0  2  0  0  3  0  0  0  0  0  0
  187.2690  177.7180  144.2560 C   0  0  0  0  0  0  0  0  0  0  0  0
  191.6430  177.9210  144.0470 C   0  0  2  0  0  3  0  0  0  0  0  0
  188.7420  177.4000  144.1550 C   0  0  1  0  0  3  0  0  0  0  0  0
  187.4540  177.8110  146.6380 O   0  0  0  0  0  0  0  0  0  0  0  0
  190.9570  177.4350  145.3280 C   0  0  0  0  0  2  0  0  0  0  0  0
  184.5170  178.5560  144.3630 C   0  0  2  0  0  3  0  0  0  0  0  0
  186.4140  177.6550  143.0530 C   0  0  0  0  0  3  0  0  0  0  0  0
  188.8190  177.3930  146.6380 C   0  0  0  0  0  2  0  0  0  0  0  0
  185.2740  178.1150  145.5410 N   0  0  0  0  0  0  0  0  0  0  0  0
  191.8990  179.4180  144.0960 C   0  0  0  0  0  1  0  0  0  0  0  0
  190.8390  177.5390  142.7980 C   0  0  0  0  0  2  0  0  0  0  0  0
  186.6890  177.8770  145.4620 C   0  0  0  0  0  0  0  0  0  0  0  0
  185.1170  177.9720  143.1020 C   0  0  0  0  0  0  0  0  0  0  0  0
  184.5020  180.0880  144.2860 C   0  0  0  0  0  3  0  0  0  0  0  0
  183.2290  180.5460  143.9440 O   0  0  0  0  0  1  0  0  0  0  0  0
  185.4160  180.5350  143.3310 O   0  0  0  0  0  1  0  0  0  0  0  0
  184.3020  177.8530  141.8540 C   0  0  0  0  0  2  0  0  0  0  0  0
  184.4250  179.0790  140.9970 C   0  0  0  0  0  3  0  0  0  0  0  0
  185.2160  179.1620  139.9190 C   0  0  0  0  0  3  0  0  0  0  0  0
  186.0790  178.0400  139.4240 C   0  0  0  0  0  2  0  0  0  0  0  0
  187.5570  178.2870  139.7200 C   0  0  0  0  0  2  0  0  0  0  0  0
  188.4770  177.9030  138.5610 C   0  0  2  0  0  3  0  0  0  0  0  0
  189.7490  178.4130  138.7520 F   0  0  0  0  0  0  0  0  0  0  0  0
  187.8720  179.5360  136.9670 O   0  0  0  0  0  0  0  0  0  0  0  0
  187.9350  178.3480  137.2410 C   0  0  0  0  0  3  0  0  0  0  0  0
  3  8  1  6  0  0  0
  3 11  1  0  0  0  0
  4 15  2  0  0  0  0
  5 13  1  1  0  0  0
  5  8  1  0  0  0  0
  6  1  1  6  0  0  0
  6  4  1  0  0  0  0
  6  3  1  0  0  0  0
  9 17  1  6  0  0  0
  9 12  1  0  0  0  0
 10 16  2  0  0  0  0
 10  4  1  0  0  0  0
 11  7  1  0  0  0  0
 12  2  1  0  0  0  0
 14  1  1  0  0  0  0
 14  5  1  0  0  0  0
 15 12  1  0  0  0  0
 15  7  1  0  0  0  0
 16  9  1  0  0  0  0
 18 17  1  0  0  0  0
 19 17  1  0  0  0  0
 20 16  1  0  0  0  0
 21 20  1  0  0  0  0
 22 21  2  0  0  0  0
 23 24  1  0  0  0  0
 23 22  1  0  0  0  0
 25 26  1  1  0  0  0
 25 24  1  0  0  0  0
 27 28  2  0  0  0  0
 28 25  1  0  0  0  0
M  END
>  <MODEL>
7

>  <REMARK>
 VINA RESULT:      -6.3      3.067      7.204
  Name = 
  7 active torsions:
  status: ('A' for Active; 'I' for Inactive)
    1  A    between atoms: C_1  and  C_2
    2  A    between atoms: C_1  and  C_27
    3  A    between atoms: C_3  and  C_8
    4  A    between atoms: C_6  and  C_11
    5  A    between atoms: C_6  and  C_28
    6  A    between atoms: C_8  and  C_11
    7  A    between atoms: C_16  and  C_19
                            x       y       z     vdW  Elec       q    Type
                         _______ _______ _______ _____ _____    ______ ____

>  <TORSDO>
F 7

$$$$
=
 OpenBabel10272401573D

 28 30  0  0  1  0  0  0  0  0999 V2000
  191.1200  177.2850  141.7050 C   0  0  0  0  0  2  0  0  0  0  0  0
  185.9330  178.1250  138.4300 C   0  0  0  0  0  1  0  0  0  0  0  0
  188.9510  178.1480  142.5750 C   0  0  2  0  0  3  0  0  0  0  0  0
  189.0790  177.2790  140.2200 C   0  0  0  0  0  0  0  0  0  0  0  0
  190.9050  177.9300  144.1520 C   0  0  2  0  0  3  0  0  0  0  0  0
  189.6020  177.1310  141.6300 C   0  0  1  0  0  3  0  0  0  0  0  0
  187.0750  178.2700  141.0710 O   0  0  0  0  0  0  0  0  0  0  0  0
  189.3800  177.8720  144.0140 C   0  0  0  0  0  2  0  0  0  0  0  0
  188.2470  177.7500  137.5050 C   0  0  2  0  0  3  0  0  0  0  0  0
  189.8100  176.6690  139.0910 C   0  0  0  0  0  3  0  0  0  0  0  0
  187.4410  178.0550  142.4330 C   0  0  0  0  0  2  0  0  0  0  0  0
  187.3470  177.8740  138.6580 N   0  0  0  0  0  0  0  0  0  0  0  0
  191.4120  179.3580  144.0400 C   0  0  0  0  0  1  0  0  0  0  0  0
  191.5980  177.0150  143.1340 C   0  0  0  0  0  2  0  0  0  0  0  0
  187.8550  177.8000  140.0010 C   0  0  0  0  0  0  0  0  0  0  0  0
  189.3960  176.8190  137.8300 C   0  0  0  0  0  0  0  0  0  0  0  0
  188.7780  179.1290  137.0960 C   0  0  0  0  0  3  0  0  0  0  0  0
  189.3530  179.7730  138.1920 O   0  0  0  0  0  1  0  0  0  0  0  0
  187.7420  179.9210  136.5990 O   0  0  0  0  0  1  0  0  0  0  0  0
  190.1640  176.1460  136.7380 C   0  0  0  0  0  2  0  0  0  0  0  0
  190.6140  174.7740  137.1480 C   0  0  0  0  0  3  0  0  0  0  0  0
  190.0010  173.6420  136.7770 C   0  0  0  0  0  3  0  0  0  0  0  0
  188.7840  173.5980  135.9000 C   0  0  0  0  0  2  0  0  0  0  0  0
  187.5450  173.1460  136.6710 C   0  0  0  0  0  2  0  0  0  0  0  0
  186.2830  173.9220  136.2940 C   0  0  2  0  0  3  0  0  0  0  0  0
  186.5030  175.2860  136.3710 F   0  0  0  0  0  0  0  0  0  0  0  0
  185.2550  172.7710  138.0790 O   0  0  0  0  0  0  0  0  0  0  0  0
  185.1130  173.5380  137.1400 C   0  0  0  0  0  3  0  0  0  0  0  0
  1 14  1  0  0  0  0
  2 12  1  0  0  0  0
  3 11  1  1  0  0  0
  3  8  1  0  0  0  0
  4  6  1  0  0  0  0
  5 13  1  6  0  0  0
  6  1  1  6  0  0  0
  6  3  1  0  0  0  0
  7 11  1  0  0  0  0
  8  5  1  0  0  0  0
  9 17  1  1  0  0  0
  9 16  1  0  0  0  0
  9 12  1  0  0  0  0
 10  4  1  0  0  0  0
 12 15  1  0  0  0  0
 14  5  1  0  0  0  0
 15  4  2  0  0  0  0
 15  7  1  0  0  0  0
 16 10  2  0  0  0  0
 17 18  1  0  0  0  0
 19 17  1  0  0  0  0
 20 21  1  0  0  0  0
 20 16  1  0  0  0  0
 22 21  2  0  0  0  0
 23 24  1  0  0  0  0
 23 22  1  0  0  0  0
 25 26  1  1  0  0  0
 25 24  1  0  0  0  0
 25 28  1  0  0  0  0
 28 27  2  0  0  0  0
M  END
>  <MODEL>
8

>  <REMARK>
 VINA RESULT:      -6.2      3.459      7.522
  Name = 
  7 active torsions:
  status: ('A' for Active; 'I' for Inactive)
    1  A    between atoms: C_1  and  C_2
    2  A    between atoms: C_1  and  C_27
    3  A    between atoms: C_3  and  C_8
    4  A    between atoms: C_6  and  C_11
    5  A    between atoms: C_6  and  C_28
    6  A    between atoms: C_8  and  C_11
    7  A    between atoms: C_16  and  C_19
                            x       y       z     vdW  Elec       q    Type
                         _______ _______ _______ _____ _____    ______ ____

>  <TORSDO>
F 7

$$$$
=
 OpenBabel10272401573D

 28 30  0  0  1  0  0  0  0  0999 V2000
  187.6100  178.0860  139.3570 C   0  0  0  0  0  2  0  0  0  0  0  0
  191.6200  175.8130  143.4920 C   0  0  0  0  0  1  0  0  0  0  0  0
  189.9020  177.2380  138.8760 C   0  0  2  0  0  3  0  0  0  0  0  0
  188.9430  176.9610  141.1820 C   0  0  0  0  0  0  0  0  0  0  0  0
  188.4990  178.1250  136.9790 C   0  0  2  0  0  3  0  0  0  0  0  0
  188.6330  177.0060  139.7040 C   0  0  1  0  0  3  0  0  0  0  0  0
  191.1930  176.3200  140.6880 O   0  0  0  0  0  0  0  0  0  0  0  0
  189.5830  177.1220  137.3880 C   0  0  0  0  0  2  0  0  0  0  0  0
  189.5300  177.1280  143.9950 C   0  0  2  0  0  3  0  0  0  0  0  0
  187.8570  177.1110  142.1720 C   0  0  0  0  0  3  0  0  0  0  0  0
  190.9510  176.2190  139.2850 C   0  0  0  0  0  2  0  0  0  0  0  0
  190.4280  176.5000  143.0190 N   0  0  0  0  0  0  0  0  0  0  0  0
  189.0390  179.5470  136.9790 C   0  0  0  0  0  1  0  0  0  0  0  0
  187.2570  178.0060  137.8700 C   0  0  0  0  0  2  0  0  0  0  0  0
  190.1700  176.5990  141.6080 C   0  0  0  0  0  0  0  0  0  0  0  0
  188.1050  177.1180  143.4840 C   0  0  0  0  0  0  0  0  0  0  0  0
  189.9830  178.5650  144.2830 C   0  0  0  0  0  3  0  0  0  0  0  0
  190.7960  179.0350  143.2520 O   0  0  0  0  0  1  0  0  0  0  0  0
  190.6940  178.6180  145.4820 O   0  0  0  0  0  1  0  0  0  0  0  0
  186.9540  177.2390  144.4300 C   0  0  0  0  0  2  0  0  0  0  0  0
  185.7380  177.7950  143.7500 C   0  0  0  0  0  3  0  0  0  0  0  0
  184.9630  178.7570  144.2690 C   0  0  0  0  0  3  0  0  0  0  0  0
  185.2130  179.4060  145.5980 C   0  0  0  0  0  2  0  0  0  0  0  0
  185.2350  178.3850  146.7340 C   0  0  0  0  0  2  0  0  0  0  0  0
  186.1550  178.7850  147.8870 C   0  0  2  0  0  3  0  0  0  0  0  0
  186.4230  180.1420  147.8560 F   0  0  0  0  0  0  0  0  0  0  0  0
  188.4990  178.5700  148.0620 O   0  0  0  0  0  0  0  0  0  0  0  0
  187.4300  178.0060  147.8860 C   0  0  0  0  0  3  0  0  0  0  0  0
  3  8  1  6  0  0  0
  3 11  1  0  0  0  0
  3  6  1  0  0  0  0
  4 15  2  0  0  0  0
  4 10  1  0  0  0  0
  5 13  1  1  0  0  0
  5  8  1  0  0  0  0
  5 14  1  0  0  0  0
  6  1  1  1  0  0  0
  6  4  1  0  0  0  0
  7 15  1  0  0  0  0
  9 17  1  6  0  0  0
 10 16  2  0  0  0  0
 11  7  1  0  0  0  0
 12  2  1  0  0  0  0
 12  9  1  0  0  0  0
 14  1  1  0  0  0  0
 15 12  1  0  0  0  0
 16  9  1  0  0  0  0
 16 20  1  0  0  0  0
 17 19  1  0  0  0  0
 18 17  1  0  0  0  0
 21 22  2  0  0  0  0
 21 20  1  0  0  0  0
 22 23  1  0  0  0  0
 23 24  1  0  0  0  0
 24 25  1  0  0  0  0
 25 26  1  6  0  0  0
 28 25  1  0  0  0  0
 28 27  2  0  0  0  0
M  END
>  <MODEL>
9

>  <REMARK>
 VINA RESULT:      -6.2      2.250      3.963
  Name = 
  7 active torsions:
  status: ('A' for Active; 'I' for Inactive)
    1  A    between atoms: C_1  and  C_2
    2  A    between atoms: C_1  and  C_27
    3  A    between atoms: C_3  and  C_8
    4  A    between atoms: C_6  and  C_11
    5  A    between atoms: C_6  and  C_28
    6  A    between atoms: C_8  and  C_11
    7  A    between atoms: C_16  and  C_19
                            x       y       z     vdW  Elec       q    Type
                         _______ _______ _______ _____ _____    ______ ____

>  <TORSDO>
F 7

$$$$
