=
 OpenBabel10272400393D

 31 34  0  0  1  0  0  0  0  0999 V2000
  183.9180  178.6980  143.7970 C   0  0  1  0  0  3  0  0  0  0  0  0
  186.8910  179.3830  141.4760 C   0  0  0  0  0  2  0  0  0  0  0  0
  185.9720  178.7030  142.4580 C   0  0  0  0  0  0  0  0  0  0  0  0
  184.7300  178.3530  145.0540 C   0  0  0  0  0  2  0  0  0  0  0  0
  188.7220  177.9760  142.4730 C   0  0  2  0  0  3  0  0  0  0  0  0
  182.9020  179.5960  144.1210 O   0  0  0  0  0  1  0  0  0  0  0  0
  187.7650  176.9280  143.0320 C   0  0  0  0  0  2  0  0  0  0  0  0
  188.1880  178.6240  141.1900 C   0  0  1  0  0  3  0  0  0  0  0  0
  184.8040  179.2910  142.7390 C   0  0  0  0  0  3  0  0  0  0  0  0
  186.3560  177.4740  143.2670 C   0  0  1  0  0  3  0  0  0  0  0  0
  186.1020  177.7070  144.7600 C   0  0  0  0  0  2  0  0  0  0  0  0
  188.0600  177.6450  140.0060 C   0  0  1  0  0  3  0  0  0  0  0  0
  186.7530  177.5140  139.5660 F   0  0  0  0  0  0  0  0  0  0  0  0
  188.4500  177.2400  137.7060 O   0  0  0  0  0  1  0  0  0  0  0  0
  189.0490  177.8250  138.8240 C   0  0  1  0  0  0  0  0  0  0  0  0
  188.6090  179.4500  137.3880 O   0  0  0  0  0  1  0  0  0  0  0  0
  189.2290  179.1950  138.5250 O   0  0  0  0  0  0  0  0  0  0  0  0
  190.4170  177.1390  139.0420 C   0  0  0  0  0  2  0  0  0  0  0  0
  190.7770  176.1430  137.9810 C   0  0  0  0  0  3  0  0  0  0  0  0
  191.0950  175.0040  138.2790 O   0  0  0  0  0  0  0  0  0  0  0  0
  190.1870  177.5230  142.4240 C   0  0  0  0  0  2  0  0  0  0  0  0
  190.7020  179.0310  144.3890 C   0  0  0  0  0  2  0  0  0  0  0  0
  190.9990  177.7120  143.7100 C   0  0  0  0  0  0  0  0  0  0  0  0
  192.0410  178.8070  143.7070 C   0  0  0  0  0  2  0  0  0  0  0  0
  191.2300  176.5750  144.6960 C   0  0  0  0  0  2  0  0  0  0  0  0
  191.2330  177.0890  146.1240 C   0  0  0  0  0  2  0  0  0  0  0  0
  189.9910  176.5970  146.8380 C   0  0  0  0  0  2  0  0  0  0  0  0
  188.0540  177.3870  148.1380 C   0  0  2  0  0  3  0  0  0  0  0  0
  186.8940  178.1440  147.9790 O   0  0  0  0  0  1  0  0  0  0  0  0
  189.2160  178.3090  148.4410 C   0  0  0  0  0  2  0  0  0  0  0  0
  189.0360  177.7530  147.0440 C   0  0  1  0  0  3  0  0  0  0  0  0
  1  6  1  1  0  0  0
  1  4  1  0  0  0  0
  2  3  1  0  0  0  0
  3  9  2  0  0  0  0
  3 10  1  0  0  0  0
  5 21  1  6  0  0  0
  5  7  1  0  0  0  0
  8 12  1  6  0  0  0
  8  2  1  0  0  0  0
  8  5  1  0  0  0  0
  9  1  1  0  0  0  0
 10  7  1  1  0  0  0
 10 11  1  0  0  0  0
 11  4  1  0  0  0  0
 12 13  1  6  0  0  0
 15 14  1  6  0  0  0
 15 18  1  0  0  0  0
 15 12  1  0  0  0  0
 16 17  1  0  0  0  0
 17 15  1  0  0  0  0
 19 20  2  0  0  0  0
 19 18  1  0  0  0  0
 21 23  1  0  0  0  0
 23 22  1  0  0  0  0
 23 25  1  0  0  0  0
 24 23  1  0  0  0  0
 24 22  1  0  0  0  0
 25 26  1  0  0  0  0
 26 27  1  0  0  0  0
 28 29  1  6  0  0  0
 28 30  1  0  0  0  0
 31 27  1  1  0  0  0
 31 28  1  0  0  0  0
 31 30  1  0  0  0  0
M  END
>  <MODEL>
1

>  <REMARK>
 VINA RESULT:      -7.5      0.000      0.000
  Name = 
  11 active torsions:
  status: ('A' for Active; 'I' for Inactive)
    1  A    between atoms: C_5  and  C_21
    2  A    between atoms: C_5  and  C_31
    3  A    between atoms: C_6  and  C_7
    4  A    between atoms: C_6  and  C_19
    5  A    between atoms: C_7  and  C_9
    6  A    between atoms: C_9  and  C_23
    7  A    between atoms: C_15  and  C_23
    8  A    between atoms: C_17  and  C_30
    9  A    between atoms: O_18  and  C_31
   10  A    between atoms: C_19  and  C_24
   11  A    between atoms: C_30  and  C_31
                            x       y       z     vdW  Elec       q    Type
                         _______ _______ _______ _____ _____    ______ ____

>  <TORSDO>
F 11

$$$$
=
 OpenBabel10272400393D

 31 34  0  0  1  0  0  0  0  0999 V2000
  191.7640  176.5520  146.0890 C   0  0  1  0  0  3  0  0  0  0  0  0
  190.5230  175.8220  142.5360 C   0  0  0  0  0  2  0  0  0  0  0  0
  190.8540  176.5530  143.8120 C   0  0  0  0  0  0  0  0  0  0  0  0
  190.4810  177.2180  146.6080 C   0  0  0  0  0  2  0  0  0  0  0  0
  188.7820  177.6000  142.1700 C   0  0  2  0  0  3  0  0  0  0  0  0
  192.2170  175.6120  147.0130 O   0  0  0  0  0  1  0  0  0  0  0  0
  189.4560  178.6080  143.0940 C   0  0  0  0  0  2  0  0  0  0  0  0
  189.7940  176.6680  141.4910 C   0  0  1  0  0  3  0  0  0  0  0  0
  191.5180  175.8890  144.7640 C   0  0  0  0  0  3  0  0  0  0  0  0
  190.3480  177.9470  144.1460 C   0  0  1  0  0  3  0  0  0  0  0  0
  189.6730  177.9620  145.5230 C   0  0  0  0  0  2  0  0  0  0  0  0
  190.7560  177.3910  140.5290 C   0  0  1  0  0  3  0  0  0  0  0  0
  192.0030  177.6080  141.0910 F   0  0  0  0  0  0  0  0  0  0  0  0
  192.2040  176.9720  138.7010 O   0  0  0  0  0  1  0  0  0  0  0  0
  190.8670  176.8370  139.0840 C   0  0  1  0  0  0  0  0  0  0  0  0
  191.3660  174.8850  138.1690 O   0  0  0  0  0  1  0  0  0  0  0  0
  190.5690  175.4550  139.0520 O   0  0  0  0  0  0  0  0  0  0  0  0
  190.0010  177.5960  138.0520 C   0  0  0  0  0  2  0  0  0  0  0  0
  188.6380  177.0080  137.8480 C   0  0  0  0  0  3  0  0  0  0  0  0
  188.2100  176.8050  136.7240 O   0  0  0  0  0  0  0  0  0  0  0  0
  187.7230  178.2120  141.2420 C   0  0  0  0  0  2  0  0  0  0  0  0
  185.2320  178.1570  140.7990 C   0  0  0  0  0  2  0  0  0  0  0  0
  186.3170  178.3720  141.8320 C   0  0  0  0  0  0  0  0  0  0  0  0
  185.5010  179.5480  141.3470 C   0  0  0  0  0  2  0  0  0  0  0  0
  185.9480  177.8260  143.2040 C   0  0  0  0  0  2  0  0  0  0  0  0
  184.6930  178.4940  143.7330 C   0  0  0  0  0  2  0  0  0  0  0  0
  185.0200  179.2370  145.0120 C   0  0  0  0  0  2  0  0  0  0  0  0
  186.0620  179.0630  147.2370 C   0  0  2  0  0  3  0  0  0  0  0  0
  187.1820  178.5100  147.8550 O   0  0  0  0  0  1  0  0  0  0  0  0
  184.9660  178.0230  147.1620 C   0  0  0  0  0  2  0  0  0  0  0  0
  185.8010  178.3300  145.9380 C   0  0  1  0  0  3  0  0  0  0  0  0
  1  4  1  0  0  0  0
  1  6  1  1  0  0  0
  2  3  1  0  0  0  0
  3 10  1  0  0  0  0
  3  9  2  0  0  0  0
  5 21  1  6  0  0  0
  5  7  1  0  0  0  0
  8 12  1  1  0  0  0
  8  5  1  0  0  0  0
  8  2  1  0  0  0  0
  9  1  1  0  0  0  0
 10  7  1  6  0  0  0
 10 11  1  0  0  0  0
 11  4  1  0  0  0  0
 12 13  1  1  0  0  0
 15 14  1  6  0  0  0
 15 12  1  0  0  0  0
 16 17  1  0  0  0  0
 17 15  1  0  0  0  0
 18 15  1  0  0  0  0
 19 18  1  0  0  0  0
 20 19  2  0  0  0  0
 21 23  1  0  0  0  0
 22 24  1  0  0  0  0
 22 23  1  0  0  0  0
 23 25  1  0  0  0  0
 24 23  1  0  0  0  0
 25 26  1  0  0  0  0
 26 27  1  0  0  0  0
 28 29  1  1  0  0  0
 30 28  1  0  0  0  0
 31 27  1  6  0  0  0
 31 30  1  0  0  0  0
 31 28  1  0  0  0  0
M  END
>  <MODEL>
2

>  <REMARK>
 VINA RESULT:      -7.4      2.000      5.035
  Name = 
  11 active torsions:
  status: ('A' for Active; 'I' for Inactive)
    1  A    between atoms: C_5  and  C_21
    2  A    between atoms: C_5  and  C_31
    3  A    between atoms: C_6  and  C_7
    4  A    between atoms: C_6  and  C_19
    5  A    between atoms: C_7  and  C_9
    6  A    between atoms: C_9  and  C_23
    7  A    between atoms: C_15  and  C_23
    8  A    between atoms: C_17  and  C_30
    9  A    between atoms: O_18  and  C_31
   10  A    between atoms: C_19  and  C_24
   11  A    between atoms: C_30  and  C_31
                            x       y       z     vdW  Elec       q    Type
                         _______ _______ _______ _____ _____    ______ ____

>  <TORSDO>
F 11

$$$$
=
 OpenBabel10272400393D

 31 34  0  0  1  0  0  0  0  0999 V2000
  185.6470  178.1870  146.6390 C   0  0  1  0  0  3  0  0  0  0  0  0
  185.1020  179.6380  143.1330 C   0  0  0  0  0  2  0  0  0  0  0  0
  185.5220  178.7160  144.2490 C   0  0  0  0  0  0  0  0  0  0  0  0
  187.1570  177.9370  146.5120 C   0  0  0  0  0  2  0  0  0  0  0  0
  186.9510  178.5850  141.7930 C   0  0  2  0  0  3  0  0  0  0  0  0
  185.3730  178.8270  147.8480 O   0  0  0  0  0  1  0  0  0  0  0  0
  187.0040  177.3240  142.6480 C   0  0  0  0  0  2  0  0  0  0  0  0
  185.5430  179.1910  141.7390 C   0  0  1  0  0  3  0  0  0  0  0  0
  185.1500  179.0240  145.4960 C   0  0  0  0  0  3  0  0  0  0  0  0
  186.4720  177.5430  144.0650 C   0  0  1  0  0  3  0  0  0  0  0  0
  187.6230  177.6160  145.0760 C   0  0  0  0  0  2  0  0  0  0  0  0
  184.5050  178.2900  141.0430 C   0  0  1  0  0  3  0  0  0  0  0  0
  183.4120  178.0190  141.8510 F   0  0  0  0  0  0  0  0  0  0  0  0
  182.6850  178.8460  139.6320 O   0  0  0  0  0  1  0  0  0  0  0  0
  184.0720  178.6800  139.6060 C   0  0  1  0  0  0  0  0  0  0  0  0
  183.6380  180.7350  138.9080 O   0  0  0  0  0  1  0  0  0  0  0  0
  184.6280  179.9270  139.2360 O   0  0  0  0  0  0  0  0  0  0  0  0
  184.4000  177.6100  138.5390 C   0  0  0  0  0  2  0  0  0  0  0  0
  185.4920  178.0050  137.5920 C   0  0  0  0  0  3  0  0  0  0  0  0
  186.3760  177.2170  137.2970 O   0  0  0  0  0  0  0  0  0  0  0  0
  187.6660  178.4550  140.4410 C   0  0  0  0  0  2  0  0  0  0  0  0
  189.8260  178.0250  139.1940 C   0  0  0  0  0  2  0  0  0  0  0  0
  189.0400  177.7770  140.4640 C   0  0  0  0  0  0  0  0  0  0  0  0
  189.2630  176.6450  139.4880 C   0  0  0  0  0  2  0  0  0  0  0  0
  189.9150  177.7640  141.7100 C   0  0  0  0  0  2  0  0  0  0  0  0
  190.3530  176.3500  142.0480 C   0  0  0  0  0  2  0  0  0  0  0  0
  191.3530  176.3930  143.1850 C   0  0  0  0  0  2  0  0  0  0  0  0
  191.5790  176.6510  145.6250 C   0  0  2  0  0  3  0  0  0  0  0  0
  190.8070  176.5980  146.7840 O   0  0  0  0  0  1  0  0  0  0  0  0
  191.4860  178.0370  145.0240 C   0  0  0  0  0  2  0  0  0  0  0  0
  190.6730  176.9030  144.4370 C   0  0  1  0  0  3  0  0  0  0  0  0
  1  6  1  1  0  0  0
  2  3  1  0  0  0  0
  3  9  2  0  0  0  0
  4  1  1  0  0  0  0
  5 21  1  6  0  0  0
  5  7  1  0  0  0  0
  8 12  1  1  0  0  0
  8  5  1  0  0  0  0
  8  2  1  0  0  0  0
  9  1  1  0  0  0  0
 10  7  1  6  0  0  0
 10  3  1  0  0  0  0
 10 11  1  0  0  0  0
 11  4  1  0  0  0  0
 12 13  1  1  0  0  0
 15 14  1  1  0  0  0
 15 12  1  0  0  0  0
 16 17  1  0  0  0  0
 17 15  1  0  0  0  0
 18 15  1  0  0  0  0
 19 18  1  0  0  0  0
 20 19  2  0  0  0  0
 21 23  1  0  0  0  0
 22 24  1  0  0  0  0
 22 23  1  0  0  0  0
 23 25  1  0  0  0  0
 24 23  1  0  0  0  0
 25 26  1  0  0  0  0
 26 27  1  0  0  0  0
 28 29  1  1  0  0  0
 30 28  1  0  0  0  0
 31 27  1  6  0  0  0
 31 30  1  0  0  0  0
 31 28  1  0  0  0  0
M  END
>  <MODEL>
3

>  <REMARK>
 VINA RESULT:      -7.4      2.423      4.063
  Name = 
  11 active torsions:
  status: ('A' for Active; 'I' for Inactive)
    1  A    between atoms: C_5  and  C_21
    2  A    between atoms: C_5  and  C_31
    3  A    between atoms: C_6  and  C_7
    4  A    between atoms: C_6  and  C_19
    5  A    between atoms: C_7  and  C_9
    6  A    between atoms: C_9  and  C_23
    7  A    between atoms: C_15  and  C_23
    8  A    between atoms: C_17  and  C_30
    9  A    between atoms: O_18  and  C_31
   10  A    between atoms: C_19  and  C_24
   11  A    between atoms: C_30  and  C_31
                            x       y       z     vdW  Elec       q    Type
                         _______ _______ _______ _____ _____    ______ ____

>  <TORSDO>
F 11

$$$$
=
 OpenBabel10272400393D

 31 34  0  0  1  0  0  0  0  0999 V2000
  191.4600  177.1370  140.1280 C   0  0  1  0  0  3  0  0  0  0  0  0
  190.8650  178.1690  143.7720 C   0  0  0  0  0  2  0  0  0  0  0  0
  190.7350  177.4610  142.4480 C   0  0  0  0  0  0  0  0  0  0  0  0
  190.0080  177.2800  139.6470 C   0  0  0  0  0  2  0  0  0  0  0  0
  188.4580  177.5490  144.1480 C   0  0  2  0  0  3  0  0  0  0  0  0
  192.3210  177.7600  139.2250 O   0  0  0  0  0  1  0  0  0  0  0  0
  188.4790  176.4020  143.1440 C   0  0  0  0  0  2  0  0  0  0  0  0
  189.8230  177.7630  144.8140 C   0  0  1  0  0  3  0  0  0  0  0  0
  191.6290  177.7410  141.4930 C   0  0  0  0  0  3  0  0  0  0  0  0
  189.5630  176.5650  142.0770 C   0  0  1  0  0  3  0  0  0  0  0  0
  188.9530  176.9990  140.7390 C   0  0  0  0  0  2  0  0  0  0  0  0
  190.2800  176.5810  145.6890 C   0  0  1  0  0  3  0  0  0  0  0  0
  191.3010  175.8510  145.1030 F   0  0  0  0  0  0  0  0  0  0  0  0
  190.3500  175.6800  147.8790 O   0  0  0  0  0  1  0  0  0  0  0  0
  190.5700  176.8720  147.1850 C   0  0  1  0  0  0  0  0  0  0  0  0
  192.5130  176.2210  148.0210 O   0  0  0  0  0  1  0  0  0  0  0  0
  191.9290  177.2130  147.3750 O   0  0  0  0  0  0  0  0  0  0  0  0
  189.6540  177.9550  147.8020 C   0  0  0  0  0  2  0  0  0  0  0  0
  188.3640  177.4230  148.3490 C   0  0  0  0  0  3  0  0  0  0  0  0
  187.5540  178.1720  148.8710 O   0  0  0  0  0  0  0  0  0  0  0  0
  187.2550  177.5220  145.1020 C   0  0  0  0  0  2  0  0  0  0  0  0
  185.6290  179.4280  145.4570 C   0  0  0  0  0  2  0  0  0  0  0  0
  185.9850  178.2260  144.6100 C   0  0  0  0  0  0  0  0  0  0  0  0
  184.7770  178.1710  145.5170 C   0  0  0  0  0  2  0  0  0  0  0  0
  185.6980  178.4350  143.1300 C   0  0  0  0  0  2  0  0  0  0  0  0
  184.2030  178.4900  142.8710 C   0  0  0  0  0  2  0  0  0  0  0  0
  183.9340  178.1710  141.4150 C   0  0  0  0  0  2  0  0  0  0  0  0
  184.9330  178.3420  139.1700 C   0  0  2  0  0  3  0  0  0  0  0  0
  186.1270  178.7140  138.5540 O   0  0  0  0  0  1  0  0  0  0  0  0
  184.0760  179.5710  139.3850 C   0  0  0  0  0  2  0  0  0  0  0  0
  184.8610  178.9860  140.5390 C   0  0  1  0  0  3  0  0  0  0  0  0
  1  6  1  6  0  0  0
  1  9  1  0  0  0  0
  2  8  1  0  0  0  0
  3  2  1  0  0  0  0
  4  1  1  0  0  0  0
  4 11  1  0  0  0  0
  5  8  1  0  0  0  0
  5 21  1  1  0  0  0
  7  5  1  0  0  0  0
  8 12  1  6  0  0  0
  9  3  2  0  0  0  0
 10 11  1  6  0  0  0
 10  3  1  0  0  0  0
 10  7  1  0  0  0  0
 12 13  1  6  0  0  0
 12 15  1  0  0  0  0
 15 17  1  0  0  0  0
 15 18  1  0  0  0  0
 15 14  1  1  0  0  0
 17 16  1  0  0  0  0
 18 19  1  0  0  0  0
 19 20  2  0  0  0  0
 22 24  1  0  0  0  0
 23 21  1  0  0  0  0
 23 22  1  0  0  0  0
 23 24  1  0  0  0  0
 25 23  1  0  0  0  0
 26 25  1  0  0  0  0
 27 26  1  0  0  0  0
 28 29  1  6  0  0  0
 28 30  1  0  0  0  0
 28 31  1  0  0  0  0
 30 31  1  0  0  0  0
 31 27  1  1  0  0  0
M  END
>  <MODEL>
4

>  <REMARK>
 VINA RESULT:      -7.3      2.588      7.783
  Name = 
  11 active torsions:
  status: ('A' for Active; 'I' for Inactive)
    1  A    between atoms: C_5  and  C_21
    2  A    between atoms: C_5  and  C_31
    3  A    between atoms: C_6  and  C_7
    4  A    between atoms: C_6  and  C_19
    5  A    between atoms: C_7  and  C_9
    6  A    between atoms: C_9  and  C_23
    7  A    between atoms: C_15  and  C_23
    8  A    between atoms: C_17  and  C_30
    9  A    between atoms: O_18  and  C_31
   10  A    between atoms: C_19  and  C_24
   11  A    between atoms: C_30  and  C_31
                            x       y       z     vdW  Elec       q    Type
                         _______ _______ _______ _____ _____    ______ ____

>  <TORSDO>
F 11

$$$$
=
 OpenBabel10272400393D

 31 34  0  0  1  0  0  0  0  0999 V2000
  183.1760  179.2090  143.6090 C   0  0  1  0  0  3  0  0  0  0  0  0
  185.8590  177.2080  145.4770 C   0  0  0  0  0  2  0  0  0  0  0  0
  185.1930  178.1230  144.4820 C   0  0  0  0  0  0  0  0  0  0  0  0
  183.5080  178.7060  142.1960 C   0  0  0  0  0  2  0  0  0  0  0  0
  187.6360  176.8780  143.7280 C   0  0  2  0  0  3  0  0  0  0  0  0
  181.8000  179.1440  143.8240 O   0  0  0  0  0  1  0  0  0  0  0  0
  187.3050  178.1680  142.9870 C   0  0  0  0  0  2  0  0  0  0  0  0
  187.3520  176.9820  145.2320 C   0  0  1  0  0  3  0  0  0  0  0  0
  183.8940  178.3930  144.6450 C   0  0  0  0  0  3  0  0  0  0  0  0
  185.8670  178.6340  143.2180 C   0  0  1  0  0  3  0  0  0  0  0  0
  184.9960  178.3500  141.9880 C   0  0  0  0  0  2  0  0  0  0  0  0
  188.2400  178.0070  145.9630 C   0  0  1  0  0  3  0  0  0  0  0  0
  187.5220  179.1000  146.4200 F   0  0  0  0  0  0  0  0  0  0  0  0
  189.4490  178.5150  147.9350 O   0  0  0  0  0  1  0  0  0  0  0  0
  189.2100  177.4650  147.0460 C   0  0  1  0  0  0  0  0  0  0  0  0
  187.8310  176.9810  148.7080 O   0  0  0  0  0  1  0  0  0  0  0  0
  188.6010  176.4280  147.7890 O   0  0  0  0  0  0  0  0  0  0  0  0
  190.5740  176.9970  146.4880 C   0  0  0  0  0  2  0  0  0  0  0  0
  191.4140  176.2490  147.4780 C   0  0  0  0  0  3  0  0  0  0  0  0
  192.3180  176.8090  148.0760 O   0  0  0  0  0  0  0  0  0  0  0  0
  188.9970  176.2730  143.3540 C   0  0  0  0  0  2  0  0  0  0  0  0
  191.3960  176.8540  142.7990 C   0  0  0  0  0  2  0  0  0  0  0  0
  189.9390  177.1720  142.5460 C   0  0  0  0  0  0  0  0  0  0  0  0
  190.7940  178.1450  143.3250 C   0  0  0  0  0  2  0  0  0  0  0  0
  189.6550  177.5470  141.0980 C   0  0  0  0  0  2  0  0  0  0  0  0
  190.7310  177.0020  140.1770 C   0  0  0  0  0  2  0  0  0  0  0  0
  190.2740  177.1320  138.7390 C   0  0  0  0  0  2  0  0  0  0  0  0
  188.8920  178.4750  137.2030 C   0  0  2  0  0  3  0  0  0  0  0  0
  188.2780  179.7240  137.1290 O   0  0  0  0  0  1  0  0  0  0  0  0
  187.9740  177.5070  137.9180 C   0  0  0  0  0  2  0  0  0  0  0  0
  189.1390  178.1300  138.6570 C   0  0  1  0  0  3  0  0  0  0  0  0
  1  6  1  1  0  0  0
  1  9  1  0  0  0  0
  3  9  2  0  0  0  0
  3  2  1  0  0  0  0
  4  1  1  0  0  0  0
  5 21  1  1  0  0  0
  5  8  1  0  0  0  0
  7 10  1  0  0  0  0
  7  5  1  0  0  0  0
  8  2  1  0  0  0  0
  8 12  1  6  0  0  0
 10 11  1  6  0  0  0
 10  3  1  0  0  0  0
 11  4  1  0  0  0  0
 12 13  1  1  0  0  0
 12 15  1  0  0  0  0
 15 17  1  0  0  0  0
 15 14  1  1  0  0  0
 17 16  1  0  0  0  0
 18 15  1  0  0  0  0
 18 19  1  0  0  0  0
 19 20  2  0  0  0  0
 22 24  1  0  0  0  0
 23 22  1  0  0  0  0
 23 24  1  0  0  0  0
 23 21  1  0  0  0  0
 25 23  1  0  0  0  0
 26 25  1  0  0  0  0
 27 26  1  0  0  0  0
 28 29  1  1  0  0  0
 28 30  1  0  0  0  0
 28 31  1  0  0  0  0
 30 31  1  0  0  0  0
 31 27  1  6  0  0  0
M  END
>  <MODEL>
5

>  <REMARK>
 VINA RESULT:      -7.2      2.060      6.668
  Name = 
  11 active torsions:
  status: ('A' for Active; 'I' for Inactive)
    1  A    between atoms: C_5  and  C_21
    2  A    between atoms: C_5  and  C_31
    3  A    between atoms: C_6  and  C_7
    4  A    between atoms: C_6  and  C_19
    5  A    between atoms: C_7  and  C_9
    6  A    between atoms: C_9  and  C_23
    7  A    between atoms: C_15  and  C_23
    8  A    between atoms: C_17  and  C_30
    9  A    between atoms: O_18  and  C_31
   10  A    between atoms: C_19  and  C_24
   11  A    between atoms: C_30  and  C_31
                            x       y       z     vdW  Elec       q    Type
                         _______ _______ _______ _____ _____    ______ ____

>  <TORSDO>
F 11

$$$$
=
 OpenBabel10272400393D

 31 34  0  0  1  0  0  0  0  0999 V2000
  184.1640  179.0010  142.9420 C   0  0  1  0  0  3  0  0  0  0  0  0
  187.2890  176.9340  143.7520 C   0  0  0  0  0  2  0  0  0  0  0  0
  186.3830  177.9790  143.1540 C   0  0  0  0  0  0  0  0  0  0  0  0
  184.2560  178.9000  141.4120 C   0  0  0  0  0  2  0  0  0  0  0  0
  188.7200  177.2500  141.7080 C   0  0  2  0  0  3  0  0  0  0  0  0
  182.8630  178.7250  143.3570 O   0  0  0  0  0  1  0  0  0  0  0  0
  188.1630  178.6340  141.3950 C   0  0  0  0  0  2  0  0  0  0  0  0
  188.7200  176.9500  143.2130 C   0  0  1  0  0  3  0  0  0  0  0  0
  185.1220  178.0470  143.5960 C   0  0  0  0  0  3  0  0  0  0  0  0
  186.7650  178.8580  141.9740 C   0  0  1  0  0  3  0  0  0  0  0  0
  185.6990  178.7820  140.8750 C   0  0  0  0  0  2  0  0  0  0  0  0
  189.6560  177.8640  144.0280 C   0  0  1  0  0  3  0  0  0  0  0  0
  188.9660  178.6760  144.9120 F   0  0  0  0  0  0  0  0  0  0  0  0
  191.1860  176.0570  143.9580 O   0  0  0  0  0  1  0  0  0  0  0  0
  190.8880  177.2020  144.6990 C   0  0  1  0  0  0  0  0  0  0  0  0
  191.7480  179.0090  143.7530 O   0  0  0  0  0  1  0  0  0  0  0  0
  192.0180  178.0490  144.6180 O   0  0  0  0  0  0  0  0  0  0  0  0
  190.6470  176.7690  146.1640 C   0  0  0  0  0  2  0  0  0  0  0  0
  191.8430  176.1510  146.8230 C   0  0  0  0  0  3  0  0  0  0  0  0
  192.3180  176.6400  147.8340 O   0  0  0  0  0  0  0  0  0  0  0  0
  190.0240  176.9180  140.9690 C   0  0  0  0  0  2  0  0  0  0  0  0
  190.8790  175.8350  138.8480 C   0  0  0  0  0  2  0  0  0  0  0  0
  189.9420  176.8640  139.4400 C   0  0  0  0  0  0  0  0  0  0  0  0
  191.1610  177.3170  138.6710 C   0  0  0  0  0  2  0  0  0  0  0  0
  188.6150  176.9560  138.6980 C   0  0  0  0  0  2  0  0  0  0  0  0
  188.6370  178.0870  137.6860 C   0  0  0  0  0  2  0  0  0  0  0  0
  187.2190  178.4170  137.2700 C   0  0  0  0  0  2  0  0  0  0  0  0
  184.8770  177.6590  137.3430 C   0  0  2  0  0  3  0  0  0  0  0  0
  184.0340  176.8540  138.1090 O   0  0  0  0  0  1  0  0  0  0  0  0
  185.6050  176.8010  136.3310 C   0  0  0  0  0  2  0  0  0  0  0  0
  186.3130  177.2490  137.5920 C   0  0  1  0  0  3  0  0  0  0  0  0
  1  6  1  1  0  0  0
  1  9  1  0  0  0  0
  3  9  2  0  0  0  0
  3  2  1  0  0  0  0
  4  1  1  0  0  0  0
  5 21  1  1  0  0  0
  5  8  1  0  0  0  0
  7  5  1  0  0  0  0
  7 10  1  0  0  0  0
  8  2  1  0  0  0  0
  8 12  1  1  0  0  0
 10 11  1  6  0  0  0
 10  3  1  0  0  0  0
 11  4  1  0  0  0  0
 12 15  1  0  0  0  0
 12 13  1  1  0  0  0
 15 14  1  6  0  0  0
 15 18  1  0  0  0  0
 16 17  1  0  0  0  0
 17 15  1  0  0  0  0
 18 19  1  0  0  0  0
 19 20  2  0  0  0  0
 22 23  1  0  0  0  0
 23 21  1  0  0  0  0
 24 22  1  0  0  0  0
 24 23  1  0  0  0  0
 25 23  1  0  0  0  0
 26 25  1  0  0  0  0
 27 26  1  0  0  0  0
 28 31  1  0  0  0  0
 28 29  1  1  0  0  0
 30 28  1  0  0  0  0
 30 31  1  0  0  0  0
 31 27  1  6  0  0  0
M  END
>  <MODEL>
6

>  <REMARK>
 VINA RESULT:      -7.0      2.929      6.567
  Name = 
  11 active torsions:
  status: ('A' for Active; 'I' for Inactive)
    1  A    between atoms: C_5  and  C_21
    2  A    between atoms: C_5  and  C_31
    3  A    between atoms: C_6  and  C_7
    4  A    between atoms: C_6  and  C_19
    5  A    between atoms: C_7  and  C_9
    6  A    between atoms: C_9  and  C_23
    7  A    between atoms: C_15  and  C_23
    8  A    between atoms: C_17  and  C_30
    9  A    between atoms: O_18  and  C_31
   10  A    between atoms: C_19  and  C_24
   11  A    between atoms: C_30  and  C_31
                            x       y       z     vdW  Elec       q    Type
                         _______ _______ _______ _____ _____    ______ ____

>  <TORSDO>
F 11

$$$$
=
 OpenBabel10272400393D

 31 34  0  0  1  0  0  0  0  0999 V2000
  191.0520  176.5480  146.5250 C   0  0  1  0  0  3  0  0  0  0  0  0
  188.7120  178.6000  144.2860 C   0  0  0  0  0  2  0  0  0  0  0  0
  189.5190  177.4530  144.8390 C   0  0  0  0  0  0  0  0  0  0  0  0
  191.9820  176.0360  145.4150 C   0  0  0  0  0  2  0  0  0  0  0  0
  188.8880  177.4330  142.0660 C   0  0  2  0  0  3  0  0  0  0  0  0
  191.8080  177.0330  147.5900 O   0  0  0  0  0  1  0  0  0  0  0  0
  189.1790  176.0680  142.6800 C   0  0  0  0  0  2  0  0  0  0  0  0
  187.9990  178.2980  142.9680 C   0  0  1  0  0  3  0  0  0  0  0  0
  190.1500  177.6300  146.0050 C   0  0  0  0  0  3  0  0  0  0  0  0
  189.7870  176.1630  144.0800 C   0  0  1  0  0  3  0  0  0  0  0  0
  191.2890  175.8580  144.0460 C   0  0  0  0  0  2  0  0  0  0  0  0
  186.5810  177.7300  143.1710 C   0  0  1  0  0  3  0  0  0  0  0  0
  186.4250  177.1210  144.4060 F   0  0  0  0  0  0  0  0  0  0  0  0
  185.8190  179.5270  141.8300 O   0  0  0  0  0  1  0  0  0  0  0  0
  185.3860  178.6620  142.8370 C   0  0  1  0  0  0  0  0  0  0  0  0
  183.8620  178.5540  141.2360 O   0  0  0  0  0  1  0  0  0  0  0  0
  184.3060  177.9200  142.3060 O   0  0  0  0  0  0  0  0  0  0  0  0
  184.9110  179.5230  144.0300 C   0  0  0  0  0  2  0  0  0  0  0  0
  183.7330  178.9550  144.7630 C   0  0  0  0  0  3  0  0  0  0  0  0
  183.7720  178.7890  145.9710 O   0  0  0  0  0  0  0  0  0  0  0  0
  188.4750  177.3790  140.5880 C   0  0  0  0  0  2  0  0  0  0  0  0
  190.2860  176.5020  139.0540 C   0  0  0  0  0  2  0  0  0  0  0  0
  189.5640  177.7280  139.5680 C   0  0  0  0  0  0  0  0  0  0  0  0
  190.9960  177.4760  139.9790 C   0  0  0  0  0  2  0  0  0  0  0  0
  189.3570  178.7880  138.4950 C   0  0  0  0  0  2  0  0  0  0  0  0
  189.0880  178.1480  137.1450 C   0  0  0  0  0  2  0  0  0  0  0  0
  187.7740  178.6650  136.5970 C   0  0  0  0  0  2  0  0  0  0  0  0
  185.7480  177.2890  136.3420 C   0  0  2  0  0  3  0  0  0  0  0  0
  184.4650  177.1610  136.8730 O   0  0  0  0  0  1  0  0  0  0  0  0
  186.7240  176.5120  137.1980 C   0  0  0  0  0  2  0  0  0  0  0  0
  186.6260  178.0160  137.3380 C   0  0  1  0  0  3  0  0  0  0  0  0
  1  6  1  1  0  0  0
  2  3  1  0  0  0  0
  3  9  2  0  0  0  0
  4  1  1  0  0  0  0
  5 21  1  6  0  0  0
  5  7  1  0  0  0  0
  5  8  1  0  0  0  0
  8 12  1  1  0  0  0
  8  2  1  0  0  0  0
  9  1  1  0  0  0  0
 10  7  1  6  0  0  0
 10  3  1  0  0  0  0
 11 10  1  0  0  0  0
 11  4  1  0  0  0  0
 12 13  1  1  0  0  0
 15 14  1  6  0  0  0
 15 12  1  0  0  0  0
 15 18  1  0  0  0  0
 16 17  1  0  0  0  0
 17 15  1  0  0  0  0
 18 19  1  0  0  0  0
 19 20  2  0  0  0  0
 22 23  1  0  0  0  0
 22 24  1  0  0  0  0
 23 24  1  0  0  0  0
 23 21  1  0  0  0  0
 25 23  1  0  0  0  0
 26 25  1  0  0  0  0
 27 26  1  0  0  0  0
 28 29  1  1  0  0  0
 28 30  1  0  0  0  0
 28 31  1  0  0  0  0
 30 31  1  0  0  0  0
 31 27  1  6  0  0  0
M  END
>  <MODEL>
7

>  <REMARK>
 VINA RESULT:      -6.9      2.629      7.284
  Name = 
  11 active torsions:
  status: ('A' for Active; 'I' for Inactive)
    1  A    between atoms: C_5  and  C_21
    2  A    between atoms: C_5  and  C_31
    3  A    between atoms: C_6  and  C_7
    4  A    between atoms: C_6  and  C_19
    5  A    between atoms: C_7  and  C_9
    6  A    between atoms: C_9  and  C_23
    7  A    between atoms: C_15  and  C_23
    8  A    between atoms: C_17  and  C_30
    9  A    between atoms: O_18  and  C_31
   10  A    between atoms: C_19  and  C_24
   11  A    between atoms: C_30  and  C_31
                            x       y       z     vdW  Elec       q    Type
                         _______ _______ _______ _____ _____    ______ ____

>  <TORSDO>
F 11

$$$$
=
 OpenBabel10272400393D

 31 34  0  0  1  0  0  0  0  0999 V2000
  192.3550  177.1040  140.6810 C   0  0  1  0  0  3  0  0  0  0  0  0
  190.3990  178.4260  143.7010 C   0  0  0  0  0  2  0  0  0  0  0  0
  190.7920  177.5990  142.5040 C   0  0  0  0  0  0  0  0  0  0  0  0
  191.1990  177.1420  139.6700 C   0  0  0  0  0  2  0  0  0  0  0  0
  188.0350  177.7400  143.1870 C   0  0  2  0  0  3  0  0  0  0  0  0
  193.4940  177.6800  140.1200 O   0  0  0  0  0  1  0  0  0  0  0  0
  188.4480  176.5110  142.3840 C   0  0  0  0  0  2  0  0  0  0  0  0
  189.0380  178.0700  144.3000 C   0  0  1  0  0  3  0  0  0  0  0  0
  191.9830  177.8310  141.9410 C   0  0  0  0  0  3  0  0  0  0  0  0
  189.8580  176.6250  141.8020 C   0  0  1  0  0  3  0  0  0  0  0  0
  189.8070  176.9140  140.2980 C   0  0  0  0  0  2  0  0  0  0  0  0
  189.1290  176.9890  145.3940 C   0  0  1  0  0  3  0  0  0  0  0  0
  190.4200  176.5150  145.5640 F   0  0  0  0  0  0  0  0  0  0  0  0
  188.7220  176.2120  147.5940 O   0  0  0  0  0  1  0  0  0  0  0  0
  188.4460  177.2930  146.7540 C   0  0  1  0  0  0  0  0  0  0  0  0
  189.5950  178.0630  148.4810 O   0  0  0  0  0  1  0  0  0  0  0  0
  189.0160  178.4380  147.3560 O   0  0  0  0  0  0  0  0  0  0  0  0
  186.9100  177.4430  146.6640 C   0  0  0  0  0  2  0  0  0  0  0  0
  186.3820  178.7020  147.2810 C   0  0  0  0  0  3  0  0  0  0  0  0
  185.3610  179.2210  146.8600 O   0  0  0  0  0  0  0  0  0  0  0  0
  186.5580  177.7460  143.6050 C   0  0  0  0  0  2  0  0  0  0  0  0
  184.8880  179.6190  143.2790 C   0  0  0  0  0  2  0  0  0  0  0  0
  185.5840  178.4350  142.6430 C   0  0  0  0  0  0  0  0  0  0  0  0
  184.1130  178.3470  142.9770 C   0  0  0  0  0  2  0  0  0  0  0  0
  185.9210  178.6620  141.1760 C   0  0  0  0  0  2  0  0  0  0  0  0
  184.6590  178.8480  140.3530 C   0  0  0  0  0  2  0  0  0  0  0  0
  185.0060  178.7850  138.8800 C   0  0  0  0  0  2  0  0  0  0  0  0
  186.3760  177.2050  137.5780 C   0  0  2  0  0  3  0  0  0  0  0  0
  187.4260  176.3050  137.7490 O   0  0  0  0  0  1  0  0  0  0  0  0
  186.9360  178.5920  137.3520 C   0  0  0  0  0  2  0  0  0  0  0  0
  186.3950  178.2080  138.7120 C   0  0  1  0  0  3  0  0  0  0  0  0
  1  6  1  6  0  0  0
  1  9  1  0  0  0  0
  2  8  1  0  0  0  0
  3  2  1  0  0  0  0
  4 11  1  0  0  0  0
  4  1  1  0  0  0  0
  5 21  1  1  0  0  0
  5  8  1  0  0  0  0
  7  5  1  0  0  0  0
  8 12  1  1  0  0  0
  9  3  2  0  0  0  0
 10 11  1  6  0  0  0
 10  7  1  0  0  0  0
 10  3  1  0  0  0  0
 12 13  1  1  0  0  0
 12 15  1  0  0  0  0
 15 17  1  0  0  0  0
 15 14  1  1  0  0  0
 17 16  1  0  0  0  0
 18 15  1  0  0  0  0
 18 19  1  0  0  0  0
 20 19  2  0  0  0  0
 23 24  1  0  0  0  0
 23 22  1  0  0  0  0
 23 21  1  0  0  0  0
 24 22  1  0  0  0  0
 25 23  1  0  0  0  0
 26 25  1  0  0  0  0
 27 26  1  0  0  0  0
 28 29  1  1  0  0  0
 28 31  1  0  0  0  0
 30 28  1  0  0  0  0
 30 31  1  0  0  0  0
 31 27  1  6  0  0  0
M  END
>  <MODEL>
8

>  <REMARK>
 VINA RESULT:      -6.8      2.322      8.015
  Name = 
  11 active torsions:
  status: ('A' for Active; 'I' for Inactive)
    1  A    between atoms: C_5  and  C_21
    2  A    between atoms: C_5  and  C_31
    3  A    between atoms: C_6  and  C_7
    4  A    between atoms: C_6  and  C_19
    5  A    between atoms: C_7  and  C_9
    6  A    between atoms: C_9  and  C_23
    7  A    between atoms: C_15  and  C_23
    8  A    between atoms: C_17  and  C_30
    9  A    between atoms: O_18  and  C_31
   10  A    between atoms: C_19  and  C_24
   11  A    between atoms: C_30  and  C_31
                            x       y       z     vdW  Elec       q    Type
                         _______ _______ _______ _____ _____    ______ ____

>  <TORSDO>
F 11

$$$$
=
 OpenBabel10272400393D

 31 34  0  0  1  0  0  0  0  0999 V2000
  183.4930  179.4920  139.5830 C   0  0  1  0  0  3  0  0  0  0  0  0
  184.3020  178.0380  143.0370 C   0  0  0  0  0  2  0  0  0  0  0  0
  184.4560  178.7220  141.7020 C   0  0  0  0  0  0  0  0  0  0  0  0
  184.6160  178.7870  138.8090 C   0  0  0  0  0  2  0  0  0  0  0  0
  186.7650  177.5560  142.8830 C   0  0  2  0  0  3  0  0  0  0  0  0
  182.2880  179.3600  138.8950 O   0  0  0  0  0  1  0  0  0  0  0  0
  187.0360  178.6760  141.8850 C   0  0  0  0  0  2  0  0  0  0  0  0
  185.6030  177.8870  143.8270 C   0  0  1  0  0  3  0  0  0  0  0  0
  183.3580  178.9170  140.9640 C   0  0  0  0  0  3  0  0  0  0  0  0
  185.7980  179.0650  141.0750 C   0  0  1  0  0  3  0  0  0  0  0  0
  185.8840  178.5150  139.6470 C   0  0  0  0  0  2  0  0  0  0  0  0
  185.8800  179.0840  144.7570 C   0  0  1  0  0  3  0  0  0  0  0  0
  185.0610  180.1680  144.4850 F   0  0  0  0  0  0  0  0  0  0  0  0
  185.9670  180.0370  146.9240 O   0  0  0  0  0  1  0  0  0  0  0  0
  185.9650  178.7980  146.2790 C   0  0  1  0  0  0  0  0  0  0  0  0
  183.7530  178.7910  146.3460 O   0  0  0  0  0  1  0  0  0  0  0  0
  184.8160  178.1050  146.7240 O   0  0  0  0  0  0  0  0  0  0  0  0
  187.2450  178.0410  146.7040 C   0  0  0  0  0  2  0  0  0  0  0  0
  187.4890  178.0370  148.1830 C   0  0  0  0  0  3  0  0  0  0  0  0
  188.4420  177.4370  148.6550 O   0  0  0  0  0  0  0  0  0  0  0  0
  188.0270  177.0020  143.5590 C   0  0  0  0  0  2  0  0  0  0  0  0
  190.5420  176.7230  143.5820 C   0  0  0  0  0  2  0  0  0  0  0  0
  189.3350  177.1430  142.7720 C   0  0  0  0  0  0  0  0  0  0  0  0
  190.3140  178.1890  143.2530 C   0  0  0  0  0  2  0  0  0  0  0  0
  189.4420  176.7570  141.3040 C   0  0  0  0  0  2  0  0  0  0  0  0
  190.7520  177.2400  140.7100 C   0  0  0  0  0  2  0  0  0  0  0  0
  190.6180  177.3350  139.2050 C   0  0  0  0  0  2  0  0  0  0  0  0
  189.3600  178.5350  137.4590 C   0  0  2  0  0  3  0  0  0  0  0  0
  188.3970  179.5330  137.3280 O   0  0  0  0  0  1  0  0  0  0  0  0
  188.6760  177.2040  137.6840 C   0  0  0  0  0  2  0  0  0  0  0  0
  189.2810  177.9500  138.8540 C   0  0  1  0  0  3  0  0  0  0  0  0
  1  6  1  6  0  0  0
  1  9  1  0  0  0  0
  2  8  1  0  0  0  0
  3  2  1  0  0  0  0
  4  1  1  0  0  0  0
  4 11  1  0  0  0  0
  5 21  1  1  0  0  0
  5  8  1  0  0  0  0
  7  5  1  0  0  0  0
  8 12  1  6  0  0  0
  9  3  2  0  0  0  0
 10 11  1  6  0  0  0
 10  3  1  0  0  0  0
 10  7  1  0  0  0  0
 12 13  1  1  0  0  0
 12 15  1  0  0  0  0
 15 18  1  0  0  0  0
 15 17  1  0  0  0  0
 15 14  1  1  0  0  0
 16 17  1  0  0  0  0
 18 19  1  0  0  0  0
 19 20  2  0  0  0  0
 23 24  1  0  0  0  0
 23 21  1  0  0  0  0
 23 22  1  0  0  0  0
 24 22  1  0  0  0  0
 25 23  1  0  0  0  0
 26 25  1  0  0  0  0
 27 26  1  0  0  0  0
 28 29  1  1  0  0  0
 28 30  1  0  0  0  0
 28 31  1  0  0  0  0
 30 31  1  0  0  0  0
 31 27  1  6  0  0  0
M  END
>  <MODEL>
9

>  <REMARK>
 VINA RESULT:      -6.7      2.173      6.802
  Name = 
  11 active torsions:
  status: ('A' for Active; 'I' for Inactive)
    1  A    between atoms: C_5  and  C_21
    2  A    between atoms: C_5  and  C_31
    3  A    between atoms: C_6  and  C_7
    4  A    between atoms: C_6  and  C_19
    5  A    between atoms: C_7  and  C_9
    6  A    between atoms: C_9  and  C_23
    7  A    between atoms: C_15  and  C_23
    8  A    between atoms: C_17  and  C_30
    9  A    between atoms: O_18  and  C_31
   10  A    between atoms: C_19  and  C_24
   11  A    between atoms: C_30  and  C_31
                            x       y       z     vdW  Elec       q    Type
                         _______ _______ _______ _____ _____    ______ ____

>  <TORSDO>
F 11

$$$$
