=
 OpenBabel10272414103D

 43 49  0  0  1  0  0  0  0  0999 V2000
  191.0490  176.5260  146.7760 C   0  0  0  0  0  0  0  0  0  0  0  0
  189.2440  177.5980  142.1730 C   0  0  2  0  0  3  0  0  0  0  0  0
  186.6230  178.0980  142.3140 N   0  0  0  0  0  0  0  0  0  0  0  0
  190.8860  177.1720  144.4480 C   0  0  0  0  0  0  0  0  0  0  0  0
  189.7290  176.9390  146.9870 C   0  0  0  0  0  3  0  0  0  0  0  0
  191.8030  175.9790  147.8520 N   0  0  0  0  0  1  0  0  0  0  0  0
  189.5480  177.5800  144.6530 C   0  0  0  0  0  0  0  0  0  0  0  0
  191.6310  176.6510  145.5100 C   0  0  0  0  0  3  0  0  0  0  0  0
  188.9860  177.4760  145.9310 C   0  0  0  0  0  3  0  0  0  0  0  0
  187.2780  178.2020  143.6330 C   0  0  0  0  0  2  0  0  0  0  0  0
  188.8120  178.2280  143.5060 C   0  0  2  0  0  3  0  0  0  0  0  0
  190.7400  177.5650  142.0390 C   0  0  0  0  0  3  0  0  0  0  0  0
  188.5540  178.2900  140.9920 C   0  0  2  0  0  3  0  0  0  0  0  0
  187.3100  178.9500  141.4210 N   0  0  0  0  0  2  0  0  0  0  0  0
  191.5000  177.3150  143.1110 C   0  0  0  0  0  3  0  0  0  0  0  0
  185.2420  178.5800  142.4280 C   0  0  2  0  0  3  0  0  0  0  0  0
  184.7580  178.4730  143.8690 C   0  0  0  0  0  1  0  0  0  0  0  0
  184.3160  177.7370  141.5590 C   0  0  0  0  0  2  0  0  0  0  0  0
  182.2980  177.6680  140.3520 C   0  0  0  0  0  2  0  0  0  0  0  0
  182.6150  177.6550  138.8720 C   0  0  1  0  0  3  0  0  0  0  0  0
  185.8060  178.8240  137.7910 O   0  0  0  0  0  0  0  0  0  0  0  0
  183.2340  178.5560  141.0330 N   0  0  0  0  0  0  0  0  0  0  0  0
  183.5420  178.8400  138.6410 C   0  0  1  0  0  3  0  0  0  0  0  0
  183.8100  179.4290  140.0150 C   0  0  0  0  0  2  0  0  0  0  0  0
  183.4110  176.3850  138.5180 C   0  0  2  0  0  3  0  0  0  0  0  0
  184.6660  176.8290  138.0400 O   0  0  0  0  0  0  0  0  0  0  0  0
  184.7650  178.1980  138.1160 C   0  0  0  0  0  0  0  0  0  0  0  0
  181.7580  176.2290  136.5370 C   0  0  0  0  0  3  0  0  0  0  0  0
  182.7080  175.5870  137.4670 C   0  0  0  0  0  0  0  0  0  0  0  0
  182.7600  172.1340  136.1210 C   0  0  0  0  0  1  0  0  0  0  0  0
  181.1800  174.0100  135.5950 C   0  0  0  0  0  2  0  0  0  0  0  0
  182.3680  173.5210  136.3000 N   0  0  0  0  0  0  0  0  0  0  0  0
  181.0710  175.5090  135.6470 C   0  0  0  0  0  3  0  0  0  0  0  0
  183.0050  174.2970  137.3210 C   0  0  0  0  0  3  0  0  0  0  0  0
  188.2550  177.2630  139.9050 C   0  0  0  0  0  2  0  0  0  0  0  0
  189.4890  178.6370  136.6130 N   0  0  0  0  0  2  0  0  0  0  0  0
  188.5990  177.4710  135.6920 S   0  0  0  0  0  0  0  0  0  0  0  0
  187.3370  178.0900  135.1640 O   0  0  0  0  0  0  0  0  0  0  0  0
  189.2340  176.0990  137.9010 C   0  0  0  0  0  2  0  0  0  0  0  0
  188.8990  178.6620  137.9470 C   0  0  0  0  0  2  0  0  0  0  0  0
  189.2300  177.3890  138.7430 C   0  0  1  0  0  3  0  0  0  0  0  0
  189.4410  176.9830  134.5490 O   0  0  0  0  0  0  0  0  0  0  0  0
  188.2050  176.1160  136.7770 C   0  0  0  0  0  2  0  0  0  0  0  0
  1  5  1  0  0  0  0
  1  6  1  0  0  0  0
  2 12  1  6  0  0  0
  2 11  1  0  0  0  0
  3 16  1  0  0  0  0
  3 10  1  0  0  0  0
  4  7  2  0  0  0  0
  4  8  1  0  0  0  0
  7  9  1  0  0  0  0
  8  1  2  0  0  0  0
  9  5  2  0  0  0  0
 11 10  1  1  0  0  0
 11  7  1  0  0  0  0
 12 15  2  0  0  0  0
 13 35  1  6  0  0  0
 13 14  1  0  0  0  0
 13  2  1  0  0  0  0
 14  3  1  0  0  0  0
 15  4  1  0  0  0  0
 16 17  1  1  0  0  0
 18 16  1  0  0  0  0
 19 22  1  0  0  0  0
 20 19  1  1  0  0  0
 21 27  2  0  0  0  0
 22 18  1  0  0  0  0
 23 20  1  0  0  0  0
 23 24  1  1  0  0  0
 24 22  1  0  0  0  0
 25 29  1  6  0  0  0
 25 20  1  0  0  0  0
 26 27  1  0  0  0  0
 26 25  1  0  0  0  0
 27 23  1  0  0  0  0
 28 29  1  0  0  0  0
 30 32  1  0  0  0  0
 31 33  1  0  0  0  0
 31 32  1  0  0  0  0
 32 34  1  0  0  0  0
 33 28  2  0  0  0  0
 34 29  2  0  0  0  0
 36 40  1  0  0  0  0
 37 36  1  0  0  0  0
 37 43  1  0  0  0  0
 38 37  2  0  0  0  0
 39 41  1  0  0  0  0
 40 41  1  0  0  0  0
 41 35  1  1  0  0  0
 42 37  2  0  0  0  0
 43 39  1  0  0  0  0
M  END
>  <MODEL>
1

>  <REMARK>
 VINA RESULT:      -8.9      0.000      0.000
  Name = 
  6 active torsions:
  status: ('A' for Active; 'I' for Inactive)
    1  A    between atoms: C_1  and  C_34
    2  A    between atoms: C_1  and  C_35
    3  A    between atoms: C_2  and  C_6
    4  A    between atoms: C_2  and  N_13
    5  A    between atoms: C_6  and  N_12
    6  A    between atoms: C_14  and  C_22
                            x       y       z     vdW  Elec       q    Type
                         _______ _______ _______ _____ _____    ______ ____

>  <TORSDO>
F 6

$$$$
=
 OpenBabel10272414103D

 43 49  0  0  1  0  0  0  0  0999 V2000
  190.8790  176.9570  146.3010 C   0  0  0  0  0  0  0  0  0  0  0  0
  187.5140  177.9840  142.6660 C   0  0  2  0  0  3  0  0  0  0  0  0
  188.7470  178.1610  140.3030 N   0  0  0  0  0  0  0  0  0  0  0  0
  188.8120  177.1880  145.0600 C   0  0  0  0  0  0  0  0  0  0  0  0
  191.5920  176.8540  145.1010 C   0  0  0  0  0  3  0  0  0  0  0  0
  191.5690  176.9000  147.5440 N   0  0  0  0  0  1  0  0  0  0  0  0
  189.5290  177.0960  143.8450 C   0  0  0  0  0  0  0  0  0  0  0  0
  189.4900  177.1140  146.2810 C   0  0  0  0  0  3  0  0  0  0  0  0
  190.9170  176.9100  143.8780 C   0  0  0  0  0  3  0  0  0  0  0  0
  189.5710  177.4580  141.3060 C   0  0  0  0  0  2  0  0  0  0  0  0
  188.7500  177.0800  142.5530 C   0  0  2  0  0  3  0  0  0  0  0  0
  186.7150  177.6710  143.9000 C   0  0  0  0  0  3  0  0  0  0  0  0
  186.6750  177.9270  141.3840 C   0  0  2  0  0  3  0  0  0  0  0  0
  187.4960  177.5080  140.2360 N   0  0  0  0  0  2  0  0  0  0  0  0
  187.3430  177.3450  145.0350 C   0  0  0  0  0  3  0  0  0  0  0  0
  189.3910  178.0430  138.9900 C   0  0  2  0  0  3  0  0  0  0  0  0
  188.9510  179.1820  138.0780 C   0  0  0  0  0  1  0  0  0  0  0  0
  188.9970  176.7300  138.3240 C   0  0  0  0  0  2  0  0  0  0  0  0
  187.6860  176.1990  136.4450 C   0  0  0  0  0  2  0  0  0  0  0  0
  188.0790  174.8260  135.9470 C   0  0  1  0  0  3  0  0  0  0  0  0
  191.2670  173.5160  136.8680 O   0  0  0  0  0  0  0  0  0  0  0  0
  188.8810  176.9090  136.8840 N   0  0  0  0  0  0  0  0  0  0  0  0
  189.5900  174.8710  135.7700 C   0  0  1  0  0  3  0  0  0  0  0  0
  190.0240  176.2370  136.2740 C   0  0  0  0  0  2  0  0  0  0  0  0
  187.7850  173.7710  137.0310 C   0  0  2  0  0  3  0  0  0  0  0  0
  189.0340  173.2040  137.3770 O   0  0  0  0  0  0  0  0  0  0  0  0
  190.0580  173.8170  136.6950 C   0  0  0  0  0  0  0  0  0  0  0  0
  187.3580  171.6300  135.6480 C   0  0  0  0  0  3  0  0  0  0  0  0
  186.8600  172.7150  136.5160 C   0  0  0  0  0  0  0  0  0  0  0  0
  183.3290  171.6790  136.9550 C   0  0  0  0  0  1  0  0  0  0  0  0
  185.0380  170.8160  135.3350 C   0  0  0  0  0  2  0  0  0  0  0  0
  184.6920  171.6940  136.4560 N   0  0  0  0  0  0  0  0  0  0  0  0
  186.5240  170.7290  135.1250 C   0  0  0  0  0  3  0  0  0  0  0  0
  185.5880  172.7140  136.9110 C   0  0  0  0  0  3  0  0  0  0  0  0
  186.0620  179.2980  141.1170 C   0  0  0  0  0  2  0  0  0  0  0  0
  182.8150  177.4550  140.5620 N   0  0  0  0  0  2  0  0  0  0  0  0
  183.1590  177.1730  138.8890 S   0  0  0  0  0  0  0  0  0  0  0  0
  183.6690  175.7730  138.6990 O   0  0  0  0  0  0  0  0  0  0  0  0
  184.3170  179.5470  139.3230 C   0  0  0  0  0  2  0  0  0  0  0  0
  184.0820  177.7890  141.2040 C   0  0  0  0  0  2  0  0  0  0  0  0
  184.5780  179.1860  140.7970 C   0  0  1  0  0  3  0  0  0  0  0  0
  181.9120  177.3730  138.0770 O   0  0  0  0  0  0  0  0  0  0  0  0
  184.4030  178.3450  138.3900 C   0  0  0  0  0  2  0  0  0  0  0  0
  1  6  1  0  0  0  0
  2 12  1  1  0  0  0
  3 10  1  0  0  0  0
  4  8  2  0  0  0  0
  5  1  2  0  0  0  0
  7  9  2  0  0  0  0
  7  4  1  0  0  0  0
  8  1  1  0  0  0  0
  9  5  1  0  0  0  0
 11 10  1  6  0  0  0
 11  2  1  0  0  0  0
 11  7  1  0  0  0  0
 12 15  2  0  0  0  0
 13 35  1  6  0  0  0
 13  2  1  0  0  0  0
 14  3  1  0  0  0  0
 14 13  1  0  0  0  0
 15  4  1  0  0  0  0
 16 17  1  6  0  0  0
 16  3  1  0  0  0  0
 18 16  1  0  0  0  0
 19 22  1  0  0  0  0
 20 19  1  1  0  0  0
 20 25  1  0  0  0  0
 22 18  1  0  0  0  0
 23 20  1  0  0  0  0
 23 24  1  1  0  0  0
 23 27  1  0  0  0  0
 24 22  1  0  0  0  0
 25 29  1  6  0  0  0
 25 26  1  0  0  0  0
 27 21  2  0  0  0  0
 27 26  1  0  0  0  0
 28 29  1  0  0  0  0
 29 34  2  0  0  0  0
 31 32  1  0  0  0  0
 32 34  1  0  0  0  0
 32 30  1  0  0  0  0
 33 31  1  0  0  0  0
 33 28  2  0  0  0  0
 36 40  1  0  0  0  0
 37 36  1  0  0  0  0
 38 37  2  0  0  0  0
 39 41  1  0  0  0  0
 41 35  1  6  0  0  0
 41 40  1  0  0  0  0
 42 37  2  0  0  0  0
 43 37  1  0  0  0  0
 43 39  1  0  0  0  0
M  END
>  <MODEL>
2

>  <REMARK>
 VINA RESULT:      -8.8      2.356      5.206
  Name = 
  6 active torsions:
  status: ('A' for Active; 'I' for Inactive)
    1  A    between atoms: C_1  and  C_34
    2  A    between atoms: C_1  and  C_35
    3  A    between atoms: C_2  and  C_6
    4  A    between atoms: C_2  and  N_13
    5  A    between atoms: C_6  and  N_12
    6  A    between atoms: C_14  and  C_22
                            x       y       z     vdW  Elec       q    Type
                         _______ _______ _______ _____ _____    ______ ____

>  <TORSDO>
F 6

$$$$
=
 OpenBabel10272414103D

 43 49  0  0  1  0  0  0  0  0999 V2000
  194.2260  174.6470  135.9180 C   0  0  0  0  0  0  0  0  0  0  0  0
  189.6300  176.6190  136.6870 C   0  0  2  0  0  3  0  0  0  0  0  0
  189.2020  176.9410  139.3040 N   0  0  0  0  0  0  0  0  0  0  0  0
  192.1120  175.7840  135.5930 C   0  0  0  0  0  0  0  0  0  0  0  0
  194.1740  174.9350  137.2860 C   0  0  0  0  0  3  0  0  0  0  0  0
  195.3230  173.9140  135.3870 N   0  0  0  0  0  1  0  0  0  0  0  0
  192.0500  176.0670  136.9760 C   0  0  0  0  0  0  0  0  0  0  0  0
  193.2010  175.0790  135.0700 C   0  0  0  0  0  3  0  0  0  0  0  0
  193.0960  175.6540  137.8110 C   0  0  0  0  0  3  0  0  0  0  0  0
  190.6360  176.7830  138.9930 C   0  0  0  0  0  2  0  0  0  0  0  0
  190.9090  176.9150  137.4840 C   0  0  2  0  0  3  0  0  0  0  0  0
  189.8760  176.6930  135.2060 C   0  0  0  0  0  3  0  0  0  0  0  0
  188.4780  177.5200  137.1460 C   0  0  2  0  0  3  0  0  0  0  0  0
  188.7020  178.0040  138.5180 N   0  0  0  0  0  2  0  0  0  0  0  0
  191.0320  176.2500  134.6990 C   0  0  0  0  0  3  0  0  0  0  0  0
  189.0570  177.3140  140.7150 C   0  0  2  0  0  3  0  0  0  0  0  0
  188.6680  178.7820  140.8410 C   0  0  0  0  0  1  0  0  0  0  0  0
  190.3760  177.1140  141.4530 C   0  0  0  0  0  2  0  0  0  0  0  0
  189.0040  175.8720  142.9040 C   0  0  0  0  0  2  0  0  0  0  0  0
  189.1010  176.4640  144.2930 C   0  0  1  0  0  3  0  0  0  0  0  0
  191.9260  178.4870  145.1020 O   0  0  0  0  0  0  0  0  0  0  0  0
  190.3180  175.9140  142.2730 N   0  0  0  0  0  0  0  0  0  0  0  0
  190.5890  176.5320  144.6060 C   0  0  1  0  0  3  0  0  0  0  0  0
  191.2980  176.0760  143.3430 C   0  0  0  0  0  2  0  0  0  0  0  0
  188.5770  177.9120  144.2840 C   0  0  2  0  0  3  0  0  0  0  0  0
  189.6720  178.7290  144.6500 O   0  0  0  0  0  0  0  0  0  0  0  0
  190.8110  177.9780  144.8180 C   0  0  0  0  0  0  0  0  0  0  0  0
  187.7070  178.0970  146.7110 C   0  0  0  0  0  3  0  0  0  0  0  0
  187.4540  178.0820  145.2570 C   0  0  0  0  0  0  0  0  0  0  0  0
  183.8200  178.8040  145.1850 C   0  0  0  0  0  1  0  0  0  0  0  0
  185.2660  178.1770  147.1350 C   0  0  0  0  0  2  0  0  0  0  0  0
  185.1380  178.5000  145.7120 N   0  0  0  0  0  0  0  0  0  0  0  0
  186.7020  178.1730  147.5850 C   0  0  0  0  0  3  0  0  0  0  0  0
  186.2230  178.3020  144.7980 C   0  0  0  0  0  3  0  0  0  0  0  0
  187.1670  176.7450  137.0700 C   0  0  0  0  0  2  0  0  0  0  0  0
  184.2070  178.6460  138.4390 N   0  0  0  0  0  2  0  0  0  0  0  0
  183.1270  177.3140  138.1950 S   0  0  0  0  0  0  0  0  0  0  0  0
  182.9100  176.5850  139.4900 O   0  0  0  0  0  0  0  0  0  0  0  0
  184.8420  177.0470  136.1580 C   0  0  0  0  0  2  0  0  0  0  0  0
  185.5610  178.1040  138.4040 C   0  0  0  0  0  2  0  0  0  0  0  0
  185.9740  177.6860  136.9840 C   0  0  1  0  0  3  0  0  0  0  0  0
  181.8140  177.8200  137.6710 O   0  0  0  0  0  0  0  0  0  0  0  0
  183.8760  176.2250  137.0030 C   0  0  0  0  0  2  0  0  0  0  0  0
  1  5  1  0  0  0  0
  2 12  1  6  0  0  0
  2 13  1  0  0  0  0
  2 11  1  0  0  0  0
  3 16  1  0  0  0  0
  4  7  2  0  0  0  0
  5  9  2  0  0  0  0
  6  1  1  0  0  0  0
  7 11  1  0  0  0  0
  7  9  1  0  0  0  0
  8  4  1  0  0  0  0
  8  1  2  0  0  0  0
 10  3  1  0  0  0  0
 11 10  1  1  0  0  0
 13 35  1  1  0  0  0
 13 14  1  0  0  0  0
 14  3  1  0  0  0  0
 15 12  2  0  0  0  0
 15  4  1  0  0  0  0
 16 17  1  6  0  0  0
 16 18  1  0  0  0  0
 18 22  1  0  0  0  0
 20 19  1  6  0  0  0
 20 23  1  0  0  0  0
 22 19  1  0  0  0  0
 22 24  1  0  0  0  0
 23 24  1  6  0  0  0
 23 27  1  0  0  0  0
 25 20  1  0  0  0  0
 25 26  1  0  0  0  0
 25 29  1  1  0  0  0
 26 27  1  0  0  0  0
 27 21  2  0  0  0  0
 28 33  2  0  0  0  0
 29 28  1  0  0  0  0
 30 32  1  0  0  0  0
 31 33  1  0  0  0  0
 32 31  1  0  0  0  0
 34 29  2  0  0  0  0
 34 32  1  0  0  0  0
 37 36  1  0  0  0  0
 37 38  2  0  0  0  0
 39 41  1  0  0  0  0
 39 43  1  0  0  0  0
 40 36  1  0  0  0  0
 41 35  1  1  0  0  0
 41 40  1  0  0  0  0
 42 37  2  0  0  0  0
 43 37  1  0  0  0  0
M  END
>  <MODEL>
3

>  <REMARK>
 VINA RESULT:      -8.7      3.469      8.285
  Name = 
  6 active torsions:
  status: ('A' for Active; 'I' for Inactive)
    1  A    between atoms: C_1  and  C_34
    2  A    between atoms: C_1  and  C_35
    3  A    between atoms: C_2  and  C_6
    4  A    between atoms: C_2  and  N_13
    5  A    between atoms: C_6  and  N_12
    6  A    between atoms: C_14  and  C_22
                            x       y       z     vdW  Elec       q    Type
                         _______ _______ _______ _____ _____    ______ ____

>  <TORSDO>
F 6

$$$$
=
 OpenBabel10272414103D

 43 49  0  0  1  0  0  0  0  0999 V2000
  188.0300  177.5540  144.8680 C   0  0  0  0  0  0  0  0  0  0  0  0
  190.3600  177.0390  140.4070 C   0  0  2  0  0  3  0  0  0  0  0  0
  188.5550  176.9450  138.4400 N   0  0  0  0  0  0  0  0  0  0  0  0
  189.7040  177.5630  143.1170 C   0  0  0  0  0  0  0  0  0  0  0  0
  187.0210  177.6920  143.9090 C   0  0  0  0  0  3  0  0  0  0  0  0
  187.6920  177.4700  146.2480 N   0  0  0  0  0  1  0  0  0  0  0  0
  188.6870  177.6910  142.1440 C   0  0  0  0  0  0  0  0  0  0  0  0
  189.3710  177.5000  144.4740 C   0  0  0  0  0  3  0  0  0  0  0  0
  187.3500  177.7730  142.5520 C   0  0  0  0  0  3  0  0  0  0  0  0
  187.9920  177.5120  139.6810 C   0  0  0  0  0  2  0  0  0  0  0  0
  189.0930  177.8570  140.7000 C   0  0  2  0  0  3  0  0  0  0  0  0
  191.4400  177.3180  141.4140 C   0  0  0  0  0  3  0  0  0  0  0  0
  190.8250  177.2490  138.9610 C   0  0  2  0  0  3  0  0  0  0  0  0
  189.7090  177.6900  138.1080 N   0  0  0  0  0  2  0  0  0  0  0  0
  191.1190  177.5160  142.6980 C   0  0  0  0  0  3  0  0  0  0  0  0
  187.5820  177.1100  137.3550 C   0  0  2  0  0  3  0  0  0  0  0  0
  187.7430  178.4750  136.6970 C   0  0  0  0  0  1  0  0  0  0  0  0
  186.1610  177.0190  137.9010 C   0  0  0  0  0  2  0  0  0  0  0  0
  184.9010  178.9210  138.4720 C   0  0  0  0  0  2  0  0  0  0  0  0
  183.5190  178.4800  138.9030 C   0  0  1  0  0  3  0  0  0  0  0  0
  182.3480  175.2680  137.8850 O   0  0  0  0  0  0  0  0  0  0  0  0
  185.3410  178.0910  137.3570 N   0  0  0  0  0  0  0  0  0  0  0  0
  183.0020  177.5950  137.7780 C   0  0  1  0  0  3  0  0  0  0  0  0
  184.1470  177.4730  136.7880 C   0  0  0  0  0  2  0  0  0  0  0  0
  183.6210  177.5960  140.1610 C   0  0  2  0  0  3  0  0  0  0  0  0
  183.1150  176.3280  139.7910 O   0  0  0  0  0  0  0  0  0  0  0  0
  182.7790  176.3020  138.4590 C   0  0  0  0  0  0  0  0  0  0  0  0
  181.3630  178.3820  141.1440 C   0  0  0  0  0  3  0  0  0  0  0  0
  182.8170  178.1670  141.2850 C   0  0  0  0  0  0  0  0  0  0  0  0
  183.3120  179.1220  144.8310 C   0  0  0  0  0  1  0  0  0  0  0  0
  181.3110  179.4830  143.3640 C   0  0  0  0  0  2  0  0  0  0  0  0
  182.6540  178.9280  143.5520 N   0  0  0  0  0  0  0  0  0  0  0  0
  180.6550  178.9610  142.1160 C   0  0  0  0  0  3  0  0  0  0  0  0
  183.4110  178.4110  142.4520 C   0  0  0  0  0  3  0  0  0  0  0  0
  191.4140  175.9490  138.4230 C   0  0  0  0  0  2  0  0  0  0  0  0
  193.4190  175.6910  135.2360 N   0  0  0  0  0  2  0  0  0  0  0  0
  194.1630  174.2030  135.7210 S   0  0  0  0  0  0  0  0  0  0  0  0
  193.4740  173.0460  135.0570 O   0  0  0  0  0  0  0  0  0  0  0  0
  193.8580  175.4820  138.0520 C   0  0  0  0  0  2  0  0  0  0  0  0
  192.2390  175.8650  136.0740 C   0  0  0  0  0  2  0  0  0  0  0  0
  192.6120  176.2170  137.5240 C   0  0  1  0  0  3  0  0  0  0  0  0
  195.6140  174.2170  135.3370 O   0  0  0  0  0  0  0  0  0  0  0  0
  194.0040  174.0730  137.4890 C   0  0  0  0  0  2  0  0  0  0  0  0
  1  6  1  0  0  0  0
  2 11  1  0  0  0  0
  2 12  1  1  0  0  0
  3 10  1  0  0  0  0
  4  8  2  0  0  0  0
  5  1  2  0  0  0  0
  7  9  2  0  0  0  0
  7  4  1  0  0  0  0
  8  1  1  0  0  0  0
  9  5  1  0  0  0  0
 11 10  1  6  0  0  0
 11  7  1  0  0  0  0
 12 15  2  0  0  0  0
 13 35  1  6  0  0  0
 13  2  1  0  0  0  0
 14  3  1  0  0  0  0
 14 13  1  0  0  0  0
 15  4  1  0  0  0  0
 16 17  1  1  0  0  0
 16 18  1  0  0  0  0
 16  3  1  0  0  0  0
 20 19  1  6  0  0  0
 20 25  1  0  0  0  0
 21 27  2  0  0  0  0
 22 18  1  0  0  0  0
 22 19  1  0  0  0  0
 23 24  1  6  0  0  0
 23 27  1  0  0  0  0
 23 20  1  0  0  0  0
 24 22  1  0  0  0  0
 25 29  1  1  0  0  0
 26 25  1  0  0  0  0
 27 26  1  0  0  0  0
 28 29  1  0  0  0  0
 28 33  2  0  0  0  0
 29 34  2  0  0  0  0
 31 32  1  0  0  0  0
 32 30  1  0  0  0  0
 33 31  1  0  0  0  0
 34 32  1  0  0  0  0
 36 37  1  0  0  0  0
 36 40  1  0  0  0  0
 37 43  1  0  0  0  0
 38 37  2  0  0  0  0
 40 41  1  0  0  0  0
 41 39  1  0  0  0  0
 41 35  1  1  0  0  0
 42 37  2  0  0  0  0
 43 39  1  0  0  0  0
M  END
>  <MODEL>
4

>  <REMARK>
 VINA RESULT:      -8.6      2.854      5.047
  Name = 
  6 active torsions:
  status: ('A' for Active; 'I' for Inactive)
    1  A    between atoms: C_1  and  C_34
    2  A    between atoms: C_1  and  C_35
    3  A    between atoms: C_2  and  C_6
    4  A    between atoms: C_2  and  N_13
    5  A    between atoms: C_6  and  N_12
    6  A    between atoms: C_14  and  C_22
                            x       y       z     vdW  Elec       q    Type
                         _______ _______ _______ _____ _____    ______ ____

>  <TORSDO>
F 6

$$$$
=
 OpenBabel10272414103D

 43 49  0  0  1  0  0  0  0  0999 V2000
  195.7500  174.1590  136.9820 C   0  0  0  0  0  0  0  0  0  0  0  0
  191.0770  176.0130  136.4120 C   0  0  2  0  0  3  0  0  0  0  0  0
  189.9820  176.4790  138.8030 N   0  0  0  0  0  0  0  0  0  0  0  0
  193.7710  175.2000  136.0500 C   0  0  0  0  0  0  0  0  0  0  0  0
  195.3420  174.5280  138.2680 C   0  0  0  0  0  3  0  0  0  0  0  0
  196.9600  173.4340  136.8010 N   0  0  0  0  0  1  0  0  0  0  0  0
  193.3490  175.5650  137.3480 C   0  0  0  0  0  0  0  0  0  0  0  0
  194.9700  174.5030  135.8720 C   0  0  0  0  0  3  0  0  0  0  0  0
  194.1520  175.2400  138.4490 C   0  0  0  0  0  3  0  0  0  0  0  0
  191.4510  176.3530  138.8820 C   0  0  0  0  0  2  0  0  0  0  0  0
  192.1010  176.4020  137.4880 C   0  0  2  0  0  3  0  0  0  0  0  0
  191.6940  176.0050  135.0420 C   0  0  0  0  0  3  0  0  0  0  0  0
  189.8300  176.8990  136.4980 C   0  0  2  0  0  3  0  0  0  0  0  0
  189.6830  177.4740  137.8460 N   0  0  0  0  0  2  0  0  0  0  0  0
  192.9500  175.5730  134.8790 C   0  0  0  0  0  3  0  0  0  0  0  0
  189.4720  176.9330  140.1020 C   0  0  2  0  0  3  0  0  0  0  0  0
  188.6820  178.2270  139.9420 C   0  0  0  0  0  1  0  0  0  0  0  0
  190.6280  177.2050  141.0580 C   0  0  0  0  0  2  0  0  0  0  0  0
  189.6100  175.8750  142.7100 C   0  0  0  0  0  2  0  0  0  0  0  0
  189.7570  176.5630  144.0490 C   0  0  1  0  0  3  0  0  0  0  0  0
  192.3150  179.0180  144.4450 O   0  0  0  0  0  0  0  0  0  0  0  0
  190.8330  176.0640  141.9380 N   0  0  0  0  0  0  0  0  0  0  0  0
  191.2420  176.8640  144.1940 C   0  0  1  0  0  3  0  0  0  0  0  0
  191.8810  176.4330  142.8850 C   0  0  0  0  0  2  0  0  0  0  0  0
  189.0240  177.9170  144.0270 C   0  0  2  0  0  3  0  0  0  0  0  0
  190.0160  178.9040  144.2300 O   0  0  0  0  0  0  0  0  0  0  0  0
  191.2650  178.3370  144.3100 C   0  0  0  0  0  0  0  0  0  0  0  0
  186.5550  178.0670  144.7780 C   0  0  0  0  0  3  0  0  0  0  0  0
  187.9920  177.9870  145.1070 C   0  0  0  0  0  0  0  0  0  0  0  0
  187.8390  177.7600  148.8030 C   0  0  0  0  0  1  0  0  0  0  0  0
  186.0210  178.3550  147.1820 C   0  0  0  0  0  2  0  0  0  0  0  0
  187.4010  177.9280  147.4290 N   0  0  0  0  0  0  0  0  0  0  0  0
  185.6360  178.2050  145.7360 C   0  0  0  0  0  3  0  0  0  0  0  0
  188.3750  177.8960  146.3790 C   0  0  0  0  0  3  0  0  0  0  0  0
  188.5960  176.0760  136.1420 C   0  0  0  0  0  2  0  0  0  0  0  0
  185.1640  177.4400  136.9250 N   0  0  0  0  0  2  0  0  0  0  0  0
  184.3670  176.1920  136.0260 S   0  0  0  0  0  0  0  0  0  0  0  0
  183.8590  175.1320  136.9610 O   0  0  0  0  0  0  0  0  0  0  0  0
  186.6310  176.5430  134.6420 C   0  0  0  0  0  2  0  0  0  0  0  0
  186.5200  176.9700  137.1890 C   0  0  0  0  0  2  0  0  0  0  0  0
  187.3830  176.9680  135.9180 C   0  0  1  0  0  3  0  0  0  0  0  0
  183.2210  176.7800  135.2550 O   0  0  0  0  0  0  0  0  0  0  0  0
  185.5580  175.4920  134.9040 C   0  0  0  0  0  2  0  0  0  0  0  0
  1  5  1  0  0  0  0
  2 12  1  6  0  0  0
  2 13  1  0  0  0  0
  2 11  1  0  0  0  0
  3 10  1  0  0  0  0
  3 16  1  0  0  0  0
  4  7  2  0  0  0  0
  5  9  2  0  0  0  0
  6  1  1  0  0  0  0
  7 11  1  0  0  0  0
  7  9  1  0  0  0  0
  8  4  1  0  0  0  0
  8  1  2  0  0  0  0
 11 10  1  1  0  0  0
 13 35  1  1  0  0  0
 13 14  1  0  0  0  0
 14  3  1  0  0  0  0
 15 12  2  0  0  0  0
 15  4  1  0  0  0  0
 16 17  1  6  0  0  0
 16 18  1  0  0  0  0
 18 22  1  0  0  0  0
 20 19  1  6  0  0  0
 20 23  1  0  0  0  0
 22 19  1  0  0  0  0
 22 24  1  0  0  0  0
 23 24  1  6  0  0  0
 23 27  1  0  0  0  0
 25 20  1  0  0  0  0
 25 26  1  0  0  0  0
 25 29  1  1  0  0  0
 26 27  1  0  0  0  0
 27 21  2  0  0  0  0
 28 29  1  0  0  0  0
 28 33  2  0  0  0  0
 29 34  2  0  0  0  0
 31 32  1  0  0  0  0
 32 30  1  0  0  0  0
 33 31  1  0  0  0  0
 34 32  1  0  0  0  0
 36 40  1  0  0  0  0
 37 36  1  0  0  0  0
 37 38  2  0  0  0  0
 39 43  1  0  0  0  0
 39 41  1  0  0  0  0
 41 35  1  1  0  0  0
 41 40  1  0  0  0  0
 42 37  2  0  0  0  0
 43 37  1  0  0  0  0
M  END
>  <MODEL>
5

>  <REMARK>
 VINA RESULT:      -8.4      3.914      8.389
  Name = 
  6 active torsions:
  status: ('A' for Active; 'I' for Inactive)
    1  A    between atoms: C_1  and  C_34
    2  A    between atoms: C_1  and  C_35
    3  A    between atoms: C_2  and  C_6
    4  A    between atoms: C_2  and  N_13
    5  A    between atoms: C_6  and  N_12
    6  A    between atoms: C_14  and  C_22
                            x       y       z     vdW  Elec       q    Type
                         _______ _______ _______ _____ _____    ______ ____

>  <TORSDO>
F 6

$$$$
=
 OpenBabel10272414103D

 43 49  0  0  1  0  0  0  0  0999 V2000
  181.9840  175.9030  135.4920 C   0  0  0  0  0  0  0  0  0  0  0  0
  183.6340  177.8730  139.8500 C   0  0  2  0  0  3  0  0  0  0  0  0
  186.2610  178.3380  139.7040 N   0  0  0  0  0  0  0  0  0  0  0  0
  182.0700  177.0010  137.6490 C   0  0  0  0  0  0  0  0  0  0  0  0
  183.3130  176.2670  135.2510 C   0  0  0  0  0  3  0  0  0  0  0  0
  181.2650  175.1510  134.5210 N   0  0  0  0  0  1  0  0  0  0  0  0
  183.4160  177.3610  137.4150 C   0  0  0  0  0  0  0  0  0  0  0  0
  181.3590  176.2780  136.6860 C   0  0  0  0  0  3  0  0  0  0  0  0
  184.0220  177.0040  136.2030 C   0  0  0  0  0  3  0  0  0  0  0  0
  185.6530  178.1760  138.3690 C   0  0  0  0  0  2  0  0  0  0  0  0
  184.1160  178.2260  138.4350 C   0  0  2  0  0  3  0  0  0  0  0  0
  182.1340  177.8670  139.9350 C   0  0  0  0  0  3  0  0  0  0  0  0
  184.2860  178.7880  140.8930 C   0  0  2  0  0  3  0  0  0  0  0  0
  185.5490  179.3510  140.3850 N   0  0  0  0  0  2  0  0  0  0  0  0
  181.4110  177.4070  138.9080 C   0  0  0  0  0  3  0  0  0  0  0  0
  187.6480  178.7880  139.5460 C   0  0  2  0  0  3  0  0  0  0  0  0
  188.2850  178.1340  138.3260 C   0  0  0  0  0  1  0  0  0  0  0  0
  188.4720  178.4010  140.7690 C   0  0  0  0  0  2  0  0  0  0  0  0
  188.4700  176.5540  142.2250 C   0  0  0  0  0  2  0  0  0  0  0  0
  189.8340  176.4380  142.8690 C   0  0  1  0  0  3  0  0  0  0  0  0
  192.6170  178.0090  141.2850 O   0  0  0  0  0  0  0  0  0  0  0  0
  188.6310  176.9560  140.8320 N   0  0  0  0  0  0  0  0  0  0  0  0
  190.8310  176.4360  141.7190 C   0  0  1  0  0  3  0  0  0  0  0  0
  190.0110  176.6570  140.4610 C   0  0  0  0  0  2  0  0  0  0  0  0
  190.1230  177.6940  143.7130 C   0  0  2  0  0  3  0  0  0  0  0  0
  191.2560  178.3080  143.1290 O   0  0  0  0  0  0  0  0  0  0  0  0
  191.6570  177.6290  142.0030 C   0  0  0  0  0  0  0  0  0  0  0  0
  191.6070  176.5540  145.4960 C   0  0  0  0  0  3  0  0  0  0  0  0
  190.4050  177.3320  145.1360 C   0  0  0  0  0  0  0  0  0  0  0  0
  189.0130  178.0390  148.4970 C   0  0  0  0  0  1  0  0  0  0  0  0
  190.8270  176.4340  147.8460 C   0  0  0  0  0  2  0  0  0  0  0  0
  189.8690  177.4770  147.4680 N   0  0  0  0  0  0  0  0  0  0  0  0
  191.8250  176.1640  146.7540 C   0  0  0  0  0  3  0  0  0  0  0  0
  189.6000  177.7850  146.0950 C   0  0  0  0  0  3  0  0  0  0  0  0
  184.5410  177.9990  142.1730 C   0  0  0  0  0  2  0  0  0  0  0  0
  186.6730  178.4650  145.2520 N   0  0  0  0  0  2  0  0  0  0  0  0
  185.3000  178.7520  146.2670 S   0  0  0  0  0  0  0  0  0  0  0  0
  184.9560  177.5050  147.0290 O   0  0  0  0  0  0  0  0  0  0  0  0
  184.5180  179.7980  143.9300 C   0  0  0  0  0  2  0  0  0  0  0  0
  186.1770  177.8190  144.0420 C   0  0  0  0  0  2  0  0  0  0  0  0
  185.3910  178.7950  143.1530 C   0  0  1  0  0  3  0  0  0  0  0  0
  185.6070  179.8650  147.2270 O   0  0  0  0  0  0  0  0  0  0  0  0
  183.9410  179.2170  145.2160 C   0  0  0  0  0  2  0  0  0  0  0  0
  1  8  1  0  0  0  0
  2 12  1  6  0  0  0
  2 13  1  0  0  0  0
  3 14  1  0  0  0  0
  4 15  1  0  0  0  0
  5  1  2  0  0  0  0
  5  9  1  0  0  0  0
  6  1  1  0  0  0  0
  7  4  1  0  0  0  0
  7 11  1  0  0  0  0
  8  4  2  0  0  0  0
  9  7  2  0  0  0  0
 10  3  1  0  0  0  0
 11 10  1  1  0  0  0
 11  2  1  0  0  0  0
 13 35  1  1  0  0  0
 14 13  1  0  0  0  0
 15 12  2  0  0  0  0
 16 17  1  6  0  0  0
 16  3  1  0  0  0  0
 16 18  1  0  0  0  0
 18 22  1  0  0  0  0
 20 19  1  6  0  0  0
 20 25  1  0  0  0  0
 21 27  2  0  0  0  0
 22 19  1  0  0  0  0
 23 24  1  6  0  0  0
 23 27  1  0  0  0  0
 23 20  1  0  0  0  0
 24 22  1  0  0  0  0
 25 29  1  1  0  0  0
 26 25  1  0  0  0  0
 27 26  1  0  0  0  0
 28 33  2  0  0  0  0
 29 28  1  0  0  0  0
 29 34  2  0  0  0  0
 32 31  1  0  0  0  0
 32 30  1  0  0  0  0
 33 31  1  0  0  0  0
 34 32  1  0  0  0  0
 36 37  1  0  0  0  0
 37 38  2  0  0  0  0
 37 42  2  0  0  0  0
 39 43  1  0  0  0  0
 40 36  1  0  0  0  0
 41 35  1  6  0  0  0
 41 39  1  0  0  0  0
 41 40  1  0  0  0  0
 43 37  1  0  0  0  0
M  END
>  <MODEL>
6

>  <REMARK>
 VINA RESULT:      -8.4      3.404      9.993
  Name = 
  6 active torsions:
  status: ('A' for Active; 'I' for Inactive)
    1  A    between atoms: C_1  and  C_34
    2  A    between atoms: C_1  and  C_35
    3  A    between atoms: C_2  and  C_6
    4  A    between atoms: C_2  and  N_13
    5  A    between atoms: C_6  and  N_12
    6  A    between atoms: C_14  and  C_22
                            x       y       z     vdW  Elec       q    Type
                         _______ _______ _______ _____ _____    ______ ____

>  <TORSDO>
F 6

$$$$
=
 OpenBabel10272414103D

 43 49  0  0  1  0  0  0  0  0999 V2000
  183.8920  177.2890  135.1200 C   0  0  0  0  0  0  0  0  0  0  0  0
  188.6250  176.2620  136.5820 C   0  0  2  0  0  3  0  0  0  0  0  0
  189.0040  177.0870  139.0940 N   0  0  0  0  0  0  0  0  0  0  0  0
  186.1110  176.3290  135.2690 C   0  0  0  0  0  0  0  0  0  0  0  0
  183.9290  177.5950  136.4840 C   0  0  0  0  0  3  0  0  0  0  0  0
  182.7470  177.6290  134.3460 N   0  0  0  0  0  1  0  0  0  0  0  0
  186.1580  176.6460  136.6450 C   0  0  0  0  0  0  0  0  0  0  0  0
  184.9780  176.6480  134.5140 C   0  0  0  0  0  3  0  0  0  0  0  0
  185.0530  177.2630  137.2470 C   0  0  0  0  0  3  0  0  0  0  0  0
  187.5710  176.9630  138.7630 C   0  0  0  0  0  2  0  0  0  0  0  0
  187.3560  176.1970  137.4440 C   0  0  2  0  0  3  0  0  0  0  0  0
  188.4320  175.5630  135.2660 C   0  0  0  0  0  3  0  0  0  0  0  0
  189.8420  175.7450  137.3580 C   0  0  2  0  0  3  0  0  0  0  0  0
  189.6230  175.8480  138.8110 N   0  0  0  0  0  2  0  0  0  0  0  0
  187.2560  175.6440  134.6350 C   0  0  0  0  0  3  0  0  0  0  0  0
  189.1400  177.3420  140.5330 C   0  0  2  0  0  3  0  0  0  0  0  0
  188.5650  178.7080  140.8880 C   0  0  0  0  0  1  0  0  0  0  0  0
  190.6120  177.3350  140.9330 C   0  0  0  0  0  2  0  0  0  0  0  0
  189.7150  175.9270  142.5890 C   0  0  0  0  0  2  0  0  0  0  0  0
  189.8830  176.5910  143.9380 C   0  0  1  0  0  3  0  0  0  0  0  0
  192.3470  179.1460  144.2960 O   0  0  0  0  0  0  0  0  0  0  0  0
  190.8990  176.1850  141.7780 N   0  0  0  0  0  0  0  0  0  0  0  0
  191.3580  176.9540  144.0350 C   0  0  1  0  0  3  0  0  0  0  0  0
  191.9650  176.5800  142.6940 C   0  0  0  0  0  2  0  0  0  0  0  0
  189.0920  177.9130  143.9740 C   0  0  2  0  0  3  0  0  0  0  0  0
  190.0480  178.9380  144.1640 O   0  0  0  0  0  0  0  0  0  0  0  0
  191.3230  178.4240  144.1840 C   0  0  0  0  0  0  0  0  0  0  0  0
  186.6610  177.7150  144.8290 C   0  0  0  0  0  3  0  0  0  0  0  0
  188.1000  177.9140  145.0930 C   0  0  0  0  0  0  0  0  0  0  0  0
  188.1100  178.0390  148.7960 C   0  0  0  0  0  1  0  0  0  0  0  0
  186.1640  178.1480  147.2190 C   0  0  0  0  0  2  0  0  0  0  0  0
  187.6040  177.9900  147.4370 N   0  0  0  0  0  0  0  0  0  0  0  0
  185.7630  177.7900  145.8140 C   0  0  0  0  0  3  0  0  0  0  0  0
  188.5340  178.0190  146.3470 C   0  0  0  0  0  3  0  0  0  0  0  0
  191.0780  176.5440  136.9560 C   0  0  0  0  0  2  0  0  0  0  0  0
  194.7680  175.7670  137.1160 N   0  0  0  0  0  2  0  0  0  0  0  0
  195.0330  176.2620  135.4780 S   0  0  0  0  0  0  0  0  0  0  0  0
  195.6060  177.6500  135.4480 O   0  0  0  0  0  0  0  0  0  0  0  0
  192.5550  175.2540  135.3820 C   0  0  0  0  0  2  0  0  0  0  0  0
  193.4930  176.3420  137.5310 C   0  0  0  0  0  2  0  0  0  0  0  0
  192.3030  175.6480  136.8490 C   0  0  1  0  0  3  0  0  0  0  0  0
  195.9800  175.3080  134.8100 O   0  0  0  0  0  0  0  0  0  0  0  0
  193.4590  176.2360  134.6470 C   0  0  0  0  0  2  0  0  0  0  0  0
  1  5  1  0  0  0  0
  2 12  1  6  0  0  0
  2 13  1  0  0  0  0
  2 11  1  0  0  0  0
  3 16  1  0  0  0  0
  4  7  2  0  0  0  0
  5  9  2  0  0  0  0
  6  1  1  0  0  0  0
  7  9  1  0  0  0  0
  7 11  1  0  0  0  0
  8  1  2  0  0  0  0
  8  4  1  0  0  0  0
 10  3  1  0  0  0  0
 11 10  1  1  0  0  0
 13 35  1  6  0  0  0
 13 14  1  0  0  0  0
 14  3  1  0  0  0  0
 15 12  2  0  0  0  0
 15  4  1  0  0  0  0
 16 17  1  6  0  0  0
 16 18  1  0  0  0  0
 18 22  1  0  0  0  0
 20 19  1  6  0  0  0
 20 25  1  0  0  0  0
 20 23  1  0  0  0  0
 22 19  1  0  0  0  0
 22 24  1  0  0  0  0
 23 24  1  6  0  0  0
 23 27  1  0  0  0  0
 25 26  1  0  0  0  0
 25 29  1  1  0  0  0
 26 27  1  0  0  0  0
 27 21  2  0  0  0  0
 28 29  1  0  0  0  0
 28 33  2  0  0  0  0
 29 34  2  0  0  0  0
 31 32  1  0  0  0  0
 32 30  1  0  0  0  0
 33 31  1  0  0  0  0
 34 32  1  0  0  0  0
 36 40  1  0  0  0  0
 37 36  1  0  0  0  0
 38 37  2  0  0  0  0
 39 41  1  0  0  0  0
 41 35  1  6  0  0  0
 41 40  1  0  0  0  0
 42 37  2  0  0  0  0
 43 39  1  0  0  0  0
 43 37  1  0  0  0  0
M  END
>  <MODEL>
7

>  <REMARK>
 VINA RESULT:      -8.1      3.728      8.941
  Name = 
  6 active torsions:
  status: ('A' for Active; 'I' for Inactive)
    1  A    between atoms: C_1  and  C_34
    2  A    between atoms: C_1  and  C_35
    3  A    between atoms: C_2  and  C_6
    4  A    between atoms: C_2  and  N_13
    5  A    between atoms: C_6  and  N_12
    6  A    between atoms: C_14  and  C_22
                            x       y       z     vdW  Elec       q    Type
                         _______ _______ _______ _____ _____    ______ ____

>  <TORSDO>
F 6

$$$$
=
 OpenBabel10272414103D

 43 49  0  0  1  0  0  0  0  0999 V2000
  180.1800  183.1510  136.4990 C   0  0  0  0  0  0  0  0  0  0  0  0
  181.8010  178.5790  137.9390 C   0  0  2  0  0  3  0  0  0  0  0  0
  181.8900  178.4410  140.6050 N   0  0  0  0  0  0  0  0  0  0  0  0
  180.7440  180.7950  136.5160 C   0  0  0  0  0  0  0  0  0  0  0  0
  180.0230  183.1270  137.8880 C   0  0  0  0  0  3  0  0  0  0  0  0
  179.9830  184.3640  135.7820 N   0  0  0  0  0  1  0  0  0  0  0  0
  180.5970  180.7680  137.9210 C   0  0  0  0  0  0  0  0  0  0  0  0
  180.5310  181.9840  135.8120 C   0  0  0  0  0  3  0  0  0  0  0  0
  180.2180  181.9360  138.5950 C   0  0  0  0  0  3  0  0  0  0  0  0
  181.0430  179.5560  140.1370 C   0  0  0  0  0  2  0  0  0  0  0  0
  180.7380  179.4450  138.6320 C   0  0  2  0  0  3  0  0  0  0  0  0
  181.5570  178.4910  136.4590 C   0  0  0  0  0  3  0  0  0  0  0  0
  181.9090  177.2050  138.6090 C   0  0  2  0  0  3  0  0  0  0  0  0
  181.4210  177.2550  139.9970 N   0  0  0  0  0  2  0  0  0  0  0  0
  181.1050  179.5590  135.7930 C   0  0  0  0  0  3  0  0  0  0  0  0
  181.7320  178.2990  142.0570 C   0  0  2  0  0  3  0  0  0  0  0  0
  181.0290  179.5190  142.6390 C   0  0  0  0  0  1  0  0  0  0  0  0
  183.0970  178.1810  142.7270 C   0  0  0  0  0  2  0  0  0  0  0  0
  185.1490  179.2510  142.3110 C   0  0  0  0  0  2  0  0  0  0  0  0
  186.0260  179.1180  143.5360 C   0  0  1  0  0  3  0  0  0  0  0  0
  184.4900  178.4150  146.6780 O   0  0  0  0  0  0  0  0  0  0  0  0
  183.7700  179.4710  142.7320 N   0  0  0  0  0  0  0  0  0  0  0  0
  185.1850  179.6230  144.7000 C   0  0  1  0  0  3  0  0  0  0  0  0
  183.8150  179.9280  144.1170 C   0  0  0  0  0  2  0  0  0  0  0  0
  186.3250  177.6320  143.8080 C   0  0  2  0  0  3  0  0  0  0  0  0
  185.7650  177.3440  145.0740 O   0  0  0  0  0  0  0  0  0  0  0  0
  185.1080  178.4390  145.5820 C   0  0  0  0  0  0  0  0  0  0  0  0
  188.5400  177.2860  145.0940 C   0  0  0  0  0  3  0  0  0  0  0  0
  187.7980  177.3740  143.8210 C   0  0  0  0  0  0  0  0  0  0  0  0
  190.4830  176.5520  141.4020 C   0  0  0  0  0  1  0  0  0  0  0  0
  190.6710  177.1100  143.8400 C   0  0  0  0  0  2  0  0  0  0  0  0
  189.8340  176.8640  142.6630 N   0  0  0  0  0  0  0  0  0  0  0  0
  189.8660  177.1310  145.1100 C   0  0  0  0  0  3  0  0  0  0  0  0
  188.4290  177.1450  142.6710 C   0  0  0  0  0  3  0  0  0  0  0  0
  183.3610  176.7380  138.5790 C   0  0  0  0  0  2  0  0  0  0  0  0
  186.2760  177.6370  136.3580 N   0  0  0  0  0  2  0  0  0  0  0  0
  187.3350  177.8970  137.7030 S   0  0  0  0  0  0  0  0  0  0  0  0
  188.2130  176.6950  137.9040 O   0  0  0  0  0  0  0  0  0  0  0  0
  184.9660  178.6720  138.6770 C   0  0  0  0  0  2  0  0  0  0  0  0
  185.1510  176.8520  136.8510 C   0  0  0  0  0  2  0  0  0  0  0  0
  184.2270  177.6810  137.7580 C   0  0  1  0  0  3  0  0  0  0  0  0
  188.1850  179.1080  137.4500 O   0  0  0  0  0  0  0  0  0  0  0  0
  186.3220  178.1570  139.1430 C   0  0  0  0  0  2  0  0  0  0  0  0
  1  5  1  0  0  0  0
  2 12  1  6  0  0  0
  2 13  1  0  0  0  0
  2 11  1  0  0  0  0
  3 16  1  0  0  0  0
  4  7  2  0  0  0  0
  5  9  2  0  0  0  0
  6  1  1  0  0  0  0
  7  9  1  0  0  0  0
  7 11  1  0  0  0  0
  8  1  2  0  0  0  0
  8  4  1  0  0  0  0
 10  3  1  0  0  0  0
 11 10  1  1  0  0  0
 13 35  1  1  0  0  0
 13 14  1  0  0  0  0
 14  3  1  0  0  0  0
 15 12  2  0  0  0  0
 15  4  1  0  0  0  0
 16 17  1  1  0  0  0
 16 18  1  0  0  0  0
 18 22  1  0  0  0  0
 19 22  1  0  0  0  0
 20 19  1  6  0  0  0
 20 25  1  0  0  0  0
 20 23  1  0  0  0  0
 22 24  1  0  0  0  0
 23 24  1  6  0  0  0
 23 27  1  0  0  0  0
 25 29  1  1  0  0  0
 25 26  1  0  0  0  0
 26 27  1  0  0  0  0
 27 21  2  0  0  0  0
 28 33  2  0  0  0  0
 29 28  1  0  0  0  0
 30 32  1  0  0  0  0
 31 33  1  0  0  0  0
 32 34  1  0  0  0  0
 32 31  1  0  0  0  0
 34 29  2  0  0  0  0
 36 40  1  0  0  0  0
 36 37  1  0  0  0  0
 37 38  2  0  0  0  0
 37 43  1  0  0  0  0
 39 43  1  0  0  0  0
 40 41  1  0  0  0  0
 41 35  1  1  0  0  0
 41 39  1  0  0  0  0
 42 37  2  0  0  0  0
M  END
>  <MODEL>
8

>  <REMARK>
 VINA RESULT:      -7.9      3.324      9.014
  Name = 
  6 active torsions:
  status: ('A' for Active; 'I' for Inactive)
    1  A    between atoms: C_1  and  C_34
    2  A    between atoms: C_1  and  C_35
    3  A    between atoms: C_2  and  C_6
    4  A    between atoms: C_2  and  N_13
    5  A    between atoms: C_6  and  N_12
    6  A    between atoms: C_14  and  C_22
                            x       y       z     vdW  Elec       q    Type
                         _______ _______ _______ _____ _____    ______ ____

>  <TORSDO>
F 6

$$$$
=
 OpenBabel10272414103D

 43 49  0  0  1  0  0  0  0  0999 V2000
  183.3030  179.2500  139.2960 C   0  0  0  0  0  0  0  0  0  0  0  0
  187.2950  177.3270  136.8540 C   0  0  2  0  0  3  0  0  0  0  0  0
  189.4900  177.5740  138.3570 N   0  0  0  0  0  0  0  0  0  0  0  0
  184.6890  177.9910  137.7600 C   0  0  0  0  0  0  0  0  0  0  0  0
  184.3470  179.2690  140.2270 C   0  0  0  0  0  3  0  0  0  0  0  0
  182.0680  179.8880  139.6000 N   0  0  0  0  0  1  0  0  0  0  0  0
  185.7510  178.0180  138.6920 C   0  0  0  0  0  0  0  0  0  0  0  0
  183.4700  178.6030  138.0670 C   0  0  0  0  0  3  0  0  0  0  0  0
  185.5620  178.6440  139.9310 C   0  0  0  0  0  3  0  0  0  0  0  0
  188.2550  177.7130  139.1540 C   0  0  0  0  0  2  0  0  0  0  0  0
  187.0140  177.2610  138.3630 C   0  0  2  0  0  3  0  0  0  0  0  0
  186.0850  176.9370  136.0530 C   0  0  0  0  0  3  0  0  0  0  0  0
  188.5390  176.5070  136.4940 C   0  0  2  0  0  3  0  0  0  0  0  0
  189.4210  176.3460  137.6610 N   0  0  0  0  0  2  0  0  0  0  0  0
  184.8660  177.2990  136.4660 C   0  0  0  0  0  3  0  0  0  0  0  0
  190.6410  177.5170  139.2650 C   0  0  2  0  0  3  0  0  0  0  0  0
  191.3570  176.1780  139.1330 C   0  0  0  0  0  1  0  0  0  0  0  0
  190.1800  177.6620  140.7110 C   0  0  0  0  0  2  0  0  0  0  0  0
  189.3270  176.1640  142.3120 C   0  0  0  0  0  2  0  0  0  0  0  0
  189.5840  176.7270  143.6920 C   0  0  1  0  0  3  0  0  0  0  0  0
  192.1390  179.1830  144.0950 O   0  0  0  0  0  0  0  0  0  0  0  0
  190.4750  176.4480  141.4580 N   0  0  0  0  0  0  0  0  0  0  0  0
  191.0730  177.0420  143.7360 C   0  0  1  0  0  3  0  0  0  0  0  0
  191.5980  176.7480  142.3410 C   0  0  0  0  0  2  0  0  0  0  0  0
  188.8370  178.0630  143.8620 C   0  0  2  0  0  3  0  0  0  0  0  0
  189.8320  179.0460  144.0710 O   0  0  0  0  0  0  0  0  0  0  0  0
  191.0890  178.4980  143.9880 C   0  0  0  0  0  0  0  0  0  0  0  0
  186.4410  177.9860  144.8300 C   0  0  0  0  0  3  0  0  0  0  0  0
  187.9040  178.0120  145.0290 C   0  0  0  0  0  0  0  0  0  0  0  0
  188.1010  177.6480  148.7120 C   0  0  0  0  0  1  0  0  0  0  0  0
  186.1040  178.1480  147.2800 C   0  0  0  0  0  2  0  0  0  0  0  0
  187.5290  177.8260  147.3900 N   0  0  0  0  0  0  0  0  0  0  0  0
  185.6030  178.0160  145.8680 C   0  0  0  0  0  3  0  0  0  0  0  0
  188.4040  177.9090  146.2590 C   0  0  0  0  0  3  0  0  0  0  0  0
  189.2900  177.1970  135.3590 C   0  0  0  0  0  2  0  0  0  0  0  0
  190.4510  173.7490  134.3530 N   0  0  0  0  0  2  0  0  0  0  0  0
  191.9260  173.8880  135.2500 S   0  0  0  0  0  0  0  0  0  0  0  0
  191.8000  173.1640  136.5590 O   0  0  0  0  0  0  0  0  0  0  0  0
  191.4980  176.4060  134.4500 C   0  0  0  0  0  2  0  0  0  0  0  0
  189.5440  174.7670  134.8710 C   0  0  0  0  0  2  0  0  0  0  0  0
  189.9740  176.1830  134.4540 C   0  0  1  0  0  3  0  0  0  0  0  0
  193.0570  173.3030  134.4540 O   0  0  0  0  0  0  0  0  0  0  0  0
  192.2200  175.6200  135.5380 C   0  0  0  0  0  2  0  0  0  0  0  0
  1  6  1  0  0  0  0
  1  5  1  0  0  0  0
  2 12  1  6  0  0  0
  2 11  1  0  0  0  0
  3 10  1  0  0  0  0
  3 16  1  0  0  0  0
  4  8  1  0  0  0  0
  4  7  2  0  0  0  0
  7  9  1  0  0  0  0
  8  1  2  0  0  0  0
  9  5  2  0  0  0  0
 11  7  1  0  0  0  0
 11 10  1  1  0  0  0
 12 15  2  0  0  0  0
 13 35  1  6  0  0  0
 13  2  1  0  0  0  0
 13 14  1  0  0  0  0
 14  3  1  0  0  0  0
 15  4  1  0  0  0  0
 16 17  1  1  0  0  0
 16 18  1  0  0  0  0
 18 22  1  0  0  0  0
 20 19  1  6  0  0  0
 20 23  1  0  0  0  0
 20 25  1  0  0  0  0
 22 19  1  0  0  0  0
 22 24  1  0  0  0  0
 23 24  1  6  0  0  0
 23 27  1  0  0  0  0
 25 26  1  0  0  0  0
 25 29  1  1  0  0  0
 27 26  1  0  0  0  0
 27 21  2  0  0  0  0
 28 29  1  0  0  0  0
 28 33  2  0  0  0  0
 29 34  2  0  0  0  0
 31 32  1  0  0  0  0
 32 30  1  0  0  0  0
 33 31  1  0  0  0  0
 34 32  1  0  0  0  0
 36 40  1  0  0  0  0
 36 37  1  0  0  0  0
 37 43  1  0  0  0  0
 37 38  2  0  0  0  0
 39 41  1  0  0  0  0
 39 43  1  0  0  0  0
 41 40  1  0  0  0  0
 41 35  1  1  0  0  0
 42 37  2  0  0  0  0
M  END
>  <MODEL>
9

>  <REMARK>
 VINA RESULT:      -7.8      3.423      8.349
  Name = 
  6 active torsions:
  status: ('A' for Active; 'I' for Inactive)
    1  A    between atoms: C_1  and  C_34
    2  A    between atoms: C_1  and  C_35
    3  A    between atoms: C_2  and  C_6
    4  A    between atoms: C_2  and  N_13
    5  A    between atoms: C_6  and  N_12
    6  A    between atoms: C_14  and  C_22
                            x       y       z     vdW  Elec       q    Type
                         _______ _______ _______ _____ _____    ______ ____

>  <TORSDO>
F 6

$$$$
