=
 OpenBabel10272401093D

 27 31  0  0  0  0  0  0  0  0999 V2000
  187.3660  178.0820  141.7330 C   0  0  0  0  0  0  0  0  0  0  0  0
  187.6130  177.7370  144.1300 C   0  0  0  0  0  0  0  0  0  0  0  0
  189.4810  177.4170  142.6530 N   0  0  0  0  0  0  0  0  0  0  0  0
  190.0690  176.7390  147.4080 C   0  0  0  0  0  3  0  0  0  0  0  0
  192.2100  176.0720  148.2930 O   0  0  0  0  0  1  0  0  0  0  0  0
  187.1100  177.7400  145.4420 C   0  0  0  0  0  3  0  0  0  0  0  0
  191.1470  176.7270  144.8230 C   0  0  0  0  0  3  0  0  0  0  0  0
  191.9480  176.3970  145.9190 C   0  0  0  0  0  3  0  0  0  0  0  0
  189.7970  177.0670  145.0070 C   0  0  0  0  0  0  0  0  0  0  0  0
  186.7960  178.0810  143.0270 C   0  0  0  0  0  0  0  0  0  0  0  0
  191.4110  176.4020  147.2080 C   0  0  0  0  0  0  0  0  0  0  0  0
  189.2600  177.0710  146.3170 C   0  0  0  0  0  0  0  0  0  0  0  0
  186.6080  178.3930  140.5920 C   0  0  0  0  0  3  0  0  0  0  0  0
  188.9740  177.4040  143.9150 C   0  0  0  0  0  0  0  0  0  0  0  0
  189.3060  177.7300  140.3030 C   0  0  0  0  0  3  0  0  0  0  0  0
  187.9240  177.4090  146.5240 C   0  0  0  0  0  3  0  0  0  0  0  0
  188.5420  178.0500  139.1710 C   0  0  0  0  0  0  0  0  0  0  0  0
  187.1920  178.3790  139.3240 C   0  0  0  0  0  3  0  0  0  0  0  0
  188.7280  177.7420  141.5750 C   0  0  0  0  0  0  0  0  0  0  0  0
  182.6670  179.0990  143.5960 C   0  0  0  0  0  3  0  0  0  0  0  0
  185.3660  178.4340  143.2240 C   0  0  0  0  0  0  0  0  0  0  0  0
  184.9500  179.0720  144.4020 C   0  0  0  0  0  3  0  0  0  0  0  0
  183.6050  179.4020  144.5870 C   0  0  0  0  0  3  0  0  0  0  0  0
  183.0750  178.4640  142.4200 C   0  0  0  0  0  3  0  0  0  0  0  0
  184.4200  178.1320  142.2340 C   0  0  0  0  0  3  0  0  0  0  0  0
  189.0950  178.0480  137.8880 O   0  0  0  0  0  0  0  0  0  0  0  0
  188.9050  179.1140  136.9670 C   0  0  0  0  0  1  0  0  0  0  0  0
  1 10  2  0  0  0  0
  2  6  1  0  0  0  0
  3 14  1  0  0  0  0
  6 16  2  0  0  0  0
  7  9  2  0  0  0  0
  7  8  1  0  0  0  0
  8 11  2  0  0  0  0
  9 12  1  0  0  0  0
 10 21  1  0  0  0  0
 10  2  1  0  0  0  0
 11  4  1  0  0  0  0
 11  5  1  0  0  0  0
 12 16  1  0  0  0  0
 12  4  2  0  0  0  0
 13  1  1  0  0  0  0
 14  2  2  0  0  0  0
 14  9  1  0  0  0  0
 15 19  1  0  0  0  0
 17 18  1  0  0  0  0
 17 15  2  0  0  0  0
 18 13  2  0  0  0  0
 19  1  1  0  0  0  0
 19  3  2  0  0  0  0
 20 23  1  0  0  0  0
 21 22  1  0  0  0  0
 22 23  2  0  0  0  0
 24 20  2  0  0  0  0
 25 24  1  0  0  0  0
 25 21  2  0  0  0  0
 26 17  1  0  0  0  0
 27 26  1  0  0  0  0
M  END
>  <MODEL>
1

>  <REMARK>
 VINA RESULT:     -11.2      0.000      0.000
  Name = 
  2 active torsions:
  status: ('A' for Active; 'I' for Inactive)
    1  A    between atoms: C_9  and  C_15
    2  A    between atoms: O_10  and  C_22
                            x       y       z     vdW  Elec       q    Type
                         _______ _______ _______ _____ _____    ______ ____

>  <TORSDO>
F 2

$$$$
=
 OpenBabel10272401093D

 27 31  0  0  0  0  0  0  0  0999 V2000
  188.3120  177.6320  143.6390 C   0  0  0  0  0  0  0  0  0  0  0  0
  186.0820  178.1900  144.4390 C   0  0  0  0  0  0  0  0  0  0  0  0
  186.5020  177.9200  142.0890 N   0  0  0  0  0  0  0  0  0  0  0  0
  182.0320  178.9980  143.5940 C   0  0  0  0  0  3  0  0  0  0  0  0
  180.2390  179.2770  142.0060 O   0  0  0  0  0  1  0  0  0  0  0  0
  185.1630  178.4480  145.4700 C   0  0  0  0  0  3  0  0  0  0  0  0
  183.8020  178.4740  141.4890 C   0  0  0  0  0  3  0  0  0  0  0  0
  182.4570  178.7460  141.2240 C   0  0  0  0  0  3  0  0  0  0  0  0
  184.2770  178.4620  142.8090 C   0  0  0  0  0  0  0  0  0  0  0  0
  187.4400  177.9080  144.7170 C   0  0  0  0  0  0  0  0  0  0  0  0
  181.5740  179.0080  142.2740 C   0  0  0  0  0  0  0  0  0  0  0  0
  183.3750  178.7270  143.8690 C   0  0  0  0  0  0  0  0  0  0  0  0
  189.6770  177.3650  143.8410 C   0  0  0  0  0  3  0  0  0  0  0  0
  185.6290  178.1890  143.0960 C   0  0  0  0  0  0  0  0  0  0  0  0
  188.6570  177.3830  141.2400 C   0  0  0  0  0  3  0  0  0  0  0  0
  183.8240  178.7160  145.1880 C   0  0  0  0  0  3  0  0  0  0  0  0
  190.0160  177.1100  141.4550 C   0  0  0  0  0  0  0  0  0  0  0  0
  190.5190  177.1050  142.7580 C   0  0  0  0  0  3  0  0  0  0  0  0
  187.8090  177.6460  142.3200 C   0  0  0  0  0  0  0  0  0  0  0  0
  188.8900  177.8910  148.7550 C   0  0  0  0  0  3  0  0  0  0  0  0
  187.9420  177.9020  146.1160 C   0  0  0  0  0  0  0  0  0  0  0  0
  187.1640  178.4440  147.1490 C   0  0  0  0  0  3  0  0  0  0  0  0
  187.6380  178.4390  148.4650 C   0  0  0  0  0  3  0  0  0  0  0  0
  189.6700  177.3490  147.7310 C   0  0  0  0  0  3  0  0  0  0  0  0
  189.1980  177.3540  146.4150 C   0  0  0  0  0  3  0  0  0  0  0  0
  190.8860  176.8430  140.3940 O   0  0  0  0  0  0  0  0  0  0  0  0
  190.4420  176.7150  139.0500 C   0  0  0  0  0  1  0  0  0  0  0  0
  1 13  1  0  0  0  0
  1 10  2  0  0  0  0
  2 10  1  0  0  0  0
  2  6  1  0  0  0  0
  3 19  2  0  0  0  0
  3 14  1  0  0  0  0
  4 12  1  0  0  0  0
  5 11  1  0  0  0  0
  7  9  1  0  0  0  0
  8  7  2  0  0  0  0
  8 11  1  0  0  0  0
  9 14  1  0  0  0  0
  9 12  2  0  0  0  0
 10 21  1  0  0  0  0
 11  4  2  0  0  0  0
 12 16  1  0  0  0  0
 14  2  2  0  0  0  0
 15 17  2  0  0  0  0
 15 19  1  0  0  0  0
 16  6  2  0  0  0  0
 17 18  1  0  0  0  0
 18 13  2  0  0  0  0
 19  1  1  0  0  0  0
 21 25  2  0  0  0  0
 21 22  1  0  0  0  0
 22 23  2  0  0  0  0
 23 20  1  0  0  0  0
 24 20  2  0  0  0  0
 25 24  1  0  0  0  0
 26 17  1  0  0  0  0
 27 26  1  0  0  0  0
M  END
>  <MODEL>
2

>  <REMARK>
 VINA RESULT:     -11.0      2.387      6.236
  Name = 
  2 active torsions:
  status: ('A' for Active; 'I' for Inactive)
    1  A    between atoms: C_9  and  C_15
    2  A    between atoms: O_10  and  C_22
                            x       y       z     vdW  Elec       q    Type
                         _______ _______ _______ _____ _____    ______ ____

>  <TORSDO>
F 2

$$$$
=
 OpenBabel10272401093D

 27 31  0  0  0  0  0  0  0  0999 V2000
  189.2320  177.4880  142.8590 C   0  0  0  0  0  0  0  0  0  0  0  0
  187.2990  177.8700  144.2890 C   0  0  0  0  0  0  0  0  0  0  0  0
  187.0920  178.0030  141.8990 N   0  0  0  0  0  0  0  0  0  0  0  0
  183.1930  178.7460  144.6660 C   0  0  0  0  0  3  0  0  0  0  0  0
  181.0610  179.2600  143.6640 O   0  0  0  0  0  1  0  0  0  0  0  0
  186.6850  177.9400  145.5510 C   0  0  0  0  0  3  0  0  0  0  0  0
  184.3460  178.6080  142.1180 C   0  0  0  0  0  3  0  0  0  0  0  0
  182.9860  178.9000  142.2580 C   0  0  0  0  0  3  0  0  0  0  0  0
  185.1440  178.3830  143.2500 C   0  0  0  0  0  0  0  0  0  0  0  0
  188.6750  177.5670  144.1560 C   0  0  0  0  0  0  0  0  0  0  0  0
  182.4110  178.9690  143.5290 C   0  0  0  0  0  0  0  0  0  0  0  0
  184.5540  178.4540  144.5350 C   0  0  0  0  0  0  0  0  0  0  0  0
  190.5940  177.2120  142.6540 C   0  0  0  0  0  3  0  0  0  0  0  0
  186.5160  178.0870  143.1280 C   0  0  0  0  0  0  0  0  0  0  0  0
  188.9400  177.6480  140.4460 C   0  0  0  0  0  3  0  0  0  0  0  0
  185.3270  178.2310  145.6730 C   0  0  0  0  0  3  0  0  0  0  0  0
  190.3000  177.3630  140.2530 C   0  0  0  0  0  0  0  0  0  0  0  0
  191.1210  177.1480  141.3630 C   0  0  0  0  0  3  0  0  0  0  0  0
  188.4060  177.7130  141.7360 C   0  0  0  0  0  0  0  0  0  0  0  0
  191.1140  176.8990  147.6220 C   0  0  0  0  0  3  0  0  0  0  0  0
  189.5200  177.3350  145.3570 C   0  0  0  0  0  0  0  0  0  0  0  0
  189.0440  177.6730  146.6320 C   0  0  0  0  0  3  0  0  0  0  0  0
  189.8400  177.4560  147.7610 C   0  0  0  0  0  3  0  0  0  0  0  0
  191.5940  176.5600  146.3540 C   0  0  0  0  0  3  0  0  0  0  0  0
  190.8000  176.7780  145.2250 C   0  0  0  0  0  3  0  0  0  0  0  0
  190.8600  177.2890  138.9740 O   0  0  0  0  0  0  0  0  0  0  0  0
  190.0710  177.1960  137.7950 C   0  0  0  0  0  1  0  0  0  0  0  0
  1 10  2  0  0  0  0
  2  6  1  0  0  0  0
  3 14  1  0  0  0  0
  6 16  2  0  0  0  0
  7  8  2  0  0  0  0
  7  9  1  0  0  0  0
  8 11  1  0  0  0  0
  9 12  2  0  0  0  0
 10  2  1  0  0  0  0
 10 21  1  0  0  0  0
 11  5  1  0  0  0  0
 11  4  2  0  0  0  0
 12  4  1  0  0  0  0
 12 16  1  0  0  0  0
 13  1  1  0  0  0  0
 14  9  1  0  0  0  0
 14  2  2  0  0  0  0
 15 19  1  0  0  0  0
 17 15  2  0  0  0  0
 17 18  1  0  0  0  0
 18 13  2  0  0  0  0
 19  3  2  0  0  0  0
 19  1  1  0  0  0  0
 20 23  1  0  0  0  0
 21 22  1  0  0  0  0
 22 23  2  0  0  0  0
 24 20  2  0  0  0  0
 25 21  2  0  0  0  0
 25 24  1  0  0  0  0
 26 17  1  0  0  0  0
 27 26  1  0  0  0  0
M  END
>  <MODEL>
3

>  <REMARK>
 VINA RESULT:     -11.0      2.235      5.939
  Name = 
  2 active torsions:
  status: ('A' for Active; 'I' for Inactive)
    1  A    between atoms: C_9  and  C_15
    2  A    between atoms: O_10  and  C_22
                            x       y       z     vdW  Elec       q    Type
                         _______ _______ _______ _____ _____    ______ ____

>  <TORSDO>
F 2

$$$$
=
 OpenBabel10272401093D

 27 31  0  0  0  0  0  0  0  0999 V2000
  185.9810  178.2580  144.2080 C   0  0  0  0  0  0  0  0  0  0  0  0
  188.2280  177.7050  143.4540 C   0  0  0  0  0  0  0  0  0  0  0  0
  186.4740  178.1130  141.8620 N   0  0  0  0  0  0  0  0  0  0  0  0
  190.9200  177.0490  140.2760 C   0  0  0  0  0  3  0  0  0  0  0  0
  191.3760  176.9130  137.9130 O   0  0  0  0  0  1  0  0  0  0  0  0
  189.5780  177.4030  143.6970 C   0  0  0  0  0  3  0  0  0  0  0  0
  188.2460  177.6620  139.7140 C   0  0  0  0  0  3  0  0  0  0  0  0
  189.1490  177.4400  138.6710 C   0  0  0  0  0  3  0  0  0  0  0  0
  188.6700  177.5800  141.0500 C   0  0  0  0  0  0  0  0  0  0  0  0
  187.3220  177.9360  144.5160 C   0  0  0  0  0  0  0  0  0  0  0  0
  190.4830  177.1340  138.9510 C   0  0  0  0  0  0  0  0  0  0  0  0
  190.0230  177.2690  141.3260 C   0  0  0  0  0  0  0  0  0  0  0  0
  185.0230  178.4800  145.2120 C   0  0  0  0  0  3  0  0  0  0  0  0
  187.7740  177.8010  142.1140 C   0  0  0  0  0  0  0  0  0  0  0  0
  184.2570  178.6510  142.5310 C   0  0  0  0  0  3  0  0  0  0  0  0
  190.4660  177.1860  142.6450 C   0  0  0  0  0  3  0  0  0  0  0  0
  183.3110  178.8780  143.5420 C   0  0  0  0  0  0  0  0  0  0  0  0
  183.7020  178.7880  144.8810 C   0  0  0  0  0  3  0  0  0  0  0  0
  185.5810  178.3410  142.8550 C   0  0  0  0  0  0  0  0  0  0  0  0
  188.6200  177.6630  148.5960 C   0  0  0  0  0  3  0  0  0  0  0  0
  187.7710  177.8410  145.9290 C   0  0  0  0  0  0  0  0  0  0  0  0
  187.0590  178.4980  146.9430 C   0  0  0  0  0  3  0  0  0  0  0  0
  187.4840  178.4090  148.2720 C   0  0  0  0  0  3  0  0  0  0  0  0
  189.3330  177.0060  147.5900 C   0  0  0  0  0  3  0  0  0  0  0  0
  188.9110  177.0950  146.2610 C   0  0  0  0  0  3  0  0  0  0  0  0
  181.9820  179.1910  143.2460 O   0  0  0  0  0  0  0  0  0  0  0  0
  181.3490  178.7880  142.0390 C   0  0  0  0  0  1  0  0  0  0  0  0
  1 10  1  0  0  0  0
  1 13  1  0  0  0  0
  2  6  1  0  0  0  0
  2 10  2  0  0  0  0
  3 14  2  0  0  0  0
  3 19  1  0  0  0  0
  4 12  1  0  0  0  0
  5 11  1  0  0  0  0
  7  9  1  0  0  0  0
  8 11  1  0  0  0  0
  8  7  2  0  0  0  0
  9 12  2  0  0  0  0
  9 14  1  0  0  0  0
 10 21  1  0  0  0  0
 11  4  2  0  0  0  0
 12 16  1  0  0  0  0
 14  2  1  0  0  0  0
 15 19  1  0  0  0  0
 15 17  2  0  0  0  0
 16  6  2  0  0  0  0
 17 18  1  0  0  0  0
 18 13  2  0  0  0  0
 19  1  2  0  0  0  0
 21 25  2  0  0  0  0
 21 22  1  0  0  0  0
 22 23  2  0  0  0  0
 23 20  1  0  0  0  0
 24 20  2  0  0  0  0
 25 24  1  0  0  0  0
 26 17  1  0  0  0  0
 27 26  1  0  0  0  0
M  END
>  <MODEL>
4

>  <REMARK>
 VINA RESULT:     -10.8      2.498      5.995
  Name = 
  2 active torsions:
  status: ('A' for Active; 'I' for Inactive)
    1  A    between atoms: C_9  and  C_15
    2  A    between atoms: O_10  and  C_22
                            x       y       z     vdW  Elec       q    Type
                         _______ _______ _______ _____ _____    ______ ____

>  <TORSDO>
F 2

$$$$
=
 OpenBabel10272401093D

 27 31  0  0  0  0  0  0  0  0999 V2000
  188.8360  177.5060  145.1920 C   0  0  0  0  0  0  0  0  0  0  0  0
  188.0670  177.7710  142.8980 C   0  0  0  0  0  0  0  0  0  0  0  0
  190.3460  177.1640  143.3570 N   0  0  0  0  0  0  0  0  0  0  0  0
  188.8940  177.6410  138.7660 C   0  0  0  0  0  3  0  0  0  0  0  0
  190.4410  177.2880  136.9510 O   0  0  0  0  0  1  0  0  0  0  0  0
  187.0660  178.0350  141.9490 C   0  0  0  0  0  3  0  0  0  0  0  0
  190.9360  177.0860  140.6000 C   0  0  0  0  0  3  0  0  0  0  0  0
  191.1960  177.0490  139.2270 C   0  0  0  0  0  3  0  0  0  0  0  0
  189.6530  177.4010  141.0710 C   0  0  0  0  0  0  0  0  0  0  0  0
  187.7930  177.8030  144.2860 C   0  0  0  0  0  0  0  0  0  0  0  0
  190.1780  177.3260  138.3120 C   0  0  0  0  0  0  0  0  0  0  0  0
  188.6250  177.6800  140.1380 C   0  0  0  0  0  0  0  0  0  0  0  0
  188.6400  177.5390  146.5830 C   0  0  0  0  0  3  0  0  0  0  0  0
  189.3720  177.4430  142.4510 C   0  0  0  0  0  0  0  0  0  0  0  0
  191.1640  176.8960  145.5740 C   0  0  0  0  0  3  0  0  0  0  0  0
  187.3420  177.9920  140.5830 C   0  0  0  0  0  3  0  0  0  0  0  0
  190.9540  176.9250  146.9600 C   0  0  0  0  0  0  0  0  0  0  0  0
  189.6890  177.2490  147.4570 C   0  0  0  0  0  3  0  0  0  0  0  0
  190.1180  177.1850  144.6930 C   0  0  0  0  0  0  0  0  0  0  0  0
  183.8710  178.7880  145.7190 C   0  0  0  0  0  3  0  0  0  0  0  0
  186.4340  178.1440  144.7820 C   0  0  0  0  0  0  0  0  0  0  0  0
  185.4260  178.5210  143.8830 C   0  0  0  0  0  3  0  0  0  0  0  0
  184.1490  178.8420  144.3510 C   0  0  0  0  0  3  0  0  0  0  0  0
  184.8710  178.4130  146.6210 C   0  0  0  0  0  3  0  0  0  0  0  0
  186.1490  178.0930  146.1540 C   0  0  0  0  0  3  0  0  0  0  0  0
  191.9820  176.6380  147.8630 O   0  0  0  0  0  0  0  0  0  0  0  0
  192.7030  175.4130  147.8410 C   0  0  0  0  0  1  0  0  0  0  0  0
  1 13  1  0  0  0  0
  2 10  2  0  0  0  0
  3 19  1  0  0  0  0
  4 12  1  0  0  0  0
  5 11  1  0  0  0  0
  6  2  1  0  0  0  0
  7  9  1  0  0  0  0
  8  7  2  0  0  0  0
  9 14  1  0  0  0  0
 10 21  1  0  0  0  0
 10  1  1  0  0  0  0
 11  4  2  0  0  0  0
 11  8  1  0  0  0  0
 12 16  1  0  0  0  0
 12  9  2  0  0  0  0
 13 18  2  0  0  0  0
 14  2  1  0  0  0  0
 14  3  2  0  0  0  0
 15 17  2  0  0  0  0
 16  6  2  0  0  0  0
 17 18  1  0  0  0  0
 17 26  1  0  0  0  0
 19  1  2  0  0  0  0
 19 15  1  0  0  0  0
 20 24  1  0  0  0  0
 21 25  1  0  0  0  0
 22 23  1  0  0  0  0
 22 21  2  0  0  0  0
 23 20  2  0  0  0  0
 25 24  2  0  0  0  0
 27 26  1  0  0  0  0
M  END
>  <MODEL>
5

>  <REMARK>
 VINA RESULT:     -10.8      1.223      6.126
  Name = 
  2 active torsions:
  status: ('A' for Active; 'I' for Inactive)
    1  A    between atoms: C_9  and  C_15
    2  A    between atoms: O_10  and  C_22
                            x       y       z     vdW  Elec       q    Type
                         _______ _______ _______ _____ _____    ______ ____

>  <TORSDO>
F 2

$$$$
=
 OpenBabel10272401093D

 27 31  0  0  0  0  0  0  0  0999 V2000
  187.1030  178.0770  141.9710 C   0  0  0  0  0  0  0  0  0  0  0  0
  189.3330  177.4270  142.7000 C   0  0  0  0  0  0  0  0  0  0  0  0
  187.5870  177.8090  144.3070 N   0  0  0  0  0  0  0  0  0  0  0  0
  191.9820  176.4900  145.8430 C   0  0  0  0  0  3  0  0  0  0  0  0
  192.4290  176.2310  148.1970 O   0  0  0  0  0  1  0  0  0  0  0  0
  190.6620  177.0560  142.4420 C   0  0  0  0  0  3  0  0  0  0  0  0
  189.3400  177.2060  146.4330 C   0  0  0  0  0  3  0  0  0  0  0  0
  190.2300  176.8950  147.4650 C   0  0  0  0  0  3  0  0  0  0  0  0
  189.7610  177.1630  145.0950 C   0  0  0  0  0  0  0  0  0  0  0  0
  188.4360  177.7330  141.6490 C   0  0  0  0  0  0  0  0  0  0  0  0
  191.5480  176.5380  147.1700 C   0  0  0  0  0  0  0  0  0  0  0  0
  191.0980  176.8000  144.8040 C   0  0  0  0  0  0  0  0  0  0  0  0
  186.1660  178.4120  140.9800 C   0  0  0  0  0  3  0  0  0  0  0  0
  188.8780  177.4720  144.0420 C   0  0  0  0  0  0  0  0  0  0  0  0
  185.3910  178.4530  143.6630 C   0  0  0  0  0  3  0  0  0  0  0  0
  191.5370  176.7470  143.4830 C   0  0  0  0  0  3  0  0  0  0  0  0
  184.4610  178.7780  142.6640 C   0  0  0  0  0  0  0  0  0  0  0  0
  184.8570  178.7570  141.3240 C   0  0  0  0  0  3  0  0  0  0  0  0
  186.7020  178.1070  143.3250 C   0  0  0  0  0  0  0  0  0  0  0  0
  189.7360  177.6190  137.5620 C   0  0  0  0  0  3  0  0  0  0  0  0
  188.8860  177.6930  140.2330 C   0  0  0  0  0  0  0  0  0  0  0  0
  189.2670  176.4780  139.6460 C   0  0  0  0  0  3  0  0  0  0  0  0
  189.6920  176.4420  138.3140 C   0  0  0  0  0  3  0  0  0  0  0  0
  189.3570  178.8330  138.1410 C   0  0  0  0  0  3  0  0  0  0  0  0
  188.9330  178.8700  139.4730 C   0  0  0  0  0  3  0  0  0  0  0  0
  183.1430  179.1260  142.9740 O   0  0  0  0  0  0  0  0  0  0  0  0
  182.5310  178.7890  144.2110 C   0  0  0  0  0  1  0  0  0  0  0  0
  1 19  1  0  0  0  0
  2 14  1  0  0  0  0
  4 11  2  0  0  0  0
  6  2  2  0  0  0  0
  6 16  1  0  0  0  0
  7  8  2  0  0  0  0
  9  7  1  0  0  0  0
 10  1  2  0  0  0  0
 10  2  1  0  0  0  0
 11  8  1  0  0  0  0
 11  5  1  0  0  0  0
 12  9  1  0  0  0  0
 12  4  1  0  0  0  0
 13 18  2  0  0  0  0
 13  1  1  0  0  0  0
 14  3  1  0  0  0  0
 14  9  2  0  0  0  0
 16 12  2  0  0  0  0
 17 26  1  0  0  0  0
 17 15  2  0  0  0  0
 18 17  1  0  0  0  0
 19 15  1  0  0  0  0
 19  3  2  0  0  0  0
 20 24  2  0  0  0  0
 20 23  1  0  0  0  0
 21 10  1  0  0  0  0
 22 21  1  0  0  0  0
 23 22  2  0  0  0  0
 24 25  1  0  0  0  0
 25 21  2  0  0  0  0
 26 27  1  0  0  0  0
M  END
>  <MODEL>
6

>  <REMARK>
 VINA RESULT:     -10.6      1.864      4.886
  Name = 
  2 active torsions:
  status: ('A' for Active; 'I' for Inactive)
    1  A    between atoms: C_9  and  C_15
    2  A    between atoms: O_10  and  C_22
                            x       y       z     vdW  Elec       q    Type
                         _______ _______ _______ _____ _____    ______ ____

>  <TORSDO>
F 2

$$$$
=
 OpenBabel10272401093D

 27 31  0  0  0  0  0  0  0  0999 V2000
  189.8620  177.1600  144.2210 C   0  0  0  0  0  0  0  0  0  0  0  0
  187.9420  177.7690  142.8540 C   0  0  0  0  0  0  0  0  0  0  0  0
  187.7510  177.6650  145.2470 N   0  0  0  0  0  0  0  0  0  0  0  0
  183.8920  178.9130  142.6090 C   0  0  0  0  0  3  0  0  0  0  0  0
  181.7890  179.4140  143.6770 O   0  0  0  0  0  1  0  0  0  0  0  0
  187.3370  178.0360  141.6150 C   0  0  0  0  0  3  0  0  0  0  0  0
  185.0340  178.4120  145.1160 C   0  0  0  0  0  3  0  0  0  0  0  0
  183.6920  178.7900  145.0190 C   0  0  0  0  0  3  0  0  0  0  0  0
  185.8190  178.2800  143.9600 C   0  0  0  0  0  0  0  0  0  0  0  0
  189.3030  177.3940  142.9440 C   0  0  0  0  0  0  0  0  0  0  0  0
  183.1220  179.0390  143.7690 C   0  0  0  0  0  0  0  0  0  0  0  0
  185.2350  178.5350  142.6970 C   0  0  0  0  0  0  0  0  0  0  0  0
  191.2000  176.7650  144.3820 C   0  0  0  0  0  3  0  0  0  0  0  0
  187.1740  177.9000  144.0390 C   0  0  0  0  0  0  0  0  0  0  0  0
  189.5840  177.0710  146.6400 C   0  0  0  0  0  3  0  0  0  0  0  0
  185.9970  178.4130  141.5360 C   0  0  0  0  0  3  0  0  0  0  0  0
  190.9250  176.6850  146.7890 C   0  0  0  0  0  0  0  0  0  0  0  0
  191.7260  176.5320  145.6540 C   0  0  0  0  0  3  0  0  0  0  0  0
  189.0520  177.3050  145.3690 C   0  0  0  0  0  0  0  0  0  0  0  0
  191.6940  176.9720  139.4060 C   0  0  0  0  0  3  0  0  0  0  0  0
  190.1310  177.2480  141.7180 C   0  0  0  0  0  0  0  0  0  0  0  0
  189.5850  176.6790  140.5580 C   0  0  0  0  0  3  0  0  0  0  0  0
  190.3650  176.5420  139.4070 C   0  0  0  0  0  3  0  0  0  0  0  0
  192.2440  177.5400  140.5580 C   0  0  0  0  0  3  0  0  0  0  0  0
  191.4660  177.6770  141.7110 C   0  0  0  0  0  3  0  0  0  0  0  0
  191.4830  176.4460  148.0480 O   0  0  0  0  0  0  0  0  0  0  0  0
  192.7310  175.7890  148.2220 C   0  0  0  0  0  1  0  0  0  0  0  0
  1 13  2  0  0  0  0
  1 19  1  0  0  0  0
  2 10  2  0  0  0  0
  2 14  1  0  0  0  0
  3 19  1  0  0  0  0
  4 12  2  0  0  0  0
  4 11  1  0  0  0  0
  5 11  1  0  0  0  0
  6  2  1  0  0  0  0
  8  7  1  0  0  0  0
  9 14  1  0  0  0  0
  9  7  2  0  0  0  0
 10  1  1  0  0  0  0
 11  8  2  0  0  0  0
 12  9  1  0  0  0  0
 13 18  1  0  0  0  0
 14  3  2  0  0  0  0
 15 17  1  0  0  0  0
 16  6  2  0  0  0  0
 16 12  1  0  0  0  0
 17 26  1  0  0  0  0
 18 17  2  0  0  0  0
 19 15  2  0  0  0  0
 20 23  2  0  0  0  0
 20 24  1  0  0  0  0
 21 10  1  0  0  0  0
 22 21  2  0  0  0  0
 23 22  1  0  0  0  0
 24 25  2  0  0  0  0
 25 21  1  0  0  0  0
 26 27  1  0  0  0  0
M  END
>  <MODEL>
7

>  <REMARK>
 VINA RESULT:     -10.6      2.297      7.244
  Name = 
  2 active torsions:
  status: ('A' for Active; 'I' for Inactive)
    1  A    between atoms: C_9  and  C_15
    2  A    between atoms: O_10  and  C_22
                            x       y       z     vdW  Elec       q    Type
                         _______ _______ _______ _____ _____    ______ ____

>  <TORSDO>
F 2

$$$$
=
 OpenBabel10272401093D

 27 31  0  0  0  0  0  0  0  0999 V2000
  187.2180  177.9770  144.3910 C   0  0  0  0  0  0  0  0  0  0  0  0
  189.0350  177.5170  142.8380 C   0  0  0  0  0  0  0  0  0  0  0  0
  186.8740  178.1790  142.0230 N   0  0  0  0  0  0  0  0  0  0  0  0
  190.4380  177.3130  138.8680 C   0  0  0  0  0  3  0  0  0  0  0  0
  190.0530  177.5280  136.4980 O   0  0  0  0  0  1  0  0  0  0  0  0
  190.3660  177.1670  142.5560 C   0  0  0  0  0  3  0  0  0  0  0  0
  187.7770  178.0340  139.3550 C   0  0  0  0  0  3  0  0  0  0  0  0
  188.2550  177.9600  138.0440 C   0  0  0  0  0  3  0  0  0  0  0  0
  188.6240  177.7480  140.4370 C   0  0  0  0  0  0  0  0  0  0  0  0
  188.5610  177.5980  144.1690 C   0  0  0  0  0  0  0  0  0  0  0  0
  189.5830  177.6000  137.8010 C   0  0  0  0  0  0  0  0  0  0  0  0
  189.9680  177.3850  140.1820 C   0  0  0  0  0  0  0  0  0  0  0  0
  186.6760  178.0570  145.6840 C   0  0  0  0  0  3  0  0  0  0  0  0
  188.1590  177.8180  141.7650 C   0  0  0  0  0  0  0  0  0  0  0  0
  185.0540  178.6360  143.4840 C   0  0  0  0  0  3  0  0  0  0  0  0
  190.8280  177.1000  141.2420 C   0  0  0  0  0  3  0  0  0  0  0  0
  184.5260  178.7190  144.7810 C   0  0  0  0  0  0  0  0  0  0  0  0
  185.3430  178.4260  145.8760 C   0  0  0  0  0  3  0  0  0  0  0  0
  186.3880  178.2660  143.2850 C   0  0  0  0  0  0  0  0  0  0  0  0
  191.1500  176.7020  147.4710 C   0  0  0  0  0  3  0  0  0  0  0  0
  189.4580  177.2880  145.3130 C   0  0  0  0  0  0  0  0  0  0  0  0
  190.7640  176.8310  145.0840 C   0  0  0  0  0  3  0  0  0  0  0  0
  191.6070  176.5380  146.1610 C   0  0  0  0  0  3  0  0  0  0  0  0
  189.8500  177.1570  147.7060 C   0  0  0  0  0  3  0  0  0  0  0  0
  189.0060  177.4480  146.6300 C   0  0  0  0  0  3  0  0  0  0  0  0
  183.1970  179.0880  145.0090 O   0  0  0  0  0  0  0  0  0  0  0  0
  182.1500  178.7880  144.0960 C   0  0  0  0  0  1  0  0  0  0  0  0
  1 13  1  0  0  0  0
  2 10  2  0  0  0  0
  3 19  1  0  0  0  0
  4 12  1  0  0  0  0
  5 11  1  0  0  0  0
  6  2  1  0  0  0  0
  7  9  1  0  0  0  0
  8  7  2  0  0  0  0
  9 14  1  0  0  0  0
 10  1  1  0  0  0  0
 10 21  1  0  0  0  0
 11  8  1  0  0  0  0
 11  4  2  0  0  0  0
 12  9  2  0  0  0  0
 12 16  1  0  0  0  0
 13 18  2  0  0  0  0
 14  3  2  0  0  0  0
 14  2  1  0  0  0  0
 15 17  2  0  0  0  0
 16  6  2  0  0  0  0
 17 26  1  0  0  0  0
 17 18  1  0  0  0  0
 19 15  1  0  0  0  0
 19  1  2  0  0  0  0
 20 24  1  0  0  0  0
 21 25  1  0  0  0  0
 22 21  2  0  0  0  0
 22 23  1  0  0  0  0
 23 20  2  0  0  0  0
 25 24  2  0  0  0  0
 27 26  1  0  0  0  0
M  END
>  <MODEL>
8

>  <REMARK>
 VINA RESULT:     -10.5      2.220      6.847
  Name = 
  2 active torsions:
  status: ('A' for Active; 'I' for Inactive)
    1  A    between atoms: C_9  and  C_15
    2  A    between atoms: O_10  and  C_22
                            x       y       z     vdW  Elec       q    Type
                         _______ _______ _______ _____ _____    ______ ____

>  <TORSDO>
F 2

$$$$
=
 OpenBabel10272401093D

 27 31  0  0  0  0  0  0  0  0999 V2000
  188.5760  177.8710  140.7040 C   0  0  0  0  0  0  0  0  0  0  0  0
  187.0740  178.0700  142.6090 C   0  0  0  0  0  0  0  0  0  0  0  0
  186.2440  178.3350  140.3700 N   0  0  0  0  0  0  0  0  0  0  0  0
  183.1830  178.7160  144.0980 C   0  0  0  0  0  3  0  0  0  0  0  0
  180.8480  179.1810  143.7210 O   0  0  0  0  0  1  0  0  0  0  0  0
  186.8090  178.0330  143.9880 C   0  0  0  0  0  3  0  0  0  0  0  0
  183.6320  178.7890  141.3350 C   0  0  0  0  0  3  0  0  0  0  0  0
  182.3480  179.0030  141.8430 C   0  0  0  0  0  3  0  0  0  0  0  0
  184.7060  178.5360  142.2030 C   0  0  0  0  0  0  0  0  0  0  0  0
  188.3760  177.8440  142.1030 C   0  0  0  0  0  0  0  0  0  0  0  0
  182.1240  178.9670  143.2210 C   0  0  0  0  0  0  0  0  0  0  0  0
  184.4710  178.5000  143.5980 C   0  0  0  0  0  0  0  0  0  0  0  0
  189.8450  177.6760  140.1340 C   0  0  0  0  0  3  0  0  0  0  0  0
  186.0070  178.3160  141.7090 C   0  0  0  0  0  0  0  0  0  0  0  0
  187.6580  178.1610  138.4660 C   0  0  0  0  0  3  0  0  0  0  0  0
  185.5220  178.2480  144.4780 C   0  0  0  0  0  3  0  0  0  0  0  0
  188.9280  177.9570  137.9080 C   0  0  0  0  0  0  0  0  0  0  0  0
  190.0180  177.7170  138.7490 C   0  0  0  0  0  3  0  0  0  0  0  0
  187.4780  178.1220  139.8520 C   0  0  0  0  0  0  0  0  0  0  0  0
  191.6570  177.0920  144.7640 C   0  0  0  0  0  3  0  0  0  0  0  0
  189.5130  177.5830  143.0240 C   0  0  0  0  0  0  0  0  0  0  0  0
  189.8950  176.2670  143.3220 C   0  0  0  0  0  3  0  0  0  0  0  0
  190.9630  176.0230  144.1890 C   0  0  0  0  0  3  0  0  0  0  0  0
  191.2810  178.4050  144.4710 C   0  0  0  0  0  3  0  0  0  0  0  0
  190.2120  178.6510  143.6050 C   0  0  0  0  0  3  0  0  0  0  0  0
  189.1360  177.9880  136.5260 O   0  0  0  0  0  0  0  0  0  0  0  0
  189.7350  176.9130  135.8150 C   0  0  0  0  0  1  0  0  0  0  0  0
  1 10  2  0  0  0  0
  2  6  1  0  0  0  0
  3 14  1  0  0  0  0
  6 16  2  0  0  0  0
  7  8  2  0  0  0  0
  7  9  1  0  0  0  0
  8 11  1  0  0  0  0
  9 12  2  0  0  0  0
 10  2  1  0  0  0  0
 10 21  1  0  0  0  0
 11  5  1  0  0  0  0
 11  4  2  0  0  0  0
 12  4  1  0  0  0  0
 12 16  1  0  0  0  0
 13  1  1  0  0  0  0
 14  9  1  0  0  0  0
 14  2  2  0  0  0  0
 15 19  1  0  0  0  0
 17 15  2  0  0  0  0
 17 18  1  0  0  0  0
 18 13  2  0  0  0  0
 19  3  2  0  0  0  0
 19  1  1  0  0  0  0
 21 22  2  0  0  0  0
 21 25  1  0  0  0  0
 22 23  1  0  0  0  0
 23 20  2  0  0  0  0
 24 20  1  0  0  0  0
 25 24  2  0  0  0  0
 26 17  1  0  0  0  0
 27 26  1  0  0  0  0
M  END
>  <MODEL>
9

>  <REMARK>
 VINA RESULT:     -10.4      2.879      6.062
  Name = 
  2 active torsions:
  status: ('A' for Active; 'I' for Inactive)
    1  A    between atoms: C_9  and  C_15
    2  A    between atoms: O_10  and  C_22
                            x       y       z     vdW  Elec       q    Type
                         _______ _______ _______ _____ _____    ______ ____

>  <TORSDO>
F 2

$$$$
