=
 OpenBabel10272401093D

 27 32  0  0  0  0  0  0  0  0999 V2000
  188.2170  177.5560  144.7210 C   0  0  0  0  0  0  0  0  0  0  0  0
  188.7480  177.4800  143.4670 C   0  0  0  0  0  0  0  0  0  0  0  0
  186.7420  178.1710  142.4500 N   0  0  0  0  0  0  0  0  0  0  0  0
  190.8040  177.0950  139.9150 C   0  0  0  0  0  3  0  0  0  0  0  0
  190.1690  177.3760  138.7020 C   0  0  0  0  0  0  0  0  0  0  0  0
  190.0470  177.0790  143.4650 C   0  0  0  0  0  0  0  0  0  0  0  0
  191.6700  176.3420  146.8330 C   0  0  0  0  0  0  0  0  0  0  0  0
  188.1160  177.9270  139.8760 C   0  0  0  0  0  3  0  0  0  0  0  0
  189.3000  177.1570  145.6330 C   0  0  0  0  0  0  0  0  0  0  0  0
  184.2160  178.7660  145.0580 C   0  0  0  0  0  0  0  0  0  0  0  0
  191.6230  176.4550  145.4330 C   0  0  0  0  0  3  0  0  0  0  0  0
  188.8320  177.7900  138.6830 C   0  0  0  0  0  3  0  0  0  0  0  0
  182.8910  179.1680  145.1600 O   0  0  0  0  0  1  0  0  0  0  0  0
  188.7360  177.6500  141.0990 C   0  0  0  0  0  0  0  0  0  0  0  0
  190.4230  176.8660  144.8590 C   0  0  0  0  0  0  0  0  0  0  0  0
  190.8500  177.2470  137.5380 F   0  0  0  0  0  0  0  0  0  0  0  0
  190.1100  177.2250  141.1190 C   0  0  0  0  0  0  0  0  0  0  0  0
  186.8870  177.9560  144.8760 C   0  0  0  0  0  0  0  0  0  0  0  0
  188.0460  177.7770  142.3220 C   0  0  0  0  0  0  0  0  0  0  0  0
  184.8180  178.6690  143.7990 C   0  0  0  0  0  3  0  0  0  0  0  0
  190.7430  176.9460  142.3070 N   0  0  0  0  0  0  0  0  0  0  0  0
  184.9410  178.4620  146.2150 C   0  0  0  0  0  3  0  0  0  0  0  0
  192.8460  175.9370  147.4500 O   0  0  0  0  0  1  0  0  0  0  0  0
  186.2760  178.0560  146.1290 C   0  0  0  0  0  3  0  0  0  0  0  0
  190.5340  176.6380  147.6190 C   0  0  0  0  0  3  0  0  0  0  0  0
  186.1510  178.2650  143.6890 C   0  0  0  0  0  0  0  0  0  0  0  0
  189.3310  177.0510  147.0210 C   0  0  0  0  0  3  0  0  0  0  0  0
  1 18  1  0  0  0  0
  1  9  1  0  0  0  0
  2  1  2  0  0  0  0
  3 26  1  0  0  0  0
  4 17  1  0  0  0  0
  5  4  2  0  0  0  0
  6  2  1  0  0  0  0
  6 15  1  0  0  0  0
  7 23  1  0  0  0  0
  7 25  1  0  0  0  0
  8 14  1  0  0  0  0
  9 27  1  0  0  0  0
 10 13  1  0  0  0  0
 10 22  1  0  0  0  0
 11  7  2  0  0  0  0
 12  5  1  0  0  0  0
 12  8  2  0  0  0  0
 14 17  2  0  0  0  0
 14 19  1  0  0  0  0
 15 11  1  0  0  0  0
 15  9  2  0  0  0  0
 16  5  1  0  0  0  0
 17 21  1  0  0  0  0
 18 24  1  0  0  0  0
 19  3  2  0  0  0  0
 19  2  1  0  0  0  0
 20 10  2  0  0  0  0
 21  6  2  0  0  0  0
 24 22  2  0  0  0  0
 26 20  1  0  0  0  0
 26 18  2  0  0  0  0
 27 25  2  0  0  0  0
M  END
>  <MODEL>
1

>  <REMARK>
 VINA RESULT:     -12.8      0.000      0.000
  Name = 
  0 active torsions:
  status: ('A' for Active; 'I' for Inactive)
                            x       y       z     vdW  Elec       q    Type
                         _______ _______ _______ _____ _____    ______ ____

>  <TORSDO>
F 0

$$$$
=
 OpenBabel10272401093D

 27 32  0  0  0  0  0  0  0  0999 V2000
  188.1910  177.6020  144.6320 C   0  0  0  0  0  0  0  0  0  0  0  0
  188.3960  177.6490  143.2840 C   0  0  0  0  0  0  0  0  0  0  0  0
  190.6550  177.0260  143.4910 N   0  0  0  0  0  0  0  0  0  0  0  0
  188.5050  177.9290  139.1730 C   0  0  0  0  0  3  0  0  0  0  0  0
  189.6900  177.6610  138.4820 C   0  0  0  0  0  0  0  0  0  0  0  0
  187.2810  178.0000  142.5890 C   0  0  0  0  0  0  0  0  0  0  0  0
  184.1110  178.7030  144.5830 C   0  0  0  0  0  0  0  0  0  0  0  0
  190.8330  177.1970  140.5730 C   0  0  0  0  0  3  0  0  0  0  0  0
  186.7790  177.9680  144.8280 C   0  0  0  0  0  0  0  0  0  0  0  0
  191.4490  176.5460  147.0520 C   0  0  0  0  0  0  0  0  0  0  0  0
  184.8900  178.5810  143.4190 C   0  0  0  0  0  3  0  0  0  0  0  0
  190.8480  177.2980  139.1790 C   0  0  0  0  0  3  0  0  0  0  0  0
  192.5330  176.1950  147.8440 O   0  0  0  0  0  1  0  0  0  0  0  0
  189.6560  177.4610  141.2800 C   0  0  0  0  0  0  0  0  0  0  0  0
  186.2230  178.2110  143.5720 C   0  0  0  0  0  0  0  0  0  0  0  0
  189.7190  177.7550  137.1310 F   0  0  0  0  0  0  0  0  0  0  0  0
  188.4660  177.8340  140.5650 C   0  0  0  0  0  0  0  0  0  0  0  0
  189.2510  177.2540  145.4720 C   0  0  0  0  0  0  0  0  0  0  0  0
  189.6030  177.3690  142.6870 C   0  0  0  0  0  0  0  0  0  0  0  0
  191.5960  176.6110  145.6620 C   0  0  0  0  0  3  0  0  0  0  0  0
  187.2950  178.0990  141.2360 N   0  0  0  0  0  0  0  0  0  0  0  0
  190.2150  176.8320  147.6470 C   0  0  0  0  0  3  0  0  0  0  0  0
  182.7750  179.0690  144.4800 O   0  0  0  0  0  1  0  0  0  0  0  0
  189.1140  177.1870  146.8610 C   0  0  0  0  0  3  0  0  0  0  0  0
  184.6720  178.4570  145.8550 C   0  0  0  0  0  3  0  0  0  0  0  0
  190.5090  176.9630  144.8580 C   0  0  0  0  0  0  0  0  0  0  0  0
  186.0210  178.0830  145.9900 C   0  0  0  0  0  3  0  0  0  0  0  0
  1  9  1  0  0  0  0
  1 18  1  0  0  0  0
  2  1  2  0  0  0  0
  3 26  1  0  0  0  0
  4 17  1  0  0  0  0
  5  4  2  0  0  0  0
  5 12  1  0  0  0  0
  6  2  1  0  0  0  0
  6 15  1  0  0  0  0
  7 25  1  0  0  0  0
  8 14  1  0  0  0  0
  9 27  1  0  0  0  0
 10 22  1  0  0  0  0
 10 13  1  0  0  0  0
 11 15  1  0  0  0  0
 11  7  2  0  0  0  0
 12  8  2  0  0  0  0
 14 19  1  0  0  0  0
 15  9  2  0  0  0  0
 16  5  1  0  0  0  0
 17 21  1  0  0  0  0
 17 14  2  0  0  0  0
 18 24  1  0  0  0  0
 19  2  1  0  0  0  0
 19  3  2  0  0  0  0
 20 10  2  0  0  0  0
 21  6  2  0  0  0  0
 23  7  1  0  0  0  0
 24 22  2  0  0  0  0
 25 27  2  0  0  0  0
 26 18  2  0  0  0  0
 26 20  1  0  0  0  0
M  END
>  <MODEL>
2

>  <REMARK>
 VINA RESULT:     -12.7      0.643      5.051
  Name = 
  0 active torsions:
  status: ('A' for Active; 'I' for Inactive)
                            x       y       z     vdW  Elec       q    Type
                         _______ _______ _______ _____ _____    ______ ____

>  <TORSDO>
F 0

$$$$
=
 OpenBabel10272401093D

 27 32  0  0  0  0  0  0  0  0999 V2000
  189.2960  177.3830  143.3570 C   0  0  0  0  0  0  0  0  0  0  0  0
  187.9810  177.7430  143.4120 C   0  0  0  0  0  0  0  0  0  0  0  0
  187.9110  177.5640  145.7570 N   0  0  0  0  0  0  0  0  0  0  0  0
  184.0330  178.8700  143.0480 C   0  0  0  0  0  3  0  0  0  0  0  0
  183.2320  178.9970  144.1860 C   0  0  0  0  0  0  0  0  0  0  0  0
  187.4490  177.9950  142.1870 C   0  0  0  0  0  0  0  0  0  0  0  0
  189.7330  177.6170  139.1600 C   0  0  0  0  0  0  0  0  0  0  0  0
  185.0980  178.3580  145.6020 C   0  0  0  0  0  3  0  0  0  0  0  0
  189.6510  177.4050  141.9300 C   0  0  0  0  0  0  0  0  0  0  0  0
  191.2260  176.5390  146.9840 C   0  0  0  0  0  0  0  0  0  0  0  0
  188.5270  177.8950  139.8270 C   0  0  0  0  0  3  0  0  0  0  0  0
  183.7610  178.7420  145.4560 C   0  0  0  0  0  3  0  0  0  0  0  0
  191.8560  176.2620  148.1890 O   0  0  0  0  0  1  0  0  0  0  0  0
  185.9140  178.2270  144.4740 C   0  0  0  0  0  0  0  0  0  0  0  0
  188.5150  177.7810  141.2140 C   0  0  0  0  0  0  0  0  0  0  0  0
  181.9350  179.3670  144.0590 F   0  0  0  0  0  0  0  0  0  0  0  0
  185.3710  178.4890  143.1690 C   0  0  0  0  0  0  0  0  0  0  0  0
  189.9750  177.0940  144.5430 C   0  0  0  0  0  0  0  0  0  0  0  0
  187.2660  177.8420  144.5830 C   0  0  0  0  0  0  0  0  0  0  0  0
  189.8780  176.9140  146.9740 C   0  0  0  0  0  3  0  0  0  0  0  0
  186.1520  178.3670  142.0440 N   0  0  0  0  0  0  0  0  0  0  0  0
  191.9420  176.4420  145.7860 C   0  0  0  0  0  3  0  0  0  0  0  0
  189.7930  177.7180  137.7770 O   0  0  0  0  0  1  0  0  0  0  0  0
  191.3210  176.7180  144.5640 C   0  0  0  0  0  3  0  0  0  0  0  0
  190.8850  177.2360  139.8840 C   0  0  0  0  0  3  0  0  0  0  0  0
  189.2370  177.1940  145.7650 C   0  0  0  0  0  0  0  0  0  0  0  0
  190.8530  177.1260  141.2850 C   0  0  0  0  0  3  0  0  0  0  0  0
  1  2  2  0  0  0  0
  1 18  1  0  0  0  0
  2 19  1  0  0  0  0
  3 26  1  0  0  0  0
  4 17  2  0  0  0  0
  4  5  1  0  0  0  0
  5 12  2  0  0  0  0
  6  2  1  0  0  0  0
  7 11  2  0  0  0  0
  7 25  1  0  0  0  0
  9  1  1  0  0  0  0
 10 13  1  0  0  0  0
 11 15  1  0  0  0  0
 12  8  1  0  0  0  0
 14 19  1  0  0  0  0
 14  8  2  0  0  0  0
 15  9  2  0  0  0  0
 15  6  1  0  0  0  0
 16  5  1  0  0  0  0
 17 14  1  0  0  0  0
 18 24  2  0  0  0  0
 18 26  1  0  0  0  0
 19  3  2  0  0  0  0
 20 10  1  0  0  0  0
 21  6  2  0  0  0  0
 21 17  1  0  0  0  0
 22 10  2  0  0  0  0
 23  7  1  0  0  0  0
 24 22  1  0  0  0  0
 25 27  2  0  0  0  0
 26 20  2  0  0  0  0
 27  9  1  0  0  0  0
M  END
>  <MODEL>
3

>  <REMARK>
 VINA RESULT:     -12.2      3.091      6.460
  Name = 
  0 active torsions:
  status: ('A' for Active; 'I' for Inactive)
                            x       y       z     vdW  Elec       q    Type
                         _______ _______ _______ _____ _____    ______ ____

>  <TORSDO>
F 0

$$$$
=
 OpenBabel10272401093D

 27 32  0  0  0  0  0  0  0  0999 V2000
  189.3230  177.4010  142.9700 C   0  0  0  0  0  0  0  0  0  0  0  0
  188.0640  177.7000  143.4020 C   0  0  0  0  0  0  0  0  0  0  0  0
  187.2690  178.0360  141.2130 N   0  0  0  0  0  0  0  0  0  0  0  0
  184.4480  178.5270  145.1990 C   0  0  0  0  0  3  0  0  0  0  0  0
  183.3370  178.8600  144.4190 C   0  0  0  0  0  0  0  0  0  0  0  0
  187.9420  177.6510  144.7550 C   0  0  0  0  0  0  0  0  0  0  0  0
  191.0410  176.7300  146.7730 C   0  0  0  0  0  0  0  0  0  0  0  0
  184.6590  178.6390  142.3950 C   0  0  0  0  0  3  0  0  0  0  0  0
  190.1030  177.1270  144.1880 C   0  0  0  0  0  0  0  0  0  0  0  0
  190.0190  177.4690  138.8350 C   0  0  0  0  0  0  0  0  0  0  0  0
  189.6950  177.0890  146.5870 C   0  0  0  0  0  3  0  0  0  0  0  0
  183.4420  178.9160  143.0250 C   0  0  0  0  0  3  0  0  0  0  0  0
  190.2390  177.4930  137.4650 O   0  0  0  0  0  1  0  0  0  0  0  0
  185.7810  178.3040  143.1600 C   0  0  0  0  0  0  0  0  0  0  0  0
  189.2520  177.2810  145.2820 C   0  0  0  0  0  0  0  0  0  0  0  0
  182.1510  179.1310  145.0160 F   0  0  0  0  0  0  0  0  0  0  0  0
  185.6740  178.2460  144.5930 C   0  0  0  0  0  0  0  0  0  0  0  0
  189.5960  177.4120  141.6000 C   0  0  0  0  0  0  0  0  0  0  0  0
  187.0250  178.0190  142.5590 C   0  0  0  0  0  0  0  0  0  0  0  0
  188.7490  177.7660  139.3400 C   0  0  0  0  0  3  0  0  0  0  0  0
  186.7610  177.9190  145.3680 N   0  0  0  0  0  0  0  0  0  0  0  0
  191.0680  177.1460  139.7030 C   0  0  0  0  0  3  0  0  0  0  0  0
  191.5280  176.5280  148.0570 O   0  0  0  0  0  1  0  0  0  0  0  0
  190.8610  177.1170  141.0860 C   0  0  0  0  0  3  0  0  0  0  0  0
  191.9040  176.5740  145.6660 C   0  0  0  0  0  3  0  0  0  0  0  0
  188.5200  177.7430  140.7180 C   0  0  0  0  0  0  0  0  0  0  0  0
  191.4390  176.7720  144.3540 C   0  0  0  0  0  3  0  0  0  0  0  0
  1  2  1  0  0  0  0
  1  9  1  0  0  0  0
  2  6  1  0  0  0  0
  3 19  1  0  0  0  0
  5 16  1  0  0  0  0
  5  4  2  0  0  0  0
  6 15  1  0  0  0  0
  6 21  2  0  0  0  0
  7 23  1  0  0  0  0
  8 12  2  0  0  0  0
  8 14  1  0  0  0  0
  9 27  2  0  0  0  0
  9 15  1  0  0  0  0
 10 20  2  0  0  0  0
 10 22  1  0  0  0  0
 11  7  1  0  0  0  0
 12  5  1  0  0  0  0
 13 10  1  0  0  0  0
 14 17  2  0  0  0  0
 15 11  2  0  0  0  0
 17  4  1  0  0  0  0
 17 21  1  0  0  0  0
 18  1  2  0  0  0  0
 19 14  1  0  0  0  0
 19  2  2  0  0  0  0
 20 26  1  0  0  0  0
 22 24  2  0  0  0  0
 24 18  1  0  0  0  0
 25  7  2  0  0  0  0
 26  3  2  0  0  0  0
 26 18  1  0  0  0  0
 27 25  1  0  0  0  0
M  END
>  <MODEL>
4

>  <REMARK>
 VINA RESULT:     -11.7      3.171      5.644
  Name = 
  0 active torsions:
  status: ('A' for Active; 'I' for Inactive)
                            x       y       z     vdW  Elec       q    Type
                         _______ _______ _______ _____ _____    ______ ____

>  <TORSDO>
F 0

$$$$
=
 OpenBabel10272401093D

 27 32  0  0  0  0  0  0  0  0999 V2000
  187.5250  177.8730  142.3460 C   0  0  0  0  0  0  0  0  0  0  0  0
  188.4550  177.5680  143.2970 C   0  0  0  0  0  0  0  0  0  0  0  0
  186.9170  177.8470  145.0550 N   0  0  0  0  0  0  0  0  0  0  0  0
  191.6070  176.5860  145.7650 C   0  0  0  0  0  3  0  0  0  0  0  0
  191.4250  176.5380  147.1500 C   0  0  0  0  0  0  0  0  0  0  0  0
  189.6780  177.2880  142.7720 C   0  0  0  0  0  0  0  0  0  0  0  0
  190.0480  177.4490  138.9830 C   0  0  0  0  0  0  0  0  0  0  0  0
  189.0930  177.1600  146.8910 C   0  0  0  0  0  3  0  0  0  0  0  0
  188.2320  177.7780  141.0590 C   0  0  0  0  0  0  0  0  0  0  0  0
  183.6470  178.7880  143.6550 C   0  0  0  0  0  0  0  0  0  0  0  0
  190.4840  177.2460  140.3040 C   0  0  0  0  0  3  0  0  0  0  0  0
  190.1750  176.8240  147.7090 C   0  0  0  0  0  3  0  0  0  0  0  0
  182.3670  179.0900  144.0980 O   0  0  0  0  0  1  0  0  0  0  0  0
  189.2560  177.2110  145.5030 C   0  0  0  0  0  0  0  0  0  0  0  0
  189.5530  177.4180  141.3230 C   0  0  0  0  0  0  0  0  0  0  0  0
  192.4650  176.2150  147.9560 F   0  0  0  0  0  0  0  0  0  0  0  0
  190.5410  176.9180  144.9270 C   0  0  0  0  0  0  0  0  0  0  0  0
  186.2220  178.1830  142.7410 C   0  0  0  0  0  0  0  0  0  0  0  0
  188.1880  177.5460  144.6460 C   0  0  0  0  0  0  0  0  0  0  0  0
  184.6460  178.4670  144.5810 C   0  0  0  0  0  3  0  0  0  0  0  0
  190.7290  176.9620  143.5660 N   0  0  0  0  0  0  0  0  0  0  0  0
  183.9330  178.8070  142.2850 C   0  0  0  0  0  3  0  0  0  0  0  0
  190.9420  177.2880  137.9320 O   0  0  0  0  0  1  0  0  0  0  0  0
  185.2180  178.5060  141.8240 C   0  0  0  0  0  3  0  0  0  0  0  0
  188.7110  177.8130  138.7130 C   0  0  0  0  0  3  0  0  0  0  0  0
  185.9370  178.1630  144.1430 C   0  0  0  0  0  0  0  0  0  0  0  0
  187.7840  177.9820  139.7570 C   0  0  0  0  0  3  0  0  0  0  0  0
  1 18  2  0  0  0  0
  1  2  1  0  0  0  0
  2 19  1  0  0  0  0
  4  5  2  0  0  0  0
  5 12  1  0  0  0  0
  5 16  1  0  0  0  0
  6  2  2  0  0  0  0
  6 21  1  0  0  0  0
  7 11  1  0  0  0  0
  8 12  2  0  0  0  0
  9 15  1  0  0  0  0
  9  1  1  0  0  0  0
 10 13  1  0  0  0  0
 10 20  2  0  0  0  0
 11 15  2  0  0  0  0
 14  8  1  0  0  0  0
 15  6  1  0  0  0  0
 17 14  1  0  0  0  0
 17  4  1  0  0  0  0
 18 26  1  0  0  0  0
 19  3  1  0  0  0  0
 19 14  2  0  0  0  0
 21 17  2  0  0  0  0
 22 10  1  0  0  0  0
 23  7  1  0  0  0  0
 24 22  2  0  0  0  0
 24 18  1  0  0  0  0
 25  7  2  0  0  0  0
 25 27  1  0  0  0  0
 26 20  1  0  0  0  0
 26  3  2  0  0  0  0
 27  9  2  0  0  0  0
M  END
>  <MODEL>
5

>  <REMARK>
 VINA RESULT:     -11.6      2.927      5.523
  Name = 
  0 active torsions:
  status: ('A' for Active; 'I' for Inactive)
                            x       y       z     vdW  Elec       q    Type
                         _______ _______ _______ _____ _____    ______ ____

>  <TORSDO>
F 0

$$$$
=
 OpenBabel10272401093D

 27 32  0  0  0  0  0  0  0  0999 V2000
  187.5930  177.9240  142.4870 C   0  0  0  0  0  0  0  0  0  0  0  0
  188.3180  177.5900  143.5940 C   0  0  0  0  0  0  0  0  0  0  0  0
  190.2350  177.0880  142.3260 N   0  0  0  0  0  0  0  0  0  0  0  0
  190.0720  176.6970  147.2150 C   0  0  0  0  0  3  0  0  0  0  0  0
  191.4010  176.2660  147.2640 C   0  0  0  0  0  0  0  0  0  0  0  0
  187.6110  177.7140  144.7480 C   0  0  0  0  0  0  0  0  0  0  0  0
  183.9990  178.9000  144.4870 C   0  0  0  0  0  0  0  0  0  0  0  0
  191.5700  176.4300  144.8480 C   0  0  0  0  0  3  0  0  0  0  0  0
  186.2630  178.3060  142.9890 C   0  0  0  0  0  0  0  0  0  0  0  0
  189.5010  177.6460  138.7630 C   0  0  0  0  0  0  0  0  0  0  0  0
  185.1590  178.4660  145.1530 C   0  0  0  0  0  3  0  0  0  0  0  0
  192.1450  176.1330  146.0860 C   0  0  0  0  0  3  0  0  0  0  0  0
  190.1420  177.5510  137.5360 O   0  0  0  0  0  1  0  0  0  0  0  0
  190.2410  176.8640  144.7800 C   0  0  0  0  0  0  0  0  0  0  0  0
  186.2780  178.1770  144.3770 C   0  0  0  0  0  0  0  0  0  0  0  0
  191.9710  175.9740  148.4570 F   0  0  0  0  0  0  0  0  0  0  0  0
  189.4760  177.0010  145.9900 C   0  0  0  0  0  0  0  0  0  0  0  0
  188.1920  177.8450  141.2280 C   0  0  0  0  0  0  0  0  0  0  0  0
  189.6280  177.1720  143.5490 C   0  0  0  0  0  0  0  0  0  0  0  0
  190.1920  177.3180  139.9350 C   0  0  0  0  0  3  0  0  0  0  0  0
  188.1690  177.4250  145.9510 N   0  0  0  0  0  0  0  0  0  0  0  0
  188.1690  178.0700  138.8230 C   0  0  0  0  0  3  0  0  0  0  0  0
  182.8590  179.2010  145.2190 O   0  0  0  0  0  1  0  0  0  0  0  0
  187.5110  178.1710  140.0520 C   0  0  0  0  0  3  0  0  0  0  0  0
  183.9830  179.0330  143.0810 C   0  0  0  0  0  3  0  0  0  0  0  0
  189.5540  177.4110  141.1740 C   0  0  0  0  0  0  0  0  0  0  0  0
  185.1230  178.7350  142.3140 C   0  0  0  0  0  3  0  0  0  0  0  0
  1  9  1  0  0  0  0
  1  2  1  0  0  0  0
  2  6  1  0  0  0  0
  3 19  1  0  0  0  0
  4  5  1  0  0  0  0
  5 16  1  0  0  0  0
  6 21  2  0  0  0  0
  7 11  1  0  0  0  0
  7 23  1  0  0  0  0
  8 12  1  0  0  0  0
  9 15  1  0  0  0  0
 10 22  1  0  0  0  0
 10 20  2  0  0  0  0
 12  5  2  0  0  0  0
 13 10  1  0  0  0  0
 14  8  2  0  0  0  0
 14 17  1  0  0  0  0
 15  6  1  0  0  0  0
 15 11  2  0  0  0  0
 17  4  2  0  0  0  0
 18  1  2  0  0  0  0
 19  2  2  0  0  0  0
 19 14  1  0  0  0  0
 20 26  1  0  0  0  0
 21 17  1  0  0  0  0
 22 24  2  0  0  0  0
 24 18  1  0  0  0  0
 25  7  2  0  0  0  0
 26 18  1  0  0  0  0
 26  3  2  0  0  0  0
 27  9  2  0  0  0  0
 27 25  1  0  0  0  0
M  END
>  <MODEL>
6

>  <REMARK>
 VINA RESULT:     -11.6      3.086      6.660
  Name = 
  0 active torsions:
  status: ('A' for Active; 'I' for Inactive)
                            x       y       z     vdW  Elec       q    Type
                         _______ _______ _______ _____ _____    ______ ____

>  <TORSDO>
F 0

$$$$
=
 OpenBabel10272401093D

 27 32  0  0  0  0  0  0  0  0999 V2000
  188.2790  177.7620  144.0560 C   0  0  0  0  0  0  0  0  0  0  0  0
  186.9540  178.0110  143.8410 C   0  0  0  0  0  0  0  0  0  0  0  0
  187.1980  177.9130  141.5030 N   0  0  0  0  0  0  0  0  0  0  0  0
  182.9080  178.7830  143.7200 C   0  0  0  0  0  3  0  0  0  0  0  0
  182.2480  178.8820  142.4920 C   0  0  0  0  0  0  0  0  0  0  0  0
  186.2510  178.1700  144.9930 C   0  0  0  0  0  0  0  0  0  0  0  0
  188.1580  177.8760  148.2790 C   0  0  0  0  0  0  0  0  0  0  0  0
  184.3280  178.4580  141.3130 C   0  0  0  0  0  3  0  0  0  0  0  0
  188.4470  177.7620  145.5180 C   0  0  0  0  0  0  0  0  0  0  0  0
  190.7200  177.2220  140.6890 C   0  0  0  0  0  0  0  0  0  0  0  0
  187.0260  178.0760  147.4690 C   0  0  0  0  0  3  0  0  0  0  0  0
  182.9550  178.7210  141.2950 C   0  0  0  0  0  3  0  0  0  0  0  0
  191.5200  177.0450  139.5680 O   0  0  0  0  0  1  0  0  0  0  0  0
  185.0040  178.3560  142.5330 C   0  0  0  0  0  0  0  0  0  0  0  0
  187.2000  178.0120  146.0900 C   0  0  0  0  0  0  0  0  0  0  0  0
  180.9180  179.1360  142.4590 F   0  0  0  0  0  0  0  0  0  0  0  0
  184.2780  178.5210  143.7630 C   0  0  0  0  0  0  0  0  0  0  0  0
  189.1250  177.5760  142.9610 C   0  0  0  0  0  0  0  0  0  0  0  0
  186.3880  178.0920  142.5900 C   0  0  0  0  0  0  0  0  0  0  0  0
  189.3540  177.4800  140.5340 C   0  0  0  0  0  3  0  0  0  0  0  0
  184.9180  178.4250  144.9760 N   0  0  0  0  0  0  0  0  0  0  0  0
  191.2840  177.1420  141.9670 C   0  0  0  0  0  3  0  0  0  0  0  0
  188.0330  177.9300  149.6610 O   0  0  0  0  0  1  0  0  0  0  0  0
  190.4910  177.3180  143.1050 C   0  0  0  0  0  3  0  0  0  0  0  0
  189.4220  177.6220  147.7010 C   0  0  0  0  0  3  0  0  0  0  0  0
  188.5420  177.6600  141.6570 C   0  0  0  0  0  0  0  0  0  0  0  0
  189.5780  177.5620  146.3050 C   0  0  0  0  0  3  0  0  0  0  0  0
  1  9  1  0  0  0  0
  2  1  1  0  0  0  0
  2  6  1  0  0  0  0
  3 26  2  0  0  0  0
  3 19  1  0  0  0  0
  4 17  1  0  0  0  0
  5  4  2  0  0  0  0
  6 15  1  0  0  0  0
  7 23  1  0  0  0  0
  8 14  1  0  0  0  0
  9 15  2  0  0  0  0
  9 27  1  0  0  0  0
 10 22  1  0  0  0  0
 11  7  2  0  0  0  0
 12  8  2  0  0  0  0
 12  5  1  0  0  0  0
 13 10  1  0  0  0  0
 14 19  1  0  0  0  0
 14 17  2  0  0  0  0
 15 11  1  0  0  0  0
 16  5  1  0  0  0  0
 17 21  1  0  0  0  0
 18 24  1  0  0  0  0
 18  1  2  0  0  0  0
 19  2  2  0  0  0  0
 20 10  2  0  0  0  0
 20 26  1  0  0  0  0
 21  6  2  0  0  0  0
 22 24  2  0  0  0  0
 25  7  1  0  0  0  0
 26 18  1  0  0  0  0
 27 25  2  0  0  0  0
M  END
>  <MODEL>
7

>  <REMARK>
 VINA RESULT:     -11.4      3.227      5.710
  Name = 
  0 active torsions:
  status: ('A' for Active; 'I' for Inactive)
                            x       y       z     vdW  Elec       q    Type
                         _______ _______ _______ _____ _____    ______ ____

>  <TORSDO>
F 0

$$$$
=
 OpenBabel10272401093D

 27 32  0  0  0  0  0  0  0  0999 V2000
  186.3420  178.2120  144.1020 C   0  0  0  0  0  0  0  0  0  0  0  0
  187.3610  177.9930  143.2220 C   0  0  0  0  0  0  0  0  0  0  0  0
  185.9480  178.2110  141.3540 N   0  0  0  0  0  0  0  0  0  0  0  0
  190.7540  177.2860  140.9910 C   0  0  0  0  0  3  0  0  0  0  0  0
  190.6840  177.2610  139.5960 C   0  0  0  0  0  0  0  0  0  0  0  0
  188.5560  177.7830  143.8360 C   0  0  0  0  0  0  0  0  0  0  0  0
  188.6210  177.8770  147.6450 C   0  0  0  0  0  0  0  0  0  0  0  0
  188.3010  177.7160  139.6820 C   0  0  0  0  0  3  0  0  0  0  0  0
  186.9520  178.1330  145.4390 C   0  0  0  0  0  0  0  0  0  0  0  0
  182.5220  178.8940  142.5100 C   0  0  0  0  0  0  0  0  0  0  0  0
  189.1700  177.7370  146.3590 C   0  0  0  0  0  3  0  0  0  0  0  0
  189.4630  177.4740  138.9450 C   0  0  0  0  0  3  0  0  0  0  0  0
  181.2620  179.1190  141.9740 O   0  0  0  0  0  1  0  0  0  0  0  0
  188.3530  177.7450  141.0800 C   0  0  0  0  0  0  0  0  0  0  0  0
  188.3110  177.8700  145.2720 C   0  0  0  0  0  0  0  0  0  0  0  0
  191.8020  177.0270  138.8680 F   0  0  0  0  0  0  0  0  0  0  0  0
  189.6060  177.5260  141.7490 C   0  0  0  0  0  0  0  0  0  0  0  0
  185.0540  178.4440  143.6120 C   0  0  0  0  0  0  0  0  0  0  0  0
  187.2000  177.9860  141.8560 C   0  0  0  0  0  0  0  0  0  0  0  0
  183.6090  178.6630  141.6590 C   0  0  0  0  0  3  0  0  0  0  0  0
  189.6850  177.5490  143.1210 N   0  0  0  0  0  0  0  0  0  0  0  0
  182.6990  178.8990  143.8980 C   0  0  0  0  0  3  0  0  0  0  0  0
  189.4400  177.7530  148.7600 O   0  0  0  0  0  1  0  0  0  0  0  0
  183.9630  178.6740  144.4530 C   0  0  0  0  0  3  0  0  0  0  0  0
  187.2450  178.1430  147.8160 C   0  0  0  0  0  3  0  0  0  0  0  0
  184.8800  178.4360  142.1920 C   0  0  0  0  0  0  0  0  0  0  0  0
  186.3920  178.2750  146.7060 C   0  0  0  0  0  3  0  0  0  0  0  0
  1  9  1  0  0  0  0
  2  6  1  0  0  0  0
  2  1  2  0  0  0  0
  3 19  2  0  0  0  0
  3 26  1  0  0  0  0
  4 17  1  0  0  0  0
  5  4  2  0  0  0  0
  6 15  1  0  0  0  0
  7 25  1  0  0  0  0
  7 23  1  0  0  0  0
  8 14  1  0  0  0  0
  9 27  1  0  0  0  0
 10 22  1  0  0  0  0
 11  7  2  0  0  0  0
 12  5  1  0  0  0  0
 12  8  2  0  0  0  0
 13 10  1  0  0  0  0
 14 17  2  0  0  0  0
 14 19  1  0  0  0  0
 15  9  2  0  0  0  0
 15 11  1  0  0  0  0
 16  5  1  0  0  0  0
 17 21  1  0  0  0  0
 18  1  1  0  0  0  0
 18 24  1  0  0  0  0
 19  2  1  0  0  0  0
 20 26  1  0  0  0  0
 20 10  2  0  0  0  0
 21  6  2  0  0  0  0
 22 24  2  0  0  0  0
 26 18  2  0  0  0  0
 27 25  2  0  0  0  0
M  END
>  <MODEL>
8

>  <REMARK>
 VINA RESULT:     -11.2      1.661      2.360
  Name = 
  0 active torsions:
  status: ('A' for Active; 'I' for Inactive)
                            x       y       z     vdW  Elec       q    Type
                         _______ _______ _______ _____ _____    ______ ____

>  <TORSDO>
F 0

$$$$
=
 OpenBabel10272401093D

 27 32  0  0  0  0  0  0  0  0999 V2000
  187.8130  177.8980  143.9210 C   0  0  0  0  0  0  0  0  0  0  0  0
  186.5750  178.1150  143.3880 C   0  0  0  0  0  0  0  0  0  0  0  0
  185.5750  178.3360  145.5060 N   0  0  0  0  0  0  0  0  0  0  0  0
  183.0720  178.7190  141.3030 C   0  0  0  0  0  3  0  0  0  0  0  0
  181.8770  178.9510  141.9900 C   0  0  0  0  0  0  0  0  0  0  0  0
  186.5730  178.0920  142.0290 C   0  0  0  0  0  0  0  0  0  0  0  0
  189.8910  177.4530  140.2680 C   0  0  0  0  0  0  0  0  0  0  0  0
  183.0370  178.7760  144.1160 C   0  0  0  0  0  3  0  0  0  0  0  0
  188.7100  177.7130  142.7700 C   0  0  0  0  0  0  0  0  0  0  0  0
  188.1490  177.9100  148.1010 C   0  0  0  0  0  0  0  0  0  0  0  0
  188.5110  177.7070  140.3440 C   0  0  0  0  0  3  0  0  0  0  0  0
  181.8600  178.9790  143.3890 C   0  0  0  0  0  3  0  0  0  0  0  0
  188.2510  177.9160  149.4860 O   0  0  0  0  0  1  0  0  0  0  0  0
  184.2410  178.5440  143.4440 C   0  0  0  0  0  0  0  0  0  0  0  0
  187.9460  177.8330  141.6100 C   0  0  0  0  0  0  0  0  0  0  0  0
  180.7290  179.1490  141.2990 F   0  0  0  0  0  0  0  0  0  0  0  0
  184.2600  178.5150  142.0070 C   0  0  0  0  0  0  0  0  0  0  0  0
  187.9670  177.8950  145.3090 C   0  0  0  0  0  0  0  0  0  0  0  0
  185.4480  178.3350  144.1440 C   0  0  0  0  0  0  0  0  0  0  0  0
  186.9070  178.1270  147.4950 C   0  0  0  0  0  3  0  0  0  0  0  0
  185.4300  178.2880  141.3220 N   0  0  0  0  0  0  0  0  0  0  0  0
  189.2890  177.6880  147.3210 C   0  0  0  0  0  3  0  0  0  0  0  0
  190.4990  177.3200  139.0270 O   0  0  0  0  0  1  0  0  0  0  0  0
  189.2020  177.6790  145.9250 C   0  0  0  0  0  3  0  0  0  0  0  0
  190.6670  177.3310  141.4430 C   0  0  0  0  0  3  0  0  0  0  0  0
  186.7980  178.1220  146.1020 C   0  0  0  0  0  0  0  0  0  0  0  0
  190.0790  177.4620  142.7130 C   0  0  0  0  0  3  0  0  0  0  0  0
  1 18  1  0  0  0  0
  2  1  2  0  0  0  0
  2 19  1  0  0  0  0
  3 26  1  0  0  0  0
  4  5  2  0  0  0  0
  4 17  1  0  0  0  0
  5 12  1  0  0  0  0
  6  2  1  0  0  0  0
  7 11  2  0  0  0  0
  7 25  1  0  0  0  0
  9  1  1  0  0  0  0
 10 13  1  0  0  0  0
 11 15  1  0  0  0  0
 12  8  2  0  0  0  0
 14  8  1  0  0  0  0
 14 19  1  0  0  0  0
 15  6  1  0  0  0  0
 15  9  2  0  0  0  0
 16  5  1  0  0  0  0
 17 14  2  0  0  0  0
 18 24  2  0  0  0  0
 18 26  1  0  0  0  0
 19  3  2  0  0  0  0
 20 10  1  0  0  0  0
 21 17  1  0  0  0  0
 21  6  2  0  0  0  0
 22 10  2  0  0  0  0
 23  7  1  0  0  0  0
 24 22  1  0  0  0  0
 25 27  2  0  0  0  0
 26 20  2  0  0  0  0
 27  9  1  0  0  0  0
M  END
>  <MODEL>
9

>  <REMARK>
 VINA RESULT:     -11.2      3.290      5.764
  Name = 
  0 active torsions:
  status: ('A' for Active; 'I' for Inactive)
                            x       y       z     vdW  Elec       q    Type
                         _______ _______ _______ _____ _____    ______ ____

>  <TORSDO>
F 0

$$$$
