=
 OpenBabel10272413243D

 32 37  0  0  1  0  0  0  0  0999 V2000
  187.0540  177.6930  142.0890 C   0  0  1  0  0  3  0  0  0  0  0  0
  183.5300  178.8600  145.3550 C   0  0  0  0  0  3  0  0  0  0  0  0
  184.4830  178.8870  146.3750 C   0  0  0  0  0  3  0  0  0  0  0  0
  186.6000  178.6490  139.8790 N   0  0  0  0  0  0  0  0  0  0  0  0
  184.6070  177.9690  141.3480 C   0  0  0  0  0  2  0  0  0  0  0  0
  184.4170  178.5340  139.0440 O   0  0  0  0  0  0  0  0  0  0  0  0
  183.9160  178.5570  144.0470 C   0  0  0  0  0  3  0  0  0  0  0  0
  185.6210  177.9940  142.4640 C   0  0  0  0  0  0  0  0  0  0  0  0
  185.2580  178.2770  143.7360 C   0  0  0  0  0  0  0  0  0  0  0  0
  187.5000  178.0450  144.5520 C   0  0  0  0  0  3  0  0  0  0  0  0
  185.1860  178.4170  140.0340 C   0  0  0  0  0  0  0  0  0  0  0  0
  185.8200  178.6120  146.0860 C   0  0  0  0  0  3  0  0  0  0  0  0
  186.2150  178.3080  144.7800 C   0  0  0  0  0  0  0  0  0  0  0  0
  187.4840  178.7100  141.0400 C   0  0  0  0  0  2  0  0  0  0  0  0
  187.9690  177.7230  143.2360 N   0  0  0  0  0  0  0  0  0  0  0  0
  189.3600  177.3210  143.0270 C   0  0  2  0  0  3  0  0  0  0  0  0
  189.5270  175.7740  143.0910 C   0  0  0  0  0  2  0  0  0  0  0  0
  190.2670  177.2160  145.1950 N   0  0  1  0  0  0  0  0  0  0  0  0
  191.5980  176.6620  145.3750 C   0  0  0  0  0  2  0  0  0  0  0  0
  191.8160  175.5880  144.3110 C   0  0  0  0  0  3  0  0  0  0  0  0
  190.1260  178.5890  145.2120 O   0  0  0  0  0  0  0  0  0  0  0  0
  190.9480  175.2460  143.3180 C   0  0  0  0  0  3  0  0  0  0  0  0
  191.5920  178.3270  143.4590 O   0  0  0  0  0  1  0  0  0  0  0  0
  190.3170  178.0350  143.9770 C   0  0  2  0  0  0  0  0  0  0  0  0
  187.1690  178.7300  138.5980 N   0  0  0  0  0  2  0  0  0  0  0  0
  187.8770  177.3840  136.8190 O   0  0  0  0  0  0  0  0  0  0  0  0
  187.1420  177.3900  138.0190 C   0  0  1  0  0  3  0  0  0  0  0  0
  188.4930  176.7610  137.9200 C   0  0  2  0  0  3  0  0  0  0  0  0
  189.6540  177.6270  138.3980 C   0  0  0  0  0  2  0  0  0  0  0  0
  190.6380  176.7940  139.1430 C   0  0  0  0  0  0  0  0  0  0  0  0
  190.7540  175.5690  138.8790 O   0  0  0  0  0  0  0  0  0  0  0  0
  191.4740  177.3910  140.1270 N   0  0  0  0  0  1  0  0  0  0  0  0
  1 14  1  6  0  0  0
  1  8  1  0  0  0  0
  1 15  1  0  0  0  0
  2  3  1  0  0  0  0
  4 11  1  0  0  0  0
  4 14  1  0  0  0  0
  5  8  1  0  0  0  0
  6 11  2  0  0  0  0
  7  2  2  0  0  0  0
  8  9  2  0  0  0  0
  9  7  1  0  0  0  0
  9 13  1  0  0  0  0
 10 13  2  0  0  0  0
 11  5  1  0  0  0  0
 12  3  2  0  0  0  0
 13 12  1  0  0  0  0
 15 10  1  0  0  0  0
 16 17  1  1  0  0  0
 16 15  1  0  0  0  0
 16 24  1  0  0  0  0
 17 22  1  0  0  0  0
 18 21  1  0  0  0  0
 18 19  1  1  0  0  0
 20 19  1  0  0  0  0
 22 20  2  0  0  0  0
 24 23  1  6  0  0  0
 24 18  1  0  0  0  0
 24 21  1  0  0  0  0
 25  4  1  0  0  0  0
 26 28  1  0  0  0  0
 26 27  1  0  0  0  0
 27 25  1  1  0  0  0
 28 27  1  0  0  0  0
 28 29  1  1  0  0  0
 29 30  1  0  0  0  0
 30 32  1  0  0  0  0
 31 30  2  0  0  0  0
M  END
>  <MODEL>
1

>  <REMARK>
 VINA RESULT:      -8.9      0.000      0.000
  Name = 
  5 active torsions:
  status: ('A' for Active; 'I' for Inactive)
    1  A    between atoms: C_1  and  C_10
    2  A    between atoms: C_6  and  N_31
    3  A    between atoms: N_8  and  N_23
    4  A    between atoms: C_10  and  C_24
    5  A    between atoms: C_19  and  N_23
                            x       y       z     vdW  Elec       q    Type
                         _______ _______ _______ _____ _____    ______ ____

>  <TORSDO>
F 5

$$$$
=
 OpenBabel10272413243D

 32 37  0  0  1  0  0  0  0  0999 V2000
  186.1920  177.6610  141.8860 C   0  0  1  0  0  3  0  0  0  0  0  0
  183.5880  178.9980  145.8710 C   0  0  0  0  0  3  0  0  0  0  0  0
  184.7160  178.8150  146.6710 C   0  0  0  0  0  3  0  0  0  0  0  0
  185.4560  178.8510  139.8750 N   0  0  0  0  0  0  0  0  0  0  0  0
  183.7140  178.3160  141.6840 C   0  0  0  0  0  2  0  0  0  0  0  0
  183.1580  179.0930  139.5040 O   0  0  0  0  0  0  0  0  0  0  0  0
  183.6600  178.7590  144.4960 C   0  0  0  0  0  3  0  0  0  0  0  0
  184.9200  178.1130  142.5650 C   0  0  0  0  0  0  0  0  0  0  0  0
  184.8600  178.3330  143.8990 C   0  0  0  0  0  0  0  0  0  0  0  0
  187.1600  177.7420  144.2190 C   0  0  0  0  0  3  0  0  0  0  0  0
  184.0810  178.7940  140.3060 C   0  0  0  0  0  0  0  0  0  0  0  0
  185.9160  178.3920  146.0970 C   0  0  0  0  0  3  0  0  0  0  0  0
  185.9980  178.1510  144.7230 C   0  0  0  0  0  0  0  0  0  0  0  0
  186.5500  178.6980  140.8300 C   0  0  0  0  0  2  0  0  0  0  0  0
  187.3090  177.4740  142.8190 N   0  0  0  0  0  0  0  0  0  0  0  0
  188.5590  176.9130  142.3050 C   0  0  2  0  0  3  0  0  0  0  0  0
  189.1150  175.7980  143.2390 C   0  0  0  0  0  2  0  0  0  0  0  0
  190.2410  178.2020  143.3280 N   0  0  1  0  0  0  0  0  0  0  0  0
  191.6260  177.7930  143.1820 C   0  0  0  0  0  2  0  0  0  0  0  0
  191.6680  176.2700  143.0850 C   0  0  0  0  0  3  0  0  0  0  0  0
  189.7820  179.2400  142.5410 O   0  0  0  0  0  0  0  0  0  0  0  0
  190.5930  175.4320  143.0670 C   0  0  0  0  0  3  0  0  0  0  0  0
  190.4560  177.7440  140.9300 O   0  0  0  0  0  1  0  0  0  0  0  0
  189.6030  177.9890  142.0220 C   0  0  2  0  0  0  0  0  0  0  0  0
  185.7670  178.9650  138.5110 N   0  0  0  0  0  2  0  0  0  0  0  0
  185.5950  177.6800  136.5610 O   0  0  0  0  0  0  0  0  0  0  0  0
  185.7990  177.6160  137.9530 C   0  0  1  0  0  3  0  0  0  0  0  0
  186.9110  177.4060  136.9770 C   0  0  2  0  0  3  0  0  0  0  0  0
  187.7840  178.6270  136.7090 C   0  0  0  0  0  2  0  0  0  0  0  0
  189.0000  178.5830  137.5680 C   0  0  0  0  0  0  0  0  0  0  0  0
  189.1460  179.4210  138.4960 O   0  0  0  0  0  0  0  0  0  0  0  0
  189.9780  177.5700  137.3640 N   0  0  0  0  0  1  0  0  0  0  0  0
  1 14  1  6  0  0  0
  1  8  1  0  0  0  0
  1 15  1  0  0  0  0
  2  3  1  0  0  0  0
  4 11  1  0  0  0  0
  4 14  1  0  0  0  0
  5  8  1  0  0  0  0
  6 11  2  0  0  0  0
  7  2  2  0  0  0  0
  8  9  2  0  0  0  0
  9  7  1  0  0  0  0
  9 13  1  0  0  0  0
 10 13  2  0  0  0  0
 11  5  1  0  0  0  0
 12  3  2  0  0  0  0
 13 12  1  0  0  0  0
 15 10  1  0  0  0  0
 16 15  1  1  0  0  0
 16 17  1  0  0  0  0
 18 19  1  6  0  0  0
 20 19  1  0  0  0  0
 21 18  1  0  0  0  0
 22 20  2  0  0  0  0
 22 17  1  0  0  0  0
 24 23  1  6  0  0  0
 24 16  1  0  0  0  0
 24 21  1  0  0  0  0
 24 18  1  0  0  0  0
 25  4  1  0  0  0  0
 26 28  1  0  0  0  0
 26 27  1  0  0  0  0
 27 25  1  1  0  0  0
 28 29  1  1  0  0  0
 28 27  1  0  0  0  0
 29 30  1  0  0  0  0
 30 31  2  0  0  0  0
 32 30  1  0  0  0  0
M  END
>  <MODEL>
2

>  <REMARK>
 VINA RESULT:      -8.7      1.585      1.775
  Name = 
  5 active torsions:
  status: ('A' for Active; 'I' for Inactive)
    1  A    between atoms: C_1  and  C_10
    2  A    between atoms: C_6  and  N_31
    3  A    between atoms: N_8  and  N_23
    4  A    between atoms: C_10  and  C_24
    5  A    between atoms: C_19  and  N_23
                            x       y       z     vdW  Elec       q    Type
                         _______ _______ _______ _____ _____    ______ ____

>  <TORSDO>
F 5

$$$$
=
 OpenBabel10272413243D

 32 37  0  0  1  0  0  0  0  0999 V2000
  187.2270  178.5550  141.5460 C   0  0  1  0  0  3  0  0  0  0  0  0
  187.9300  177.7520  136.7180 C   0  0  0  0  0  3  0  0  0  0  0  0
  189.2360  177.3350  136.9770 C   0  0  0  0  0  3  0  0  0  0  0  0
  184.9150  178.1030  142.2180 N   0  0  0  0  0  0  0  0  0  0  0  0
  185.3460  178.9920  139.8490 C   0  0  0  0  0  2  0  0  0  0  0  0
  183.1850  178.8670  140.8390 O   0  0  0  0  0  0  0  0  0  0  0  0
  187.1060  178.1600  137.7700 C   0  0  0  0  0  3  0  0  0  0  0  0
  186.7630  178.5490  140.1080 C   0  0  0  0  0  0  0  0  0  0  0  0
  187.5730  178.1590  139.0970 C   0  0  0  0  0  0  0  0  0  0  0  0
  189.4050  177.7170  140.5770 C   0  0  0  0  0  3  0  0  0  0  0  0
  184.4150  178.6370  140.9760 C   0  0  0  0  0  0  0  0  0  0  0  0
  189.7180  177.3270  138.2860 C   0  0  0  0  0  3  0  0  0  0  0  0
  188.9020  177.7340  139.3450 C   0  0  0  0  0  0  0  0  0  0  0  0
  186.2970  177.6480  142.3400 C   0  0  0  0  0  2  0  0  0  0  0  0
  188.6210  178.1250  141.7050 N   0  0  0  0  0  0  0  0  0  0  0  0
  189.2290  178.2120  143.0330 C   0  0  2  0  0  3  0  0  0  0  0  0
  190.6140  178.9230  142.9850 C   0  0  0  0  0  2  0  0  0  0  0  0
  190.5550  176.2760  143.1940 N   0  0  1  0  0  0  0  0  0  0  0  0
  191.4560  176.1320  144.3250 C   0  0  0  0  0  2  0  0  0  0  0  0
  191.9340  177.5230  144.7340 C   0  0  0  0  0  3  0  0  0  0  0  0
  189.3610  175.5830  143.2220 O   0  0  0  0  0  0  0  0  0  0  0  0
  191.5390  178.7080  144.1880 C   0  0  0  0  0  3  0  0  0  0  0  0
  189.1590  176.8640  145.1200 O   0  0  0  0  0  1  0  0  0  0  0  0
  189.3120  176.8540  143.7220 C   0  0  2  0  0  0  0  0  0  0  0  0
  184.1030  178.0960  143.3630 N   0  0  0  0  0  2  0  0  0  0  0  0
  183.4060  179.4710  145.1260 O   0  0  0  0  0  0  0  0  0  0  0  0
  184.0490  179.4630  143.8730 C   0  0  1  0  0  3  0  0  0  0  0  0
  184.8020  179.6480  145.1500 C   0  0  2  0  0  3  0  0  0  0  0  0
  185.4560  178.3910  145.7120 C   0  0  0  0  0  2  0  0  0  0  0  0
  186.1400  178.7030  146.9970 C   0  0  0  0  0  0  0  0  0  0  0  0
  185.8510  179.7540  147.6260 O   0  0  0  0  0  0  0  0  0  0  0  0
  187.0940  177.7930  147.5340 N   0  0  0  0  0  1  0  0  0  0  0  0
  1 15  1  0  0  0  0
  1 14  1  1  0  0  0
  2  3  1  0  0  0  0
  2  7  2  0  0  0  0
  3 12  2  0  0  0  0
  4 14  1  0  0  0  0
  4 25  1  0  0  0  0
  5  8  1  0  0  0  0
  5 11  1  0  0  0  0
  6 11  2  0  0  0  0
  7  9  1  0  0  0  0
  8  1  1  0  0  0  0
  9 13  1  0  0  0  0
  9  8  2  0  0  0  0
 10 15  1  0  0  0  0
 11  4  1  0  0  0  0
 12 13  1  0  0  0  0
 13 10  2  0  0  0  0
 16 15  1  6  0  0  0
 16 24  1  0  0  0  0
 17 16  1  0  0  0  0
 17 22  1  0  0  0  0
 18 21  1  0  0  0  0
 18 24  1  0  0  0  0
 18 19  1  1  0  0  0
 19 20  1  0  0  0  0
 21 24  1  0  0  0  0
 22 20  2  0  0  0  0
 24 23  1  1  0  0  0
 26 28  1  0  0  0  0
 27 25  1  1  0  0  0
 27 26  1  0  0  0  0
 27 28  1  0  0  0  0
 28 29  1  1  0  0  0
 29 30  1  0  0  0  0
 30 32  1  0  0  0  0
 30 31  2  0  0  0  0
M  END
>  <MODEL>
3

>  <REMARK>
 VINA RESULT:      -8.6      2.241      5.899
  Name = 
  5 active torsions:
  status: ('A' for Active; 'I' for Inactive)
    1  A    between atoms: C_1  and  C_10
    2  A    between atoms: C_6  and  N_31
    3  A    between atoms: N_8  and  N_23
    4  A    between atoms: C_10  and  C_24
    5  A    between atoms: C_19  and  N_23
                            x       y       z     vdW  Elec       q    Type
                         _______ _______ _______ _____ _____    ______ ____

>  <TORSDO>
F 5

$$$$
=
 OpenBabel10272413243D

 32 37  0  0  1  0  0  0  0  0999 V2000
  187.6210  177.7340  142.3560 C   0  0  1  0  0  3  0  0  0  0  0  0
  183.7120  178.7760  145.1970 C   0  0  0  0  0  3  0  0  0  0  0  0
  184.5320  178.7830  146.3260 C   0  0  0  0  0  3  0  0  0  0  0  0
  187.4290  178.7490  140.1340 N   0  0  0  0  0  0  0  0  0  0  0  0
  185.2800  178.0100  141.3290 C   0  0  0  0  0  2  0  0  0  0  0  0
  185.3660  178.6390  139.0350 O   0  0  0  0  0  0  0  0  0  0  0  0
  184.2570  178.5150  143.9380 C   0  0  0  0  0  3  0  0  0  0  0  0
  186.1490  178.0110  142.5600 C   0  0  0  0  0  0  0  0  0  0  0  0
  185.6310  178.2550  143.7860 C   0  0  0  0  0  0  0  0  0  0  0  0
  187.7590  178.0190  144.8630 C   0  0  0  0  0  3  0  0  0  0  0  0
  186.0090  178.5010  140.1080 C   0  0  0  0  0  0  0  0  0  0  0  0
  185.8980  178.5270  146.1960 C   0  0  0  0  0  3  0  0  0  0  0  0
  186.4530  178.2650  144.9400 C   0  0  0  0  0  0  0  0  0  0  0  0
  188.1630  178.7840  141.3950 C   0  0  0  0  0  2  0  0  0  0  0  0
  188.3890  177.7390  143.6060 N   0  0  0  0  0  0  0  0  0  0  0  0
  189.8000  177.3560  143.5580 C   0  0  2  0  0  3  0  0  0  0  0  0
  189.9720  175.8190  143.3740 C   0  0  0  0  0  2  0  0  0  0  0  0
  190.3430  176.8550  145.7920 N   0  0  1  0  0  0  0  0  0  0  0  0
  191.6330  176.2540  146.0840 C   0  0  0  0  0  2  0  0  0  0  0  0
  192.0330  175.3800  144.8980 C   0  0  0  0  0  3  0  0  0  0  0  0
  190.1860  178.2060  146.0270 O   0  0  0  0  0  0  0  0  0  0  0  0
  191.3430  175.2340  143.7320 C   0  0  0  0  0  3  0  0  0  0  0  0
  191.9200  178.2310  144.5170 O   0  0  0  0  0  1  0  0  0  0  0  0
  190.5810  177.8740  144.7610 C   0  0  2  0  0  0  0  0  0  0  0  0
  188.1480  178.8710  138.9350 N   0  0  0  0  0  2  0  0  0  0  0  0
  188.8670  176.7260  138.3340 O   0  0  0  0  0  0  0  0  0  0  0  0
  189.2500  177.9150  138.9830 C   0  0  1  0  0  3  0  0  0  0  0  0
  189.7710  177.5440  137.6320 C   0  0  2  0  0  3  0  0  0  0  0  0
  189.0490  178.1890  136.4540 C   0  0  0  0  0  2  0  0  0  0  0  0
  189.1820  177.3310  135.2440 C   0  0  0  0  0  0  0  0  0  0  0  0
  188.3010  177.3660  134.3460 O   0  0  0  0  0  0  0  0  0  0  0  0
  190.3250  176.4990  135.0850 N   0  0  0  0  0  1  0  0  0  0  0  0
  1 14  1  6  0  0  0
  1  8  1  0  0  0  0
  1 15  1  0  0  0  0
  2  3  1  0  0  0  0
  4 14  1  0  0  0  0
  5  8  1  0  0  0  0
  6 11  2  0  0  0  0
  7  2  2  0  0  0  0
  8  9  2  0  0  0  0
  9  7  1  0  0  0  0
  9 13  1  0  0  0  0
 10 13  2  0  0  0  0
 11  4  1  0  0  0  0
 11  5  1  0  0  0  0
 12  3  2  0  0  0  0
 13 12  1  0  0  0  0
 15 10  1  0  0  0  0
 16 17  1  1  0  0  0
 16 15  1  0  0  0  0
 16 24  1  0  0  0  0
 17 22  1  0  0  0  0
 18 21  1  0  0  0  0
 18 19  1  1  0  0  0
 20 19  1  0  0  0  0
 22 20  2  0  0  0  0
 24 23  1  6  0  0  0
 24 18  1  0  0  0  0
 24 21  1  0  0  0  0
 25  4  1  0  0  0  0
 26 27  1  0  0  0  0
 27 25  1  6  0  0  0
 28 29  1  6  0  0  0
 28 26  1  0  0  0  0
 28 27  1  0  0  0  0
 30 29  1  0  0  0  0
 31 30  2  0  0  0  0
 32 30  1  0  0  0  0
M  END
>  <MODEL>
4

>  <REMARK>
 VINA RESULT:      -8.5      1.397      1.791
  Name = 
  5 active torsions:
  status: ('A' for Active; 'I' for Inactive)
    1  A    between atoms: C_1  and  C_10
    2  A    between atoms: C_6  and  N_31
    3  A    between atoms: N_8  and  N_23
    4  A    between atoms: C_10  and  C_24
    5  A    between atoms: C_19  and  N_23
                            x       y       z     vdW  Elec       q    Type
                         _______ _______ _______ _____ _____    ______ ____

>  <TORSDO>
F 5

$$$$
=
 OpenBabel10272413243D

 32 37  0  0  1  0  0  0  0  0999 V2000
  188.1720  177.6710  141.2310 C   0  0  1  0  0  3  0  0  0  0  0  0
  190.2450  176.9280  145.6580 C   0  0  0  0  0  3  0  0  0  0  0  0
  191.5120  177.0130  145.0800 C   0  0  0  0  0  3  0  0  0  0  0  0
  186.0700  178.9180  141.4080 N   0  0  0  0  0  0  0  0  0  0  0  0
  186.7220  177.3450  143.3300 C   0  0  0  0  0  2  0  0  0  0  0  0
  184.5680  178.3330  143.1040 O   0  0  0  0  0  0  0  0  0  0  0  0
  189.1040  177.0640  144.8630 C   0  0  0  0  0  3  0  0  0  0  0  0
  188.0980  177.4240  142.7210 C   0  0  0  0  0  0  0  0  0  0  0  0
  189.2100  177.2870  143.4790 C   0  0  0  0  0  0  0  0  0  0  0  0
  190.6700  177.5730  141.6000 C   0  0  0  0  0  3  0  0  0  0  0  0
  185.7300  178.2350  142.6310 C   0  0  0  0  0  0  0  0  0  0  0  0
  191.6390  177.2340  143.7080 C   0  0  0  0  0  3  0  0  0  0  0  0
  190.5030  177.3710  142.9050 C   0  0  0  0  0  0  0  0  0  0  0  0
  187.4520  178.9810  140.9400 C   0  0  0  0  0  2  0  0  0  0  0  0
  189.5470  177.7180  140.7210 N   0  0  0  0  0  0  0  0  0  0  0  0
  189.7500  177.8200  139.2760 C   0  0  2  0  0  3  0  0  0  0  0  0
  188.3970  177.8610  138.5060 C   0  0  0  0  0  2  0  0  0  0  0  0
  189.7730  175.5890  138.5310 N   0  0  1  0  0  0  0  0  0  0  0  0
  189.7720  175.3240  137.1030 C   0  0  0  0  0  2  0  0  0  0  0  0
  188.9940  176.4410  136.4110 C   0  0  0  0  0  3  0  0  0  0  0  0
  190.9700  175.4810  139.2120 O   0  0  0  0  0  0  0  0  0  0  0  0
  188.4490  177.5380  137.0090 C   0  0  0  0  0  3  0  0  0  0  0  0
  191.5000  177.0970  137.6650 O   0  0  0  0  0  1  0  0  0  0  0  0
  190.6740  176.7300  138.7430 C   0  0  2  0  0  0  0  0  0  0  0  0
  185.0610  179.4580  140.5940 N   0  0  0  0  0  2  0  0  0  0  0  0
  183.8520  177.6780  139.6710 O   0  0  0  0  0  0  0  0  0  0  0  0
  184.9090  178.5780  139.4390 C   0  0  1  0  0  3  0  0  0  0  0  0
  183.5850  178.7160  138.7600 C   0  0  2  0  0  3  0  0  0  0  0  0
  182.6220  179.7090  139.4030 C   0  0  0  0  0  2  0  0  0  0  0  0
  181.9210  180.4930  138.3480 C   0  0  0  0  0  0  0  0  0  0  0  0
  181.8690  181.7480  138.4260 O   0  0  0  0  0  0  0  0  0  0  0  0
  181.3420  179.8250  137.2330 N   0  0  0  0  0  1  0  0  0  0  0  0
  1 14  1  1  0  0  0
  1  8  1  0  0  0  0
  3  2  1  0  0  0  0
  4 11  1  0  0  0  0
  7  2  2  0  0  0  0
  8  5  1  0  0  0  0
  8  9  2  0  0  0  0
  9  7  1  0  0  0  0
 10 13  2  0  0  0  0
 11  6  2  0  0  0  0
 11  5  1  0  0  0  0
 12  3  2  0  0  0  0
 13  9  1  0  0  0  0
 13 12  1  0  0  0  0
 14  4  1  0  0  0  0
 15  1  1  0  0  0  0
 15 10  1  0  0  0  0
 16 17  1  6  0  0  0
 16 15  1  0  0  0  0
 18 19  1  6  0  0  0
 18 24  1  0  0  0  0
 18 21  1  0  0  0  0
 20 22  2  0  0  0  0
 20 19  1  0  0  0  0
 22 17  1  0  0  0  0
 24 23  1  6  0  0  0
 24 21  1  0  0  0  0
 24 16  1  0  0  0  0
 25  4  1  0  0  0  0
 27 26  1  0  0  0  0
 27 25  1  1  0  0  0
 28 29  1  1  0  0  0
 28 27  1  0  0  0  0
 28 26  1  0  0  0  0
 30 31  2  0  0  0  0
 30 29  1  0  0  0  0
 32 30  1  0  0  0  0
M  END
>  <MODEL>
5

>  <REMARK>
 VINA RESULT:      -8.5      2.471      5.944
  Name = 
  5 active torsions:
  status: ('A' for Active; 'I' for Inactive)
    1  A    between atoms: C_1  and  C_10
    2  A    between atoms: C_6  and  N_31
    3  A    between atoms: N_8  and  N_23
    4  A    between atoms: C_10  and  C_24
    5  A    between atoms: C_19  and  N_23
                            x       y       z     vdW  Elec       q    Type
                         _______ _______ _______ _____ _____    ______ ____

>  <TORSDO>
F 5

$$$$
=
 OpenBabel10272413243D

 32 37  0  0  1  0  0  0  0  0999 V2000
  188.2960  177.6110  141.5090 C   0  0  1  0  0  3  0  0  0  0  0  0
  191.3600  176.2640  137.8700 C   0  0  0  0  0  3  0  0  0  0  0  0
  190.5600  176.9370  136.9460 C   0  0  0  0  0  3  0  0  0  0  0  0
  189.4900  177.9760  143.6170 N   0  0  0  0  0  0  0  0  0  0  0  0
  190.3840  176.1940  141.9990 C   0  0  0  0  0  2  0  0  0  0  0  0
  191.1340  176.4330  144.2460 O   0  0  0  0  0  0  0  0  0  0  0  0
  191.0080  176.2540  139.2220 C   0  0  0  0  0  3  0  0  0  0  0  0
  189.5260  176.9070  140.9860 C   0  0  0  0  0  0  0  0  0  0  0  0
  189.8520  176.9160  139.6730 C   0  0  0  0  0  0  0  0  0  0  0  0
  187.9390  178.2350  139.0860 C   0  0  0  0  0  3  0  0  0  0  0  0
  190.3800  176.8760  143.3400 C   0  0  0  0  0  0  0  0  0  0  0  0
  189.4090  177.6000  137.3730 C   0  0  0  0  0  3  0  0  0  0  0  0
  189.0490  177.5960  138.7230 C   0  0  0  0  0  0  0  0  0  0  0  0
  188.7490  178.6320  142.5440 C   0  0  0  0  0  2  0  0  0  0  0  0
  187.5120  178.2650  140.4540 N   0  0  0  0  0  0  0  0  0  0  0  0
  186.2300  178.8700  140.8130 C   0  0  2  0  0  3  0  0  0  0  0  0
  185.6030  178.1890  142.0650 C   0  0  0  0  0  2  0  0  0  0  0  0
  184.6340  177.5740  139.6700 N   0  0  1  0  0  0  0  0  0  0  0  0
  183.2240  177.7850  139.9510 C   0  0  0  0  0  2  0  0  0  0  0  0
  183.0860  178.2050  141.4120 C   0  0  0  0  0  3  0  0  0  0  0  0
  185.1580  178.1270  138.5190 O   0  0  0  0  0  0  0  0  0  0  0  0
  184.1050  178.4160  142.2930 C   0  0  0  0  0  3  0  0  0  0  0  0
  184.3910  180.0100  139.5890 O   0  0  0  0  0  1  0  0  0  0  0  0
  185.2570  178.9030  139.6380 C   0  0  2  0  0  0  0  0  0  0  0  0
  189.2500  178.3760  144.9410 N   0  0  0  0  0  2  0  0  0  0  0  0
  188.2050  177.6500  146.9060 O   0  0  0  0  0  0  0  0  0  0  0  0
  188.6880  177.2310  145.6520 C   0  0  1  0  0  3  0  0  0  0  0  0
  187.2270  177.3690  145.9340 C   0  0  2  0  0  3  0  0  0  0  0  0
  186.5920  178.6760  145.4720 C   0  0  0  0  0  2  0  0  0  0  0  0
  185.4350  179.0170  146.3450 C   0  0  0  0  0  0  0  0  0  0  0  0
  185.6290  179.5380  147.4730 O   0  0  0  0  0  0  0  0  0  0  0  0
  184.1070  178.7890  145.8860 N   0  0  0  0  0  1  0  0  0  0  0  0
  1 14  1  1  0  0  0
  2  7  2  0  0  0  0
  3 12  2  0  0  0  0
  3  2  1  0  0  0  0
  4 25  1  0  0  0  0
  5 11  1  0  0  0  0
  7  9  1  0  0  0  0
  8  1  1  0  0  0  0
  8  5  1  0  0  0  0
  9  8  2  0  0  0  0
 10 15  1  0  0  0  0
 11  4  1  0  0  0  0
 11  6  2  0  0  0  0
 12 13  1  0  0  0  0
 13 10  2  0  0  0  0
 13  9  1  0  0  0  0
 14  4  1  0  0  0  0
 15  1  1  0  0  0  0
 16 15  1  6  0  0  0
 16 17  1  0  0  0  0
 17 22  1  0  0  0  0
 18 19  1  6  0  0  0
 19 20  1  0  0  0  0
 20 22  2  0  0  0  0
 21 24  1  0  0  0  0
 21 18  1  0  0  0  0
 24 23  1  1  0  0  0
 24 18  1  0  0  0  0
 24 16  1  0  0  0  0
 27 25  1  6  0  0  0
 27 28  1  0  0  0  0
 27 26  1  0  0  0  0
 28 29  1  6  0  0  0
 28 26  1  0  0  0  0
 29 30  1  0  0  0  0
 30 31  2  0  0  0  0
 32 30  1  0  0  0  0
M  END
>  <MODEL>
6

>  <REMARK>
 VINA RESULT:      -8.3      1.959      7.718
  Name = 
  5 active torsions:
  status: ('A' for Active; 'I' for Inactive)
    1  A    between atoms: C_1  and  C_10
    2  A    between atoms: C_6  and  N_31
    3  A    between atoms: N_8  and  N_23
    4  A    between atoms: C_10  and  C_24
    5  A    between atoms: C_19  and  N_23
                            x       y       z     vdW  Elec       q    Type
                         _______ _______ _______ _____ _____    ______ ____

>  <TORSDO>
F 5

$$$$
=
 OpenBabel10272413243D

 32 37  0  0  1  0  0  0  0  0999 V2000
  186.2020  178.6900  143.7940 C   0  0  1  0  0  3  0  0  0  0  0  0
  181.6860  178.7210  141.7830 C   0  0  0  0  0  3  0  0  0  0  0  0
  182.2480  178.5600  140.5160 C   0  0  0  0  0  3  0  0  0  0  0  0
  186.2010  177.6680  146.0220 N   0  0  0  0  0  0  0  0  0  0  0  0
  184.1060  178.9440  145.2620 C   0  0  0  0  0  2  0  0  0  0  0  0
  184.4760  178.2270  147.5010 O   0  0  0  0  0  0  0  0  0  0  0  0
  182.5100  178.7970  142.9080 C   0  0  0  0  0  3  0  0  0  0  0  0
  184.6960  178.7810  143.8850 C   0  0  0  0  0  0  0  0  0  0  0  0
  183.9090  178.7140  142.7870 C   0  0  0  0  0  0  0  0  0  0  0  0
  185.7830  178.4750  141.3120 C   0  0  0  0  0  3  0  0  0  0  0  0
  184.9150  178.2480  146.3220 C   0  0  0  0  0  0  0  0  0  0  0  0
  183.6340  178.4760  140.3740 C   0  0  0  0  0  3  0  0  0  0  0  0
  184.4670  178.5520  141.4940 C   0  0  0  0  0  0  0  0  0  0  0  0
  186.6490  177.5060  144.6410 C   0  0  0  0  0  2  0  0  0  0  0  0
  186.6910  178.5490  142.4190 N   0  0  0  0  0  0  0  0  0  0  0  0
  188.1350  178.5810  142.1850 C   0  0  2  0  0  3  0  0  0  0  0  0
  188.4820  178.3130  140.6910 C   0  0  0  0  0  2  0  0  0  0  0  0
  188.8180  176.3450  142.4440 N   0  0  1  0  0  0  0  0  0  0  0  0
  190.1810  175.9810  142.0960 C   0  0  0  0  0  2  0  0  0  0  0  0
  190.6370  176.8800  140.9490 C   0  0  0  0  0  3  0  0  0  0  0  0
  188.5100  176.5110  143.7790 O   0  0  0  0  0  0  0  0  0  0  0  0
  189.9250  177.8970  140.3850 C   0  0  0  0  0  3  0  0  0  0  0  0
  190.1700  178.0810  143.5220 O   0  0  0  0  0  1  0  0  0  0  0  0
  188.8940  177.6460  143.1220 C   0  0  2  0  0  0  0  0  0  0  0  0
  187.0860  177.3330  147.0580 N   0  0  0  0  0  2  0  0  0  0  0  0
  188.6030  178.3190  148.5430 O   0  0  0  0  0  0  0  0  0  0  0  0
  187.9070  178.5080  147.3340 C   0  0  1  0  0  3  0  0  0  0  0  0
  189.3710  178.2120  147.3690 C   0  0  2  0  0  3  0  0  0  0  0  0
  189.7480  176.7510  147.1500 C   0  0  0  0  0  2  0  0  0  0  0  0
  191.2210  176.6260  146.9720 C   0  0  0  0  0  0  0  0  0  0  0  0
  191.9950  176.8580  147.9380 O   0  0  0  0  0  0  0  0  0  0  0  0
  191.7530  176.2070  145.7210 N   0  0  0  0  0  1  0  0  0  0  0  0
  1  8  1  0  0  0  0
  1 14  1  1  0  0  0
  2  7  2  0  0  0  0
  3  2  1  0  0  0  0
  4 11  1  0  0  0  0
  4 25  1  0  0  0  0
  5 11  1  0  0  0  0
  8  5  1  0  0  0  0
  9  7  1  0  0  0  0
  9  8  2  0  0  0  0
 10 13  2  0  0  0  0
 10 15  1  0  0  0  0
 11  6  2  0  0  0  0
 12  3  2  0  0  0  0
 12 13  1  0  0  0  0
 13  9  1  0  0  0  0
 14  4  1  0  0  0  0
 15  1  1  0  0  0  0
 16 17  1  6  0  0  0
 16 15  1  0  0  0  0
 16 24  1  0  0  0  0
 18 19  1  1  0  0  0
 18 24  1  0  0  0  0
 18 21  1  0  0  0  0
 20 19  1  0  0  0  0
 22 17  1  0  0  0  0
 22 20  2  0  0  0  0
 24 23  1  1  0  0  0
 24 21  1  0  0  0  0
 27 25  1  6  0  0  0
 27 28  1  0  0  0  0
 27 26  1  0  0  0  0
 28 29  1  6  0  0  0
 28 26  1  0  0  0  0
 30 29  1  0  0  0  0
 30 31  2  0  0  0  0
 32 30  1  0  0  0  0
M  END
>  <MODEL>
7

>  <REMARK>
 VINA RESULT:      -8.0      2.647      5.744
  Name = 
  5 active torsions:
  status: ('A' for Active; 'I' for Inactive)
    1  A    between atoms: C_1  and  C_10
    2  A    between atoms: C_6  and  N_31
    3  A    between atoms: N_8  and  N_23
    4  A    between atoms: C_10  and  C_24
    5  A    between atoms: C_19  and  N_23
                            x       y       z     vdW  Elec       q    Type
                         _______ _______ _______ _____ _____    ______ ____

>  <TORSDO>
F 5

$$$$
=
 OpenBabel10272413243D

 32 37  0  0  1  0  0  0  0  0999 V2000
  188.6340  177.6290  143.3960 C   0  0  1  0  0  3  0  0  0  0  0  0
  191.9820  176.8660  146.9540 C   0  0  0  0  0  3  0  0  0  0  0  0
  190.9610  176.5390  147.8460 C   0  0  0  0  0  3  0  0  0  0  0  0
  189.5000  177.0210  141.1850 N   0  0  0  0  0  0  0  0  0  0  0  0
  191.1450  177.9340  142.9330 C   0  0  0  0  0  2  0  0  0  0  0  0
  191.6800  177.6630  140.6290 O   0  0  0  0  0  0  0  0  0  0  0  0
  191.6730  177.2190  145.6380 C   0  0  0  0  0  3  0  0  0  0  0  0
  190.0540  177.5880  143.9130 C   0  0  0  0  0  0  0  0  0  0  0  0
  190.3400  177.2520  145.1920 C   0  0  0  0  0  0  0  0  0  0  0  0
  188.0300  176.9380  145.7510 C   0  0  0  0  0  3  0  0  0  0  0  0
  190.8090  177.5180  141.5260 C   0  0  0  0  0  0  0  0  0  0  0  0
  189.6310  176.5660  147.4230 C   0  0  0  0  0  3  0  0  0  0  0  0
  189.3120  176.9190  146.1090 C   0  0  0  0  0  0  0  0  0  0  0  0
  188.5380  176.6610  142.2240 C   0  0  0  0  0  2  0  0  0  0  0  0
  187.6370  177.2940  144.4190 N   0  0  0  0  0  0  0  0  0  0  0  0
  186.2200  177.4250  144.0790 C   0  0  2  0  0  3  0  0  0  0  0  0
  186.0230  178.0380  142.6610 C   0  0  0  0  0  2  0  0  0  0  0  0
  185.6510  179.5980  144.7790 N   0  0  1  0  0  0  0  0  0  0  0  0
  184.3490  180.1330  144.4220 C   0  0  0  0  0  2  0  0  0  0  0  0
  183.9430  179.5430  143.0740 C   0  0  0  0  0  3  0  0  0  0  0  0
  185.8290  179.1220  146.0630 O   0  0  0  0  0  0  0  0  0  0  0  0
  184.6400  178.6210  142.3510 C   0  0  0  0  0  3  0  0  0  0  0  0
  184.1080  177.7790  145.3420 O   0  0  0  0  0  1  0  0  0  0  0  0
  185.4390  178.1900  145.1430 C   0  0  2  0  0  0  0  0  0  0  0  0
  189.0920  176.9610  139.8430 N   0  0  0  0  0  2  0  0  0  0  0  0
  188.6070  178.8880  138.6040 O   0  0  0  0  0  0  0  0  0  0  0  0
  188.1340  178.0420  139.6250 C   0  0  1  0  0  3  0  0  0  0  0  0
  187.5410  178.0390  138.2540 C   0  0  2  0  0  3  0  0  0  0  0  0
  188.0570  176.9480  137.3210 C   0  0  0  0  0  2  0  0  0  0  0  0
  188.2300  177.4940  135.9460 C   0  0  0  0  0  0  0  0  0  0  0  0
  189.3570  177.4480  135.3870 O   0  0  0  0  0  0  0  0  0  0  0  0
  187.1120  178.0320  135.2490 N   0  0  0  0  0  1  0  0  0  0  0  0
  1 14  1  6  0  0  0
  1  8  1  0  0  0  0
  1 15  1  0  0  0  0
  2  3  1  0  0  0  0
  4 11  1  0  0  0  0
  4 14  1  0  0  0  0
  5  8  1  0  0  0  0
  6 11  2  0  0  0  0
  7  2  2  0  0  0  0
  8  9  2  0  0  0  0
  9  7  1  0  0  0  0
  9 13  1  0  0  0  0
 10 13  2  0  0  0  0
 11  5  1  0  0  0  0
 12  3  2  0  0  0  0
 13 12  1  0  0  0  0
 15 10  1  0  0  0  0
 16 17  1  6  0  0  0
 16 15  1  0  0  0  0
 16 24  1  0  0  0  0
 18 19  1  1  0  0  0
 18 24  1  0  0  0  0
 18 21  1  0  0  0  0
 20 19  1  0  0  0  0
 22 17  1  0  0  0  0
 22 20  2  0  0  0  0
 24 23  1  1  0  0  0
 24 21  1  0  0  0  0
 25  4  1  0  0  0  0
 26 27  1  0  0  0  0
 27 25  1  6  0  0  0
 28 29  1  6  0  0  0
 28 26  1  0  0  0  0
 28 27  1  0  0  0  0
 30 29  1  0  0  0  0
 31 30  2  0  0  0  0
 32 30  1  0  0  0  0
M  END
>  <MODEL>
8

>  <REMARK>
 VINA RESULT:      -7.8      2.270      5.305
  Name = 
  5 active torsions:
  status: ('A' for Active; 'I' for Inactive)
    1  A    between atoms: C_1  and  C_10
    2  A    between atoms: C_6  and  N_31
    3  A    between atoms: N_8  and  N_23
    4  A    between atoms: C_10  and  C_24
    5  A    between atoms: C_19  and  N_23
                            x       y       z     vdW  Elec       q    Type
                         _______ _______ _______ _____ _____    ______ ____

>  <TORSDO>
F 5

$$$$
=
 OpenBabel10272413243D

 32 37  0  0  1  0  0  0  0  0999 V2000
  187.6550  177.1420  142.3890 C   0  0  1  0  0  3  0  0  0  0  0  0
  190.5060  177.2340  146.4270 C   0  0  0  0  0  3  0  0  0  0  0  0
  191.6410  177.0760  145.6320 C   0  0  0  0  0  3  0  0  0  0  0  0
  185.6830  178.5760  142.6330 N   0  0  0  0  0  0  0  0  0  0  0  0
  186.6230  177.4250  144.7270 C   0  0  0  0  0  2  0  0  0  0  0  0
  184.5110  178.5210  144.6570 O   0  0  0  0  0  0  0  0  0  0  0  0
  189.2410  177.2880  145.8380 C   0  0  0  0  0  3  0  0  0  0  0  0
  187.8590  177.2440  143.8830 C   0  0  0  0  0  0  0  0  0  0  0  0
  189.0880  177.1840  144.4430 C   0  0  0  0  0  0  0  0  0  0  0  0
  190.1710  176.9110  142.3230 C   0  0  0  0  0  3  0  0  0  0  0  0
  185.5560  178.2180  144.0230 C   0  0  0  0  0  0  0  0  0  0  0  0
  191.5110  176.9710  144.2460 C   0  0  0  0  0  3  0  0  0  0  0  0
  190.2490  177.0230  143.6460 C   0  0  0  0  0  0  0  0  0  0  0  0
  186.9510  178.4110  141.9270 C   0  0  0  0  0  2  0  0  0  0  0  0
  188.9070  176.9530  141.6470 N   0  0  0  0  0  0  0  0  0  0  0  0
  188.8330  176.7100  140.2070 C   0  0  2  0  0  3  0  0  0  0  0  0
  190.2400  176.4320  139.5980 C   0  0  0  0  0  2  0  0  0  0  0  0
  189.1540  178.8300  139.2400 N   0  0  1  0  0  0  0  0  0  0  0  0
  189.3260  178.9280  137.8010 C   0  0  0  0  0  2  0  0  0  0  0  0
  190.0260  177.6610  137.3160 C   0  0  0  0  0  3  0  0  0  0  0  0
  187.9190  179.1470  139.7710 O   0  0  0  0  0  0  0  0  0  0  0  0
  190.3730  176.5860  138.0790 C   0  0  0  0  0  3  0  0  0  0  0  0
  187.3490  177.4330  138.3480 O   0  0  0  0  0  1  0  0  0  0  0  0
  188.1050  177.8280  139.4670 C   0  0  2  0  0  0  0  0  0  0  0  0
  184.5620  179.0060  141.9060 N   0  0  0  0  0  2  0  0  0  0  0  0
  182.6330  178.0750  140.9600 O   0  0  0  0  0  0  0  0  0  0  0  0
  183.9910  177.8360  141.2450 C   0  0  1  0  0  3  0  0  0  0  0  0
  183.5080  178.1170  139.8590 C   0  0  2  0  0  3  0  0  0  0  0  0
  183.6580  179.5610  139.3940 C   0  0  0  0  0  2  0  0  0  0  0  0
  182.5080  179.9400  138.5270 C   0  0  0  0  0  0  0  0  0  0  0  0
  181.9530  179.0730  137.8030 O   0  0  0  0  0  0  0  0  0  0  0  0
  182.0110  181.2730  138.5480 N   0  0  0  0  0  1  0  0  0  0  0  0
  1 14  1  6  0  0  0
  1  8  1  0  0  0  0
  3  2  1  0  0  0  0
  4 11  1  0  0  0  0
  7  2  2  0  0  0  0
  8  9  2  0  0  0  0
  8  5  1  0  0  0  0
  9  7  1  0  0  0  0
 10 13  2  0  0  0  0
 11  6  2  0  0  0  0
 11  5  1  0  0  0  0
 12  3  2  0  0  0  0
 13 12  1  0  0  0  0
 13  9  1  0  0  0  0
 14  4  1  0  0  0  0
 15 10  1  0  0  0  0
 15  1  1  0  0  0  0
 16 17  1  6  0  0  0
 16 15  1  0  0  0  0
 18 19  1  6  0  0  0
 18 24  1  0  0  0  0
 18 21  1  0  0  0  0
 20 19  1  0  0  0  0
 20 22  2  0  0  0  0
 22 17  1  0  0  0  0
 24 23  1  6  0  0  0
 24 21  1  0  0  0  0
 24 16  1  0  0  0  0
 25  4  1  0  0  0  0
 26 27  1  0  0  0  0
 27 25  1  1  0  0  0
 28 29  1  1  0  0  0
 28 26  1  0  0  0  0
 28 27  1  0  0  0  0
 30 32  1  0  0  0  0
 30 29  1  0  0  0  0
 31 30  2  0  0  0  0
M  END
>  <MODEL>
9

>  <REMARK>
 VINA RESULT:      -7.7      2.316      5.761
  Name = 
  5 active torsions:
  status: ('A' for Active; 'I' for Inactive)
    1  A    between atoms: C_1  and  C_10
    2  A    between atoms: C_6  and  N_31
    3  A    between atoms: N_8  and  N_23
    4  A    between atoms: C_10  and  C_24
    5  A    between atoms: C_19  and  N_23
                            x       y       z     vdW  Elec       q    Type
                         _______ _______ _______ _____ _____    ______ ____

>  <TORSDO>
F 5

$$$$
