=
 OpenBabel10272415073D

 34 38  0  0  1  0  0  0  0  0999 V2000
  188.1990  177.6760  141.1550 C   0  0  0  0  0  0  0  0  0  0  0  0
  188.0910  177.4990  144.8560 C   0  0  0  0  0  3  0  0  0  0  0  0
  189.8610  177.6140  143.4090 N   0  0  0  0  0  2  0  0  0  0  0  0
  190.0400  177.2910  138.5930 C   0  0  0  0  0  0  0  0  0  0  0  0
  187.4850  177.7830  140.1210 O   0  0  0  0  0  0  0  0  0  0  0  0
  190.3900  177.4280  139.9750 N   0  0  0  0  0  0  0  0  0  0  0  0
  191.6510  177.4280  140.3960 N   0  0  0  0  0  0  0  0  0  0  0  0
  190.6830  177.9330  137.7210 O   0  0  0  0  0  0  0  0  0  0  0  0
  190.3650  177.5500  142.1580 C   0  0  0  0  0  0  0  0  0  0  0  0
  189.5820  177.5060  141.0530 C   0  0  0  0  0  0  0  0  0  0  0  0
  191.6780  177.4990  141.7500 C   0  0  0  0  0  3  0  0  0  0  0  0
  186.6910  177.2190  145.2810 C   0  0  0  0  0  2  0  0  0  0  0  0
  185.7550  178.3210  144.9410 C   0  0  0  0  0  0  0  0  0  0  0  0
  185.5670  178.6860  143.6760 C   0  0  0  0  0  3  0  0  0  0  0  0
  188.5090  177.6770  143.5990 C   0  0  0  0  0  0  0  0  0  0  0  0
  186.3570  178.2420  142.5130 C   0  0  0  0  0  3  0  0  0  0  0  0
  187.6360  177.8130  142.4560 C   0  0  0  0  0  0  0  0  0  0  0  0
  184.9080  178.8910  146.0040 C   0  0  0  0  0  0  0  0  0  0  0  0
  185.4870  179.3720  147.1730 O   0  0  0  0  0  1  0  0  0  0  0  0
  183.6570  178.9550  145.8660 O   0  0  0  0  0  0  0  0  0  0  0  0
  188.8070  176.1010  138.0620 S   0  0  0  0  0  0  0  0  0  0  0  0
  190.6190  173.1120  135.9470 C   0  0  0  0  0  3  0  0  0  0  0  0
  191.3770  175.1030  137.8170 C   0  0  0  0  0  3  0  0  0  0  0  0
  192.9570  172.4400  135.9430 N   0  0  0  0  0  0  0  0  0  0  0  0
  191.9420  173.2320  136.3700 C   0  0  0  0  0  0  0  0  0  0  0  0
  193.9470  174.1050  137.5870 S   0  0  0  0  0  0  0  0  0  0  0  0
  192.3020  174.2100  137.2840 C   0  0  0  0  0  0  0  0  0  0  0  0
  194.1260  172.7910  136.5340 C   0  0  0  0  0  0  0  0  0  0  0  0
  190.0400  174.9890  137.4030 C   0  0  0  0  0  0  0  0  0  0  0  0
  189.6650  174.0010  136.4710 C   0  0  0  0  0  3  0  0  0  0  0  0
  195.4340  172.1330  136.2390 C   0  0  1  0  0  3  0  0  0  0  0  0
  196.2520  172.9830  135.4920 O   0  0  0  0  0  1  0  0  0  0  0  0
  196.1390  171.7000  137.5180 C   0  0  0  0  0  2  0  0  0  0  0  0
  195.2700  170.9830  138.3440 O   0  0  0  0  0  1  0  0  0  0  0  0
  1 17  1  0  0  0  0
  2 12  1  0  0  0  0
  3 15  1  0  0  0  0
  4  6  1  0  0  0  0
  5  1  2  0  0  0  0
  6  7  1  0  0  0  0
  6 10  1  0  0  0  0
  7 11  2  0  0  0  0
  8  4  2  0  0  0  0
  9  3  1  0  0  0  0
 10  1  1  0  0  0  0
 10  9  2  0  0  0  0
 11  9  1  0  0  0  0
 13 12  1  0  0  0  0
 13 18  1  0  0  0  0
 14 13  2  0  0  0  0
 15  2  2  0  0  0  0
 16 14  1  0  0  0  0
 17 16  2  0  0  0  0
 17 15  1  0  0  0  0
 18 19  1  0  0  0  0
 20 18  2  0  0  0  0
 21  4  1  0  0  0  0
 22 25  2  0  0  0  0
 22 30  1  0  0  0  0
 24 25  1  0  0  0  0
 24 28  2  0  0  0  0
 25 27  1  0  0  0  0
 27 26  1  0  0  0  0
 27 23  2  0  0  0  0
 28 26  1  0  0  0  0
 29 23  1  0  0  0  0
 29 21  1  0  0  0  0
 30 29  2  0  0  0  0
 31 32  1  1  0  0  0
 31 28  1  0  0  0  0
 31 33  1  0  0  0  0
 33 34  1  0  0  0  0
M  END
>  <MODEL>
1

>  <REMARK>
 VINA RESULT:      -8.4      0.000      0.000
  Name = 
  5 active torsions:
  status: ('A' for Active; 'I' for Inactive)
    1  A    between atoms: C_3  and  C_25
    2  A    between atoms: C_7  and  C_11
    3  A    between atoms: C_7  and  C_29
    4  A    between atoms: C_8  and  S_18
    5  A    between atoms: S_18  and  C_30
                            x       y       z     vdW  Elec       q    Type
                         _______ _______ _______ _____ _____    ______ ____

>  <TORSDO>
F 5

$$$$
=
 OpenBabel10272415073D

 34 38  0  0  1  0  0  0  0  0999 V2000
  183.9260  178.6110  142.6590 C   0  0  0  0  0  0  0  0  0  0  0  0
  187.4160  177.6390  143.4440 C   0  0  0  0  0  3  0  0  0  0  0  0
  186.4780  178.4410  141.5170 N   0  0  0  0  0  2  0  0  0  0  0  0
  181.8590  179.1870  140.3150 C   0  0  0  0  0  0  0  0  0  0  0  0
  182.7800  178.7750  143.1590 O   0  0  0  0  0  0  0  0  0  0  0  0
  183.2880  179.1030  140.2920 N   0  0  0  0  0  0  0  0  0  0  0  0
  183.9970  179.2910  139.1830 N   0  0  0  0  0  0  0  0  0  0  0  0
  181.2800  180.1230  139.7030 O   0  0  0  0  0  0  0  0  0  0  0  0
  185.3910  178.7530  140.7770 C   0  0  0  0  0  0  0  0  0  0  0  0
  184.1370  178.7730  141.2880 C   0  0  0  0  0  0  0  0  0  0  0  0
  185.3110  179.0780  139.4430 C   0  0  0  0  0  3  0  0  0  0  0  0
  187.4390  176.9760  144.7780 C   0  0  0  0  0  2  0  0  0  0  0  0
  187.0600  177.8930  145.8830 C   0  0  0  0  0  0  0  0  0  0  0  0
  185.8590  178.4660  145.9070 C   0  0  0  0  0  3  0  0  0  0  0  0
  186.3410  178.1640  142.8480 C   0  0  0  0  0  0  0  0  0  0  0  0
  184.8680  178.4610  144.8150 C   0  0  0  0  0  3  0  0  0  0  0  0
  185.0560  178.3440  143.4830 C   0  0  0  0  0  0  0  0  0  0  0  0
  187.9600  178.0260  147.0410 C   0  0  0  0  0  0  0  0  0  0  0  0
  189.3390  178.0210  146.8550 O   0  0  0  0  0  0  0  0  0  0  0  0
  187.4980  178.1520  148.2070 O   0  0  0  0  0  1  0  0  0  0  0  0
  180.8660  177.8960  141.0660 S   0  0  0  0  0  0  0  0  0  0  0  0
  180.1160  175.7430  137.6760 C   0  0  0  0  0  3  0  0  0  0  0  0
  182.2930  176.1700  139.4400 C   0  0  0  0  0  3  0  0  0  0  0  0
  181.6000  174.2610  136.4430 N   0  0  0  0  0  0  0  0  0  0  0  0
  181.3410  175.1080  137.4690 C   0  0  0  0  0  0  0  0  0  0  0  0
  183.7240  174.4370  137.8260 S   0  0  0  0  0  0  0  0  0  0  0  0
  182.3990  175.3260  138.3380 C   0  0  0  0  0  0  0  0  0  0  0  0
  182.8730  173.7980  136.5100 C   0  0  0  0  0  0  0  0  0  0  0  0
  181.0630  176.8090  139.6610 C   0  0  0  0  0  0  0  0  0  0  0  0
  179.9820  176.5990  138.7820 C   0  0  0  0  0  3  0  0  0  0  0  0
  183.4730  172.8770  135.4970 C   0  0  1  0  0  3  0  0  0  0  0  0
  184.3740  173.5650  134.6830 O   0  0  0  0  0  1  0  0  0  0  0  0
  184.1540  171.6880  136.1630 C   0  0  0  0  0  2  0  0  0  0  0  0
  183.2440  170.9670  136.9400 O   0  0  0  0  0  1  0  0  0  0  0  0
  1  5  2  0  0  0  0
  1 17  1  0  0  0  0
  2 12  1  0  0  0  0
  3 15  1  0  0  0  0
  4 21  1  0  0  0  0
  6  4  1  0  0  0  0
  6 10  1  0  0  0  0
  7 11  2  0  0  0  0
  7  6  1  0  0  0  0
  8  4  2  0  0  0  0
  9 10  2  0  0  0  0
  9  3  1  0  0  0  0
 10  1  1  0  0  0  0
 11  9  1  0  0  0  0
 12 13  1  0  0  0  0
 13 14  2  0  0  0  0
 13 18  1  0  0  0  0
 15  2  2  0  0  0  0
 15 17  1  0  0  0  0
 16 14  1  0  0  0  0
 17 16  2  0  0  0  0
 18 20  1  0  0  0  0
 19 18  2  0  0  0  0
 22 30  1  0  0  0  0
 23 29  1  0  0  0  0
 24 28  2  0  0  0  0
 24 25  1  0  0  0  0
 25 22  2  0  0  0  0
 25 27  1  0  0  0  0
 26 27  1  0  0  0  0
 27 23  2  0  0  0  0
 28 26  1  0  0  0  0
 29 21  1  0  0  0  0
 30 29  2  0  0  0  0
 31 32  1  1  0  0  0
 31 33  1  0  0  0  0
 31 28  1  0  0  0  0
 33 34  1  0  0  0  0
M  END
>  <MODEL>
2

>  <REMARK>
 VINA RESULT:      -8.3      6.574      8.013
  Name = 
  5 active torsions:
  status: ('A' for Active; 'I' for Inactive)
    1  A    between atoms: C_3  and  C_25
    2  A    between atoms: C_7  and  C_11
    3  A    between atoms: C_7  and  C_29
    4  A    between atoms: C_8  and  S_18
    5  A    between atoms: S_18  and  C_30
                            x       y       z     vdW  Elec       q    Type
                         _______ _______ _______ _____ _____    ______ ____

>  <TORSDO>
F 5

$$$$
=
 OpenBabel10272415073D

 34 38  0  0  1  0  0  0  0  0999 V2000
  186.9290  178.3390  140.8040 C   0  0  0  0  0  0  0  0  0  0  0  0
  188.0970  177.0790  144.0880 C   0  0  0  0  0  3  0  0  0  0  0  0
  189.2240  177.4290  142.1260 N   0  0  0  0  0  2  0  0  0  0  0  0
  187.6200  178.5400  137.7070 C   0  0  0  0  0  0  0  0  0  0  0  0
  185.9370  178.8260  140.1960 O   0  0  0  0  0  0  0  0  0  0  0  0
  188.4550  178.2190  138.8260 N   0  0  0  0  0  0  0  0  0  0  0  0
  189.7520  177.9580  138.6970 N   0  0  0  0  0  0  0  0  0  0  0  0
  188.0360  179.3390  136.8280 O   0  0  0  0  0  0  0  0  0  0  0  0
  189.2280  177.6860  140.8000 C   0  0  0  0  0  0  0  0  0  0  0  0
  188.1160  178.0590  140.1220 C   0  0  0  0  0  0  0  0  0  0  0  0
  190.2690  177.6180  139.9040 C   0  0  0  0  0  3  0  0  0  0  0  0
  186.9120  176.8370  144.9570 C   0  0  0  0  0  2  0  0  0  0  0  0
  186.1760  178.0850  145.2860 C   0  0  0  0  0  0  0  0  0  0  0  0
  185.6370  178.8290  144.3240 C   0  0  0  0  0  3  0  0  0  0  0  0
  188.0730  177.5770  142.8480 C   0  0  0  0  0  0  0  0  0  0  0  0
  185.8520  178.6690  142.8740 C   0  0  0  0  0  3  0  0  0  0  0  0
  186.9040  178.1410  142.2130 C   0  0  0  0  0  0  0  0  0  0  0  0
  185.9020  178.4000  146.6990 C   0  0  0  0  0  0  0  0  0  0  0  0
  186.9330  178.3670  147.6330 O   0  0  0  0  0  1  0  0  0  0  0  0
  184.7390  178.7070  147.0770 O   0  0  0  0  0  0  0  0  0  0  0  0
  186.0540  177.7030  137.4500 S   0  0  0  0  0  0  0  0  0  0  0  0
  188.0440  175.6800  134.5120 C   0  0  0  0  0  3  0  0  0  0  0  0
  186.7700  175.0730  136.9700 C   0  0  0  0  0  3  0  0  0  0  0  0
  188.5250  173.3000  134.3470 N   0  0  0  0  0  0  0  0  0  0  0  0
  187.9910  174.3700  134.9870 C   0  0  0  0  0  0  0  0  0  0  0  0
  187.4720  172.4390  136.4930 S   0  0  0  0  0  0  0  0  0  0  0  0
  187.3660  174.0850  136.1920 C   0  0  0  0  0  0  0  0  0  0  0  0
  188.3100  172.1600  135.0490 C   0  0  0  0  0  0  0  0  0  0  0  0
  186.8120  176.3950  136.4980 C   0  0  0  0  0  0  0  0  0  0  0  0
  187.4490  176.6960  135.2770 C   0  0  0  0  0  3  0  0  0  0  0  0
  188.8130  170.8190  134.6240 C   0  0  1  0  0  3  0  0  0  0  0  0
  190.2060  170.7700  134.7070 O   0  0  0  0  0  1  0  0  0  0  0  0
  188.1880  169.7030  135.4520 C   0  0  0  0  0  2  0  0  0  0  0  0
  187.2360  169.0060  134.7050 O   0  0  0  0  0  1  0  0  0  0  0  0
  1 17  1  0  0  0  0
  2 12  1  0  0  0  0
  3 15  1  0  0  0  0
  4  6  1  0  0  0  0
  5  1  2  0  0  0  0
  6 10  1  0  0  0  0
  7  6  1  0  0  0  0
  7 11  2  0  0  0  0
  8  4  2  0  0  0  0
  9  3  1  0  0  0  0
 10  9  2  0  0  0  0
 10  1  1  0  0  0  0
 11  9  1  0  0  0  0
 12 13  1  0  0  0  0
 13 18  1  0  0  0  0
 14 13  2  0  0  0  0
 15  2  2  0  0  0  0
 16 14  1  0  0  0  0
 17 15  1  0  0  0  0
 17 16  2  0  0  0  0
 18 20  2  0  0  0  0
 18 19  1  0  0  0  0
 21  4  1  0  0  0  0
 22 25  2  0  0  0  0
 22 30  1  0  0  0  0
 24 25  1  0  0  0  0
 24 28  2  0  0  0  0
 25 27  1  0  0  0  0
 27 26  1  0  0  0  0
 27 23  2  0  0  0  0
 28 26  1  0  0  0  0
 29 23  1  0  0  0  0
 29 21  1  0  0  0  0
 30 29  2  0  0  0  0
 31 32  1  1  0  0  0
 31 28  1  0  0  0  0
 31 33  1  0  0  0  0
 34 33  1  0  0  0  0
M  END
>  <MODEL>
3

>  <REMARK>
 VINA RESULT:      -8.3      3.533      3.946
  Name = 
  5 active torsions:
  status: ('A' for Active; 'I' for Inactive)
    1  A    between atoms: C_3  and  C_25
    2  A    between atoms: C_7  and  C_11
    3  A    between atoms: C_7  and  C_29
    4  A    between atoms: C_8  and  S_18
    5  A    between atoms: S_18  and  C_30
                            x       y       z     vdW  Elec       q    Type
                         _______ _______ _______ _____ _____    ______ ____

>  <TORSDO>
F 5

$$$$
=
 OpenBabel10272415073D

 34 38  0  0  1  0  0  0  0  0999 V2000
  187.4180  178.2600  140.6850 C   0  0  0  0  0  0  0  0  0  0  0  0
  187.9650  177.1480  144.1790 C   0  0  0  0  0  3  0  0  0  0  0  0
  189.4280  177.4050  142.4380 N   0  0  0  0  0  2  0  0  0  0  0  0
  188.6550  178.3160  137.7570 C   0  0  0  0  0  0  0  0  0  0  0  0
  186.5560  178.7220  139.8880 O   0  0  0  0  0  0  0  0  0  0  0  0
  189.2720  178.0450  139.0210 N   0  0  0  0  0  0  0  0  0  0  0  0
  190.5690  177.7740  139.1390 N   0  0  0  0  0  0  0  0  0  0  0  0
  189.2300  179.0730  136.9320 O   0  0  0  0  0  0  0  0  0  0  0  0
  189.6730  177.6010  141.1240 C   0  0  0  0  0  0  0  0  0  0  0  0
  188.7050  177.9450  140.2410 C   0  0  0  0  0  0  0  0  0  0  0  0
  190.8570  177.4890  140.4330 C   0  0  0  0  0  3  0  0  0  0  0  0
  186.6400  176.9510  144.8310 C   0  0  0  0  0  2  0  0  0  0  0  0
  185.8710  178.2140  144.9670 C   0  0  0  0  0  0  0  0  0  0  0  0
  185.5210  178.9150  143.8910 C   0  0  0  0  0  3  0  0  0  0  0  0
  188.1680  177.5900  142.9330 C   0  0  0  0  0  0  0  0  0  0  0  0
  185.9910  178.6880  142.5110 C   0  0  0  0  0  3  0  0  0  0  0  0
  187.1390  178.1270  142.0750 C   0  0  0  0  0  0  0  0  0  0  0  0
  185.3510  178.5950  146.2920 C   0  0  0  0  0  0  0  0  0  0  0  0
  186.2120  178.6690  147.3820 O   0  0  0  0  0  1  0  0  0  0  0  0
  184.1300  178.8620  146.4530 O   0  0  0  0  0  0  0  0  0  0  0  0
  187.1510  177.4730  137.2610 S   0  0  0  0  0  0  0  0  0  0  0  0
  188.1920  173.5690  136.6550 C   0  0  0  0  0  3  0  0  0  0  0  0
  189.2630  176.1300  136.0800 C   0  0  0  0  0  3  0  0  0  0  0  0
  190.1710  172.6630  135.5670 N   0  0  0  0  0  0  0  0  0  0  0  0
  189.4110  173.7040  135.9900 C   0  0  0  0  0  0  0  0  0  0  0  0
  191.3850  174.7960  134.9070 S   0  0  0  0  0  0  0  0  0  0  0  0
  189.9240  174.9610  135.7130 C   0  0  0  0  0  0  0  0  0  0  0  0
  191.3000  173.1060  134.9600 C   0  0  0  0  0  0  0  0  0  0  0  0
  188.0390  176.0070  136.7560 C   0  0  0  0  0  0  0  0  0  0  0  0
  187.5050  174.7330  137.0380 C   0  0  0  0  0  3  0  0  0  0  0  0
  192.3220  172.2010  134.3510 C   0  0  1  0  0  3  0  0  0  0  0  0
  193.5920  172.7740  134.4300 O   0  0  0  0  0  1  0  0  0  0  0  0
  192.3120  170.8280  135.0100 C   0  0  0  0  0  2  0  0  0  0  0  0
  193.3260  170.7300  135.9660 O   0  0  0  0  0  1  0  0  0  0  0  0
  1 17  1  0  0  0  0
  2 12  1  0  0  0  0
  3 15  1  0  0  0  0
  4  6  1  0  0  0  0
  5  1  2  0  0  0  0
  6  7  1  0  0  0  0
  6 10  1  0  0  0  0
  7 11  2  0  0  0  0
  8  4  2  0  0  0  0
  9  3  1  0  0  0  0
 10  1  1  0  0  0  0
 10  9  2  0  0  0  0
 11  9  1  0  0  0  0
 12 13  1  0  0  0  0
 13 18  1  0  0  0  0
 14 13  2  0  0  0  0
 15  2  2  0  0  0  0
 16 14  1  0  0  0  0
 17 16  2  0  0  0  0
 17 15  1  0  0  0  0
 18 20  2  0  0  0  0
 18 19  1  0  0  0  0
 21  4  1  0  0  0  0
 22 30  1  0  0  0  0
 23 29  1  0  0  0  0
 24 25  1  0  0  0  0
 25 22  2  0  0  0  0
 26 28  1  0  0  0  0
 26 27  1  0  0  0  0
 27 25  1  0  0  0  0
 27 23  2  0  0  0  0
 28 24  2  0  0  0  0
 29 30  2  0  0  0  0
 29 21  1  0  0  0  0
 31 32  1  1  0  0  0
 31 28  1  0  0  0  0
 31 33  1  0  0  0  0
 33 34  1  0  0  0  0
M  END
>  <MODEL>
4

>  <REMARK>
 VINA RESULT:      -8.3      1.981      2.166
  Name = 
  5 active torsions:
  status: ('A' for Active; 'I' for Inactive)
    1  A    between atoms: C_3  and  C_25
    2  A    between atoms: C_7  and  C_11
    3  A    between atoms: C_7  and  C_29
    4  A    between atoms: C_8  and  S_18
    5  A    between atoms: S_18  and  C_30
                            x       y       z     vdW  Elec       q    Type
                         _______ _______ _______ _____ _____    ______ ____

>  <TORSDO>
F 5

$$$$
=
 OpenBabel10272415073D

 34 38  0  0  1  0  0  0  0  0999 V2000
  184.6710  178.4490  142.5570 C   0  0  0  0  0  0  0  0  0  0  0  0
  184.9130  178.9020  146.2280 C   0  0  0  0  0  3  0  0  0  0  0  0
  183.0920  178.7880  144.8450 N   0  0  0  0  0  2  0  0  0  0  0  0
  182.7720  178.7500  140.0250 C   0  0  0  0  0  0  0  0  0  0  0  0
  185.3420  178.2170  141.5140 O   0  0  0  0  0  0  0  0  0  0  0  0
  182.4610  178.7430  141.4230 N   0  0  0  0  0  0  0  0  0  0  0  0
  181.2170  178.8540  141.8790 N   0  0  0  0  0  0  0  0  0  0  0  0
  182.0630  178.0850  139.2260 O   0  0  0  0  0  0  0  0  0  0  0  0
  182.5510  178.7880  143.6070 C   0  0  0  0  0  0  0  0  0  0  0  0
  183.2980  178.6970  142.4810 C   0  0  0  0  0  0  0  0  0  0  0  0
  181.2310  178.8900  143.2350 C   0  0  0  0  0  3  0  0  0  0  0  0
  186.3410  179.1250  146.5890 C   0  0  0  0  0  2  0  0  0  0  0  0
  187.1970  177.9430  146.3110 C   0  0  0  0  0  0  0  0  0  0  0  0
  187.3200  177.4710  145.0730 C   0  0  0  0  0  3  0  0  0  0  0  0
  184.4440  178.6550  145.0010 C   0  0  0  0  0  0  0  0  0  0  0  0
  186.5190  177.8730  143.9020 C   0  0  0  0  0  3  0  0  0  0  0  0
  185.2680  178.3770  143.8480 C   0  0  0  0  0  0  0  0  0  0  0  0
  188.0420  177.4040  147.3900 C   0  0  0  0  0  0  0  0  0  0  0  0
  189.1360  176.6020  147.0830 O   0  0  0  0  0  0  0  0  0  0  0  0
  187.7910  177.6660  148.5970 O   0  0  0  0  0  1  0  0  0  0  0  0
  184.0570  179.8150  139.3680 S   0  0  0  0  0  0  0  0  0  0  0  0
  184.5860  176.4970  137.0430 C   0  0  0  0  0  3  0  0  0  0  0  0
  186.2150  178.3500  138.4390 C   0  0  0  0  0  3  0  0  0  0  0  0
  186.6570  175.4000  136.3890 N   0  0  0  0  0  0  0  0  0  0  0  0
  185.9760  176.3770  137.0380 C   0  0  0  0  0  0  0  0  0  0  0  0
  188.3770  176.8850  137.5250 S   0  0  0  0  0  0  0  0  0  0  0  0
  186.7620  177.2900  137.7240 C   0  0  0  0  0  0  0  0  0  0  0  0
  187.9930  175.5400  136.5720 C   0  0  0  0  0  0  0  0  0  0  0  0
  184.8170  178.4790  138.4560 C   0  0  0  0  0  0  0  0  0  0  0  0
  184.0080  177.5590  137.7590 C   0  0  0  0  0  3  0  0  0  0  0  0
  189.0130  174.6430  135.9490 C   0  0  1  0  0  3  0  0  0  0  0  0
  190.1260  175.3790  135.5370 O   0  0  0  0  0  1  0  0  0  0  0  0
  189.4300  173.5300  136.9020 C   0  0  0  0  0  2  0  0  0  0  0  0
  190.4810  173.9470  137.7210 O   0  0  0  0  0  1  0  0  0  0  0  0
  1 17  1  0  0  0  0
  2 12  1  0  0  0  0
  3 15  1  0  0  0  0
  4  6  1  0  0  0  0
  5  1  2  0  0  0  0
  6  7  1  0  0  0  0
  6 10  1  0  0  0  0
  7 11  2  0  0  0  0
  8  4  2  0  0  0  0
  9  3  1  0  0  0  0
 10  1  1  0  0  0  0
 10  9  2  0  0  0  0
 11  9  1  0  0  0  0
 13 12  1  0  0  0  0
 13 18  1  0  0  0  0
 14 13  2  0  0  0  0
 15  2  2  0  0  0  0
 16 14  1  0  0  0  0
 17 16  2  0  0  0  0
 17 15  1  0  0  0  0
 18 20  1  0  0  0  0
 19 18  2  0  0  0  0
 21  4  1  0  0  0  0
 22 30  1  0  0  0  0
 23 29  1  0  0  0  0
 24 28  2  0  0  0  0
 24 25  1  0  0  0  0
 25 22  2  0  0  0  0
 25 27  1  0  0  0  0
 26 27  1  0  0  0  0
 27 23  2  0  0  0  0
 28 26  1  0  0  0  0
 29 21  1  0  0  0  0
 30 29  2  0  0  0  0
 31 32  1  1  0  0  0
 31 28  1  0  0  0  0
 31 33  1  0  0  0  0
 33 34  1  0  0  0  0
M  END
>  <MODEL>
5

>  <REMARK>
 VINA RESULT:      -8.2      4.106      6.250
  Name = 
  5 active torsions:
  status: ('A' for Active; 'I' for Inactive)
    1  A    between atoms: C_3  and  C_25
    2  A    between atoms: C_7  and  C_11
    3  A    between atoms: C_7  and  C_29
    4  A    between atoms: C_8  and  S_18
    5  A    between atoms: S_18  and  C_30
                            x       y       z     vdW  Elec       q    Type
                         _______ _______ _______ _____ _____    ______ ____

>  <TORSDO>
F 5

$$$$
=
 OpenBabel10272415073D

 34 38  0  0  1  0  0  0  0  0999 V2000
  184.7480  178.3500  142.8100 C   0  0  0  0  0  0  0  0  0  0  0  0
  185.2270  179.0320  146.4220 C   0  0  0  0  0  3  0  0  0  0  0  0
  183.3330  179.0030  145.1370 N   0  0  0  0  0  2  0  0  0  0  0  0
  182.7560  178.6630  140.3530 C   0  0  0  0  0  0  0  0  0  0  0  0
  185.3380  177.9820  141.7580 O   0  0  0  0  0  0  0  0  0  0  0  0
  182.5200  178.7830  141.7600 N   0  0  0  0  0  0  0  0  0  0  0  0
  181.3180  179.0490  142.2630 N   0  0  0  0  0  0  0  0  0  0  0  0
  181.9450  178.0170  139.6380 O   0  0  0  0  0  0  0  0  0  0  0  0
  182.7300  178.9710  143.9290 C   0  0  0  0  0  0  0  0  0  0  0  0
  183.4040  178.7280  142.7790 C   0  0  0  0  0  0  0  0  0  0  0  0
  181.4080  179.1770  143.6110 C   0  0  0  0  0  3  0  0  0  0  0  0
  186.6870  179.1360  146.6990 C   0  0  0  0  0  2  0  0  0  0  0  0
  187.4100  177.8590  146.4710 C   0  0  0  0  0  0  0  0  0  0  0  0
  187.4210  177.2920  145.2670 C   0  0  0  0  0  3  0  0  0  0  0  0
  184.6720  178.7480  145.2390 C   0  0  0  0  0  0  0  0  0  0  0  0
  186.6020  177.6890  144.1070 C   0  0  0  0  0  3  0  0  0  0  0  0
  185.4030  178.3100  144.0740 C   0  0  0  0  0  0  0  0  0  0  0  0
  188.2560  177.3150  147.5470 C   0  0  0  0  0  0  0  0  0  0  0  0
  189.3720  176.5460  147.2340 O   0  0  0  0  0  0  0  0  0  0  0  0
  187.9850  177.5420  148.7570 O   0  0  0  0  0  1  0  0  0  0  0  0
  184.1000  179.5470  139.5600 S   0  0  0  0  0  0  0  0  0  0  0  0
  186.2610  176.9450  137.2670 C   0  0  0  0  0  3  0  0  0  0  0  0
  183.6550  177.0850  138.3750 C   0  0  0  0  0  3  0  0  0  0  0  0
  185.5850  174.8020  136.3330 N   0  0  0  0  0  0  0  0  0  0  0  0
  185.3370  175.9220  137.0580 C   0  0  0  0  0  0  0  0  0  0  0  0
  183.1980  174.6290  137.1850 S   0  0  0  0  0  0  0  0  0  0  0  0
  184.0660  176.0010  137.6050 C   0  0  0  0  0  0  0  0  0  0  0  0
  184.4960  173.9960  136.3020 C   0  0  0  0  0  0  0  0  0  0  0  0
  184.5750  178.1240  138.5880 C   0  0  0  0  0  0  0  0  0  0  0  0
  185.8710  178.0520  138.0400 C   0  0  0  0  0  3  0  0  0  0  0  0
  184.4680  172.6680  135.6180 C   0  0  1  0  0  3  0  0  0  0  0  0
  185.5730  171.9000  135.9940 O   0  0  0  0  0  1  0  0  0  0  0  0
  183.1740  171.9190  135.9090 C   0  0  0  0  0  2  0  0  0  0  0  0
  183.3410  171.0380  136.9790 O   0  0  0  0  0  1  0  0  0  0  0  0
  1 17  1  0  0  0  0
  2 12  1  0  0  0  0
  3 15  1  0  0  0  0
  4  6  1  0  0  0  0
  5  1  2  0  0  0  0
  6  7  1  0  0  0  0
  6 10  1  0  0  0  0
  7 11  2  0  0  0  0
  8  4  2  0  0  0  0
  9  3  1  0  0  0  0
 10  1  1  0  0  0  0
 10  9  2  0  0  0  0
 11  9  1  0  0  0  0
 13 12  1  0  0  0  0
 13 18  1  0  0  0  0
 14 13  2  0  0  0  0
 15  2  2  0  0  0  0
 16 14  1  0  0  0  0
 17 16  2  0  0  0  0
 17 15  1  0  0  0  0
 18 20  1  0  0  0  0
 19 18  2  0  0  0  0
 21  4  1  0  0  0  0
 22 30  1  0  0  0  0
 23 29  1  0  0  0  0
 24 25  1  0  0  0  0
 25 22  2  0  0  0  0
 25 27  1  0  0  0  0
 26 27  1  0  0  0  0
 27 23  2  0  0  0  0
 28 24  2  0  0  0  0
 28 26  1  0  0  0  0
 29 21  1  0  0  0  0
 30 29  2  0  0  0  0
 31 33  1  0  0  0  0
 31 32  1  1  0  0  0
 31 28  1  0  0  0  0
 33 34  1  0  0  0  0
M  END
>  <MODEL>
6

>  <REMARK>
 VINA RESULT:      -7.9      6.130      7.454
  Name = 
  5 active torsions:
  status: ('A' for Active; 'I' for Inactive)
    1  A    between atoms: C_3  and  C_25
    2  A    between atoms: C_7  and  C_11
    3  A    between atoms: C_7  and  C_29
    4  A    between atoms: C_8  and  S_18
    5  A    between atoms: S_18  and  C_30
                            x       y       z     vdW  Elec       q    Type
                         _______ _______ _______ _____ _____    ______ ____

>  <TORSDO>
F 5

$$$$
=
 OpenBabel10272415073D

 34 38  0  0  1  0  0  0  0  0999 V2000
  185.8280  178.5150  142.9120 C   0  0  0  0  0  0  0  0  0  0  0  0
  188.7800  177.2150  144.7390 C   0  0  0  0  0  3  0  0  0  0  0  0
  188.5340  177.8830  142.5630 N   0  0  0  0  0  2  0  0  0  0  0  0
  184.5870  179.0520  140.0350 C   0  0  0  0  0  0  0  0  0  0  0  0
  184.6290  178.8840  143.0480 O   0  0  0  0  0  0  0  0  0  0  0  0
  185.9380  178.7860  140.4280 N   0  0  0  0  0  0  0  0  0  0  0  0
  186.9410  178.7430  139.5560 N   0  0  0  0  0  0  0  0  0  0  0  0
  184.3490  179.9710  139.2080 O   0  0  0  0  0  0  0  0  0  0  0  0
  187.7510  178.2360  141.5200 C   0  0  0  0  0  0  0  0  0  0  0  0
  186.4240  178.4780  141.6490 C   0  0  0  0  0  0  0  0  0  0  0  0
  188.0860  178.4000  140.1970 C   0  0  0  0  0  3  0  0  0  0  0  0
  188.3380  176.7260  146.0740 C   0  0  0  0  0  2  0  0  0  0  0  0
  187.8220  177.8130  146.9440 C   0  0  0  0  0  0  0  0  0  0  0  0
  186.7650  178.5320  146.5760 C   0  0  0  0  0  3  0  0  0  0  0  0
  188.0020  177.7940  143.8190 C   0  0  0  0  0  0  0  0  0  0  0  0
  186.1170  178.5170  145.2520 C   0  0  0  0  0  3  0  0  0  0  0  0
  186.6380  178.2120  144.0440 C   0  0  0  0  0  0  0  0  0  0  0  0
  188.3860  177.9750  148.2960 C   0  0  0  0  0  0  0  0  0  0  0  0
  189.5160  178.7630  148.4890 O   0  0  0  0  0  0  0  0  0  0  0  0
  187.8530  177.4100  149.2880 O   0  0  0  0  0  1  0  0  0  0  0  0
  183.2390  178.0000  140.5780 S   0  0  0  0  0  0  0  0  0  0  0  0
  183.8300  176.9060  136.6860 C   0  0  0  0  0  3  0  0  0  0  0  0
  182.6530  175.7940  139.0130 C   0  0  0  0  0  3  0  0  0  0  0  0
  183.1750  174.8540  135.5570 N   0  0  0  0  0  0  0  0  0  0  0  0
  183.2390  175.6430  136.6570 C   0  0  0  0  0  0  0  0  0  0  0  0
  182.0520  173.5890  137.4530 S   0  0  0  0  0  0  0  0  0  0  0  0
  182.6680  175.1090  137.8020 C   0  0  0  0  0  0  0  0  0  0  0  0
  182.5380  173.6890  135.8340 C   0  0  0  0  0  0  0  0  0  0  0  0
  183.2390  177.0690  139.0530 C   0  0  0  0  0  0  0  0  0  0  0  0
  183.8260  177.6200  137.8970 C   0  0  0  0  0  3  0  0  0  0  0  0
  182.3450  172.5930  134.8370 C   0  0  1  0  0  3  0  0  0  0  0  0
  183.1620  171.5030  135.1440 O   0  0  0  0  0  1  0  0  0  0  0  0
  180.8860  172.1620  134.7610 C   0  0  0  0  0  2  0  0  0  0  0  0
  180.7450  170.8210  135.1270 O   0  0  0  0  0  1  0  0  0  0  0  0
  1  5  2  0  0  0  0
  1 17  1  0  0  0  0
  2 12  1  0  0  0  0
  3 15  1  0  0  0  0
  4  6  1  0  0  0  0
  4 21  1  0  0  0  0
  6 10  1  0  0  0  0
  7 11  2  0  0  0  0
  7  6  1  0  0  0  0
  8  4  2  0  0  0  0
  9 10  2  0  0  0  0
  9  3  1  0  0  0  0
 10  1  1  0  0  0  0
 11  9  1  0  0  0  0
 12 13  1  0  0  0  0
 13 18  1  0  0  0  0
 14 13  2  0  0  0  0
 15 17  1  0  0  0  0
 15  2  2  0  0  0  0
 16 14  1  0  0  0  0
 17 16  2  0  0  0  0
 18 19  2  0  0  0  0
 18 20  1  0  0  0  0
 22 30  1  0  0  0  0
 23 29  1  0  0  0  0
 24 28  2  0  0  0  0
 24 25  1  0  0  0  0
 25 22  2  0  0  0  0
 25 27  1  0  0  0  0
 26 27  1  0  0  0  0
 27 23  2  0  0  0  0
 28 26  1  0  0  0  0
 29 21  1  0  0  0  0
 30 29  2  0  0  0  0
 31 32  1  1  0  0  0
 31 28  1  0  0  0  0
 33 31  1  0  0  0  0
 33 34  1  0  0  0  0
M  END
>  <MODEL>
7

>  <REMARK>
 VINA RESULT:      -7.8      6.186      7.556
  Name = 
  5 active torsions:
  status: ('A' for Active; 'I' for Inactive)
    1  A    between atoms: C_3  and  C_25
    2  A    between atoms: C_7  and  C_11
    3  A    between atoms: C_7  and  C_29
    4  A    between atoms: C_8  and  S_18
    5  A    between atoms: S_18  and  C_30
                            x       y       z     vdW  Elec       q    Type
                         _______ _______ _______ _____ _____    ______ ____

>  <TORSDO>
F 5

$$$$
=
 OpenBabel10272415073D

 34 38  0  0  1  0  0  0  0  0999 V2000
  189.1980  177.5740  141.2550 C   0  0  0  0  0  0  0  0  0  0  0  0
  189.2790  178.0650  144.9290 C   0  0  0  0  0  3  0  0  0  0  0  0
  187.5700  178.2810  143.4220 N   0  0  0  0  0  2  0  0  0  0  0  0
  187.5730  178.1840  138.5920 C   0  0  0  0  0  0  0  0  0  0  0  0
  189.8770  177.1860  140.2660 O   0  0  0  0  0  0  0  0  0  0  0  0
  187.1730  178.2750  139.9640 N   0  0  0  0  0  0  0  0  0  0  0  0
  185.9500  178.6440  140.3290 N   0  0  0  0  0  0  0  0  0  0  0  0
  186.8000  177.6530  137.7520 O   0  0  0  0  0  0  0  0  0  0  0  0
  187.1240  178.3570  142.1490 C   0  0  0  0  0  0  0  0  0  0  0  0
  187.9110  178.0900  141.0790 C   0  0  0  0  0  0  0  0  0  0  0  0
  185.8800  178.7110  141.6820 C   0  0  0  0  0  3  0  0  0  0  0  0
  190.6950  178.0080  145.3870 C   0  0  0  0  0  2  0  0  0  0  0  0
  191.3120  176.6720  145.1850 C   0  0  0  0  0  0  0  0  0  0  0  0
  191.4210  176.1530  143.9650 C   0  0  0  0  0  3  0  0  0  0  0  0
  188.8530  177.8850  143.6740 C   0  0  0  0  0  0  0  0  0  0  0  0
  190.7980  176.6760  142.7350 C   0  0  0  0  0  3  0  0  0  0  0  0
  189.6800  177.4180  142.5860 C   0  0  0  0  0  0  0  0  0  0  0  0
  191.9580  176.0030  146.3280 C   0  0  0  0  0  0  0  0  0  0  0  0
  191.9750  176.6180  147.5760 O   0  0  0  0  0  1  0  0  0  0  0  0
  192.4940  174.8710  146.1930 O   0  0  0  0  0  0  0  0  0  0  0  0
  189.0870  178.9530  138.0150 S   0  0  0  0  0  0  0  0  0  0  0  0
  189.4010  176.7000  134.6210 C   0  0  0  0  0  3  0  0  0  0  0  0
  190.0180  176.4260  137.3740 C   0  0  0  0  0  3  0  0  0  0  0  0
  190.2720  174.4440  134.3560 N   0  0  0  0  0  0  0  0  0  0  0  0
  189.9690  175.5260  135.1150 C   0  0  0  0  0  0  0  0  0  0  0  0
  190.9410  173.8940  136.7450 S   0  0  0  0  0  0  0  0  0  0  0  0
  190.2680  175.4040  136.4630 C   0  0  0  0  0  0  0  0  0  0  0  0
  190.8070  173.4560  135.1150 C   0  0  0  0  0  0  0  0  0  0  0  0
  189.4400  177.6110  136.8890 C   0  0  0  0  0  0  0  0  0  0  0  0
  189.1370  177.7470  135.5200 C   0  0  0  0  0  3  0  0  0  0  0  0
  191.2820  172.1510  134.5630 C   0  0  1  0  0  3  0  0  0  0  0  0
  192.2990  171.6230  135.3600 O   0  0  0  0  0  1  0  0  0  0  0  0
  190.1370  171.1560  134.4270 C   0  0  0  0  0  2  0  0  0  0  0  0
  189.0130  171.5940  135.1310 O   0  0  0  0  0  1  0  0  0  0  0  0
  1 17  1  0  0  0  0
  2 12  1  0  0  0  0
  3 15  1  0  0  0  0
  4  6  1  0  0  0  0
  5  1  2  0  0  0  0
  6  7  1  0  0  0  0
  6 10  1  0  0  0  0
  7 11  2  0  0  0  0
  8  4  2  0  0  0  0
  9  3  1  0  0  0  0
 10  1  1  0  0  0  0
 10  9  2  0  0  0  0
 11  9  1  0  0  0  0
 13 12  1  0  0  0  0
 13 18  1  0  0  0  0
 14 13  2  0  0  0  0
 15  2  2  0  0  0  0
 16 14  1  0  0  0  0
 17 16  2  0  0  0  0
 17 15  1  0  0  0  0
 18 19  1  0  0  0  0
 20 18  2  0  0  0  0
 21  4  1  0  0  0  0
 22 25  2  0  0  0  0
 22 30  1  0  0  0  0
 24 28  2  0  0  0  0
 24 25  1  0  0  0  0
 25 27  1  0  0  0  0
 27 26  1  0  0  0  0
 27 23  2  0  0  0  0
 28 26  1  0  0  0  0
 29 23  1  0  0  0  0
 29 21  1  0  0  0  0
 30 29  2  0  0  0  0
 31 28  1  0  0  0  0
 31 32  1  1  0  0  0
 33 31  1  0  0  0  0
 33 34  1  0  0  0  0
M  END
>  <MODEL>
8

>  <REMARK>
 VINA RESULT:      -7.8      3.314      4.504
  Name = 
  5 active torsions:
  status: ('A' for Active; 'I' for Inactive)
    1  A    between atoms: C_3  and  C_25
    2  A    between atoms: C_7  and  C_11
    3  A    between atoms: C_7  and  C_29
    4  A    between atoms: C_8  and  S_18
    5  A    between atoms: S_18  and  C_30
                            x       y       z     vdW  Elec       q    Type
                         _______ _______ _______ _____ _____    ______ ____

>  <TORSDO>
F 5

$$$$
=
 OpenBabel10272415073D

 34 38  0  0  1  0  0  0  0  0999 V2000
  187.3020  177.7370  144.1500 C   0  0  0  0  0  0  0  0  0  0  0  0
  189.1100  177.7110  147.3860 C   0  0  0  0  0  3  0  0  0  0  0  0
  186.8830  177.9400  146.9120 N   0  0  0  0  0  2  0  0  0  0  0  0
  184.5830  178.5260  142.7040 C   0  0  0  0  0  0  0  0  0  0  0  0
  187.4390  177.5740  142.9070 O   0  0  0  0  0  0  0  0  0  0  0  0
  184.8840  178.3750  144.0960 N   0  0  0  0  0  0  0  0  0  0  0  0
  183.9710  178.5460  145.0470 N   0  0  0  0  0  0  0  0  0  0  0  0
  183.5210  178.0340  142.2400 O   0  0  0  0  0  0  0  0  0  0  0  0
  185.8810  178.1430  146.0280 C   0  0  0  0  0  0  0  0  0  0  0  0
  186.0710  178.1220  144.6870 C   0  0  0  0  0  0  0  0  0  0  0  0
  184.5530  178.4130  146.2650 C   0  0  0  0  0  3  0  0  0  0  0  0
  190.5750  177.7530  147.1150 C   0  0  0  0  0  2  0  0  0  0  0  0
  191.0650  176.5390  146.4140 C   0  0  0  0  0  0  0  0  0  0  0  0
  190.5960  176.2130  145.2120 C   0  0  0  0  0  3  0  0  0  0  0  0
  188.1430  177.6620  146.4630 C   0  0  0  0  0  0  0  0  0  0  0  0
  189.4440  176.8300  144.5290 C   0  0  0  0  0  3  0  0  0  0  0  0
  188.3660  177.4520  145.0520 C   0  0  0  0  0  0  0  0  0  0  0  0
  192.2010  175.7940  146.9850 C   0  0  0  0  0  0  0  0  0  0  0  0
  192.7210  176.1600  148.2220 O   0  0  0  0  0  1  0  0  0  0  0  0
  192.7080  174.8190  146.3680 O   0  0  0  0  0  0  0  0  0  0  0  0
  185.6110  179.5380  141.6370 S   0  0  0  0  0  0  0  0  0  0  0  0
  182.7580  178.9910  138.7640 C   0  0  0  0  0  3  0  0  0  0  0  0
  185.4190  178.1450  139.2530 C   0  0  0  0  0  3  0  0  0  0  0  0
  182.8700  177.6640  136.7280 N   0  0  0  0  0  0  0  0  0  0  0  0
  183.4160  178.1440  137.8730 C   0  0  0  0  0  0  0  0  0  0  0  0
  185.2320  176.7400  136.8770 S   0  0  0  0  0  0  0  0  0  0  0  0
  184.7180  177.7380  138.1220 C   0  0  0  0  0  0  0  0  0  0  0  0
  183.7470  176.8630  136.0740 C   0  0  0  0  0  0  0  0  0  0  0  0
  184.7640  178.9920  140.1610 C   0  0  0  0  0  0  0  0  0  0  0  0
  183.4420  179.4150  139.9160 C   0  0  0  0  0  3  0  0  0  0  0  0
  183.4550  176.2150  134.7590 C   0  0  1  0  0  3  0  0  0  0  0  0
  184.4500  175.2900  134.4380 O   0  0  0  0  0  1  0  0  0  0  0  0
  182.0850  175.5490  134.7610 C   0  0  0  0  0  2  0  0  0  0  0  0
  182.0670  174.4560  135.6300 O   0  0  0  0  0  1  0  0  0  0  0  0
  1 10  1  0  0  0  0
  1 17  1  0  0  0  0
  4  6  1  0  0  0  0
  5  1  2  0  0  0  0
  6 10  1  0  0  0  0
  6  7  1  0  0  0  0
  7 11  2  0  0  0  0
  8  4  2  0  0  0  0
  9 11  1  0  0  0  0
  9  3  1  0  0  0  0
 10  9  2  0  0  0  0
 12  2  1  0  0  0  0
 13 18  1  0  0  0  0
 13 12  1  0  0  0  0
 14 13  2  0  0  0  0
 15  3  1  0  0  0  0
 15  2  2  0  0  0  0
 16 17  2  0  0  0  0
 16 14  1  0  0  0  0
 17 15  1  0  0  0  0
 18 19  1  0  0  0  0
 20 18  2  0  0  0  0
 21  4  1  0  0  0  0
 22 30  1  0  0  0  0
 23 29  1  0  0  0  0
 24 25  1  0  0  0  0
 25 27  1  0  0  0  0
 25 22  2  0  0  0  0
 26 27  1  0  0  0  0
 27 23  2  0  0  0  0
 28 24  2  0  0  0  0
 28 26  1  0  0  0  0
 29 21  1  0  0  0  0
 30 29  2  0  0  0  0
 31 32  1  1  0  0  0
 31 33  1  0  0  0  0
 31 28  1  0  0  0  0
 33 34  1  0  0  0  0
M  END
>  <MODEL>
9

>  <REMARK>
 VINA RESULT:      -7.7      6.405      8.261
  Name = 
  5 active torsions:
  status: ('A' for Active; 'I' for Inactive)
    1  A    between atoms: C_3  and  C_25
    2  A    between atoms: C_7  and  C_11
    3  A    between atoms: C_7  and  C_29
    4  A    between atoms: C_8  and  S_18
    5  A    between atoms: S_18  and  C_30
                            x       y       z     vdW  Elec       q    Type
                         _______ _______ _______ _____ _____    ______ ____

>  <TORSDO>
F 5

$$$$
