=
 OpenBabel10272400403D

 25 28  0  0  1  0  0  0  0  0999 V2000
  187.1400  177.8710  145.3890 C   0  0  0  0  0  0  0  0  0  0  0  0
  188.4040  177.4240  144.9570 C   0  0  0  0  0  0  0  0  0  0  0  0
  187.8930  177.8180  147.6930 C   0  0  0  0  0  3  0  0  0  0  0  0
  186.0020  178.1730  144.6180 C   0  0  0  0  0  0  0  0  0  0  0  0
  190.5110  176.8090  141.9560 C   0  0  0  0  0  0  0  0  0  0  0  0
  183.5630  178.8640  143.4370 C   0  0  0  0  0  3  0  0  0  0  0  0
  189.1100  177.3860  147.2660 N   0  0  0  0  0  0  0  0  0  0  0  0
  184.9200  178.5890  145.3950 C   0  0  0  0  0  0  0  0  0  0  0  0
  183.6950  178.9390  144.8310 C   0  0  0  0  0  3  0  0  0  0  0  0
  190.7460  176.7300  145.5540 C   0  0  0  0  0  0  0  0  0  0  0  0
  191.9520  176.3690  146.7760 Cl  0  0  0  0  0  0  0  0  0  0  0  0
  190.8870  176.7190  140.7100 C   0  0  0  0  0  3  0  0  0  0  0  0
  188.6790  177.1540  143.4970 C   0  0  0  0  0  2  0  0  0  0  0  0
  184.6440  178.4480  142.6390 C   0  0  0  0  0  3  0  0  0  0  0  0
  186.9070  178.0620  146.7480 C   0  0  0  0  0  0  0  0  0  0  0  0
  185.3320  178.5940  147.0270 S   0  0  0  0  0  0  0  0  0  0  0  0
  191.0870  176.6120  144.2720 C   0  0  0  0  0  3  0  0  0  0  0  0
  185.8710  178.1000  143.2280 C   0  0  0  0  0  3  0  0  0  0  0  0
  190.1280  176.9020  143.1980 C   0  0  0  0  0  0  0  0  0  0  0  0
  189.3950  177.1820  145.9440 C   0  0  0  0  0  0  0  0  0  0  0  0
  190.1870  177.4880  139.6390 C   0  0  2  0  0  3  0  0  0  0  0  0
  188.7350  177.7440  140.0120 C   0  0  0  0  0  1  0  0  0  0  0  0
  190.2680  176.7610  138.3370 C   0  0  0  0  0  0  0  0  0  0  0  0
  190.5750  175.4080  138.3260 O   0  0  0  0  0  1  0  0  0  0  0  0
  190.0580  177.3630  137.2490 O   0  0  0  0  0  0  0  0  0  0  0  0
  1 15  1  0  0  0  0
  2  1  2  0  0  0  0
  2 20  1  0  0  0  0
  4  1  1  0  0  0  0
  4  8  1  0  0  0  0
  5 19  2  0  0  0  0
  6  9  1  0  0  0  0
  7  3  1  0  0  0  0
  8 16  1  0  0  0  0
  9  8  2  0  0  0  0
 10 20  1  0  0  0  0
 10 11  1  0  0  0  0
 12  5  2  0  0  0  0
 13  2  1  0  0  0  0
 14 18  1  0  0  0  0
 14  6  2  0  0  0  0
 15 16  1  0  0  0  0
 15  3  2  0  0  0  0
 17 10  2  0  0  0  0
 18  4  2  0  0  0  0
 19 13  1  0  0  0  0
 19 17  1  0  0  0  0
 20  7  2  0  0  0  0
 21 22  1  1  0  0  0
 21 12  1  0  0  0  0
 23 21  1  0  0  0  0
 24 23  1  0  0  0  0
 25 23  2  0  0  0  0
M  END
>  <MODEL>
1

>  <REMARK>
 VINA RESULT:     -10.8      0.000      0.000
  Name = 
  2 active torsions:
  status: ('A' for Active; 'I' for Inactive)
    1  A    between atoms: C_2  and  C_21
    2  A    between atoms: C_15  and  C_21
                            x       y       z     vdW  Elec       q    Type
                         _______ _______ _______ _____ _____    ______ ____

>  <TORSDO>
F 2

$$$$
=
 OpenBabel10272400403D

 25 28  0  0  1  0  0  0  0  0999 V2000
  189.3000  177.5030  143.9330 C   0  0  0  0  0  0  0  0  0  0  0  0
  188.2920  177.7960  144.8720 C   0  0  0  0  0  0  0  0  0  0  0  0
  190.8330  176.9530  145.7270 C   0  0  0  0  0  3  0  0  0  0  0  0
  189.2410  177.5710  142.5280 C   0  0  0  0  0  0  0  0  0  0  0  0
  184.6870  178.6210  145.2560 C   0  0  0  0  0  0  0  0  0  0  0  0
  189.5070  177.5790  139.7450 C   0  0  0  0  0  3  0  0  0  0  0  0
  189.8540  177.2390  146.6280 N   0  0  0  0  0  0  0  0  0  0  0  0
  190.4420  177.2060  141.9210 C   0  0  0  0  0  0  0  0  0  0  0  0
  190.6000  177.2020  140.5370 C   0  0  0  0  0  3  0  0  0  0  0  0
  187.5870  177.9260  147.2830 C   0  0  0  0  0  0  0  0  0  0  0  0
  187.9930  177.8110  148.9860 Cl  0  0  0  0  0  0  0  0  0  0  0  0
  183.4450  178.8930  144.9620 C   0  0  0  0  0  3  0  0  0  0  0  0
  186.9390  178.3030  144.4340 C   0  0  0  0  0  2  0  0  0  0  0  0
  188.2870  177.9500  140.3410 C   0  0  0  0  0  3  0  0  0  0  0  0
  190.5510  177.0850  144.3760 C   0  0  0  0  0  0  0  0  0  0  0  0
  191.5910  176.7970  143.0810 S   0  0  0  0  0  0  0  0  0  0  0  0
  186.3370  178.2390  146.9480 C   0  0  0  0  0  3  0  0  0  0  0  0
  188.1490  177.9470  141.7390 C   0  0  0  0  0  3  0  0  0  0  0  0
  185.9280  178.3490  145.5420 C   0  0  0  0  0  0  0  0  0  0  0  0
  188.6070  177.6520  146.2490 C   0  0  0  0  0  0  0  0  0  0  0  0
  182.8630  178.4950  143.6460 C   0  0  2  0  0  3  0  0  0  0  0  0
  183.7370  178.9710  142.4960 C   0  0  0  0  0  1  0  0  0  0  0  0
  181.4780  179.0350  143.5030 C   0  0  0  0  0  0  0  0  0  0  0  0
  180.4520  178.5030  144.2730 O   0  0  0  0  0  1  0  0  0  0  0  0
  181.2310  179.9690  142.6950 O   0  0  0  0  0  0  0  0  0  0  0  0
  1 15  1  0  0  0  0
  1  2  2  0  0  0  0
  2 20  1  0  0  0  0
  3  7  1  0  0  0  0
  4  1  1  0  0  0  0
  5 19  2  0  0  0  0
  6 14  2  0  0  0  0
  6  9  1  0  0  0  0
  8  4  1  0  0  0  0
  8 16  1  0  0  0  0
  9  8  2  0  0  0  0
 10 11  1  0  0  0  0
 12  5  2  0  0  0  0
 13  2  1  0  0  0  0
 13 19  1  0  0  0  0
 14 18  1  0  0  0  0
 15  3  2  0  0  0  0
 16 15  1  0  0  0  0
 17 10  2  0  0  0  0
 18  4  2  0  0  0  0
 19 17  1  0  0  0  0
 20  7  2  0  0  0  0
 20 10  1  0  0  0  0
 21 22  1  6  0  0  0
 21 12  1  0  0  0  0
 23 21  1  0  0  0  0
 23 24  1  0  0  0  0
 25 23  2  0  0  0  0
M  END
>  <MODEL>
2

>  <REMARK>
 VINA RESULT:     -10.3      3.774      6.344
  Name = 
  2 active torsions:
  status: ('A' for Active; 'I' for Inactive)
    1  A    between atoms: C_2  and  C_21
    2  A    between atoms: C_15  and  C_21
                            x       y       z     vdW  Elec       q    Type
                         _______ _______ _______ _____ _____    ______ ____

>  <TORSDO>
F 2

$$$$
=
 OpenBabel10272400403D

 25 28  0  0  1  0  0  0  0  0999 V2000
  187.7220  177.7690  145.6480 C   0  0  0  0  0  0  0  0  0  0  0  0
  186.9680  178.1380  144.5170 C   0  0  0  0  0  0  0  0  0  0  0  0
  185.7700  178.0400  147.0580 C   0  0  0  0  0  3  0  0  0  0  0  0
  189.0830  177.4170  145.7210 C   0  0  0  0  0  0  0  0  0  0  0  0
  187.0340  178.3910  140.8090 C   0  0  0  0  0  0  0  0  0  0  0  0
  191.7220  176.6670  146.2620 C   0  0  0  0  0  3  0  0  0  0  0  0
  185.0490  178.3970  145.9610 N   0  0  0  0  0  0  0  0  0  0  0  0
  189.4910  177.1100  147.0190 C   0  0  0  0  0  0  0  0  0  0  0  0
  190.7990  176.7330  147.3150 C   0  0  0  0  0  3  0  0  0  0  0  0
  184.7480  178.8340  143.5620 C   0  0  0  0  0  0  0  0  0  0  0  0
  183.0710  179.2890  143.8060 Cl  0  0  0  0  0  0  0  0  0  0  0  0
  187.4590  178.3430  139.5760 C   0  0  0  0  0  3  0  0  0  0  0  0
  187.6070  178.2510  143.1540 C   0  0  0  0  0  2  0  0  0  0  0  0
  191.3280  176.9730  144.9460 C   0  0  0  0  0  3  0  0  0  0  0  0
  187.1110  177.7250  146.8970 C   0  0  0  0  0  0  0  0  0  0  0  0
  188.2040  177.2620  148.0940 S   0  0  0  0  0  0  0  0  0  0  0  0
  185.2240  178.8110  142.3180 C   0  0  0  0  0  3  0  0  0  0  0  0
  190.0030  177.3500  144.6700 C   0  0  0  0  0  3  0  0  0  0  0  0
  186.6170  178.4360  142.0420 C   0  0  0  0  0  0  0  0  0  0  0  0
  185.5980  178.4570  144.7100 C   0  0  0  0  0  0  0  0  0  0  0  0
  188.6210  177.4850  139.1970 C   0  0  2  0  0  3  0  0  0  0  0  0
  189.5990  177.3500  140.3540 C   0  0  0  0  0  1  0  0  0  0  0  0
  189.3120  178.0420  137.9960 C   0  0  0  0  0  0  0  0  0  0  0  0
  189.0200  179.3320  137.5750 O   0  0  0  0  0  1  0  0  0  0  0  0
  190.1580  177.3550  137.3630 O   0  0  0  0  0  0  0  0  0  0  0  0
  1  4  1  0  0  0  0
  1 15  2  0  0  0  0
  2 20  2  0  0  0  0
  2  1  1  0  0  0  0
  4  8  1  0  0  0  0
  5 19  2  0  0  0  0
  6  9  1  0  0  0  0
  7  3  2  0  0  0  0
  8  9  2  0  0  0  0
  8 16  1  0  0  0  0
 10 11  1  0  0  0  0
 10 20  1  0  0  0  0
 12  5  2  0  0  0  0
 13  2  1  0  0  0  0
 14  6  2  0  0  0  0
 15  3  1  0  0  0  0
 15 16  1  0  0  0  0
 17 10  2  0  0  0  0
 18 14  1  0  0  0  0
 18  4  2  0  0  0  0
 19 17  1  0  0  0  0
 19 13  1  0  0  0  0
 20  7  1  0  0  0  0
 21 12  1  0  0  0  0
 21 22  1  1  0  0  0
 23 21  1  0  0  0  0
 24 23  1  0  0  0  0
 25 23  2  0  0  0  0
M  END
>  <MODEL>
3

>  <REMARK>
 VINA RESULT:     -10.0      2.527      4.751
  Name = 
  2 active torsions:
  status: ('A' for Active; 'I' for Inactive)
    1  A    between atoms: C_2  and  C_21
    2  A    between atoms: C_15  and  C_21
                            x       y       z     vdW  Elec       q    Type
                         _______ _______ _______ _____ _____    ______ ____

>  <TORSDO>
F 2

$$$$
=
 OpenBabel10272400403D

 25 28  0  0  1  0  0  0  0  0999 V2000
  186.3260  178.3810  142.3380 C   0  0  0  0  0  0  0  0  0  0  0  0
  187.7030  178.1100  142.2270 C   0  0  0  0  0  0  0  0  0  0  0  0
  186.1380  178.4990  139.9250 C   0  0  0  0  0  3  0  0  0  0  0  0
  185.5440  178.5020  143.5030 C   0  0  0  0  0  0  0  0  0  0  0  0
  190.7400  177.1320  144.1350 C   0  0  0  0  0  0  0  0  0  0  0  0
  183.6810  178.8070  145.5650 C   0  0  0  0  0  3  0  0  0  0  0  0
  187.4690  178.2390  139.8260 N   0  0  0  0  0  0  0  0  0  0  0  0
  184.2050  178.7790  143.2260 C   0  0  0  0  0  0  0  0  0  0  0  0
  183.2570  178.9350  144.2350 C   0  0  0  0  0  3  0  0  0  0  0  0
  189.6980  177.7460  140.7380 C   0  0  0  0  0  0  0  0  0  0  0  0
  190.4030  177.7270  139.1320 Cl  0  0  0  0  0  0  0  0  0  0  0  0
  191.5230  176.8110  145.1280 C   0  0  0  0  0  3  0  0  0  0  0  0
  188.5710  177.9540  143.4520 C   0  0  0  0  0  2  0  0  0  0  0  0
  185.0270  178.5280  145.8620 C   0  0  0  0  0  3  0  0  0  0  0  0
  185.5670  178.5690  141.1870 C   0  0  0  0  0  0  0  0  0  0  0  0
  183.9540  178.8810  141.5640 S   0  0  0  0  0  0  0  0  0  0  0  0
  190.4780  177.4590  141.7780 C   0  0  0  0  0  3  0  0  0  0  0  0
  185.9660  178.3730  144.8300 C   0  0  0  0  0  3  0  0  0  0  0  0
  189.9520  177.4530  143.1490 C   0  0  0  0  0  0  0  0  0  0  0  0
  188.2620  178.0450  140.9240 C   0  0  0  0  0  0  0  0  0  0  0  0
  190.9640  176.2700  146.4030 C   0  0  2  0  0  3  0  0  0  0  0  0
  189.7350  177.0540  146.8360 C   0  0  0  0  0  1  0  0  0  0  0  0
  192.0010  176.2930  147.4780 C   0  0  0  0  0  0  0  0  0  0  0  0
  192.9460  175.2790  147.5410 O   0  0  0  0  0  0  0  0  0  0  0  0
  192.0280  177.2250  148.3260 O   0  0  0  0  0  1  0  0  0  0  0  0
  1  4  1  0  0  0  0
  2  1  1  0  0  0  0
  2 13  1  0  0  0  0
  3 15  1  0  0  0  0
  4 18  1  0  0  0  0
  5 12  2  0  0  0  0
  6 14  1  0  0  0  0
  7  3  2  0  0  0  0
  7 20  1  0  0  0  0
  8  4  2  0  0  0  0
  8  9  1  0  0  0  0
  9  6  2  0  0  0  0
 10 20  1  0  0  0  0
 10 17  2  0  0  0  0
 11 10  1  0  0  0  0
 12 21  1  0  0  0  0
 15 16  1  0  0  0  0
 15  1  2  0  0  0  0
 16  8  1  0  0  0  0
 17 19  1  0  0  0  0
 18 14  2  0  0  0  0
 19 13  1  0  0  0  0
 19  5  2  0  0  0  0
 20  2  2  0  0  0  0
 21 22  1  1  0  0  0
 21 23  1  0  0  0  0
 23 24  2  0  0  0  0
 23 25  1  0  0  0  0
M  END
>  <MODEL>
4

>  <REMARK>
 VINA RESULT:      -9.9      3.968      5.583
  Name = 
  2 active torsions:
  status: ('A' for Active; 'I' for Inactive)
    1  A    between atoms: C_2  and  C_21
    2  A    between atoms: C_15  and  C_21
                            x       y       z     vdW  Elec       q    Type
                         _______ _______ _______ _____ _____    ______ ____

>  <TORSDO>
F 2

$$$$
=
 OpenBabel10272400403D

 25 28  0  0  1  0  0  0  0  0999 V2000
  189.1440  177.6570  144.0550 C   0  0  0  0  0  0  0  0  0  0  0  0
  188.2630  177.8600  142.9750 C   0  0  0  0  0  0  0  0  0  0  0  0
  191.0300  177.6360  142.5340 C   0  0  0  0  0  3  0  0  0  0  0  0
  188.8430  177.5350  145.4250 C   0  0  0  0  0  0  0  0  0  0  0  0
  184.7360  178.6100  142.0710 C   0  0  0  0  0  0  0  0  0  0  0  0
  188.6450  177.2520  148.2000 C   0  0  0  0  0  3  0  0  0  0  0  0
  190.1720  177.8310  141.4960 N   0  0  0  0  0  0  0  0  0  0  0  0
  189.9790  177.3390  146.2100 C   0  0  0  0  0  0  0  0  0  0  0  0
  189.9080  177.1950  147.5940 C   0  0  0  0  0  3  0  0  0  0  0  0
  187.9520  178.1740  140.4990 C   0  0  0  0  0  0  0  0  0  0  0  0
  188.6310  178.2140  138.8820 Cl  0  0  0  0  0  0  0  0  0  0  0  0
  183.4590  178.8530  142.1810 C   0  0  0  0  0  3  0  0  0  0  0  0
  186.7700  177.9260  143.1870 C   0  0  0  0  0  2  0  0  0  0  0  0
  187.4890  177.4510  147.4230 C   0  0  0  0  0  3  0  0  0  0  0  0
  190.5100  177.5510  143.8170 C   0  0  0  0  0  0  0  0  0  0  0  0
  191.3630  177.3100  145.2510 S   0  0  0  0  0  0  0  0  0  0  0  0
  186.6450  178.3820  140.6440 C   0  0  0  0  0  3  0  0  0  0  0  0
  187.5830  177.5940  146.0290 C   0  0  0  0  0  3  0  0  0  0  0  0
  186.0110  178.3660  141.9690 C   0  0  0  0  0  0  0  0  0  0  0  0
  188.8200  177.9440  141.6730 C   0  0  0  0  0  0  0  0  0  0  0  0
  182.8840  179.3760  143.4570 C   0  0  2  0  0  3  0  0  0  0  0  0
  183.4570  178.6370  144.6560 C   0  0  0  0  0  1  0  0  0  0  0  0
  181.3950  179.2660  143.4420 C   0  0  0  0  0  0  0  0  0  0  0  0
  180.6580  180.0620  142.5760 O   0  0  0  0  0  0  0  0  0  0  0  0
  180.8010  178.4570  144.2040 O   0  0  0  0  0  1  0  0  0  0  0  0
  1  4  1  0  0  0  0
  2 13  1  0  0  0  0
  2  1  1  0  0  0  0
  3 15  1  0  0  0  0
  4 18  2  0  0  0  0
  4  8  1  0  0  0  0
  5 12  2  0  0  0  0
  7 20  1  0  0  0  0
  7  3  2  0  0  0  0
  8  9  2  0  0  0  0
  9  6  1  0  0  0  0
 10 17  2  0  0  0  0
 10 20  1  0  0  0  0
 11 10  1  0  0  0  0
 12 21  1  0  0  0  0
 14  6  2  0  0  0  0
 15  1  2  0  0  0  0
 15 16  1  0  0  0  0
 16  8  1  0  0  0  0
 17 19  1  0  0  0  0
 18 14  1  0  0  0  0
 19  5  2  0  0  0  0
 19 13  1  0  0  0  0
 20  2  2  0  0  0  0
 21 22  1  1  0  0  0
 23 21  1  0  0  0  0
 23 25  1  0  0  0  0
 24 23  2  0  0  0  0
M  END
>  <MODEL>
5

>  <REMARK>
 VINA RESULT:      -9.9      4.264      6.697
  Name = 
  2 active torsions:
  status: ('A' for Active; 'I' for Inactive)
    1  A    between atoms: C_2  and  C_21
    2  A    between atoms: C_15  and  C_21
                            x       y       z     vdW  Elec       q    Type
                         _______ _______ _______ _____ _____    ______ ____

>  <TORSDO>
F 2

$$$$
=
 OpenBabel10272400403D

 25 28  0  0  1  0  0  0  0  0999 V2000
  187.4440  178.0090  141.4270 C   0  0  0  0  0  0  0  0  0  0  0  0
  187.2050  177.9350  142.8130 C   0  0  0  0  0  0  0  0  0  0  0  0
  185.2180  178.9000  141.0730 C   0  0  0  0  0  3  0  0  0  0  0  0
  188.6030  177.6470  140.7130 C   0  0  0  0  0  0  0  0  0  0  0  0
  188.7900  177.2660  146.1080 C   0  0  0  0  0  0  0  0  0  0  0  0
  190.7040  177.0490  138.9680 C   0  0  0  0  0  3  0  0  0  0  0  0
  184.9940  178.8250  142.4130 N   0  0  0  0  0  0  0  0  0  0  0  0
  188.4770  177.8570  139.3400 C   0  0  0  0  0  0  0  0  0  0  0  0
  189.5080  177.5680  138.4500 C   0  0  0  0  0  3  0  0  0  0  0  0
  185.6290  178.3260  144.7340 C   0  0  0  0  0  0  0  0  0  0  0  0
  184.0420  178.7910  145.3180 Cl  0  0  0  0  0  0  0  0  0  0  0  0
  189.6830  176.9570  147.0070 C   0  0  0  0  0  3  0  0  0  0  0  0
  188.2380  177.3680  143.7550 C   0  0  0  0  0  2  0  0  0  0  0  0
  190.8470  176.8320  140.3500 C   0  0  0  0  0  3  0  0  0  0  0  0
  186.4490  178.4910  140.5820 C   0  0  0  0  0  0  0  0  0  0  0  0
  186.9580  178.4840  138.9750 S   0  0  0  0  0  0  0  0  0  0  0  0
  186.5540  177.9700  145.6230 C   0  0  0  0  0  3  0  0  0  0  0  0
  189.7950  177.1310  141.2310 C   0  0  0  0  0  3  0  0  0  0  0  0
  187.9040  177.5730  145.2040 C   0  0  0  0  0  0  0  0  0  0  0  0
  185.9370  178.3610  143.2890 C   0  0  0  0  0  0  0  0  0  0  0  0
  191.1430  177.0790  146.7140 C   0  0  2  0  0  3  0  0  0  0  0  0
  191.4490  176.6550  145.2860 C   0  0  0  0  0  1  0  0  0  0  0  0
  191.9390  176.2650  147.6800 C   0  0  0  0  0  0  0  0  0  0  0  0
  192.7120  176.9030  148.6400 O   0  0  0  0  0  1  0  0  0  0  0  0
  191.9130  175.0050  147.6340 O   0  0  0  0  0  0  0  0  0  0  0  0
  1  2  2  0  0  0  0
  2 20  1  0  0  0  0
  2 13  1  0  0  0  0
  3  7  1  0  0  0  0
  4 18  1  0  0  0  0
  4  1  1  0  0  0  0
  5 12  2  0  0  0  0
  6 14  1  0  0  0  0
  7 20  2  0  0  0  0
  8  4  2  0  0  0  0
  9  6  2  0  0  0  0
  9  8  1  0  0  0  0
 10 11  1  0  0  0  0
 10 17  2  0  0  0  0
 13 19  1  0  0  0  0
 14 18  2  0  0  0  0
 15  3  2  0  0  0  0
 15  1  1  0  0  0  0
 16  8  1  0  0  0  0
 16 15  1  0  0  0  0
 19 17  1  0  0  0  0
 19  5  2  0  0  0  0
 20 10  1  0  0  0  0
 21 22  1  6  0  0  0
 21 12  1  0  0  0  0
 21 23  1  0  0  0  0
 23 24  1  0  0  0  0
 25 23  2  0  0  0  0
M  END
>  <MODEL>
6

>  <REMARK>
 VINA RESULT:      -9.7      4.075      6.741
  Name = 
  2 active torsions:
  status: ('A' for Active; 'I' for Inactive)
    1  A    between atoms: C_2  and  C_21
    2  A    between atoms: C_15  and  C_21
                            x       y       z     vdW  Elec       q    Type
                         _______ _______ _______ _____ _____    ______ ____

>  <TORSDO>
F 2

$$$$
=
 OpenBabel10272400403D

 25 28  0  0  1  0  0  0  0  0999 V2000
  186.3000  178.2640  144.2900 C   0  0  0  0  0  0  0  0  0  0  0  0
  186.3550  178.3930  142.8890 C   0  0  0  0  0  0  0  0  0  0  0  0
  183.9390  178.8130  144.2640 C   0  0  0  0  0  3  0  0  0  0  0  0
  187.3360  177.9380  145.1860 C   0  0  0  0  0  0  0  0  0  0  0  0
  188.5110  177.8820  139.9040 C   0  0  0  0  0  0  0  0  0  0  0  0
  189.1150  177.3220  147.2530 C   0  0  0  0  0  3  0  0  0  0  0  0
  184.0010  178.9360  142.9100 N   0  0  0  0  0  0  0  0  0  0  0  0
  186.9100  177.9040  146.5130 C   0  0  0  0  0  0  0  0  0  0  0  0
  187.7750  177.6000  147.5610 C   0  0  0  0  0  3  0  0  0  0  0  0
  185.1450  178.8720  140.7360 C   0  0  0  0  0  0  0  0  0  0  0  0
  183.6830  179.3630  139.8990 Cl  0  0  0  0  0  0  0  0  0  0  0  0
  189.5440  177.5840  139.1640 C   0  0  0  0  0  3  0  0  0  0  0  0
  187.6540  178.2260  142.1390 C   0  0  0  0  0  2  0  0  0  0  0  0
  189.5610  177.3520  145.9190 C   0  0  0  0  0  3  0  0  0  0  0  0
  185.0940  178.4750  144.9530 C   0  0  0  0  0  0  0  0  0  0  0  0
  185.2700  178.2700  146.6170 S   0  0  0  0  0  0  0  0  0  0  0  0
  186.2290  178.5970  140.0130 C   0  0  0  0  0  3  0  0  0  0  0  0
  188.6720  177.6600  144.8770 C   0  0  0  0  0  3  0  0  0  0  0  0
  187.4840  178.1770  140.6490 C   0  0  0  0  0  0  0  0  0  0  0  0
  185.1580  178.7400  142.2080 C   0  0  0  0  0  0  0  0  0  0  0  0
  190.6110  176.6700  139.6680 C   0  0  2  0  0  3  0  0  0  0  0  0
  191.5800  177.4110  140.5770 C   0  0  0  0  0  1  0  0  0  0  0  0
  191.3440  176.0450  138.5270 C   0  0  0  0  0  0  0  0  0  0  0  0
  191.0060  174.7630  138.1150 O   0  0  0  0  0  1  0  0  0  0  0  0
  192.2640  176.6690  137.9330 O   0  0  0  0  0  0  0  0  0  0  0  0
  1 15  2  0  0  0  0
  1  4  1  0  0  0  0
  2  1  1  0  0  0  0
  3 15  1  0  0  0  0
  4  8  1  0  0  0  0
  5 19  2  0  0  0  0
  6  9  1  0  0  0  0
  7  3  2  0  0  0  0
  8 16  1  0  0  0  0
  8  9  2  0  0  0  0
 10 20  1  0  0  0  0
 11 10  1  0  0  0  0
 12 21  1  0  0  0  0
 12  5  2  0  0  0  0
 13  2  1  0  0  0  0
 14  6  2  0  0  0  0
 15 16  1  0  0  0  0
 17 19  1  0  0  0  0
 17 10  2  0  0  0  0
 18  4  2  0  0  0  0
 18 14  1  0  0  0  0
 19 13  1  0  0  0  0
 20  2  2  0  0  0  0
 20  7  1  0  0  0  0
 21 22  1  1  0  0  0
 23 21  1  0  0  0  0
 24 23  1  0  0  0  0
 25 23  2  0  0  0  0
M  END
>  <MODEL>
7

>  <REMARK>
 VINA RESULT:      -9.6      2.856      4.637
  Name = 
  2 active torsions:
  status: ('A' for Active; 'I' for Inactive)
    1  A    between atoms: C_2  and  C_21
    2  A    between atoms: C_15  and  C_21
                            x       y       z     vdW  Elec       q    Type
                         _______ _______ _______ _____ _____    ______ ____

>  <TORSDO>
F 2

$$$$
=
 OpenBabel10272400403D

 25 28  0  0  1  0  0  0  0  0999 V2000
  184.8550  178.5720  141.2340 C   0  0  0  0  0  0  0  0  0  0  0  0
  186.2490  178.4300  141.3770 C   0  0  0  0  0  0  0  0  0  0  0  0
  185.0880  178.5770  138.8210 C   0  0  0  0  0  3  0  0  0  0  0  0
  183.8720  178.6630  142.2370 C   0  0  0  0  0  0  0  0  0  0  0  0
  188.9730  177.8210  143.8330 C   0  0  0  0  0  0  0  0  0  0  0  0
  181.6530  178.8700  143.9260 C   0  0  0  0  0  3  0  0  0  0  0  0
  186.4340  178.4400  138.9690 N   0  0  0  0  0  0  0  0  0  0  0  0
  182.5850  178.8000  141.7180 C   0  0  0  0  0  0  0  0  0  0  0  0
  181.4630  178.9050  142.5370 C   0  0  0  0  0  3  0  0  0  0  0  0
  188.4990  178.1990  140.2780 C   0  0  0  0  0  0  0  0  0  0  0  0
  189.4770  178.1840  138.8220 Cl  0  0  0  0  0  0  0  0  0  0  0  0
  189.5930  177.6150  144.9620 C   0  0  0  0  0  3  0  0  0  0  0  0
  186.8960  178.4050  142.7410 C   0  0  0  0  0  2  0  0  0  0  0  0
  182.9450  178.7320  144.4660 C   0  0  0  0  0  3  0  0  0  0  0  0
  184.2990  178.6410  139.9600 C   0  0  0  0  0  0  0  0  0  0  0  0
  182.6240  178.8120  140.0350 S   0  0  0  0  0  0  0  0  0  0  0  0
  189.1060  178.0280  141.4510 C   0  0  0  0  0  3  0  0  0  0  0  0
  184.0620  178.6270  143.6220 C   0  0  0  0  0  3  0  0  0  0  0  0
  188.3470  178.0260  142.7090 C   0  0  0  0  0  0  0  0  0  0  0  0
  187.0340  178.3660  140.1960 C   0  0  0  0  0  0  0  0  0  0  0  0
  188.8660  177.0740  146.1490 C   0  0  2  0  0  3  0  0  0  0  0  0
  187.5020  177.7290  146.2990 C   0  0  0  0  0  1  0  0  0  0  0  0
  189.6750  177.2680  147.3900 C   0  0  0  0  0  0  0  0  0  0  0  0
  190.8940  176.6170  147.5220 O   0  0  0  0  0  0  0  0  0  0  0  0
  189.2650  178.0190  148.3150 O   0  0  0  0  0  1  0  0  0  0  0  0
  1  2  1  0  0  0  0
  1  4  1  0  0  0  0
  2 13  1  0  0  0  0
  3  7  2  0  0  0  0
  3 15  1  0  0  0  0
  4 18  1  0  0  0  0
  5 12  2  0  0  0  0
  6 14  1  0  0  0  0
  7 20  1  0  0  0  0
  8  4  2  0  0  0  0
  8  9  1  0  0  0  0
  9  6  2  0  0  0  0
 10 17  2  0  0  0  0
 11 10  1  0  0  0  0
 12 21  1  0  0  0  0
 15 16  1  0  0  0  0
 15  1  2  0  0  0  0
 16  8  1  0  0  0  0
 17 19  1  0  0  0  0
 18 14  2  0  0  0  0
 19 13  1  0  0  0  0
 19  5  2  0  0  0  0
 20 10  1  0  0  0  0
 20  2  2  0  0  0  0
 21 22  1  1  0  0  0
 21 23  1  0  0  0  0
 23 24  2  0  0  0  0
 23 25  1  0  0  0  0
M  END
>  <MODEL>
8

>  <REMARK>
 VINA RESULT:      -9.6      4.276      6.150
  Name = 
  2 active torsions:
  status: ('A' for Active; 'I' for Inactive)
    1  A    between atoms: C_2  and  C_21
    2  A    between atoms: C_15  and  C_21
                            x       y       z     vdW  Elec       q    Type
                         _______ _______ _______ _____ _____    ______ ____

>  <TORSDO>
F 2

$$$$
=
 OpenBabel10272400403D

 25 28  0  0  1  0  0  0  0  0999 V2000
  185.5930  178.2150  144.2940 C   0  0  0  0  0  0  0  0  0  0  0  0
  186.9440  177.8190  144.2940 C   0  0  0  0  0  0  0  0  0  0  0  0
  185.6350  178.4150  146.7090 C   0  0  0  0  0  3  0  0  0  0  0  0
  184.7210  178.3710  143.1990 C   0  0  0  0  0  0  0  0  0  0  0  0
  189.8650  177.0880  142.1120 C   0  0  0  0  0  0  0  0  0  0  0  0
  182.7140  178.7890  141.2980 C   0  0  0  0  0  3  0  0  0  0  0  0
  186.9400  178.0300  146.7000 N   0  0  0  0  0  0  0  0  0  0  0  0
  183.4440  178.7780  143.5820 C   0  0  0  0  0  0  0  0  0  0  0  0
  182.4260  178.9940  142.6550 C   0  0  0  0  0  3  0  0  0  0  0  0
  189.0320  177.3390  145.6120 C   0  0  0  0  0  0  0  0  0  0  0  0
  189.8380  177.1700  147.1610 Cl  0  0  0  0  0  0  0  0  0  0  0  0
  190.5950  176.9160  141.0450 C   0  0  0  0  0  3  0  0  0  0  0  0
  187.6480  177.4410  143.0130 C   0  0  0  0  0  2  0  0  0  0  0  0
  183.9980  178.3790  140.8950 C   0  0  0  0  0  3  0  0  0  0  0  0
  184.9630  178.5080  145.4990 C   0  0  0  0  0  0  0  0  0  0  0  0
  183.3560  178.9540  145.2540 S   0  0  0  0  0  0  0  0  0  0  0  0
  189.7400  177.1340  144.5020 C   0  0  0  0  0  3  0  0  0  0  0  0
  185.0090  178.1680  141.8460 C   0  0  0  0  0  3  0  0  0  0  0  0
  189.1290  177.2630  143.1730 C   0  0  0  0  0  0  0  0  0  0  0  0
  187.6090  177.7320  145.5450 C   0  0  0  0  0  0  0  0  0  0  0  0
  190.2110  177.5390  139.7430 C   0  0  2  0  0  3  0  0  0  0  0  0
  188.7630  178.0010  139.7650 C   0  0  0  0  0  1  0  0  0  0  0  0
  190.4330  176.5800  138.6200 C   0  0  0  0  0  0  0  0  0  0  0  0
  190.1750  176.9790  137.3160 O   0  0  0  0  0  0  0  0  0  0  0  0
  190.8560  175.4140  138.8430 O   0  0  0  0  0  1  0  0  0  0  0  0
  1  2  2  0  0  0  0
  1 15  1  0  0  0  0
  2 20  1  0  0  0  0
  4  8  1  0  0  0  0
  4  1  1  0  0  0  0
  5 19  2  0  0  0  0
  6  9  1  0  0  0  0
  7  3  1  0  0  0  0
  8 16  1  0  0  0  0
  9  8  2  0  0  0  0
 10 11  1  0  0  0  0
 12  5  2  0  0  0  0
 13 19  1  0  0  0  0
 13  2  1  0  0  0  0
 14  6  2  0  0  0  0
 14 18  1  0  0  0  0
 15  3  2  0  0  0  0
 16 15  1  0  0  0  0
 17 10  2  0  0  0  0
 18  4  2  0  0  0  0
 19 17  1  0  0  0  0
 20 10  1  0  0  0  0
 20  7  2  0  0  0  0
 21 22  1  1  0  0  0
 21 12  1  0  0  0  0
 23 25  1  0  0  0  0
 23 21  1  0  0  0  0
 24 23  2  0  0  0  0
M  END
>  <MODEL>
9

>  <REMARK>
 VINA RESULT:      -9.5      1.243      1.860
  Name = 
  2 active torsions:
  status: ('A' for Active; 'I' for Inactive)
    1  A    between atoms: C_2  and  C_21
    2  A    between atoms: C_15  and  C_21
                            x       y       z     vdW  Elec       q    Type
                         _______ _______ _______ _____ _____    ______ ____

>  <TORSDO>
F 2

$$$$
