=
 OpenBabel10272401023D

 27 30  0  0  1  0  0  0  0  0999 V2000
  181.6220  177.0560  138.9510 C   0  0  2  0  0  3  0  0  0  0  0  0
  183.2280  177.1660  136.9980 C   0  0  1  0  0  3  0  0  0  0  0  0
  184.8430  178.5650  138.4160 C   0  0  0  0  0  2  0  0  0  0  0  0
  186.7100  176.2620  134.7130 C   0  0  0  0  0  3  0  0  0  0  0  0
  188.9970  175.5080  134.5660 O   0  0  0  0  0  1  0  0  0  0  0  0
  183.3010  177.6640  135.5510 C   0  0  0  0  0  2  0  0  0  0  0  0
  186.9620  176.4620  137.4920 C   0  0  0  0  0  3  0  0  0  0  0  0
  185.3190  179.5380  140.5290 O   0  0  0  0  0  1  0  0  0  0  0  0
  188.0470  176.0360  136.7190 C   0  0  0  0  0  3  0  0  0  0  0  0
  183.1990  178.4720  141.7700 F   0  0  0  0  0  0  0  0  0  0  0  0
  184.5840  177.2270  137.7340 C   0  0  2  0  0  3  0  0  0  0  0  0
  182.1270  177.7740  137.7740 N   0  0  0  0  0  0  0  0  0  0  0  0
  187.9200  175.9350  135.3320 C   0  0  0  0  0  0  0  0  0  0  0  0
  185.6260  176.7000  135.4800 C   0  0  0  0  0  0  0  0  0  0  0  0
  185.7470  176.7970  136.8800 C   0  0  0  0  0  0  0  0  0  0  0  0
  184.7240  178.4250  139.9320 C   0  0  1  0  0  3  0  0  0  0  0  0
  184.3850  177.0000  134.8390 N   0  0  0  0  0  2  0  0  0  0  0  0
  183.2680  178.3090  140.3980 C   0  0  1  0  0  3  0  0  0  0  0  0
  182.6880  176.9440  140.0430 C   0  0  0  0  0  2  0  0  0  0  0  0
  180.6730  181.7330  137.1590 C   0  0  0  0  0  3  0  0  0  0  0  0
  181.6530  179.1260  137.5650 C   0  0  0  0  0  0  0  0  0  0  0  0
  181.9650  180.1590  138.4670 C   0  0  0  0  0  3  0  0  0  0  0  0
  181.4820  181.4540  138.2640 C   0  0  0  0  0  3  0  0  0  0  0  0
  180.3480  180.7170  136.2590 C   0  0  0  0  0  3  0  0  0  0  0  0
  180.8320  179.4210  136.4630 C   0  0  0  0  0  3  0  0  0  0  0  0
  181.0950  175.6830  138.5630 C   0  0  0  0  0  2  0  0  0  0  0  0
  180.6070  175.0240  139.6920 O   0  0  0  0  0  1  0  0  0  0  0  0
  1 26  1  6  0  0  0
  1 19  1  0  0  0  0
  2  6  1  6  0  0  0
  2 11  1  0  0  0  0
  2 12  1  0  0  0  0
  3 16  1  0  0  0  0
  4 13  2  0  0  0  0
  4 14  1  0  0  0  0
  5 13  1  0  0  0  0
  9  7  2  0  0  0  0
 11  3  1  6  0  0  0
 12  1  1  0  0  0  0
 13  9  1  0  0  0  0
 14 15  2  0  0  0  0
 15  7  1  0  0  0  0
 15 11  1  0  0  0  0
 16 18  1  0  0  0  0
 16  8  1  1  0  0  0
 17 14  1  0  0  0  0
 17  6  1  0  0  0  0
 18 10  1  1  0  0  0
 19 18  1  0  0  0  0
 20 23  1  0  0  0  0
 21 12  1  0  0  0  0
 21 22  1  0  0  0  0
 23 22  2  0  0  0  0
 24 25  1  0  0  0  0
 24 20  2  0  0  0  0
 25 21  2  0  0  0  0
 26 27  1  0  0  0  0
M  END
>  <MODEL>
1

>  <REMARK>
 VINA RESULT:      -5.4      0.000      0.000
  Name = 
  2 active torsions:
  status: ('A' for Active; 'I' for Inactive)
    1  A    between atoms: C_1  and  C_18
    2  A    between atoms: C_9  and  N_15
                            x       y       z     vdW  Elec       q    Type
                         _______ _______ _______ _____ _____    ______ ____

>  <TORSDO>
F 2

$$$$
=
 OpenBabel10272401023D

 27 30  0  0  1  0  0  0  0  0999 V2000
  182.2360  179.6860  139.6570 C   0  0  2  0  0  3  0  0  0  0  0  0
  184.4540  178.7560  138.8690 C   0  0  1  0  0  3  0  0  0  0  0  0
  183.5670  176.3740  139.2140 C   0  0  0  0  0  2  0  0  0  0  0  0
  187.2120  176.8750  136.2190 C   0  0  0  0  0  3  0  0  0  0  0  0
  187.6840  175.4090  134.3620 O   0  0  0  0  0  1  0  0  0  0  0  0
  185.9420  178.7740  139.2310 C   0  0  0  0  0  2  0  0  0  0  0  0
  184.5830  175.9210  136.2930 C   0  0  0  0  0  3  0  0  0  0  0  0
  181.7330  174.9920  139.8150 O   0  0  0  0  0  1  0  0  0  0  0  0
  185.4820  175.4240  135.3450 C   0  0  0  0  0  3  0  0  0  0  0  0
  179.9820  177.0040  140.0580 F   0  0  0  0  0  0  0  0  0  0  0  0
  184.0020  177.4350  138.2100 C   0  0  2  0  0  3  0  0  0  0  0  0
  183.5730  179.1720  139.9800 N   0  0  0  0  0  0  0  0  0  0  0  0
  186.7940  175.9010  135.3080 C   0  0  0  0  0  0  0  0  0  0  0  0
  186.3200  177.3670  137.1770 C   0  0  0  0  0  0  0  0  0  0  0  0
  184.9940  176.8930  137.2150 C   0  0  0  0  0  0  0  0  0  0  0  0
  182.0510  176.1930  139.1810 C   0  0  1  0  0  3  0  0  0  0  0  0
  186.7500  178.3860  138.0830 N   0  0  0  0  0  2  0  0  0  0  0  0
  181.3080  177.3480  139.8640 C   0  0  1  0  0  3  0  0  0  0  0  0
  181.3600  178.6110  139.0110 C   0  0  0  0  0  2  0  0  0  0  0  0
  184.4890  178.4600  144.0810 C   0  0  0  0  0  3  0  0  0  0  0  0
  183.8690  178.9160  141.3740 C   0  0  0  0  0  0  0  0  0  0  0  0
  182.8970  179.0990  142.3740 C   0  0  0  0  0  3  0  0  0  0  0  0
  183.2040  178.8700  143.7180 C   0  0  0  0  0  3  0  0  0  0  0  0
  185.4670  178.2810  143.1010 C   0  0  0  0  0  3  0  0  0  0  0  0
  185.1590  178.5110  141.7560 C   0  0  0  0  0  3  0  0  0  0  0  0
  182.3300  180.9180  138.7700 C   0  0  0  0  0  2  0  0  0  0  0  0
  181.4650  180.7880  137.6820 O   0  0  0  0  0  1  0  0  0  0  0  0
  1 26  1  6  0  0  0
  1 12  1  0  0  0  0
  2  6  1  1  0  0  0
  2 12  1  0  0  0  0
  4 14  1  0  0  0  0
  5 13  1  0  0  0  0
  7 15  1  0  0  0  0
  9  7  2  0  0  0  0
 11  2  1  0  0  0  0
 11  3  1  1  0  0  0
 12 21  1  0  0  0  0
 13  9  1  0  0  0  0
 13  4  2  0  0  0  0
 14 15  2  0  0  0  0
 14 17  1  0  0  0  0
 15 11  1  0  0  0  0
 16  3  1  0  0  0  0
 16  8  1  1  0  0  0
 16 18  1  0  0  0  0
 17  6  1  0  0  0  0
 18 10  1  6  0  0  0
 19  1  1  0  0  0  0
 19 18  1  0  0  0  0
 21 25  2  0  0  0  0
 21 22  1  0  0  0  0
 22 23  2  0  0  0  0
 23 20  1  0  0  0  0
 24 20  2  0  0  0  0
 25 24  1  0  0  0  0
 27 26  1  0  0  0  0
M  END
>  <MODEL>
2

>  <REMARK>
 VINA RESULT:      -5.3      2.244      4.363
  Name = 
  2 active torsions:
  status: ('A' for Active; 'I' for Inactive)
    1  A    between atoms: C_1  and  C_18
    2  A    between atoms: C_9  and  N_15
                            x       y       z     vdW  Elec       q    Type
                         _______ _______ _______ _____ _____    ______ ____

>  <TORSDO>
F 2

$$$$
=
 OpenBabel10272401023D

 27 30  0  0  1  0  0  0  0  0999 V2000
  189.4570  177.3720  135.6450 C   0  0  2  0  0  3  0  0  0  0  0  0
  188.3890  175.2360  136.4810 C   0  0  1  0  0  3  0  0  0  0  0  0
  186.6160  176.6170  137.7170 C   0  0  0  0  0  2  0  0  0  0  0  0
  185.4930  172.1170  136.7180 C   0  0  0  0  0  3  0  0  0  0  0  0
  183.2490  171.2950  136.3860 O   0  0  0  0  0  1  0  0  0  0  0  0
  188.7140  174.0000  137.3260 C   0  0  0  0  0  2  0  0  0  0  0  0
  184.5970  174.7270  136.2610 C   0  0  0  0  0  3  0  0  0  0  0  0
  185.7370  178.7690  138.1990 O   0  0  0  0  0  1  0  0  0  0  0  0
  183.6960  173.6590  136.2120 C   0  0  0  0  0  3  0  0  0  0  0  0
  187.3850  180.0800  136.5450 F   0  0  0  0  0  0  0  0  0  0  0  0
  186.9070  175.6610  136.5660 C   0  0  2  0  0  3  0  0  0  0  0  0
  189.3210  176.3610  136.7010 N   0  0  0  0  0  0  0  0  0  0  0  0
  184.1440  172.3560  136.4390 C   0  0  0  0  0  0  0  0  0  0  0  0
  186.3950  173.1830  136.7800 C   0  0  0  0  0  0  0  0  0  0  0  0
  185.9490  174.4990  136.5460 C   0  0  0  0  0  0  0  0  0  0  0  0
  186.3510  178.0260  137.1900 C   0  0  1  0  0  3  0  0  0  0  0  0
  187.7780  172.9230  137.0350 N   0  0  0  0  0  2  0  0  0  0  0  0
  187.6350  178.7340  136.7390 C   0  0  1  0  0  3  0  0  0  0  0  0
  188.1530  178.1440  135.4320 C   0  0  0  0  0  2  0  0  0  0  0  0
  191.2210  177.2180  140.4180 C   0  0  0  0  0  3  0  0  0  0  0  0
  189.9560  176.6370  137.9720 C   0  0  0  0  0  0  0  0  0  0  0  0
  189.2000  176.9760  139.1090 C   0  0  0  0  0  3  0  0  0  0  0  0
  189.8280  177.2620  140.3240 C   0  0  0  0  0  3  0  0  0  0  0  0
  191.9850  176.8900  139.2970 C   0  0  0  0  0  3  0  0  0  0  0  0
  191.3560  176.6040  138.0810 C   0  0  0  0  0  3  0  0  0  0  0  0
  189.9320  176.7380  134.3460 C   0  0  0  0  0  2  0  0  0  0  0  0
  191.2240  176.2370  134.5060 O   0  0  0  0  0  1  0  0  0  0  0  0
  1 26  1  6  0  0  0
  1 12  1  0  0  0  0
  2 11  1  0  0  0  0
  2 12  1  0  0  0  0
  2  6  1  1  0  0  0
  4 14  1  0  0  0  0
  5 13  1  0  0  0  0
  7 15  1  0  0  0  0
  9  7  2  0  0  0  0
  9 13  1  0  0  0  0
 11  3  1  1  0  0  0
 12 21  1  0  0  0  0
 13  4  2  0  0  0  0
 14 17  1  0  0  0  0
 15 11  1  0  0  0  0
 15 14  2  0  0  0  0
 16  3  1  0  0  0  0
 16  8  1  1  0  0  0
 17  6  1  0  0  0  0
 18 10  1  6  0  0  0
 18 16  1  0  0  0  0
 19  1  1  0  0  0  0
 19 18  1  0  0  0  0
 21 25  2  0  0  0  0
 21 22  1  0  0  0  0
 22 23  2  0  0  0  0
 23 20  1  0  0  0  0
 24 20  2  0  0  0  0
 25 24  1  0  0  0  0
 26 27  1  0  0  0  0
M  END
>  <MODEL>
3

>  <REMARK>
 VINA RESULT:      -5.3      4.351      7.337
  Name = 
  2 active torsions:
  status: ('A' for Active; 'I' for Inactive)
    1  A    between atoms: C_1  and  C_18
    2  A    between atoms: C_9  and  N_15
                            x       y       z     vdW  Elec       q    Type
                         _______ _______ _______ _____ _____    ______ ____

>  <TORSDO>
F 2

$$$$
=
 OpenBabel10272401023D

 27 30  0  0  1  0  0  0  0  0999 V2000
  181.7640  178.2860  139.6410 C   0  0  2  0  0  3  0  0  0  0  0  0
  181.5630  176.3210  138.0590 C   0  0  1  0  0  3  0  0  0  0  0  0
  183.9180  176.8110  137.1670 C   0  0  0  0  0  2  0  0  0  0  0  0
  182.2810  172.4030  136.5430 C   0  0  0  0  0  3  0  0  0  0  0  0
  183.6590  170.4300  136.3690 O   0  0  0  0  0  1  0  0  0  0  0  0
  180.7020  175.8190  136.8960 C   0  0  0  0  0  2  0  0  0  0  0  0
  184.4100  173.7760  137.7280 C   0  0  0  0  0  3  0  0  0  0  0  0
  185.8770  178.1440  137.3220 O   0  0  0  0  0  1  0  0  0  0  0  0
  184.5660  172.4430  137.3400 C   0  0  0  0  0  3  0  0  0  0  0  0
  185.0600  179.5270  139.4650 F   0  0  0  0  0  0  0  0  0  0  0  0
  183.0350  175.8630  137.9700 C   0  0  2  0  0  3  0  0  0  0  0  0
  181.4290  177.7720  138.3070 N   0  0  0  0  0  0  0  0  0  0  0  0
  183.5030  171.7570  136.7500 C   0  0  0  0  0  0  0  0  0  0  0  0
  182.1230  173.7400  136.9180 C   0  0  0  0  0  0  0  0  0  0  0  0
  183.1910  174.4350  137.5200 C   0  0  0  0  0  0  0  0  0  0  0  0
  184.8570  177.5830  138.0920 C   0  0  1  0  0  3  0  0  0  0  0  0
  180.8590  174.3810  136.7300 N   0  0  0  0  0  2  0  0  0  0  0  0
  184.1340  178.6880  138.8710 C   0  0  1  0  0  3  0  0  0  0  0  0
  183.2480  178.0970  139.9630 C   0  0  0  0  0  2  0  0  0  0  0  0
  180.7480  180.6660  135.2540 C   0  0  0  0  0  3  0  0  0  0  0  0
  181.1830  178.7430  137.2620 C   0  0  0  0  0  0  0  0  0  0  0  0
  181.2980  178.4000  135.9030 C   0  0  0  0  0  3  0  0  0  0  0  0
  181.0790  179.3540  134.9060 C   0  0  0  0  0  3  0  0  0  0  0  0
  180.6370  181.0230  136.5980 C   0  0  0  0  0  3  0  0  0  0  0  0
  180.8560  180.0680  137.5960 C   0  0  0  0  0  3  0  0  0  0  0  0
  180.8900  177.6400  140.7060 C   0  0  0  0  0  2  0  0  0  0  0  0
  180.8170  178.4660  141.8280 O   0  0  0  0  0  1  0  0  0  0  0  0
  1 19  1  0  0  0  0
  1 26  1  1  0  0  0
  2  6  1  6  0  0  0
  2 12  1  0  0  0  0
  3 16  1  0  0  0  0
  4 13  2  0  0  0  0
  4 14  1  0  0  0  0
  5 13  1  0  0  0  0
  9  7  2  0  0  0  0
 11  3  1  6  0  0  0
 11  2  1  0  0  0  0
 12  1  1  0  0  0  0
 13  9  1  0  0  0  0
 14 15  2  0  0  0  0
 15  7  1  0  0  0  0
 15 11  1  0  0  0  0
 16  8  1  6  0  0  0
 16 18  1  0  0  0  0
 17  6  1  0  0  0  0
 17 14  1  0  0  0  0
 18 10  1  1  0  0  0
 18 19  1  0  0  0  0
 20 24  1  0  0  0  0
 21 25  1  0  0  0  0
 21 12  1  0  0  0  0
 22 21  2  0  0  0  0
 23 20  2  0  0  0  0
 23 22  1  0  0  0  0
 24 25  2  0  0  0  0
 26 27  1  0  0  0  0
M  END
>  <MODEL>
4

>  <REMARK>
 VINA RESULT:      -5.2      2.754      3.604
  Name = 
  2 active torsions:
  status: ('A' for Active; 'I' for Inactive)
    1  A    between atoms: C_1  and  C_18
    2  A    between atoms: C_9  and  N_15
                            x       y       z     vdW  Elec       q    Type
                         _______ _______ _______ _____ _____    ______ ____

>  <TORSDO>
F 2

$$$$
=
 OpenBabel10272401023D

 27 30  0  0  1  0  0  0  0  0999 V2000
  188.8140  177.7080  137.4400 C   0  0  2  0  0  3  0  0  0  0  0  0
  191.2110  176.9130  137.6070 C   0  0  1  0  0  3  0  0  0  0  0  0
  190.3900  174.4850  137.6910 C   0  0  0  0  0  2  0  0  0  0  0  0
  194.8760  175.1680  136.3060 C   0  0  0  0  0  3  0  0  0  0  0  0
  196.1080  173.7000  134.8420 O   0  0  0  0  0  1  0  0  0  0  0  0
  192.4410  177.0390  138.5120 C   0  0  0  0  0  2  0  0  0  0  0  0
  192.4790  174.0410  135.4080 C   0  0  0  0  0  3  0  0  0  0  0  0
  188.5440  172.9950  137.6030 O   0  0  0  0  0  1  0  0  0  0  0  0
  193.6990  173.5860  134.9020 C   0  0  0  0  0  3  0  0  0  0  0  0
  186.7290  174.8880  137.0640 F   0  0  0  0  0  0  0  0  0  0  0  0
  191.1210  175.5520  136.8850 C   0  0  2  0  0  3  0  0  0  0  0  0
  189.9480  177.2920  138.2750 N   0  0  0  0  0  0  0  0  0  0  0  0
  194.8960  174.1500  135.3490 C   0  0  0  0  0  0  0  0  0  0  0  0
  193.6590  175.6190  136.8260 C   0  0  0  0  0  0  0  0  0  0  0  0
  192.4480  175.0570  136.3720 C   0  0  0  0  0  0  0  0  0  0  0  0
  189.0170  174.2020  137.0860 C   0  0  1  0  0  3  0  0  0  0  0  0
  193.6490  176.6830  137.7810 N   0  0  0  0  0  2  0  0  0  0  0  0
  188.0060  175.3170  137.3790 C   0  0  1  0  0  3  0  0  0  0  0  0
  188.3150  176.5630  136.5550 C   0  0  0  0  0  2  0  0  0  0  0  0
  189.2560  176.7160  142.4400 C   0  0  0  0  0  3  0  0  0  0  0  0
  189.6960  177.0850  139.6850 C   0  0  0  0  0  0  0  0  0  0  0  0
  188.4810  177.4740  140.2770 C   0  0  0  0  0  3  0  0  0  0  0  0
  188.2610  177.2880  141.6440 C   0  0  0  0  0  3  0  0  0  0  0  0
  190.4700  176.3320  141.8700 C   0  0  0  0  0  3  0  0  0  0  0  0
  190.6890  176.5180  140.5010 C   0  0  0  0  0  3  0  0  0  0  0  0
  189.1760  178.9250  136.6020 C   0  0  0  0  0  2  0  0  0  0  0  0
  188.9820  180.0890  137.3460 O   0  0  0  0  0  1  0  0  0  0  0  0
  1 26  1  6  0  0  0
  1 12  1  0  0  0  0
  2 12  1  0  0  0  0
  2  6  1  1  0  0  0
  4 14  1  0  0  0  0
  5 13  1  0  0  0  0
  7 15  1  0  0  0  0
  9 13  1  0  0  0  0
  9  7  2  0  0  0  0
 11  2  1  0  0  0  0
 11  3  1  1  0  0  0
 12 21  1  0  0  0  0
 13  4  2  0  0  0  0
 14 17  1  0  0  0  0
 15 14  2  0  0  0  0
 15 11  1  0  0  0  0
 16 18  1  0  0  0  0
 16  8  1  1  0  0  0
 16  3  1  0  0  0  0
 17  6  1  0  0  0  0
 18 10  1  6  0  0  0
 19 18  1  0  0  0  0
 19  1  1  0  0  0  0
 21 22  2  0  0  0  0
 21 25  1  0  0  0  0
 22 23  1  0  0  0  0
 23 20  2  0  0  0  0
 24 20  1  0  0  0  0
 25 24  2  0  0  0  0
 26 27  1  0  0  0  0
M  END
>  <MODEL>
5

>  <REMARK>
 VINA RESULT:      -5.1      5.921      8.294
  Name = 
  2 active torsions:
  status: ('A' for Active; 'I' for Inactive)
    1  A    between atoms: C_1  and  C_18
    2  A    between atoms: C_9  and  N_15
                            x       y       z     vdW  Elec       q    Type
                         _______ _______ _______ _____ _____    ______ ____

>  <TORSDO>
F 2

$$$$
=
 OpenBabel10272401023D

 27 30  0  0  1  0  0  0  0  0999 V2000
  181.4140  180.1700  138.4760 C   0  0  2  0  0  3  0  0  0  0  0  0
  183.6350  179.3650  139.3830 C   0  0  1  0  0  3  0  0  0  0  0  0
  183.1680  177.0300  138.4300 C   0  0  0  0  0  2  0  0  0  0  0  0
  187.7080  178.1150  139.2730 C   0  0  0  0  0  3  0  0  0  0  0  0
  189.5930  177.1770  138.0960 O   0  0  0  0  0  1  0  0  0  0  0  0
  184.3850  179.2040  140.7090 C   0  0  0  0  0  2  0  0  0  0  0  0
  186.0210  177.3220  137.1880 C   0  0  0  0  0  3  0  0  0  0  0  0
  181.7130  175.6400  137.1700 O   0  0  0  0  0  1  0  0  0  0  0  0
  187.3900  177.0480  137.1230 C   0  0  0  0  0  3  0  0  0  0  0  0
  180.0250  177.6060  136.4920 F   0  0  0  0  0  0  0  0  0  0  0  0
  184.0120  178.2960  138.3350 C   0  0  2  0  0  3  0  0  0  0  0  0
  182.1740  179.5160  139.5480 N   0  0  0  0  0  0  0  0  0  0  0  0
  188.2330  177.4450  138.1640 C   0  0  0  0  0  0  0  0  0  0  0  0
  186.3380  178.3810  139.3480 C   0  0  0  0  0  0  0  0  0  0  0  0
  185.4850  177.9870  138.2980 C   0  0  0  0  0  0  0  0  0  0  0  0
  182.1900  176.9480  137.2600 C   0  0  1  0  0  3  0  0  0  0  0  0
  185.8180  179.0940  140.4730 N   0  0  0  0  0  2  0  0  0  0  0  0
  181.0100  177.9160  137.4120 C   0  0  1  0  0  3  0  0  0  0  0  0
  181.4530  179.3570  137.1800 C   0  0  0  0  0  2  0  0  0  0  0  0
  179.9830  177.5920  142.6560 C   0  0  0  0  0  3  0  0  0  0  0  0
  181.4190  178.8800  140.6070 C   0  0  0  0  0  0  0  0  0  0  0  0
  181.4160  179.3950  141.9150 C   0  0  0  0  0  3  0  0  0  0  0  0
  180.7010  178.7580  142.9320 C   0  0  0  0  0  3  0  0  0  0  0  0
  179.9820  177.0630  141.3640 C   0  0  0  0  0  3  0  0  0  0  0  0
  180.6980  177.7020  140.3470 C   0  0  0  0  0  3  0  0  0  0  0  0
  181.9140  181.5880  138.2440 C   0  0  0  0  0  2  0  0  0  0  0  0
  180.8330  182.4650  138.1550 O   0  0  0  0  0  1  0  0  0  0  0  0
  1 26  1  6  0  0  0
  1 12  1  0  0  0  0
  2 12  1  0  0  0  0
  2  6  1  1  0  0  0
  4 14  1  0  0  0  0
  5 13  1  0  0  0  0
  7 15  1  0  0  0  0
  9  7  2  0  0  0  0
  9 13  1  0  0  0  0
 11  3  1  1  0  0  0
 11  2  1  0  0  0  0
 12 21  1  0  0  0  0
 13  4  2  0  0  0  0
 14 17  1  0  0  0  0
 15 11  1  0  0  0  0
 15 14  2  0  0  0  0
 16  8  1  1  0  0  0
 16 18  1  0  0  0  0
 16  3  1  0  0  0  0
 17  6  1  0  0  0  0
 18 10  1  6  0  0  0
 19 18  1  0  0  0  0
 19  1  1  0  0  0  0
 20 23  1  0  0  0  0
 21 22  1  0  0  0  0
 22 23  2  0  0  0  0
 24 20  2  0  0  0  0
 25 21  2  0  0  0  0
 25 24  1  0  0  0  0
 27 26  1  0  0  0  0
M  END
>  <MODEL>
6

>  <REMARK>
 VINA RESULT:      -5.0      2.723      4.525
  Name = 
  2 active torsions:
  status: ('A' for Active; 'I' for Inactive)
    1  A    between atoms: C_1  and  C_18
    2  A    between atoms: C_9  and  N_15
                            x       y       z     vdW  Elec       q    Type
                         _______ _______ _______ _____ _____    ______ ____

>  <TORSDO>
F 2

$$$$
=
 OpenBabel10272401023D

 27 30  0  0  1  0  0  0  0  0999 V2000
  188.6890  178.0790  136.5720 C   0  0  2  0  0  3  0  0  0  0  0  0
  188.4860  177.8650  139.0850 C   0  0  1  0  0  3  0  0  0  0  0  0
  189.9890  175.7880  139.0210 C   0  0  0  0  0  2  0  0  0  0  0  0
  189.7080  178.0840  143.1630 C   0  0  0  0  0  3  0  0  0  0  0  0
  191.4350  178.1100  144.8460 O   0  0  0  0  0  1  0  0  0  0  0  0
  187.4290  177.6630  140.1760 C   0  0  0  0  0  2  0  0  0  0  0  0
  191.5880  177.2750  141.2560 C   0  0  0  0  0  3  0  0  0  0  0  0
  191.3160  174.3210  137.7080 O   0  0  0  0  0  1  0  0  0  0  0  0
  191.9810  177.4890  142.5810 C   0  0  0  0  0  3  0  0  0  0  0  0
  191.0570  175.7230  135.4410 F   0  0  0  0  0  0  0  0  0  0  0  0
  189.8550  177.2470  139.4400 C   0  0  2  0  0  3  0  0  0  0  0  0
  188.0190  177.4860  137.7350 N   0  0  0  0  0  0  0  0  0  0  0  0
  191.0430  177.8940  143.5320 C   0  0  0  0  0  0  0  0  0  0  0  0
  189.3070  177.8590  141.8420 C   0  0  0  0  0  0  0  0  0  0  0  0
  190.2520  177.4560  140.8780 C   0  0  0  0  0  0  0  0  0  0  0  0
  190.9300  175.6570  137.8260 C   0  0  1  0  0  3  0  0  0  0  0  0
  187.9460  178.0870  141.4700 N   0  0  0  0  0  2  0  0  0  0  0  0
  190.2830  176.1220  136.5160 C   0  0  1  0  0  3  0  0  0  0  0  0
  190.1530  177.6410  136.4800 C   0  0  0  0  0  2  0  0  0  0  0  0
  185.2300  174.3600  136.9540 C   0  0  0  0  0  3  0  0  0  0  0  0
  187.0780  176.4140  137.4870 C   0  0  0  0  0  0  0  0  0  0  0  0
  187.5050  175.0820  137.3480 C   0  0  0  0  0  3  0  0  0  0  0  0
  186.5880  174.0610  137.0860 C   0  0  0  0  0  3  0  0  0  0  0  0
  184.7900  175.6780  137.0820 C   0  0  0  0  0  3  0  0  0  0  0  0
  185.7090  176.6990  137.3440 C   0  0  0  0  0  3  0  0  0  0  0  0
  188.5750  179.5960  136.5960 C   0  0  0  0  0  2  0  0  0  0  0  0
  187.2320  179.9730  136.5950 O   0  0  0  0  0  1  0  0  0  0  0  0
  1 26  1  1  0  0  0
  1 12  1  0  0  0  0
  2 11  1  0  0  0  0
  2  6  1  1  0  0  0
  4 13  1  0  0  0  0
  6 17  1  0  0  0  0
  7  9  1  0  0  0  0
  9 13  2  0  0  0  0
 11  3  1  1  0  0  0
 11 15  1  0  0  0  0
 12  2  1  0  0  0  0
 13  5  1  0  0  0  0
 14  4  2  0  0  0  0
 15  7  2  0  0  0  0
 15 14  1  0  0  0  0
 16  8  1  6  0  0  0
 16  3  1  0  0  0  0
 17 14  1  0  0  0  0
 18 10  1  6  0  0  0
 18 16  1  0  0  0  0
 19 18  1  0  0  0  0
 19  1  1  0  0  0  0
 20 24  2  0  0  0  0
 20 23  1  0  0  0  0
 21 12  1  0  0  0  0
 22 21  1  0  0  0  0
 23 22  2  0  0  0  0
 24 25  1  0  0  0  0
 25 21  2  0  0  0  0
 27 26  1  0  0  0  0
M  END
>  <MODEL>
7

>  <REMARK>
 VINA RESULT:      -4.8      4.742      7.699
  Name = 
  2 active torsions:
  status: ('A' for Active; 'I' for Inactive)
    1  A    between atoms: C_1  and  C_18
    2  A    between atoms: C_9  and  N_15
                            x       y       z     vdW  Elec       q    Type
                         _______ _______ _______ _____ _____    ______ ____

>  <TORSDO>
F 2

$$$$
=
 OpenBabel10272401023D

 27 30  0  0  1  0  0  0  0  0999 V2000
  182.6500  176.5680  135.3820 C   0  0  2  0  0  3  0  0  0  0  0  0
  184.6170  177.2400  136.8260 C   0  0  1  0  0  3  0  0  0  0  0  0
  184.9240  174.7930  137.5310 C   0  0  0  0  0  2  0  0  0  0  0  0
  188.7030  177.6260  137.9730 C   0  0  0  0  0  3  0  0  0  0  0  0
  190.9990  176.8910  137.8730 O   0  0  0  0  0  1  0  0  0  0  0  0
  184.9570  178.1340  138.0220 C   0  0  0  0  0  2  0  0  0  0  0  0
  187.9000  175.2670  136.7030 C   0  0  0  0  0  3  0  0  0  0  0  0
  184.2110  172.5410  137.2960 O   0  0  0  0  0  1  0  0  0  0  0  0
  189.2530  175.4900  136.9740 C   0  0  0  0  0  3  0  0  0  0  0  0
  182.4460  173.0470  135.3470 F   0  0  0  0  0  0  0  0  0  0  0  0
  185.4900  175.9700  136.7440 C   0  0  2  0  0  3  0  0  0  0  0  0
  183.1720  176.9520  136.6990 N   0  0  0  0  0  0  0  0  0  0  0  0
  189.6540  176.6690  137.6070 C   0  0  0  0  0  0  0  0  0  0  0  0
  187.3480  177.4030  137.7150 C   0  0  0  0  0  0  0  0  0  0  0  0
  186.9390  176.2170  137.0710 C   0  0  0  0  0  0  0  0  0  0  0  0
  184.3720  173.7300  136.5840 C   0  0  1  0  0  3  0  0  0  0  0  0
  186.3880  178.4030  138.0650 N   0  0  0  0  0  2  0  0  0  0  0  0
  183.0330  174.1400  135.9580 C   0  0  1  0  0  3  0  0  0  0  0  0
  183.2300  175.2320  134.9120 C   0  0  0  0  0  2  0  0  0  0  0  0
  180.4980  176.5730  139.9960 C   0  0  0  0  0  3  0  0  0  0  0  0
  182.2800  176.8280  137.8320 C   0  0  0  0  0  0  0  0  0  0  0  0
  182.5380  175.9170  138.8710 C   0  0  0  0  0  3  0  0  0  0  0  0
  181.6560  175.7920  139.9470 C   0  0  0  0  0  3  0  0  0  0  0  0
  180.2240  177.4770  138.9680 C   0  0  0  0  0  3  0  0  0  0  0  0
  181.1080  177.6010  137.8920 C   0  0  0  0  0  3  0  0  0  0  0  0
  182.9060  177.6630  134.3570 C   0  0  0  0  0  2  0  0  0  0  0  0
  181.8730  178.6010  134.3960 O   0  0  0  0  0  1  0  0  0  0  0  0
  1 26  1  6  0  0  0
  1 12  1  0  0  0  0
  2  6  1  1  0  0  0
  6 17  1  0  0  0  0
  7  9  2  0  0  0  0
  7 15  1  0  0  0  0
  9 13  1  0  0  0  0
 11  2  1  0  0  0  0
 11 15  1  0  0  0  0
 11  3  1  1  0  0  0
 12  2  1  0  0  0  0
 12 21  1  0  0  0  0
 13  5  1  0  0  0  0
 13  4  2  0  0  0  0
 14  4  1  0  0  0  0
 14 17  1  0  0  0  0
 15 14  2  0  0  0  0
 16  8  1  1  0  0  0
 16  3  1  0  0  0  0
 18 10  1  6  0  0  0
 18 16  1  0  0  0  0
 19  1  1  0  0  0  0
 19 18  1  0  0  0  0
 21 25  2  0  0  0  0
 21 22  1  0  0  0  0
 22 23  2  0  0  0  0
 23 20  1  0  0  0  0
 24 20  2  0  0  0  0
 25 24  1  0  0  0  0
 26 27  1  0  0  0  0
M  END
>  <MODEL>
8

>  <REMARK>
 VINA RESULT:      -4.8      3.125      4.457
  Name = 
  2 active torsions:
  status: ('A' for Active; 'I' for Inactive)
    1  A    between atoms: C_1  and  C_18
    2  A    between atoms: C_9  and  N_15
                            x       y       z     vdW  Elec       q    Type
                         _______ _______ _______ _____ _____    ______ ____

>  <TORSDO>
F 2

$$$$
=
 OpenBabel10272401023D

 27 30  0  0  1  0  0  0  0  0999 V2000
  183.7550  178.6340  139.7890 C   0  0  2  0  0  3  0  0  0  0  0  0
  181.9560  177.0530  138.9710 C   0  0  1  0  0  3  0  0  0  0  0  0
  183.1580  176.8690  136.7130 C   0  0  0  0  0  2  0  0  0  0  0  0
  180.2020  173.3350  137.8450 C   0  0  0  0  0  3  0  0  0  0  0  0
  180.4020  171.0630  137.0600 O   0  0  0  0  0  1  0  0  0  0  0  0
  180.4460  177.0050  138.7200 C   0  0  0  0  0  2  0  0  0  0  0  0
  182.8820  173.7920  137.1840 C   0  0  0  0  0  3  0  0  0  0  0  0
  185.0380  177.4710  135.3940 O   0  0  0  0  0  1  0  0  0  0  0  0
  182.3070  172.5380  136.9540 C   0  0  0  0  0  3  0  0  0  0  0  0
  186.3120  178.7630  137.3630 F   0  0  0  0  0  0  0  0  0  0  0  0
  182.7650  176.1610  138.0040 C   0  0  2  0  0  3  0  0  0  0  0  0
  182.4930  178.4270  139.0680 N   0  0  0  0  0  0  0  0  0  0  0  0
  180.9700  172.3100  137.2850 C   0  0  0  0  0  0  0  0  0  0  0  0
  180.7680  174.5940  138.0660 C   0  0  0  0  0  0  0  0  0  0  0  0
  182.1190  174.8270  137.7390 C   0  0  0  0  0  0  0  0  0  0  0  0
  184.6540  177.1750  136.7030 C   0  0  1  0  0  3  0  0  0  0  0  0
  179.9820  175.6250  138.6680 N   0  0  0  0  0  2  0  0  0  0  0  0
  185.0180  178.3470  137.6220 C   0  0  1  0  0  3  0  0  0  0  0  0
  184.9250  177.9390  139.0890 C   0  0  0  0  0  2  0  0  0  0  0  0
  180.8640  181.7030  136.8820 C   0  0  0  0  0  3  0  0  0  0  0  0
  181.9580  179.5480  138.3250 C   0  0  0  0  0  0  0  0  0  0  0  0
  182.0440  180.8620  138.8200 C   0  0  0  0  0  3  0  0  0  0  0  0
  181.5030  181.9320  138.1030 C   0  0  0  0  0  3  0  0  0  0  0  0
  180.7650  180.4040  136.3810 C   0  0  0  0  0  3  0  0  0  0  0  0
  181.3060  179.3340  137.0990 C   0  0  0  0  0  3  0  0  0  0  0  0
  183.6350  178.1750  141.2340 C   0  0  0  0  0  2  0  0  0  0  0  0
  184.4660  178.9440  142.0490 O   0  0  0  0  0  1  0  0  0  0  0  0
  1 26  1  1  0  0  0
  2  6  1  6  0  0  0
  2 12  1  0  0  0  0
  4 14  1  0  0  0  0
  5 13  1  0  0  0  0
  7 15  1  0  0  0  0
  9  7  2  0  0  0  0
  9 13  1  0  0  0  0
 11  3  1  6  0  0  0
 11  2  1  0  0  0  0
 12  1  1  0  0  0  0
 13  4  2  0  0  0  0
 14 17  1  0  0  0  0
 15 11  1  0  0  0  0
 15 14  2  0  0  0  0
 16  8  1  6  0  0  0
 16  3  1  0  0  0  0
 16 18  1  0  0  0  0
 17  6  1  0  0  0  0
 18 10  1  6  0  0  0
 18 19  1  0  0  0  0
 19  1  1  0  0  0  0
 20 23  1  0  0  0  0
 21 22  1  0  0  0  0
 21 12  1  0  0  0  0
 23 22  2  0  0  0  0
 24 20  2  0  0  0  0
 24 25  1  0  0  0  0
 25 21  2  0  0  0  0
 26 27  1  0  0  0  0
M  END
>  <MODEL>
9

>  <REMARK>
 VINA RESULT:      -4.6      2.424      4.629
  Name = 
  2 active torsions:
  status: ('A' for Active; 'I' for Inactive)
    1  A    between atoms: C_1  and  C_18
    2  A    between atoms: C_9  and  N_15
                            x       y       z     vdW  Elec       q    Type
                         _______ _______ _______ _____ _____    ______ ____

>  <TORSDO>
F 2

$$$$
