=
 OpenBabel10272413393D

 32 36  0  0  0  0  0  0  0  0999 V2000
  189.1260  177.1290  146.6620 C   0  0  0  0  0  0  0  0  0  0  0  0
  185.8690  178.2370  142.9940 C   0  0  0  0  0  0  0  0  0  0  0  0
  183.4210  178.6710  142.8170 C   0  0  0  0  0  0  0  0  0  0  0  0
  182.3190  178.9750  142.0030 C   0  0  0  0  0  0  0  0  0  0  0  0
  186.8770  177.7570  145.1040 C   0  0  0  0  0  0  0  0  0  0  0  0
  188.2530  177.7890  143.1250 C   0  0  0  0  0  3  0  0  0  0  0  0
  180.1500  179.5780  140.3730 C   0  0  0  0  0  3  0  0  0  0  0  0
  189.2570  177.3030  145.2750 C   0  0  0  0  0  3  0  0  0  0  0  0
  187.1240  178.1060  142.3480 C   0  0  0  0  0  0  0  0  0  0  0  0
  187.2340  178.2830  140.9540 C   0  0  0  0  0  0  0  0  0  0  0  0
  184.8390  178.7240  140.8350 C   0  0  0  0  0  0  0  0  0  0  0  0
  179.9820  179.4090  141.7110 N   0  0  0  0  0  0  0  0  0  0  0  0
  187.8670  177.2720  147.2600 C   0  0  0  0  0  3  0  0  0  0  0  0
  188.1380  177.6150  144.4990 C   0  0  0  0  0  0  0  0  0  0  0  0
  181.0270  179.1130  142.5300 C   0  0  0  0  0  3  0  0  0  0  0  0
  186.7460  177.5860  146.4850 C   0  0  0  0  0  3  0  0  0  0  0  0
  186.0850  178.6190  140.1970 C   0  0  0  0  0  0  0  0  0  0  0  0
  183.7440  179.0200  140.0840 N   0  0  0  0  0  2  0  0  0  0  0  0
  185.7940  178.0590  144.3450 N   0  0  0  0  0  0  0  0  0  0  0  0
  183.2450  178.5180  144.0580 O   0  0  0  0  0  0  0  0  0  0  0  0
  181.4180  179.4500  139.8020 C   0  0  0  0  0  3  0  0  0  0  0  0
  184.7120  178.5400  142.2360 C   0  0  0  0  0  0  0  0  0  0  0  0
  182.5060  179.1470  140.6220 C   0  0  0  0  0  0  0  0  0  0  0  0
  189.5290  177.8760  139.7880 N   0  0  0  0  0  0  0  0  0  0  0  0
  188.5110  178.0540  140.3080 C   0  0  0  0  0  0  0  0  0  0  0  0
  186.0640  177.8150  137.8250 C   0  0  0  0  0  1  0  0  0  0  0  0
  186.1160  178.8400  138.8080 O   0  0  0  0  0  0  0  0  0  0  0  0
  190.2240  176.8170  147.4690 O   0  0  0  0  0  0  0  0  0  0  0  0
  191.5670  177.0170  147.0470 C   0  0  0  0  0  2  0  0  0  0  0  0
  192.3070  175.7300  147.1170 C   0  0  0  0  0  0  0  0  0  0  0  0
  192.2960  174.9430  146.1350 O   0  0  0  0  0  0  0  0  0  0  0  0
  193.0470  175.4160  148.2480 O   0  0  0  0  0  1  0  0  0  0  0  0
  1 13  1  0  0  0  0
  1 28  1  0  0  0  0
  2 19  1  0  0  0  0
  3 20  2  0  0  0  0
  4 15  1  0  0  0  0
  4  3  1  0  0  0  0
  5 16  1  0  0  0  0
  6 14  2  0  0  0  0
  7 12  1  0  0  0  0
  8  1  2  0  0  0  0
  9  2  1  0  0  0  0
  9  6  1  0  0  0  0
 10  9  2  0  0  0  0
 11 22  1  0  0  0  0
 12 15  2  0  0  0  0
 14  5  1  0  0  0  0
 14  8  1  0  0  0  0
 16 13  2  0  0  0  0
 17 11  2  0  0  0  0
 17 10  1  0  0  0  0
 18 23  1  0  0  0  0
 18 11  1  0  0  0  0
 19  5  2  0  0  0  0
 21  7  2  0  0  0  0
 21 23  1  0  0  0  0
 22  3  1  0  0  0  0
 22  2  2  0  0  0  0
 23  4  2  0  0  0  0
 24 25  3  0  0  0  0
 25 10  1  0  0  0  0
 26 27  1  0  0  0  0
 27 17  1  0  0  0  0
 29 30  1  0  0  0  0
 29 28  1  0  0  0  0
 30 32  1  0  0  0  0
 31 30  2  0  0  0  0
M  END
>  <MODEL>
1

>  <REMARK>
 VINA RESULT:      -9.4      0.000      0.000
  Name = 
  5 active torsions:
  status: ('A' for Active; 'I' for Inactive)
    1  A    between atoms: C_1  and  C_10
    2  A    between atoms: C_2  and  O_24
    3  A    between atoms: C_10  and  O_24
    4  A    between atoms: C_13  and  C_15
    5  A    between atoms: O_25  and  C_26
                            x       y       z     vdW  Elec       q    Type
                         _______ _______ _______ _____ _____    ______ ____

>  <TORSDO>
F 5

$$$$
=
 OpenBabel10272413393D

 32 36  0  0  0  0  0  0  0  0999 V2000
  181.7950  179.0480  142.4070 C   0  0  0  0  0  0  0  0  0  0  0  0
  186.6230  178.0000  143.3430 C   0  0  0  0  0  0  0  0  0  0  0  0
  188.0100  177.4940  145.3530 C   0  0  0  0  0  0  0  0  0  0  0  0
  189.2710  177.1910  145.8860 C   0  0  0  0  0  0  0  0  0  0  0  0
  184.2810  178.4170  143.5460 C   0  0  0  0  0  0  0  0  0  0  0  0
  185.3100  178.5190  141.3680 C   0  0  0  0  0  3  0  0  0  0  0  0
  191.7800  176.5900  146.9210 C   0  0  0  0  0  3  0  0  0  0  0  0
  182.9340  178.9410  141.5940 C   0  0  0  0  0  3  0  0  0  0  0  0
  186.5530  178.2000  141.9420 C   0  0  0  0  0  0  0  0  0  0  0  0
  187.7090  178.0880  141.1430 C   0  0  0  0  0  0  0  0  0  0  0  0
  189.0190  177.5760  143.1350 C   0  0  0  0  0  0  0  0  0  0  0  0
  190.7010  176.6940  147.7410 N   0  0  0  0  0  0  0  0  0  0  0  0
  181.9100  178.8380  143.7870 C   0  0  0  0  0  3  0  0  0  0  0  0
  184.1720  178.6280  142.1600 C   0  0  0  0  0  0  0  0  0  0  0  0
  189.4640  176.9870  147.2590 C   0  0  0  0  0  3  0  0  0  0  0  0
  183.1480  178.5220  144.3560 C   0  0  0  0  0  3  0  0  0  0  0  0
  188.9460  177.7500  141.7440 C   0  0  0  0  0  0  0  0  0  0  0  0
  190.2230  177.2780  143.6940 N   0  0  0  0  0  2  0  0  0  0  0  0
  185.4870  178.1150  144.0900 N   0  0  0  0  0  0  0  0  0  0  0  0
  187.0190  177.5850  146.1300 O   0  0  0  0  0  0  0  0  0  0  0  0
  191.6380  176.7850  145.5450 C   0  0  0  0  0  3  0  0  0  0  0  0
  187.8640  177.6930  143.9520 C   0  0  0  0  0  0  0  0  0  0  0  0
  190.3780  177.0870  145.0270 C   0  0  0  0  0  0  0  0  0  0  0  0
  187.5650  178.6250  138.5970 N   0  0  0  0  0  0  0  0  0  0  0  0
  187.6250  178.3880  139.7280 C   0  0  0  0  0  0  0  0  0  0  0  0
  190.4210  176.4980  140.1530 C   0  0  0  0  0  1  0  0  0  0  0  0
  190.1380  177.5920  141.0150 O   0  0  0  0  0  0  0  0  0  0  0  0
  180.5410  179.3600  141.8750 O   0  0  0  0  0  0  0  0  0  0  0  0
  180.1460  178.9700  140.5660 C   0  0  0  0  0  2  0  0  0  0  0  0
  180.1460  180.1580  139.6710 C   0  0  0  0  0  0  0  0  0  0  0  0
  179.9820  181.3080  140.1530 O   0  0  0  0  0  1  0  0  0  0  0  0
  180.3700  180.0010  138.3110 O   0  0  0  0  0  0  0  0  0  0  0  0
  1 13  1  0  0  0  0
  2 22  1  0  0  0  0
  2 19  2  0  0  0  0
  3  4  1  0  0  0  0
  3 20  2  0  0  0  0
  4 15  1  0  0  0  0
  5 19  1  0  0  0  0
  5 16  1  0  0  0  0
  6  9  2  0  0  0  0
  6 14  1  0  0  0  0
  7 12  1  0  0  0  0
  8 14  1  0  0  0  0
  8  1  2  0  0  0  0
  9  2  1  0  0  0  0
 10 17  2  0  0  0  0
 10  9  1  0  0  0  0
 11 18  1  0  0  0  0
 11 22  2  0  0  0  0
 13 16  2  0  0  0  0
 14  5  2  0  0  0  0
 15 12  2  0  0  0  0
 17 11  1  0  0  0  0
 18 23  1  0  0  0  0
 21  7  2  0  0  0  0
 22  3  1  0  0  0  0
 23 21  1  0  0  0  0
 23  4  2  0  0  0  0
 24 25  3  0  0  0  0
 25 10  1  0  0  0  0
 26 27  1  0  0  0  0
 27 17  1  0  0  0  0
 28  1  1  0  0  0  0
 29 28  1  0  0  0  0
 30 31  1  0  0  0  0
 30 29  1  0  0  0  0
 32 30  2  0  0  0  0
M  END
>  <MODEL>
2

>  <REMARK>
 VINA RESULT:      -9.2      2.603      8.360
  Name = 
  5 active torsions:
  status: ('A' for Active; 'I' for Inactive)
    1  A    between atoms: C_1  and  C_10
    2  A    between atoms: C_2  and  O_24
    3  A    between atoms: C_10  and  O_24
    4  A    between atoms: C_13  and  C_15
    5  A    between atoms: O_25  and  C_26
                            x       y       z     vdW  Elec       q    Type
                         _______ _______ _______ _____ _____    ______ ____

>  <TORSDO>
F 5

$$$$
=
 OpenBabel10272413393D

 32 36  0  0  0  0  0  0  0  0999 V2000
  192.4960  176.9360  139.4790 C   0  0  0  0  0  0  0  0  0  0  0  0
  188.7610  177.5960  142.7810 C   0  0  0  0  0  0  0  0  0  0  0  0
  186.3500  178.2260  142.6850 C   0  0  0  0  0  0  0  0  0  0  0  0
  185.1550  178.4760  143.3750 C   0  0  0  0  0  0  0  0  0  0  0  0
  190.0610  177.4290  140.7850 C   0  0  0  0  0  0  0  0  0  0  0  0
  191.1130  177.0090  142.9130 C   0  0  0  0  0  3  0  0  0  0  0  0
  182.7960  178.9650  144.7620 C   0  0  0  0  0  3  0  0  0  0  0  0
  192.4180  176.8470  140.8780 C   0  0  0  0  0  3  0  0  0  0  0  0
  189.8920  177.2550  143.5640 C   0  0  0  0  0  0  0  0  0  0  0  0
  189.7920  177.1710  144.9680 C   0  0  0  0  0  0  0  0  0  0  0  0
  187.4320  177.7690  144.8210 C   0  0  0  0  0  0  0  0  0  0  0  0
  182.8350  179.0700  143.4070 N   0  0  0  0  0  0  0  0  0  0  0  0
  191.3520  177.2720  138.7430 C   0  0  0  0  0  3  0  0  0  0  0  0
  191.2060  177.0930  141.5290 C   0  0  0  0  0  0  0  0  0  0  0  0
  183.9770  178.8360  142.7060 C   0  0  0  0  0  3  0  0  0  0  0  0
  190.1380  177.5170  139.3930 C   0  0  0  0  0  3  0  0  0  0  0  0
  188.5450  177.4070  145.5970 C   0  0  0  0  0  0  0  0  0  0  0  0
  186.2510  178.0170  145.4500 N   0  0  0  0  0  2  0  0  0  0  0  0
  188.8880  177.6690  141.4230 N   0  0  0  0  0  0  0  0  0  0  0  0
  186.3670  178.3270  141.4270 O   0  0  0  0  0  0  0  0  0  0  0  0
  183.9440  178.6100  145.4730 C   0  0  0  0  0  3  0  0  0  0  0  0
  187.5200  177.8640  143.4080 C   0  0  0  0  0  0  0  0  0  0  0  0
  185.1280  178.3650  144.7760 C   0  0  0  0  0  0  0  0  0  0  0  0
  191.9320  176.7040  146.3790 N   0  0  0  0  0  0  0  0  0  0  0  0
  190.9840  176.9110  145.7490 C   0  0  0  0  0  0  0  0  0  0  0  0
  188.7520  178.3090  147.9240 C   0  0  0  0  0  1  0  0  0  0  0  0
  188.3560  177.3170  146.9880 O   0  0  0  0  0  0  0  0  0  0  0  0
  193.6910  176.6960  138.7950 O   0  0  0  0  0  0  0  0  0  0  0  0
  193.9030  175.5300  138.0090 C   0  0  0  0  0  2  0  0  0  0  0  0
  194.9080  174.6580  138.6740 C   0  0  0  0  0  0  0  0  0  0  0  0
  195.0130  173.4510  138.3390 O   0  0  0  0  0  0  0  0  0  0  0  0
  195.7580  175.1880  139.6340 O   0  0  0  0  0  1  0  0  0  0  0  0
  1  8  1  0  0  0  0
  2 22  1  0  0  0  0
  2  9  1  0  0  0  0
  3  4  1  0  0  0  0
  3 22  1  0  0  0  0
  4 23  1  0  0  0  0
  5 19  1  0  0  0  0
  5 14  1  0  0  0  0
  6  9  2  0  0  0  0
  7 21  1  0  0  0  0
  8 14  2  0  0  0  0
  9 10  1  0  0  0  0
 10 17  2  0  0  0  0
 10 25  1  0  0  0  0
 11 18  1  0  0  0  0
 11 17  1  0  0  0  0
 12  7  2  0  0  0  0
 13 16  1  0  0  0  0
 13  1  2  0  0  0  0
 14  6  1  0  0  0  0
 15  4  2  0  0  0  0
 15 12  1  0  0  0  0
 16  5  2  0  0  0  0
 17 27  1  0  0  0  0
 19  2  2  0  0  0  0
 20  3  2  0  0  0  0
 22 11  2  0  0  0  0
 23 18  1  0  0  0  0
 23 21  2  0  0  0  0
 25 24  3  0  0  0  0
 27 26  1  0  0  0  0
 28  1  1  0  0  0  0
 29 30  1  0  0  0  0
 29 28  1  0  0  0  0
 30 32  1  0  0  0  0
 31 30  2  0  0  0  0
M  END
>  <MODEL>
3

>  <REMARK>
 VINA RESULT:      -9.0      3.739      6.343
  Name = 
  5 active torsions:
  status: ('A' for Active; 'I' for Inactive)
    1  A    between atoms: C_1  and  C_10
    2  A    between atoms: C_2  and  O_24
    3  A    between atoms: C_10  and  O_24
    4  A    between atoms: C_13  and  C_15
    5  A    between atoms: O_25  and  C_26
                            x       y       z     vdW  Elec       q    Type
                         _______ _______ _______ _____ _____    ______ ____

>  <TORSDO>
F 5

$$$$
=
 OpenBabel10272413393D

 32 36  0  0  0  0  0  0  0  0999 V2000
  191.6150  176.5340  146.8150 C   0  0  0  0  0  0  0  0  0  0  0  0
  187.9630  177.7360  143.5730 C   0  0  0  0  0  0  0  0  0  0  0  0
  185.5170  178.2050  143.6940 C   0  0  0  0  0  0  0  0  0  0  0  0
  184.3310  178.5340  143.0210 C   0  0  0  0  0  0  0  0  0  0  0  0
  189.2070  177.2140  145.5430 C   0  0  0  0  0  0  0  0  0  0  0  0
  190.3380  177.2540  143.4150 C   0  0  0  0  0  3  0  0  0  0  0  0
  181.9940  179.1890  141.6670 C   0  0  0  0  0  3  0  0  0  0  0  0
  191.5830  176.7250  145.4240 C   0  0  0  0  0  3  0  0  0  0  0  0
  189.1300  177.5960  142.7820 C   0  0  0  0  0  0  0  0  0  0  0  0
  189.0760  177.7920  141.3860 C   0  0  0  0  0  0  0  0  0  0  0  0
  186.6910  178.2660  141.5580 C   0  0  0  0  0  0  0  0  0  0  0  0
  181.9830  179.0040  143.0140 N   0  0  0  0  0  0  0  0  0  0  0  0
  190.4380  176.6860  147.5600 C   0  0  0  0  0  3  0  0  0  0  0  0
  190.3850  177.0620  144.7910 C   0  0  0  0  0  0  0  0  0  0  0  0
  183.1140  178.6830  143.6990 C   0  0  0  0  0  3  0  0  0  0  0  0
  189.2370  177.0250  146.9280 C   0  0  0  0  0  3  0  0  0  0  0  0
  187.8510  178.1530  140.7760 C   0  0  0  0  0  0  0  0  0  0  0  0
  185.5190  178.5870  140.9460 N   0  0  0  0  0  2  0  0  0  0  0  0
  188.0460  177.5400  144.9220 N   0  0  0  0  0  0  0  0  0  0  0  0
  185.4880  178.0380  144.9450 O   0  0  0  0  0  0  0  0  0  0  0  0
  183.1830  179.0520  140.9480 C   0  0  0  0  0  3  0  0  0  0  0  0
  186.7280  178.0650  142.9630 C   0  0  0  0  0  0  0  0  0  0  0  0
  184.3560  178.7230  141.6290 C   0  0  0  0  0  0  0  0  0  0  0  0
  191.2080  177.3630  139.9500 N   0  0  0  0  0  0  0  0  0  0  0  0
  190.2640  177.5540  140.5910 C   0  0  0  0  0  0  0  0  0  0  0  0
  187.6220  177.3780  138.4050 C   0  0  0  0  0  1  0  0  0  0  0  0
  187.7190  178.3920  139.3960 O   0  0  0  0  0  0  0  0  0  0  0  0
  192.7950  176.1960  147.4820 O   0  0  0  0  0  0  0  0  0  0  0  0
  192.8330  175.9060  148.8740 C   0  0  0  0  0  2  0  0  0  0  0  0
  193.4550  177.0420  149.6030 C   0  0  0  0  0  0  0  0  0  0  0  0
  194.6160  176.9290  150.0730 O   0  0  0  0  0  1  0  0  0  0  0  0
  192.7700  178.2430  149.7270 O   0  0  0  0  0  0  0  0  0  0  0  0
  1 28  1  0  0  0  0
  1 13  1  0  0  0  0
  2 19  2  0  0  0  0
  3 20  2  0  0  0  0
  4  3  1  0  0  0  0
  4 15  1  0  0  0  0
  5 16  1  0  0  0  0
  6 14  1  0  0  0  0
  7 12  1  0  0  0  0
  8  1  2  0  0  0  0
  9  6  2  0  0  0  0
  9  2  1  0  0  0  0
 10  9  1  0  0  0  0
 11 22  2  0  0  0  0
 12 15  2  0  0  0  0
 14  8  1  0  0  0  0
 14  5  2  0  0  0  0
 16 13  2  0  0  0  0
 17 10  2  0  0  0  0
 17 11  1  0  0  0  0
 18 11  1  0  0  0  0
 18 23  1  0  0  0  0
 19  5  1  0  0  0  0
 21 23  1  0  0  0  0
 21  7  2  0  0  0  0
 22  2  1  0  0  0  0
 22  3  1  0  0  0  0
 23  4  2  0  0  0  0
 24 25  3  0  0  0  0
 25 10  1  0  0  0  0
 26 27  1  0  0  0  0
 27 17  1  0  0  0  0
 28 29  1  0  0  0  0
 29 30  1  0  0  0  0
 30 32  2  0  0  0  0
 30 31  1  0  0  0  0
M  END
>  <MODEL>
4

>  <REMARK>
 VINA RESULT:      -9.0      1.634      2.442
  Name = 
  5 active torsions:
  status: ('A' for Active; 'I' for Inactive)
    1  A    between atoms: C_1  and  C_10
    2  A    between atoms: C_2  and  O_24
    3  A    between atoms: C_10  and  O_24
    4  A    between atoms: C_13  and  C_15
    5  A    between atoms: O_25  and  C_26
                            x       y       z     vdW  Elec       q    Type
                         _______ _______ _______ _____ _____    ______ ____

>  <TORSDO>
F 5

$$$$
=
 OpenBabel10272413393D

 32 36  0  0  0  0  0  0  0  0999 V2000
  188.3370  177.5060  146.4840 C   0  0  0  0  0  0  0  0  0  0  0  0
  185.6320  178.3870  142.3370 C   0  0  0  0  0  0  0  0  0  0  0  0
  183.2320  178.7800  141.7900 C   0  0  0  0  0  0  0  0  0  0  0  0
  182.2560  179.0280  140.8130 C   0  0  0  0  0  0  0  0  0  0  0  0
  186.3310  178.0260  144.5910 C   0  0  0  0  0  0  0  0  0  0  0  0
  187.9750  177.9770  142.8290 C   0  0  0  0  0  3  0  0  0  0  0  0
  180.3400  179.5220  138.8610 C   0  0  0  0  0  3  0  0  0  0  0  0
  188.6640  177.6110  145.1230 C   0  0  0  0  0  3  0  0  0  0  0  0
  186.9680  178.2400  141.8840 C   0  0  0  0  0  0  0  0  0  0  0  0
  187.2750  178.3490  140.5120 C   0  0  0  0  0  0  0  0  0  0  0  0
  184.9190  178.7520  140.0310 C   0  0  0  0  0  0  0  0  0  0  0  0
  179.9830  179.4170  140.1690 N   0  0  0  0  0  0  0  0  0  0  0  0
  187.0040  177.6620  146.8880 C   0  0  0  0  0  3  0  0  0  0  0  0
  187.6660  177.8700  144.1800 C   0  0  0  0  0  0  0  0  0  0  0  0
  180.9020  179.1760  141.1420 C   0  0  0  0  0  3  0  0  0  0  0  0
  186.0040  177.9220  145.9460 C   0  0  0  0  0  3  0  0  0  0  0  0
  186.2440  178.6310  139.5840 C   0  0  0  0  0  0  0  0  0  0  0  0
  183.9410  178.9960  139.1170 N   0  0  0  0  0  2  0  0  0  0  0  0
  185.3650  178.2750  143.6710 N   0  0  0  0  0  0  0  0  0  0  0  0
  182.8810  178.6870  143.0000 O   0  0  0  0  0  0  0  0  0  0  0  0
  181.6770  179.3820  138.4850 C   0  0  0  0  0  3  0  0  0  0  0  0
  184.5940  178.6370  141.4070 C   0  0  0  0  0  0  0  0  0  0  0  0
  182.6380  179.1340  139.4650 C   0  0  0  0  0  0  0  0  0  0  0  0
  189.7160  177.9020  139.7180 N   0  0  0  0  0  0  0  0  0  0  0  0
  188.6320  178.1040  140.0680 C   0  0  0  0  0  0  0  0  0  0  0  0
  186.6040  177.7090  137.2830 C   0  0  0  0  0  1  0  0  0  0  0  0
  186.4720  178.7830  138.2040 O   0  0  0  0  0  0  0  0  0  0  0  0
  189.3090  177.2480  147.4540 O   0  0  0  0  0  0  0  0  0  0  0  0
  190.1930  176.1370  147.3770 C   0  0  0  0  0  2  0  0  0  0  0  0
  191.5880  176.6220  147.2010 C   0  0  0  0  0  0  0  0  0  0  0  0
  191.9340  177.1620  146.1190 O   0  0  0  0  0  0  0  0  0  0  0  0
  192.4950  176.5170  148.2460 O   0  0  0  0  0  1  0  0  0  0  0  0
  1 13  1  0  0  0  0
  1 28  1  0  0  0  0
  2 19  1  0  0  0  0
  3 20  2  0  0  0  0
  4 15  1  0  0  0  0
  4  3  1  0  0  0  0
  5 16  1  0  0  0  0
  6 14  2  0  0  0  0
  7 12  1  0  0  0  0
  8  1  2  0  0  0  0
  9  2  1  0  0  0  0
  9  6  1  0  0  0  0
 10  9  2  0  0  0  0
 11 22  1  0  0  0  0
 12 15  2  0  0  0  0
 14  5  1  0  0  0  0
 14  8  1  0  0  0  0
 16 13  2  0  0  0  0
 17 11  2  0  0  0  0
 17 10  1  0  0  0  0
 18 23  1  0  0  0  0
 18 11  1  0  0  0  0
 19  5  2  0  0  0  0
 21  7  2  0  0  0  0
 21 23  1  0  0  0  0
 22  3  1  0  0  0  0
 22  2  2  0  0  0  0
 23  4  2  0  0  0  0
 24 25  3  0  0  0  0
 25 10  1  0  0  0  0
 26 27  1  0  0  0  0
 27 17  1  0  0  0  0
 29 28  1  0  0  0  0
 30 29  1  0  0  0  0
 30 32  1  0  0  0  0
 31 30  2  0  0  0  0
M  END
>  <MODEL>
5

>  <REMARK>
 VINA RESULT:      -8.9      0.975      1.051
  Name = 
  5 active torsions:
  status: ('A' for Active; 'I' for Inactive)
    1  A    between atoms: C_1  and  C_10
    2  A    between atoms: C_2  and  O_24
    3  A    between atoms: C_10  and  O_24
    4  A    between atoms: C_13  and  C_15
    5  A    between atoms: O_25  and  C_26
                            x       y       z     vdW  Elec       q    Type
                         _______ _______ _______ _____ _____    ______ ____

>  <TORSDO>
F 5

$$$$
=
 OpenBabel10272413393D

 32 36  0  0  0  0  0  0  0  0999 V2000
  187.5320  178.4830  136.9960 C   0  0  0  0  0  0  0  0  0  0  0  0
  188.0380  177.8610  141.9600 C   0  0  0  0  0  0  0  0  0  0  0  0
  189.8810  177.2700  143.5320 C   0  0  0  0  0  0  0  0  0  0  0  0
  190.2930  177.0340  144.8520 C   0  0  0  0  0  0  0  0  0  0  0  0
  188.4370  178.0200  139.6120 C   0  0  0  0  0  0  0  0  0  0  0  0
  186.2130  178.4100  140.4550 C   0  0  0  0  0  3  0  0  0  0  0  0
  191.0880  176.5730  147.4760 C   0  0  0  0  0  3  0  0  0  0  0  0
  186.6370  178.5640  138.0750 C   0  0  0  0  0  3  0  0  0  0  0  0
  186.6710  178.1790  141.7640 C   0  0  0  0  0  0  0  0  0  0  0  0
  185.7890  178.2550  142.8620 C   0  0  0  0  0  0  0  0  0  0  0  0
  187.6280  177.6960  144.3610 C   0  0  0  0  0  0  0  0  0  0  0  0
  191.9820  176.4770  146.4560 N   0  0  0  0  0  0  0  0  0  0  0  0
  188.8760  178.1700  137.2360 C   0  0  0  0  0  3  0  0  0  0  0  0
  187.0870  178.3330  139.3770 C   0  0  0  0  0  0  0  0  0  0  0  0
  191.6170  176.6970  145.1640 C   0  0  0  0  0  3  0  0  0  0  0  0
  189.3290  177.9400  138.5390 C   0  0  0  0  0  3  0  0  0  0  0  0
  186.2790  178.0350  144.1720 C   0  0  0  0  0  0  0  0  0  0  0  0
  188.0710  177.4620  145.6270 N   0  0  0  0  0  2  0  0  0  0  0  0
  188.8680  177.7950  140.8790 N   0  0  0  0  0  0  0  0  0  0  0  0
  190.7250  177.1770  142.5990 O   0  0  0  0  0  0  0  0  0  0  0  0
  189.7570  176.9060  147.2150 C   0  0  0  0  0  3  0  0  0  0  0  0
  188.5260  177.6090  143.2660 C   0  0  0  0  0  0  0  0  0  0  0  0
  189.3590  177.1370  145.8970 C   0  0  0  0  0  0  0  0  0  0  0  0
  183.2530  178.6810  142.4400 N   0  0  0  0  0  0  0  0  0  0  0  0
  184.3790  178.4910  142.6230 C   0  0  0  0  0  0  0  0  0  0  0  0
  185.5370  179.1650  146.2800 C   0  0  0  0  0  1  0  0  0  0  0  0
  185.4710  178.1190  145.3200 O   0  0  0  0  0  0  0  0  0  0  0  0
  187.1170  178.7090  135.6810 O   0  0  0  0  0  0  0  0  0  0  0  0
  187.1940  177.7100  134.6710 C   0  0  0  0  0  2  0  0  0  0  0  0
  186.2930  176.5800  135.0190 C   0  0  0  0  0  0  0  0  0  0  0  0
  186.7700  175.4340  135.2220 O   0  0  0  0  0  1  0  0  0  0  0  0
  184.9300  176.7990  135.1630 O   0  0  0  0  0  0  0  0  0  0  0  0
  1 13  2  0  0  0  0
  1  8  1  0  0  0  0
  2 22  1  0  0  0  0
  3  4  1  0  0  0  0
  4 15  2  0  0  0  0
  4 23  1  0  0  0  0
  5 19  1  0  0  0  0
  6  9  2  0  0  0  0
  8 14  2  0  0  0  0
  9  2  1  0  0  0  0
  9 10  1  0  0  0  0
 10 17  2  0  0  0  0
 11 18  1  0  0  0  0
 12  7  2  0  0  0  0
 13 16  1  0  0  0  0
 14  5  1  0  0  0  0
 14  6  1  0  0  0  0
 15 12  1  0  0  0  0
 16  5  2  0  0  0  0
 17 11  1  0  0  0  0
 17 27  1  0  0  0  0
 18 23  1  0  0  0  0
 19  2  2  0  0  0  0
 20  3  2  0  0  0  0
 21  7  1  0  0  0  0
 22  3  1  0  0  0  0
 22 11  2  0  0  0  0
 23 21  2  0  0  0  0
 24 25  3  0  0  0  0
 25 10  1  0  0  0  0
 27 26  1  0  0  0  0
 28  1  1  0  0  0  0
 29 30  1  0  0  0  0
 29 28  1  0  0  0  0
 30 32  2  0  0  0  0
 30 31  1  0  0  0  0
M  END
>  <MODEL>
6

>  <REMARK>
 VINA RESULT:      -8.6      2.589      8.829
  Name = 
  5 active torsions:
  status: ('A' for Active; 'I' for Inactive)
    1  A    between atoms: C_1  and  C_10
    2  A    between atoms: C_2  and  O_24
    3  A    between atoms: C_10  and  O_24
    4  A    between atoms: C_13  and  C_15
    5  A    between atoms: O_25  and  C_26
                            x       y       z     vdW  Elec       q    Type
                         _______ _______ _______ _____ _____    ______ ____

>  <TORSDO>
F 5

$$$$
=
 OpenBabel10272413393D

 32 36  0  0  0  0  0  0  0  0999 V2000
  190.3830  176.9340  145.5810 C   0  0  0  0  0  0  0  0  0  0  0  0
  189.3670  177.2840  140.6680 C   0  0  0  0  0  0  0  0  0  0  0  0
  190.5150  176.6950  138.5350 C   0  0  0  0  0  0  0  0  0  0  0  0
  190.4910  176.6760  137.1330 C   0  0  0  0  0  0  0  0  0  0  0  0
  190.3980  176.8420  142.7750 C   0  0  0  0  0  0  0  0  0  0  0  0
  188.2320  177.9000  142.7250 C   0  0  0  0  0  3  0  0  0  0  0  0
  190.4200  176.6490  134.3540 C   0  0  0  0  0  3  0  0  0  0  0  0
  189.2950  177.4440  144.8540 C   0  0  0  0  0  3  0  0  0  0  0  0
  188.2420  177.8490  141.3200 C   0  0  0  0  0  0  0  0  0  0  0  0
  187.1600  178.3560  140.5720 C   0  0  0  0  0  0  0  0  0  0  0  0
  188.3140  177.7400  138.5130 C   0  0  0  0  0  0  0  0  0  0  0  0
  191.4950  176.1540  135.0220 N   0  0  0  0  0  0  0  0  0  0  0  0
  191.4720  176.3800  144.8950 C   0  0  0  0  0  3  0  0  0  0  0  0
  189.3020  177.3990  143.4580 C   0  0  0  0  0  0  0  0  0  0  0  0
  191.5530  176.1560  136.3810 C   0  0  0  0  0  3  0  0  0  0  0  0
  191.4800  176.3330  143.4970 C   0  0  0  0  0  3  0  0  0  0  0  0
  187.1880  178.2780  139.1580 C   0  0  0  0  0  0  0  0  0  0  0  0
  188.3300  177.7010  137.1530 N   0  0  0  0  0  2  0  0  0  0  0  0
  190.3990  176.8020  141.4190 N   0  0  0  0  0  0  0  0  0  0  0  0
  191.5220  176.2300  139.1380 O   0  0  0  0  0  0  0  0  0  0  0  0
  189.3370  177.1780  135.0590 C   0  0  0  0  0  3  0  0  0  0  0  0
  189.4130  177.2330  139.2530 C   0  0  0  0  0  0  0  0  0  0  0  0
  189.3730  177.1910  136.4540 C   0  0  0  0  0  0  0  0  0  0  0  0
  185.1950  179.5390  141.8080 N   0  0  0  0  0  0  0  0  0  0  0  0
  186.0660  179.0100  141.2600 C   0  0  0  0  0  0  0  0  0  0  0  0
  184.9400  178.0140  138.0850 C   0  0  0  0  0  1  0  0  0  0  0  0
  186.1380  178.7350  138.3410 O   0  0  0  0  0  0  0  0  0  0  0  0
  190.4090  176.9630  146.9770 O   0  0  0  0  0  0  0  0  0  0  0  0
  189.2620  176.6870  147.7720 C   0  0  0  0  0  2  0  0  0  0  0  0
  188.6740  177.9640  148.2560 C   0  0  0  0  0  0  0  0  0  0  0  0
  189.3670  178.7530  148.9480 O   0  0  0  0  0  1  0  0  0  0  0  0
  187.3750  178.3040  147.9080 O   0  0  0  0  0  0  0  0  0  0  0  0
  1 28  1  0  0  0  0
  2  9  1  0  0  0  0
  2 19  1  0  0  0  0
  3 20  2  0  0  0  0
  3 22  1  0  0  0  0
  4  3  1  0  0  0  0
  5 14  1  0  0  0  0
  5 16  1  0  0  0  0
  6 14  2  0  0  0  0
  7 12  2  0  0  0  0
  7 21  1  0  0  0  0
  8  1  2  0  0  0  0
  9  6  1  0  0  0  0
 10 25  1  0  0  0  0
 10  9  2  0  0  0  0
 11 17  2  0  0  0  0
 11 22  1  0  0  0  0
 12 15  1  0  0  0  0
 13  1  1  0  0  0  0
 14  8  1  0  0  0  0
 15  4  2  0  0  0  0
 16 13  2  0  0  0  0
 17 10  1  0  0  0  0
 18 11  1  0  0  0  0
 19  5  2  0  0  0  0
 21 23  2  0  0  0  0
 22  2  2  0  0  0  0
 23  4  1  0  0  0  0
 23 18  1  0  0  0  0
 25 24  3  0  0  0  0
 26 27  1  0  0  0  0
 27 17  1  0  0  0  0
 28 29  1  0  0  0  0
 29 30  1  0  0  0  0
 30 31  1  0  0  0  0
 32 30  2  0  0  0  0
M  END
>  <MODEL>
7

>  <REMARK>
 VINA RESULT:      -8.5      2.848      6.292
  Name = 
  5 active torsions:
  status: ('A' for Active; 'I' for Inactive)
    1  A    between atoms: C_1  and  C_10
    2  A    between atoms: C_2  and  O_24
    3  A    between atoms: C_10  and  O_24
    4  A    between atoms: C_13  and  C_15
    5  A    between atoms: O_25  and  C_26
                            x       y       z     vdW  Elec       q    Type
                         _______ _______ _______ _____ _____    ______ ____

>  <TORSDO>
F 5

$$$$
=
 OpenBabel10272413393D

 32 36  0  0  0  0  0  0  0  0999 V2000
  191.1490  176.4060  147.0310 C   0  0  0  0  0  0  0  0  0  0  0  0
  188.5690  177.6340  142.8920 C   0  0  0  0  0  0  0  0  0  0  0  0
  188.9880  177.6430  140.4350 C   0  0  0  0  0  0  0  0  0  0  0  0
  188.5080  177.9120  139.1440 C   0  0  0  0  0  0  0  0  0  0  0  0
  190.2520  176.8970  144.4170 C   0  0  0  0  0  0  0  0  0  0  0  0
  188.1380  177.6670  145.2820 C   0  0  0  0  0  3  0  0  0  0  0  0
  187.5360  178.4490  136.5960 C   0  0  0  0  0  3  0  0  0  0  0  0
  189.8590  176.9160  146.8140 C   0  0  0  0  0  3  0  0  0  0  0  0
  187.6920  177.9090  143.9710 C   0  0  0  0  0  0  0  0  0  0  0  0
  186.4010  178.4220  143.7310 C   0  0  0  0  0  0  0  0  0  0  0  0
  186.8500  178.3910  141.3340 C   0  0  0  0  0  0  0  0  0  0  0  0
  188.7940  177.9630  136.7670 N   0  0  0  0  0  0  0  0  0  0  0  0
  191.9810  176.1440  145.9350 C   0  0  0  0  0  3  0  0  0  0  0  0
  189.4120  177.1610  145.5130 C   0  0  0  0  0  0  0  0  0  0  0  0
  189.2930  177.6930  138.0040 C   0  0  0  0  0  3  0  0  0  0  0  0
  191.5360  176.3880  144.6320 C   0  0  0  0  0  3  0  0  0  0  0  0
  185.9700  178.6410  142.4000 C   0  0  0  0  0  0  0  0  0  0  0  0
  186.4230  178.6350  140.0650 N   0  0  0  0  0  2  0  0  0  0  0  0
  189.8140  177.1380  143.1560 N   0  0  0  0  0  0  0  0  0  0  0  0
  190.1590  177.1910  140.5740 O   0  0  0  0  0  0  0  0  0  0  0  0
  186.7170  178.6830  137.7020 C   0  0  0  0  0  3  0  0  0  0  0  0
  188.1540  177.8820  141.5620 C   0  0  0  0  0  0  0  0  0  0  0  0
  187.2060  178.4140  138.9810 C   0  0  0  0  0  0  0  0  0  0  0  0
  184.8850  179.0710  145.7490 N   0  0  0  0  0  0  0  0  0  0  0  0
  185.5600  178.7800  144.8550 C   0  0  0  0  0  0  0  0  0  0  0  0
  183.5000  178.3450  142.1050 C   0  0  0  0  0  1  0  0  0  0  0  0
  184.6890  179.1230  142.0750 O   0  0  0  0  0  0  0  0  0  0  0  0
  191.6280  176.1490  148.3180 O   0  0  0  0  0  0  0  0  0  0  0  0
  193.0090  175.9550  148.5980 C   0  0  0  0  0  2  0  0  0  0  0  0
  193.4850  177.0220  149.5170 C   0  0  0  0  0  0  0  0  0  0  0  0
  194.6050  176.9150  150.0780 O   0  0  0  0  0  1  0  0  0  0  0  0
  192.7120  178.1570  149.7220 O   0  0  0  0  0  0  0  0  0  0  0  0
  1 28  1  0  0  0  0
  2 19  2  0  0  0  0
  2  9  1  0  0  0  0
  3 20  2  0  0  0  0
  3 22  1  0  0  0  0
  4  3  1  0  0  0  0
  5 16  2  0  0  0  0
  5 14  1  0  0  0  0
  6 14  1  0  0  0  0
  7 12  2  0  0  0  0
  7 21  1  0  0  0  0
  8  1  1  0  0  0  0
  9  6  2  0  0  0  0
 10  9  1  0  0  0  0
 10 25  1  0  0  0  0
 11 22  2  0  0  0  0
 11 17  1  0  0  0  0
 12 15  1  0  0  0  0
 13  1  2  0  0  0  0
 14  8  2  0  0  0  0
 15  4  2  0  0  0  0
 16 13  1  0  0  0  0
 17 10  2  0  0  0  0
 18 11  1  0  0  0  0
 19  5  1  0  0  0  0
 21 23  2  0  0  0  0
 22  2  1  0  0  0  0
 23  4  1  0  0  0  0
 23 18  1  0  0  0  0
 25 24  3  0  0  0  0
 27 26  1  0  0  0  0
 27 17  1  0  0  0  0
 28 29  1  0  0  0  0
 29 30  1  0  0  0  0
 30 32  2  0  0  0  0
 30 31  1  0  0  0  0
M  END
>  <MODEL>
8

>  <REMARK>
 VINA RESULT:      -8.5      2.208      4.973
  Name = 
  5 active torsions:
  status: ('A' for Active; 'I' for Inactive)
    1  A    between atoms: C_1  and  C_10
    2  A    between atoms: C_2  and  O_24
    3  A    between atoms: C_10  and  O_24
    4  A    between atoms: C_13  and  C_15
    5  A    between atoms: O_25  and  C_26
                            x       y       z     vdW  Elec       q    Type
                         _______ _______ _______ _____ _____    ______ ____

>  <TORSDO>
F 5

$$$$
=
 OpenBabel10272413393D

 32 36  0  0  0  0  0  0  0  0999 V2000
  190.2530  176.9310  137.2830 C   0  0  0  0  0  0  0  0  0  0  0  0
  188.2220  177.7180  141.8160 C   0  0  0  0  0  0  0  0  0  0  0  0
  188.8630  177.2880  144.1870 C   0  0  0  0  0  0  0  0  0  0  0  0
  188.5330  177.3800  145.5470 C   0  0  0  0  0  0  0  0  0  0  0  0
  189.6740  177.1010  140.0250 C   0  0  0  0  0  0  0  0  0  0  0  0
  187.5510  178.1240  139.5180 C   0  0  0  0  0  3  0  0  0  0  0  0
  187.8600  177.5750  148.2370 C   0  0  0  0  0  3  0  0  0  0  0  0
  189.0380  177.4890  137.7130 C   0  0  0  0  0  3  0  0  0  0  0  0
  187.2660  178.2090  140.8920 C   0  0  0  0  0  0  0  0  0  0  0  0
  186.0520  178.7660  141.3440 C   0  0  0  0  0  0  0  0  0  0  0  0
  186.7340  178.3460  143.6470 C   0  0  0  0  0  0  0  0  0  0  0  0
  189.0420  177.0200  147.8590 N   0  0  0  0  0  0  0  0  0  0  0  0
  191.1700  176.4610  138.2330 C   0  0  0  0  0  3  0  0  0  0  0  0
  188.7490  177.5740  139.0770 C   0  0  0  0  0  0  0  0  0  0  0  0
  189.3930  176.9130  146.5500 C   0  0  0  0  0  3  0  0  0  0  0  0
  190.8840  176.5450  139.5990 C   0  0  0  0  0  3  0  0  0  0  0  0
  185.7970  178.8560  142.7340 C   0  0  0  0  0  0  0  0  0  0  0  0
  186.4550  178.4180  144.9770 N   0  0  0  0  0  2  0  0  0  0  0  0
  189.3880  177.1840  141.3490 N   0  0  0  0  0  0  0  0  0  0  0  0
  189.9650  176.7700  143.8560 O   0  0  0  0  0  0  0  0  0  0  0  0
  186.9690  178.0550  147.2750 C   0  0  0  0  0  3  0  0  0  0  0  0
  187.9560  177.7760  143.2060 C   0  0  0  0  0  0  0  0  0  0  0  0
  187.3080  177.9560  145.9240 C   0  0  0  0  0  0  0  0  0  0  0  0
  184.2590  179.5100  139.6070 N   0  0  0  0  0  0  0  0  0  0  0  0
  185.0560  179.1770  140.3760 C   0  0  0  0  0  0  0  0  0  0  0  0
  183.3860  178.7400  143.4000 C   0  0  0  0  0  1  0  0  0  0  0  0
  184.6250  179.4220  143.2670 O   0  0  0  0  0  0  0  0  0  0  0  0
  190.5740  176.8300  135.9270 O   0  0  0  0  0  0  0  0  0  0  0  0
  189.6160  176.4820  134.9360 C   0  0  0  0  0  2  0  0  0  0  0  0
  189.3260  175.0260  135.0140 C   0  0  0  0  0  0  0  0  0  0  0  0
  190.2580  174.1910  134.8890 O   0  0  0  0  0  0  0  0  0  0  0  0
  188.0330  174.5900  135.2690 O   0  0  0  0  0  1  0  0  0  0  0  0
  1  8  2  0  0  0  0
  1 13  1  0  0  0  0
  2 22  1  0  0  0  0
  3  4  1  0  0  0  0
  4 23  2  0  0  0  0
  4 15  1  0  0  0  0
  5 19  1  0  0  0  0
  6  9  2  0  0  0  0
  8 14  1  0  0  0  0
  9 10  1  0  0  0  0
  9  2  1  0  0  0  0
 10 17  2  0  0  0  0
 11 18  1  0  0  0  0
 12  7  1  0  0  0  0
 13 16  2  0  0  0  0
 14  6  1  0  0  0  0
 14  5  2  0  0  0  0
 15 12  2  0  0  0  0
 16  5  1  0  0  0  0
 17 27  1  0  0  0  0
 17 11  1  0  0  0  0
 18 23  1  0  0  0  0
 19  2  2  0  0  0  0
 20  3  2  0  0  0  0
 21  7  2  0  0  0  0
 22 11  2  0  0  0  0
 22  3  1  0  0  0  0
 23 21  1  0  0  0  0
 24 25  3  0  0  0  0
 25 10  1  0  0  0  0
 27 26  1  0  0  0  0
 28  1  1  0  0  0  0
 29 30  1  0  0  0  0
 29 28  1  0  0  0  0
 30 32  1  0  0  0  0
 31 30  2  0  0  0  0
M  END
>  <MODEL>
9

>  <REMARK>
 VINA RESULT:      -8.3      2.922      7.841
  Name = 
  5 active torsions:
  status: ('A' for Active; 'I' for Inactive)
    1  A    between atoms: C_1  and  C_10
    2  A    between atoms: C_2  and  O_24
    3  A    between atoms: C_10  and  O_24
    4  A    between atoms: C_13  and  C_15
    5  A    between atoms: O_25  and  C_26
                            x       y       z     vdW  Elec       q    Type
                         _______ _______ _______ _____ _____    ______ ____

>  <TORSDO>
F 5

$$$$
