=
 OpenBabel10272413423D

 30 33  0  0  1  0  0  0  0  0999 V2000
  186.1620  177.6200  144.4360 C   0  0  2  0  0  3  0  0  0  0  0  0
  187.7590  177.0300  147.7000 C   0  0  2  0  0  3  0  0  0  0  0  0
  189.6770  176.8580  144.9290 C   0  0  0  0  0  2  0  0  0  0  0  0
  185.9410  177.4710  145.9440 C   0  0  0  0  0  2  0  0  0  0  0  0
  189.8230  177.5770  146.2540 C   0  0  0  0  0  2  0  0  0  0  0  0
  188.8170  177.6360  148.4100 O   0  0  0  0  0  0  0  0  0  0  0  0
  187.3740  176.8460  143.9120 C   0  0  0  0  0  2  0  0  0  0  0  0
  188.6810  177.6180  144.0570 C   0  0  2  0  0  3  0  0  0  0  0  0
  189.1960  176.7580  147.3780 C   0  0  1  0  0  3  0  0  0  0  0  0
  187.1000  179.3240  147.0310 C   0  0  0  0  0  2  0  0  0  0  0  0
  187.0530  178.0110  146.7920 C   0  0  0  0  0  0  0  0  0  0  0  0
  186.0870  179.0750  143.9540 C   0  0  1  0  0  3  0  0  0  0  0  0
  185.4170  179.1280  142.7160 O   0  0  0  0  0  0  0  0  0  0  0  0
  184.7090  179.6440  143.8170 C   0  0  1  0  0  3  0  0  0  0  0  0
  183.0520  179.0730  145.4330 O   0  0  0  0  0  1  0  0  0  0  0  0
  183.5650  178.6990  144.1910 C   0  0  1  0  0  3  0  0  0  0  0  0
  182.4560  178.7590  143.1550 C   0  0  0  0  0  2  0  0  0  0  0  0
  180.1530  179.6640  143.1030 C   0  0  0  0  0  1  0  0  0  0  0  0
  181.1000  178.7340  143.8310 C   0  0  0  0  0  2  0  0  0  0  0  0
  189.2250  177.9910  142.7450 N   0  0  0  0  0  0  0  0  0  0  0  0
  190.5010  178.4080  142.9240 O   0  0  0  0  0  1  0  0  0  0  0  0
  189.2740  176.5850  141.6560 S   0  0  0  0  0  0  0  0  0  0  0  0
  190.6730  175.7290  138.6690 C   0  0  2  0  0  3  0  0  0  0  0  0
  191.6300  177.1490  139.3180 S   0  0  0  0  0  0  0  0  0  0  0  0
  191.5250  174.9600  137.6840 C   0  0  0  0  0  1  0  0  0  0  0  0
  188.9450  177.5550  140.1350 C   0  0  2  0  0  0  0  0  0  0  0  0
  190.2220  178.2730  139.6920 C   0  0  0  0  0  2  0  0  0  0  0  0
  189.4010  176.1910  137.9860 C   0  0  0  0  0  2  0  0  0  0  0  0
  187.9110  178.6170  140.4560 C   0  0  0  0  0  1  0  0  0  0  0  0
  188.3780  176.6630  139.0180 C   0  0  0  0  0  2  0  0  0  0  0  0
  1  7  1  1  0  0  0
  1  4  1  0  0  0  0
  2 11  1  6  0  0  0
  2  6  1  0  0  0  0
  3  5  1  0  0  0  0
  4 11  1  0  0  0  0
  7  8  1  0  0  0  0
  8 20  1  6  0  0  0
  8  3  1  0  0  0  0
  9  5  1  6  0  0  0
  9  2  1  0  0  0  0
  9  6  1  0  0  0  0
 11 10  2  0  0  0  0
 12 13  1  6  0  0  0
 12  1  1  0  0  0  0
 13 14  1  0  0  0  0
 14 12  1  0  0  0  0
 14 16  1  1  0  0  0
 16 15  1  1  0  0  0
 17 19  1  0  0  0  0
 17 16  1  0  0  0  0
 18 19  1  0  0  0  0
 20 21  1  0  0  0  0
 22 20  1  0  0  0  0
 23 25  1  6  0  0  0
 23 24  1  0  0  0  0
 24 27  1  0  0  0  0
 26 29  1  1  0  0  0
 26 22  1  0  0  0  0
 27 26  1  0  0  0  0
 28 23  1  0  0  0  0
 28 30  1  0  0  0  0
 30 26  1  0  0  0  0
M  END
>  <MODEL>
1

>  <REMARK>
 VINA RESULT:      -6.2      0.000      0.000
  Name = 
  7 active torsions:
  status: ('A' for Active; 'I' for Inactive)
    1  A    between atoms: C_1  and  C_4
    2  A    between atoms: S_3  and  N_11
    3  A    between atoms: S_3  and  C_19
    4  A    between atoms: C_8  and  C_9
    5  A    between atoms: C_8  and  C_12
    6  A    between atoms: C_9  and  C_21
    7  A    between atoms: N_11  and  C_25
                            x       y       z     vdW  Elec       q    Type
                         _______ _______ _______ _____ _____    ______ ____

>  <TORSDO>
F 7

$$$$
=
 OpenBabel10272413423D

 30 33  0  0  1  0  0  0  0  0999 V2000
  186.0770  177.6840  144.4450 C   0  0  2  0  0  3  0  0  0  0  0  0
  187.6670  177.0470  147.7040 C   0  0  2  0  0  3  0  0  0  0  0  0
  189.5860  176.8920  144.9330 C   0  0  0  0  0  2  0  0  0  0  0  0
  185.8540  177.5200  145.9510 C   0  0  0  0  0  2  0  0  0  0  0  0
  189.7360  177.5940  146.2660 C   0  0  0  0  0  2  0  0  0  0  0  0
  188.7290  177.6360  148.4220 O   0  0  0  0  0  0  0  0  0  0  0  0
  187.2840  176.9070  143.9140 C   0  0  0  0  0  2  0  0  0  0  0  0
  188.5970  177.6690  144.0690 C   0  0  2  0  0  3  0  0  0  0  0  0
  189.1020  176.7670  147.3800 C   0  0  1  0  0  3  0  0  0  0  0  0
  187.0260  179.3520  147.0600 C   0  0  0  0  0  2  0  0  0  0  0  0
  186.9690  178.0420  146.8070 C   0  0  0  0  0  0  0  0  0  0  0  0
  186.0140  179.1450  143.9790 C   0  0  1  0  0  3  0  0  0  0  0  0
  185.8100  179.1880  142.5860 O   0  0  0  0  0  0  0  0  0  0  0  0
  184.7130  179.5790  143.3770 C   0  0  1  0  0  3  0  0  0  0  0  0
  182.7690  178.6710  144.4140 O   0  0  0  0  0  1  0  0  0  0  0  0
  183.6220  178.5080  143.3230 C   0  0  1  0  0  3  0  0  0  0  0  0
  182.8170  178.6240  142.0400 C   0  0  0  0  0  2  0  0  0  0  0  0
  183.8140  178.5950  139.7740 C   0  0  0  0  0  1  0  0  0  0  0  0
  183.4160  177.7430  140.9610 C   0  0  0  0  0  2  0  0  0  0  0  0
  189.1450  178.0520  142.7610 N   0  0  0  0  0  0  0  0  0  0  0  0
  190.4060  178.5070  142.9530 O   0  0  0  0  0  1  0  0  0  0  0  0
  189.2490  176.6440  141.6800 S   0  0  0  0  0  0  0  0  0  0  0  0
  190.7020  175.7620  138.7260 C   0  0  2  0  0  3  0  0  0  0  0  0
  191.6510  177.1840  139.3830 S   0  0  0  0  0  0  0  0  0  0  0  0
  191.5710  174.9830  137.7630 C   0  0  0  0  0  1  0  0  0  0  0  0
  188.9520  177.6040  140.1450 C   0  0  2  0  0  0  0  0  0  0  0  0
  190.2400  178.3150  139.7220 C   0  0  0  0  0  2  0  0  0  0  0  0
  189.4450  176.2230  138.0150 C   0  0  0  0  0  2  0  0  0  0  0  0
  187.9160  178.6710  140.4390 C   0  0  0  0  0  1  0  0  0  0  0  0
  188.4040  176.7060  139.0230 C   0  0  0  0  0  2  0  0  0  0  0  0
  1  7  1  1  0  0  0
  1  4  1  0  0  0  0
  2 11  1  6  0  0  0
  2  6  1  0  0  0  0
  3  5  1  0  0  0  0
  4 11  1  0  0  0  0
  7  8  1  0  0  0  0
  8 20  1  6  0  0  0
  8  3  1  0  0  0  0
  9  5  1  6  0  0  0
  9  2  1  0  0  0  0
  9  6  1  0  0  0  0
 11 10  2  0  0  0  0
 12 13  1  6  0  0  0
 12  1  1  0  0  0  0
 13 14  1  0  0  0  0
 14 16  1  1  0  0  0
 14 12  1  0  0  0  0
 16 15  1  1  0  0  0
 17 16  1  0  0  0  0
 18 19  1  0  0  0  0
 19 17  1  0  0  0  0
 20 21  1  0  0  0  0
 22 20  1  0  0  0  0
 23 25  1  6  0  0  0
 23 24  1  0  0  0  0
 24 27  1  0  0  0  0
 26 29  1  1  0  0  0
 26 22  1  0  0  0  0
 27 26  1  0  0  0  0
 28 23  1  0  0  0  0
 28 30  1  0  0  0  0
 30 26  1  0  0  0  0
M  END
>  <MODEL>
2

>  <REMARK>
 VINA RESULT:      -6.1      0.896      1.214
  Name = 
  7 active torsions:
  status: ('A' for Active; 'I' for Inactive)
    1  A    between atoms: C_1  and  C_4
    2  A    between atoms: S_3  and  N_11
    3  A    between atoms: S_3  and  C_19
    4  A    between atoms: C_8  and  C_9
    5  A    between atoms: C_8  and  C_12
    6  A    between atoms: C_9  and  C_21
    7  A    between atoms: N_11  and  C_25
                            x       y       z     vdW  Elec       q    Type
                         _______ _______ _______ _____ _____    ______ ____

>  <TORSDO>
F 7

$$$$
=
 OpenBabel10272413423D

 30 33  0  0  1  0  0  0  0  0999 V2000
  187.8300  177.1960  142.6560 C   0  0  2  0  0  3  0  0  0  0  0  0
  190.3980  176.5510  145.2130 C   0  0  2  0  0  3  0  0  0  0  0  0
  191.3090  176.4190  141.9670 C   0  0  0  0  0  2  0  0  0  0  0  0
  188.1110  177.0230  144.1510 C   0  0  0  0  0  2  0  0  0  0  0  0
  191.8830  177.1160  143.1820 C   0  0  0  0  0  2  0  0  0  0  0  0
  191.6340  177.1430  145.5490 O   0  0  0  0  0  0  0  0  0  0  0  0
  188.8000  176.4270  141.7550 C   0  0  0  0  0  2  0  0  0  0  0  0
  190.0890  177.1950  141.4770 C   0  0  2  0  0  3  0  0  0  0  0  0
  191.6500  176.2810  144.4370 C   0  0  1  0  0  3  0  0  0  0  0  0
  189.5740  178.8560  144.8280 C   0  0  0  0  0  2  0  0  0  0  0  0
  189.4420  177.5480  144.5990 C   0  0  0  0  0  0  0  0  0  0  0  0
  187.6130  178.6580  142.2450 C   0  0  1  0  0  3  0  0  0  0  0  0
  186.9230  178.7060  141.0170 O   0  0  0  0  0  0  0  0  0  0  0  0
  186.1850  179.1010  142.1490 C   0  0  1  0  0  3  0  0  0  0  0  0
  184.5670  178.3380  143.7240 O   0  0  0  0  0  1  0  0  0  0  0  0
  185.1410  178.0360  142.4890 C   0  0  1  0  0  3  0  0  0  0  0  0
  184.0530  177.9920  141.4300 C   0  0  0  0  0  2  0  0  0  0  0  0
  181.6340  178.3390  141.0370 C   0  0  0  0  0  1  0  0  0  0  0  0
  182.8050  178.6960  141.9260 C   0  0  0  0  0  2  0  0  0  0  0  0
  190.1780  177.5880  140.0650 N   0  0  0  0  0  0  0  0  0  0  0  0
  191.4830  177.5520  139.7020 O   0  0  0  0  0  1  0  0  0  0  0  0
  189.3090  176.4320  139.0300 S   0  0  0  0  0  0  0  0  0  0  0  0
  187.3830  175.5910  136.3470 C   0  0  2  0  0  3  0  0  0  0  0  0
  189.0760  175.8870  135.7150 S   0  0  0  0  0  0  0  0  0  0  0  0
  186.6340  174.7050  135.3750 C   0  0  0  0  0  1  0  0  0  0  0  0
  188.6940  177.7030  137.8600 C   0  0  2  0  0  0  0  0  0  0  0  0
  189.3720  177.5260  136.4990 C   0  0  0  0  0  2  0  0  0  0  0  0
  186.6290  176.8930  136.5300 C   0  0  0  0  0  2  0  0  0  0  0  0
  189.0810  179.0700  138.3880 C   0  0  0  0  0  1  0  0  0  0  0  0
  187.1610  177.6560  137.7420 C   0  0  0  0  0  2  0  0  0  0  0  0
  1  7  1  6  0  0  0
  1  4  1  0  0  0  0
  2 11  1  6  0  0  0
  2  6  1  0  0  0  0
  3  5  1  0  0  0  0
  4 11  1  0  0  0  0
  8 20  1  6  0  0  0
  8  7  1  0  0  0  0
  8  3  1  0  0  0  0
  9  5  1  6  0  0  0
  9  2  1  0  0  0  0
  9  6  1  0  0  0  0
 11 10  2  0  0  0  0
 12 13  1  6  0  0  0
 12  1  1  0  0  0  0
 13 14  1  0  0  0  0
 14 12  1  0  0  0  0
 14 16  1  1  0  0  0
 16 15  1  1  0  0  0
 17 19  1  0  0  0  0
 17 16  1  0  0  0  0
 18 19  1  0  0  0  0
 21 20  1  0  0  0  0
 22 20  1  0  0  0  0
 23 25  1  6  0  0  0
 23 28  1  0  0  0  0
 24 23  1  0  0  0  0
 24 27  1  0  0  0  0
 26 29  1  1  0  0  0
 26 22  1  0  0  0  0
 27 26  1  0  0  0  0
 28 30  1  0  0  0  0
 30 26  1  0  0  0  0
M  END
>  <MODEL>
3

>  <REMARK>
 VINA RESULT:      -5.9      2.435      3.169
  Name = 
  7 active torsions:
  status: ('A' for Active; 'I' for Inactive)
    1  A    between atoms: C_1  and  C_4
    2  A    between atoms: S_3  and  N_11
    3  A    between atoms: S_3  and  C_19
    4  A    between atoms: C_8  and  C_9
    5  A    between atoms: C_8  and  C_12
    6  A    between atoms: C_9  and  C_21
    7  A    between atoms: N_11  and  C_25
                            x       y       z     vdW  Elec       q    Type
                         _______ _______ _______ _____ _____    ______ ____

>  <TORSDO>
F 7

$$$$
=
 OpenBabel10272413423D

 30 33  0  0  1  0  0  0  0  0999 V2000
  187.6470  178.6790  141.0690 C   0  0  2  0  0  3  0  0  0  0  0  0
  188.8660  177.9700  144.4690 C   0  0  2  0  0  3  0  0  0  0  0  0
  185.5500  178.3990  144.0190 C   0  0  0  0  0  2  0  0  0  0  0  0
  188.8790  178.4700  141.9530 C   0  0  0  0  0  2  0  0  0  0  0  0
  186.3780  177.3410  144.7180 C   0  0  0  0  0  2  0  0  0  0  0  0
  188.6190  176.9580  145.4210 O   0  0  0  0  0  0  0  0  0  0  0  0
  186.4390  179.2450  141.8210 C   0  0  0  0  0  2  0  0  0  0  0  0
  185.6110  178.1660  142.5120 C   0  0  2  0  0  3  0  0  0  0  0  0
  187.6350  177.9590  145.3220 C   0  0  1  0  0  3  0  0  0  0  0  0
  188.8050  176.1700  142.7670 C   0  0  0  0  0  2  0  0  0  0  0  0
  188.6940  177.4690  143.0540 C   0  0  0  0  0  0  0  0  0  0  0  0
  187.3260  177.4690  140.1810 C   0  0  1  0  0  3  0  0  0  0  0  0
  186.7860  177.9110  138.9580 O   0  0  0  0  0  0  0  0  0  0  0  0
  188.0900  177.3850  138.8960 C   0  0  1  0  0  3  0  0  0  0  0  0
  190.3880  178.0130  138.8180 O   0  0  0  0  0  1  0  0  0  0  0  0
  189.0970  178.5120  138.6540 C   0  0  1  0  0  3  0  0  0  0  0  0
  188.9520  179.0680  137.2470 C   0  0  0  0  0  2  0  0  0  0  0  0
  187.8280  177.8890  135.3850 C   0  0  0  0  0  1  0  0  0  0  0  0
  189.0850  177.9580  136.2250 C   0  0  0  0  0  2  0  0  0  0  0  0
  184.2860  178.0350  141.8910 N   0  0  0  0  0  0  0  0  0  0  0  0
  183.3540  178.3440  142.8240 O   0  0  0  0  0  1  0  0  0  0  0  0
  184.0980  179.1900  140.5520 S   0  0  0  0  0  0  0  0  0  0  0  0
  181.7240  180.6130  138.5630 C   0  0  2  0  0  3  0  0  0  0  0  0
  180.8930  180.1290  140.1220 S   0  0  0  0  0  0  0  0  0  0  0  0
  180.9240  181.7060  137.8890 C   0  0  0  0  0  1  0  0  0  0  0  0
  182.8830  178.1680  139.6340 C   0  0  2  0  0  0  0  0  0  0  0  0
  181.4820  178.3870  140.2100 C   0  0  0  0  0  2  0  0  0  0  0  0
  181.8590  179.4310  137.6240 C   0  0  0  0  0  2  0  0  0  0  0  0
  183.2350  176.7070  139.8350 C   0  0  0  0  0  1  0  0  0  0  0  0
  182.9300  178.4650  138.1260 C   0  0  0  0  0  2  0  0  0  0  0  0
  1  7  1  1  0  0  0
  1  4  1  0  0  0  0
  2 11  1  6  0  0  0
  2  9  1  0  0  0  0
  2  6  1  0  0  0  0
  3  5  1  0  0  0  0
  4 11  1  0  0  0  0
  7  8  1  0  0  0  0
  8 20  1  6  0  0  0
  8  3  1  0  0  0  0
  9  5  1  6  0  0  0
  9  6  1  0  0  0  0
 10 11  2  0  0  0  0
 12 13  1  6  0  0  0
 12  1  1  0  0  0  0
 14 16  1  1  0  0  0
 14 13  1  0  0  0  0
 14 12  1  0  0  0  0
 16 15  1  6  0  0  0
 17 16  1  0  0  0  0
 18 19  1  0  0  0  0
 19 17  1  0  0  0  0
 20 21  1  0  0  0  0
 22 20  1  0  0  0  0
 23 25  1  6  0  0  0
 23 24  1  0  0  0  0
 24 27  1  0  0  0  0
 26 29  1  1  0  0  0
 26 27  1  0  0  0  0
 26 22  1  0  0  0  0
 28 30  1  0  0  0  0
 28 23  1  0  0  0  0
 30 26  1  0  0  0  0
M  END
>  <MODEL>
4

>  <REMARK>
 VINA RESULT:      -5.9      3.636      7.006
  Name = 
  7 active torsions:
  status: ('A' for Active; 'I' for Inactive)
    1  A    between atoms: C_1  and  C_4
    2  A    between atoms: S_3  and  N_11
    3  A    between atoms: S_3  and  C_19
    4  A    between atoms: C_8  and  C_9
    5  A    between atoms: C_8  and  C_12
    6  A    between atoms: C_9  and  C_21
    7  A    between atoms: N_11  and  C_25
                            x       y       z     vdW  Elec       q    Type
                         _______ _______ _______ _____ _____    ______ ____

>  <TORSDO>
F 7

$$$$
=
 OpenBabel10272413423D

 30 33  0  0  1  0  0  0  0  0999 V2000
  187.5370  177.6140  142.2720 C   0  0  2  0  0  3  0  0  0  0  0  0
  190.8760  176.8640  143.6270 C   0  0  2  0  0  3  0  0  0  0  0  0
  190.4940  176.9470  140.2750 C   0  0  0  0  0  2  0  0  0  0  0  0
  188.3600  177.3560  143.5370 C   0  0  0  0  0  2  0  0  0  0  0  0
  191.4890  177.5790  141.2260 C   0  0  0  0  0  2  0  0  0  0  0  0
  192.1510  177.4580  143.5090 O   0  0  0  0  0  0  0  0  0  0  0  0
  188.0910  176.9200  141.0240 C   0  0  0  0  0  2  0  0  0  0  0  0
  189.1840  177.7280  140.3310 C   0  0  2  0  0  3  0  0  0  0  0  0
  191.7420  176.6650  142.4200 C   0  0  1  0  0  3  0  0  0  0  0  0
  189.9810  179.1720  143.7280 C   0  0  0  0  0  2  0  0  0  0  0  0
  189.7650  177.8770  143.4820 C   0  0  0  0  0  0  0  0  0  0  0  0
  187.1890  179.0940  142.0670 C   0  0  1  0  0  3  0  0  0  0  0  0
  186.1090  179.2050  141.1680 O   0  0  0  0  0  0  0  0  0  0  0  0
  185.8200  179.5080  142.5120 C   0  0  1  0  0  3  0  0  0  0  0  0
  184.9880  178.5150  144.5130 O   0  0  0  0  0  1  0  0  0  0  0  0
  184.9630  178.3970  143.1240 C   0  0  1  0  0  3  0  0  0  0  0  0
  183.5260  178.4990  142.6410 C   0  0  0  0  0  2  0  0  0  0  0  0
  181.2240  179.1630  143.2610 C   0  0  0  0  0  1  0  0  0  0  0  0
  182.6060  178.8520  143.7930 C   0  0  0  0  0  2  0  0  0  0  0  0
  188.7370  178.2070  139.0170 N   0  0  0  0  0  0  0  0  0  0  0  0
  188.9790  179.5380  138.9530 O   0  0  0  0  0  1  0  0  0  0  0  0
  189.6650  177.4360  137.7110 S   0  0  0  0  0  0  0  0  0  0  0  0
  188.5740  174.2950  136.9690 C   0  0  2  0  0  3  0  0  0  0  0  0
  189.4990  174.8970  135.5070 S   0  0  0  0  0  0  0  0  0  0  0  0
  188.5460  172.7820  136.9540 C   0  0  0  0  0  1  0  0  0  0  0  0
  188.2120  177.1610  136.6280 C   0  0  2  0  0  0  0  0  0  0  0  0
  188.6600  176.5230  135.3110 C   0  0  0  0  0  2  0  0  0  0  0  0
  187.1550  174.8270  136.9790 C   0  0  0  0  0  2  0  0  0  0  0  0
  187.5970  178.5080  136.2970 C   0  0  0  0  0  1  0  0  0  0  0  0
  187.1420  176.3130  137.3360 C   0  0  0  0  0  2  0  0  0  0  0  0
  1  7  1  6  0  0  0
  1  4  1  0  0  0  0
  2 11  1  6  0  0  0
  3  8  1  0  0  0  0
  3  5  1  0  0  0  0
  6  2  1  0  0  0  0
  8 20  1  6  0  0  0
  8  7  1  0  0  0  0
  9  5  1  6  0  0  0
  9  6  1  0  0  0  0
  9  2  1  0  0  0  0
 11  4  1  0  0  0  0
 11 10  2  0  0  0  0
 12 13  1  6  0  0  0
 12  1  1  0  0  0  0
 12 14  1  0  0  0  0
 13 14  1  0  0  0  0
 14 16  1  1  0  0  0
 16 15  1  1  0  0  0
 17 16  1  0  0  0  0
 17 19  1  0  0  0  0
 18 19  1  0  0  0  0
 21 20  1  0  0  0  0
 22 20  1  0  0  0  0
 23 25  1  6  0  0  0
 23 28  1  0  0  0  0
 24 23  1  0  0  0  0
 26 29  1  6  0  0  0
 26 30  1  0  0  0  0
 26 22  1  0  0  0  0
 27 24  1  0  0  0  0
 27 26  1  0  0  0  0
 28 30  1  0  0  0  0
M  END
>  <MODEL>
5

>  <REMARK>
 VINA RESULT:      -5.6      2.605      3.700
  Name = 
  7 active torsions:
  status: ('A' for Active; 'I' for Inactive)
    1  A    between atoms: C_1  and  C_4
    2  A    between atoms: S_3  and  N_11
    3  A    between atoms: S_3  and  C_19
    4  A    between atoms: C_8  and  C_9
    5  A    between atoms: C_8  and  C_12
    6  A    between atoms: C_9  and  C_21
    7  A    between atoms: N_11  and  C_25
                            x       y       z     vdW  Elec       q    Type
                         _______ _______ _______ _____ _____    ______ ____

>  <TORSDO>
F 7

$$$$
=
 OpenBabel10272413423D

 30 33  0  0  1  0  0  0  0  0999 V2000
  187.8060  178.7410  141.3870 C   0  0  2  0  0  3  0  0  0  0  0  0
  187.8050  178.0060  144.9940 C   0  0  2  0  0  3  0  0  0  0  0  0
  185.0310  179.3700  143.6410 C   0  0  0  0  0  2  0  0  0  0  0  0
  188.6340  178.2520  142.5780 C   0  0  0  0  0  2  0  0  0  0  0  0
  185.2720  178.1790  144.5450 C   0  0  0  0  0  2  0  0  0  0  0  0
  187.0120  177.2050  145.8420 O   0  0  0  0  0  0  0  0  0  0  0  0
  186.6840  179.7090  141.7730 C   0  0  0  0  0  2  0  0  0  0  0  0
  185.4090  178.9950  142.2110 C   0  0  2  0  0  3  0  0  0  0  0  0
  186.4540  178.4420  145.4710 C   0  0  1  0  0  3  0  0  0  0  0  0
  187.6320  176.1630  143.3470 C   0  0  0  0  0  2  0  0  0  0  0  0
  187.8630  177.4560  143.5880 C   0  0  0  0  0  0  0  0  0  0  0  0
  187.3670  177.6090  140.4490 C   0  0  1  0  0  3  0  0  0  0  0  0
  186.9700  178.1500  139.2100 O   0  0  0  0  0  0  0  0  0  0  0  0
  188.1860  177.4400  139.2060 C   0  0  1  0  0  3  0  0  0  0  0  0
  190.5530  177.7170  139.2230 O   0  0  0  0  0  1  0  0  0  0  0  0
  189.3570  178.4130  139.0520 C   0  0  1  0  0  3  0  0  0  0  0  0
  189.3460  179.0540  137.6740 C   0  0  0  0  0  2  0  0  0  0  0  0
  188.0700  178.0490  135.8070 C   0  0  0  0  0  1  0  0  0  0  0  0
  189.3590  177.9880  136.5970 C   0  0  0  0  0  2  0  0  0  0  0  0
  184.3220  179.2130  141.2470 N   0  0  0  0  0  0  0  0  0  0  0  0
  184.8390  179.8520  140.1710 O   0  0  0  0  0  1  0  0  0  0  0  0
  183.6620  177.6630  140.6750 S   0  0  0  0  0  0  0  0  0  0  0  0
  181.5510  177.0860  138.0630 C   0  0  2  0  0  3  0  0  0  0  0  0
  182.0580  178.8430  137.9600 S   0  0  0  0  0  0  0  0  0  0  0  0
  181.0970  176.6150  136.6980 C   0  0  0  0  0  1  0  0  0  0  0  0
  181.9130  178.2120  140.7210 C   0  0  2  0  0  0  0  0  0  0  0  0
  181.6940  179.3290  139.6970 C   0  0  0  0  0  2  0  0  0  0  0  0
  180.4280  176.8960  139.0630 C   0  0  0  0  0  2  0  0  0  0  0  0
  181.6260  178.7890  142.0940 C   0  0  0  0  0  1  0  0  0  0  0  0
  180.9520  177.0330  140.4920 C   0  0  0  0  0  2  0  0  0  0  0  0
  1  7  1  1  0  0  0
  1  4  1  0  0  0  0
  2 11  1  6  0  0  0
  2  9  1  0  0  0  0
  2  6  1  0  0  0  0
  3  5  1  0  0  0  0
  4 11  1  0  0  0  0
  7  8  1  0  0  0  0
  8 20  1  6  0  0  0
  8  3  1  0  0  0  0
  9  5  1  6  0  0  0
  9  6  1  0  0  0  0
 10 11  2  0  0  0  0
 12 13  1  6  0  0  0
 12  1  1  0  0  0  0
 14 16  1  1  0  0  0
 14 13  1  0  0  0  0
 14 12  1  0  0  0  0
 16 15  1  6  0  0  0
 17 16  1  0  0  0  0
 18 19  1  0  0  0  0
 19 17  1  0  0  0  0
 21 20  1  0  0  0  0
 22 26  1  0  0  0  0
 22 20  1  0  0  0  0
 23 25  1  6  0  0  0
 23 28  1  0  0  0  0
 24 23  1  0  0  0  0
 24 27  1  0  0  0  0
 26 29  1  1  0  0  0
 27 26  1  0  0  0  0
 28 30  1  0  0  0  0
 30 26  1  0  0  0  0
M  END
>  <MODEL>
6

>  <REMARK>
 VINA RESULT:      -5.6      3.445      6.903
  Name = 
  7 active torsions:
  status: ('A' for Active; 'I' for Inactive)
    1  A    between atoms: C_1  and  C_4
    2  A    between atoms: S_3  and  N_11
    3  A    between atoms: S_3  and  C_19
    4  A    between atoms: C_8  and  C_9
    5  A    between atoms: C_8  and  C_12
    6  A    between atoms: C_9  and  C_21
    7  A    between atoms: N_11  and  C_25
                            x       y       z     vdW  Elec       q    Type
                         _______ _______ _______ _____ _____    ______ ____

>  <TORSDO>
F 7

$$$$
=
 OpenBabel10272413423D

 30 33  0  0  1  0  0  0  0  0999 V2000
  190.6570  175.9520  137.9960 C   0  0  2  0  0  3  0  0  0  0  0  0
  187.3790  177.5070  137.3740 C   0  0  2  0  0  3  0  0  0  0  0  0
  188.5360  177.4330  140.5430 C   0  0  0  0  0  2  0  0  0  0  0  0
  189.5760  176.2490  136.9540 C   0  0  0  0  0  2  0  0  0  0  0  0
  187.9600  178.5280  139.6690 C   0  0  0  0  0  2  0  0  0  0  0  0
  186.8340  178.7900  137.5900 O   0  0  0  0  0  0  0  0  0  0  0  0
  190.1190  175.8260  139.4240 C   0  0  0  0  0  2  0  0  0  0  0  0
  189.9820  177.1730  140.1270 C   0  0  2  0  0  3  0  0  0  0  0  0
  186.9090  177.9590  138.7220 C   0  0  1  0  0  3  0  0  0  0  0  0
  189.4600  178.6740  136.7030 C   0  0  0  0  0  2  0  0  0  0  0  0
  188.8720  177.5590  137.1430 C   0  0  0  0  0  0  0  0  0  0  0  0
  191.8900  176.8560  137.8640 C   0  0  1  0  0  3  0  0  0  0  0  0
  192.9500  176.3220  138.6230 O   0  0  0  0  0  0  0  0  0  0  0  0
  193.0910  176.2290  137.2260 C   0  0  1  0  0  3  0  0  0  0  0  0
  193.1950  174.6810  135.4170 O   0  0  0  0  0  1  0  0  0  0  0  0
  192.9160  174.7760  136.7800 C   0  0  1  0  0  3  0  0  0  0  0  0
  193.8570  173.8620  137.5460 C   0  0  0  0  0  2  0  0  0  0  0  0
  196.1530  173.8330  138.4700 C   0  0  0  0  0  1  0  0  0  0  0  0
  195.2980  174.2590  137.2960 C   0  0  0  0  0  2  0  0  0  0  0  0
  190.9350  177.2890  141.2380 N   0  0  0  0  0  0  0  0  0  0  0  0
  191.9820  178.0380  140.8140 O   0  0  0  0  0  1  0  0  0  0  0  0
  190.2010  178.1390  142.6180 S   0  0  0  0  0  0  0  0  0  0  0  0
  187.6170  177.9870  144.8340 C   0  0  2  0  0  3  0  0  0  0  0  0
  189.1490  178.1970  145.8150 S   0  0  0  0  0  0  0  0  0  0  0  0
  186.4330  178.4590  145.6490 C   0  0  0  0  0  1  0  0  0  0  0  0
  189.8490  176.6120  143.5710 C   0  0  2  0  0  0  0  0  0  0  0  0
  190.1420  176.8480  145.0540 C   0  0  0  0  0  2  0  0  0  0  0  0
  187.4140  176.5380  144.4380 C   0  0  0  0  0  2  0  0  0  0  0  0
  190.7820  175.5180  143.0890 C   0  0  0  0  0  1  0  0  0  0  0  0
  188.4030  176.1360  143.3460 C   0  0  0  0  0  2  0  0  0  0  0  0
  1  4  1  6  0  0  0
  1  7  1  0  0  0  0
  2 11  1  1  0  0  0
  2  6  1  0  0  0  0
  2  9  1  0  0  0  0
  4 11  1  0  0  0  0
  5  3  1  0  0  0  0
  6  9  1  0  0  0  0
  7  8  1  0  0  0  0
  8  3  1  0  0  0  0
  8 20  1  1  0  0  0
  9  5  1  1  0  0  0
 10 11  2  0  0  0  0
 12  1  1  0  0  0  0
 12 13  1  1  0  0  0
 14 16  1  1  0  0  0
 14 12  1  0  0  0  0
 14 13  1  0  0  0  0
 16 15  1  6  0  0  0
 16 17  1  0  0  0  0
 19 17  1  0  0  0  0
 19 18  1  0  0  0  0
 20 22  1  0  0  0  0
 21 20  1  0  0  0  0
 22 26  1  0  0  0  0
 23 25  1  1  0  0  0
 23 24  1  0  0  0  0
 26 29  1  6  0  0  0
 26 27  1  0  0  0  0
 27 24  1  0  0  0  0
 28 23  1  0  0  0  0
 30 26  1  0  0  0  0
 30 28  1  0  0  0  0
M  END
>  <MODEL>
7

>  <REMARK>
 VINA RESULT:      -5.4      3.473      9.261
  Name = 
  7 active torsions:
  status: ('A' for Active; 'I' for Inactive)
    1  A    between atoms: C_1  and  C_4
    2  A    between atoms: S_3  and  N_11
    3  A    between atoms: S_3  and  C_19
    4  A    between atoms: C_8  and  C_9
    5  A    between atoms: C_8  and  C_12
    6  A    between atoms: C_9  and  C_21
    7  A    between atoms: N_11  and  C_25
                            x       y       z     vdW  Elec       q    Type
                         _______ _______ _______ _____ _____    ______ ____

>  <TORSDO>
F 7

$$$$
=
 OpenBabel10272413423D

 30 33  0  0  1  0  0  0  0  0999 V2000
  186.7380  177.7020  142.7770 C   0  0  2  0  0  3  0  0  0  0  0  0
  183.4900  178.5050  144.3130 C   0  0  2  0  0  3  0  0  0  0  0  0
  186.0770  177.7560  146.3460 C   0  0  0  0  0  2  0  0  0  0  0  0
  185.2630  178.0250  142.5220 C   0  0  0  0  0  2  0  0  0  0  0  0
  185.0690  178.8860  146.3160 C   0  0  0  0  0  2  0  0  0  0  0  0
  183.0400  179.4820  145.2260 O   0  0  0  0  0  0  0  0  0  0  0  0
  186.9940  177.0160  144.1220 C   0  0  0  0  0  2  0  0  0  0  0  0
  187.1360  178.0040  145.2760 C   0  0  2  0  0  3  0  0  0  0  0  0
  183.7270  178.3900  145.7870 C   0  0  1  0  0  3  0  0  0  0  0  0
  184.8740  180.3010  143.3120 C   0  0  0  0  0  2  0  0  0  0  0  0
  184.6610  178.9950  143.4920 C   0  0  0  0  0  0  0  0  0  0  0  0
  187.6760  178.8800  142.4830 C   0  0  1  0  0  3  0  0  0  0  0  0
  188.9470  178.3920  142.1190 O   0  0  0  0  0  0  0  0  0  0  0  0
  188.1910  178.9660  141.0790 C   0  0  1  0  0  3  0  0  0  0  0  0
  186.7440  178.4130  139.2670 O   0  0  0  0  0  1  0  0  0  0  0  0
  187.6980  177.8720  140.1290 C   0  0  1  0  0  3  0  0  0  0  0  0
  188.8490  177.3120  139.3110 C   0  0  0  0  0  2  0  0  0  0  0  0
  189.3250  177.9970  136.9800 C   0  0  0  0  0  1  0  0  0  0  0  0
  189.4500  178.3940  138.4360 C   0  0  0  0  0  2  0  0  0  0  0  0
  188.5060  178.0080  145.8040 N   0  0  0  0  0  0  0  0  0  0  0  0
  188.4410  178.2640  147.1330 O   0  0  0  0  0  1  0  0  0  0  0  0
  189.2660  176.4120  145.6100 S   0  0  0  0  0  0  0  0  0  0  0  0
  191.4220  177.1460  143.0750 C   0  0  2  0  0  3  0  0  0  0  0  0
  191.9090  175.5070  143.7310 S   0  0  0  0  0  0  0  0  0  0  0  0
  191.9300  177.2880  141.6570 C   0  0  0  0  0  1  0  0  0  0  0  0
  190.9670  177.0070  145.9460 C   0  0  2  0  0  0  0  0  0  0  0  0
  191.9820  175.9440  145.5170 C   0  0  0  0  0  2  0  0  0  0  0  0
  191.9810  178.2670  143.9280 C   0  0  0  0  0  2  0  0  0  0  0  0
  191.1200  177.2080  147.4410 C   0  0  0  0  0  1  0  0  0  0  0  0
  191.2320  178.3560  145.2560 C   0  0  0  0  0  2  0  0  0  0  0  0
  1  4  1  1  0  0  0
  1  7  1  0  0  0  0
  2 11  1  6  0  0  0
  2  6  1  0  0  0  0
  2  9  1  0  0  0  0
  4 11  1  0  0  0  0
  5  3  1  0  0  0  0
  6  9  1  0  0  0  0
  7  8  1  0  0  0  0
  8 20  1  1  0  0  0
  8  3  1  0  0  0  0
  9  5  1  6  0  0  0
 10 11  2  0  0  0  0
 12 13  1  1  0  0  0
 12  1  1  0  0  0  0
 14 16  1  6  0  0  0
 14 13  1  0  0  0  0
 14 12  1  0  0  0  0
 16 15  1  6  0  0  0
 17 16  1  0  0  0  0
 18 19  1  0  0  0  0
 19 17  1  0  0  0  0
 20 21  1  0  0  0  0
 22 20  1  0  0  0  0
 22 26  1  0  0  0  0
 23 25  1  6  0  0  0
 23 24  1  0  0  0  0
 23 28  1  0  0  0  0
 24 27  1  0  0  0  0
 26 29  1  1  0  0  0
 27 26  1  0  0  0  0
 28 30  1  0  0  0  0
 30 26  1  0  0  0  0
M  END
>  <MODEL>
8

>  <REMARK>
 VINA RESULT:      -5.3      2.155      5.680
  Name = 
  7 active torsions:
  status: ('A' for Active; 'I' for Inactive)
    1  A    between atoms: C_1  and  C_4
    2  A    between atoms: S_3  and  N_11
    3  A    between atoms: S_3  and  C_19
    4  A    between atoms: C_8  and  C_9
    5  A    between atoms: C_8  and  C_12
    6  A    between atoms: C_9  and  C_21
    7  A    between atoms: N_11  and  C_25
                            x       y       z     vdW  Elec       q    Type
                         _______ _______ _______ _____ _____    ______ ____

>  <TORSDO>
F 7

$$$$
=
 OpenBabel10272413423D

 30 33  0  0  1  0  0  0  0  0999 V2000
  191.4870  175.2920  137.1450 C   0  0  2  0  0  3  0  0  0  0  0  0
  188.3380  175.1630  135.2440 C   0  0  2  0  0  3  0  0  0  0  0  0
  188.2900  176.5450  138.3220 C   0  0  0  0  0  2  0  0  0  0  0  0
  190.8000  174.8000  135.8690 C   0  0  0  0  0  2  0  0  0  0  0  0
  187.7740  176.9930  136.9700 C   0  0  0  0  0  2  0  0  0  0  0  0
  187.4180  176.1280  134.7830 O   0  0  0  0  0  0  0  0  0  0  0  0
  190.5420  175.4210  138.3430 C   0  0  0  0  0  2  0  0  0  0  0  0
  189.8010  176.7540  138.3740 C   0  0  2  0  0  3  0  0  0  0  0  0
  187.3220  175.7930  136.1460 C   0  0  1  0  0  3  0  0  0  0  0  0
  190.1100  176.7750  134.6110 C   0  0  0  0  0  2  0  0  0  0  0  0
  189.7400  175.7180  135.3390 C   0  0  0  0  0  0  0  0  0  0  0  0
  192.3860  176.5150  136.9160 C   0  0  1  0  0  3  0  0  0  0  0  0
  193.3870  176.5570  137.9070 O   0  0  0  0  0  0  0  0  0  0  0  0
  193.8220  176.2190  136.6110 C   0  0  1  0  0  3  0  0  0  0  0  0
  194.2260  174.3230  135.2250 O   0  0  0  0  0  1  0  0  0  0  0  0
  194.1910  174.7350  136.5560 C   0  0  1  0  0  3  0  0  0  0  0  0
  195.5510  174.4950  137.1890 C   0  0  0  0  0  2  0  0  0  0  0  0
  196.1030  174.6630  139.5960 C   0  0  0  0  0  1  0  0  0  0  0  0
  195.3930  173.8360  138.5450 C   0  0  0  0  0  2  0  0  0  0  0  0
  190.2350  177.5760  139.5110 N   0  0  0  0  0  0  0  0  0  0  0  0
  189.6410  178.7880  139.4020 O   0  0  0  0  0  1  0  0  0  0  0  0
  189.7020  176.8610  141.0500 S   0  0  0  0  0  0  0  0  0  0  0  0
  189.7800  177.0070  144.4530 C   0  0  2  0  0  3  0  0  0  0  0  0
  189.7290  178.7340  143.8480 S   0  0  0  0  0  0  0  0  0  0  0  0
  189.2670  176.9600  145.8760 C   0  0  0  0  0  1  0  0  0  0  0  0
  191.2450  177.2670  141.9530 C   0  0  2  0  0  0  0  0  0  0  0  0
  191.1050  178.6320  142.6300 C   0  0  0  0  0  2  0  0  0  0  0  0
  191.1890  176.4490  144.4060 C   0  0  0  0  0  2  0  0  0  0  0  0
  192.3770  177.3690  140.9490 C   0  0  0  0  0  1  0  0  0  0  0  0
  191.6050  176.1650  142.9640 C   0  0  0  0  0  2  0  0  0  0  0  0
  1  4  1  6  0  0  0
  1  7  1  0  0  0  0
  2  6  1  6  0  0  0
  2 11  1  0  0  0  0
  2  9  1  0  0  0  0
  3  8  1  0  0  0  0
  5  3  1  0  0  0  0
  6  9  1  0  0  0  0
  7  8  1  0  0  0  0
  8 20  1  1  0  0  0
  9  5  1  1  0  0  0
 10 11  2  0  0  0  0
 11  4  1  0  0  0  0
 12  1  1  0  0  0  0
 12 13  1  1  0  0  0
 14 16  1  1  0  0  0
 14 12  1  0  0  0  0
 14 13  1  0  0  0  0
 16 15  1  6  0  0  0
 16 17  1  0  0  0  0
 17 19  1  0  0  0  0
 19 18  1  0  0  0  0
 20 22  1  0  0  0  0
 21 20  1  0  0  0  0
 22 26  1  0  0  0  0
 23 25  1  1  0  0  0
 24 23  1  0  0  0  0
 26 29  1  6  0  0  0
 26 27  1  0  0  0  0
 26 30  1  0  0  0  0
 27 24  1  0  0  0  0
 28 23  1  0  0  0  0
 30 28  1  0  0  0  0
M  END
>  <MODEL>
9

>  <REMARK>
 VINA RESULT:      -5.2      4.548     10.080
  Name = 
  7 active torsions:
  status: ('A' for Active; 'I' for Inactive)
    1  A    between atoms: C_1  and  C_4
    2  A    between atoms: S_3  and  N_11
    3  A    between atoms: S_3  and  C_19
    4  A    between atoms: C_8  and  C_9
    5  A    between atoms: C_8  and  C_12
    6  A    between atoms: C_9  and  C_21
    7  A    between atoms: N_11  and  C_25
                            x       y       z     vdW  Elec       q    Type
                         _______ _______ _______ _____ _____    ______ ____

>  <TORSDO>
F 7

$$$$
