=
 OpenBabel10272401153D

 27 31  0  0  1  0  0  0  0  0999 V2000
  187.6850  177.6430  143.9960 C   0  0  0  0  0  3  0  0  0  0  0  0
  189.6930  177.4720  142.6310 C   0  0  0  0  0  0  0  0  0  0  0  0
  186.7180  178.7000  140.5540 C   0  0  0  0  0  2  0  0  0  0  0  0
  191.0580  177.2390  142.3120 N   0  0  0  0  0  2  0  0  0  0  0  0
  184.7710  178.9180  142.0830 C   0  0  2  0  0  3  0  0  0  0  0  0
  189.1520  177.4180  143.8690 C   0  0  0  0  0  0  0  0  0  0  0  0
  189.5830  177.6960  140.3280 C   0  0  0  0  0  0  0  0  0  0  0  0
  186.9080  177.9400  142.9440 C   0  0  0  0  0  0  0  0  0  0  0  0
  188.8800  177.7480  141.4650 C   0  0  0  0  0  0  0  0  0  0  0  0
  185.2220  178.4550  140.7000 C   0  0  0  0  0  2  0  0  0  0  0  0
  191.3390  177.3610  140.5660 S   0  0  0  0  0  0  0  0  0  0  0  0
  185.4270  178.0570  143.1570 C   0  0  0  0  0  2  0  0  0  0  0  0
  187.4710  178.0250  141.6130 N   0  0  0  0  0  0  0  0  0  0  0  0
  188.3760  176.6050  138.4530 C   0  0  0  0  0  3  0  0  0  0  0  0
  187.8930  177.8270  136.4180 C   0  0  0  0  0  3  0  0  0  0  0  0
  188.5210  178.9620  136.9460 C   0  0  0  0  0  3  0  0  0  0  0  0
  189.0820  178.9170  138.2240 C   0  0  0  0  0  3  0  0  0  0  0  0
  189.0030  177.7410  138.9830 C   0  0  0  0  0  0  0  0  0  0  0  0
  187.8230  176.6480  137.1710 C   0  0  0  0  0  3  0  0  0  0  0  0
  191.3500  176.5370  147.4680 C   0  0  0  0  0  3  0  0  0  0  0  0
  189.9360  177.1190  145.1020 C   0  0  0  0  0  0  0  0  0  0  0  0
  191.2050  176.5130  145.0530 C   0  0  0  0  0  3  0  0  0  0  0  0
  191.9100  176.2290  146.2260 C   0  0  0  0  0  3  0  0  0  0  0  0
  190.0910  177.1400  147.5360 C   0  0  0  0  0  3  0  0  0  0  0  0
  189.3910  177.4310  146.3620 C   0  0  0  0  0  3  0  0  0  0  0  0
  182.8740  178.8750  143.6130 N   0  0  0  0  0  1  0  0  0  0  0  0
  183.2630  178.8060  142.2130 C   0  0  0  0  0  2  0  0  0  0  0  0
  2  6  2  0  0  0  0
  3 10  1  0  0  0  0
  3 13  1  0  0  0  0
  4  2  1  0  0  0  0
  5 27  1  6  0  0  0
  5 12  1  0  0  0  0
  6  1  1  0  0  0  0
  6 21  1  0  0  0  0
  7 11  1  0  0  0  0
  7  9  2  0  0  0  0
  8 12  1  0  0  0  0
  8  1  2  0  0  0  0
  9 13  1  0  0  0  0
  9  2  1  0  0  0  0
 10  5  1  0  0  0  0
 11  4  1  0  0  0  0
 13  8  1  0  0  0  0
 14 18  1  0  0  0  0
 15 16  2  0  0  0  0
 15 19  1  0  0  0  0
 16 17  1  0  0  0  0
 17 18  2  0  0  0  0
 18  7  1  0  0  0  0
 19 14  2  0  0  0  0
 20 24  1  0  0  0  0
 21 25  1  0  0  0  0
 22 21  2  0  0  0  0
 22 23  1  0  0  0  0
 23 20  2  0  0  0  0
 25 24  2  0  0  0  0
 27 26  1  0  0  0  0
M  END
>  <MODEL>
1

>  <REMARK>
 VINA RESULT:      -9.3      0.000      0.000
  Name = 
  3 active torsions:
  status: ('A' for Active; 'I' for Inactive)
    1  A    between atoms: C_9  and  C_15
    2  A    between atoms: C_13  and  C_22
    3  A    between atoms: C_14  and  C_17
                            x       y       z     vdW  Elec       q    Type
                         _______ _______ _______ _____ _____    ______ ____

>  <TORSDO>
F 3

$$$$
=
 OpenBabel10272401153D

 27 31  0  0  1  0  0  0  0  0999 V2000
  186.2430  177.9770  143.6770 C   0  0  0  0  0  3  0  0  0  0  0  0
  188.5700  177.7710  142.9940 C   0  0  0  0  0  0  0  0  0  0  0  0
  186.3370  178.6840  140.0190 C   0  0  0  0  0  2  0  0  0  0  0  0
  189.9710  177.5680  143.1190 N   0  0  0  0  0  2  0  0  0  0  0  0
  184.0190  178.9540  140.8720 C   0  0  2  0  0  3  0  0  0  0  0  0
  187.6840  177.8030  144.0140 C   0  0  0  0  0  0  0  0  0  0  0  0
  189.1520  177.7860  140.7510 C   0  0  0  0  0  0  0  0  0  0  0  0
  185.8130  178.1470  142.4190 C   0  0  0  0  0  0  0  0  0  0  0  0
  188.1400  177.9080  141.6190 C   0  0  0  0  0  0  0  0  0  0  0  0
  184.8700  178.3900  139.7370 C   0  0  0  0  0  2  0  0  0  0  0  0
  190.7600  177.5480  141.5320 S   0  0  0  0  0  0  0  0  0  0  0  0
  184.3340  178.2190  142.1700 C   0  0  0  0  0  2  0  0  0  0  0  0
  186.7470  178.1380  141.3130 N   0  0  0  0  0  0  0  0  0  0  0  0
  188.6770  176.4580  138.7090 C   0  0  0  0  0  3  0  0  0  0  0  0
  188.7100  177.5000  136.5230 C   0  0  0  0  0  3  0  0  0  0  0  0
  189.0360  178.7290  137.1090 C   0  0  0  0  0  3  0  0  0  0  0  0
  189.1890  178.8220  138.4940 C   0  0  0  0  0  3  0  0  0  0  0  0
  189.0020  177.6880  139.2980 C   0  0  0  0  0  0  0  0  0  0  0  0
  188.5330  176.3640  137.3230 C   0  0  0  0  0  3  0  0  0  0  0  0
  188.7140  177.3370  148.1710 C   0  0  0  0  0  3  0  0  0  0  0  0
  188.0660  177.6480  145.4480 C   0  0  0  0  0  0  0  0  0  0  0  0
  189.3010  177.0960  145.8360 C   0  0  0  0  0  3  0  0  0  0  0  0
  189.6250  176.9460  147.1880 C   0  0  0  0  0  3  0  0  0  0  0  0
  187.4830  177.8880  147.8040 C   0  0  0  0  0  3  0  0  0  0  0  0
  187.1630  178.0440  146.4530 C   0  0  0  0  0  3  0  0  0  0  0  0
  181.7720  178.7310  141.7900 N   0  0  0  0  0  1  0  0  0  0  0  0
  182.5420  178.7900  140.5580 C   0  0  0  0  0  2  0  0  0  0  0  0
  1  6  1  0  0  0  0
  2  4  1  0  0  0  0
  2  6  2  0  0  0  0
  3 13  1  0  0  0  0
  5 27  1  6  0  0  0
  5 12  1  0  0  0  0
  6 21  1  0  0  0  0
  7 11  1  0  0  0  0
  7  9  2  0  0  0  0
  8  1  2  0  0  0  0
  9  2  1  0  0  0  0
 10  3  1  0  0  0  0
 10  5  1  0  0  0  0
 11  4  1  0  0  0  0
 12  8  1  0  0  0  0
 13  9  1  0  0  0  0
 13  8  1  0  0  0  0
 14 18  1  0  0  0  0
 15 16  2  0  0  0  0
 15 19  1  0  0  0  0
 16 17  1  0  0  0  0
 17 18  2  0  0  0  0
 18  7  1  0  0  0  0
 19 14  2  0  0  0  0
 21 22  2  0  0  0  0
 21 25  1  0  0  0  0
 22 23  1  0  0  0  0
 23 20  2  0  0  0  0
 24 20  1  0  0  0  0
 25 24  2  0  0  0  0
 27 26  1  0  0  0  0
M  END
>  <MODEL>
2

>  <REMARK>
 VINA RESULT:      -8.8      1.190      1.541
  Name = 
  3 active torsions:
  status: ('A' for Active; 'I' for Inactive)
    1  A    between atoms: C_9  and  C_15
    2  A    between atoms: C_13  and  C_22
    3  A    between atoms: C_14  and  C_17
                            x       y       z     vdW  Elec       q    Type
                         _______ _______ _______ _____ _____    ______ ____

>  <TORSDO>
F 3

$$$$
=
 OpenBabel10272401153D

 27 31  0  0  1  0  0  0  0  0999 V2000
  187.5610  177.9540  143.0510 C   0  0  0  0  0  3  0  0  0  0  0  0
  187.2320  177.9380  145.4630 C   0  0  0  0  0  0  0  0  0  0  0  0
  190.9470  177.6370  144.5780 C   0  0  0  0  0  2  0  0  0  0  0  0
  186.5410  177.9990  146.7030 N   0  0  0  0  0  2  0  0  0  0  0  0
  191.1440  177.7620  142.1050 C   0  0  2  0  0  3  0  0  0  0  0  0
  186.6780  178.1080  144.2420 C   0  0  0  0  0  0  0  0  0  0  0  0
  188.9820  177.4280  146.8940 C   0  0  0  0  0  0  0  0  0  0  0  0
  188.8740  177.7030  143.1560 C   0  0  0  0  0  0  0  0  0  0  0  0
  188.6370  177.6230  145.6150 C   0  0  0  0  0  0  0  0  0  0  0  0
  191.6440  177.0500  143.3590 C   0  0  0  0  0  2  0  0  0  0  0  0
  187.6290  177.6700  148.0620 S   0  0  0  0  0  0  0  0  0  0  0  0
  189.6620  177.4710  141.9000 C   0  0  0  0  0  2  0  0  0  0  0  0
  189.4920  177.5380  144.4550 N   0  0  0  0  0  0  0  0  0  0  0  0
  190.7290  175.6660  146.8890 C   0  0  0  0  0  3  0  0  0  0  0  0
  192.7530  175.9300  148.1940 C   0  0  0  0  0  3  0  0  0  0  0  0
  192.3020  177.1750  148.6490 C   0  0  0  0  0  3  0  0  0  0  0  0
  191.0630  177.6630  148.2290 C   0  0  0  0  0  3  0  0  0  0  0  0
  190.2770  176.9130  147.3420 C   0  0  0  0  0  0  0  0  0  0  0  0
  191.9650  175.1740  147.3160 C   0  0  0  0  0  3  0  0  0  0  0  0
  182.5070  178.9350  143.5550 C   0  0  0  0  0  3  0  0  0  0  0  0
  185.2350  178.4140  144.0220 C   0  0  0  0  0  0  0  0  0  0  0  0
  184.3820  178.7880  145.0770 C   0  0  0  0  0  3  0  0  0  0  0  0
  183.0290  179.0530  144.8460 C   0  0  0  0  0  3  0  0  0  0  0  0
  183.3390  178.5650  142.4960 C   0  0  0  0  0  3  0  0  0  0  0  0
  184.6930  178.3100  142.7270 C   0  0  0  0  0  3  0  0  0  0  0  0
  190.9990  177.0280  139.7850 N   0  0  0  0  0  1  0  0  0  0  0  0
  191.9140  177.2880  140.8850 C   0  0  0  0  0  2  0  0  0  0  0  0
  1  8  2  0  0  0  0
  1  6  1  0  0  0  0
  2  9  1  0  0  0  0
  2  4  1  0  0  0  0
  4 11  1  0  0  0  0
  5 27  1  6  0  0  0
  5 10  1  0  0  0  0
  6  2  2  0  0  0  0
  7 18  1  0  0  0  0
  7 11  1  0  0  0  0
  8 13  1  0  0  0  0
  9  7  2  0  0  0  0
 10  3  1  0  0  0  0
 12  5  1  0  0  0  0
 12  8  1  0  0  0  0
 13  3  1  0  0  0  0
 13  9  1  0  0  0  0
 14 19  2  0  0  0  0
 14 18  1  0  0  0  0
 15 16  2  0  0  0  0
 17 16  1  0  0  0  0
 18 17  2  0  0  0  0
 19 15  1  0  0  0  0
 20 23  1  0  0  0  0
 21  6  1  0  0  0  0
 21 22  1  0  0  0  0
 23 22  2  0  0  0  0
 24 25  1  0  0  0  0
 24 20  2  0  0  0  0
 25 21  2  0  0  0  0
 26 27  1  0  0  0  0
M  END
>  <MODEL>
3

>  <REMARK>
 VINA RESULT:      -8.5      3.142      7.678
  Name = 
  3 active torsions:
  status: ('A' for Active; 'I' for Inactive)
    1  A    between atoms: C_9  and  C_15
    2  A    between atoms: C_13  and  C_22
    3  A    between atoms: C_14  and  C_17
                            x       y       z     vdW  Elec       q    Type
                         _______ _______ _______ _____ _____    ______ ____

>  <TORSDO>
F 3

$$$$
=
 OpenBabel10272401153D

 27 31  0  0  1  0  0  0  0  0999 V2000
  186.7090  178.3870  141.9580 C   0  0  0  0  0  3  0  0  0  0  0  0
  184.3400  178.5330  142.5000 C   0  0  0  0  0  0  0  0  0  0  0  0
  184.8650  178.0690  138.7340 C   0  0  0  0  0  2  0  0  0  0  0  0
  183.1720  178.6430  143.3020 N   0  0  0  0  0  2  0  0  0  0  0  0
  187.3070  177.8400  138.3370 C   0  0  2  0  0  3  0  0  0  0  0  0
  185.6070  178.4430  142.9610 C   0  0  0  0  0  0  0  0  0  0  0  0
  182.7510  178.7250  140.8240 C   0  0  0  0  0  0  0  0  0  0  0  0
  186.4800  178.3760  140.6380 C   0  0  0  0  0  0  0  0  0  0  0  0
  184.0550  178.5680  141.0810 C   0  0  0  0  0  0  0  0  0  0  0  0
  186.0160  178.4730  137.8230 C   0  0  0  0  0  2  0  0  0  0  0  0
  181.7170  178.7880  142.3010 S   0  0  0  0  0  0  0  0  0  0  0  0
  187.6560  178.4130  139.7060 C   0  0  0  0  0  2  0  0  0  0  0  0
  185.1290  178.4500  140.1230 N   0  0  0  0  0  0  0  0  0  0  0  0
  182.1630  180.2910  138.9920 C   0  0  0  0  0  3  0  0  0  0  0  0
  181.1060  179.4830  136.9670 C   0  0  0  0  0  3  0  0  0  0  0  0
  181.1250  178.1780  137.4740 C   0  0  0  0  0  3  0  0  0  0  0  0
  181.6570  177.9300  138.7410 C   0  0  0  0  0  3  0  0  0  0  0  0
  182.1850  178.9850  139.4990 C   0  0  0  0  0  0  0  0  0  0  0  0
  181.6220  180.5410  137.7280 C   0  0  0  0  0  3  0  0  0  0  0  0
  186.7070  178.3830  147.1260 C   0  0  0  0  0  3  0  0  0  0  0  0
  185.9620  178.4230  144.4100 C   0  0  0  0  0  0  0  0  0  0  0  0
  185.2420  179.1630  145.3650 C   0  0  0  0  0  3  0  0  0  0  0  0
  185.6070  179.1400  146.7140 C   0  0  0  0  0  3  0  0  0  0  0  0
  187.4330  177.6410  146.1900 C   0  0  0  0  0  3  0  0  0  0  0  0
  187.0620  177.6590  144.8440 C   0  0  0  0  0  3  0  0  0  0  0  0
  188.9820  179.4540  137.6060 N   0  0  0  0  0  1  0  0  0  0  0  0
  188.4510  178.1190  137.3780 C   0  0  0  0  0  2  0  0  0  0  0  0
  1  6  1  0  0  0  0
  2  6  2  0  0  0  0
  2  4  1  0  0  0  0
  3 13  1  0  0  0  0
  5 27  1  6  0  0  0
  5 12  1  0  0  0  0
  6 21  1  0  0  0  0
  7  9  2  0  0  0  0
  7 11  1  0  0  0  0
  8  1  2  0  0  0  0
  9  2  1  0  0  0  0
 10  5  1  0  0  0  0
 10  3  1  0  0  0  0
 11  4  1  0  0  0  0
 12  8  1  0  0  0  0
 13  8  1  0  0  0  0
 13  9  1  0  0  0  0
 14 18  1  0  0  0  0
 15 16  2  0  0  0  0
 15 19  1  0  0  0  0
 16 17  1  0  0  0  0
 17 18  2  0  0  0  0
 18  7  1  0  0  0  0
 19 14  2  0  0  0  0
 21 25  2  0  0  0  0
 21 22  1  0  0  0  0
 22 23  2  0  0  0  0
 23 20  1  0  0  0  0
 24 20  2  0  0  0  0
 25 24  1  0  0  0  0
 27 26  1  0  0  0  0
M  END
>  <MODEL>
4

>  <REMARK>
 VINA RESULT:      -8.3      3.365      5.914
  Name = 
  3 active torsions:
  status: ('A' for Active; 'I' for Inactive)
    1  A    between atoms: C_9  and  C_15
    2  A    between atoms: C_13  and  C_22
    3  A    between atoms: C_14  and  C_17
                            x       y       z     vdW  Elec       q    Type
                         _______ _______ _______ _____ _____    ______ ____

>  <TORSDO>
F 3

$$$$
=
 OpenBabel10272401153D

 27 31  0  0  1  0  0  0  0  0999 V2000
  187.8930  177.5040  144.6360 C   0  0  0  0  0  3  0  0  0  0  0  0
  187.4920  177.7470  142.2480 C   0  0  0  0  0  0  0  0  0  0  0  0
  190.9080  176.1480  142.9150 C   0  0  0  0  0  2  0  0  0  0  0  0
  186.7980  178.0690  141.0500 N   0  0  0  0  0  2  0  0  0  0  0  0
  191.1440  175.8740  145.3730 C   0  0  2  0  0  3  0  0  0  0  0  0
  186.9890  177.8390  143.4990 C   0  0  0  0  0  0  0  0  0  0  0  0
  189.1880  177.3630  140.7170 C   0  0  0  0  0  0  0  0  0  0  0  0
  189.1500  177.0770  144.4550 C   0  0  0  0  0  0  0  0  0  0  0  0
  188.8580  177.3300  142.0130 C   0  0  0  0  0  0  0  0  0  0  0  0
  191.8660  176.2800  144.0910 C   0  0  0  0  0  2  0  0  0  0  0  0
  187.8350  177.8540  139.6290 S   0  0  0  0  0  0  0  0  0  0  0  0
  190.0130  176.8550  145.6630 C   0  0  0  0  0  2  0  0  0  0  0  0
  189.7010  176.9500  143.1220 N   0  0  0  0  0  0  0  0  0  0  0  0
  190.7590  176.3610  139.0780 C   0  0  0  0  0  3  0  0  0  0  0  0
  193.1310  176.8390  139.1890 C   0  0  0  0  0  3  0  0  0  0  0  0
  192.9180  177.6580  140.3040 C   0  0  0  0  0  3  0  0  0  0  0  0
  191.6270  177.8240  140.8100 C   0  0  0  0  0  3  0  0  0  0  0  0
  190.5440  177.1820  140.1930 C   0  0  0  0  0  0  0  0  0  0  0  0
  192.0520  176.1870  138.5780 C   0  0  0  0  0  3  0  0  0  0  0  0
  182.9970  179.1630  144.4280 C   0  0  0  0  0  3  0  0  0  0  0  0
  185.5970  178.2810  143.8020 C   0  0  0  0  0  0  0  0  0  0  0  0
  184.6250  178.4280  142.7960 C   0  0  0  0  0  3  0  0  0  0  0  0
  183.3320  178.8610  143.1060 C   0  0  0  0  0  3  0  0  0  0  0  0
  183.9500  179.0220  145.4400 C   0  0  0  0  0  3  0  0  0  0  0  0
  185.2390  178.5820  145.1300 C   0  0  0  0  0  3  0  0  0  0  0  0
  191.6910  176.8480  147.5400 N   0  0  0  0  0  1  0  0  0  0  0  0
  192.1090  175.8720  146.5450 C   0  0  0  0  0  2  0  0  0  0  0  0
  2  6  2  0  0  0  0
  3 13  1  0  0  0  0
  3 10  1  0  0  0  0
  4  2  1  0  0  0  0
  5 12  1  0  0  0  0
  5 27  1  1  0  0  0
  6 21  1  0  0  0  0
  6  1  1  0  0  0  0
  7  9  2  0  0  0  0
  8  1  2  0  0  0  0
  8 12  1  0  0  0  0
  9  2  1  0  0  0  0
  9 13  1  0  0  0  0
 10  5  1  0  0  0  0
 11  7  1  0  0  0  0
 11  4  1  0  0  0  0
 13  8  1  0  0  0  0
 14 18  1  0  0  0  0
 15 16  2  0  0  0  0
 16 17  1  0  0  0  0
 18  7  1  0  0  0  0
 18 17  2  0  0  0  0
 19 14  2  0  0  0  0
 19 15  1  0  0  0  0
 20 24  1  0  0  0  0
 21 25  1  0  0  0  0
 22 23  1  0  0  0  0
 22 21  2  0  0  0  0
 23 20  2  0  0  0  0
 25 24  2  0  0  0  0
 27 26  1  0  0  0  0
M  END
>  <MODEL>
5

>  <REMARK>
 VINA RESULT:      -8.3      2.158      5.686
  Name = 
  3 active torsions:
  status: ('A' for Active; 'I' for Inactive)
    1  A    between atoms: C_9  and  C_15
    2  A    between atoms: C_13  and  C_22
    3  A    between atoms: C_14  and  C_17
                            x       y       z     vdW  Elec       q    Type
                         _______ _______ _______ _____ _____    ______ ____

>  <TORSDO>
F 3

$$$$
=
 OpenBabel10272401153D

 27 31  0  0  1  0  0  0  0  0999 V2000
  185.2630  178.6000  140.7030 C   0  0  0  0  0  3  0  0  0  0  0  0
  185.5270  178.2450  143.0970 C   0  0  0  0  0  0  0  0  0  0  0  0
  188.9250  178.3110  141.3320 C   0  0  0  0  0  2  0  0  0  0  0  0
  185.1540  178.0970  144.4600 N   0  0  0  0  0  2  0  0  0  0  0  0
  188.5150  178.7730  138.9250 C   0  0  2  0  0  3  0  0  0  0  0  0
  184.6890  178.5370  142.0780 C   0  0  0  0  0  0  0  0  0  0  0  0
  187.5860  177.6690  143.9890 C   0  0  0  0  0  0  0  0  0  0  0  0
  186.5690  178.4250  140.4600 C   0  0  0  0  0  0  0  0  0  0  0  0
  186.9360  178.0070  142.8690 C   0  0  0  0  0  0  0  0  0  0  0  0
  189.3270  177.9370  139.9110 C   0  0  0  0  0  2  0  0  0  0  0  0
  186.5480  177.6640  145.4640 S   0  0  0  0  0  0  0  0  0  0  0  0
  187.0380  178.4130  139.0340 C   0  0  0  0  0  2  0  0  0  0  0  0
  187.4880  178.1320  141.5400 N   0  0  0  0  0  0  0  0  0  0  0  0
  189.3400  176.0460  143.3160 C   0  0  0  0  0  3  0  0  0  0  0  0
  191.6070  176.2670  144.1390 C   0  0  0  0  0  3  0  0  0  0  0  0
  191.2370  177.4040  144.8660 C   0  0  0  0  0  3  0  0  0  0  0  0
  189.9180  177.8600  144.8240 C   0  0  0  0  0  3  0  0  0  0  0  0
  188.9680  177.1870  144.0420 C   0  0  0  0  0  0  0  0  0  0  0  0
  190.6570  175.5860  143.3660 C   0  0  0  0  0  3  0  0  0  0  0  0
  180.4500  179.1680  142.5160 C   0  0  0  0  0  3  0  0  0  0  0  0
  183.2260  178.7730  142.2490 C   0  0  0  0  0  0  0  0  0  0  0  0
  182.6440  178.9630  143.5160 C   0  0  0  0  0  3  0  0  0  0  0  0
  181.2670  179.1640  143.6490 C   0  0  0  0  0  3  0  0  0  0  0  0
  181.0110  178.9810  141.2500 C   0  0  0  0  0  3  0  0  0  0  0  0
  182.3880  178.7880  141.1180 C   0  0  0  0  0  3  0  0  0  0  0  0
  189.8470  177.3470  137.4640 N   0  0  0  0  0  1  0  0  0  0  0  0
  188.9830  178.5160  137.5030 C   0  0  0  0  0  2  0  0  0  0  0  0
  1  6  1  0  0  0  0
  2  4  1  0  0  0  0
  3 13  1  0  0  0  0
  4 11  1  0  0  0  0
  5 27  1  6  0  0  0
  5 12  1  0  0  0  0
  5 10  1  0  0  0  0
  6 21  1  0  0  0  0
  6  2  2  0  0  0  0
  7 18  1  0  0  0  0
  7 11  1  0  0  0  0
  8  1  2  0  0  0  0
  8 13  1  0  0  0  0
  9  2  1  0  0  0  0
  9  7  2  0  0  0  0
 10  3  1  0  0  0  0
 12  8  1  0  0  0  0
 13  9  1  0  0  0  0
 14 19  2  0  0  0  0
 14 18  1  0  0  0  0
 15 16  2  0  0  0  0
 17 16  1  0  0  0  0
 18 17  2  0  0  0  0
 19 15  1  0  0  0  0
 20 23  1  0  0  0  0
 21 22  1  0  0  0  0
 22 23  2  0  0  0  0
 24 20  2  0  0  0  0
 25 24  1  0  0  0  0
 25 21  2  0  0  0  0
 26 27  1  0  0  0  0
M  END
>  <MODEL>
6

>  <REMARK>
 VINA RESULT:      -8.3      2.065      6.939
  Name = 
  3 active torsions:
  status: ('A' for Active; 'I' for Inactive)
    1  A    between atoms: C_9  and  C_15
    2  A    between atoms: C_13  and  C_22
    3  A    between atoms: C_14  and  C_17
                            x       y       z     vdW  Elec       q    Type
                         _______ _______ _______ _____ _____    ______ ____

>  <TORSDO>
F 3

$$$$
=
 OpenBabel10272401153D

 27 31  0  0  1  0  0  0  0  0999 V2000
  184.5040  178.5920  142.2550 C   0  0  0  0  0  3  0  0  0  0  0  0
  186.2970  178.3470  140.6260 C   0  0  0  0  0  0  0  0  0  0  0  0
  187.5350  177.5630  144.1640 C   0  0  0  0  0  2  0  0  0  0  0  0
  186.9350  178.3240  139.3560 N   0  0  0  0  0  2  0  0  0  0  0  0
  185.5940  177.7580  145.7030 C   0  0  2  0  0  3  0  0  0  0  0  0
  184.9790  178.5520  140.8420 C   0  0  0  0  0  0  0  0  0  0  0  0
  188.4880  178.0400  141.3130 C   0  0  0  0  0  0  0  0  0  0  0  0
  185.3240  178.3870  143.2950 C   0  0  0  0  0  0  0  0  0  0  0  0
  187.2210  178.1640  141.7250 C   0  0  0  0  0  0  0  0  0  0  0  0
  187.0780  178.0710  145.5250 C   0  0  0  0  0  2  0  0  0  0  0  0
  188.6810  178.0730  139.5200 S   0  0  0  0  0  0  0  0  0  0  0  0
  184.7740  178.5400  144.6830 C   0  0  0  0  0  2  0  0  0  0  0  0
  186.7360  178.1440  143.0850 N   0  0  0  0  0  0  0  0  0  0  0  0
  189.9550  179.1620  142.9710 C   0  0  0  0  0  3  0  0  0  0  0  0
  191.8900  178.0230  143.8800 C   0  0  0  0  0  3  0  0  0  0  0  0
  191.5960  176.8960  143.1030 C   0  0  0  0  0  3  0  0  0  0  0  0
  190.4860  176.9030  142.2560 C   0  0  0  0  0  3  0  0  0  0  0  0
  189.6580  178.0340  142.1940 C   0  0  0  0  0  0  0  0  0  0  0  0
  191.0700  179.1580  143.8110 C   0  0  0  0  0  3  0  0  0  0  0  0
  182.1380  179.2380  137.6770 C   0  0  0  0  0  3  0  0  0  0  0  0
  183.9840  178.7660  139.7510 C   0  0  0  0  0  0  0  0  0  0  0  0
  183.5230  177.7100  138.9430 C   0  0  0  0  0  3  0  0  0  0  0  0
  182.6030  177.9420  137.9160 C   0  0  0  0  0  3  0  0  0  0  0  0
  182.5840  180.2980  138.4710 C   0  0  0  0  0  3  0  0  0  0  0  0
  183.4970  180.0630  139.5010 C   0  0  0  0  0  3  0  0  0  0  0  0
  185.6070  179.4730  147.4350 N   0  0  0  0  0  1  0  0  0  0  0  0
  185.1370  178.1380  147.1000 C   0  0  0  0  0  2  0  0  0  0  0  0
  1  8  2  0  0  0  0
  2  6  2  0  0  0  0
  2  9  1  0  0  0  0
  3 10  1  0  0  0  0
  4 11  1  0  0  0  0
  4  2  1  0  0  0  0
  5 27  1  1  0  0  0
  6  1  1  0  0  0  0
  7  9  2  0  0  0  0
  7 18  1  0  0  0  0
  8 12  1  0  0  0  0
  9 13  1  0  0  0  0
 10  5  1  0  0  0  0
 11  7  1  0  0  0  0
 12  5  1  0  0  0  0
 13  8  1  0  0  0  0
 13  3  1  0  0  0  0
 14 19  1  0  0  0  0
 16 15  1  0  0  0  0
 17 16  2  0  0  0  0
 18 17  1  0  0  0  0
 18 14  2  0  0  0  0
 19 15  2  0  0  0  0
 20 23  2  0  0  0  0
 20 24  1  0  0  0  0
 21  6  1  0  0  0  0
 22 21  2  0  0  0  0
 23 22  1  0  0  0  0
 24 25  2  0  0  0  0
 25 21  1  0  0  0  0
 27 26  1  0  0  0  0
M  END
>  <MODEL>
7

>  <REMARK>
 VINA RESULT:      -8.1      2.688      6.695
  Name = 
  3 active torsions:
  status: ('A' for Active; 'I' for Inactive)
    1  A    between atoms: C_9  and  C_15
    2  A    between atoms: C_13  and  C_22
    3  A    between atoms: C_14  and  C_17
                            x       y       z     vdW  Elec       q    Type
                         _______ _______ _______ _____ _____    ______ ____

>  <TORSDO>
F 3

$$$$
=
 OpenBabel10272401153D

 27 31  0  0  1  0  0  0  0  0999 V2000
  188.5420  177.7050  141.3800 C   0  0  0  0  0  3  0  0  0  0  0  0
  190.2640  176.9850  142.9420 C   0  0  0  0  0  0  0  0  0  0  0  0
  186.9040  177.4580  144.7190 C   0  0  0  0  0  2  0  0  0  0  0  0
  191.5420  176.5590  143.3970 N   0  0  0  0  0  2  0  0  0  0  0  0
  185.2270  178.0970  143.0010 C   0  0  2  0  0  3  0  0  0  0  0  0
  189.9210  177.2110  141.6540 C   0  0  0  0  0  0  0  0  0  0  0  0
  189.8690  176.9870  145.2250 C   0  0  0  0  0  0  0  0  0  0  0  0
  187.6340  177.8810  142.3500 C   0  0  0  0  0  0  0  0  0  0  0  0
  189.3250  177.2040  144.0210 C   0  0  0  0  0  0  0  0  0  0  0  0
  185.7280  178.3760  144.4160 C   0  0  0  0  0  2  0  0  0  0  0  0
  191.5830  176.4290  145.1640 S   0  0  0  0  0  0  0  0  0  0  0  0
  186.3020  178.4710  141.9870 C   0  0  0  0  0  2  0  0  0  0  0  0
  187.9740  177.6230  143.7330 N   0  0  0  0  0  0  0  0  0  0  0  0
  189.1870  178.6370  146.9490 C   0  0  0  0  0  3  0  0  0  0  0  0
  188.0060  177.9250  148.9410 C   0  0  0  0  0  3  0  0  0  0  0  0
  188.0490  176.5980  148.4970 C   0  0  0  0  0  3  0  0  0  0  0  0
  188.6670  176.2890  147.2830 C   0  0  0  0  0  3  0  0  0  0  0  0
  189.2300  177.3090  146.5020 C   0  0  0  0  0  0  0  0  0  0  0  0
  188.5770  178.9450  148.1670 C   0  0  0  0  0  3  0  0  0  0  0  0
  192.5490  176.6780  138.2830 C   0  0  0  0  0  3  0  0  0  0  0  0
  190.8510  177.0220  140.5030 C   0  0  0  0  0  0  0  0  0  0  0  0
  192.1920  177.4480  140.5480 C   0  0  0  0  0  3  0  0  0  0  0  0
  193.0370  177.2730  139.4490 C   0  0  0  0  0  3  0  0  0  0  0  0
  191.2210  176.2480  138.2210 C   0  0  0  0  0  3  0  0  0  0  0  0
  190.3800  176.4160  139.3230 C   0  0  0  0  0  3  0  0  0  0  0  0
  183.2310  179.1310  143.9440 N   0  0  0  0  0  1  0  0  0  0  0  0
  183.9750  178.9060  142.7140 C   0  0  0  0  0  2  0  0  0  0  0  0
  1  6  1  0  0  0  0
  1  8  2  0  0  0  0
  2  4  1  0  0  0  0
  2  9  1  0  0  0  0
  4 11  1  0  0  0  0
  5 27  1  6  0  0  0
  5 10  1  0  0  0  0
  6  2  2  0  0  0  0
  7 18  1  0  0  0  0
  8 13  1  0  0  0  0
  9  7  2  0  0  0  0
 10  3  1  0  0  0  0
 11  7  1  0  0  0  0
 12  8  1  0  0  0  0
 12  5  1  0  0  0  0
 13  9  1  0  0  0  0
 13  3  1  0  0  0  0
 14 19  1  0  0  0  0
 16 15  1  0  0  0  0
 17 16  2  0  0  0  0
 18 14  2  0  0  0  0
 18 17  1  0  0  0  0
 19 15  2  0  0  0  0
 20 23  1  0  0  0  0
 21 22  1  0  0  0  0
 21  6  1  0  0  0  0
 23 22  2  0  0  0  0
 24 20  2  0  0  0  0
 24 25  1  0  0  0  0
 25 21  2  0  0  0  0
 27 26  1  0  0  0  0
M  END
>  <MODEL>
8

>  <REMARK>
 VINA RESULT:      -8.1      2.091      6.318
  Name = 
  3 active torsions:
  status: ('A' for Active; 'I' for Inactive)
    1  A    between atoms: C_9  and  C_15
    2  A    between atoms: C_13  and  C_22
    3  A    between atoms: C_14  and  C_17
                            x       y       z     vdW  Elec       q    Type
                         _______ _______ _______ _____ _____    ______ ____

>  <TORSDO>
F 3

$$$$
=
 OpenBabel10272401153D

 27 31  0  0  1  0  0  0  0  0999 V2000
  184.9130  178.4090  144.8160 C   0  0  0  0  0  3  0  0  0  0  0  0
  185.7050  178.3180  142.5160 C   0  0  0  0  0  0  0  0  0  0  0  0
  188.4620  177.2810  144.9650 C   0  0  0  0  0  2  0  0  0  0  0  0
  185.6600  178.4030  141.0980 N   0  0  0  0  0  2  0  0  0  0  0  0
  187.4940  177.3270  147.2520 C   0  0  2  0  0  3  0  0  0  0  0  0
  184.6550  178.4860  143.3500 C   0  0  0  0  0  0  0  0  0  0  0  0
  187.9510  177.9920  142.0490 C   0  0  0  0  0  0  0  0  0  0  0  0
  186.1240  178.1360  145.3200 C   0  0  0  0  0  0  0  0  0  0  0  0
  187.0370  178.0640  143.0240 C   0  0  0  0  0  0  0  0  0  0  0  0
  188.7200  177.6750  146.4130 C   0  0  0  0  0  2  0  0  0  0  0  0
  187.2670  178.1670  140.3890 S   0  0  0  0  0  0  0  0  0  0  0  0
  186.3050  178.1730  146.8100 C   0  0  0  0  0  2  0  0  0  0  0  0
  187.2590  177.9320  144.4440 N   0  0  0  0  0  0  0  0  0  0  0  0
  190.0130  178.8380  143.1420 C   0  0  0  0  0  3  0  0  0  0  0  0
  192.1630  177.8260  142.6730 C   0  0  0  0  0  3  0  0  0  0  0  0
  191.5520  176.9250  141.7930 C   0  0  0  0  0  3  0  0  0  0  0  0
  190.1730  176.9840  141.5820 C   0  0  0  0  0  3  0  0  0  0  0  0
  189.3990  177.9350  142.2620 C   0  0  0  0  0  0  0  0  0  0  0  0
  191.3940  178.7850  143.3460 C   0  0  0  0  0  3  0  0  0  0  0  0
  180.6490  179.2460  141.9580 C   0  0  0  0  0  3  0  0  0  0  0  0
  183.2660  178.7690  142.8850 C   0  0  0  0  0  0  0  0  0  0  0  0
  182.2470  179.1630  143.7730 C   0  0  0  0  0  3  0  0  0  0  0  0
  180.9500  179.4050  143.3130 C   0  0  0  0  0  3  0  0  0  0  0  0
  181.6490  178.8570  141.0620 C   0  0  0  0  0  3  0  0  0  0  0  0
  182.9470  178.6230  141.5220 C   0  0  0  0  0  3  0  0  0  0  0  0
  188.9890  178.3640  148.8740 N   0  0  0  0  0  1  0  0  0  0  0  0
  187.7670  177.5900  148.7230 C   0  0  0  0  0  2  0  0  0  0  0  0
  1  8  2  0  0  0  0
  2  9  1  0  0  0  0
  2  6  2  0  0  0  0
  3 10  1  0  0  0  0
  4  2  1  0  0  0  0
  5 27  1  1  0  0  0
  6  1  1  0  0  0  0
  7 18  1  0  0  0  0
  7  9  2  0  0  0  0
  8 12  1  0  0  0  0
  9 13  1  0  0  0  0
 10  5  1  0  0  0  0
 11  4  1  0  0  0  0
 11  7  1  0  0  0  0
 12  5  1  0  0  0  0
 13  3  1  0  0  0  0
 13  8  1  0  0  0  0
 14 19  1  0  0  0  0
 15 19  2  0  0  0  0
 16 15  1  0  0  0  0
 17 16  2  0  0  0  0
 17 18  1  0  0  0  0
 18 14  2  0  0  0  0
 20 23  1  0  0  0  0
 21  6  1  0  0  0  0
 21 22  1  0  0  0  0
 23 22  2  0  0  0  0
 24 25  1  0  0  0  0
 24 20  2  0  0  0  0
 25 21  2  0  0  0  0
 27 26  1  0  0  0  0
M  END
>  <MODEL>
9

>  <REMARK>
 VINA RESULT:      -8.0      2.920      6.649
  Name = 
  3 active torsions:
  status: ('A' for Active; 'I' for Inactive)
    1  A    between atoms: C_9  and  C_15
    2  A    between atoms: C_13  and  C_22
    3  A    between atoms: C_14  and  C_17
                            x       y       z     vdW  Elec       q    Type
                         _______ _______ _______ _____ _____    ______ ____

>  <TORSDO>
F 3

$$$$
