=
 OpenBabel10272401323D

 55 59  0  0  1  0  0  0  0  0999 V2000
  188.1770  175.1200  136.1490 C   0  0  2  0  0  3  0  0  0  0  0  0
  189.3810  177.9390  135.8960 C   0  0  0  0  0  1  0  0  0  0  0  0
  188.8110  179.5730  138.0680 O   0  0  0  0  0  0  0  0  0  0  0  0
  188.3030  178.4180  138.0870 C   0  0  0  0  0  0  0  0  0  0  0  0
  187.6360  176.3720  136.7880 C   0  0  0  0  0  0  0  0  0  0  0  0
  188.4330  177.5630  136.9390 N   0  0  0  0  0  0  0  0  0  0  0  0
  186.4520  176.3530  137.2190 O   0  0  0  0  0  0  0  0  0  0  0  0
  187.6360  177.9180  139.3430 C   0  0  2  0  0  3  0  0  0  0  0  0
  185.4150  178.8430  138.5240 C   0  0  0  0  0  3  0  0  0  0  0  0
  184.1190  179.3010  138.7820 C   0  0  0  0  0  3  0  0  0  0  0  0
  185.7280  178.3940  140.8790 C   0  0  0  0  0  3  0  0  0  0  0  0
  184.4310  178.8510  141.1380 C   0  0  0  0  0  3  0  0  0  0  0  0
  183.6260  179.3050  140.0910 C   0  0  0  0  0  3  0  0  0  0  0  0
  186.2260  178.3830  139.5730 C   0  0  0  0  0  0  0  0  0  0  0  0
  188.3570  179.1600  141.2770 O   0  0  0  0  0  1  0  0  0  0  0  0
  189.4790  177.0570  140.8870 C   0  0  0  0  0  0  0  0  0  0  0  0
  189.8500  176.1970  140.0450 O   0  0  0  0  0  0  0  0  0  0  0  0
  188.4890  178.0400  140.5250 N   0  0  0  0  0  0  0  0  0  0  0  0
  187.5690  176.2710  143.2720 Cl  0  0  0  0  0  0  0  0  0  0  0  0
  191.4020  177.3430  142.4260 C   0  0  0  0  0  3  0  0  0  0  0  0
  191.9680  177.3710  143.7010 C   0  0  0  0  0  3  0  0  0  0  0  0
  189.2610  176.7300  143.3880 C   0  0  0  0  0  0  0  0  0  0  0  0
  189.8380  176.7540  144.6590 C   0  0  0  0  0  3  0  0  0  0  0  0
  191.1900  177.0670  144.8260 C   0  0  0  0  0  0  0  0  0  0  0  0
  190.0480  177.0230  142.2510 C   0  0  0  0  0  0  0  0  0  0  0  0
  191.7500  177.1330  146.2150 C   0  0  0  0  0  3  0  0  0  0  0  0
  191.8260  175.7710  146.8850 C   0  0  0  0  0  2  0  0  0  0  0  0
  190.6790  176.7020  147.2080 C   0  0  0  0  0  2  0  0  0  0  0  0
  185.8290  171.5610  135.2710 C   0  0  0  0  0  3  0  0  0  0  0  0
  187.1360  174.0010  135.9980 C   0  0  2  0  0  3  0  0  0  0  0  0
  187.6760  172.6740  136.5430 C   0  0  0  0  0  2  0  0  0  0  0  0
  185.5020  172.8280  134.5230 C   0  0  0  0  0  2  0  0  0  0  0  0
  186.7790  171.5050  136.2170 C   0  0  0  0  0  3  0  0  0  0  0  0
  186.6560  173.8270  134.5550 C   0  0  0  0  0  2  0  0  0  0  0  0
  189.3430  174.6560  136.8210 O   0  0  0  0  0  0  0  0  0  0  0  0
  190.5590  174.4700  136.1620 C   0  0  0  0  0  0  0  0  0  0  0  0
  191.7830  174.3870  136.9010 N   0  0  0  0  0  2  0  0  0  0  0  0
  190.5660  174.3840  134.9010 O   0  0  0  0  0  0  0  0  0  0  0  0
  195.3400  171.3490  136.6530 C   0  0  1  0  0  3  0  0  0  0  0  0
  193.0270  173.9670  136.2820 C   0  0  1  0  0  3  0  0  0  0  0  0
  193.9230  170.9220  134.7370 O   0  0  0  0  0  1  0  0  0  0  0  0
  194.6530  174.1480  138.2520 C   0  0  0  0  0  3  0  0  0  0  0  0
  194.1960  174.7150  136.9310 C   0  0  1  0  0  3  0  0  0  0  0  0
  194.3530  171.9180  135.6230 C   0  0  1  0  0  3  0  0  0  0  0  0
  196.2450  170.2750  136.0460 C   0  0  0  0  0  1  0  0  0  0  0  0
  193.1340  172.4480  136.3560 C   0  0  0  0  0  2  0  0  0  0  0  0
  195.5090  173.1290  138.4060 C   0  0  0  0  0  3  0  0  0  0  0  0
  196.1030  172.4230  137.3080 N   0  0  0  0  0  0  0  0  0  0  0  0
  195.2530  174.8770  136.0340 O   0  0  0  0  0  0  0  0  0  0  0  0
  195.1560  176.2010  135.5940 C   0  0  0  0  0  1  0  0  0  0  0  0
  197.5600  172.4770  137.2070 C   0  0  0  0  0  2  0  0  0  0  0  0
  197.9760  173.4310  136.1050 C   0  0  0  0  0  2  0  0  0  0  0  0
  198.9930  174.4180  136.6360 C   0  0  0  0  0  2  0  0  0  0  0  0
  200.0610  174.4520  138.5640 C   0  0  0  0  0  1  0  0  0  0  0  0
  198.7950  174.6030  138.0030 O   0  0  0  0  0  0  0  0  0  0  0  0
  1  5  1  1  0  0  0
  1 35  1  0  0  0  0
  2  6  1  0  0  0  0
  3  4  2  0  0  0  0
  5  6  1  0  0  0  0
  5  7  2  0  0  0  0
  6  4  1  0  0  0  0
  8  4  1  6  0  0  0
  8 14  1  0  0  0  0
  8 18  1  0  0  0  0
  9 10  2  0  0  0  0
  9 14  1  0  0  0  0
 10 13  1  0  0  0  0
 11 12  1  0  0  0  0
 13 12  2  0  0  0  0
 14 11  2  0  0  0  0
 16 25  1  0  0  0  0
 17 16  2  0  0  0  0
 18 16  1  0  0  0  0
 18 15  1  0  0  0  0
 19 22  1  0  0  0  0
 20 21  1  0  0  0  0
 21 24  2  0  0  0  0
 22 23  2  0  0  0  0
 23 24  1  0  0  0  0
 24 26  1  0  0  0  0
 25 20  2  0  0  0  0
 25 22  1  0  0  0  0
 26 27  1  0  0  0  0
 26 28  1  0  0  0  0
 27 28  1  0  0  0  0
 29 33  2  0  0  0  0
 30  1  1  6  0  0  0
 30 31  1  0  0  0  0
 32 34  1  0  0  0  0
 32 29  1  0  0  0  0
 33 31  1  0  0  0  0
 34 30  1  0  0  0  0
 36 35  1  0  0  0  0
 36 37  1  0  0  0  0
 38 36  2  0  0  0  0
 39 45  1  6  0  0  0
 39 48  1  0  0  0  0
 40 46  1  0  0  0  0
 40 37  1  1  0  0  0
 40 43  1  0  0  0  0
 42 47  2  0  0  0  0
 43 49  1  6  0  0  0
 43 42  1  0  0  0  0
 44 41  1  6  0  0  0
 44 46  1  0  0  0  0
 44 39  1  0  0  0  0
 48 47  1  0  0  0  0
 50 49  1  0  0  0  0
 51 48  1  0  0  0  0
 52 53  1  0  0  0  0
 52 51  1  0  0  0  0
 53 55  1  0  0  0  0
 55 54  1  0  0  0  0
M  END
>  <MODEL>
1

>  <REMARK>
 VINA RESULT:      -6.9      0.000      0.000
  Name = 
  15 active torsions:
  status: ('A' for Active; 'I' for Inactive)
    1  A    between atoms: C_3  and  O_25
    2  A    between atoms: C_3  and  C_38
    3  A    between atoms: C_6  and  N_22
    4  A    between atoms: C_8  and  O_54
    5  A    between atoms: C_10  and  C_48
    6  A    between atoms: C_14  and  O_20
    7  A    between atoms: C_19  and  C_45
    8  A    between atoms: C_26  and  C_45
    9  A    between atoms: C_27  and  C_51
   10  A    between atoms: C_29  and  C_38
   11  A    between atoms: C_29  and  N_53
   12  A    between atoms: C_33  and  C_52
   13  A    between atoms: C_35  and  C_51
   14  A    between atoms: C_45  and  N_49
   15  A    between atoms: C_51  and  O_54
                            x       y       z     vdW  Elec       q    Type
                         _______ _______ _______ _____ _____    ______ ____

>  <TORSDO>
F 15

$$$$
=
 OpenBabel10272401323D

 55 59  0  0  1  0  0  0  0  0999 V2000
  181.6610  178.4810  138.4300 C   0  0  2  0  0  3  0  0  0  0  0  0
  180.0380  176.2830  139.8410 C   0  0  0  0  0  1  0  0  0  0  0  0
  180.3450  173.7770  138.6820 O   0  0  0  0  0  0  0  0  0  0  0  0
  180.9470  174.7340  138.1190 C   0  0  0  0  0  0  0  0  0  0  0  0
  181.1440  177.2180  137.7930 C   0  0  0  0  0  0  0  0  0  0  0  0
  180.7260  176.0800  138.5710 N   0  0  0  0  0  0  0  0  0  0  0  0
  181.1000  177.1650  136.5340 O   0  0  0  0  0  0  0  0  0  0  0  0
  181.9500  174.4460  137.0310 C   0  0  2  0  0  3  0  0  0  0  0  0
  180.9210  172.5320  135.7130 C   0  0  0  0  0  3  0  0  0  0  0  0
  180.9530  171.2070  135.2670 C   0  0  0  0  0  3  0  0  0  0  0  0
  183.0340  172.2060  136.8420 C   0  0  0  0  0  3  0  0  0  0  0  0
  183.0680  170.8810  136.3950 C   0  0  0  0  0  3  0  0  0  0  0  0
  182.0280  170.3800  135.6080 C   0  0  0  0  0  3  0  0  0  0  0  0
  181.9650  173.0400  136.5010 C   0  0  0  0  0  0  0  0  0  0  0  0
  183.6470  175.0240  138.6400 O   0  0  0  0  0  1  0  0  0  0  0  0
  184.1850  175.4590  136.3260 C   0  0  0  0  0  0  0  0  0  0  0  0
  183.7550  175.7280  135.1730 O   0  0  0  0  0  0  0  0  0  0  0  0
  183.2820  174.9670  137.3360 N   0  0  0  0  0  0  0  0  0  0  0  0
  186.1170  173.0510  135.6740 Cl  0  0  0  0  0  0  0  0  0  0  0  0
  186.0680  176.8360  137.1660 C   0  0  0  0  0  3  0  0  0  0  0  0
  187.4110  177.0180  137.5000 C   0  0  0  0  0  3  0  0  0  0  0  0
  186.5600  174.5860  136.4030 C   0  0  0  0  0  0  0  0  0  0  0  0
  187.9030  174.7810  136.7340 C   0  0  0  0  0  3  0  0  0  0  0  0
  188.3390  175.9920  137.2760 C   0  0  0  0  0  0  0  0  0  0  0  0
  185.6250  175.6250  136.6150 C   0  0  0  0  0  0  0  0  0  0  0  0
  189.7800  176.1330  137.6660 C   0  0  0  0  0  3  0  0  0  0  0  0
  190.7150  176.1490  136.4680 C   0  0  0  0  0  2  0  0  0  0  0  0
  190.5340  174.8740  137.2600 C   0  0  0  0  0  2  0  0  0  0  0  0
  179.9830  182.3490  137.3480 C   0  0  0  0  0  3  0  0  0  0  0  0
  180.8090  179.7230  138.1290 C   0  0  2  0  0  3  0  0  0  0  0  0
  180.9620  180.1480  136.6630 C   0  0  0  0  0  2  0  0  0  0  0  0
  180.1150  182.0190  138.8120 C   0  0  0  0  0  2  0  0  0  0  0  0
  180.3210  181.4840  136.3780 C   0  0  0  0  0  3  0  0  0  0  0  0
  181.1220  180.8970  139.0590 C   0  0  0  0  0  2  0  0  0  0  0  0
  183.0310  178.7010  138.1090 O   0  0  0  0  0  0  0  0  0  0  0  0
  183.9260  179.2760  139.0110 C   0  0  0  0  0  0  0  0  0  0  0  0
  184.2050  178.6430  140.2650 N   0  0  0  0  0  2  0  0  0  0  0  0
  184.4820  180.3700  138.7090 O   0  0  0  0  0  0  0  0  0  0  0  0
  188.1610  177.6720  142.5770 C   0  0  1  0  0  3  0  0  0  0  0  0
  185.2910  179.0810  141.1220 C   0  0  1  0  0  3  0  0  0  0  0  0
  188.7880  178.9900  140.6460 O   0  0  0  0  0  1  0  0  0  0  0  0
  184.9230  177.6120  143.1880 C   0  0  0  0  0  3  0  0  0  0  0  0
  184.8500  178.9940  142.5870 C   0  0  1  0  0  3  0  0  0  0  0  0
  187.7580  178.7560  141.5660 C   0  0  1  0  0  3  0  0  0  0  0  0
  189.6480  177.7460  142.9340 C   0  0  0  0  0  1  0  0  0  0  0  0
  186.5430  178.2740  140.7940 C   0  0  0  0  0  2  0  0  0  0  0  0
  186.0190  177.0520  143.7160 C   0  0  0  0  0  3  0  0  0  0  0  0
  187.2950  177.7050  143.7660 N   0  0  0  0  0  0  0  0  0  0  0  0
  185.5080  179.9440  143.3700 O   0  0  0  0  0  0  0  0  0  0  0  0
  184.6460  180.1890  144.4450 C   0  0  0  0  0  1  0  0  0  0  0  0
  187.8540  177.9490  145.0940 C   0  0  0  0  0  2  0  0  0  0  0  0
  186.7830  177.7780  146.1540 C   0  0  0  0  0  2  0  0  0  0  0  0
  187.4010  177.8900  147.5310 C   0  0  0  0  0  2  0  0  0  0  0  0
  189.4340  178.2280  148.3140 C   0  0  0  0  0  1  0  0  0  0  0  0
  188.6930  177.3660  147.5090 O   0  0  0  0  0  0  0  0  0  0  0  0
  1  5  1  6  0  0  0
  4  6  1  0  0  0  0
  4  3  2  0  0  0  0
  5  6  1  0  0  0  0
  6  2  1  0  0  0  0
  7  5  2  0  0  0  0
  8 18  1  0  0  0  0
  8  4  1  1  0  0  0
  9 14  1  0  0  0  0
 10 13  1  0  0  0  0
 10  9  2  0  0  0  0
 12 11  1  0  0  0  0
 13 12  2  0  0  0  0
 14 11  2  0  0  0  0
 14  8  1  0  0  0  0
 16 25  1  0  0  0  0
 16 18  1  0  0  0  0
 17 16  2  0  0  0  0
 18 15  1  0  0  0  0
 19 22  1  0  0  0  0
 20 21  1  0  0  0  0
 22 25  1  0  0  0  0
 22 23  2  0  0  0  0
 23 24  1  0  0  0  0
 24 21  2  0  0  0  0
 24 26  1  0  0  0  0
 25 20  2  0  0  0  0
 27 28  1  0  0  0  0
 27 26  1  0  0  0  0
 28 26  1  0  0  0  0
 29 32  1  0  0  0  0
 30  1  1  1  0  0  0
 30 34  1  0  0  0  0
 31 30  1  0  0  0  0
 32 34  1  0  0  0  0
 33 31  1  0  0  0  0
 33 29  2  0  0  0  0
 35  1  1  0  0  0  0
 35 36  1  0  0  0  0
 36 37  1  0  0  0  0
 38 36  2  0  0  0  0
 39 45  1  1  0  0  0
 39 48  1  0  0  0  0
 40 37  1  6  0  0  0
 40 43  1  0  0  0  0
 42 47  2  0  0  0  0
 43 42  1  0  0  0  0
 43 49  1  1  0  0  0
 44 41  1  6  0  0  0
 44 39  1  0  0  0  0
 46 40  1  0  0  0  0
 46 44  1  0  0  0  0
 47 48  1  0  0  0  0
 48 51  1  0  0  0  0
 49 50  1  0  0  0  0
 51 52  1  0  0  0  0
 52 53  1  0  0  0  0
 55 53  1  0  0  0  0
 55 54  1  0  0  0  0
M  END
>  <MODEL>
2

>  <REMARK>
 VINA RESULT:      -6.5      5.025     10.194
  Name = 
  15 active torsions:
  status: ('A' for Active; 'I' for Inactive)
    1  A    between atoms: C_3  and  O_25
    2  A    between atoms: C_3  and  C_38
    3  A    between atoms: C_6  and  N_22
    4  A    between atoms: C_8  and  O_54
    5  A    between atoms: C_10  and  C_48
    6  A    between atoms: C_14  and  O_20
    7  A    between atoms: C_19  and  C_45
    8  A    between atoms: C_26  and  C_45
    9  A    between atoms: C_27  and  C_51
   10  A    between atoms: C_29  and  C_38
   11  A    between atoms: C_29  and  N_53
   12  A    between atoms: C_33  and  C_52
   13  A    between atoms: C_35  and  C_51
   14  A    between atoms: C_45  and  N_49
   15  A    between atoms: C_51  and  O_54
                            x       y       z     vdW  Elec       q    Type
                         _______ _______ _______ _____ _____    ______ ____

>  <TORSDO>
F 15

$$$$
=
 OpenBabel10272401323D

 55 59  0  0  1  0  0  0  0  0999 V2000
  189.2760  177.4810  140.2590 C   0  0  2  0  0  3  0  0  0  0  0  0
  190.3430  175.5850  142.4330 C   0  0  0  0  0  1  0  0  0  0  0  0
  189.3340  176.1370  144.9610 O   0  0  0  0  0  0  0  0  0  0  0  0
  188.9730  176.9120  144.0320 C   0  0  0  0  0  0  0  0  0  0  0  0
  189.4130  177.8040  141.7240 C   0  0  0  0  0  0  0  0  0  0  0  0
  189.5600  176.7800  142.7270 N   0  0  0  0  0  0  0  0  0  0  0  0
  189.3750  179.0160  142.0680 O   0  0  0  0  0  0  0  0  0  0  0  0
  187.8750  177.9130  144.2810 C   0  0  2  0  0  3  0  0  0  0  0  0
  186.2900  178.6780  146.1140 C   0  0  0  0  0  3  0  0  0  0  0  0
  186.0320  178.9570  147.4600 C   0  0  0  0  0  3  0  0  0  0  0  0
  188.5380  177.9950  146.6850 C   0  0  0  0  0  3  0  0  0  0  0  0
  188.2800  178.2730  148.0310 C   0  0  0  0  0  3  0  0  0  0  0  0
  187.0280  178.7550  148.4200 C   0  0  0  0  0  3  0  0  0  0  0  0
  187.5450  178.1900  145.7200 C   0  0  0  0  0  0  0  0  0  0  0  0
  186.1980  176.4180  143.4110 O   0  0  0  0  0  1  0  0  0  0  0  0
  186.0820  178.7060  142.6450 C   0  0  0  0  0  0  0  0  0  0  0  0
  186.7050  179.7720  142.4010 O   0  0  0  0  0  0  0  0  0  0  0  0
  186.6950  177.6790  143.4490 N   0  0  0  0  0  0  0  0  0  0  0  0
  183.6720  179.4150  144.5540 Cl  0  0  0  0  0  0  0  0  0  0  0  0
  184.5370  178.0730  140.8120 C   0  0  0  0  0  3  0  0  0  0  0  0
  183.2590  177.8540  140.2950 C   0  0  0  0  0  3  0  0  0  0  0  0
  183.5660  178.7840  142.9180 C   0  0  0  0  0  0  0  0  0  0  0  0
  182.2910  178.5690  142.3900 C   0  0  0  0  0  3  0  0  0  0  0  0
  182.1270  178.1110  141.0800 C   0  0  0  0  0  0  0  0  0  0  0  0
  184.7080  178.5390  142.1230 C   0  0  0  0  0  0  0  0  0  0  0  0
  180.7390  177.8420  140.5770 C   0  0  0  0  0  3  0  0  0  0  0  0
  180.7060  177.5040  139.0960 C   0  0  0  0  0  2  0  0  0  0  0  0
  180.3640  178.9040  139.5530 C   0  0  0  0  0  2  0  0  0  0  0  0
  193.1590  176.5230  138.5410 C   0  0  0  0  0  3  0  0  0  0  0  0
  190.6150  177.4040  139.5120 C   0  0  2  0  0  3  0  0  0  0  0  0
  190.6860  176.1400  138.6470 C   0  0  0  0  0  2  0  0  0  0  0  0
  193.1010  177.5750  139.6190 C   0  0  0  0  0  2  0  0  0  0  0  0
  192.0610  175.9100  138.0700 C   0  0  0  0  0  3  0  0  0  0  0  0
  191.8230  177.4770  140.4490 C   0  0  0  0  0  2  0  0  0  0  0  0
  188.3710  178.3700  139.6130 O   0  0  0  0  0  0  0  0  0  0  0  0
  187.7420  178.0510  138.4100 C   0  0  0  0  0  0  0  0  0  0  0  0
  187.3410  176.7050  138.1310 N   0  0  0  0  0  2  0  0  0  0  0  0
  187.5370  178.9680  137.5630 O   0  0  0  0  0  0  0  0  0  0  0  0
  183.2780  175.0350  136.5060 C   0  0  1  0  0  3  0  0  0  0  0  0
  186.4860  176.3750  137.0050 C   0  0  1  0  0  3  0  0  0  0  0  0
  183.2150  177.4350  136.2040 O   0  0  0  0  0  1  0  0  0  0  0  0
  186.2510  173.8400  137.2800 C   0  0  0  0  0  3  0  0  0  0  0  0
  186.8430  174.9780  136.4870 C   0  0  1  0  0  3  0  0  0  0  0  0
  184.0700  176.3270  136.2630 C   0  0  1  0  0  3  0  0  0  0  0  0
  181.9220  175.0510  135.7970 C   0  0  0  0  0  1  0  0  0  0  0  0
  185.0280  176.5380  137.4220 C   0  0  0  0  0  2  0  0  0  0  0  0
  185.0180  173.3420  137.1210 C   0  0  0  0  0  3  0  0  0  0  0  0
  184.0770  173.8470  136.1640 N   0  0  0  0  0  0  0  0  0  0  0  0
  186.5780  174.8630  135.1220 O   0  0  0  0  0  0  0  0  0  0  0  0
  187.3870  175.8280  134.5120 C   0  0  0  0  0  1  0  0  0  0  0  0
  183.6330  172.9170  135.1280 C   0  0  0  0  0  2  0  0  0  0  0  0
  183.8170  171.4860  135.5940 C   0  0  0  0  0  2  0  0  0  0  0  0
  182.5230  170.9670  136.1830 C   0  0  0  0  0  2  0  0  0  0  0  0
  180.4240  171.5950  136.4250 C   0  0  0  0  0  1  0  0  0  0  0  0
  181.4430  171.4980  135.4800 O   0  0  0  0  0  0  0  0  0  0  0  0
  1 35  1  6  0  0  0
  1  5  1  0  0  0  0
  2  6  1  0  0  0  0
  4  3  2  0  0  0  0
  5  7  2  0  0  0  0
  5  6  1  0  0  0  0
  6  4  1  0  0  0  0
  8  4  1  1  0  0  0
  8 14  1  0  0  0  0
  9 10  1  0  0  0  0
 10 13  2  0  0  0  0
 11 12  2  0  0  0  0
 12 13  1  0  0  0  0
 14  9  2  0  0  0  0
 14 11  1  0  0  0  0
 15 18  1  0  0  0  0
 16 18  1  0  0  0  0
 17 16  2  0  0  0  0
 18  8  1  0  0  0  0
 20 25  1  0  0  0  0
 21 20  2  0  0  0  0
 21 24  1  0  0  0  0
 22 19  1  0  0  0  0
 23 22  1  0  0  0  0
 24 23  2  0  0  0  0
 25 16  1  0  0  0  0
 25 22  2  0  0  0  0
 26 24  1  0  0  0  0
 27 28  1  0  0  0  0
 27 26  1  0  0  0  0
 28 26  1  0  0  0  0
 29 32  1  0  0  0  0
 30  1  1  1  0  0  0
 30 34  1  0  0  0  0
 31 30  1  0  0  0  0
 32 34  1  0  0  0  0
 33 29  2  0  0  0  0
 33 31  1  0  0  0  0
 36 35  1  0  0  0  0
 37 36  1  0  0  0  0
 38 36  2  0  0  0  0
 39 45  1  6  0  0  0
 40 46  1  0  0  0  0
 40 37  1  1  0  0  0
 43 49  1  6  0  0  0
 43 40  1  0  0  0  0
 43 42  1  0  0  0  0
 44 41  1  1  0  0  0
 44 39  1  0  0  0  0
 44 46  1  0  0  0  0
 47 42  2  0  0  0  0
 48 39  1  0  0  0  0
 48 47  1  0  0  0  0
 50 49  1  0  0  0  0
 51 52  1  0  0  0  0
 51 48  1  0  0  0  0
 52 53  1  0  0  0  0
 55 53  1  0  0  0  0
 55 54  1  0  0  0  0
M  END
>  <MODEL>
3

>  <REMARK>
 VINA RESULT:      -6.5      4.134      9.406
  Name = 
  15 active torsions:
  status: ('A' for Active; 'I' for Inactive)
    1  A    between atoms: C_3  and  O_25
    2  A    between atoms: C_3  and  C_38
    3  A    between atoms: C_6  and  N_22
    4  A    between atoms: C_8  and  O_54
    5  A    between atoms: C_10  and  C_48
    6  A    between atoms: C_14  and  O_20
    7  A    between atoms: C_19  and  C_45
    8  A    between atoms: C_26  and  C_45
    9  A    between atoms: C_27  and  C_51
   10  A    between atoms: C_29  and  C_38
   11  A    between atoms: C_29  and  N_53
   12  A    between atoms: C_33  and  C_52
   13  A    between atoms: C_35  and  C_51
   14  A    between atoms: C_45  and  N_49
   15  A    between atoms: C_51  and  O_54
                            x       y       z     vdW  Elec       q    Type
                         _______ _______ _______ _____ _____    ______ ____

>  <TORSDO>
F 15

$$$$
=
 OpenBabel10272401323D

 55 59  0  0  1  0  0  0  0  0999 V2000
  186.2200  174.8990  135.6640 C   0  0  2  0  0  3  0  0  0  0  0  0
  188.1260  172.5340  135.1780 C   0  0  0  0  0  1  0  0  0  0  0  0
  190.8070  173.2170  135.4340 O   0  0  0  0  0  0  0  0  0  0  0  0
  189.9730  174.1550  135.5720 C   0  0  0  0  0  0  0  0  0  0  0  0
  187.6390  174.9950  135.1690 C   0  0  0  0  0  0  0  0  0  0  0  0
  188.5800  173.9140  135.3160 N   0  0  0  0  0  0  0  0  0  0  0  0
  188.0060  176.0730  134.6280 O   0  0  0  0  0  0  0  0  0  0  0  0
  190.4380  175.4960  136.0810 C   0  0  2  0  0  3  0  0  0  0  0  0
  192.3850  176.0370  134.5400 C   0  0  0  0  0  3  0  0  0  0  0  0
  193.7420  176.3150  134.3460 C   0  0  0  0  0  3  0  0  0  0  0  0
  192.7510  175.9020  136.9260 C   0  0  0  0  0  3  0  0  0  0  0  0
  194.1080  176.1810  136.7330 C   0  0  0  0  0  3  0  0  0  0  0  0
  194.6050  176.3870  135.4440 C   0  0  0  0  0  3  0  0  0  0  0  0
  191.8810  175.8330  135.8330 C   0  0  0  0  0  0  0  0  0  0  0  0
  189.7880  174.6940  138.2580 O   0  0  0  0  0  1  0  0  0  0  0  0
  189.7580  177.0910  137.9550 C   0  0  0  0  0  0  0  0  0  0  0  0
  189.6260  178.0530  137.1540 O   0  0  0  0  0  0  0  0  0  0  0  0
  190.0050  175.7630  137.4520 N   0  0  0  0  0  0  0  0  0  0  0  0
  187.0450  178.1830  139.1380 Cl  0  0  0  0  0  0  0  0  0  0  0  0
  190.8210  177.0990  140.1950 C   0  0  0  0  0  3  0  0  0  0  0  0
  190.8140  177.3740  141.5640 C   0  0  0  0  0  3  0  0  0  0  0  0
  188.5320  177.8830  140.0230 C   0  0  0  0  0  0  0  0  0  0  0  0
  188.5320  178.1470  141.3950 C   0  0  0  0  0  3  0  0  0  0  0  0
  189.6630  177.8910  142.1730 C   0  0  0  0  0  0  0  0  0  0  0  0
  189.6870  177.3480  139.4090 C   0  0  0  0  0  0  0  0  0  0  0  0
  189.6320  178.2440  143.6310 C   0  0  0  0  0  3  0  0  0  0  0  0
  190.3990  177.2540  144.4920 C   0  0  0  0  0  2  0  0  0  0  0  0
  188.8940  177.1530  144.3940 C   0  0  0  0  0  2  0  0  0  0  0  0
  183.7860  171.2970  135.4470 C   0  0  0  0  0  3  0  0  0  0  0  0
  185.6240  173.4870  135.5680 C   0  0  2  0  0  3  0  0  0  0  0  0
  184.6740  173.3750  134.3690 C   0  0  0  0  0  2  0  0  0  0  0  0
  184.5100  171.5860  136.7370 C   0  0  0  0  0  2  0  0  0  0  0  0
  183.8990  172.0810  134.3630 C   0  0  0  0  0  3  0  0  0  0  0  0
  184.9120  173.0550  136.8520 C   0  0  0  0  0  2  0  0  0  0  0  0
  185.3830  175.8600  135.0300 O   0  0  0  0  0  0  0  0  0  0  0  0
  184.4160  176.5840  135.7290 C   0  0  0  0  0  0  0  0  0  0  0  0
  183.0270  176.2580  135.6010 N   0  0  0  0  0  2  0  0  0  0  0  0
  184.7830  177.5390  136.4720 O   0  0  0  0  0  0  0  0  0  0  0  0
  181.7920  179.4880  138.7600 C   0  0  1  0  0  3  0  0  0  0  0  0
  182.0200  176.8280  136.4770 C   0  0  1  0  0  3  0  0  0  0  0  0
  180.7240  180.1050  136.6780 O   0  0  0  0  0  1  0  0  0  0  0  0
  183.0890  176.4580  138.7750 C   0  0  0  0  0  3  0  0  0  0  0  0
  182.0060  176.0600  137.8030 C   0  0  1  0  0  3  0  0  0  0  0  0
  181.1900  179.0180  137.4280 C   0  0  1  0  0  3  0  0  0  0  0  0
  181.0350  180.6850  139.3410 C   0  0  0  0  0  1  0  0  0  0  0  0
  182.2730  178.3250  136.6210 C   0  0  0  0  0  2  0  0  0  0  0  0
  183.0260  177.4890  139.6270 C   0  0  0  0  0  3  0  0  0  0  0  0
  181.9020  178.3750  139.7170 N   0  0  0  0  0  0  0  0  0  0  0  0
  180.7390  176.0840  138.3870 O   0  0  0  0  0  0  0  0  0  0  0  0
  180.5470  174.7930  138.8920 C   0  0  0  0  0  1  0  0  0  0  0  0
  181.2000  178.4140  140.9980 C   0  0  0  0  0  2  0  0  0  0  0  0
  182.1670  178.7450  142.1170 C   0  0  0  0  0  2  0  0  0  0  0  0
  181.4220  178.8350  143.4310 C   0  0  0  0  0  2  0  0  0  0  0  0
  183.5790  178.7670  143.8780 C   0  0  0  0  0  1  0  0  0  0  0  0
  182.3270  178.7690  144.4890 O   0  0  0  0  0  0  0  0  0  0  0  0
  1 35  1  6  0  0  0
  2  6  1  0  0  0  0
  3  4  2  0  0  0  0
  5  6  1  0  0  0  0
  5  1  1  0  0  0  0
  6  4  1  0  0  0  0
  7  5  2  0  0  0  0
  8  4  1  1  0  0  0
  8 18  1  0  0  0  0
  9 14  1  0  0  0  0
 10  9  2  0  0  0  0
 10 13  1  0  0  0  0
 12 11  1  0  0  0  0
 13 12  2  0  0  0  0
 14  8  1  0  0  0  0
 14 11  2  0  0  0  0
 16 25  1  0  0  0  0
 17 16  2  0  0  0  0
 18 16  1  0  0  0  0
 18 15  1  0  0  0  0
 19 22  1  0  0  0  0
 20 21  1  0  0  0  0
 21 24  2  0  0  0  0
 22 23  2  0  0  0  0
 23 24  1  0  0  0  0
 24 26  1  0  0  0  0
 25 22  1  0  0  0  0
 25 20  2  0  0  0  0
 26 28  1  0  0  0  0
 26 27  1  0  0  0  0
 28 27  1  0  0  0  0
 29 32  1  0  0  0  0
 30  1  1  1  0  0  0
 30 34  1  0  0  0  0
 31 30  1  0  0  0  0
 32 34  1  0  0  0  0
 33 31  1  0  0  0  0
 33 29  2  0  0  0  0
 35 36  1  0  0  0  0
 36 38  2  0  0  0  0
 37 36  1  0  0  0  0
 39 45  1  1  0  0  0
 39 48  1  0  0  0  0
 40 37  1  6  0  0  0
 40 46  1  0  0  0  0
 40 43  1  0  0  0  0
 42 47  2  0  0  0  0
 43 49  1  1  0  0  0
 43 42  1  0  0  0  0
 44 41  1  6  0  0  0
 44 39  1  0  0  0  0
 46 44  1  0  0  0  0
 47 48  1  0  0  0  0
 48 51  1  0  0  0  0
 49 50  1  0  0  0  0
 51 52  1  0  0  0  0
 52 53  1  0  0  0  0
 53 55  1  0  0  0  0
 54 55  1  0  0  0  0
M  END
>  <MODEL>
4

>  <REMARK>
 VINA RESULT:      -6.1      3.262      9.873
  Name = 
  15 active torsions:
  status: ('A' for Active; 'I' for Inactive)
    1  A    between atoms: C_3  and  O_25
    2  A    between atoms: C_3  and  C_38
    3  A    between atoms: C_6  and  N_22
    4  A    between atoms: C_8  and  O_54
    5  A    between atoms: C_10  and  C_48
    6  A    between atoms: C_14  and  O_20
    7  A    between atoms: C_19  and  C_45
    8  A    between atoms: C_26  and  C_45
    9  A    between atoms: C_27  and  C_51
   10  A    between atoms: C_29  and  C_38
   11  A    between atoms: C_29  and  N_53
   12  A    between atoms: C_33  and  C_52
   13  A    between atoms: C_35  and  C_51
   14  A    between atoms: C_45  and  N_49
   15  A    between atoms: C_51  and  O_54
                            x       y       z     vdW  Elec       q    Type
                         _______ _______ _______ _____ _____    ______ ____

>  <TORSDO>
F 15

$$$$
=
 OpenBabel10272401323D

 55 59  0  0  1  0  0  0  0  0999 V2000
  190.8580  173.8820  136.8380 C   0  0  2  0  0  3  0  0  0  0  0  0
  192.9930  175.7030  138.0980 C   0  0  0  0  0  1  0  0  0  0  0  0
  191.9190  177.7190  139.6780 O   0  0  0  0  0  0  0  0  0  0  0  0
  191.0930  176.9670  139.0910 C   0  0  0  0  0  0  0  0  0  0  0  0
  190.6660  175.3200  137.2410 C   0  0  0  0  0  0  0  0  0  0  0  0
  191.5630  175.9920  138.1470 N   0  0  0  0  0  0  0  0  0  0  0  0
  189.6700  175.9370  136.7760 O   0  0  0  0  0  0  0  0  0  0  0  0
  189.6300  177.0460  139.4470 C   0  0  2  0  0  3  0  0  0  0  0  0
  189.1320  178.8190  137.6960 C   0  0  0  0  0  3  0  0  0  0  0  0
  188.2570  179.4110  136.7790 C   0  0  0  0  0  3  0  0  0  0  0  0
  187.4530  177.1650  138.2340 C   0  0  0  0  0  3  0  0  0  0  0  0
  186.5780  177.7550  137.3160 C   0  0  0  0  0  3  0  0  0  0  0  0
  186.9780  178.8780  136.5890 C   0  0  0  0  0  3  0  0  0  0  0  0
  188.7350  177.6880  138.4260 C   0  0  0  0  0  0  0  0  0  0  0  0
  188.8820  178.7750  140.9480 O   0  0  0  0  0  1  0  0  0  0  0  0
  189.7500  176.7720  141.9830 C   0  0  0  0  0  0  0  0  0  0  0  0
  190.5260  175.7850  141.8890 O   0  0  0  0  0  0  0  0  0  0  0  0
  189.4030  177.5310  140.8080 N   0  0  0  0  0  0  0  0  0  0  0  0
  191.5640  178.3770  144.0050 Cl  0  0  0  0  0  0  0  0  0  0  0  0
  187.8700  176.7200  143.5990 C   0  0  0  0  0  3  0  0  0  0  0  0
  187.3110  176.9830  144.8500 C   0  0  0  0  0  3  0  0  0  0  0  0
  189.9330  177.7930  144.2920 C   0  0  0  0  0  0  0  0  0  0  0  0
  189.3610  178.0580  145.5390 C   0  0  0  0  0  3  0  0  0  0  0  0
  188.0520  177.6640  145.8250 C   0  0  0  0  0  0  0  0  0  0  0  0
  189.1810  177.1190  143.3030 C   0  0  0  0  0  0  0  0  0  0  0  0
  187.5030  177.9230  147.1960 C   0  0  0  0  0  3  0  0  0  0  0  0
  188.5700  178.3680  148.1830 C   0  0  0  0  0  2  0  0  0  0  0  0
  188.1110  176.9270  148.1750 C   0  0  0  0  0  2  0  0  0  0  0  0
  194.4870  172.2660  135.0570 C   0  0  0  0  0  3  0  0  0  0  0  0
  192.2130  173.5980  136.1730 C   0  0  2  0  0  3  0  0  0  0  0  0
  192.0340  172.7490  134.9090 C   0  0  0  0  0  2  0  0  0  0  0  0
  194.5780  172.8540  136.4420 C   0  0  0  0  0  2  0  0  0  0  0  0
  193.3470  172.2620  134.3470 C   0  0  0  0  0  3  0  0  0  0  0  0
  193.2130  172.9350  137.1230 C   0  0  0  0  0  2  0  0  0  0  0  0
  189.7780  173.4190  136.0340 O   0  0  0  0  0  0  0  0  0  0  0  0
  188.5560  173.0240  136.5800 C   0  0  0  0  0  0  0  0  0  0  0  0
  187.3310  173.2750  135.8830 N   0  0  0  0  0  2  0  0  0  0  0  0
  188.5460  172.4490  137.7060 O   0  0  0  0  0  0  0  0  0  0  0  0
  183.1790  171.4200  134.7630 C   0  0  1  0  0  3  0  0  0  0  0  0
  186.0740  172.6830  136.3000 C   0  0  1  0  0  3  0  0  0  0  0  0
  184.5940  169.5870  135.4680 O   0  0  0  0  0  1  0  0  0  0  0  0
  184.3930  174.4090  135.4340 C   0  0  0  0  0  3  0  0  0  0  0  0
  185.0720  173.7930  136.6320 C   0  0  1  0  0  3  0  0  0  0  0  0
  184.3490  170.9550  135.6420 C   0  0  1  0  0  3  0  0  0  0  0  0
  182.0910  170.3500  134.6450 C   0  0  0  0  0  1  0  0  0  0  0  0
  185.6000  171.7090  135.2260 C   0  0  0  0  0  2  0  0  0  0  0  0
  183.3080  173.9200  134.8200 C   0  0  0  0  0  3  0  0  0  0  0  0
  182.6470  172.7120  135.2240 N   0  0  0  0  0  0  0  0  0  0  0  0
  184.1570  173.3760  137.6000 O   0  0  0  0  0  0  0  0  0  0  0  0
  183.5910  174.5550  138.0970 C   0  0  0  0  0  1  0  0  0  0  0  0
  181.2580  172.8410  135.6590 C   0  0  0  0  0  2  0  0  0  0  0  0
  180.7060  174.1950  135.2620 C   0  0  0  0  0  2  0  0  0  0  0  0
  180.1820  174.9150  136.4860 C   0  0  0  0  0  2  0  0  0  0  0  0
  181.1960  176.8720  136.5380 C   0  0  0  0  0  1  0  0  0  0  0  0
  179.9920  176.2640  136.1900 O   0  0  0  0  0  0  0  0  0  0  0  0
  1 35  1  6  0  0  0
  1  5  1  0  0  0  0
  2  6  1  0  0  0  0
  4  3  2  0  0  0  0
  5  6  1  0  0  0  0
  6  4  1  0  0  0  0
  7  5  2  0  0  0  0
  8  4  1  6  0  0  0
  8 18  1  0  0  0  0
  9 14  1  0  0  0  0
 10  9  2  0  0  0  0
 11 14  2  0  0  0  0
 12 11  1  0  0  0  0
 13 10  1  0  0  0  0
 13 12  2  0  0  0  0
 14  8  1  0  0  0  0
 16 25  1  0  0  0  0
 17 16  2  0  0  0  0
 18 15  1  0  0  0  0
 18 16  1  0  0  0  0
 19 22  1  0  0  0  0
 20 21  1  0  0  0  0
 21 24  2  0  0  0  0
 22 23  2  0  0  0  0
 23 24  1  0  0  0  0
 24 26  1  0  0  0  0
 25 20  2  0  0  0  0
 25 22  1  0  0  0  0
 26 28  1  0  0  0  0
 26 27  1  0  0  0  0
 28 27  1  0  0  0  0
 29 32  1  0  0  0  0
 30  1  1  1  0  0  0
 30 34  1  0  0  0  0
 31 30  1  0  0  0  0
 32 34  1  0  0  0  0
 33 31  1  0  0  0  0
 33 29  2  0  0  0  0
 35 36  1  0  0  0  0
 36 38  2  0  0  0  0
 37 36  1  0  0  0  0
 39 45  1  1  0  0  0
 39 48  1  0  0  0  0
 39 44  1  0  0  0  0
 40 37  1  6  0  0  0
 40 43  1  0  0  0  0
 42 43  1  0  0  0  0
 43 49  1  1  0  0  0
 44 41  1  6  0  0  0
 46 44  1  0  0  0  0
 46 40  1  0  0  0  0
 47 48  1  0  0  0  0
 47 42  2  0  0  0  0
 48 51  1  0  0  0  0
 49 50  1  0  0  0  0
 52 51  1  0  0  0  0
 52 53  1  0  0  0  0
 55 53  1  0  0  0  0
 55 54  1  0  0  0  0
M  END
>  <MODEL>
5

>  <REMARK>
 VINA RESULT:      -6.1      2.957      8.308
  Name = 
  15 active torsions:
  status: ('A' for Active; 'I' for Inactive)
    1  A    between atoms: C_3  and  O_25
    2  A    between atoms: C_3  and  C_38
    3  A    between atoms: C_6  and  N_22
    4  A    between atoms: C_8  and  O_54
    5  A    between atoms: C_10  and  C_48
    6  A    between atoms: C_14  and  O_20
    7  A    between atoms: C_19  and  C_45
    8  A    between atoms: C_26  and  C_45
    9  A    between atoms: C_27  and  C_51
   10  A    between atoms: C_29  and  C_38
   11  A    between atoms: C_29  and  N_53
   12  A    between atoms: C_33  and  C_52
   13  A    between atoms: C_35  and  C_51
   14  A    between atoms: C_45  and  N_49
   15  A    between atoms: C_51  and  O_54
                            x       y       z     vdW  Elec       q    Type
                         _______ _______ _______ _____ _____    ______ ____

>  <TORSDO>
F 15

$$$$
=
 OpenBabel10272401323D

 55 59  0  0  1  0  0  0  0  0999 V2000
  190.1100  176.5810  138.8210 C   0  0  2  0  0  3  0  0  0  0  0  0
  189.0180  178.6730  136.8480 C   0  0  0  0  0  1  0  0  0  0  0  0
  186.3920  178.1910  136.0820 O   0  0  0  0  0  0  0  0  0  0  0  0
  186.9170  177.3400  136.8530 C   0  0  0  0  0  0  0  0  0  0  0  0
  189.0240  176.3530  137.8040 C   0  0  0  0  0  0  0  0  0  0  0  0
  188.3120  177.4400  137.1820 N   0  0  0  0  0  0  0  0  0  0  0  0
  188.7250  175.1640  137.5130 O   0  0  0  0  0  0  0  0  0  0  0  0
  186.0560  176.2750  137.4830 C   0  0  2  0  0  3  0  0  0  0  0  0
  185.2940  175.2150  135.3030 C   0  0  0  0  0  3  0  0  0  0  0  0
  184.9820  174.0810  134.5460 C   0  0  0  0  0  3  0  0  0  0  0  0
  185.8720  173.8050  137.1800 C   0  0  0  0  0  3  0  0  0  0  0  0
  185.5610  172.6700  136.4240 C   0  0  0  0  0  3  0  0  0  0  0  0
  185.1150  172.8070  135.1070 C   0  0  0  0  0  3  0  0  0  0  0  0
  185.7460  175.0810  136.6250 C   0  0  0  0  0  0  0  0  0  0  0  0
  183.7030  176.1780  137.9910 O   0  0  0  0  0  1  0  0  0  0  0  0
  184.9220  178.0280  138.9540 C   0  0  0  0  0  0  0  0  0  0  0  0
  185.9010  178.8140  138.8560 O   0  0  0  0  0  0  0  0  0  0  0  0
  184.8830  176.8230  138.1630 N   0  0  0  0  0  0  0  0  0  0  0  0
  182.2360  179.2190  137.8060 Cl  0  0  0  0  0  0  0  0  0  0  0  0
  184.0480  178.1010  141.2730 C   0  0  0  0  0  3  0  0  0  0  0  0
  183.0700  178.4290  142.2130 C   0  0  0  0  0  3  0  0  0  0  0  0
  182.6170  178.9240  139.4950 C   0  0  0  0  0  0  0  0  0  0  0  0
  181.6410  179.2400  140.4430 C   0  0  0  0  0  3  0  0  0  0  0  0
  181.8550  178.9920  141.8010 C   0  0  0  0  0  0  0  0  0  0  0  0
  183.8370  178.3420  139.9080 C   0  0  0  0  0  0  0  0  0  0  0  0
  180.8000  179.4010  142.7850 C   0  0  0  0  0  3  0  0  0  0  0  0
  180.9880  178.7590  144.1490 C   0  0  0  0  0  2  0  0  0  0  0  0
  179.9830  178.1790  143.1800 C   0  0  0  0  0  2  0  0  0  0  0  0
  188.8220  178.3500  142.5850 C   0  0  0  0  0  3  0  0  0  0  0  0
  189.6800  177.4630  140.0020 C   0  0  2  0  0  3  0  0  0  0  0  0
  190.6020  177.2490  141.2090 C   0  0  0  0  0  2  0  0  0  0  0  0
  187.8260  178.2830  141.4550 C   0  0  0  0  0  2  0  0  0  0  0  0
  190.0900  177.9260  142.4560 C   0  0  0  0  0  3  0  0  0  0  0  0
  188.2190  177.2470  140.4040 C   0  0  0  0  0  2  0  0  0  0  0  0
  191.2980  177.0730  138.2110 O   0  0  0  0  0  0  0  0  0  0  0  0
  192.0000  176.3460  137.2490 C   0  0  0  0  0  0  0  0  0  0  0  0
  193.1210  175.5360  137.6220 N   0  0  0  0  0  2  0  0  0  0  0  0
  191.6370  176.4190  136.0400 O   0  0  0  0  0  0  0  0  0  0  0  0
  194.3400  171.1370  136.5730 C   0  0  1  0  0  3  0  0  0  0  0  0
  193.7280  174.5930  136.7000 C   0  0  1  0  0  3  0  0  0  0  0  0
  192.4270  171.6770  135.1930 O   0  0  0  0  0  1  0  0  0  0  0  0
  195.6970  173.7300  138.0900 C   0  0  0  0  0  3  0  0  0  0  0  0
  195.2430  174.5680  136.9210 C   0  0  1  0  0  3  0  0  0  0  0  0
  193.5450  172.2240  135.8370 C   0  0  1  0  0  3  0  0  0  0  0  0
  194.3380  169.8090  135.8110 C   0  0  0  0  0  1  0  0  0  0  0  0
  193.0480  173.2370  136.8530 C   0  0  0  0  0  2  0  0  0  0  0  0
  195.9030  172.4070  138.0620 C   0  0  0  0  0  3  0  0  0  0  0  0
  195.7000  171.5980  136.8950 N   0  0  0  0  0  0  0  0  0  0  0  0
  195.9210  174.2430  135.7450 O   0  0  0  0  0  0  0  0  0  0  0  0
  195.5520  175.2340  134.8280 C   0  0  0  0  0  1  0  0  0  0  0  0
  196.8730  170.9020  136.3690 C   0  0  0  0  0  2  0  0  0  0  0  0
  198.0570  171.0930  137.2960 C   0  0  0  0  0  2  0  0  0  0  0  0
  198.6470  169.7470  137.6600 C   0  0  0  0  0  2  0  0  0  0  0  0
  197.5350  167.9180  138.1840 C   0  0  0  0  0  1  0  0  0  0  0  0
  197.8710  168.7310  137.1050 O   0  0  0  0  0  0  0  0  0  0  0  0
  1  5  1  6  0  0  0
  2  6  1  0  0  0  0
  3  4  2  0  0  0  0
  4  6  1  0  0  0  0
  6  5  1  0  0  0  0
  7  5  2  0  0  0  0
  8  4  1  6  0  0  0
  8 18  1  0  0  0  0
  9 14  1  0  0  0  0
 10 13  1  0  0  0  0
 10  9  2  0  0  0  0
 12 11  1  0  0  0  0
 13 12  2  0  0  0  0
 14 11  2  0  0  0  0
 14  8  1  0  0  0  0
 15 18  1  0  0  0  0
 16 25  1  0  0  0  0
 17 16  2  0  0  0  0
 18 16  1  0  0  0  0
 19 22  1  0  0  0  0
 20 21  1  0  0  0  0
 22 25  1  0  0  0  0
 22 23  2  0  0  0  0
 23 24  1  0  0  0  0
 24 21  2  0  0  0  0
 24 26  1  0  0  0  0
 25 20  2  0  0  0  0
 26 28  1  0  0  0  0
 26 27  1  0  0  0  0
 28 27  1  0  0  0  0
 30  1  1  6  0  0  0
 30 34  1  0  0  0  0
 30 31  1  0  0  0  0
 31 33  1  0  0  0  0
 32 29  1  0  0  0  0
 33 29  2  0  0  0  0
 34 32  1  0  0  0  0
 35  1  1  0  0  0  0
 36 37  1  0  0  0  0
 36 35  1  0  0  0  0
 38 36  2  0  0  0  0
 39 45  1  6  0  0  0
 39 48  1  0  0  0  0
 40 46  1  0  0  0  0
 40 43  1  0  0  0  0
 40 37  1  1  0  0  0
 43 49  1  6  0  0  0
 43 42  1  0  0  0  0
 44 41  1  1  0  0  0
 44 39  1  0  0  0  0
 44 46  1  0  0  0  0
 47 42  2  0  0  0  0
 48 47  1  0  0  0  0
 50 49  1  0  0  0  0
 51 48  1  0  0  0  0
 51 52  1  0  0  0  0
 52 53  1  0  0  0  0
 55 53  1  0  0  0  0
 55 54  1  0  0  0  0
M  END
>  <MODEL>
6

>  <REMARK>
 VINA RESULT:      -5.8      2.441      5.889
  Name = 
  15 active torsions:
  status: ('A' for Active; 'I' for Inactive)
    1  A    between atoms: C_3  and  O_25
    2  A    between atoms: C_3  and  C_38
    3  A    between atoms: C_6  and  N_22
    4  A    between atoms: C_8  and  O_54
    5  A    between atoms: C_10  and  C_48
    6  A    between atoms: C_14  and  O_20
    7  A    between atoms: C_19  and  C_45
    8  A    between atoms: C_26  and  C_45
    9  A    between atoms: C_27  and  C_51
   10  A    between atoms: C_29  and  C_38
   11  A    between atoms: C_29  and  N_53
   12  A    between atoms: C_33  and  C_52
   13  A    between atoms: C_35  and  C_51
   14  A    between atoms: C_45  and  N_49
   15  A    between atoms: C_51  and  O_54
                            x       y       z     vdW  Elec       q    Type
                         _______ _______ _______ _____ _____    ______ ____

>  <TORSDO>
F 15

$$$$
=
 OpenBabel10272401323D

 55 59  0  0  1  0  0  0  0  0999 V2000
  188.8670  175.4660  136.5060 C   0  0  2  0  0  3  0  0  0  0  0  0
  187.2450  176.9650  134.3650 C   0  0  0  0  0  1  0  0  0  0  0  0
  184.5100  176.5140  134.5480 O   0  0  0  0  0  0  0  0  0  0  0  0
  185.2380  175.8870  135.3680 C   0  0  0  0  0  0  0  0  0  0  0  0
  187.5320  175.0440  135.9530 C   0  0  0  0  0  0  0  0  0  0  0  0
  186.6680  175.9560  135.2480 N   0  0  0  0  0  0  0  0  0  0  0  0
  187.1630  173.8540  136.1410 O   0  0  0  0  0  0  0  0  0  0  0  0
  184.6000  175.1400  136.5100 C   0  0  2  0  0  3  0  0  0  0  0  0
  184.1170  172.7280  137.1470 C   0  0  0  0  0  3  0  0  0  0  0  0
  183.6690  171.4470  136.8090 C   0  0  0  0  0  3  0  0  0  0  0  0
  183.6280  173.4930  134.9060 C   0  0  0  0  0  3  0  0  0  0  0  0
  183.1790  172.2120  134.5670 C   0  0  0  0  0  3  0  0  0  0  0  0
  183.2000  171.1880  135.5170 C   0  0  0  0  0  3  0  0  0  0  0  0
  184.0930  173.7600  136.1970 C   0  0  0  0  0  0  0  0  0  0  0  0
  182.3320  175.6150  137.1730 O   0  0  0  0  0  1  0  0  0  0  0  0
  184.0240  177.1140  138.0240 C   0  0  0  0  0  0  0  0  0  0  0  0
  185.1550  177.6400  137.8490 O   0  0  0  0  0  0  0  0  0  0  0  0
  183.6420  175.9550  137.2570 N   0  0  0  0  0  0  0  0  0  0  0  0
  181.5740  178.8360  137.0300 Cl  0  0  0  0  0  0  0  0  0  0  0  0
  183.3790  177.4330  140.3970 C   0  0  0  0  0  3  0  0  0  0  0  0
  182.5740  177.9890  141.3920 C   0  0  0  0  0  3  0  0  0  0  0  0
  182.0190  178.5050  138.6970 C   0  0  0  0  0  0  0  0  0  0  0  0
  181.2150  179.0510  139.7010 C   0  0  0  0  0  3  0  0  0  0  0  0
  181.4800  178.7950  141.0480 C   0  0  0  0  0  0  0  0  0  0  0  0
  183.1140  177.6810  139.0420 C   0  0  0  0  0  0  0  0  0  0  0  0
  180.6220  179.4480  142.0900 C   0  0  0  0  0  3  0  0  0  0  0  0
  181.1240  179.2030  143.5040 C   0  0  0  0  0  2  0  0  0  0  0  0
  179.9830  178.3730  142.9590 C   0  0  0  0  0  2  0  0  0  0  0  0
  189.3450  178.4930  139.5980 C   0  0  0  0  0  3  0  0  0  0  0  0
  188.7700  176.4370  137.6910 C   0  0  2  0  0  3  0  0  0  0  0  0
  188.8610  177.8920  137.2160 C   0  0  0  0  0  2  0  0  0  0  0  0
  189.5420  177.0490  139.9830 C   0  0  0  0  0  2  0  0  0  0  0  0
  188.9910  178.8680  138.3590 C   0  0  0  0  0  3  0  0  0  0  0  0
  189.8210  176.1640  138.7700 C   0  0  0  0  0  2  0  0  0  0  0  0
  189.7140  175.9800  135.4830 O   0  0  0  0  0  0  0  0  0  0  0  0
  191.0440  175.5820  135.3440 C   0  0  0  0  0  0  0  0  0  0  0  0
  191.5450  174.4500  136.0650 N   0  0  0  0  0  2  0  0  0  0  0  0
  191.8040  176.2400  134.5780 O   0  0  0  0  0  0  0  0  0  0  0  0
  194.9130  171.3760  137.1320 C   0  0  1  0  0  3  0  0  0  0  0  0
  192.8430  173.8690  135.7760 C   0  0  1  0  0  3  0  0  0  0  0  0
  193.7880  170.5220  135.1670 O   0  0  0  0  0  1  0  0  0  0  0  0
  194.1520  174.4920  137.8870 C   0  0  0  0  0  3  0  0  0  0  0  0
  193.9390  174.7290  136.4120 C   0  0  1  0  0  3  0  0  0  0  0  0
  194.1330  171.6950  135.8490 C   0  0  1  0  0  3  0  0  0  0  0  0
  195.8370  170.1680  136.9550 C   0  0  0  0  0  1  0  0  0  0  0  0
  192.8480  172.4110  136.2250 C   0  0  0  0  0  2  0  0  0  0  0  0
  194.9130  173.5250  138.4160 C   0  0  0  0  0  3  0  0  0  0  0  0
  195.6280  172.5620  137.6300 N   0  0  0  0  0  0  0  0  0  0  0  0
  195.1300  174.6470  135.6880 O   0  0  0  0  0  0  0  0  0  0  0  0
  195.5480  175.9730  135.5260 C   0  0  0  0  0  1  0  0  0  0  0  0
  197.0840  172.5610  137.7600 C   0  0  0  0  0  2  0  0  0  0  0  0
  197.7170  173.2650  136.5760 C   0  0  0  0  0  2  0  0  0  0  0  0
  198.6650  174.3390  137.0640 C   0  0  0  0  0  2  0  0  0  0  0  0
  199.2660  175.0140  139.0740 C   0  0  0  0  0  1  0  0  0  0  0  0
  199.3010  173.9080  138.2270 O   0  0  0  0  0  0  0  0  0  0  0  0
  1 35  1  6  0  0  0
  2  6  1  0  0  0  0
  3  4  2  0  0  0  0
  5  7  2  0  0  0  0
  5  1  1  0  0  0  0
  6  4  1  0  0  0  0
  6  5  1  0  0  0  0
  8  4  1  6  0  0  0
  8 18  1  0  0  0  0
 10  9  1  0  0  0  0
 11 14  1  0  0  0  0
 12 11  2  0  0  0  0
 12 13  1  0  0  0  0
 13 10  2  0  0  0  0
 14  8  1  0  0  0  0
 14  9  2  0  0  0  0
 15 18  1  0  0  0  0
 16 25  1  0  0  0  0
 17 16  2  0  0  0  0
 18 16  1  0  0  0  0
 19 22  1  0  0  0  0
 20 21  1  0  0  0  0
 22 25  1  0  0  0  0
 22 23  2  0  0  0  0
 23 24  1  0  0  0  0
 24 21  2  0  0  0  0
 24 26  1  0  0  0  0
 25 20  2  0  0  0  0
 26 28  1  0  0  0  0
 26 27  1  0  0  0  0
 28 27  1  0  0  0  0
 29 32  1  0  0  0  0
 30  1  1  6  0  0  0
 30 34  1  0  0  0  0
 31 30  1  0  0  0  0
 31 33  1  0  0  0  0
 33 29  2  0  0  0  0
 34 32  1  0  0  0  0
 36 35  1  0  0  0  0
 36 37  1  0  0  0  0
 38 36  2  0  0  0  0
 39 45  1  6  0  0  0
 39 48  1  0  0  0  0
 40 37  1  1  0  0  0
 40 46  1  0  0  0  0
 40 43  1  0  0  0  0
 42 47  2  0  0  0  0
 43 49  1  6  0  0  0
 43 42  1  0  0  0  0
 44 41  1  1  0  0  0
 44 46  1  0  0  0  0
 44 39  1  0  0  0  0
 48 51  1  0  0  0  0
 48 47  1  0  0  0  0
 50 49  1  0  0  0  0
 52 53  1  0  0  0  0
 52 51  1  0  0  0  0
 53 55  1  0  0  0  0
 55 54  1  0  0  0  0
M  END
>  <MODEL>
7

>  <REMARK>
 VINA RESULT:      -5.7      3.102      6.009
  Name = 
  15 active torsions:
  status: ('A' for Active; 'I' for Inactive)
    1  A    between atoms: C_3  and  O_25
    2  A    between atoms: C_3  and  C_38
    3  A    between atoms: C_6  and  N_22
    4  A    between atoms: C_8  and  O_54
    5  A    between atoms: C_10  and  C_48
    6  A    between atoms: C_14  and  O_20
    7  A    between atoms: C_19  and  C_45
    8  A    between atoms: C_26  and  C_45
    9  A    between atoms: C_27  and  C_51
   10  A    between atoms: C_29  and  C_38
   11  A    between atoms: C_29  and  N_53
   12  A    between atoms: C_33  and  C_52
   13  A    between atoms: C_35  and  C_51
   14  A    between atoms: C_45  and  N_49
   15  A    between atoms: C_51  and  O_54
                            x       y       z     vdW  Elec       q    Type
                         _______ _______ _______ _____ _____    ______ ____

>  <TORSDO>
F 15

$$$$
=
 OpenBabel10272401323D

 55 59  0  0  1  0  0  0  0  0999 V2000
  186.8840  178.0530  140.6700 C   0  0  2  0  0  3  0  0  0  0  0  0
  184.2520  177.6700  142.2140 C   0  0  0  0  0  1  0  0  0  0  0  0
  181.9990  178.2830  140.7100 O   0  0  0  0  0  0  0  0  0  0  0  0
  183.1150  178.4680  140.1490 C   0  0  0  0  0  0  0  0  0  0  0  0
  185.5940  178.7870  140.4130 C   0  0  0  0  0  0  0  0  0  0  0  0
  184.3270  178.3100  140.9050 N   0  0  0  0  0  0  0  0  0  0  0  0
  185.6400  179.8410  139.7250 O   0  0  0  0  0  0  0  0  0  0  0  0
  183.1670  178.7740  138.6740 C   0  0  2  0  0  3  0  0  0  0  0  0
  181.1910  179.2600  137.1510 C   0  0  0  0  0  3  0  0  0  0  0  0
  180.2210  180.1400  136.6610 C   0  0  0  0  0  3  0  0  0  0  0  0
  182.0070  180.9830  138.6380 C   0  0  0  0  0  3  0  0  0  0  0  0
  181.0370  181.8640  138.1490 C   0  0  0  0  0  3  0  0  0  0  0  0
  180.1440  181.4450  137.1600 C   0  0  0  0  0  3  0  0  0  0  0  0
  182.0870  179.6770  138.1470 C   0  0  0  0  0  0  0  0  0  0  0  0
  184.2920  177.6620  136.8570 O   0  0  0  0  0  1  0  0  0  0  0  0
  182.6310  176.3610  138.0330 C   0  0  0  0  0  0  0  0  0  0  0  0
  181.5680  176.3660  138.7090 O   0  0  0  0  0  0  0  0  0  0  0  0
  183.3780  177.5810  137.8550 N   0  0  0  0  0  0  0  0  0  0  0  0
  181.2380  175.3030  135.4070 Cl  0  0  0  0  0  0  0  0  0  0  0  0
  184.1580  174.4080  138.0960 C   0  0  0  0  0  3  0  0  0  0  0  0
  184.6100  173.1800  137.6130 C   0  0  0  0  0  3  0  0  0  0  0  0
  182.5190  174.5100  136.3100 C   0  0  0  0  0  0  0  0  0  0  0  0
  182.9840  173.2830  135.8300 C   0  0  0  0  0  3  0  0  0  0  0  0
  184.0310  172.6150  136.4690 C   0  0  0  0  0  0  0  0  0  0  0  0
  183.1120  175.0880  137.4550 C   0  0  0  0  0  0  0  0  0  0  0  0
  184.4570  171.2740  135.9480 C   0  0  0  0  0  3  0  0  0  0  0  0
  183.5740  170.7750  134.8160 C   0  0  0  0  0  2  0  0  0  0  0  0
  183.3570  170.2580  136.2210 C   0  0  0  0  0  2  0  0  0  0  0  0
  188.9790  178.0380  144.4860 C   0  0  0  0  0  3  0  0  0  0  0  0
  187.4700  178.2990  142.0680 C   0  0  2  0  0  3  0  0  0  0  0  0
  188.9990  178.4030  142.0090 C   0  0  0  0  0  2  0  0  0  0  0  0
  187.5220  177.6500  144.4760 C   0  0  0  0  0  2  0  0  0  0  0  0
  189.6320  178.4240  143.3780 C   0  0  0  0  0  3  0  0  0  0  0  0
  187.0490  177.2350  143.0840 C   0  0  0  0  0  2  0  0  0  0  0  0
  187.8430  178.3160  139.6520 O   0  0  0  0  0  0  0  0  0  0  0  0
  188.5960  177.3030  139.0560 C   0  0  0  0  0  0  0  0  0  0  0  0
  190.0210  177.4100  138.9680 N   0  0  0  0  0  2  0  0  0  0  0  0
  187.9990  176.2920  138.5860 O   0  0  0  0  0  0  0  0  0  0  0  0
  193.6570  175.7530  136.5240 C   0  0  1  0  0  3  0  0  0  0  0  0
  190.8520  176.2880  138.5700 C   0  0  1  0  0  3  0  0  0  0  0  0
  194.3360  175.7860  138.8460 O   0  0  0  0  0  1  0  0  0  0  0  0
  190.4290  176.2220  136.0450 C   0  0  0  0  0  3  0  0  0  0  0  0
  190.2020  175.5680  137.3850 C   0  0  1  0  0  3  0  0  0  0  0  0
  193.2310  175.6540  137.9950 C   0  0  1  0  0  3  0  0  0  0  0  0
  195.0250  175.1130  136.2780 C   0  0  0  0  0  1  0  0  0  0  0  0
  192.2690  176.7870  138.3020 C   0  0  0  0  0  2  0  0  0  0  0  0
  191.5090  176.0510  135.2710 C   0  0  0  0  0  3  0  0  0  0  0  0
  192.6170  175.2150  135.6320 N   0  0  0  0  0  0  0  0  0  0  0  0
  190.5360  174.2120  137.3730 O   0  0  0  0  0  0  0  0  0  0  0  0
  189.3680  173.5540  136.9710 C   0  0  0  0  0  1  0  0  0  0  0  0
  192.8960  174.0820  134.7510 C   0  0  0  0  0  2  0  0  0  0  0  0
  192.5470  172.7800  135.4440 C   0  0  0  0  0  2  0  0  0  0  0  0
  193.4630  171.6780  134.9560 C   0  0  0  0  0  2  0  0  0  0  0  0
  195.6480  171.5100  134.7270 C   0  0  0  0  0  1  0  0  0  0  0  0
  194.6520  171.7020  135.6810 O   0  0  0  0  0  0  0  0  0  0  0  0
  1 35  1  6  0  0  0
  4  3  2  0  0  0  0
  4  6  1  0  0  0  0
  5  1  1  0  0  0  0
  5  6  1  0  0  0  0
  6  2  1  0  0  0  0
  7  5  2  0  0  0  0
  8  4  1  1  0  0  0
  9 14  1  0  0  0  0
 10  9  2  0  0  0  0
 10 13  1  0  0  0  0
 12 11  1  0  0  0  0
 13 12  2  0  0  0  0
 14 11  2  0  0  0  0
 14  8  1  0  0  0  0
 15 18  1  0  0  0  0
 16 17  2  0  0  0  0
 18 16  1  0  0  0  0
 18  8  1  0  0  0  0
 19 22  1  0  0  0  0
 21 20  1  0  0  0  0
 22 25  1  0  0  0  0
 23 22  2  0  0  0  0
 23 24  1  0  0  0  0
 24 21  2  0  0  0  0
 25 16  1  0  0  0  0
 25 20  2  0  0  0  0
 26 28  1  0  0  0  0
 26 24  1  0  0  0  0
 27 26  1  0  0  0  0
 27 28  1  0  0  0  0
 30  1  1  6  0  0  0
 30 34  1  0  0  0  0
 31 30  1  0  0  0  0
 31 33  1  0  0  0  0
 32 29  1  0  0  0  0
 33 29  2  0  0  0  0
 34 32  1  0  0  0  0
 36 35  1  0  0  0  0
 37 36  1  0  0  0  0
 38 36  2  0  0  0  0
 39 45  1  1  0  0  0
 39 44  1  0  0  0  0
 40 37  1  6  0  0  0
 42 43  1  0  0  0  0
 43 49  1  6  0  0  0
 43 40  1  0  0  0  0
 44 46  1  0  0  0  0
 44 41  1  1  0  0  0
 46 40  1  0  0  0  0
 47 48  1  0  0  0  0
 47 42  2  0  0  0  0
 48 39  1  0  0  0  0
 50 49  1  0  0  0  0
 51 52  1  0  0  0  0
 51 48  1  0  0  0  0
 53 52  1  0  0  0  0
 53 55  1  0  0  0  0
 54 55  1  0  0  0  0
M  END
>  <MODEL>
8

>  <REMARK>
 VINA RESULT:      -5.4      3.055      7.581
  Name = 
  15 active torsions:
  status: ('A' for Active; 'I' for Inactive)
    1  A    between atoms: C_3  and  O_25
    2  A    between atoms: C_3  and  C_38
    3  A    between atoms: C_6  and  N_22
    4  A    between atoms: C_8  and  O_54
    5  A    between atoms: C_10  and  C_48
    6  A    between atoms: C_14  and  O_20
    7  A    between atoms: C_19  and  C_45
    8  A    between atoms: C_26  and  C_45
    9  A    between atoms: C_27  and  C_51
   10  A    between atoms: C_29  and  C_38
   11  A    between atoms: C_29  and  N_53
   12  A    between atoms: C_33  and  C_52
   13  A    between atoms: C_35  and  C_51
   14  A    between atoms: C_45  and  N_49
   15  A    between atoms: C_51  and  O_54
                            x       y       z     vdW  Elec       q    Type
                         _______ _______ _______ _____ _____    ______ ____

>  <TORSDO>
F 15

$$$$
=
 OpenBabel10272401323D

 55 59  0  0  1  0  0  0  0  0999 V2000
  190.3870  175.9090  136.8620 C   0  0  2  0  0  3  0  0  0  0  0  0
  189.6360  178.8410  136.3140 C   0  0  0  0  0  1  0  0  0  0  0  0
  187.0070  179.4420  136.9790 O   0  0  0  0  0  0  0  0  0  0  0  0
  187.3640  178.2410  137.1340 C   0  0  0  0  0  0  0  0  0  0  0  0
  189.0050  176.4250  136.5600 C   0  0  0  0  0  0  0  0  0  0  0  0
  188.6610  177.8190  136.6810 N   0  0  0  0  0  0  0  0  0  0  0  0
  188.1260  175.5930  136.2110 O   0  0  0  0  0  0  0  0  0  0  0  0
  186.4580  177.2820  137.8620 C   0  0  2  0  0  3  0  0  0  0  0  0
  184.9550  175.3130  137.2970 C   0  0  0  0  0  3  0  0  0  0  0  0
  183.9850  174.7170  136.4840 C   0  0  0  0  0  3  0  0  0  0  0  0
  184.8580  177.3170  135.9480 C   0  0  0  0  0  3  0  0  0  0  0  0
  183.8880  176.7220  135.1350 C   0  0  0  0  0  3  0  0  0  0  0  0
  183.4510  175.4220  135.4010 C   0  0  0  0  0  3  0  0  0  0  0  0
  185.3930  176.6200  137.0350 C   0  0  0  0  0  0  0  0  0  0  0  0
  184.6190  177.9490  139.2680 O   0  0  0  0  0  1  0  0  0  0  0  0
  186.8290  178.2620  140.1910 C   0  0  0  0  0  0  0  0  0  0  0  0
  188.0500  178.4690  139.9630 O   0  0  0  0  0  0  0  0  0  0  0  0
  185.9610  177.8220  139.1270 N   0  0  0  0  0  0  0  0  0  0  0  0
  188.4720  177.0180  142.5800 Cl  0  0  0  0  0  0  0  0  0  0  0  0
  185.1160  179.1610  141.7420 C   0  0  0  0  0  3  0  0  0  0  0  0
  184.5640  179.3180  143.0150 C   0  0  0  0  0  3  0  0  0  0  0  0
  186.9490  177.8860  142.6910 C   0  0  0  0  0  0  0  0  0  0  0  0
  186.3930  178.0550  143.9620 C   0  0  0  0  0  3  0  0  0  0  0  0
  185.2070  178.7730  144.1340 C   0  0  0  0  0  0  0  0  0  0  0  0
  186.3090  178.4480  141.5630 C   0  0  0  0  0  0  0  0  0  0  0  0
  184.6210  178.8790  145.5110 C   0  0  0  0  0  3  0  0  0  0  0  0
  185.6420  179.3000  146.5540 C   0  0  0  0  0  2  0  0  0  0  0  0
  185.2710  177.8410  146.4140 C   0  0  0  0  0  2  0  0  0  0  0  0
  192.6690  177.3120  140.2940 C   0  0  0  0  0  3  0  0  0  0  0  0
  191.1050  176.6750  137.9830 C   0  0  2  0  0  3  0  0  0  0  0  0
  192.6100  176.3790  137.9700 C   0  0  0  0  0  2  0  0  0  0  0  0
  191.1650  177.3180  140.3920 C   0  0  0  0  0  2  0  0  0  0  0  0
  193.3190  176.9320  139.1810 C   0  0  0  0  0  3  0  0  0  0  0  0
  190.5190  176.3880  139.3670 C   0  0  0  0  0  2  0  0  0  0  0  0
  191.1860  175.8430  135.6850 O   0  0  0  0  0  0  0  0  0  0  0  0
  191.8160  174.6670  135.2760 C   0  0  0  0  0  0  0  0  0  0  0  0
  193.2170  174.4750  135.5000 N   0  0  0  0  0  2  0  0  0  0  0  0
  191.1320  173.7750  134.6960 O   0  0  0  0  0  0  0  0  0  0  0  0
  194.2270  170.1860  137.0880 C   0  0  1  0  0  3  0  0  0  0  0  0
  193.8580  173.1880  135.3010 C   0  0  1  0  0  3  0  0  0  0  0  0
  192.5340  169.9160  135.3800 O   0  0  0  0  0  1  0  0  0  0  0  0
  195.5820  173.1880  137.1950 C   0  0  0  0  0  3  0  0  0  0  0  0
  195.3310  173.2830  135.7100 C   0  0  1  0  0  3  0  0  0  0  0  0
  193.6040  170.7200  135.7900 C   0  0  1  0  0  3  0  0  0  0  0  0
  194.2170  168.6560  137.1410 C   0  0  0  0  0  1  0  0  0  0  0  0
  193.0670  172.1170  136.0460 C   0  0  0  0  0  2  0  0  0  0  0  0
  195.6920  172.0500  137.8920 C   0  0  0  0  0  3  0  0  0  0  0  0
  195.5700  170.7470  137.3050 N   0  0  0  0  0  0  0  0  0  0  0  0
  196.1160  172.3860  134.9850 O   0  0  0  0  0  0  0  0  0  0  0  0
  197.2410  173.1210  134.5940 C   0  0  0  0  0  1  0  0  0  0  0  0
  196.7420  169.8780  137.3890 C   0  0  0  0  0  2  0  0  0  0  0  0
  197.9950  170.6500  137.0270 C   0  0  0  0  0  2  0  0  0  0  0  0
  199.0120  169.7170  136.4070 C   0  0  0  0  0  2  0  0  0  0  0  0
  200.2190  171.5510  136.2080 C   0  0  0  0  0  1  0  0  0  0  0  0
  199.8050  170.4220  135.5030 O   0  0  0  0  0  0  0  0  0  0  0  0
  1 35  1  6  0  0  0
  2  6  1  0  0  0  0
  3  4  2  0  0  0  0
  5  6  1  0  0  0  0
  5  1  1  0  0  0  0
  6  4  1  0  0  0  0
  7  5  2  0  0  0  0
  8  4  1  6  0  0  0
  8 18  1  0  0  0  0
 10  9  2  0  0  0  0
 11 14  2  0  0  0  0
 12 13  2  0  0  0  0
 12 11  1  0  0  0  0
 13 10  1  0  0  0  0
 14  9  1  0  0  0  0
 14  8  1  0  0  0  0
 16 25  1  0  0  0  0
 17 16  2  0  0  0  0
 18 15  1  0  0  0  0
 18 16  1  0  0  0  0
 19 22  1  0  0  0  0
 20 21  1  0  0  0  0
 21 24  2  0  0  0  0
 22 23  2  0  0  0  0
 23 24  1  0  0  0  0
 24 26  1  0  0  0  0
 25 20  2  0  0  0  0
 25 22  1  0  0  0  0
 26 28  1  0  0  0  0
 26 27  1  0  0  0  0
 28 27  1  0  0  0  0
 29 32  1  0  0  0  0
 30  1  1  6  0  0  0
 30 34  1  0  0  0  0
 31 30  1  0  0  0  0
 31 33  1  0  0  0  0
 33 29  2  0  0  0  0
 34 32  1  0  0  0  0
 36 37  1  0  0  0  0
 36 35  1  0  0  0  0
 38 36  2  0  0  0  0
 39 45  1  6  0  0  0
 39 48  1  0  0  0  0
 40 37  1  1  0  0  0
 40 43  1  0  0  0  0
 40 46  1  0  0  0  0
 42 47  2  0  0  0  0
 43 49  1  6  0  0  0
 43 42  1  0  0  0  0
 44 41  1  1  0  0  0
 44 46  1  0  0  0  0
 44 39  1  0  0  0  0
 48 51  1  0  0  0  0
 48 47  1  0  0  0  0
 50 49  1  0  0  0  0
 52 51  1  0  0  0  0
 53 52  1  0  0  0  0
 55 54  1  0  0  0  0
 55 53  1  0  0  0  0
M  END
>  <MODEL>
9

>  <REMARK>
 VINA RESULT:      -5.2      2.733      4.410
  Name = 
  15 active torsions:
  status: ('A' for Active; 'I' for Inactive)
    1  A    between atoms: C_3  and  O_25
    2  A    between atoms: C_3  and  C_38
    3  A    between atoms: C_6  and  N_22
    4  A    between atoms: C_8  and  O_54
    5  A    between atoms: C_10  and  C_48
    6  A    between atoms: C_14  and  O_20
    7  A    between atoms: C_19  and  C_45
    8  A    between atoms: C_26  and  C_45
    9  A    between atoms: C_27  and  C_51
   10  A    between atoms: C_29  and  C_38
   11  A    between atoms: C_29  and  N_53
   12  A    between atoms: C_33  and  C_52
   13  A    between atoms: C_35  and  C_51
   14  A    between atoms: C_45  and  N_49
   15  A    between atoms: C_51  and  O_54
                            x       y       z     vdW  Elec       q    Type
                         _______ _______ _______ _____ _____    ______ ____

>  <TORSDO>
F 15

$$$$
