=
 OpenBabel10272414503D

 37 41  0  0  1  0  0  0  0  0999 V2000
  182.9520  177.0150  137.6950 C   0  0  1  0  0  0  0  0  0  0  0  0
  183.5530  179.1690  140.1950 C   0  0  2  0  0  3  0  0  0  0  0  0
  185.1730  177.9650  138.1450 O   0  0  0  0  0  0  0  0  0  0  0  0
  182.8960  178.1310  141.1000 C   0  0  0  0  0  2  0  0  0  0  0  0
  183.0670  179.1800  138.7330 C   0  0  2  0  0  3  0  0  0  0  0  0
  183.2900  178.3490  142.5740 C   0  0  1  0  0  3  0  0  0  0  0  0
  187.0070  178.1910  139.4910 O   0  0  0  0  0  0  0  0  0  0  0  0
  181.6460  178.8120  138.6600 N   0  0  2  0  0  0  0  0  0  0  0  0
  183.2740  176.0850  138.6860 O   0  0  0  0  0  1  0  0  0  0  0  0
  186.7330  179.5180  141.8440 O   0  0  0  0  0  0  0  0  0  0  0  0
  185.7760  178.4050  139.3210 C   0  0  0  0  0  0  0  0  0  0  0  0
  181.5500  177.5470  137.9220 C   0  0  0  0  0  2  0  0  0  0  0  0
  185.0010  179.0630  140.3340 N   0  0  0  0  0  0  0  0  0  0  0  0
  183.8180  178.2440  137.7950 C   0  0  2  0  0  3  0  0  0  0  0  0
  184.5590  179.2020  142.8360 C   0  0  2  0  0  3  0  0  0  0  0  0
  183.0690  176.3810  136.3250 C   0  0  0  0  0  1  0  0  0  0  0  0
  185.5130  179.2500  141.6630 C   0  0  0  0  0  0  0  0  0  0  0  0
  180.8010  179.5830  136.5110 N   0  0  0  0  0  2  0  0  0  0  0  0
  179.9820  181.9390  136.2400 C   0  0  0  0  0  2  0  0  0  0  0  0
  180.2710  180.5940  135.6620 C   0  0  0  0  0  0  0  0  0  0  0  0
  180.0670  180.3570  134.4100 N   0  0  0  0  0  2  0  0  0  0  0  0
  182.2560  182.5560  136.4890 F   0  0  0  0  0  0  0  0  0  0  0  0
  181.4030  181.2440  138.2720 C   0  0  0  0  0  2  0  0  0  0  0  0
  181.0990  182.3300  137.2170 C   0  0  2  0  0  0  0  0  0  0  0  0
  180.8690  179.8350  137.9520 C   0  0  2  0  0  3  0  0  0  0  0  0
  180.7000  183.5900  137.9240 C   0  0  0  0  0  0  0  0  0  0  0  0
  179.9820  183.5450  138.9580 O   0  0  0  0  0  1  0  0  0  0  0  0
  181.1320  184.8230  137.4460 O   0  0  0  0  0  0  0  0  0  0  0  0
  184.5990  179.0160  145.3320 C   0  0  0  0  0  3  0  0  0  0  0  0
  185.2320  178.7750  144.1080 C   0  0  0  0  0  0  0  0  0  0  0  0
  186.4850  178.1430  144.0860 C   0  0  0  0  0  3  0  0  0  0  0  0
  188.3640  177.1120  145.2570 N   0  0  0  0  0  1  0  0  0  0  0  0
  186.4580  177.9980  146.5020 C   0  0  0  0  0  3  0  0  0  0  0  0
  187.0950  177.7550  145.2820 C   0  0  0  0  0  0  0  0  0  0  0  0
  185.2110  178.6280  146.5270 C   0  0  0  0  0  3  0  0  0  0  0  0
  182.1010  178.8430  143.3950 C   0  0  0  0  0  2  0  0  0  0  0  0
  180.8260  178.9110  142.5680 C   0  0  0  0  0  1  0  0  0  0  0  0
  1 16  1  6  0  0  0
  1 14  1  0  0  0  0
  1 12  1  0  0  0  0
  1  9  1  0  0  0  0
  2 13  1  0  0  0  0
  2  4  1  1  0  0  0
  3 11  1  0  0  0  0
  4  6  1  0  0  0  0
  5  2  1  0  0  0  0
  6 15  1  0  0  0  0
  6 36  1  0  0  0  0
  8  5  1  0  0  0  0
 11  7  2  0  0  0  0
 11 13  1  0  0  0  0
 12  8  1  0  0  0  0
 13 17  1  0  0  0  0
 14  3  1  0  0  0  0
 14  5  1  0  0  0  0
 15 30  1  0  0  0  0
 17 10  2  0  0  0  0
 17 15  1  0  0  0  0
 18 25  1  0  0  0  0
 19 24  1  0  0  0  0
 20 19  1  0  0  0  0
 20 18  1  0  0  0  0
 21 20  2  0  0  0  0
 22 24  1  0  0  0  0
 24 26  1  0  0  0  0
 24 23  1  0  0  0  0
 25 23  1  0  0  0  0
 25  8  1  0  0  0  0
 26 27  1  0  0  0  0
 28 26  2  0  0  0  0
 29 35  1  0  0  0  0
 30 29  2  0  0  0  0
 31 30  1  0  0  0  0
 31 34  2  0  0  0  0
 32 34  1  0  0  0  0
 33 35  2  0  0  0  0
 34 33  1  0  0  0  0
 37 36  1  0  0  0  0
M  END
>  <MODEL>
1

>  <REMARK>
 VINA RESULT:      -7.2      0.000      0.000
  Name = 
  4 active torsions:
  status: ('A' for Active; 'I' for Inactive)
    1  A    between atoms: C_6  and  C_31
    2  A    between atoms: C_7  and  C_14
    3  A    between atoms: C_11  and  C_33
    4  A    between atoms: N_20  and  C_36
                            x       y       z     vdW  Elec       q    Type
                         _______ _______ _______ _____ _____    ______ ____

>  <TORSDO>
F 4

$$$$
=
 OpenBabel10272414503D

 37 41  0  0  1  0  0  0  0  0999 V2000
  190.2880  175.4870  135.5140 C   0  0  1  0  0  0  0  0  0  0  0  0
  187.5200  175.2520  137.3940 C   0  0  2  0  0  3  0  0  0  0  0  0
  189.3390  173.3420  136.2440 O   0  0  0  0  0  0  0  0  0  0  0  0
  186.8610  176.1350  136.3380 C   0  0  0  0  0  2  0  0  0  0  0  0
  189.0400  175.4440  137.5670 C   0  0  2  0  0  3  0  0  0  0  0  0
  185.3260  176.0220  136.3990 C   0  0  1  0  0  3  0  0  0  0  0  0
  187.6570  171.7940  136.2090 O   0  0  0  0  0  0  0  0  0  0  0  0
  189.4140  176.8430  137.3200 N   0  0  2  0  0  0  0  0  0  0  0  0
  189.3510  175.4210  134.4800 O   0  0  0  0  0  1  0  0  0  0  0  0
  185.2780  172.4380  137.3500 O   0  0  0  0  0  0  0  0  0  0  0  0
  188.0330  172.9530  136.5340 C   0  0  0  0  0  0  0  0  0  0  0  0
  190.2770  176.8710  136.1340 C   0  0  0  0  0  2  0  0  0  0  0  0
  187.1230  173.8680  137.1630 N   0  0  0  0  0  0  0  0  0  0  0  0
  189.9070  174.5840  136.6580 C   0  0  2  0  0  3  0  0  0  0  0  0
  184.7470  174.7780  137.1240 C   0  0  2  0  0  3  0  0  0  0  0  0
  191.6680  175.1460  134.9910 C   0  0  0  0  0  1  0  0  0  0  0  0
  185.7110  173.6130  137.1950 C   0  0  0  0  0  0  0  0  0  0  0  0
  191.5360  176.9290  138.5110 N   0  0  0  0  0  2  0  0  0  0  0  0
  191.6380  177.8050  140.8600 C   0  0  0  0  0  2  0  0  0  0  0  0
  192.3120  177.2090  139.6700 C   0  0  0  0  0  0  0  0  0  0  0  0
  193.5720  176.9300  139.6960 N   0  0  0  0  0  2  0  0  0  0  0  0
  190.4570  175.8350  141.4430 F   0  0  0  0  0  0  0  0  0  0  0  0
  189.3960  177.1480  139.7760 C   0  0  0  0  0  2  0  0  0  0  0  0
  190.2630  177.1510  141.0540 C   0  0  2  0  0  0  0  0  0  0  0  0
  190.1510  177.4040  138.4580 C   0  0  2  0  0  3  0  0  0  0  0  0
  189.5290  177.8880  142.1330 C   0  0  0  0  0  0  0  0  0  0  0  0
  190.1450  178.3340  143.1370 O   0  0  0  0  0  1  0  0  0  0  0  0
  188.1580  178.0940  142.0250 O   0  0  0  0  0  0  0  0  0  0  0  0
  183.2800  174.3190  135.1490 C   0  0  0  0  0  3  0  0  0  0  0  0
  183.4210  174.3920  136.5400 C   0  0  0  0  0  0  0  0  0  0  0  0
  182.3210  174.1080  137.3650 C   0  0  0  0  0  3  0  0  0  0  0  0
  179.9820  173.4630  137.6380 N   0  0  0  0  0  1  0  0  0  0  0  0
  180.9580  173.6800  135.4100 C   0  0  0  0  0  3  0  0  0  0  0  0
  181.0940  173.7520  136.8000 C   0  0  0  0  0  0  0  0  0  0  0  0
  182.0510  173.9630  134.5860 C   0  0  0  0  0  3  0  0  0  0  0  0
  184.6980  177.3160  136.9140 C   0  0  0  0  0  2  0  0  0  0  0  0
  185.6670  178.1190  137.7680 C   0  0  0  0  0  1  0  0  0  0  0  0
  1 16  1  6  0  0  0
  1 12  1  0  0  0  0
  1 14  1  0  0  0  0
  2  4  1  6  0  0  0
  2  5  1  0  0  0  0
  3 11  1  0  0  0  0
  3 14  1  0  0  0  0
  4  6  1  0  0  0  0
  6 36  1  0  0  0  0
  6 15  1  0  0  0  0
  7 11  2  0  0  0  0
  8  5  1  0  0  0  0
  8 25  1  0  0  0  0
  9  1  1  0  0  0  0
 11 13  1  0  0  0  0
 12  8  1  0  0  0  0
 13 17  1  0  0  0  0
 13  2  1  0  0  0  0
 14  5  1  0  0  0  0
 15 17  1  0  0  0  0
 17 10  2  0  0  0  0
 18 20  1  0  0  0  0
 19 24  1  0  0  0  0
 20 21  2  0  0  0  0
 20 19  1  0  0  0  0
 23 24  1  0  0  0  0
 24 22  1  0  0  0  0
 24 26  1  0  0  0  0
 25 18  1  0  0  0  0
 25 23  1  0  0  0  0
 26 27  1  0  0  0  0
 28 26  2  0  0  0  0
 29 30  1  0  0  0  0
 30 15  1  0  0  0  0
 30 31  2  0  0  0  0
 33 34  2  0  0  0  0
 34 31  1  0  0  0  0
 34 32  1  0  0  0  0
 35 29  2  0  0  0  0
 35 33  1  0  0  0  0
 36 37  1  0  0  0  0
M  END
>  <MODEL>
2

>  <REMARK>
 VINA RESULT:      -6.9      5.773      9.651
  Name = 
  4 active torsions:
  status: ('A' for Active; 'I' for Inactive)
    1  A    between atoms: C_6  and  C_31
    2  A    between atoms: C_7  and  C_14
    3  A    between atoms: C_11  and  C_33
    4  A    between atoms: N_20  and  C_36
                            x       y       z     vdW  Elec       q    Type
                         _______ _______ _______ _____ _____    ______ ____

>  <TORSDO>
F 4

$$$$
=
 OpenBabel10272414503D

 37 41  0  0  1  0  0  0  0  0999 V2000
  187.9510  177.7790  137.6450 C   0  0  1  0  0  0  0  0  0  0  0  0
  190.4080  175.5090  137.3990 C   0  0  2  0  0  3  0  0  0  0  0  0
  189.7340  177.5430  139.3200 O   0  0  0  0  0  0  0  0  0  0  0  0
  190.6490  176.0830  136.0060 C   0  0  0  0  0  2  0  0  0  0  0  0
  188.9620  175.6170  137.9230 C   0  0  2  0  0  3  0  0  0  0  0  0
  192.0600  175.7310  135.4970 C   0  0  1  0  0  3  0  0  0  0  0  0
  191.9370  177.6800  139.9150 O   0  0  0  0  0  0  0  0  0  0  0  0
  188.0050  175.5060  136.8140 N   0  0  2  0  0  0  0  0  0  0  0  0
  188.8720  178.5590  136.9410 O   0  0  0  0  0  1  0  0  0  0  0  0
  193.6880  175.9170  138.8230 O   0  0  0  0  0  0  0  0  0  0  0  0
  191.0540  177.1110  139.2180 C   0  0  0  0  0  0  0  0  0  0  0  0
  187.2930  176.7840  136.7090 C   0  0  0  0  0  2  0  0  0  0  0  0
  191.4070  176.0550  138.3110 N   0  0  0  0  0  0  0  0  0  0  0  0
  188.6380  176.9070  138.6630 C   0  0  2  0  0  3  0  0  0  0  0  0
  193.1010  175.3080  136.5660 C   0  0  2  0  0  3  0  0  0  0  0  0
  186.9130  178.6640  138.3020 C   0  0  0  0  0  1  0  0  0  0  0  0
  192.7750  175.7990  137.9600 C   0  0  0  0  0  0  0  0  0  0  0  0
  187.2480  173.2740  136.2000 N   0  0  0  0  0  2  0  0  0  0  0  0
  184.9600  172.4840  136.8570 C   0  0  0  0  0  2  0  0  0  0  0  0
  186.2600  172.2510  136.1660 C   0  0  0  0  0  0  0  0  0  0  0  0
  186.4810  171.1500  135.5290 N   0  0  0  0  0  2  0  0  0  0  0  0
  184.1680  174.0740  135.2880 F   0  0  0  0  0  0  0  0  0  0  0  0
  185.5910  174.9790  136.9560 C   0  0  0  0  0  2  0  0  0  0  0  0
  184.5050  173.9310  136.6240 C   0  0  2  0  0  0  0  0  0  0  0  0
  187.0290  174.4380  137.0610 C   0  0  2  0  0  3  0  0  0  0  0  0
  183.3000  174.2000  137.4740 C   0  0  0  0  0  0  0  0  0  0  0  0
  182.2300  173.5630  137.2880 O   0  0  0  0  0  0  0  0  0  0  0  0
  183.3620  175.1500  138.4880 O   0  0  0  0  0  1  0  0  0  0  0  0
  195.5490  174.8090  136.4000 C   0  0  0  0  0  3  0  0  0  0  0  0
  194.4880  175.6820  136.1340 C   0  0  0  0  0  0  0  0  0  0  0  0
  194.7370  176.8950  135.4720 C   0  0  0  0  0  3  0  0  0  0  0  0
  196.2860  178.4540  134.4080 N   0  0  0  0  0  1  0  0  0  0  0  0
  197.0930  176.3490  135.3470 C   0  0  0  0  0  3  0  0  0  0  0  0
  196.0370  177.2260  135.0800 C   0  0  0  0  0  0  0  0  0  0  0  0
  196.8480  175.1410  136.0070 C   0  0  0  0  0  3  0  0  0  0  0  0
  191.9970  174.7290  134.3460 C   0  0  0  0  0  2  0  0  0  0  0  0
  191.9720  173.2910  134.8430 C   0  0  0  0  0  1  0  0  0  0  0  0
  1 16  1  1  0  0  0
  1 14  1  0  0  0  0
  2  4  1  6  0  0  0
  2  5  1  0  0  0  0
  2 13  1  0  0  0  0
  5 14  1  0  0  0  0
  6  4  1  0  0  0  0
  6 15  1  0  0  0  0
  8 25  1  0  0  0  0
  8  5  1  0  0  0  0
  9  1  1  0  0  0  0
 11  3  1  0  0  0  0
 11  7  2  0  0  0  0
 12  8  1  0  0  0  0
 12  1  1  0  0  0  0
 13 11  1  0  0  0  0
 14  3  1  0  0  0  0
 15 17  1  0  0  0  0
 17 13  1  0  0  0  0
 17 10  2  0  0  0  0
 18 25  1  0  0  0  0
 20 18  1  0  0  0  0
 20 19  1  0  0  0  0
 21 20  2  0  0  0  0
 22 24  1  0  0  0  0
 23 25  1  0  0  0  0
 24 19  1  0  0  0  0
 24 23  1  0  0  0  0
 24 26  1  0  0  0  0
 26 28  1  0  0  0  0
 27 26  2  0  0  0  0
 30 29  1  0  0  0  0
 30 15  1  0  0  0  0
 31 30  2  0  0  0  0
 32 34  1  0  0  0  0
 33 35  1  0  0  0  0
 34 33  2  0  0  0  0
 34 31  1  0  0  0  0
 35 29  2  0  0  0  0
 36 37  1  0  0  0  0
 36  6  1  0  0  0  0
M  END
>  <MODEL>
3

>  <REMARK>
 VINA RESULT:      -6.7      7.159     10.091
  Name = 
  4 active torsions:
  status: ('A' for Active; 'I' for Inactive)
    1  A    between atoms: C_6  and  C_31
    2  A    between atoms: C_7  and  C_14
    3  A    between atoms: C_11  and  C_33
    4  A    between atoms: N_20  and  C_36
                            x       y       z     vdW  Elec       q    Type
                         _______ _______ _______ _____ _____    ______ ____

>  <TORSDO>
F 4

$$$$
=
 OpenBabel10272414503D

 37 41  0  0  1  0  0  0  0  0999 V2000
  190.2290  175.8850  137.9510 C   0  0  1  0  0  0  0  0  0  0  0  0
  189.5230  177.5340  140.7860 C   0  0  2  0  0  3  0  0  0  0  0  0
  191.7900  177.4550  139.0160 O   0  0  0  0  0  0  0  0  0  0  0  0
  189.1960  176.1640  141.3720 C   0  0  0  0  0  2  0  0  0  0  0  0
  189.3110  177.6760  139.2650 C   0  0  2  0  0  3  0  0  0  0  0  0
  189.2320  176.1950  142.9120 C   0  0  1  0  0  3  0  0  0  0  0  0
  193.1460  178.0380  140.7620 O   0  0  0  0  0  0  0  0  0  0  0  0
  188.1840  176.8440  138.8240 N   0  0  2  0  0  0  0  0  0  0  0  0
  190.7310  174.9480  138.8570 O   0  0  0  0  0  1  0  0  0  0  0  0
  191.9990  178.6520  143.1450 O   0  0  0  0  0  0  0  0  0  0  0  0
  191.9750  177.8250  140.3460 C   0  0  0  0  0  0  0  0  0  0  0  0
  188.7140  175.8150  137.9220 C   0  0  0  0  0  2  0  0  0  0  0  0
  190.8520  177.9310  141.2350 N   0  0  0  0  0  0  0  0  0  0  0  0
  190.5090  177.2930  138.4080 C   0  0  2  0  0  3  0  0  0  0  0  0
  190.0000  177.3730  143.5670 C   0  0  2  0  0  3  0  0  0  0  0  0
  190.8030  175.6380  136.5720 C   0  0  0  0  0  1  0  0  0  0  0  0
  191.0310  178.0060  142.6580 C   0  0  0  0  0  0  0  0  0  0  0  0
  186.3300  178.4120  139.0020 N   0  0  0  0  0  2  0  0  0  0  0  0
  184.7900  178.7850  137.0560 C   0  0  0  0  0  2  0  0  0  0  0  0
  185.1820  179.0630  138.4680 C   0  0  0  0  0  0  0  0  0  0  0  0
  184.4820  179.8610  139.2020 N   0  0  0  0  0  2  0  0  0  0  0  0
  184.0350  176.5790  137.4760 F   0  0  0  0  0  0  0  0  0  0  0  0
  186.3750  176.7570  137.1360 C   0  0  0  0  0  2  0  0  0  0  0  0
  184.9780  177.2920  136.7540 C   0  0  2  0  0  0  0  0  0  0  0  0
  187.1880  177.6430  138.0990 C   0  0  2  0  0  3  0  0  0  0  0  0
  184.7600  177.0670  135.2880 C   0  0  0  0  0  0  0  0  0  0  0  0
  185.6360  177.4080  134.4500 O   0  0  0  0  0  0  0  0  0  0  0  0
  183.5870  176.4650  134.8440 O   0  0  0  0  0  1  0  0  0  0  0  0
  191.6060  176.0150  144.9240 C   0  0  0  0  0  3  0  0  0  0  0  0
  190.5760  176.9610  144.8890 C   0  0  0  0  0  0  0  0  0  0  0  0
  190.0950  177.5070  146.0900 C   0  0  0  0  0  3  0  0  0  0  0  0
  190.1550  177.6640  148.5260 N   0  0  0  0  0  1  0  0  0  0  0  0
  191.6730  176.1630  147.3400 C   0  0  0  0  0  3  0  0  0  0  0  0
  190.6430  177.1080  147.3120 C   0  0  0  0  0  0  0  0  0  0  0  0
  192.1540  175.6170  146.1460 C   0  0  0  0  0  3  0  0  0  0  0  0
  187.8300  176.0420  143.4990 C   0  0  0  0  0  2  0  0  0  0  0  0
  187.1440  177.3860  143.6950 C   0  0  0  0  0  1  0  0  0  0  0  0
  1 16  1  6  0  0  0
  1 14  1  0  0  0  0
  1  9  1  0  0  0  0
  2 13  1  0  0  0  0
  2  4  1  6  0  0  0
  3 11  1  0  0  0  0
  4  6  1  0  0  0  0
  5  2  1  0  0  0  0
  6 36  1  0  0  0  0
  6 15  1  0  0  0  0
  8  5  1  0  0  0  0
 11  7  2  0  0  0  0
 11 13  1  0  0  0  0
 12  1  1  0  0  0  0
 12  8  1  0  0  0  0
 13 17  1  0  0  0  0
 14  3  1  0  0  0  0
 14  5  1  0  0  0  0
 15 30  1  0  0  0  0
 17 10  2  0  0  0  0
 17 15  1  0  0  0  0
 19 20  1  0  0  0  0
 20 18  1  0  0  0  0
 20 21  2  0  0  0  0
 23 25  1  0  0  0  0
 24 19  1  0  0  0  0
 24 23  1  0  0  0  0
 24 22  1  0  0  0  0
 25  8  1  0  0  0  0
 25 18  1  0  0  0  0
 26 24  1  0  0  0  0
 27 26  2  0  0  0  0
 28 26  1  0  0  0  0
 29 35  1  0  0  0  0
 30 29  2  0  0  0  0
 30 31  1  0  0  0  0
 31 34  2  0  0  0  0
 34 33  1  0  0  0  0
 34 32  1  0  0  0  0
 35 33  2  0  0  0  0
 36 37  1  0  0  0  0
M  END
>  <MODEL>
4

>  <REMARK>
 VINA RESULT:      -6.7      4.445      6.598
  Name = 
  4 active torsions:
  status: ('A' for Active; 'I' for Inactive)
    1  A    between atoms: C_6  and  C_31
    2  A    between atoms: C_7  and  C_14
    3  A    between atoms: C_11  and  C_33
    4  A    between atoms: N_20  and  C_36
                            x       y       z     vdW  Elec       q    Type
                         _______ _______ _______ _____ _____    ______ ____

>  <TORSDO>
F 4

$$$$
=
 OpenBabel10272414503D

 37 41  0  0  1  0  0  0  0  0999 V2000
  187.9080  178.9200  136.5650 C   0  0  1  0  0  0  0  0  0  0  0  0
  188.8280  176.8480  139.0370 C   0  0  2  0  0  3  0  0  0  0  0  0
  186.5800  178.5910  138.6060 O   0  0  0  0  0  0  0  0  0  0  0  0
  190.1560  177.6000  139.0240 C   0  0  0  0  0  2  0  0  0  0  0  0
  188.0740  176.8050  137.6930 C   0  0  2  0  0  3  0  0  0  0  0  0
  190.9220  177.3970  140.3450 C   0  0  1  0  0  3  0  0  0  0  0  0
  186.3260  178.7880  140.8690 O   0  0  0  0  0  0  0  0  0  0  0  0
  189.0230  176.7710  136.5720 N   0  0  2  0  0  0  0  0  0  0  0  0
  188.6430  179.8330  137.3250 O   0  0  0  0  0  1  0  0  0  0  0  0
  187.8980  177.2780  142.4870 O   0  0  0  0  0  0  0  0  0  0  0  0
  186.9420  178.2550  139.9080 C   0  0  0  0  0  0  0  0  0  0  0  0
  188.8490  178.0070  135.8020 C   0  0  0  0  0  2  0  0  0  0  0  0
  188.0220  177.3400  140.1490 N   0  0  0  0  0  0  0  0  0  0  0  0
  187.1320  177.9740  137.4430 C   0  0  2  0  0  3  0  0  0  0  0  0
  190.0940  176.9120  141.5630 C   0  0  2  0  0  3  0  0  0  0  0  0
  186.9870  179.6550  135.6130 C   0  0  0  0  0  1  0  0  0  0  0  0
  188.6150  177.2110  141.4510 C   0  0  0  0  0  0  0  0  0  0  0  0
  187.3510  175.2440  135.6770 N   0  0  0  0  0  2  0  0  0  0  0  0
  188.0470  173.0890  134.5980 C   0  0  0  0  0  2  0  0  0  0  0  0
  186.9760  174.0240  135.0480 C   0  0  0  0  0  0  0  0  0  0  0  0
  185.7310  173.7250  134.8900 N   0  0  0  0  0  2  0  0  0  0  0  0
  188.6740  172.4190  136.7830 F   0  0  0  0  0  0  0  0  0  0  0  0
  189.6820  174.4410  136.0580 C   0  0  0  0  0  2  0  0  0  0  0  0
  189.1660  173.0440  135.6480 C   0  0  2  0  0  0  0  0  0  0  0  0
  188.7650  175.6240  135.6940 C   0  0  2  0  0  3  0  0  0  0  0  0
  190.3110  172.2500  135.0970 C   0  0  0  0  0  0  0  0  0  0  0  0
  191.4910  172.6830  135.1830 O   0  0  0  0  0  1  0  0  0  0  0  0
  190.0780  171.0180  134.4950 O   0  0  0  0  0  0  0  0  0  0  0  0
  190.8790  178.7950  143.0140 C   0  0  0  0  0  3  0  0  0  0  0  0
  190.6870  177.4190  142.8450 C   0  0  0  0  0  0  0  0  0  0  0  0
  191.0540  176.5350  143.8720 C   0  0  0  0  0  3  0  0  0  0  0  0
  191.9760  176.1310  146.0970 N   0  0  0  0  0  1  0  0  0  0  0  0
  191.7960  178.4040  145.2210 C   0  0  0  0  0  3  0  0  0  0  0  0
  191.6070  177.0280  145.0570 C   0  0  0  0  0  0  0  0  0  0  0  0
  191.4320  179.2860  144.2000 C   0  0  0  0  0  3  0  0  0  0  0  0
  192.1680  176.5390  140.1340 C   0  0  0  0  0  2  0  0  0  0  0  0
  192.6200  176.5380  138.6810 C   0  0  0  0  0  1  0  0  0  0  0  0
  1 16  1  6  0  0  0
  1  9  1  0  0  0  0
  1 14  1  0  0  0  0
  2  4  1  6  0  0  0
  2 13  1  0  0  0  0
  3 11  1  0  0  0  0
  4  6  1  0  0  0  0
  5  2  1  0  0  0  0
  6 15  1  0  0  0  0
  8  5  1  0  0  0  0
 11 13  1  0  0  0  0
 11  7  2  0  0  0  0
 12  1  1  0  0  0  0
 12  8  1  0  0  0  0
 13 17  1  0  0  0  0
 14  5  1  0  0  0  0
 14  3  1  0  0  0  0
 15 30  1  0  0  0  0
 17 15  1  0  0  0  0
 17 10  2  0  0  0  0
 18 25  1  0  0  0  0
 19 20  1  0  0  0  0
 19 24  1  0  0  0  0
 20 18  1  0  0  0  0
 21 20  2  0  0  0  0
 24 23  1  0  0  0  0
 24 22  1  0  0  0  0
 25 23  1  0  0  0  0
 25  8  1  0  0  0  0
 26 27  1  0  0  0  0
 26 24  1  0  0  0  0
 28 26  2  0  0  0  0
 29 35  1  0  0  0  0
 30 29  2  0  0  0  0
 30 31  1  0  0  0  0
 31 34  2  0  0  0  0
 34 33  1  0  0  0  0
 34 32  1  0  0  0  0
 35 33  2  0  0  0  0
 36  6  1  0  0  0  0
 37 36  1  0  0  0  0
M  END
>  <MODEL>
5

>  <REMARK>
 VINA RESULT:      -6.4      5.715      8.441
  Name = 
  4 active torsions:
  status: ('A' for Active; 'I' for Inactive)
    1  A    between atoms: C_6  and  C_31
    2  A    between atoms: C_7  and  C_14
    3  A    between atoms: C_11  and  C_33
    4  A    between atoms: N_20  and  C_36
                            x       y       z     vdW  Elec       q    Type
                         _______ _______ _______ _____ _____    ______ ____

>  <TORSDO>
F 4

$$$$
=
 OpenBabel10272414503D

 37 41  0  0  1  0  0  0  0  0999 V2000
  189.2250  178.8240  138.7510 C   0  0  1  0  0  0  0  0  0  0  0  0
  188.9550  176.8280  141.4340 C   0  0  2  0  0  3  0  0  0  0  0  0
  187.0790  178.3070  139.8310 O   0  0  0  0  0  0  0  0  0  0  0  0
  190.0100  177.7280  142.0720 C   0  0  0  0  0  2  0  0  0  0  0  0
  189.0130  176.7220  139.8970 C   0  0  2  0  0  3  0  0  0  0  0  0
  190.0010  177.5910  143.6060 C   0  0  1  0  0  3  0  0  0  0  0  0
  185.6740  178.4330  141.6300 O   0  0  0  0  0  0  0  0  0  0  0  0
  190.4010  176.8180  139.4260 N   0  0  2  0  0  0  0  0  0  0  0  0
  189.3580  179.8010  139.7400 O   0  0  0  0  0  1  0  0  0  0  0  0
  186.3390  177.0850  143.8910 O   0  0  0  0  0  0  0  0  0  0  0  0
  186.7520  177.9920  141.1470 C   0  0  0  0  0  0  0  0  0  0  0  0
  190.5160  178.0390  138.6220 C   0  0  0  0  0  2  0  0  0  0  0  0
  187.6440  177.2030  141.9500 N   0  0  0  0  0  0  0  0  0  0  0  0
  188.2140  177.7790  139.1460 C   0  0  2  0  0  3  0  0  0  0  0  0
  188.7210  176.9920  144.2450 C   0  0  2  0  0  3  0  0  0  0  0  0
  188.8530  179.4640  137.4300 C   0  0  0  0  0  1  0  0  0  0  0  0
  187.4900  177.1200  143.3750 C   0  0  0  0  0  0  0  0  0  0  0  0
  192.1330  175.7450  138.0920 N   0  0  0  0  0  2  0  0  0  0  0  0
  191.5410  173.9280  136.4670 C   0  0  0  0  0  2  0  0  0  0  0  0
  192.5560  174.8190  137.0980 C   0  0  0  0  0  0  0  0  0  0  0  0
  193.7940  174.7690  136.7360 N   0  0  0  0  0  2  0  0  0  0  0  0
  190.4970  175.6490  135.2160 F   0  0  0  0  0  0  0  0  0  0  0  0
  189.7360  175.4760  137.4560 C   0  0  0  0  0  2  0  0  0  0  0  0
  190.2500  174.7180  136.2120 C   0  0  2  0  0  0  0  0  0  0  0  0
  190.7590  175.6650  138.5920 C   0  0  2  0  0  3  0  0  0  0  0  0
  189.1860  173.7670  135.7530 C   0  0  0  0  0  0  0  0  0  0  0  0
  188.9500  173.6130  134.5260 O   0  0  0  0  0  0  0  0  0  0  0  0
  188.4590  173.0340  136.6860 O   0  0  0  0  0  1  0  0  0  0  0  0
  189.4930  177.3400  146.6010 C   0  0  0  0  0  3  0  0  0  0  0  0
  188.5090  177.5410  145.6250 C   0  0  0  0  0  0  0  0  0  0  0  0
  187.3410  178.2470  145.9520 C   0  0  0  0  0  3  0  0  0  0  0  0
  185.9790  179.4660  147.5720 N   0  0  0  0  0  1  0  0  0  0  0  0
  188.1490  178.5460  148.2140 C   0  0  0  0  0  3  0  0  0  0  0  0
  187.1630  178.7490  147.2440 C   0  0  0  0  0  0  0  0  0  0  0  0
  189.3130  177.8420  147.8920 C   0  0  0  0  0  3  0  0  0  0  0  0
  191.2620  176.8870  144.1040 C   0  0  0  0  0  2  0  0  0  0  0  0
  191.2800  175.4140  143.7230 C   0  0  0  0  0  1  0  0  0  0  0  0
  1 16  1  6  0  0  0
  1 14  1  0  0  0  0
  1  9  1  0  0  0  0
  2 13  1  0  0  0  0
  2  4  1  6  0  0  0
  3 11  1  0  0  0  0
  4  6  1  0  0  0  0
  5  2  1  0  0  0  0
  6 36  1  0  0  0  0
  6 15  1  0  0  0  0
  8  5  1  0  0  0  0
 11  7  2  0  0  0  0
 11 13  1  0  0  0  0
 12  1  1  0  0  0  0
 12  8  1  0  0  0  0
 13 17  1  0  0  0  0
 14  3  1  0  0  0  0
 14  5  1  0  0  0  0
 15 30  1  0  0  0  0
 17 10  2  0  0  0  0
 17 15  1  0  0  0  0
 18 25  1  0  0  0  0
 19 20  1  0  0  0  0
 20 18  1  0  0  0  0
 21 20  2  0  0  0  0
 22 24  1  0  0  0  0
 23 25  1  0  0  0  0
 24 19  1  0  0  0  0
 24 23  1  0  0  0  0
 25  8  1  0  0  0  0
 26 24  1  0  0  0  0
 26 28  1  0  0  0  0
 27 26  2  0  0  0  0
 29 35  1  0  0  0  0
 30 31  1  0  0  0  0
 30 29  2  0  0  0  0
 31 34  2  0  0  0  0
 34 32  1  0  0  0  0
 34 33  1  0  0  0  0
 35 33  2  0  0  0  0
 37 36  1  0  0  0  0
M  END
>  <MODEL>
6

>  <REMARK>
 VINA RESULT:      -6.4      5.850      8.513
  Name = 
  4 active torsions:
  status: ('A' for Active; 'I' for Inactive)
    1  A    between atoms: C_6  and  C_31
    2  A    between atoms: C_7  and  C_14
    3  A    between atoms: C_11  and  C_33
    4  A    between atoms: N_20  and  C_36
                            x       y       z     vdW  Elec       q    Type
                         _______ _______ _______ _____ _____    ______ ____

>  <TORSDO>
F 4

$$$$
=
 OpenBabel10272414503D

 37 41  0  0  1  0  0  0  0  0999 V2000
  185.0160  173.2970  137.2210 C   0  0  1  0  0  0  0  0  0  0  0  0
  187.3780  175.4100  136.1220 C   0  0  2  0  0  3  0  0  0  0  0  0
  186.4330  172.8300  135.2690 O   0  0  0  0  0  0  0  0  0  0  0  0
  187.9050  175.3910  137.5540 C   0  0  0  0  0  2  0  0  0  0  0  0
  185.8640  175.1630  135.9680 C   0  0  2  0  0  3  0  0  0  0  0  0
  189.3720  175.8600  137.6120 C   0  0  1  0  0  3  0  0  0  0  0  0
  188.4840  172.4050  134.3540 O   0  0  0  0  0  0  0  0  0  0  0  0
  185.1330  175.7130  137.1170 N   0  0  2  0  0  0  0  0  0  0  0  0
  186.0860  172.8070  137.9740 O   0  0  0  0  0  1  0  0  0  0  0  0
  190.3370  174.3900  134.3480 O   0  0  0  0  0  0  0  0  0  0  0  0
  187.7290  173.2230  134.9450 C   0  0  0  0  0  0  0  0  0  0  0  0
  184.5080  174.5910  137.8270 C   0  0  0  0  0  2  0  0  0  0  0  0
  188.2050  174.5290  135.3060 N   0  0  0  0  0  0  0  0  0  0  0  0
  185.4580  173.7020  135.8390 C   0  0  2  0  0  3  0  0  0  0  0  0
  190.1700  175.8180  136.2820 C   0  0  2  0  0  3  0  0  0  0  0  0
  183.9090  172.2650  137.1560 C   0  0  0  0  0  1  0  0  0  0  0  0
  189.6030  174.8520  135.2650 C   0  0  0  0  0  0  0  0  0  0  0  0
  183.8050  177.6730  137.6860 N   0  0  0  0  0  2  0  0  0  0  0  0
  181.7050  178.1950  136.4160 C   0  0  0  0  0  2  0  0  0  0  0  0
  182.6700  178.5130  137.5080 C   0  0  0  0  0  0  0  0  0  0  0  0
  182.4700  179.5180  138.2930 N   0  0  0  0  0  2  0  0  0  0  0  0
  180.8130  176.2720  137.4740 F   0  0  0  0  0  0  0  0  0  0  0  0
  182.8150  175.8770  136.2650 C   0  0  0  0  0  2  0  0  0  0  0  0
  181.4960  176.6770  136.3390 C   0  0  2  0  0  0  0  0  0  0  0  0
  184.0840  176.6430  136.6830 C   0  0  2  0  0  3  0  0  0  0  0  0
  180.6750  176.3650  135.1240 C   0  0  0  0  0  0  0  0  0  0  0  0
  180.4440  175.1720  134.7960 O   0  0  0  0  0  1  0  0  0  0  0  0
  180.1500  177.3990  134.3560 O   0  0  0  0  0  0  0  0  0  0  0  0
  192.0150  174.5210  137.3680 C   0  0  0  0  0  3  0  0  0  0  0  0
  191.6280  175.5850  136.5460 C   0  0  0  0  0  0  0  0  0  0  0  0
  192.6070  176.4200  135.9840 C   0  0  0  0  0  3  0  0  0  0  0  0
  194.9500  177.0330  135.6720 N   0  0  0  0  0  1  0  0  0  0  0  0
  194.3410  175.1230  137.0660 C   0  0  0  0  0  3  0  0  0  0  0  0
  193.9600  176.1880  136.2440 C   0  0  0  0  0  0  0  0  0  0  0  0
  193.3690  174.2900  137.6270 C   0  0  0  0  0  3  0  0  0  0  0  0
  189.4880  177.2220  138.2950 C   0  0  0  0  0  2  0  0  0  0  0  0
  189.8420  177.0920  139.7690 C   0  0  0  0  0  1  0  0  0  0  0  0
  1 16  1  6  0  0  0
  1 12  1  0  0  0  0
  1  9  1  0  0  0  0
  2  4  1  1  0  0  0
  3 14  1  0  0  0  0
  4  6  1  0  0  0  0
  5  2  1  0  0  0  0
  5  8  1  0  0  0  0
  6 36  1  0  0  0  0
  7 11  2  0  0  0  0
  8 12  1  0  0  0  0
 10 17  2  0  0  0  0
 11  3  1  0  0  0  0
 11 13  1  0  0  0  0
 13  2  1  0  0  0  0
 14  5  1  0  0  0  0
 14  1  1  0  0  0  0
 15 30  1  0  0  0  0
 15  6  1  0  0  0  0
 17 13  1  0  0  0  0
 17 15  1  0  0  0  0
 19 20  1  0  0  0  0
 20 18  1  0  0  0  0
 20 21  2  0  0  0  0
 23 24  1  0  0  0  0
 23 25  1  0  0  0  0
 24 19  1  0  0  0  0
 24 22  1  0  0  0  0
 25  8  1  0  0  0  0
 25 18  1  0  0  0  0
 26 24  1  0  0  0  0
 27 26  1  0  0  0  0
 28 26  2  0  0  0  0
 29 35  1  0  0  0  0
 30 29  2  0  0  0  0
 31 34  2  0  0  0  0
 31 30  1  0  0  0  0
 32 34  1  0  0  0  0
 33 35  2  0  0  0  0
 34 33  1  0  0  0  0
 36 37  1  0  0  0  0
M  END
>  <MODEL>
7

>  <REMARK>
 VINA RESULT:      -5.7      5.620      7.898
  Name = 
  4 active torsions:
  status: ('A' for Active; 'I' for Inactive)
    1  A    between atoms: C_6  and  C_31
    2  A    between atoms: C_7  and  C_14
    3  A    between atoms: C_11  and  C_33
    4  A    between atoms: N_20  and  C_36
                            x       y       z     vdW  Elec       q    Type
                         _______ _______ _______ _____ _____    ______ ____

>  <TORSDO>
F 4

$$$$
=
 OpenBabel10272414503D

 37 41  0  0  1  0  0  0  0  0999 V2000
  182.2790  180.1090  138.5920 C   0  0  1  0  0  0  0  0  0  0  0  0
  183.2810  178.0040  141.0030 C   0  0  2  0  0  3  0  0  0  0  0  0
  181.0280  179.7640  140.6790 O   0  0  0  0  0  0  0  0  0  0  0  0
  184.6120  178.7480  140.9470 C   0  0  0  0  0  2  0  0  0  0  0  0
  182.4760  177.9810  139.6890 C   0  0  2  0  0  3  0  0  0  0  0  0
  185.4280  178.5260  142.2350 C   0  0  1  0  0  3  0  0  0  0  0  0
  180.8630  179.9370  142.9530 O   0  0  0  0  0  0  0  0  0  0  0  0
  183.3800  177.9540  138.5320 N   0  0  2  0  0  0  0  0  0  0  0  0
  183.0480  181.0090  139.3340 O   0  0  0  0  0  1  0  0  0  0  0  0
  182.4880  178.3990  144.4910 O   0  0  0  0  0  0  0  0  0  0  0  0
  181.4390  179.4110  141.9620 C   0  0  0  0  0  0  0  0  0  0  0  0
  183.1840  179.2000  137.7830 C   0  0  0  0  0  2  0  0  0  0  0  0
  182.5220  178.4870  142.1510 N   0  0  0  0  0  0  0  0  0  0  0  0
  181.5310  179.1570  139.4890 C   0  0  2  0  0  3  0  0  0  0  0  0
  184.6440  178.0310  143.4790 C   0  0  2  0  0  3  0  0  0  0  0  0
  181.3260  180.8600  137.6850 C   0  0  0  0  0  1  0  0  0  0  0  0
  183.1640  178.3400  143.4270 C   0  0  0  0  0  0  0  0  0  0  0  0
  182.0060  175.9750  138.1780 N   0  0  0  0  0  2  0  0  0  0  0  0
  182.6980  174.2300  136.5130 C   0  0  0  0  0  2  0  0  0  0  0  0
  181.7490  174.7230  137.5530 C   0  0  0  0  0  0  0  0  0  0  0  0
  180.7250  174.0170  137.8980 N   0  0  0  0  0  2  0  0  0  0  0  0
  184.4480  173.7450  138.0350 F   0  0  0  0  0  0  0  0  0  0  0  0
  184.3590  176.0130  137.3470 C   0  0  0  0  0  2  0  0  0  0  0  0
  184.1390  174.5390  136.9430 C   0  0  2  0  0  0  0  0  0  0  0  0
  183.0810  176.8190  137.6510 C   0  0  2  0  0  3  0  0  0  0  0  0
  185.0610  174.2080  135.8080 C   0  0  0  0  0  0  0  0  0  0  0  0
  184.9180  173.1390  135.1580 O   0  0  0  0  0  0  0  0  0  0  0  0
  186.0770  175.0900  135.4580 O   0  0  0  0  0  1  0  0  0  0  0  0
  185.0140  179.8140  145.1960 C   0  0  0  0  0  3  0  0  0  0  0  0
  185.2890  178.5200  144.7420 C   0  0  0  0  0  0  0  0  0  0  0  0
  186.1660  177.7000  145.4710 C   0  0  0  0  0  3  0  0  0  0  0  0
  187.6450  177.3430  147.3810 N   0  0  0  0  0  1  0  0  0  0  0  0
  186.4790  179.4700  147.0930 C   0  0  0  0  0  3  0  0  0  0  0  0
  186.7590  178.1760  146.6440 C   0  0  0  0  0  0  0  0  0  0  0  0
  185.6070  180.2880  146.3690 C   0  0  0  0  0  3  0  0  0  0  0  0
  186.6600  177.6640  141.9660 C   0  0  0  0  0  2  0  0  0  0  0  0
  187.8430  178.4930  141.4900 C   0  0  0  0  0  1  0  0  0  0  0  0
  1 16  1  6  0  0  0
  1  9  1  0  0  0  0
  1 14  1  0  0  0  0
  2  4  1  6  0  0  0
  2 13  1  0  0  0  0
  3 11  1  0  0  0  0
  4  6  1  0  0  0  0
  5  2  1  0  0  0  0
  6 15  1  0  0  0  0
  8  5  1  0  0  0  0
 11 13  1  0  0  0  0
 11  7  2  0  0  0  0
 12  8  1  0  0  0  0
 12  1  1  0  0  0  0
 13 17  1  0  0  0  0
 14  5  1  0  0  0  0
 14  3  1  0  0  0  0
 15 30  1  0  0  0  0
 17 15  1  0  0  0  0
 17 10  2  0  0  0  0
 19 24  1  0  0  0  0
 19 20  1  0  0  0  0
 20 21  2  0  0  0  0
 20 18  1  0  0  0  0
 23 25  1  0  0  0  0
 24 23  1  0  0  0  0
 24 22  1  0  0  0  0
 25 18  1  0  0  0  0
 25  8  1  0  0  0  0
 26 24  1  0  0  0  0
 27 26  2  0  0  0  0
 28 26  1  0  0  0  0
 29 35  1  0  0  0  0
 30 29  2  0  0  0  0
 30 31  1  0  0  0  0
 31 34  2  0  0  0  0
 34 33  1  0  0  0  0
 34 32  1  0  0  0  0
 35 33  2  0  0  0  0
 36  6  1  0  0  0  0
 37 36  1  0  0  0  0
M  END
>  <MODEL>
8

>  <REMARK>
 VINA RESULT:      -5.5      2.964      5.455
  Name = 
  4 active torsions:
  status: ('A' for Active; 'I' for Inactive)
    1  A    between atoms: C_6  and  C_31
    2  A    between atoms: C_7  and  C_14
    3  A    between atoms: C_11  and  C_33
    4  A    between atoms: N_20  and  C_36
                            x       y       z     vdW  Elec       q    Type
                         _______ _______ _______ _____ _____    ______ ____

>  <TORSDO>
F 4

$$$$
=
 OpenBabel10272414503D

 37 41  0  0  1  0  0  0  0  0999 V2000
  183.1980  179.8290  139.0090 C   0  0  1  0  0  0  0  0  0  0  0  0
  185.1150  177.6240  140.6570 C   0  0  2  0  0  3  0  0  0  0  0  0
  182.9490  179.3630  141.4090 O   0  0  0  0  0  0  0  0  0  0  0  0
  186.3010  178.3900  140.0790 C   0  0  0  0  0  2  0  0  0  0  0  0
  183.8270  177.6520  139.8090 C   0  0  2  0  0  3  0  0  0  0  0  0
  187.5850  178.1180  140.8870 C   0  0  1  0  0  3  0  0  0  0  0  0
  183.7660  179.4220  143.5430 O   0  0  0  0  0  0  0  0  0  0  0  0
  184.1550  177.6960  138.3780 N   0  0  2  0  0  0  0  0  0  0  0  0
  184.2150  180.7030  139.3990 O   0  0  0  0  0  1  0  0  0  0  0  0
  185.8790  177.8360  144.1670 O   0  0  0  0  0  0  0  0  0  0  0  0
  183.8630  178.9540  142.3770 C   0  0  0  0  0  0  0  0  0  0  0  0
  183.6680  178.9740  137.8470 C   0  0  0  0  0  2  0  0  0  0  0  0
  184.9170  178.0380  142.0410 N   0  0  0  0  0  0  0  0  0  0  0  0
  182.8960  178.8230  140.0880 C   0  0  2  0  0  3  0  0  0  0  0  0
  187.3990  177.5510  142.3190 C   0  0  2  0  0  3  0  0  0  0  0  0
  181.9560  180.6090  138.6310 C   0  0  0  0  0  1  0  0  0  0  0  0
  186.0390  177.8390  142.9150 C   0  0  0  0  0  0  0  0  0  0  0  0
  182.3810  176.0290  138.3980 N   0  0  0  0  0  2  0  0  0  0  0  0
  182.4430  174.0900  136.8070 C   0  0  0  0  0  2  0  0  0  0  0  0
  181.7870  174.8240  137.9270 C   0  0  0  0  0  0  0  0  0  0  0  0
  180.7130  174.3660  138.4760 N   0  0  0  0  0  2  0  0  0  0  0  0
  184.2830  173.3370  138.0960 F   0  0  0  0  0  0  0  0  0  0  0  0
  184.5320  175.5330  137.2350 C   0  0  0  0  0  2  0  0  0  0  0  0
  183.9660  174.1160  136.9950 C   0  0  2  0  0  0  0  0  0  0  0  0
  183.5030  176.6010  137.6500 C   0  0  2  0  0  3  0  0  0  0  0  0
  184.6120  173.5400  135.7720 C   0  0  0  0  0  0  0  0  0  0  0  0
  185.3860  174.2400  135.0660 O   0  0  0  0  0  0  0  0  0  0  0  0
  184.3690  172.2180  135.4130 O   0  0  0  0  0  1  0  0  0  0  0  0
  189.5550  178.7690  142.6820 C   0  0  0  0  0  3  0  0  0  0  0  0
  188.5230  177.9870  143.2120 C   0  0  0  0  0  0  0  0  0  0  0  0
  188.5550  177.6190  144.5670 C   0  0  0  0  0  3  0  0  0  0  0  0
  189.6420  177.6630  146.7530 N   0  0  0  0  0  1  0  0  0  0  0  0
  190.6400  178.8170  144.8470 C   0  0  0  0  0  3  0  0  0  0  0  0
  189.6120  178.0350  145.3810 C   0  0  0  0  0  0  0  0  0  0  0  0
  190.6110  179.1840  143.4980 C   0  0  0  0  0  3  0  0  0  0  0  0
  188.5800  177.2880  140.0770 C   0  0  0  0  0  2  0  0  0  0  0  0
  189.3070  178.1270  139.0370 C   0  0  0  0  0  1  0  0  0  0  0  0
  1 16  1  6  0  0  0
  1  9  1  0  0  0  0
  1 14  1  0  0  0  0
  2  4  1  6  0  0  0
  2 13  1  0  0  0  0
  3 11  1  0  0  0  0
  4  6  1  0  0  0  0
  5 14  1  0  0  0  0
  5  2  1  0  0  0  0
  6 15  1  0  0  0  0
  8  5  1  0  0  0  0
 11  7  2  0  0  0  0
 12  8  1  0  0  0  0
 12  1  1  0  0  0  0
 13 11  1  0  0  0  0
 13 17  1  0  0  0  0
 14  3  1  0  0  0  0
 15 17  1  0  0  0  0
 15 30  1  0  0  0  0
 17 10  2  0  0  0  0
 19 24  1  0  0  0  0
 19 20  1  0  0  0  0
 20 18  1  0  0  0  0
 20 21  2  0  0  0  0
 23 25  1  0  0  0  0
 24 23  1  0  0  0  0
 24 22  1  0  0  0  0
 25  8  1  0  0  0  0
 25 18  1  0  0  0  0
 26 24  1  0  0  0  0
 27 26  2  0  0  0  0
 28 26  1  0  0  0  0
 29 30  2  0  0  0  0
 29 35  1  0  0  0  0
 30 31  1  0  0  0  0
 31 34  2  0  0  0  0
 33 34  1  0  0  0  0
 34 32  1  0  0  0  0
 35 33  2  0  0  0  0
 36  6  1  0  0  0  0
 37 36  1  0  0  0  0
M  END
>  <MODEL>
9

>  <REMARK>
 VINA RESULT:      -5.2      3.224      5.930
  Name = 
  4 active torsions:
  status: ('A' for Active; 'I' for Inactive)
    1  A    between atoms: C_6  and  C_31
    2  A    between atoms: C_7  and  C_14
    3  A    between atoms: C_11  and  C_33
    4  A    between atoms: N_20  and  C_36
                            x       y       z     vdW  Elec       q    Type
                         _______ _______ _______ _____ _____    ______ ____

>  <TORSDO>
F 4

$$$$
